
  -OEChem-04052321463D

 84 93  0     1  0  0  0  0  0999 V2000
  -30.4541  -32.5555   24.4372 C   0  0  0  0  0  0  0  0  0  0  0  0
  -30.7356  -31.3397   23.8225 C   0  0  0  0  0  0  0  0  0  0  0  0
  -24.5734   -9.2664   22.0325 C   0  0  0  0  0  0  0  0  0  0  0  0
  -23.2973   -9.9880   20.1121 C   0  0  0  0  0  0  0  0  0  0  0  0
  -29.1630  -32.8241   24.8899 C   0  0  0  0  0  0  0  0  0  0  0  0
  -29.7263  -30.3911   23.6611 C   0  0  0  0  0  0  0  0  0  0  0  0
  -27.7855  -18.9467   15.0395 C   0  0  0  0  0  0  0  0  0  0  0  0
  -29.0474  -26.4976   18.9829 C   0  0  0  0  0  0  0  0  0  0  0  0
  -23.5062   -8.4667   22.4412 C   0  0  0  0  0  0  0  0  0  0  0  0
  -22.2301   -9.1883   20.5208 C   0  0  0  0  0  0  0  0  0  0  0  0
  -26.9327  -17.8443   14.9861 C   0  0  0  0  0  0  0  0  0  0  0  0
  -29.3859  -25.1546   18.8237 C   0  0  0  0  0  0  0  0  0  0  0  0
  -22.1893   -5.4617   21.6235 C   0  0  0  0  0  0  0  0  0  0  0  0
  -22.4760   -4.1622   22.0415 C   0  0  0  0  0  0  0  0  0  0  0  0
  -26.7973  -19.6093   17.1422 C   0  0  0  0  0  0  0  0  0  0  0  0
  -27.1408  -24.5219   19.4389 C   0  0  0  0  0  0  0  0  0  0  0  0
  -21.5393   -4.6543   24.2135 C   0  0  0  0  0  0  0  0  0  0  0  0
  -24.4690  -10.0272   20.8680 C   0  0  0  0  0  0  0  0  0  0  0  0
  -26.6345  -10.4858   19.6001 C   0  0  0  0  0  0  0  0  0  0  0  0
  -27.7179  -19.8292   16.1177 C   0  0  0  0  0  0  0  0  0  0  0  0
  -28.1352  -31.8822   24.7253 C   0  0  0  0  0  0  0  0  0  0  0  0
  -27.7539  -26.8630   19.3826 C   0  0  0  0  0  0  0  0  0  0  0  0
  -28.4206  -30.6468   24.1132 C   0  0  0  0  0  0  0  0  0  0  0  0
  -26.7876  -25.8704   19.6000 C   0  0  0  0  0  0  0  0  0  0  0  0
  -25.9444  -18.5069   17.0888 C   0  0  0  0  0  0  0  0  0  0  0  0
  -22.3346   -8.4276   21.6854 C   0  0  0  0  0  0  0  0  0  0  0  0
  -28.4334  -24.1663   19.0545 C   0  0  0  0  0  0  0  0  0  0  0  0
  -26.0121  -17.6244   16.0106 C   0  0  0  0  0  0  0  0  0  0  0  0
  -21.5777   -6.3575   22.5005 C   0  0  0  0  0  0  0  0  0  0  0  0
  -22.1509   -3.7585   23.3365 C   0  0  0  0  0  0  0  0  0  0  0  0
  -21.2527   -5.9538   23.7955 C   0  0  0  0  0  0  0  0  0  0  0  0
  -25.5708  -10.8539   20.4456 C   0  0  0  0  0  0  0  0  0  0  0  0
  -27.4085  -11.6169   19.5097 C   0  0  0  0  0  0  0  0  0  0  0  0
  -26.8993   -9.2335   18.9541 C   0  0  0  0  0  0  0  0  0  0  0  0
  -26.5264  -28.3845   21.8891 C   0  0  0  0  0  0  0  0  0  0  0  0
  -23.7723  -28.1477   20.1916 C   0  0  0  0  0  0  0  0  0  0  0  0
  -21.9819  -26.5163   17.7875 C   0  0  0  0  0  0  0  0  0  0  0  0
  -26.2050  -17.4448   20.1719 C   0  0  0  0  0  0  0  0  0  0  0  0
  -26.7661  -32.1985   25.2733 C   0  0  0  0  0  0  0  0  0  0  0  0
  -27.3970  -28.3174   19.5240 C   0  0  0  0  0  0  0  0  0  0  0  0
  -25.3793  -26.2111   20.0110 C   0  0  0  0  0  0  0  0  0  0  0  0
  -25.6669  -31.2908   24.7274 C   0  0  0  0  0  0  0  0  0  0  0  0
  -28.6116  -15.5375   21.9739 C   0  0  0  0  0  0  0  0  0  0  0  0
  -26.1084  -29.8314   24.7724 C   0  0  0  0  0  0  0  0  0  0  0  0
  -28.2012  -14.0877   21.7102 C   0  0  0  0  0  0  0  0  0  0  0  0
  -30.1190  -20.7868   16.0645 C   0  0  0  0  0  0  0  0  0  0  0  0
  -27.3966  -16.4533   22.1041 C   0  0  0  0  0  0  0  0  0  0  0  0
  -26.0386  -14.9394   20.7121 C   0  0  0  0  0  0  0  0  0  0  0  0
  -28.6248  -21.0009   16.1748 C   0  0  2  0  0  0  0  0  0  0  0  0
  -27.3468  -29.6024   23.8976 C   0  0  1  0  0  0  0  0  0  0  0  0
  -26.1946  -28.5519   20.4332 C   0  0  1  0  0  0  0  0  0  0  0  0
  -29.5215  -21.1831   17.3817 C   0  0  2  0  0  0  0  0  0  0  0  0
  -27.2312  -13.9875   20.5176 C   0  0  2  0  0  0  0  0  0  0  0  0
  -19.7466  -26.5294   16.6470 C   0  0  0  0  0  0  0  0  0  0  0  0
  -22.5095  -26.8686   22.6572 C   0  0  0  0  0  0  0  0  0  0  0  0
  -20.6451  -26.0581   21.1959 C   0  0  0  0  0  0  0  0  0  0  0  0
  -21.0429  -28.5060   21.4645 C   0  0  0  0  0  0  0  0  0  0  0  0
  -23.2056  -27.0217   15.1407 C   0  0  0  0  0  0  0  0  0  0  0  0
  -25.3232  -15.6937   14.8049 C   0  0  0  0  0  0  0  0  0  0  0  0
  -24.9648  -18.2871   18.1941 C   0  0  0  0  0  0  0  0  0  0  0  0
  -29.7649  -22.5452   17.9342 C   0  0  0  0  0  0  0  0  0  1  0  0
  -22.6613  -27.1304   20.0931 C   0  0  1  0  0  0  0  0  0  0  0  0
  -21.1818  -27.0307   16.6045 C   0  0  2  0  0  0  0  0  0  0  0  0
  -21.7417  -27.1339   21.3468 C   0  0  0  0  0  0  0  0  0  0  0  0
  -25.6580  -12.1198   20.8627 N   0  0  0  0  0  0  0  0  0  0  0  0
  -26.7858  -12.5570   20.2769 N   0  0  0  0  0  0  0  0  0  0  0  0
  -25.0809  -27.6469   20.1422 N   0  0  0  0  0  0  0  0  0  0  0  0
  -26.5180  -16.3115   20.9405 N   0  0  0  0  0  0  0  0  0  0  0  0
  -28.5543  -11.8890   18.8497 N   0  0  0  0  0  0  0  0  0  0  0  0
  -26.0018   -8.1757   19.1540 N   0  0  0  0  0  0  0  0  0  0  0  0
  -26.9742  -29.5399   22.5006 N   0  0  0  0  0  0  0  0  0  0  0  0
  -21.9653  -27.4060   18.8408 N   0  0  0  0  0  0  0  0  0  0  0  0
  -25.3712  -17.2215   19.0829 N   0  0  0  0  0  0  0  0  0  0  0  0
  -21.7996  -26.5791   15.3257 N   0  3  0  0  0  0  0  0  0  0  0  0
  -27.9108   -9.0528   18.2346 O   0  0  0  0  0  0  0  0  0  0  0  0
  -26.3850  -27.2885   22.4188 O   0  0  0  0  0  0  0  0  0  0  0  0
  -23.4895  -29.3434   20.3010 O   0  0  0  0  0  0  0  0  0  0  0  0
  -22.5603  -25.4319   17.7796 O   0  0  0  0  0  0  0  0  0  0  0  0
  -26.6409  -18.5711   20.4333 O   0  0  0  0  0  0  0  0  0  0  0  0
  -21.2931   -7.6471   22.0838 O   0  0  0  0  0  0  0  0  0  0  0  0
  -25.1858  -16.5432   15.9422 O   0  0  0  0  0  0  0  0  0  0  0  0
  -28.7613  -22.8546   18.9004 O   0  0  0  0  0  0  0  0  0  1  0  0
  -22.4249   -2.5101   23.7373 F   0  0  0  0  0  0  0  0  0  0  0  0
  -20.6640   -6.8096   24.6422 F   0  0  0  0  0  0  0  0  0  0  0  0
  1  2  1  0  0  0  0
  1  5  2  0  0  0  0
  2  6  2  0  0  0  0
  3  9  2  0  0  0  0
  3 18  1  0  0  0  0
  4 10  1  0  0  0  0
  4 18  2  0  0  0  0
  5 21  1  0  0  0  0
  6 23  1  0  0  0  0
  7 11  2  0  0  0  0
  7 20  1  0  0  0  0
  8 12  2  0  0  0  0
  8 22  1  0  0  0  0
  9 26  1  0  0  0  0
 10 26  2  0  0  0  0
 11 28  1  0  0  0  0
 12 27  1  0  0  0  0
 13 14  2  0  0  0  0
 13 29  1  0  0  0  0
 14 30  1  0  0  0  0
 15 20  2  0  0  0  0
 15 25  1  0  0  0  0
 16 24  1  0  0  0  0
 16 27  2  0  0  0  0
 17 30  2  0  0  0  0
 17 31  1  0  0  0  0
 18 32  1  0  0  0  0
 19 32  1  0  0  0  0
 19 33  2  0  0  0  0
 19 34  1  0  0  0  0
 20 49  1  0  0  0  0
 21 23  2  0  0  0  0
 21 39  1  0  0  0  0
 22 24  2  0  0  0  0
 22 40  1  0  0  0  0
 23 50  1  0  0  0  0
 24 41  1  0  0  0  0
 25 28  2  0  0  0  0
 25 60  1  0  0  0  0
 26 80  1  0  0  0  0
 27 82  1  0  0  0  0
 28 81  1  0  0  0  0
 29 31  2  0  0  0  0
 29 80  1  0  0  0  0
 30 83  1  0  0  0  0
 31 84  1  0  0  0  0
 32 65  2  0  0  0  0
 33 66  1  0  0  0  0
 33 69  1  0  0  0  0
 34 70  1  0  0  0  0
 34 75  2  0  0  0  0
 35 51  1  0  0  0  0
 35 71  1  0  0  0  0
 35 76  2  0  0  0  0
 36 62  1  0  0  0  0
 36 67  1  0  0  0  0
 36 77  2  0  0  0  0
 37 63  1  0  0  0  0
 37 72  1  0  0  0  0
 37 78  2  0  0  0  0
 38 68  1  0  0  0  0
 38 73  1  0  0  0  0
 38 79  2  0  0  0  0
 39 42  1  0  0  0  0
 40 51  1  0  0  0  0
 41 67  1  0  0  0  0
 42 44  1  0  0  0  0
 43 45  1  0  0  0  0
 43 47  1  0  0  0  0
 44 50  1  0  0  0  0
 45 53  1  0  0  0  0
 46 49  1  0  0  0  0
 46 52  1  0  0  0  0
 47 68  1  0  0  0  0
 48 53  1  0  0  0  0
 48 68  1  0  0  0  0
 49 52  1  0  0  0  0
 50 71  1  0  0  0  0
 51 67  1  0  0  0  0
 52 61  1  0  0  0  0
 53 66  1  0  0  0  0
 54 63  1  0  0  0  0
 55 64  1  0  0  0  0
 56 64  1  0  0  0  0
 57 64  1  0  0  0  0
 58 74  1  0  0  0  0
 59 81  1  0  0  0  0
 60 73  1  0  0  0  0
 61 82  1  0  0  0  0
 62 64  1  0  0  0  0
 62 72  1  0  0  0  0
 63 74  1  0  0  0  0
 65 66  1  0  0  0  0
M  CHG  1  74   1
M  ISO  4  38 100  61 101  73 100  82 101
M  END
> <Batch ID>
0152

> <Smiles>
CNC(C)C(=O)NC(C(=O)N1Cc2cc([101O:1][101CH2:1]C3CC3c3ccc(OC)c(C[100NH:0][100C:0](=O)N4CCCC(n5nc(-c6ccc(Oc7ccc(F)cc7F)cc6)c(C(N)=O)c5N)C4)c3)ccc2CC1C(=O)NC1CCCc2ccccc21)C(C)(C)C

> <Shape>
0.261

> <Color>
0.075

> <Negative vol penalty>
0.000

$$$$

  -OEChem-04052321463D

 88 97  0     1  0  0  0  0  0999 V2000
  -16.3526  -29.3580   23.9432 C   0  0  0  0  0  0  0  0  0  0  0  0
  -16.9777  -28.5687   22.9845 C   0  0  0  0  0  0  0  0  0  0  0  0
  -26.1551  -13.4418   19.2842 C   0  0  0  0  0  0  0  0  0  0  0  0
  -25.9780  -13.6049   21.6882 C   0  0  0  0  0  0  0  0  0  0  0  0
  -17.0438  -30.4178   24.5265 C   0  0  0  0  0  0  0  0  0  0  0  0
  -18.2980  -28.8314   22.6175 C   0  0  0  0  0  0  0  0  0  0  0  0
  -25.1622  -27.9366   18.7054 C   0  0  0  0  0  0  0  0  0  0  0  0
  -24.8190  -13.0477   19.2125 C   0  0  0  0  0  0  0  0  0  0  0  0
  -24.6419  -13.2108   21.6165 C   0  0  0  0  0  0  0  0  0  0  0  0
  -26.3391  -28.5982   18.3577 C   0  0  0  0  0  0  0  0  0  0  0  0
  -21.5544  -11.6507   18.4286 C   0  0  0  0  0  0  0  0  0  0  0  0
  -21.2379  -10.5738   17.6005 C   0  0  0  0  0  0  0  0  0  0  0  0
  -26.7681  -29.0474   20.6887 C   0  0  0  0  0  0  0  0  0  0  0  0
  -32.3305  -24.7727   21.0409 C   0  0  0  0  0  0  0  0  0  0  0  0
  -30.7227  -22.8879   19.7583 C   0  0  0  0  0  0  0  0  0  0  0  0
  -22.7043   -9.1512   18.8901 C   0  0  0  0  0  0  0  0  0  0  0  0
  -26.7346  -13.7204   20.5221 C   0  0  0  0  0  0  0  0  0  0  0  0
  -29.2401  -13.3991   20.1658 C   0  0  0  0  0  0  0  0  0  0  0  0
  -18.3691  -30.7007   24.1568 C   0  0  0  0  0  0  0  0  0  0  0  0
  -24.7732  -27.8346   20.0488 C   0  0  0  0  0  0  0  0  0  0  0  0
  -19.0204  -29.8817   23.2122 C   0  0  0  0  0  0  0  0  0  0  0  0
  -25.5871  -28.3817   21.0510 C   0  0  0  0  0  0  0  0  0  0  0  0
  -31.6748  -25.1062   19.8558 C   0  0  0  0  0  0  0  0  0  0  0  0
  -30.8709  -24.1638   19.2145 C   0  0  0  0  0  0  0  0  0  0  0  0
  -31.3784  -22.5543   20.9434 C   0  0  0  0  0  0  0  0  0  0  0  0
  -24.0624  -12.9322   20.3787 C   0  0  0  0  0  0  0  0  0  0  0  0
  -27.1408  -29.1563   19.3492 C   0  0  0  0  0  0  0  0  0  0  0  0
  -22.4459  -11.4779   19.4874 C   0  0  0  0  0  0  0  0  0  0  0  0
  -32.1824  -23.4967   21.5846 C   0  0  0  0  0  0  0  0  0  0  0  0
  -21.8128   -9.3241   17.8313 C   0  0  0  0  0  0  0  0  0  0  0  0
  -23.0208  -10.2282   19.7182 C   0  0  0  0  0  0  0  0  0  0  0  0
  -28.1149  -14.1270   20.5969 C   0  0  0  0  0  0  0  0  0  0  0  0
  -30.3075  -14.2134   20.4556 C   0  0  0  0  0  0  0  0  0  0  0  0
  -29.3139  -12.1027   19.5578 C   0  0  0  0  0  0  0  0  0  0  0  0
  -22.2801  -28.8407   21.7446 C   0  0  0  0  0  0  0  0  0  0  0  0
  -23.6673  -27.0886   24.0958 C   0  0  0  0  0  0  0  0  0  0  0  0
  -27.0096  -26.5089   25.3248 C   0  0  0  0  0  0  0  0  0  0  0  0
  -30.4547  -20.2026   20.9692 C   0  0  0  0  0  0  0  0  0  0  0  0
  -19.0727  -31.8551   24.8258 C   0  0  0  0  0  0  0  0  0  0  0  0
  -23.5144  -27.0944   20.4094 C   0  0  0  0  0  0  0  0  0  0  0  0
  -25.2244  -28.2820   22.5094 C   0  0  0  0  0  0  0  0  0  0  0  0
  -20.3030  -32.3270   24.0577 C   0  0  0  0  0  0  0  0  0  0  0  0
  -30.8901  -17.6557   23.8061 C   0  0  0  0  0  0  0  0  0  0  0  0
  -21.1840  -31.1376   23.7059 C   0  0  0  0  0  0  0  0  0  0  0  0
  -30.9975  -16.3746   22.9823 C   0  0  0  0  0  0  0  0  0  0  0  0
  -32.7111  -27.4764   20.0847 C   0  0  0  0  0  0  0  0  0  0  0  0
  -31.2659  -18.8932   23.0010 C   0  0  0  0  0  0  0  0  0  0  0  0
  -29.7298  -17.8502   21.3252 C   0  0  0  0  0  0  0  0  0  0  0  0
  -32.4074  -28.8056   19.4268 C   0  0  0  0  0  0  0  0  0  0  0  0
  -30.5339  -27.2674   19.1284 C   0  0  0  0  0  0  0  0  0  0  0  0
  -31.8508  -26.4969   19.2850 C   0  0  2  0  0  0  0  0  0  0  0  0
  -20.4457  -30.1675   22.7750 C   0  0  1  0  0  0  0  0  0  0  0  0
  -22.9530  -27.4975   21.7694 C   0  0  1  0  0  0  0  0  0  0  0  0
  -30.5304  -16.5537   21.5242 C   0  0  2  0  0  0  0  0  0  0  0  0
  -30.1597  -24.4983   17.9446 C   0  0  0  0  0  0  0  0  0  0  0  0
  -27.9868  -24.5336   26.5250 C   0  0  0  0  0  0  0  0  0  0  0  0
  -30.8657  -30.9798   18.2150 C   0  0  0  0  0  0  0  0  0  0  0  0
  -22.9803  -28.6519   26.6245 C   0  0  0  0  0  0  0  0  0  0  0  0
  -25.1217  -27.8319   27.6295 C   0  0  0  0  0  0  0  0  0  0  0  0
  -23.3473  -26.2036   26.9790 C   0  0  0  0  0  0  0  0  0  0  0  0
  -29.1621  -26.2065   23.3163 C   0  0  0  0  0  0  0  0  0  0  0  0
  -32.1364  -23.4470   23.9619 C   0  0  0  0  0  0  0  0  0  0  0  0
  -28.9645  -29.3589   17.8363 C   0  0  0  0  0  0  0  0  0  1  0  0
  -24.6858  -27.3645   25.1754 C   0  0  1  0  0  0  0  0  0  0  0  0
  -27.8207  -25.2333   25.1851 C   0  0  2  0  0  0  0  0  0  0  0  0
  -30.4717  -29.5290   17.9901 C   0  0  2  0  0  0  0  0  0  0  0  0
  -24.0339  -27.5273   26.5775 C   0  0  0  0  0  0  0  0  0  0  0  0
  -28.4374  -15.3126   21.1208 N   0  0  0  0  0  0  0  0  0  0  0  0
  -29.7774  -15.3358   21.0209 N   0  0  0  0  0  0  0  0  0  0  0  0
  -23.9808  -27.5540   22.8109 N   0  0  0  0  0  0  0  0  0  0  0  0
  -30.5031  -19.0224   21.7509 N   0  0  0  0  0  0  0  0  0  0  0  0
  -31.6384  -14.0717   20.2795 N   0  0  0  0  0  0  0  0  0  0  0  0
  -29.4403  -10.9812   20.3887 N   0  0  0  0  0  0  0  0  0  0  0  0
  -31.2181  -21.2539   21.4838 N   0  0  0  0  0  0  0  0  0  0  0  0
  -21.2292  -28.9600   22.6340 N   0  0  0  0  0  0  0  0  0  0  0  0
  -25.6681  -26.2888   25.0944 N   0  0  0  0  0  0  0  0  0  0  0  0
  -30.9204  -28.7350   19.1750 N   0  3  2  0  0  0  0  0  0  0  0  0
  -29.1751  -25.5375   24.6427 N   0  3  0  0  0  0  0  0  0  0  0  0
  -29.2854  -11.9449   18.3137 O   0  0  0  0  0  0  0  0  0  0  0  0
  -22.6852  -29.7054   20.9766 O   0  0  0  0  0  0  0  0  0  0  0  0
  -22.6350  -26.4763   24.3805 O   0  0  0  0  0  0  0  0  0  0  0  0
  -27.5150  -27.5914   25.6133 O   0  0  0  0  0  0  0  0  0  0  0  0
  -29.7998  -20.2626   19.9265 O   0  0  0  0  0  0  0  0  0  0  0  0
  -22.7586  -12.5478   20.3091 O   0  0  0  0  0  0  0  0  0  0  0  0
  -32.8315  -23.1908   22.7435 O   0  0  0  0  0  0  0  0  0  0  0  0
  -28.2897  -29.8032   19.0126 O   0  0  0  0  0  0  0  0  0  1  0  0
  -21.5075   -8.2897   17.0369 F   0  0  0  0  0  0  0  0  0  0  0  0
  -23.8770  -10.0557   20.7345 F   0  0  0  0  0  0  0  0  0  0  0  0
  1  2  1  0  0  0  0
  1  5  2  0  0  0  0
  2  6  2  0  0  0  0
  3  8  2  0  0  0  0
  3 17  1  0  0  0  0
  4  9  1  0  0  0  0
  4 17  2  0  0  0  0
  5 19  1  0  0  0  0
  6 21  1  0  0  0  0
  7 10  2  0  0  0  0
  7 20  1  0  0  0  0
  8 26  1  0  0  0  0
  9 26  2  0  0  0  0
 10 27  1  0  0  0  0
 11 12  2  0  0  0  0
 11 28  1  0  0  0  0
 12 30  1  0  0  0  0
 13 22  1  0  0  0  0
 13 27  2  0  0  0  0
 14 23  1  0  0  0  0
 14 29  2  0  0  0  0
 15 24  1  0  0  0  0
 15 25  2  0  0  0  0
 16 30  2  0  0  0  0
 16 31  1  0  0  0  0
 17 32  1  0  0  0  0
 18 32  1  0  0  0  0
 18 33  2  0  0  0  0
 18 34  1  0  0  0  0
 19 21  2  0  0  0  0
 19 39  1  0  0  0  0
 20 22  2  0  0  0  0
 20 40  1  0  0  0  0
 21 52  1  0  0  0  0
 22 41  1  0  0  0  0
 23 24  2  0  0  0  0
 23 51  1  0  0  0  0
 24 55  1  0  0  0  0
 25 29  1  0  0  0  0
 25 74  1  0  0  0  0
 26 84  1  0  0  0  0
 27 86  1  0  0  0  0
 28 31  2  0  0  0  0
 28 84  1  0  0  0  0
 29 85  1  0  0  0  0
 30 87  1  0  0  0  0
 31 88  1  0  0  0  0
 32 68  2  0  0  0  0
 33 69  1  0  0  0  0
 33 72  1  0  0  0  0
 34 73  1  0  0  0  0
 34 79  2  0  0  0  0
 35 53  1  0  0  0  0
 35 75  1  0  0  0  0
 35 80  2  0  0  0  0
 36 64  1  0  0  0  0
 36 70  1  0  0  0  0
 36 81  2  0  0  0  0
 37 65  1  0  0  0  0
 37 76  1  0  0  0  0
 37 82  2  0  0  0  0
 38 71  1  0  0  0  0
 38 74  1  0  0  0  0
 38 83  2  0  0  0  0
 39 42  1  0  0  0  0
 40 53  1  0  0  0  0
 41 70  1  0  0  0  0
 42 44  1  0  0  0  0
 43 45  1  0  0  0  0
 43 47  1  0  0  0  0
 44 52  1  0  0  0  0
 45 54  1  0  0  0  0
 46 49  1  0  0  0  0
 46 51  1  0  0  0  0
 47 71  1  0  0  0  0
 48 54  1  0  0  0  0
 48 71  1  0  0  0  0
 49 77  1  0  0  0  0
 50 51  1  0  0  0  0
 50 77  1  0  0  0  0
 52 75  1  0  0  0  0
 53 70  1  0  0  0  0
 54 69  1  0  0  0  0
 56 65  1  0  0  0  0
 57 66  1  0  0  0  0
 58 67  1  0  0  0  0
 59 67  1  0  0  0  0
 60 67  1  0  0  0  0
 61 78  1  0  0  0  0
 62 85  1  0  0  0  0
 63 66  1  0  0  0  0
 63 86  1  0  0  0  0
 64 67  1  0  0  0  0
 64 76  1  0  0  0  0
 65 78  1  0  0  0  0
 66 77  1  0  0  0  0
 68 69  1  0  0  0  0
M  CHG  2  77   1  78   1
M  ISO  4  38 100  63 101  74 100  86 101
M  END
> <Batch ID>
0152

> <Smiles>
CNC(C)C(=O)NC(C(=O)N1Cc2cc([101O:1][101CH2:1]C(C)N3CCC(c4cc(OC)c([100NH:0][100C:0](=O)N5CCCC(n6nc(-c7ccc(Oc8ccc(F)cc8F)cc7)c(C(N)=O)c6N)C5)cc4C)C3)ccc2CC1C(=O)NC1CCCc2ccccc21)C(C)(C)C

> <Shape>
0.257

> <Color>
0.085

> <Negative vol penalty>
0.000

$$$$

  -OEChem-04052321463D

 90100  0     1  0  0  0  0  0999 V2000
  -28.1781  -34.6308   24.6447 C   0  0  0  0  0  0  0  0  0  0  0  0
  -28.3271  -33.3131   24.2242 C   0  0  0  0  0  0  0  0  0  0  0  0
  -26.3449  -13.7554   21.0232 C   0  0  0  0  0  0  0  0  0  0  0  0
  -24.2583  -13.5741   19.8189 C   0  0  0  0  0  0  0  0  0  0  0  0
  -26.9269  -35.0953   25.0482 C   0  0  0  0  0  0  0  0  0  0  0  0
  -27.2252  -32.4587   24.2080 C   0  0  0  0  0  0  0  0  0  0  0  0
  -26.9526  -29.7202   19.9570 C   0  0  0  0  0  0  0  0  0  0  0  0
  -34.3941  -25.0701   20.6478 C   0  0  0  0  0  0  0  0  0  0  0  0
  -25.9893  -12.6563   21.8048 C   0  0  0  0  0  0  0  0  0  0  0  0
  -23.9027  -12.4749   20.6005 C   0  0  0  0  0  0  0  0  0  0  0  0
  -27.7998  -28.6177   19.8544 C   0  0  0  0  0  0  0  0  0  0  0  0
  -33.7688  -26.0903   21.3645 C   0  0  0  0  0  0  0  0  0  0  0  0
  -24.6279   -9.1770   20.7346 C   0  0  0  0  0  0  0  0  0  0  0  0
  -24.0892   -8.0675   20.0831 C   0  0  0  0  0  0  0  0  0  0  0  0
  -25.9742  -27.1653   20.4682 C   0  0  0  0  0  0  0  0  0  0  0  0
  -22.0647   -8.2871   21.3832 C   0  0  0  0  0  0  0  0  0  0  0  0
  -25.4794  -14.2144   20.0302 C   0  0  0  0  0  0  0  0  0  0  0  0
  -26.5505  -15.3349   18.0041 C   0  0  0  0  0  0  0  0  0  0  0  0
  -25.8072  -34.2489   25.0277 C   0  0  0  0  0  0  0  0  0  0  0  0
  -25.6102  -29.5543   20.3272 C   0  0  0  0  0  0  0  0  0  0  0  0
  -33.6278  -24.0887   20.0188 C   0  0  0  0  0  0  0  0  0  0  0  0
  -25.9581  -32.9119   24.6129 C   0  0  0  0  0  0  0  0  0  0  0  0
  -25.1114  -28.2670   20.5723 C   0  0  0  0  0  0  0  0  0  0  0  0
  -32.2363  -24.1276   20.1067 C   0  0  0  0  0  0  0  0  0  0  0  0
  -31.6109  -25.1478   20.8235 C   0  0  0  0  0  0  0  0  0  0  0  0
  -24.7682  -12.0160   21.5935 C   0  0  0  0  0  0  0  0  0  0  0  0
  -27.3114  -27.3403   20.1128 C   0  0  0  0  0  0  0  0  0  0  0  0
  -32.3772  -26.1292   21.4524 C   0  0  0  0  0  0  0  0  0  0  0  0
  -23.8851   -9.8415   21.7105 C   0  0  0  0  0  0  0  0  0  0  0  0
  -22.8076   -7.6226   20.4074 C   0  0  0  0  0  0  0  0  0  0  0  0
  -22.6034   -9.3966   22.0348 C   0  0  0  0  0  0  0  0  0  0  0  0
  -25.8460  -15.3501   19.2228 C   0  0  0  0  0  0  0  0  0  0  0  0
  -26.6424  -16.6572   17.6441 C   0  0  0  0  0  0  0  0  0  0  0  0
  -27.0748  -14.2247   17.2637 C   0  0  0  0  0  0  0  0  0  0  0  0
  -23.8154  -30.5412   22.7579 C   0  0  0  0  0  0  0  0  0  0  0  0
  -21.4260  -29.1770   21.0396 C   0  0  0  0  0  0  0  0  0  0  0  0
  -20.4923  -26.8941   18.6811 C   0  0  0  0  0  0  0  0  0  0  0  0
  -27.5096  -21.9508   18.7606 C   0  0  0  0  0  0  0  0  0  0  0  0
  -24.4846  -34.7828   25.5180 C   0  0  0  0  0  0  0  0  0  0  0  0
  -24.7026  -30.7510   20.4074 C   0  0  0  0  0  0  0  0  0  0  0  0
  -23.6731  -28.0332   20.9534 C   0  0  0  0  0  0  0  0  0  0  0  0
  -23.2921  -33.9190   25.1155 C   0  0  0  0  0  0  0  0  0  0  0  0
  -24.3547  -20.7547   19.5118 C   0  0  0  0  0  0  0  0  0  0  0  0
  -34.6132  -21.7017   19.9473 C   0  0  0  0  0  0  0  0  0  0  0  0
  -35.7332  -22.6419   19.6285 C   0  0  0  0  0  0  0  0  0  0  0  0
  -23.5847  -32.4463   25.3845 C   0  0  0  0  0  0  0  0  0  0  0  0
  -24.5064  -19.2375   19.4051 C   0  0  0  0  0  0  0  0  0  0  0  0
  -30.5827  -22.2350   20.4317 C   0  0  0  0  0  0  0  0  0  0  0  0
  -30.4885  -23.6503   18.3346 C   0  0  0  0  0  0  0  0  0  0  0  0
  -25.5697  -21.3783   20.1888 C   0  0  0  0  0  0  0  0  0  0  0  0
  -29.7193  -21.1810   19.7327 C   0  0  0  0  0  0  0  0  0  0  0  0
  -29.6526  -22.5552   17.6785 C   0  0  0  0  0  0  0  0  0  0  0  0
  -27.0316  -19.5446   19.4025 C   0  0  0  0  0  0  0  0  0  0  0  0
  -34.3208  -23.0074   19.2575 C   0  0  0  0  0  0  0  0  0  0  0  0
  -31.4027  -23.0599   19.4234 C   0  0  0  0  0  0  0  0  0  0  0  0
  -24.7817  -31.9616   24.5577 C   0  0  1  0  0  0  0  0  0  0  0  0
  -23.4825  -30.5173   21.2929 C   0  0  1  0  0  0  0  0  0  0  0  0
  -25.8307  -18.8611   18.7174 C   0  0  1  0  0  0  0  0  0  0  0  0
  -29.6339  -25.0535   22.3773 C   0  0  0  0  0  0  0  0  0  0  0  0
  -18.4655  -25.9826   17.5154 C   0  0  0  0  0  0  0  0  0  0  0  0
  -20.7099  -27.5798   23.5388 C   0  0  0  0  0  0  0  0  0  0  0  0
  -19.3583  -26.0501   22.0892 C   0  0  0  0  0  0  0  0  0  0  0  0
  -18.7460  -28.4618   22.2662 C   0  0  0  0  0  0  0  0  0  0  0  0
  -21.4839  -27.7603   16.0306 C   0  0  0  0  0  0  0  0  0  0  0  0
  -32.6459  -28.0927   22.7670 C   0  0  0  0  0  0  0  0  0  0  0  0
  -29.5190  -26.4752   20.2971 C   0  0  0  0  0  0  0  0  0  1  0  0
  -30.1194  -25.1971   20.9224 C   0  0  1  0  0  0  0  0  0  0  0  0
  -20.8122  -27.7997   20.9684 C   0  0  1  0  0  0  0  0  0  0  0  0
  -19.5849  -27.0109   17.4696 C   0  0  2  0  0  0  0  0  0  0  0  0
  -19.9342  -27.4771   22.2104 C   0  0  0  0  0  0  0  0  0  0  0  0
  -25.5140  -16.5843   19.6112 N   0  0  0  0  0  0  0  0  0  0  0  0
  -26.0122  -17.3568   18.6308 N   0  0  0  0  0  0  0  0  0  0  0  0
  -22.8268  -29.2357   21.0248 N   0  0  0  0  0  0  0  0  0  0  0  0
  -26.8067  -20.9946   19.5090 N   0  0  0  0  0  0  0  0  0  0  0  0
  -28.9016  -21.7960   18.6780 N   0  0  0  0  0  0  0  0  0  0  0  0
  -27.2001  -17.2780   16.5830 N   0  0  0  0  0  0  0  0  0  0  0  0
  -26.8918  -12.9333   17.7766 N   0  0  0  0  0  0  0  0  0  0  0  0
  -24.3857  -31.7248   23.1860 N   0  0  0  0  0  0  0  0  0  0  0  0
  -20.0970  -27.7367   19.6984 N   0  0  0  0  0  0  0  0  0  0  0  0
  -20.3642  -26.8019   16.2167 N   0  3  0  0  0  0  0  0  0  0  0  0
  -27.7018  -14.3748   16.1876 O   0  0  0  0  0  0  0  0  0  0  0  0
  -23.5714  -29.5591   23.4490 O   0  0  0  0  0  0  0  0  0  0  0  0
  -20.6896  -30.1649   21.0988 O   0  0  0  0  0  0  0  0  0  0  0  0
  -21.4532  -26.1289   18.7222 O   0  0  0  0  0  0  0  0  0  0  0  0
  -26.9284  -22.8874   18.1984 O   0  0  0  0  0  0  0  0  0  0  0  0
  -24.4210  -10.9433   22.3559 O   0  0  0  0  0  0  0  0  0  0  0  0
  -31.7845  -27.1336   22.1573 O   0  0  0  0  0  0  0  0  0  0  0  0
  -28.1418  -26.2554   20.0134 O   0  0  0  0  0  0  0  0  0  1  0  0
  -22.2898   -6.5581   19.7806 F   0  0  0  0  0  0  0  0  0  0  0  0
  -21.8845  -10.0316   22.9706 F   0  0  0  0  0  0  0  0  0  0  0  0
  1  2  1  0  0  0  0
  1  5  2  0  0  0  0
  2  6  2  0  0  0  0
  3  9  2  0  0  0  0
  3 17  1  0  0  0  0
  4 10  1  0  0  0  0
  4 17  2  0  0  0  0
  5 19  1  0  0  0  0
  6 22  1  0  0  0  0
  7 11  2  0  0  0  0
  7 20  1  0  0  0  0
  8 12  1  0  0  0  0
  8 21  2  0  0  0  0
  9 26  1  0  0  0  0
 10 26  2  0  0  0  0
 11 27  1  0  0  0  0
 12 28  2  0  0  0  0
 13 14  2  0  0  0  0
 13 29  1  0  0  0  0
 14 30  1  0  0  0  0
 15 23  1  0  0  0  0
 15 27  2  0  0  0  0
 16 30  2  0  0  0  0
 16 31  1  0  0  0  0
 17 32  1  0  0  0  0
 18 32  1  0  0  0  0
 18 33  2  0  0  0  0
 18 34  1  0  0  0  0
 19 22  2  0  0  0  0
 19 39  1  0  0  0  0
 20 23  2  0  0  0  0
 20 40  1  0  0  0  0
 21 24  1  0  0  0  0
 21 54  1  0  0  0  0
 22 56  1  0  0  0  0
 23 41  1  0  0  0  0
 24 25  2  0  0  0  0
 24 55  1  0  0  0  0
 25 28  1  0  0  0  0
 25 67  1  0  0  0  0
 26 86  1  0  0  0  0
 27 88  1  0  0  0  0
 28 87  1  0  0  0  0
 29 31  2  0  0  0  0
 29 86  1  0  0  0  0
 30 89  1  0  0  0  0
 31 90  1  0  0  0  0
 32 71  2  0  0  0  0
 33 72  1  0  0  0  0
 33 76  1  0  0  0  0
 34 77  1  0  0  0  0
 34 81  2  0  0  0  0
 35 57  1  0  0  0  0
 35 78  1  0  0  0  0
 35 82  2  0  0  0  0
 36 68  1  0  0  0  0
 36 73  1  0  0  0  0
 36 83  2  0  0  0  0
 37 69  1  0  0  0  0
 37 79  1  0  0  0  0
 37 84  2  0  0  0  0
 38 74  1  0  0  0  0
 38 75  1  0  0  0  0
 38 85  2  0  0  0  0
 39 42  1  0  0  0  0
 40 57  1  0  0  0  0
 41 73  1  0  0  0  0
 42 46  1  0  0  0  0
 43 47  1  0  0  0  0
 43 50  1  0  0  0  0
 44 45  1  0  0  0  0
 44 54  1  0  0  0  0
 45 54  1  0  0  0  0
 46 56  1  0  0  0  0
 47 58  1  0  0  0  0
 48 51  1  0  0  0  0
 48 55  1  0  0  0  0
 49 52  1  0  0  0  0
 49 55  1  0  0  0  0
 50 74  1  0  0  0  0
 51 75  1  0  0  0  0
 52 75  1  0  0  0  0
 53 58  1  0  0  0  0
 53 74  1  0  0  0  0
 56 78  1  0  0  0  0
 57 73  1  0  0  0  0
 58 72  1  0  0  0  0
 59 67  1  0  0  0  0
 60 69  1  0  0  0  0
 61 70  1  0  0  0  0
 62 70  1  0  0  0  0
 63 70  1  0  0  0  0
 64 80  1  0  0  0  0
 65 87  1  0  0  0  0
 66 67  1  0  0  0  0
 66 88  1  0  0  0  0
 68 70  1  0  0  0  0
 68 79  1  0  0  0  0
 69 80  1  0  0  0  0
 71 72  1  0  0  0  0
M  CHG  1  80   1
M  ISO  4  38 100  66 101  75 100  88 101
M  END
> <Batch ID>
0152

> <Smiles>
CNC(C)C(=O)NC(C(=O)N1Cc2cc([101O:1][101CH2:1]C(C)c3c(OC)ccc(C4CC4)c3C3CC[100N:0]([100C:0](=O)N4CCCC(n5nc(-c6ccc(Oc7ccc(F)cc7F)cc6)c(C(N)=O)c5N)C4)CC3)ccc2CC1C(=O)NC1CCCc2ccccc21)C(C)(C)C

> <Shape>
0.269

> <Color>
0.080

> <Negative vol penalty>
0.000

$$$$

  -OEChem-04052321463D

 90 99  0     1  0  0  0  0  0999 V2000
  -17.3785  -32.3108   21.5963 C   0  0  0  0  0  0  0  0  0  0  0  0
  -18.6460  -32.3971   21.0294 C   0  0  0  0  0  0  0  0  0  0  0  0
  -29.7015  -23.0985   15.4579 C   0  0  0  0  0  0  0  0  0  0  0  0
  -30.5599  -24.1816   15.2921 C   0  0  0  0  0  0  0  0  0  0  0  0
  -23.5844  -13.5623   19.3995 C   0  0  0  0  0  0  0  0  0  0  0  0
  -22.7079  -14.7109   21.3358 C   0  0  0  0  0  0  0  0  0  0  0  0
  -17.1796  -31.5426   22.7427 C   0  0  0  0  0  0  0  0  0  0  0  0
  -19.7157  -31.7161   21.6093 C   0  0  0  0  0  0  0  0  0  0  0  0
  -25.8054  -28.3689   19.8691 C   0  0  0  0  0  0  0  0  0  0  0  0
  -29.2733  -22.7518   16.7333 C   0  0  0  0  0  0  0  0  0  0  0  0
  -22.9409  -12.3921   19.8023 C   0  0  0  0  0  0  0  0  0  0  0  0
  -22.0643  -13.5407   21.7386 C   0  0  0  0  0  0  0  0  0  0  0  0
  -27.1611  -28.3612   20.1943 C   0  0  0  0  0  0  0  0  0  0  0  0
  -23.4446   -9.9213   22.0531 C   0  0  0  0  0  0  0  0  0  0  0  0
  -24.1705   -8.7316   21.9983 C   0  0  0  0  0  0  0  0  0  0  0  0
  -26.6833  -27.0006   22.1282 C   0  0  0  0  0  0  0  0  0  0  0  0
  -32.2669  -26.7282   17.3853 C   0  0  0  0  0  0  0  0  0  0  0  0
  -22.5512   -7.8144   20.4576 C   0  0  0  0  0  0  0  0  0  0  0  0
  -30.9932  -24.9223   16.4049 C   0  0  0  0  0  0  0  0  0  0  0  0
  -23.4680  -14.7216   20.1663 C   0  0  0  0  0  0  0  0  0  0  0  0
  -23.6170  -16.9414   18.9181 C   0  0  0  0  0  0  0  0  0  0  0  0
  -18.2455  -30.8440   23.3314 C   0  0  0  0  0  0  0  0  0  0  0  0
  -24.8755  -27.7005   20.6784 C   0  0  0  0  0  0  0  0  0  0  0  0
  -19.5312  -30.9389   22.7655 C   0  0  0  0  0  0  0  0  0  0  0  0
  -25.3167  -26.9992   21.8096 C   0  0  0  0  0  0  0  0  0  0  0  0
  -30.5626  -24.5759   17.7028 C   0  0  0  0  0  0  0  0  0  0  0  0
  -22.1809  -12.3813   20.9718 C   0  0  0  0  0  0  0  0  0  0  0  0
  -27.5999  -27.6795   21.3256 C   0  0  0  0  0  0  0  0  0  0  0  0
  -29.7041  -23.4884   17.8394 C   0  0  0  0  0  0  0  0  0  0  0  0
  -22.2718  -10.0577   21.3102 C   0  0  0  0  0  0  0  0  0  0  0  0
  -31.8571  -26.0170   16.2667 C   0  0  0  0  0  0  0  0  0  0  0  0
  -23.7239   -7.6782   21.2005 C   0  0  0  0  0  0  0  0  0  0  0  0
  -21.8252   -9.0042   20.5124 C   0  0  0  0  0  0  0  0  0  0  0  0
  -24.1329  -15.9306   19.7510 C   0  0  0  0  0  0  0  0  0  0  0  0
  -31.7928  -26.3143   18.6136 C   0  0  0  0  0  0  0  0  0  0  0  0
  -24.6303  -17.8644   18.8303 C   0  0  0  0  0  0  0  0  0  0  0  0
  -22.3363  -17.0376   18.2808 C   0  0  0  0  0  0  0  0  0  0  0  0
  -22.3582  -28.5870   22.4049 C   0  0  0  0  0  0  0  0  0  0  0  0
  -21.9918  -25.3881   22.7985 C   0  0  0  0  0  0  0  0  0  0  0  0
  -23.4210  -22.2890   22.8187 C   0  0  0  0  0  0  0  0  0  0  0  0
  -28.6440  -20.9263   21.2096 C   0  0  0  0  0  0  0  0  0  0  0  0
  -17.9915  -30.0645   24.5973 C   0  0  0  0  0  0  0  0  0  0  0  0
  -23.4200  -27.6960   20.2990 C   0  0  0  0  0  0  0  0  0  0  0  0
  -24.3614  -26.2489   22.7000 C   0  0  0  0  0  0  0  0  0  0  0  0
  -19.1013  -29.0720   24.9345 C   0  0  0  0  0  0  0  0  0  0  0  0
  -29.4686  -17.5897   20.2803 C   0  0  0  0  0  0  0  0  0  0  0  0
  -20.4691  -29.7321   24.7928 C   0  0  0  0  0  0  0  0  0  0  0  0
  -28.1116  -16.9428   19.9973 C   0  0  0  0  0  0  0  0  0  0  0  0
  -29.3919  -18.5763   21.4433 C   0  0  0  0  0  0  0  0  0  0  0  0
  -26.9946  -18.9662   21.0255 C   0  0  0  0  0  0  0  0  0  0  0  0
  -20.7117  -30.1947   23.3510 C   0  0  1  0  0  0  0  0  0  0  0  0
  -22.4959  -27.4116   21.4791 C   0  0  1  0  0  0  0  0  0  0  0  0
  -27.0092  -18.0050   19.8246 C   0  0  2  0  0  0  0  0  0  0  0  0
  -33.5384  -26.5046   20.4044 C   0  0  0  0  0  0  0  0  0  0  0  0
  -23.5515  -19.7858   22.9383 C   0  0  0  0  0  0  0  0  0  0  0  0
  -21.9351  -25.8912   25.8074 C   0  0  0  0  0  0  0  0  0  0  0  0
  -22.3472  -23.4461   26.1537 C   0  0  0  0  0  0  0  0  0  0  0  0
  -20.2711  -24.2081   24.9996 C   0  0  0  0  0  0  0  0  0  0  0  0
  -22.9986  -22.0119   19.9026 C   0  0  0  0  0  0  0  0  0  0  0  0
  -33.5340  -25.8284   14.5909 C   0  0  0  0  0  0  0  0  0  0  0  0
  -31.1398  -27.0473   20.9703 C   0  0  0  0  0  0  0  0  0  0  0  0
  -27.7458  -23.2239   20.9387 C   0  0  0  0  0  0  0  0  0  0  0  0
  -29.8524  -27.7601   20.5670 C   0  0  0  0  0  0  0  0  0  1  0  0
  -28.0521  -23.7149   19.5351 C   0  0  0  0  0  0  0  0  0  0  0  0
  -32.2149  -27.0621   19.8665 C   0  0  2  0  0  0  0  0  0  0  0  0
  -22.4887  -24.3699   23.7962 C   0  0  1  0  0  0  0  0  0  0  0  0
  -22.9970  -20.9801   22.1773 C   0  0  2  0  0  0  0  0  0  0  0  0
  -21.7785  -24.4945   25.1737 C   0  0  0  0  0  0  0  0  0  0  0  0
  -30.9585  -25.2642   18.7902 N   0  0  0  0  0  0  0  0  0  0  0  0
  -25.3774  -16.1870   20.1629 N   0  0  0  0  0  0  0  0  0  0  0  0
  -25.6519  -17.3694   19.5863 N   0  0  0  0  0  0  0  0  0  0  0  0
  -22.9475  -26.2795   22.2906 N   0  0  0  0  0  0  0  0  0  0  0  0
  -28.3282  -19.5576   21.2167 N   0  0  0  0  0  0  0  0  0  0  0  0
  -24.7383  -19.0430   18.1810 N   0  0  0  0  0  0  0  0  0  0  0  0
  -21.4131  -16.0014   18.4766 N   0  0  0  0  0  0  0  0  0  0  0  0
  -21.0681  -29.0702   22.5126 N   0  0  0  0  0  0  0  0  0  0  0  0
  -22.3342  -23.0660   23.1601 N   0  0  0  0  0  0  0  0  0  0  0  0
  -27.5783  -21.7884   20.9814 N   0  0  0  0  0  0  0  0  0  0  0  0
  -23.4863  -20.9099   20.7714 N   0  3  0  0  0  0  0  0  0  0  0  0
  -22.0259  -18.0055   17.5458 O   0  0  0  0  0  0  0  0  0  0  0  0
  -23.3488  -29.0224   22.9801 O   0  0  0  0  0  0  0  0  0  0  0  0
  -20.8012  -25.3878   22.4761 O   0  0  0  0  0  0  0  0  0  0  0  0
  -24.5983  -22.5903   23.0022 O   0  0  0  0  0  0  0  0  0  0  0  0
  -29.7915  -21.3485   21.3878 O   0  0  0  0  0  0  0  0  0  0  0  0
  -21.5526  -11.2398   21.3651 O   0  0  0  0  0  0  0  0  0  0  0  0
  -32.3165  -26.4140   15.0446 O   0  0  0  0  0  0  0  0  0  0  0  0
  -28.9225  -27.6709   21.6457 O   0  0  0  0  0  0  0  0  0  1  0  0
  -29.2607  -23.1164   19.0778 O   0  0  0  0  0  0  0  0  0  0  0  0
  -24.4220   -6.5363   21.1468 F   0  0  0  0  0  0  0  0  0  0  0  0
  -20.6999   -9.1297   19.7956 F   0  0  0  0  0  0  0  0  0  0  0  0
  1  2  1  0  0  0  0
  1  7  2  0  0  0  0
  2  8  2  0  0  0  0
  3  4  2  0  0  0  0
  3 10  1  0  0  0  0
  4 19  1  0  0  0  0
  5 11  2  0  0  0  0
  5 20  1  0  0  0  0
  6 12  1  0  0  0  0
  6 20  2  0  0  0  0
  7 22  1  0  0  0  0
  8 24  1  0  0  0  0
  9 13  2  0  0  0  0
  9 23  1  0  0  0  0
 10 29  2  0  0  0  0
 11 27  1  0  0  0  0
 12 27  2  0  0  0  0
 13 28  1  0  0  0  0
 14 15  2  0  0  0  0
 14 30  1  0  0  0  0
 15 32  1  0  0  0  0
 16 25  1  0  0  0  0
 16 28  2  0  0  0  0
 17 31  2  0  0  0  0
 17 35  1  0  0  0  0
 18 32  2  0  0  0  0
 18 33  1  0  0  0  0
 19 26  2  0  0  0  0
 19 31  1  0  0  0  0
 20 34  1  0  0  0  0
 21 34  1  0  0  0  0
 21 36  2  0  0  0  0
 21 37  1  0  0  0  0
 22 24  2  0  0  0  0
 22 42  1  0  0  0  0
 23 25  2  0  0  0  0
 23 43  1  0  0  0  0
 24 51  1  0  0  0  0
 25 44  1  0  0  0  0
 26 29  1  0  0  0  0
 26 69  1  0  0  0  0
 27 85  1  0  0  0  0
 28 87  1  0  0  0  0
 29 88  1  0  0  0  0
 30 33  2  0  0  0  0
 30 85  1  0  0  0  0
 31 86  1  0  0  0  0
 32 89  1  0  0  0  0
 33 90  1  0  0  0  0
 34 70  2  0  0  0  0
 35 65  1  0  0  0  0
 35 69  2  0  0  0  0
 36 71  1  0  0  0  0
 36 74  1  0  0  0  0
 37 75  1  0  0  0  0
 37 80  2  0  0  0  0
 38 52  1  0  0  0  0
 38 76  1  0  0  0  0
 38 81  2  0  0  0  0
 39 66  1  0  0  0  0
 39 72  1  0  0  0  0
 39 82  2  0  0  0  0
 40 67  1  0  0  0  0
 40 77  1  0  0  0  0
 40 83  2  0  0  0  0
 41 73  1  0  0  0  0
 41 78  1  0  0  0  0
 41 84  2  0  0  0  0
 42 45  1  0  0  0  0
 43 52  1  0  0  0  0
 44 72  1  0  0  0  0
 45 47  1  0  0  0  0
 46 48  1  0  0  0  0
 46 49  1  0  0  0  0
 47 51  1  0  0  0  0
 48 53  1  0  0  0  0
 49 73  1  0  0  0  0
 50 53  1  0  0  0  0
 50 73  1  0  0  0  0
 51 76  1  0  0  0  0
 52 72  1  0  0  0  0
 53 71  1  0  0  0  0
 54 65  1  0  0  0  0
 55 67  1  0  0  0  0
 56 68  1  0  0  0  0
 57 68  1  0  0  0  0
 58 68  1  0  0  0  0
 59 79  1  0  0  0  0
 60 86  1  0  0  0  0
 61 63  1  0  0  0  0
 61 65  1  0  0  0  0
 62 64  1  0  0  0  0
 62 78  1  0  0  0  0
 63 87  1  0  0  0  0
 64 88  1  0  0  0  0
 66 68  1  0  0  0  0
 66 77  1  0  0  0  0
 67 79  1  0  0  0  0
 70 71  1  0  0  0  0
M  CHG  1  79   1
M  ISO  4  41 100  63 101  78 100  87 101
M  END
> <Batch ID>
0152

> <Smiles>
CNC(C)C(=O)NC(C(=O)N1Cc2cc([101O:1][101CH2:1]CC(C)c3cc(OC)c4cccc(OCC[100NH:0][100C:0](=O)N5CCCC(n6nc(-c7ccc(Oc8ccc(F)cc8F)cc7)c(C(N)=O)c6N)C5)c4n3)ccc2CC1C(=O)NC1CCCc2ccccc21)C(C)(C)C

> <Shape>
0.235

> <Color>
0.089

> <Negative vol penalty>
0.000

$$$$

  -OEChem-04052321463D

 88 97  0     1  0  0  0  0  0999 V2000
  -19.2809  -35.0114   22.4657 C   0  0  0  0  0  0  0  0  0  0  0  0
  -19.3822  -33.7059   21.9958 C   0  0  0  0  0  0  0  0  0  0  0  0
  -24.8052  -11.8875   20.5244 C   0  0  0  0  0  0  0  0  0  0  0  0
  -25.1492  -12.7242   22.7646 C   0  0  0  0  0  0  0  0  0  0  0  0
  -20.2662  -35.9446   22.1459 C   0  0  0  0  0  0  0  0  0  0  0  0
  -20.4684  -33.3331   21.2049 C   0  0  0  0  0  0  0  0  0  0  0  0
  -22.4475  -28.8839   22.5953 C   0  0  0  0  0  0  0  0  0  0  0  0
  -23.5343  -21.8114   22.6762 C   0  0  0  0  0  0  0  0  0  0  0  0
  -25.0127  -10.5853   20.9788 C   0  0  0  0  0  0  0  0  0  0  0  0
  -25.3568  -11.4219   23.2191 C   0  0  0  0  0  0  0  0  0  0  0  0
  -21.7703  -27.7329   22.1951 C   0  0  0  0  0  0  0  0  0  0  0  0
  -24.6946  -21.1218   23.0282 C   0  0  0  0  0  0  0  0  0  0  0  0
  -23.2531   -8.2094   22.6195 C   0  0  0  0  0  0  0  0  0  0  0  0
  -22.3693   -7.2222   22.1837 C   0  0  0  0  0  0  0  0  0  0  0  0
  -23.3395  -27.4460   20.3855 C   0  0  0  0  0  0  0  0  0  0  0  0
  -25.9814  -23.1486   22.7575 C   0  0  0  0  0  0  0  0  0  0  0  0
  -24.2085   -6.0184   21.1810 C   0  0  0  0  0  0  0  0  0  0  0  0
  -24.8735  -12.9570   21.4173 C   0  0  0  0  0  0  0  0  0  0  0  0
  -23.4355  -14.9941   20.8783 C   0  0  0  0  0  0  0  0  0  0  0  0
  -21.3700  -35.5805   21.3588 C   0  0  0  0  0  0  0  0  0  0  0  0
  -23.5713  -29.3315   21.8859 C   0  0  0  0  0  0  0  0  0  0  0  0
  -21.4687  -34.2626   20.8732 C   0  0  0  0  0  0  0  0  0  0  0  0
  -23.5976  -23.1696   22.3648 C   0  0  0  0  0  0  0  0  0  0  0  0
  -24.0307  -28.6016   20.7803 C   0  0  0  0  0  0  0  0  0  0  0  0
  -25.2885  -10.3524   22.3262 C   0  0  0  0  0  0  0  0  0  0  0  0
  -22.2145  -27.0153   21.0883 C   0  0  0  0  0  0  0  0  0  0  0  0
  -25.9181  -21.7904   23.0688 C   0  0  0  0  0  0  0  0  0  0  0  0
  -24.6146   -8.1012   22.3360 C   0  0  0  0  0  0  0  0  0  0  0  0
  -24.8211  -23.8382   22.4055 C   0  0  0  0  0  0  0  0  0  0  0  0
  -22.8470   -6.1267   21.4645 C   0  0  0  0  0  0  0  0  0  0  0  0
  -25.0923   -7.0056   21.6168 C   0  0  0  0  0  0  0  0  0  0  0  0
  -24.6598  -14.3026   20.9483 C   0  0  0  0  0  0  0  0  0  0  0  0
  -23.7656  -16.2259   20.3685 C   0  0  0  0  0  0  0  0  0  0  0  0
  -22.1178  -14.5615   21.2418 C   0  0  0  0  0  0  0  0  0  0  0  0
  -24.2906  -31.9601   20.2498 C   0  0  0  0  0  0  0  0  0  0  0  0
  -27.2255  -30.5879   20.0898 C   0  0  0  0  0  0  0  0  0  0  0  0
  -29.1011  -27.7386   20.1935 C   0  0  0  0  0  0  0  0  0  0  0  0
  -28.8266  -19.4254   20.3917 C   0  0  0  0  0  0  0  0  0  0  0  0
  -22.3856  -36.6362   21.0000 C   0  0  0  0  0  0  0  0  0  0  0  0
  -24.3066  -30.5602   22.3464 C   0  0  0  0  0  0  0  0  0  0  0  0
  -25.2441  -29.0287   19.9969 C   0  0  0  0  0  0  0  0  0  0  0  0
  -23.6971  -36.0640   20.4681 C   0  0  0  0  0  0  0  0  0  0  0  0
  -26.9738  -18.3705   17.5402 C   0  0  0  0  0  0  0  0  0  0  0  0
  -23.4246  -34.9852   19.4247 C   0  0  0  0  0  0  0  0  0  0  0  0
  -26.0602  -17.2708   18.0840 C   0  0  0  0  0  0  0  0  0  0  0  0
  -28.3445  -18.3495   18.2131 C   0  0  0  0  0  0  0  0  0  0  0  0
  -27.3982  -17.2971   20.2306 C   0  0  0  0  0  0  0  0  0  0  0  0
  -22.3546  -23.8878   21.9924 C   0  0  2  0  0  0  0  0  0  0  0  0
  -22.6447  -33.8135   20.0333 C   0  0  1  0  0  0  0  0  0  0  0  0
  -25.1340  -31.2105   21.2420 C   0  0  1  0  0  0  0  0  0  0  0  0
  -21.5185  -23.3673   20.8417 C   0  0  2  0  0  0  0  0  0  0  0  0
  -25.9854  -17.3135   19.6221 C   0  0  2  0  0  0  0  0  0  0  0  0
  -22.3009  -24.6400   20.6775 C   0  0  1  0  0  0  0  0  0  1  0  0
  -31.1625  -26.3081   20.2324 C   0  0  0  0  0  0  0  0  0  0  0  0
  -19.3680  -23.3217   19.5467 C   0  0  0  0  0  0  0  0  0  0  0  0
  -19.5067  -22.2024   21.7899 C   0  0  0  0  0  0  0  0  0  0  0  0
  -27.0879  -30.9414   17.0622 C   0  0  0  0  0  0  0  0  0  0  0  0
  -28.9718  -29.3054   16.8555 C   0  0  0  0  0  0  0  0  0  0  0  0
  -29.3173  -31.4554   18.0723 C   0  0  0  0  0  0  0  0  0  0  0  0
  -29.3068  -27.9124   23.1408 C   0  0  0  0  0  0  0  0  0  0  0  0
  -26.1931  -25.7666   22.1715 C   0  0  0  0  0  0  0  0  0  0  0  0
  -29.2100  -20.3943   22.6442 C   0  0  0  0  0  0  0  0  0  0  0  0
  -28.2757  -21.5743   22.8431 C   0  0  0  0  0  0  0  0  0  0  0  0
  -27.9126  -29.6417   19.1350 C   0  0  1  0  0  0  0  0  0  0  0  0
  -30.3769  -27.3992   20.9430 C   0  0  2  0  0  0  0  0  0  0  0  0
  -20.0306  -23.3723   20.9361 C   0  0  0  0  0  0  0  0  0  0  0  0
  -28.2984  -30.3287   17.7947 C   0  0  0  0  0  0  0  0  0  0  0  0
  -25.6906  -15.0344   20.5173 N   0  0  0  0  0  0  0  0  0  0  0  0
  -25.1149  -16.1984   20.1714 N   0  0  0  0  0  0  0  0  0  0  0  0
  -25.9253  -30.2401   20.4827 N   0  0  0  0  0  0  0  0  0  0  0  0
  -28.2033  -18.3938   19.6705 N   0  0  0  0  0  0  0  0  0  0  0  0
  -23.0304  -17.3192   20.0739 N   0  0  0  0  0  0  0  0  0  0  0  0
  -21.9564  -13.2653   21.7498 N   0  0  0  0  0  0  0  0  0  0  0  0
  -23.5269  -32.9673   20.8081 N   0  0  0  0  0  0  0  0  0  0  0  0
  -29.0430  -29.0762   19.8636 N   0  0  0  0  0  0  0  0  0  0  0  0
  -28.6371  -19.3969   21.7679 N   0  0  0  0  0  0  0  0  0  0  0  0
  -30.0586  -26.9280   22.3205 N   0  3  0  0  0  0  0  0  0  0  0  0
  -21.1108  -15.2967   21.1042 O   0  0  0  0  0  0  0  0  0  0  0  0
  -24.3309  -31.6488   19.0653 O   0  0  0  0  0  0  0  0  0  0  0  0
  -27.8231  -31.5946   20.4783 O   0  0  0  0  0  0  0  0  0  0  0  0
  -28.2437  -26.9003   19.9242 O   0  0  0  0  0  0  0  0  0  0  0  0
  -29.4976  -20.3098   19.8488 O   0  0  0  0  0  0  0  0  0  0  0  0
  -25.4908   -9.0817   22.7700 O   0  0  0  0  0  0  0  0  0  0  0  0
  -21.5549  -25.8919   20.6952 O   0  0  0  0  0  0  0  0  0  1  0  0
  -24.9021  -25.1646   22.1040 O   0  0  0  0  0  0  0  0  0  0  0  0
  -27.0499  -21.1174   23.4129 O   0  0  0  0  0  0  0  0  0  0  0  0
  -21.9984   -5.1779   21.0474 F   0  0  0  0  0  0  0  0  0  0  0  0
  -26.3993   -6.8956   21.3424 F   0  0  0  0  0  0  0  0  0  0  0  0
  1  2  1  0  0  0  0
  1  5  2  0  0  0  0
  2  6  2  0  0  0  0
  3  9  2  0  0  0  0
  3 18  1  0  0  0  0
  4 10  1  0  0  0  0
  4 18  2  0  0  0  0
  5 20  1  0  0  0  0
  6 22  1  0  0  0  0
  7 11  2  0  0  0  0
  7 21  1  0  0  0  0
  8 12  2  0  0  0  0
  8 23  1  0  0  0  0
  9 25  1  0  0  0  0
 10 25  2  0  0  0  0
 11 26  1  0  0  0  0
 12 27  1  0  0  0  0
 13 14  2  0  0  0  0
 13 28  1  0  0  0  0
 14 30  1  0  0  0  0
 15 24  1  0  0  0  0
 15 26  2  0  0  0  0
 16 27  2  0  0  0  0
 16 29  1  0  0  0  0
 17 30  2  0  0  0  0
 17 31  1  0  0  0  0
 18 32  1  0  0  0  0
 19 32  1  0  0  0  0
 19 33  2  0  0  0  0
 19 34  1  0  0  0  0
 20 22  2  0  0  0  0
 20 39  1  0  0  0  0
 21 24  2  0  0  0  0
 21 40  1  0  0  0  0
 22 49  1  0  0  0  0
 23 29  2  0  0  0  0
 23 48  1  0  0  0  0
 24 41  1  0  0  0  0
 25 83  1  0  0  0  0
 26 84  1  0  0  0  0
 27 86  1  0  0  0  0
 28 31  2  0  0  0  0
 28 83  1  0  0  0  0
 29 85  1  0  0  0  0
 30 87  1  0  0  0  0
 31 88  1  0  0  0  0
 32 68  2  0  0  0  0
 33 69  1  0  0  0  0
 33 72  1  0  0  0  0
 34 73  1  0  0  0  0
 34 78  2  0  0  0  0
 35 50  1  0  0  0  0
 35 74  1  0  0  0  0
 35 79  2  0  0  0  0
 36 64  1  0  0  0  0
 36 70  1  0  0  0  0
 36 80  2  0  0  0  0
 37 65  1  0  0  0  0
 37 75  1  0  0  0  0
 37 81  2  0  0  0  0
 38 71  1  0  0  0  0
 38 76  1  0  0  0  0
 38 82  2  0  0  0  0
 39 42  1  0  0  0  0
 40 50  1  0  0  0  0
 41 70  1  0  0  0  0
 42 44  1  0  0  0  0
 43 45  1  0  0  0  0
 43 46  1  0  0  0  0
 44 49  1  0  0  0  0
 45 52  1  0  0  0  0
 46 71  1  0  0  0  0
 47 52  1  0  0  0  0
 47 71  1  0  0  0  0
 48 51  1  0  0  0  0
 48 53  1  0  0  0  0
 49 74  1  0  0  0  0
 50 70  1  0  0  0  0
 51 53  1  0  0  0  0
 51 66  1  0  0  0  0
 52 69  1  0  0  0  0
 53 84  1  0  0  0  0
 54 65  1  0  0  0  0
 55 66  1  0  0  0  0
 56 66  1  0  0  0  0
 57 67  1  0  0  0  0
 58 67  1  0  0  0  0
 59 67  1  0  0  0  0
 60 77  1  0  0  0  0
 61 85  1  0  0  0  0
 62 63  1  0  0  0  0
 62 76  1  0  0  0  0
 63 86  1  0  0  0  0
 64 67  1  0  0  0  0
 64 75  1  0  0  0  0
 65 77  1  0  0  0  0
 68 69  1  0  0  0  0
M  CHG  1  77   1
M  ISO  4  38 100  53 101  76 100  84 101
M  END
> <Batch ID>
0152

> <Smiles>
CNC(C)C(=O)NC(C(=O)N1Cc2cc([101O:1][101CH:1]3C(c4ccc(OCC[100NH:0][100C:0](=O)N5CCCC(n6nc(-c7ccc(Oc8ccc(F)cc8F)cc7)c(C(N)=O)c6N)C5)cc4OC)C3C(C)C)ccc2CC1C(=O)NC1CCCc2ccccc21)C(C)(C)C

> <Shape>
0.195

> <Color>
0.089

> <Negative vol penalty>
0.000

$$$$

  -OEChem-04052321463D

 90100  0     1  0  0  0  0  0999 V2000
  -23.0665  -32.6290   28.8705 C   0  0  0  0  0  0  0  0  0  0  0  0
  -23.5881  -32.9015   27.6099 C   0  0  0  0  0  0  0  0  0  0  0  0
  -26.4782  -13.5107   22.2726 C   0  0  0  0  0  0  0  0  0  0  0  0
  -26.1659  -12.8495   19.9699 C   0  0  0  0  0  0  0  0  0  0  0  0
  -22.6800  -31.3300   29.1978 C   0  0  0  0  0  0  0  0  0  0  0  0
  -23.7246  -31.8749   26.6762 C   0  0  0  0  0  0  0  0  0  0  0  0
  -23.0485  -32.3067   20.6048 C   0  0  0  0  0  0  0  0  0  0  0  0
  -25.3102  -12.8345   22.6252 C   0  0  0  0  0  0  0  0  0  0  0  0
  -24.9980  -12.1733   20.3225 C   0  0  0  0  0  0  0  0  0  0  0  0
  -23.9684  -32.4409   19.5657 C   0  0  0  0  0  0  0  0  0  0  0  0
  -22.1276   -9.9702   20.6764 C   0  0  0  0  0  0  0  0  0  0  0  0
  -21.9343   -8.6919   20.1529 C   0  0  0  0  0  0  0  0  0  0  0  0
  -27.2925  -28.2035   19.6225 C   0  0  0  0  0  0  0  0  0  0  0  0
  -23.9159  -30.0542   19.2191 C   0  0  0  0  0  0  0  0  0  0  0  0
  -29.9105  -27.4996   18.9641 C   0  0  0  0  0  0  0  0  0  0  0  0
  -23.9667   -7.9455   21.2250 C   0  0  0  0  0  0  0  0  0  0  0  0
  -26.9060  -13.5183   20.9450 C   0  0  0  0  0  0  0  0  0  0  0  0
  -29.4201  -13.6975   20.5517 C   0  0  0  0  0  0  0  0  0  0  0  0
  -22.8028  -30.2888   28.2643 C   0  0  0  0  0  0  0  0  0  0  0  0
  -22.5629  -31.0419   20.9666 C   0  0  0  0  0  0  0  0  0  0  0  0
  -23.3406  -30.5605   26.9917 C   0  0  0  0  0  0  0  0  0  0  0  0
  -28.0757  -29.0678   18.8575 C   0  0  0  0  0  0  0  0  0  0  0  0
  -22.9879  -29.9070   20.2614 C   0  0  0  0  0  0  0  0  0  0  0  0
  -27.8184  -26.9873   20.0584 C   0  0  0  0  0  0  0  0  0  0  0  0
  -29.3847  -28.7158   18.5283 C   0  0  0  0  0  0  0  0  0  0  0  0
  -24.5701  -12.1658   21.6501 C   0  0  0  0  0  0  0  0  0  0  0  0
  -24.4044  -31.3142   18.8746 C   0  0  0  0  0  0  0  0  0  0  0  0
  -23.2405  -10.2362   21.4742 C   0  0  0  0  0  0  0  0  0  0  0  0
  -29.1273  -26.6353   19.7292 C   0  0  0  0  0  0  0  0  0  0  0  0
  -22.8538   -7.6795   20.4272 C   0  0  0  0  0  0  0  0  0  0  0  0
  -24.1600   -9.2239   21.7485 C   0  0  0  0  0  0  0  0  0  0  0  0
  -28.1121  -14.2171   20.5801 C   0  0  0  0  0  0  0  0  0  0  0  0
  -30.1996  -14.7517   20.1424 C   0  0  0  0  0  0  0  0  0  0  0  0
  -29.8887  -12.3796   20.8670 C   0  0  0  0  0  0  0  0  0  0  0  0
  -22.6856  -29.2599   23.5958 C   0  0  0  0  0  0  0  0  0  0  0  0
  -20.6919  -27.3323   21.9130 C   0  0  0  0  0  0  0  0  0  0  0  0
  -19.5429  -26.3028   18.8689 C   0  0  0  0  0  0  0  0  0  0  0  0
  -29.7290  -20.4948   20.5715 C   0  0  0  0  0  0  0  0  0  0  0  0
  -22.4156  -28.8916   28.6800 C   0  0  0  0  0  0  0  0  0  0  0  0
  -21.5506  -30.9171   22.0721 C   0  0  0  0  0  0  0  0  0  0  0  0
  -22.4815  -28.5289   20.5974 C   0  0  0  0  0  0  0  0  0  0  0  0
  -22.2440  -27.9321   27.5053 C   0  0  0  0  0  0  0  0  0  0  0  0
  -30.0302  -18.7548   17.5377 C   0  0  0  0  0  0  0  0  0  0  0  0
  -23.4117  -28.0645   26.5328 C   0  0  0  0  0  0  0  0  0  0  0  0
  -29.6973  -17.3276   17.9721 C   0  0  0  0  0  0  0  0  0  0  0  0
  -31.2871  -23.7262   19.6346 C   0  0  0  0  0  0  0  0  0  0  0  0
  -28.9358  -23.6430   18.6998 C   0  0  0  0  0  0  0  0  0  0  0  0
  -27.5065  -30.6938   16.9320 C   0  0  0  0  0  0  0  0  0  0  0  0
  -29.1257  -19.7856   18.2150 C   0  0  0  0  0  0  0  0  0  0  0  0
  -30.8887  -22.6698   20.6641 C   0  0  0  0  0  0  0  0  0  0  0  0
  -28.5905  -22.5920   19.7523 C   0  0  0  0  0  0  0  0  0  0  0  0
  -28.7656  -18.2567   20.1254 C   0  0  0  0  0  0  0  0  0  0  0  0
  -27.4931  -30.3641   18.4012 C   0  0  1  0  0  0  0  0  0  0  0  0
  -23.4811  -29.4784   25.9432 C   0  0  1  0  0  0  0  0  0  0  0  0
  -21.5134  -29.5244   22.6937 C   0  0  1  0  0  0  0  0  0  0  0  0
  -29.6967  -17.2028   19.5061 C   0  0  1  0  0  0  0  0  0  0  0  0
  -30.0943  -24.5420   19.1348 C   0  0  0  0  0  0  0  0  0  0  0  0
  -26.2130  -30.3481   17.6042 C   0  0  1  0  0  0  0  0  0  1  0  0
  -30.2437  -29.6237   17.7104 C   0  0  0  0  0  0  0  0  0  0  0  0
  -25.7187  -25.5937   20.1122 C   0  0  0  0  0  0  0  0  0  0  0  0
  -26.5476  -26.7060   22.2172 C   0  0  0  0  0  0  0  0  0  0  0  0
  -17.9405  -24.6864   17.8120 C   0  0  0  0  0  0  0  0  0  0  0  0
  -22.6332  -25.0458   22.4724 C   0  0  0  0  0  0  0  0  0  0  0  0
  -21.5150  -23.7431   20.6501 C   0  0  0  0  0  0  0  0  0  0  0  0
  -20.2163  -24.4329   22.6651 C   0  0  0  0  0  0  0  0  0  0  0  0
  -17.9837  -28.4860   17.6193 C   0  0  0  0  0  0  0  0  0  0  0  0
  -26.9658  -26.0743   20.8767 C   0  0  0  0  0  0  0  0  0  0  0  0
  -20.8750  -26.1776   20.9580 C   0  0  1  0  0  0  0  0  0  0  0  0
  -18.1346  -26.0992   18.3400 C   0  0  2  0  0  0  0  0  0  0  0  0
  -21.3211  -24.8755   21.6811 C   0  0  0  0  0  0  0  0  0  0  0  0
  -28.0595  -15.5016   20.2178 N   0  0  0  0  0  0  0  0  0  0  0  0
  -29.3444  -15.7980   19.9581 N   0  0  0  0  0  0  0  0  0  0  0  0
  -21.4977  -28.4579   21.6904 N   0  0  0  0  0  0  0  0  0  0  0  0
  -29.1271  -19.6016   19.6725 N   0  0  0  0  0  0  0  0  0  0  0  0
  -29.7787  -21.8455   20.1873 N   0  0  0  0  0  0  0  0  0  0  0  0
  -31.5262  -14.8765   19.9259 N   0  0  0  0  0  0  0  0  0  0  0  0
  -28.9537  -11.4169   21.2710 N   0  0  0  0  0  0  0  0  0  0  0  0
  -22.4836  -29.6437   24.9078 N   0  0  0  0  0  0  0  0  0  0  0  0
  -19.6210  -26.0532   20.2227 N   0  0  0  0  0  0  0  0  0  0  0  0
  -17.8532  -27.0572   17.2337 N   0  3  0  0  0  0  0  0  0  0  0  0
  -31.1028  -12.0697   20.8085 O   0  0  0  0  0  0  0  0  0  0  0  0
  -23.6977  -28.7444   23.1360 O   0  0  0  0  0  0  0  0  0  0  0  0
  -19.8593  -27.2418   22.8187 O   0  0  0  0  0  0  0  0  0  0  0  0
  -20.4806  -26.6450   18.1520 O   0  0  0  0  0  0  0  0  0  0  0  0
  -30.1975  -20.1111   21.6505 O   0  0  0  0  0  0  0  0  0  0  0  0
  -23.4306  -11.5057   21.9938 O   0  0  0  0  0  0  0  0  0  0  0  0
  -25.3157  -31.4441   17.8458 O   0  0  0  0  0  0  0  0  0  1  0  0
  -29.6591  -25.4446   20.1494 O   0  0  0  0  0  0  0  0  0  0  0  0
  -22.6672   -6.4515   19.9257 F   0  0  0  0  0  0  0  0  0  0  0  0
  -25.2304   -9.4731   22.5153 F   0  0  0  0  0  0  0  0  0  0  0  0
  1  2  1  0  0  0  0
  1  5  2  0  0  0  0
  2  6  2  0  0  0  0
  3  8  2  0  0  0  0
  3 17  1  0  0  0  0
  4  9  1  0  0  0  0
  4 17  2  0  0  0  0
  5 19  1  0  0  0  0
  6 21  1  0  0  0  0
  7 10  2  0  0  0  0
  7 20  1  0  0  0  0
  8 26  1  0  0  0  0
  9 26  2  0  0  0  0
 10 27  1  0  0  0  0
 11 12  2  0  0  0  0
 11 28  1  0  0  0  0
 12 30  1  0  0  0  0
 13 22  1  0  0  0  0
 13 24  2  0  0  0  0
 14 23  1  0  0  0  0
 14 27  2  0  0  0  0
 15 25  1  0  0  0  0
 15 29  2  0  0  0  0
 16 30  2  0  0  0  0
 16 31  1  0  0  0  0
 17 32  1  0  0  0  0
 18 32  1  0  0  0  0
 18 33  2  0  0  0  0
 18 34  1  0  0  0  0
 19 21  2  0  0  0  0
 19 39  1  0  0  0  0
 20 23  2  0  0  0  0
 20 40  1  0  0  0  0
 21 54  1  0  0  0  0
 22 25  2  0  0  0  0
 22 53  1  0  0  0  0
 23 41  1  0  0  0  0
 24 29  1  0  0  0  0
 24 67  1  0  0  0  0
 25 59  1  0  0  0  0
 26 86  1  0  0  0  0
 27 87  1  0  0  0  0
 28 31  2  0  0  0  0
 28 86  1  0  0  0  0
 29 88  1  0  0  0  0
 30 89  1  0  0  0  0
 31 90  1  0  0  0  0
 32 71  2  0  0  0  0
 33 72  1  0  0  0  0
 33 76  1  0  0  0  0
 34 77  1  0  0  0  0
 34 81  2  0  0  0  0
 35 55  1  0  0  0  0
 35 78  1  0  0  0  0
 35 82  2  0  0  0  0
 36 68  1  0  0  0  0
 36 73  1  0  0  0  0
 36 83  2  0  0  0  0
 37 69  1  0  0  0  0
 37 79  1  0  0  0  0
 37 84  2  0  0  0  0
 38 74  1  0  0  0  0
 38 75  1  0  0  0  0
 38 85  2  0  0  0  0
 39 42  1  0  0  0  0
 40 55  1  0  0  0  0
 41 73  1  0  0  0  0
 42 44  1  0  0  0  0
 43 45  1  0  0  0  0
 43 49  1  0  0  0  0
 44 54  1  0  0  0  0
 45 56  1  0  0  0  0
 46 50  1  0  0  0  0
 46 57  1  0  0  0  0
 47 51  1  0  0  0  0
 47 57  1  0  0  0  0
 48 53  1  0  0  0  0
 48 58  1  0  0  0  0
 49 74  1  0  0  0  0
 50 75  1  0  0  0  0
 51 75  1  0  0  0  0
 52 56  1  0  0  0  0
 52 74  1  0  0  0  0
 53 58  1  0  0  0  0
 54 78  1  0  0  0  0
 55 73  1  0  0  0  0
 56 72  1  0  0  0  0
 57 88  1  0  0  0  0
 58 87  1  0  0  0  0
 60 67  1  0  0  0  0
 61 67  1  0  0  0  0
 62 69  1  0  0  0  0
 63 70  1  0  0  0  0
 64 70  1  0  0  0  0
 65 70  1  0  0  0  0
 66 80  1  0  0  0  0
 68 70  1  0  0  0  0
 68 79  1  0  0  0  0
 69 80  1  0  0  0  0
 71 72  1  0  0  0  0
M  CHG  1  80   1
M  ISO  4  38 100  58 101  75 100  87 101
M  END
> <Batch ID>
0152

> <Smiles>
CNC(C)C(=O)NC(C(=O)N1Cc2cc([101O:1][101CH:1]3CC3c3cc(C(C)C)c(OC4CC[100N:0]([100C:0](=O)N5CCCC(n6nc(-c7ccc(Oc8ccc(F)cc8F)cc7)c(C(N)=O)c6N)C5)CC4)cc3C)ccc2CC1C(=O)NC1CCCc2ccccc21)C(C)(C)C

> <Shape>
0.280

> <Color>
0.065

> <Negative vol penalty>
0.000

$$$$

  -OEChem-04052321463D

 86 96  0     1  0  0  0  0  0999 V2000
  -26.5666  -32.1095   28.5374 C   0  0  0  0  0  0  0  0  0  0  0  0
  -27.1455  -31.5240   27.4161 C   0  0  0  0  0  0  0  0  0  0  0  0
  -26.3753  -12.7983   21.4934 C   0  0  0  0  0  0  0  0  0  0  0  0
  -26.1548  -13.4261   19.1709 C   0  0  0  0  0  0  0  0  0  0  0  0
  -25.2195  -31.8886   28.8207 C   0  0  0  0  0  0  0  0  0  0  0  0
  -26.3778  -30.7163   26.5779 C   0  0  0  0  0  0  0  0  0  0  0  0
  -26.8826  -30.1910   20.4972 C   0  0  0  0  0  0  0  0  0  0  0  0
  -25.1192  -12.1935   21.4492 C   0  0  0  0  0  0  0  0  0  0  0  0
  -24.8987  -12.8213   19.1266 C   0  0  0  0  0  0  0  0  0  0  0  0
  -27.5124  -29.2478   19.6862 C   0  0  0  0  0  0  0  0  0  0  0  0
  -22.1257  -10.1698   21.8481 C   0  0  0  0  0  0  0  0  0  0  0  0
  -21.9922   -8.9090   22.4294 C   0  0  0  0  0  0  0  0  0  0  0  0
  -28.5485  -21.4500   15.4047 C   0  0  0  0  0  0  0  0  0  0  0  0
  -29.0962  -22.3508   17.9876 C   0  0  0  0  0  0  0  0  0  0  0  0
  -25.4183  -28.0778   19.4310 C   0  0  0  0  0  0  0  0  0  0  0  0
  -23.6538   -8.0326   20.9102 C   0  0  0  0  0  0  0  0  0  0  0  0
  -26.8931  -13.4147   20.3543 C   0  0  0  0  0  0  0  0  0  0  0  0
  -29.4331  -13.4410   20.1193 C   0  0  0  0  0  0  0  0  0  0  0  0
  -24.4324  -31.0857   27.9803 C   0  0  0  0  0  0  0  0  0  0  0  0
  -25.5160  -30.0784   20.7905 C   0  0  0  0  0  0  0  0  0  0  0  0
  -25.0191  -30.4834   26.8509 C   0  0  0  0  0  0  0  0  0  0  0  0
  -28.9712  -20.5495   16.3824 C   0  0  0  0  0  0  0  0  0  0  0  0
  -28.6736  -23.2514   17.0099 C   0  0  0  0  0  0  0  0  0  0  0  0
  -24.7730  -29.0223   20.2438 C   0  0  0  0  0  0  0  0  0  0  0  0
  -28.3997  -22.8010   15.7184 C   0  0  0  0  0  0  0  0  0  0  0  0
  -29.2451  -20.9998   17.6739 C   0  0  0  0  0  0  0  0  0  0  0  0
  -24.3808  -12.2050   20.2658 C   0  0  0  0  0  0  0  0  0  0  0  0
  -26.7809  -28.1895   19.1554 C   0  0  0  0  0  0  0  0  0  0  0  0
  -23.0232  -10.3621   20.7978 C   0  0  0  0  0  0  0  0  0  0  0  0
  -22.7563   -7.8403   21.9605 C   0  0  0  0  0  0  0  0  0  0  0  0
  -23.7873   -9.2935   20.3288 C   0  0  0  0  0  0  0  0  0  0  0  0
  -28.1904  -14.0401   20.3995 C   0  0  0  0  0  0  0  0  0  0  0  0
  -30.3489  -14.4479   20.3037 C   0  0  0  0  0  0  0  0  0  0  0  0
  -29.7329  -12.0948   19.7274 C   0  0  0  0  0  0  0  0  0  0  0  0
  -23.8169  -29.6888   23.4485 C   0  0  0  0  0  0  0  0  0  0  0  0
  -21.3045  -30.1036   21.4391 C   0  0  0  0  0  0  0  0  0  0  0  0
  -20.0804  -29.9349   18.2579 C   0  0  0  0  0  0  0  0  0  0  0  0
  -29.9818  -20.4046   20.0082 C   0  0  0  0  0  0  0  0  0  0  0  0
  -22.9923  -30.8375   28.3534 C   0  0  0  0  0  0  0  0  0  0  0  0
  -24.8457  -31.1189   21.6451 C   0  0  0  0  0  0  0  0  0  0  0  0
  -23.2990  -28.8676   20.5119 C   0  0  0  0  0  0  0  0  0  0  0  0
  -22.1552  -30.2724   27.2088 C   0  0  0  0  0  0  0  0  0  0  0  0
  -31.0366  -18.4724   22.8066 C   0  0  0  0  0  0  0  0  0  0  0  0
  -30.4451  -18.4311   16.2625 C   0  0  0  0  0  0  0  0  0  0  0  0
  -30.0106  -18.7358   14.8629 C   0  0  0  0  0  0  0  0  0  0  0  0
  -29.7768  -25.5610   17.1189 C   0  0  0  0  0  0  0  0  0  0  0  0
  -22.8959  -29.1317   26.5183 C   0  0  0  0  0  0  0  0  0  0  0  0
  -30.5449  -17.0608   22.4786 C   0  0  0  0  0  0  0  0  0  0  0  0
  -29.7205  -26.7402   18.0974 C   0  0  0  0  0  0  0  0  0  0  0  0
  -28.1919  -25.0369   18.8407 C   0  0  0  0  0  0  0  0  0  0  0  0
  -30.0501  -19.5401   22.3369 C   0  0  0  0  0  0  0  0  0  0  0  0
  -29.1696  -18.0360   20.5958 C   0  0  0  0  0  0  0  0  0  0  0  0
  -29.1231  -19.1082   16.0200 C   0  0  0  0  0  0  0  0  0  0  0  0
  -28.5176  -24.7127   17.3747 C   0  0  2  0  0  0  0  0  0  0  0  0
  -24.2130  -29.6210   25.9040 C   0  0  1  0  0  0  0  0  0  0  0  0
  -23.5601  -30.6191   22.2970 C   0  0  1  0  0  0  0  0  0  0  0  0
  -30.1606  -16.9292   20.9918 C   0  0  2  0  0  0  0  0  0  0  0  0
  -28.4676  -26.5310   18.9392 C   0  0  2  0  0  0  0  0  0  1  0  0
  -27.9465  -23.7473   14.6553 C   0  0  0  0  0  0  0  0  0  0  0  0
  -17.9805  -30.3000   16.9333 C   0  0  0  0  0  0  0  0  0  0  0  0
  -20.1762  -27.4783   22.5090 C   0  0  0  0  0  0  0  0  0  0  0  0
  -18.6372  -27.4161   20.5352 C   0  0  0  0  0  0  0  0  0  0  0  0
  -18.4794  -29.2856   22.1791 C   0  0  0  0  0  0  0  0  0  0  0  0
  -21.3498  -32.0368   16.6056 C   0  0  0  0  0  0  0  0  0  0  0  0
  -20.4480  -29.1904   20.5956 C   0  0  1  0  0  0  0  0  0  0  0  0
  -19.2736  -30.9233   17.4353 C   0  0  2  0  0  0  0  0  0  0  0  0
  -19.4634  -28.3442   21.4511 C   0  0  0  0  0  0  0  0  0  0  0  0
  -28.3029  -15.3277   20.7364 N   0  0  0  0  0  0  0  0  0  0  0  0
  -29.6272  -15.5459   20.6692 N   0  0  0  0  0  0  0  0  0  0  0  0
  -22.6904  -29.9070   21.3585 N   0  0  0  0  0  0  0  0  0  0  0  0
  -29.7359  -19.3551   20.9185 N   0  0  0  0  0  0  0  0  0  0  0  0
  -31.6932  -14.4922   20.1874 N   0  0  0  0  0  0  0  0  0  0  0  0
  -28.6730  -11.1890   19.5839 N   0  0  0  0  0  0  0  0  0  0  0  0
  -29.6743  -20.1017   18.6822 N   0  0  0  0  0  0  0  0  0  0  0  0
  -23.9617  -30.3267   24.6657 N   0  0  0  0  0  0  0  0  0  0  0  0
  -19.7989  -30.0407   19.6036 N   0  0  0  0  0  0  0  0  0  0  0  0
  -20.0624  -31.3823   16.2572 N   0  3  0  0  0  0  0  0  0  0  0  0
  -30.9073  -11.7024   19.5268 O   0  0  0  0  0  0  0  0  0  0  0  0
  -23.8777  -28.4814   23.2479 O   0  0  0  0  0  0  0  0  0  0  0  0
  -20.7642  -30.9645   22.1380 O   0  0  0  0  0  0  0  0  0  0  0  0
  -20.8776  -29.1453   17.7564 O   0  0  0  0  0  0  0  0  0  0  0  0
  -30.4575  -21.4826   20.3738 O   0  0  0  0  0  0  0  0  0  0  0  0
  -23.1552  -11.6147   20.2222 O   0  0  0  0  0  0  0  0  0  0  0  0
  -27.3933  -27.2671   18.3641 O   0  0  0  0  0  0  0  0  0  1  0  0
  -22.6291   -6.6299   22.5199 F   0  0  0  0  0  0  0  0  0  0  0  0
  -24.6521   -9.4724   19.3209 F   0  0  0  0  0  0  0  0  0  0  0  0
  1  2  1  0  0  0  0
  1  5  2  0  0  0  0
  2  6  2  0  0  0  0
  3  8  2  0  0  0  0
  3 17  1  0  0  0  0
  4  9  1  0  0  0  0
  4 17  2  0  0  0  0
  5 19  1  0  0  0  0
  6 21  1  0  0  0  0
  7 10  2  0  0  0  0
  7 20  1  0  0  0  0
  8 27  1  0  0  0  0
  9 27  2  0  0  0  0
 10 28  1  0  0  0  0
 11 12  2  0  0  0  0
 11 29  1  0  0  0  0
 12 30  1  0  0  0  0
 13 22  2  0  0  0  0
 13 25  1  0  0  0  0
 14 23  1  0  0  0  0
 14 26  2  0  0  0  0
 15 24  1  0  0  0  0
 15 28  2  0  0  0  0
 16 30  2  0  0  0  0
 16 31  1  0  0  0  0
 17 32  1  0  0  0  0
 18 32  1  0  0  0  0
 18 33  2  0  0  0  0
 18 34  1  0  0  0  0
 19 21  2  0  0  0  0
 19 39  1  0  0  0  0
 20 24  2  0  0  0  0
 20 40  1  0  0  0  0
 21 55  1  0  0  0  0
 22 26  1  0  0  0  0
 22 53  1  0  0  0  0
 23 25  2  0  0  0  0
 23 54  1  0  0  0  0
 24 41  1  0  0  0  0
 25 59  1  0  0  0  0
 26 74  1  0  0  0  0
 27 83  1  0  0  0  0
 28 84  1  0  0  0  0
 29 31  2  0  0  0  0
 29 83  1  0  0  0  0
 30 85  1  0  0  0  0
 31 86  1  0  0  0  0
 32 68  2  0  0  0  0
 33 69  1  0  0  0  0
 33 72  1  0  0  0  0
 34 73  1  0  0  0  0
 34 78  2  0  0  0  0
 35 56  1  0  0  0  0
 35 75  1  0  0  0  0
 35 79  2  0  0  0  0
 36 65  1  0  0  0  0
 36 70  1  0  0  0  0
 36 80  2  0  0  0  0
 37 66  1  0  0  0  0
 37 76  1  0  0  0  0
 37 81  2  0  0  0  0
 38 71  1  0  0  0  0
 38 74  1  0  0  0  0
 38 82  2  0  0  0  0
 39 42  1  0  0  0  0
 40 56  1  0  0  0  0
 41 70  1  0  0  0  0
 42 47  1  0  0  0  0
 43 48  1  0  0  0  0
 43 51  1  0  0  0  0
 44 45  1  0  0  0  0
 44 53  1  0  0  0  0
 45 53  1  0  0  0  0
 46 49  1  0  0  0  0
 46 54  1  0  0  0  0
 47 55  1  0  0  0  0
 48 57  1  0  0  0  0
 49 58  1  0  0  0  0
 50 54  1  0  0  0  0
 50 58  1  0  0  0  0
 51 71  1  0  0  0  0
 52 57  1  0  0  0  0
 52 71  1  0  0  0  0
 55 75  1  0  0  0  0
 56 70  1  0  0  0  0
 57 69  1  0  0  0  0
 58 84  1  0  0  0  0
 60 66  1  0  0  0  0
 61 67  1  0  0  0  0
 62 67  1  0  0  0  0
 63 67  1  0  0  0  0
 64 77  1  0  0  0  0
 65 67  1  0  0  0  0
 65 76  1  0  0  0  0
 66 77  1  0  0  0  0
 68 69  1  0  0  0  0
M  CHG  1  77   1
M  ISO  4  38 100  58 101  74 100  84 101
M  END
> <Batch ID>
0152

> <Smiles>
CNC(C)C(=O)NC(C(=O)N1Cc2cc([101O:1][101CH:1]3CCC(c4cc([100NH:0][100C:0](=O)N5CCCC(n6nc(-c7ccc(Oc8ccc(F)cc8F)cc7)c(C(N)=O)c6N)C5)c(C5CC5)cc4C)C3)ccc2CC1C(=O)NC1CCCc2ccccc21)C(C)(C)C

> <Shape>
0.296

> <Color>
0.089

> <Negative vol penalty>
0.000

$$$$

  -OEChem-04052321463D

 90 99  0     1  0  0  0  0  0999 V2000
  -26.5698  -33.2703   15.4625 C   0  0  0  0  0  0  0  0  0  0  0  0
  -26.7439  -31.9600   15.8965 C   0  0  0  0  0  0  0  0  0  0  0  0
  -24.0224   -9.9443   22.5747 C   0  0  0  0  0  0  0  0  0  0  0  0
  -24.3760  -11.7065   24.1892 C   0  0  0  0  0  0  0  0  0  0  0  0
  -26.6198  -34.3195   16.3793 C   0  0  0  0  0  0  0  0  0  0  0  0
  -26.9693  -31.6983   17.2474 C   0  0  0  0  0  0  0  0  0  0  0  0
  -25.0395  -26.8329   20.4269 C   0  0  0  0  0  0  0  0  0  0  0  0
  -23.5696   -9.1036   23.5915 C   0  0  0  0  0  0  0  0  0  0  0  0
  -23.9231  -10.8659   25.2060 C   0  0  0  0  0  0  0  0  0  0  0  0
  -25.6696  -25.6469   20.8011 C   0  0  0  0  0  0  0  0  0  0  0  0
  -20.7312   -8.6547   25.3735 C   0  0  0  0  0  0  0  0  0  0  0  0
  -19.5757   -7.9113   25.1334 C   0  0  0  0  0  0  0  0  0  0  0  0
  -26.1981  -26.6120   22.9478 C   0  0  0  0  0  0  0  0  0  0  0  0
  -31.7033  -24.1743   23.6229 C   0  0  0  0  0  0  0  0  0  0  0  0
  -31.0519  -21.8900   23.2216 C   0  0  0  0  0  0  0  0  0  0  0  0
  -20.8209   -5.8680   25.4678 C   0  0  0  0  0  0  0  0  0  0  0  0
  -24.4257  -11.2457   22.8736 C   0  0  0  0  0  0  0  0  0  0  0  0
  -24.1220  -12.9902   21.0372 C   0  0  0  0  0  0  0  0  0  0  0  0
  -26.8363  -34.0698   17.7436 C   0  0  0  0  0  0  0  0  0  0  0  0
  -24.9934  -27.9230   21.3077 C   0  0  0  0  0  0  0  0  0  0  0  0
  -27.0237  -32.7453   18.1832 C   0  0  0  0  0  0  0  0  0  0  0  0
  -25.5646  -27.8099   22.5833 C   0  0  0  0  0  0  0  0  0  0  0  0
  -30.7912  -23.2530   23.1172 C   0  0  0  0  0  0  0  0  0  0  0  0
  -23.5199   -9.5644   24.9071 C   0  0  0  0  0  0  0  0  0  0  0  0
  -26.2515  -25.5373   22.0606 C   0  0  0  0  0  0  0  0  0  0  0  0
  -21.9316   -8.0049   25.6606 C   0  0  0  0  0  0  0  0  0  0  0  0
  -19.6205   -6.5180   25.1806 C   0  0  0  0  0  0  0  0  0  0  0  0
  -21.9765   -6.6115   25.7078 C   0  0  0  0  0  0  0  0  0  0  0  0
  -24.8941  -12.1144   21.8238 C   0  0  0  0  0  0  0  0  0  0  0  0
  -32.8624  -23.7057   24.2249 C   0  0  0  0  0  0  0  0  0  0  0  0
  -25.0287  -13.5830   20.1928 C   0  0  0  0  0  0  0  0  0  0  0  0
  -32.2275  -21.4792   23.8337 C   0  0  0  0  0  0  0  0  0  0  0  0
  -22.7114  -13.2451   21.0672 C   0  0  0  0  0  0  0  0  0  0  0  0
  -26.0999  -30.9023   21.2495 C   0  0  0  0  0  0  0  0  0  0  0  0
  -24.4149  -31.1677   24.0086 C   0  0  0  0  0  0  0  0  0  0  0  0
  -23.0202  -29.6205   26.7119 C   0  0  0  0  0  0  0  0  0  0  0  0
  -30.9199  -14.5783   20.5850 C   0  0  0  0  0  0  0  0  0  0  0  0
  -26.9293  -35.2403   18.6901 C   0  0  0  0  0  0  0  0  0  0  0  0
  -24.2866  -29.1862   20.8989 C   0  0  0  0  0  0  0  0  0  0  0  0
  -25.5246  -28.9441   23.5735 C   0  0  0  0  0  0  0  0  0  0  0  0
  -26.7993  -34.8474   20.1594 C   0  0  0  0  0  0  0  0  0  0  0  0
  -29.2193  -12.7711   18.0318 C   0  0  0  0  0  0  0  0  0  0  0  0
  -27.6766  -33.6383   20.4683 C   0  0  0  0  0  0  0  0  0  0  0  0
  -27.8483  -12.4769   18.6432 C   0  0  0  0  0  0  0  0  0  0  0  0
  -32.0266  -17.7550   24.2172 C   0  0  0  0  0  0  0  0  0  0  0  0
  -31.8587  -18.9091   21.9747 C   0  0  0  0  0  0  0  0  0  0  0  0
  -31.2001  -16.5861   23.6792 C   0  0  0  0  0  0  0  0  0  0  0  0
  -31.0325  -17.7412   21.4344 C   0  0  0  0  0  0  0  0  0  0  0  0
  -30.3300  -12.7031   19.0777 C   0  0  0  0  0  0  0  0  0  0  0  0
  -28.7408  -13.2513   20.8798 C   0  0  0  0  0  0  0  0  0  0  0  0
  -27.2456  -32.4191   19.6441 C   0  0  1  0  0  0  0  0  0  0  0  0
  -24.7483  -30.4101   21.6839 C   0  0  1  0  0  0  0  0  0  0  0  0
  -27.5816  -13.3632   19.8747 C   0  0  2  0  0  0  0  0  0  0  0  0
  -31.6884  -19.0567   23.4878 C   0  0  0  0  0  0  0  0  0  0  0  0
  -31.3630  -16.4369   22.1647 C   0  0  0  0  0  0  0  0  0  0  0  0
  -35.2504  -24.5005   24.0855 C   0  0  0  0  0  0  0  0  0  0  0  0
  -34.0696  -24.4411   26.3120 C   0  0  0  0  0  0  0  0  0  0  0  0
  -21.7414  -30.1047   28.8161 C   0  0  0  0  0  0  0  0  0  0  0  0
  -26.9722  -32.1850   25.3260 C   0  0  0  0  0  0  0  0  0  0  0  0
  -25.9170  -31.7453   27.5534 C   0  0  0  0  0  0  0  0  0  0  0  0
  -24.8958  -33.4064   25.9975 C   0  0  0  0  0  0  0  0  0  0  0  0
  -20.7177  -27.9855   25.8266 C   0  0  0  0  0  0  0  0  0  0  0  0
  -28.6257  -22.8055   21.9613 C   0  0  0  0  0  0  0  0  0  0  0  0
  -27.4673  -23.6062   21.3905 C   0  0  0  0  0  0  0  0  0  1  0  0
  -33.8839  -24.6230   24.7912 C   0  0  0  0  0  0  0  0  0  0  0  0
  -24.7149  -30.9403   25.4706 C   0  0  1  0  0  0  0  0  0  0  0  0
  -21.6447  -29.7407   27.3427 C   0  0  2  0  0  0  0  0  0  0  0  0
  -25.6276  -32.0483   26.0677 C   0  0  0  0  0  0  0  0  0  0  0  0
  -26.1913  -12.1449   21.5072 N   0  0  0  0  0  0  0  0  0  0  0  0
  -26.2414  -13.0469   20.5123 N   0  0  0  0  0  0  0  0  0  0  0  0
  -33.0885  -22.3878   24.3121 N   0  3  0  0  0  0  0  0  0  0  0  0
  -24.8275  -30.1607   23.1247 N   0  0  0  0  0  0  0  0  0  0  0  0
  -30.0165  -13.5671   20.2184 N   0  0  0  0  0  0  0  0  0  0  0  0
  -24.8989  -14.5053   19.2156 N   0  0  0  0  0  0  0  0  0  0  0  0
  -21.9264  -12.5498   21.9971 N   0  0  0  0  0  0  0  0  0  0  0  0
  -29.6251  -23.6919   22.5123 N   0  0  0  0  0  0  0  0  0  0  0  0
  -32.5446  -20.1205   23.9666 N   0  0  0  0  0  0  0  0  0  0  0  0
  -26.0597  -31.8170   20.2146 N   0  0  0  0  0  0  0  0  0  0  0  0
  -23.4236  -30.8068   26.1363 N   0  0  0  0  0  0  0  0  0  0  0  0
  -30.5432  -15.3559   21.6731 N   0  0  0  0  0  0  0  0  0  0  0  0
  -20.9062  -28.4517   27.2245 N   0  3  0  0  0  0  0  0  0  0  0  0
  -22.1609  -14.0531   20.2814 O   0  0  0  0  0  0  0  0  0  0  0  0
  -27.1048  -30.4842   21.8127 O   0  0  0  0  0  0  0  0  0  0  0  0
  -23.8296  -32.1976   23.6645 O   0  0  0  0  0  0  0  0  0  0  0  0
  -23.6733  -28.5796   26.7315 O   0  0  0  0  0  0  0  0  0  0  0  0
  -31.9809  -14.7771   19.9835 O   0  0  0  0  0  0  0  0  0  0  0  0
  -23.0778   -8.7444   25.8995 O   0  0  0  0  0  0  0  0  0  0  0  0
  -26.8678  -24.3810   22.4281 O   0  0  0  0  0  0  0  0  0  1  0  0
  -18.5105   -5.8042   24.9516 F   0  0  0  0  0  0  0  0  0  0  0  0
  -23.1265   -5.9816   25.9843 F   0  0  0  0  0  0  0  0  0  0  0  0
  1  2  1  0  0  0  0
  1  5  2  0  0  0  0
  2  6  2  0  0  0  0
  3  8  2  0  0  0  0
  3 17  1  0  0  0  0
  4  9  1  0  0  0  0
  4 17  2  0  0  0  0
  5 19  1  0  0  0  0
  6 21  1  0  0  0  0
  7 10  2  0  0  0  0
  7 20  1  0  0  0  0
  8 24  1  0  0  0  0
  9 24  2  0  0  0  0
 10 25  1  0  0  0  0
 11 12  2  0  0  0  0
 11 26  1  0  0  0  0
 12 27  1  0  0  0  0
 13 22  1  0  0  0  0
 13 25  2  0  0  0  0
 14 23  2  0  0  0  0
 14 30  1  0  0  0  0
 15 23  1  0  0  0  0
 15 32  2  0  0  0  0
 16 27  2  0  0  0  0
 16 28  1  0  0  0  0
 17 29  1  0  0  0  0
 18 29  1  0  0  0  0
 18 31  2  0  0  0  0
 18 33  1  0  0  0  0
 19 21  2  0  0  0  0
 19 38  1  0  0  0  0
 20 22  2  0  0  0  0
 20 39  1  0  0  0  0
 21 51  1  0  0  0  0
 22 40  1  0  0  0  0
 23 76  1  0  0  0  0
 24 87  1  0  0  0  0
 25 88  1  0  0  0  0
 26 28  2  0  0  0  0
 26 87  1  0  0  0  0
 27 89  1  0  0  0  0
 28 90  1  0  0  0  0
 29 69  2  0  0  0  0
 30 65  1  0  0  0  0
 30 71  2  0  0  0  0
 31 70  1  0  0  0  0
 31 74  1  0  0  0  0
 32 71  1  0  0  0  0
 32 77  1  0  0  0  0
 33 75  1  0  0  0  0
 33 82  2  0  0  0  0
 34 52  1  0  0  0  0
 34 78  1  0  0  0  0
 34 83  2  0  0  0  0
 35 66  1  0  0  0  0
 35 72  1  0  0  0  0
 35 84  2  0  0  0  0
 36 67  1  0  0  0  0
 36 79  1  0  0  0  0
 36 85  2  0  0  0  0
 37 73  1  0  0  0  0
 37 80  1  0  0  0  0
 37 86  2  0  0  0  0
 38 41  1  0  0  0  0
 39 52  1  0  0  0  0
 40 72  1  0  0  0  0
 41 43  1  0  0  0  0
 42 44  1  0  0  0  0
 42 49  1  0  0  0  0
 43 51  1  0  0  0  0
 44 53  1  0  0  0  0
 45 47  1  0  0  0  0
 45 54  1  0  0  0  0
 46 48  1  0  0  0  0
 46 54  1  0  0  0  0
 47 55  1  0  0  0  0
 48 55  1  0  0  0  0
 49 73  1  0  0  0  0
 50 53  1  0  0  0  0
 50 73  1  0  0  0  0
 51 78  1  0  0  0  0
 52 72  1  0  0  0  0
 53 70  1  0  0  0  0
 54 77  1  0  0  0  0
 55 80  1  0  0  0  0
 56 65  1  0  0  0  0
 57 65  1  0  0  0  0
 58 67  1  0  0  0  0
 59 68  1  0  0  0  0
 60 68  1  0  0  0  0
 61 68  1  0  0  0  0
 62 81  1  0  0  0  0
 63 64  1  0  0  0  0
 63 76  1  0  0  0  0
 64 88  1  0  0  0  0
 66 68  1  0  0  0  0
 66 79  1  0  0  0  0
 67 81  1  0  0  0  0
 69 70  1  0  0  0  0
M  CHG  2  71   1  81   1
M  ISO  4  37 100  64 101  80 100  88 101
M  END
> <Batch ID>
0152

> <Smiles>
CNC(C)C(=O)NC(C(=O)N1Cc2cc([101O:1][101CH2:1]CNc3cc(NC4CCC([100NH:0][100C:0](=O)N5CCCC(n6nc(-c7ccc(Oc8ccc(F)cc8F)cc7)c(C(N)=O)c6N)C5)CC4)nc(C(C)C)c3)ccc2CC1C(=O)NC1CCCc2ccccc21)C(C)(C)C

> <Shape>
0.215

> <Color>
0.112

> <Negative vol penalty>
0.000

$$$$

  -OEChem-04052321463D

 88 98  0     1  0  0  0  0  0999 V2000
  -30.6192  -28.6188   14.0465 C   0  0  0  0  0  0  0  0  0  0  0  0
  -29.3801  -28.7135   14.6719 C   0  0  0  0  0  0  0  0  0  0  0  0
  -30.2563  -18.4702   20.9104 C   0  0  0  0  0  0  0  0  0  0  0  0
  -28.5949  -17.7353   19.3177 C   0  0  0  0  0  0  0  0  0  0  0  0
  -31.6309  -27.8492   14.6193 C   0  0  0  0  0  0  0  0  0  0  0  0
  -29.1517  -28.0377   15.8701 C   0  0  0  0  0  0  0  0  0  0  0  0
  -18.5908  -29.0140   23.6138 C   0  0  0  0  0  0  0  0  0  0  0  0
  -25.6678  -29.9094   20.5461 C   0  0  0  0  0  0  0  0  0  0  0  0
  -19.8167  -29.4155   23.0833 C   0  0  0  0  0  0  0  0  0  0  0  0
  -30.9316  -17.2584   20.7650 C   0  0  0  0  0  0  0  0  0  0  0  0
  -29.2702  -16.5235   19.1723 C   0  0  0  0  0  0  0  0  0  0  0  0
  -24.3611  -29.6030   20.9237 C   0  0  0  0  0  0  0  0  0  0  0  0
  -29.5712  -13.6192   20.8768 C   0  0  0  0  0  0  0  0  0  0  0  0
  -28.8121  -12.4491   20.8856 C   0  0  0  0  0  0  0  0  0  0  0  0
  -18.7039  -26.9709   22.3294 C   0  0  0  0  0  0  0  0  0  0  0  0
  -25.2003  -27.9369   22.4531 C   0  0  0  0  0  0  0  0  0  0  0  0
  -29.5979  -11.9224   18.6625 C   0  0  0  0  0  0  0  0  0  0  0  0
  -29.0879  -18.7086   20.1867 C   0  0  0  0  0  0  0  0  0  0  0  0
  -28.5845  -21.1372   19.5900 C   0  0  0  0  0  0  0  0  0  0  0  0
  -18.0344  -27.7917   23.2370 C   0  0  0  0  0  0  0  0  0  0  0  0
  -31.4179  -27.1715   15.8301 C   0  0  0  0  0  0  0  0  0  0  0  0
  -26.7518  -29.2231   21.1121 C   0  0  0  0  0  0  0  0  0  0  0  0
  -30.1611  -27.2573   16.4590 C   0  0  0  0  0  0  0  0  0  0  0  0
  -19.9298  -27.3724   21.7987 C   0  0  0  0  0  0  0  0  0  0  0  0
  -26.5199  -28.2382   22.0828 C   0  0  0  0  0  0  0  0  0  0  0  0
  -20.4862  -28.5947   22.1757 C   0  0  0  0  0  0  0  0  0  0  0  0
  -30.4386  -16.2851   19.8960 C   0  0  0  0  0  0  0  0  0  0  0  0
  -24.1271  -28.6146   21.8752 C   0  0  0  0  0  0  0  0  0  0  0  0
  -30.3437  -13.9410   19.7607 C   0  0  0  0  0  0  0  0  0  0  0  0
  -28.8254  -11.6007   19.7785 C   0  0  0  0  0  0  0  0  0  0  0  0
  -30.3571  -13.0926   18.6537 C   0  0  0  0  0  0  0  0  0  0  0  0
  -28.3895  -19.9600   20.3369 C   0  0  0  0  0  0  0  0  0  0  0  0
  -27.6837  -22.0308   20.1161 C   0  0  0  0  0  0  0  0  0  0  0  0
  -29.4980  -21.3996   18.5165 C   0  0  0  0  0  0  0  0  0  0  0  0
  -29.0535  -27.3441   19.9830 C   0  0  0  0  0  0  0  0  0  0  0  0
  -30.1556  -27.5207   23.0287 C   0  0  0  0  0  0  0  0  0  0  0  0
  -29.4761  -28.0634   26.3288 C   0  0  0  0  0  0  0  0  0  0  0  0
  -22.3351  -22.2091   22.3239 C   0  0  0  0  0  0  0  0  0  0  0  0
  -32.5265  -26.3137   16.3866 C   0  0  0  0  0  0  0  0  0  0  0  0
  -28.1565  -29.5841   20.7136 C   0  0  0  0  0  0  0  0  0  0  0  0
  -27.6500  -27.4864   22.7355 C   0  0  0  0  0  0  0  0  0  0  0  0
  -32.3245  -25.9315   17.8506 C   0  0  0  0  0  0  0  0  0  0  0  0
  -25.2278  -22.3934   24.3915 C   0  0  0  0  0  0  0  0  0  0  0  0
  -16.5602  -27.2970   25.2999 C   0  0  0  0  0  0  0  0  0  0  0  0
  -16.6294  -26.0313   24.5040 C   0  0  0  0  0  0  0  0  0  0  0  0
  -30.8958  -25.4509   18.0846 C   0  0  0  0  0  0  0  0  0  0  0  0
  -26.3561  -21.8941   23.4873 C   0  0  0  0  0  0  0  0  0  0  0  0
  -20.8707  -25.0760   21.3872 C   0  0  0  0  0  0  0  0  0  0  0  0
  -23.9246  -21.6394   24.1364 C   0  0  0  0  0  0  0  0  0  0  0  0
  -24.6102  -21.1267   21.8254 C   0  0  0  0  0  0  0  0  0  0  0  0
  -19.8462  -24.7618   19.2661 C   0  0  0  0  0  0  0  0  0  0  0  0
  -16.7249  -27.3620   23.8036 C   0  0  0  0  0  0  0  0  0  0  0  0
  -29.8829  -26.5590   17.7724 C   0  0  1  0  0  0  0  0  0  0  0  0
  -20.6285  -26.4773   20.8285 C   0  0  1  0  0  0  0  0  0  0  0  0
  -29.1589  -28.4649   20.9782 C   0  0  1  0  0  0  0  0  0  0  0  0
  -20.9759  -24.2233   20.1279 C   0  0  2  0  0  0  0  0  0  0  0  0
  -25.9303  -21.8954   22.0067 C   0  0  2  0  0  0  0  0  0  0  0  0
  -30.5729  -28.1015   28.5855 C   0  0  0  0  0  0  0  0  0  0  0  0
  -20.4866  -21.9644   19.1373 C   0  0  0  0  0  0  0  0  0  0  0  0
  -30.1929  -24.4699   23.0594 C   0  0  0  0  0  0  0  0  0  0  0  0
  -30.3634  -24.5665   25.5554 C   0  0  0  0  0  0  0  0  0  0  0  0
  -32.1713  -25.5483   24.1445 C   0  0  0  0  0  0  0  0  0  0  0  0
  -28.8043  -30.9168   26.7356 C   0  0  0  0  0  0  0  0  0  0  0  0
  -21.8030  -29.0487   21.6180 C   0  0  0  0  0  0  0  0  0  1  0  0
  -29.9379  -26.7240   24.2923 C   0  0  1  0  0  0  0  0  0  0  0  0
  -30.1677  -28.9230   27.3715 C   0  0  2  0  0  0  0  0  0  0  0  0
  -20.8571  -22.7343   20.4006 C   0  0  1  0  0  0  0  0  0  0  0  0
  -30.6448  -25.3398   24.2494 C   0  0  0  0  0  0  0  0  0  0  0  0
  -27.4396  -20.0906   21.2667 N   0  0  0  0  0  0  0  0  0  0  0  0
  -27.0297  -21.3606   21.1077 N   0  0  0  0  0  0  0  0  0  0  0  0
  -29.0052  -27.8711   22.3078 N   0  0  0  0  0  0  0  0  0  0  0  0
  -23.5763  -21.6798   22.7141 N   0  0  0  0  0  0  0  0  0  0  0  0
  -27.3953  -23.3165   19.8226 N   0  0  0  0  0  0  0  0  0  0  0  0
  -30.3533  -20.3703   18.1004 N   0  0  0  0  0  0  0  0  0  0  0  0
  -29.8329  -27.5179   18.8553 N   0  0  0  0  0  0  0  0  0  0  0  0
  -30.3663  -27.5798   25.3934 N   0  0  0  0  0  0  0  0  0  0  0  0
  -22.0870  -22.2159   20.9567 N   0  0  0  0  0  0  0  0  0  0  0  0
  -19.8366  -26.2349   19.5599 N   0  3  0  0  0  0  0  0  0  0  0  0
  -29.2622  -30.0163   27.8249 N   0  3  0  0  0  0  0  0  0  0  0  0
  -29.5656  -22.5189   17.9543 O   0  0  0  0  0  0  0  0  0  0  0  0
  -28.3205  -26.3914   20.2213 O   0  0  0  0  0  0  0  0  0  0  0  0
  -31.3036  -27.8273   22.6973 O   0  0  0  0  0  0  0  0  0  0  0  0
  -28.2676  -27.8400   26.3447 O   0  0  0  0  0  0  0  0  0  0  0  0
  -21.5113  -22.6483   23.1335 O   0  0  0  0  0  0  0  0  0  0  0  0
  -31.0975  -15.1026   19.7538 O   0  0  0  0  0  0  0  0  0  0  0  0
  -22.8527  -28.3131   22.2451 O   0  0  0  0  0  0  0  0  0  1  0  0
  -28.0976  -10.4763   19.7878 F   0  0  0  0  0  0  0  0  0  0  0  0
  -31.0981  -13.3958   17.5791 F   0  0  0  0  0  0  0  0  0  0  0  0
  1  2  1  0  0  0  0
  1  5  2  0  0  0  0
  2  6  2  0  0  0  0
  3 10  2  0  0  0  0
  3 18  1  0  0  0  0
  4 11  1  0  0  0  0
  4 18  2  0  0  0  0
  5 21  1  0  0  0  0
  6 23  1  0  0  0  0
  7  9  2  0  0  0  0
  7 20  1  0  0  0  0
  8 12  2  0  0  0  0
  8 22  1  0  0  0  0
  9 26  1  0  0  0  0
 10 27  1  0  0  0  0
 11 27  2  0  0  0  0
 12 28  1  0  0  0  0
 13 14  2  0  0  0  0
 13 29  1  0  0  0  0
 14 30  1  0  0  0  0
 15 20  2  0  0  0  0
 15 24  1  0  0  0  0
 16 25  1  0  0  0  0
 16 28  2  0  0  0  0
 17 30  2  0  0  0  0
 17 31  1  0  0  0  0
 18 32  1  0  0  0  0
 19 32  1  0  0  0  0
 19 33  2  0  0  0  0
 19 34  1  0  0  0  0
 20 52  1  0  0  0  0
 21 23  2  0  0  0  0
 21 39  1  0  0  0  0
 22 25  2  0  0  0  0
 22 40  1  0  0  0  0
 23 53  1  0  0  0  0
 24 26  2  0  0  0  0
 24 54  1  0  0  0  0
 25 41  1  0  0  0  0
 26 64  1  0  0  0  0
 27 85  1  0  0  0  0
 28 86  1  0  0  0  0
 29 31  2  0  0  0  0
 29 85  1  0  0  0  0
 30 87  1  0  0  0  0
 31 88  1  0  0  0  0
 32 69  2  0  0  0  0
 33 70  1  0  0  0  0
 33 73  1  0  0  0  0
 34 74  1  0  0  0  0
 34 80  2  0  0  0  0
 35 55  1  0  0  0  0
 35 75  1  0  0  0  0
 35 81  2  0  0  0  0
 36 65  1  0  0  0  0
 36 71  1  0  0  0  0
 36 82  2  0  0  0  0
 37 66  1  0  0  0  0
 37 76  1  0  0  0  0
 37 83  2  0  0  0  0
 38 72  1  0  0  0  0
 38 77  1  0  0  0  0
 38 84  2  0  0  0  0
 39 42  1  0  0  0  0
 40 55  1  0  0  0  0
 41 71  1  0  0  0  0
 42 46  1  0  0  0  0
 43 47  1  0  0  0  0
 43 49  1  0  0  0  0
 44 45  1  0  0  0  0
 44 52  1  0  0  0  0
 45 52  1  0  0  0  0
 46 53  1  0  0  0  0
 47 57  1  0  0  0  0
 48 54  1  0  0  0  0
 48 56  1  0  0  0  0
 49 72  1  0  0  0  0
 50 57  1  0  0  0  0
 50 72  1  0  0  0  0
 51 56  1  0  0  0  0
 51 78  1  0  0  0  0
 53 75  1  0  0  0  0
 54 78  1  0  0  0  0
 55 71  1  0  0  0  0
 56 67  1  0  0  0  0
 57 70  1  0  0  0  0
 58 66  1  0  0  0  0
 59 67  1  0  0  0  0
 60 68  1  0  0  0  0
 61 68  1  0  0  0  0
 62 68  1  0  0  0  0
 63 79  1  0  0  0  0
 64 86  1  0  0  0  0
 65 68  1  0  0  0  0
 65 76  1  0  0  0  0
 66 79  1  0  0  0  0
 67 77  1  0  0  0  0
 69 70  1  0  0  0  0
M  CHG  2  78   1  79   1
M  ISO  4  38 100  64 101  77 100  86 101
M  END
> <Batch ID>
0152

> <Smiles>
CNC(C)C(=O)NC(C(=O)N1Cc2cc([101O:1][101CH2:1]c3ccc(C4CC4)cc3C3CC(C(C)[100NH:0][100C:0](=O)N4CCCC(n5nc(-c6ccc(Oc7ccc(F)cc7F)cc6)c(C(N)=O)c5N)C4)CN3)ccc2CC1C(=O)NC1CCCc2ccccc21)C(C)(C)C

> <Shape>
0.230

> <Color>
0.064

> <Negative vol penalty>
0.000

$$$$

  -OEChem-04052321463D

 89 99  0     1  0  0  0  0  0999 V2000
  -21.7988   -3.7827   24.3868 C   0  0  0  0  0  0  0  0  0  0  0  0
  -22.7160   -4.0053   23.3647 C   0  0  0  0  0  0  0  0  0  0  0  0
  -24.0475  -33.0893   22.2597 C   0  0  0  0  0  0  0  0  0  0  0  0
  -25.2769  -31.7254   23.8299 C   0  0  0  0  0  0  0  0  0  0  0  0
  -20.7606   -4.6886   24.5997 C   0  0  0  0  0  0  0  0  0  0  0  0
  -22.5947   -5.1335   22.5541 C   0  0  0  0  0  0  0  0  0  0  0  0
  -27.9303   -9.9498   22.0794 C   0  0  0  0  0  0  0  0  0  0  0  0
  -24.0707  -34.1511   23.1639 C   0  0  0  0  0  0  0  0  0  0  0  0
  -25.3001  -32.7873   24.7341 C   0  0  0  0  0  0  0  0  0  0  0  0
  -28.9872  -10.8070   21.7722 C   0  0  0  0  0  0  0  0  0  0  0  0
  -22.4103  -35.0797   25.9577 C   0  0  0  0  0  0  0  0  0  0  0  0
  -21.2242  -35.7863   26.1569 C   0  0  0  0  0  0  0  0  0  0  0  0
  -27.5334  -12.1030   20.3387 C   0  0  0  0  0  0  0  0  0  0  0  0
  -30.0590  -18.8768   18.1093 C   0  0  0  0  0  0  0  0  0  0  0  0
  -22.3045  -37.8118   25.4036 C   0  0  0  0  0  0  0  0  0  0  0  0
  -24.6506  -31.8764   22.5927 C   0  0  0  0  0  0  0  0  0  0  0  0
  -23.4905  -30.1381   21.1298 C   0  0  0  0  0  0  0  0  0  0  0  0
  -20.6321   -5.8334   23.7975 C   0  0  0  0  0  0  0  0  0  0  0  0
  -26.6656  -10.1752   21.5289 C   0  0  0  0  0  0  0  0  0  0  0  0
  -21.5529   -6.0548   22.7556 C   0  0  0  0  0  0  0  0  0  0  0  0
  -26.4679  -11.2550   20.6526 C   0  0  0  0  0  0  0  0  0  0  0  0
  -30.2229  -17.4696   18.0990 C   0  0  0  0  0  0  0  0  0  0  0  0
  -24.6970  -34.0001   24.4010 C   0  0  0  0  0  0  0  0  0  0  0  0
  -28.7892  -11.8807   20.9038 C   0  0  0  0  0  0  0  0  0  0  0  0
  -23.5434  -35.7392   25.4815 C   0  0  0  0  0  0  0  0  0  0  0  0
  -21.1713  -37.1523   25.8798 C   0  0  0  0  0  0  0  0  0  0  0  0
  -23.4905  -37.1052   25.2044 C   0  0  0  0  0  0  0  0  0  0  0  0
  -24.6266  -30.7790   21.6593 C   0  0  0  0  0  0  0  0  0  0  0  0
  -30.1313  -17.0352   19.4029 C   0  0  0  0  0  0  0  0  0  0  0  0
  -29.8724  -19.2595   19.4193 C   0  0  0  0  0  0  0  0  0  0  0  0
  -23.9986  -29.1698   20.2987 C   0  0  0  0  0  0  0  0  0  0  0  0
  -22.1002  -30.3952   21.3678 C   0  0  0  0  0  0  0  0  0  0  0  0
  -23.0867   -9.0766   21.2828 C   0  0  0  0  0  0  0  0  0  0  0  0
  -23.0708  -12.1412   21.4183 C   0  0  0  0  0  0  0  0  0  0  0  0
  -23.4624  -15.4772   22.0139 C   0  0  0  0  0  0  0  0  0  0  0  0
  -27.3852  -25.1747   19.1258 C   0  0  0  0  0  0  0  0  0  0  0  0
  -19.4657   -6.7594   24.0354 C   0  0  0  0  0  0  0  0  0  0  0  0
  -25.5134   -9.2417   21.7835 C   0  0  0  0  0  0  0  0  0  0  0  0
  -25.0989  -11.4386   20.0568 C   0  0  0  0  0  0  0  0  0  0  0  0
  -19.6267   -8.1247   23.3718 C   0  0  0  0  0  0  0  0  0  0  0  0
  -28.6985  -28.3914   18.6184 C   0  0  0  0  0  0  0  0  0  0  0  0
  -20.0988   -7.9652   21.9301 C   0  0  0  0  0  0  0  0  0  0  0  0
  -31.5743  -14.9307   19.7006 C   0  0  0  0  0  0  0  0  0  0  0  0
  -27.6586  -29.2589   19.3270 C   0  0  0  0  0  0  0  0  0  0  0  0
  -31.2323  -13.6824   18.8892 C   0  0  0  0  0  0  0  0  0  0  0  0
  -29.9039  -22.9256   20.1184 C   0  0  0  0  0  0  0  0  0  0  0  0
  -28.2374  -21.8665   18.5472 C   0  0  0  0  0  0  0  0  0  0  0  0
  -29.1408  -14.6960   19.4228 C   0  0  0  0  0  0  0  0  0  0  0  0
  -29.0006  -27.1088   19.3956 C   0  0  0  0  0  0  0  0  0  0  0  0
  -29.7339  -24.2541   19.3757 C   0  0  0  0  0  0  0  0  0  0  0  0
  -28.1221  -23.2037   17.8207 C   0  0  0  0  0  0  0  0  0  0  0  0
  -26.7585  -27.1799   20.4380 C   0  0  0  0  0  0  0  0  0  0  0  0
  -21.4692   -7.2798   21.8710 C   0  0  1  0  0  0  0  0  0  0  0  0
  -30.2307  -15.6381   19.9735 C   0  0  2  0  0  0  0  0  0  0  0  0
  -24.1556   -9.9634   21.8508 C   0  0  1  0  0  0  0  0  0  0  0  0
  -26.3915  -28.4479   19.6517 C   0  0  1  0  0  0  0  0  0  0  0  0
  -29.6118  -21.7308   19.2077 C   0  0  0  0  0  0  0  0  0  0  0  0
  -29.8175  -13.3353   19.3265 C   0  0  2  0  0  0  0  0  0  1  0  0
  -30.4498  -16.6307   16.9056 C   0  0  0  0  0  0  0  0  0  0  0  0
  -22.1491  -17.6006   22.2660 C   0  0  0  0  0  0  0  0  0  0  0  0
  -22.6757  -12.2514   18.3958 C   0  0  0  0  0  0  0  0  0  0  0  0
  -22.2593  -14.7107   18.6112 C   0  0  0  0  0  0  0  0  0  0  0  0
  -20.7344  -13.0863   19.7331 C   0  0  0  0  0  0  0  0  0  0  0  0
  -29.7665  -18.0960   21.6372 C   0  0  0  0  0  0  0  0  0  0  0  0
  -24.4158  -15.8742   24.7874 C   0  0  0  0  0  0  0  0  0  0  0  0
  -23.0619  -13.4411   20.6544 C   0  0  1  0  0  0  0  0  0  0  0  0
  -22.7710  -16.4149   22.9871 C   0  0  2  0  0  0  0  0  0  0  0  0
  -22.2070  -13.3609   19.3582 C   0  0  0  0  0  0  0  0  0  0  0  0
  -25.7702  -30.2613   21.2031 N   0  0  0  0  0  0  0  0  0  0  0  0
  -29.9186  -18.1319   20.1968 N   0  0  0  0  0  0  0  0  0  0  0  0
  -25.3553  -29.2848   20.3782 N   0  0  0  0  0  0  0  0  0  0  0  0
  -24.0698  -11.2185   21.0851 N   0  0  0  0  0  0  0  0  0  0  0  0
  -27.7595  -26.3907   19.7170 N   0  0  0  0  0  0  0  0  0  0  0  0
  -28.4202  -24.3193   18.7196 N   0  0  0  0  0  0  0  0  0  0  0  0
  -23.4127  -28.2397   19.5151 N   0  0  0  0  0  0  0  0  0  0  0  0
  -21.4653  -29.7167   22.4170 N   0  0  0  0  0  0  0  0  0  0  0  0
  -29.6674  -20.5083   19.9786 N   0  0  0  0  0  0  0  0  0  0  0  0
  -22.5187   -8.2186   22.2051 N   0  0  0  0  0  0  0  0  0  0  0  0
  -22.6239  -14.4653   21.5966 N   0  0  0  0  0  0  0  0  0  0  0  0
  -23.7456  -16.9325   23.9887 N   0  3  0  0  0  0  0  0  0  0  0  0
  -21.4364  -31.1905   20.6603 O   0  0  0  0  0  0  0  0  0  0  0  0
  -22.7967   -9.1644   20.0955 O   0  0  0  0  0  0  0  0  0  0  0  0
  -22.2129  -11.9442   22.2835 O   0  0  0  0  0  0  0  0  0  0  0  0
  -24.6284  -15.6295   21.6565 O   0  0  0  0  0  0  0  0  0  0  0  0
  -26.1959  -24.8708   18.9700 O   0  0  0  0  0  0  0  0  0  0  0  0
  -24.7200  -35.0361   25.2835 O   0  0  0  0  0  0  0  0  0  0  0  0
  -29.8313  -12.7221   20.6097 O   0  0  0  0  0  0  0  0  0  1  0  0
  -20.0319  -37.8304   26.0697 F   0  0  0  0  0  0  0  0  0  0  0  0
  -24.5756  -37.7440   24.7456 F   0  0  0  0  0  0  0  0  0  0  0  0
  1  2  1  0  0  0  0
  1  5  2  0  0  0  0
  2  6  2  0  0  0  0
  3  8  2  0  0  0  0
  3 16  1  0  0  0  0
  4  9  1  0  0  0  0
  4 16  2  0  0  0  0
  5 18  1  0  0  0  0
  6 20  1  0  0  0  0
  7 10  2  0  0  0  0
  7 19  1  0  0  0  0
  8 23  1  0  0  0  0
  9 23  2  0  0  0  0
 10 24  1  0  0  0  0
 11 12  2  0  0  0  0
 11 25  1  0  0  0  0
 12 26  1  0  0  0  0
 13 21  1  0  0  0  0
 13 24  2  0  0  0  0
 14 22  1  0  0  0  0
 14 30  2  0  0  0  0
 15 26  2  0  0  0  0
 15 27  1  0  0  0  0
 16 28  1  0  0  0  0
 17 28  1  0  0  0  0
 17 31  2  0  0  0  0
 17 32  1  0  0  0  0
 18 20  2  0  0  0  0
 18 37  1  0  0  0  0
 19 21  2  0  0  0  0
 19 38  1  0  0  0  0
 20 53  1  0  0  0  0
 21 39  1  0  0  0  0
 22 29  2  0  0  0  0
 22 59  1  0  0  0  0
 23 86  1  0  0  0  0
 24 87  1  0  0  0  0
 25 27  2  0  0  0  0
 25 86  1  0  0  0  0
 26 88  1  0  0  0  0
 27 89  1  0  0  0  0
 28 69  2  0  0  0  0
 29 54  1  0  0  0  0
 29 70  1  0  0  0  0
 30 70  1  0  0  0  0
 30 77  1  0  0  0  0
 31 71  1  0  0  0  0
 31 75  1  0  0  0  0
 32 76  1  0  0  0  0
 32 81  2  0  0  0  0
 33 55  1  0  0  0  0
 33 78  1  0  0  0  0
 33 82  2  0  0  0  0
 34 66  1  0  0  0  0
 34 72  1  0  0  0  0
 34 83  2  0  0  0  0
 35 67  1  0  0  0  0
 35 79  1  0  0  0  0
 35 84  2  0  0  0  0
 36 73  1  0  0  0  0
 36 74  1  0  0  0  0
 36 85  2  0  0  0  0
 37 40  1  0  0  0  0
 38 55  1  0  0  0  0
 39 72  1  0  0  0  0
 40 42  1  0  0  0  0
 41 44  1  0  0  0  0
 41 49  1  0  0  0  0
 42 53  1  0  0  0  0
 43 45  1  0  0  0  0
 43 54  1  0  0  0  0
 44 56  1  0  0  0  0
 45 58  1  0  0  0  0
 46 50  1  0  0  0  0
 46 57  1  0  0  0  0
 47 51  1  0  0  0  0
 47 57  1  0  0  0  0
 48 54  1  0  0  0  0
 48 58  1  0  0  0  0
 49 73  1  0  0  0  0
 50 74  1  0  0  0  0
 51 74  1  0  0  0  0
 52 56  1  0  0  0  0
 52 73  1  0  0  0  0
 53 78  1  0  0  0  0
 55 72  1  0  0  0  0
 56 71  1  0  0  0  0
 57 77  1  0  0  0  0
 58 87  1  0  0  0  0
 60 67  1  0  0  0  0
 61 68  1  0  0  0  0
 62 68  1  0  0  0  0
 63 68  1  0  0  0  0
 64 70  1  0  0  0  0
 65 80  1  0  0  0  0
 66 68  1  0  0  0  0
 66 79  1  0  0  0  0
 67 80  1  0  0  0  0
 69 71  1  0  0  0  0
M  CHG  1  80   1
M  ISO  4  36 100  58 101  74 100  87 101
M  END
> <Batch ID>
0152

> <Smiles>
CNC(C)C(=O)NC(C(=O)N1Cc2cc([101O:1][101CH:1]3CCC(c4c(C)cc(NC5CC[100N:0]([100C:0](=O)N6CCCC(n7nc(-c8ccc(Oc9ccc(F)cc9F)cc8)c(C(N)=O)c7N)C6)CC5)n4C)C3)ccc2CC1C(=O)NC1CCCc2ccccc21)C(C)(C)C

> <Shape>
0.335

> <Color>
0.055

> <Negative vol penalty>
0.000

$$$$

  -OEChem-04052321463D

 89100  0     1  0  0  0  0  0999 V2000
  -25.1057  -10.5366   18.0143 C   0  0  0  0  0  0  0  0  0  0  0  0
  -24.2885  -11.5927   17.6242 C   0  0  0  0  0  0  0  0  0  0  0  0
  -30.0205  -28.4203   18.4267 C   0  0  0  0  0  0  0  0  0  0  0  0
  -29.7427  -26.8340   20.2277 C   0  0  0  0  0  0  0  0  0  0  0  0
  -25.7395  -10.5689   19.2558 C   0  0  0  0  0  0  0  0  0  0  0  0
  -24.1037  -12.6812   18.4758 C   0  0  0  0  0  0  0  0  0  0  0  0
  -17.1234  -24.7104   21.8046 C   0  0  0  0  0  0  0  0  0  0  0  0
  -16.1453  -25.5122   22.3882 C   0  0  0  0  0  0  0  0  0  0  0  0
  -23.0228  -19.7613   18.3324 C   0  0  0  0  0  0  0  0  0  0  0  0
  -31.3957  -28.1872   18.4335 C   0  0  0  0  0  0  0  0  0  0  0  0
  -31.1180  -26.6008   20.2344 C   0  0  0  0  0  0  0  0  0  0  0  0
  -22.1556  -20.7289   18.8379 C   0  0  0  0  0  0  0  0  0  0  0  0
  -34.9350  -27.7417   17.7334 C   0  0  0  0  0  0  0  0  0  0  0  0
  -35.5689  -27.5659   16.5035 C   0  0  0  0  0  0  0  0  0  0  0  0
  -20.0751  -26.9707   22.0046 C   0  0  0  0  0  0  0  0  0  0  0  0
  -23.3640  -20.7126   20.9256 C   0  0  0  0  0  0  0  0  0  0  0  0
  -34.1634  -25.6533   16.0523 C   0  0  0  0  0  0  0  0  0  0  0  0
  -18.1605  -28.5476   23.1501 C   0  0  0  0  0  0  0  0  0  0  0  0
  -18.7742  -26.4680   22.1232 C   0  0  0  0  0  0  0  0  0  0  0  0
  -17.7811  -27.2767   22.7135 C   0  0  0  0  0  0  0  0  0  0  0  0
  -29.1940  -27.7437   19.3239 C   0  0  0  0  0  0  0  0  0  0  0  0
  -26.7986  -27.3015   18.5662 C   0  0  0  0  0  0  0  0  0  0  0  0
  -18.4301  -25.1832   21.6720 C   0  0  0  0  0  0  0  0  0  0  0  0
  -16.4695  -26.7906   22.8419 C   0  0  0  0  0  0  0  0  0  0  0  0
  -25.5700  -11.6628   20.1190 C   0  0  0  0  0  0  0  0  0  0  0  0
  -24.0622  -19.2533   19.1249 C   0  0  0  0  0  0  0  0  0  0  0  0
  -24.7347  -12.7276   19.7306 C   0  0  0  0  0  0  0  0  0  0  0  0
  -24.2446  -19.7405   20.4270 C   0  0  0  0  0  0  0  0  0  0  0  0
  -31.9444  -27.2774   19.3373 C   0  0  0  0  0  0  0  0  0  0  0  0
  -22.3244  -21.2026   20.1356 C   0  0  0  0  0  0  0  0  0  0  0  0
  -33.9152  -26.8732   18.1229 C   0  0  0  0  0  0  0  0  0  0  0  0
  -35.1832  -26.5218   15.6629 C   0  0  0  0  0  0  0  0  0  0  0  0
  -33.5295  -25.8291   17.2823 C   0  0  0  0  0  0  0  0  0  0  0  0
  -27.7734  -27.9845   19.3179 C   0  0  0  0  0  0  0  0  0  0  0  0
  -20.3352  -28.2490   22.4744 C   0  0  0  0  0  0  0  0  0  0  0  0
  -25.6135  -27.9025   18.9139 C   0  0  0  0  0  0  0  0  0  0  0  0
  -26.9507  -26.2204   17.6368 C   0  0  0  0  0  0  0  0  0  0  0  0
  -24.8184  -16.3831   20.2623 C   0  0  0  0  0  0  0  0  0  0  0  0
  -27.5010  -17.9132   21.2548 C   0  0  0  0  0  0  0  0  0  0  0  0
  -29.0107  -20.8505   22.1152 C   0  0  0  0  0  0  0  0  0  0  0  0
  -22.1453  -29.9805   22.7423 C   0  0  0  0  0  0  0  0  0  0  0  0
  -26.2379  -11.6311   21.4709 C   0  0  0  0  0  0  0  0  0  0  0  0
  -25.0054  -18.2292   18.5556 C   0  0  0  0  0  0  0  0  0  0  0  0
  -25.3573  -19.2424   21.3114 C   0  0  0  0  0  0  0  0  0  0  0  0
  -26.2883  -12.9935   22.1576 C   0  0  0  0  0  0  0  0  0  0  0  0
  -24.7128  -32.1348   21.5404 C   0  0  0  0  0  0  0  0  0  0  0  0
  -14.1218  -27.8559   22.6768 C   0  0  0  0  0  0  0  0  0  0  0  0
  -15.0900  -28.9750   22.9012 C   0  0  0  0  0  0  0  0  0  0  0  0
  -19.5780  -24.4402   19.5055 C   0  0  0  0  0  0  0  0  0  0  0  0
  -24.9306  -13.6838   22.0743 C   0  0  0  0  0  0  0  0  0  0  0  0
  -25.6577  -31.1909   20.7932 C   0  0  0  0  0  0  0  0  0  0  0  0
  -20.0604  -23.0974   18.9440 C   0  0  0  0  0  0  0  0  0  0  0  0
  -19.2007  -22.7500   21.1645 C   0  0  0  0  0  0  0  0  0  0  0  0
  -24.1271  -31.4790   22.7896 C   0  0  0  0  0  0  0  0  0  0  0  0
  -24.4266  -29.2355   21.8169 C   0  0  0  0  0  0  0  0  0  0  0  0
  -19.4442  -24.2609   21.0289 C   0  0  2  0  0  0  0  0  0  0  0  0
  -15.3813  -27.6098   23.4608 C   0  0  0  0  0  0  0  0  0  0  0  0
  -24.5291  -13.9373   20.6162 C   0  0  1  0  0  0  0  0  0  0  0  0
  -25.7150  -17.4088   19.6284 C   0  0  1  0  0  0  0  0  0  0  0  0
  -24.9910  -29.8292   20.5158 C   0  0  2  0  0  0  0  0  0  0  0  0
  -20.1455  -22.1484   20.1333 C   0  0  2  0  0  0  0  0  0  1  0  0
  -31.1989  -21.7789   22.9195 C   0  0  0  0  0  0  0  0  0  0  0  0
  -26.9176  -16.8547   24.0564 C   0  0  0  0  0  0  0  0  0  0  0  0
  -28.5314  -18.5445   24.9554 C   0  0  0  0  0  0  0  0  0  0  0  0
  -29.3268  -16.7720   23.3908 C   0  0  0  0  0  0  0  0  0  0  0  0
  -29.3117  -22.5415   19.7051 C   0  0  0  0  0  0  0  0  0  0  0  0
  -27.9048  -18.6636   22.5010 C   0  0  1  0  0  0  0  0  0  0  0  0
  -30.3408  -21.4570   21.7060 C   0  0  2  0  0  0  0  0  0  0  0  0
  -28.1479  -17.7169   23.7101 C   0  0  0  0  0  0  0  0  0  0  0  0
  -19.4110  -29.0511   23.0446 N   0  0  0  0  0  0  0  0  0  0  0  0
  -27.2528  -28.9460   20.0851 N   0  0  0  0  0  0  0  0  0  0  0  0
  -25.9379  -28.8714   19.8173 N   0  0  0  0  0  0  0  0  0  0  0  0
  -26.2495  -18.2365   20.7116 N   0  0  0  0  0  0  0  0  0  0  0  0
  -23.5087  -30.1958   22.4494 N   0  0  0  0  0  0  0  0  0  0  0  0
  -24.3360  -27.6914   18.5319 N   0  0  0  0  0  0  0  0  0  0  0  0
  -28.2385  -25.7226   17.3959 N   0  0  0  0  0  0  0  0  0  0  0  0
  -21.6595  -28.7357   22.3435 N   0  0  0  0  0  0  0  0  0  0  0  0
  -25.2426  -15.0798   20.0868 N   0  0  0  0  0  0  0  0  0  0  0  0
  -29.0618  -19.4727   22.1334 N   0  0  0  0  0  0  0  0  0  0  0  0
  -30.1218  -22.7154   20.9381 N   0  3  0  0  0  0  0  0  0  0  0  0
  -25.9755  -25.7218   17.0253 O   0  0  0  0  0  0  0  0  0  0  0  0
  -23.8169  -16.7473   20.8672 O   0  0  0  0  0  0  0  0  0  0  0  0
  -28.2709  -17.0763   20.7767 O   0  0  0  0  0  0  0  0  0  0  0  0
  -28.0261  -21.5309   22.3946 O   0  0  0  0  0  0  0  0  0  0  0  0
  -21.4525  -30.8477   23.2808 O   0  0  0  0  0  0  0  0  0  0  0  0
  -33.2863  -27.0495   19.3439 O   0  0  0  0  0  0  0  0  0  0  0  0
  -21.4790  -22.1466   20.6317 O   0  0  0  0  0  0  0  0  0  1  0  0
  -35.7910  -26.3541   14.4811 F   0  0  0  0  0  0  0  0  0  0  0  0
  -32.5497  -24.9922   17.6505 F   0  0  0  0  0  0  0  0  0  0  0  0
  1  2  1  0  0  0  0
  1  5  2  0  0  0  0
  2  6  2  0  0  0  0
  3 10  2  0  0  0  0
  3 21  1  0  0  0  0
  4 11  1  0  0  0  0
  4 21  2  0  0  0  0
  5 25  1  0  0  0  0
  6 27  1  0  0  0  0
  7  8  2  0  0  0  0
  7 23  1  0  0  0  0
  8 24  1  0  0  0  0
  9 12  2  0  0  0  0
  9 26  1  0  0  0  0
 10 29  1  0  0  0  0
 11 29  2  0  0  0  0
 12 30  1  0  0  0  0
 13 14  2  0  0  0  0
 13 31  1  0  0  0  0
 14 32  1  0  0  0  0
 15 19  1  0  0  0  0
 15 35  2  0  0  0  0
 16 28  1  0  0  0  0
 16 30  2  0  0  0  0
 17 32  2  0  0  0  0
 17 33  1  0  0  0  0
 18 20  1  0  0  0  0
 18 70  2  0  0  0  0
 19 20  1  0  0  0  0
 19 23  2  0  0  0  0
 20 24  2  0  0  0  0
 21 34  1  0  0  0  0
 22 34  1  0  0  0  0
 22 36  2  0  0  0  0
 22 37  1  0  0  0  0
 23 56  1  0  0  0  0
 24 57  1  0  0  0  0
 25 27  2  0  0  0  0
 25 42  1  0  0  0  0
 26 28  2  0  0  0  0
 26 43  1  0  0  0  0
 27 58  1  0  0  0  0
 28 44  1  0  0  0  0
 29 86  1  0  0  0  0
 30 87  1  0  0  0  0
 31 33  2  0  0  0  0
 31 86  1  0  0  0  0
 32 88  1  0  0  0  0
 33 89  1  0  0  0  0
 34 71  2  0  0  0  0
 35 70  1  0  0  0  0
 35 77  1  0  0  0  0
 36 72  1  0  0  0  0
 36 75  1  0  0  0  0
 37 76  1  0  0  0  0
 37 81  2  0  0  0  0
 38 59  1  0  0  0  0
 38 78  1  0  0  0  0
 38 82  2  0  0  0  0
 39 67  1  0  0  0  0
 39 73  1  0  0  0  0
 39 83  2  0  0  0  0
 40 68  1  0  0  0  0
 40 79  1  0  0  0  0
 40 84  2  0  0  0  0
 41 74  1  0  0  0  0
 41 77  1  0  0  0  0
 41 85  2  0  0  0  0
 42 45  1  0  0  0  0
 43 59  1  0  0  0  0
 44 73  1  0  0  0  0
 45 50  1  0  0  0  0
 46 51  1  0  0  0  0
 46 54  1  0  0  0  0
 47 48  1  0  0  0  0
 47 57  1  0  0  0  0
 48 57  1  0  0  0  0
 49 52  1  0  0  0  0
 49 56  1  0  0  0  0
 50 58  1  0  0  0  0
 51 60  1  0  0  0  0
 52 61  1  0  0  0  0
 53 56  1  0  0  0  0
 53 61  1  0  0  0  0
 54 74  1  0  0  0  0
 55 60  1  0  0  0  0
 55 74  1  0  0  0  0
 58 78  1  0  0  0  0
 59 73  1  0  0  0  0
 60 72  1  0  0  0  0
 61 87  1  0  0  0  0
 62 68  1  0  0  0  0
 63 69  1  0  0  0  0
 64 69  1  0  0  0  0
 65 69  1  0  0  0  0
 66 80  1  0  0  0  0
 67 69  1  0  0  0  0
 67 79  1  0  0  0  0
 68 80  1  0  0  0  0
 71 72  1  0  0  0  0
M  CHG  1  80   1
M  ISO  4  41 100  61 101  77 100  87 101
M  END
> <Batch ID>
0152

> <Smiles>
CNC(C)C(=O)NC(C(=O)N1Cc2cc([101O:1][101CH:1]3CCC(c4ccc(C5CC5)c5cnc([100NH:0][100C:0](=O)N6CCCC(n7nc(-c8ccc(Oc9ccc(F)cc9F)cc8)c(C(N)=O)c7N)C6)cc45)C3)ccc2CC1C(=O)NC1CCCc2ccccc21)C(C)(C)C

> <Shape>
0.217

> <Color>
0.078

> <Negative vol penalty>
0.000

$$$$

  -OEChem-04052321463D

 91101  0     1  0  0  0  0  0999 V2000
  -23.5092  -32.2158   14.1693 C   0  0  0  0  0  0  0  0  0  0  0  0
  -24.3528  -31.3269   14.8278 C   0  0  0  0  0  0  0  0  0  0  0  0
  -23.7559   -9.9944   22.2104 C   0  0  0  0  0  0  0  0  0  0  0  0
  -22.7002  -10.1006   20.0398 C   0  0  0  0  0  0  0  0  0  0  0  0
  -23.2567  -33.4722   14.7185 C   0  0  0  0  0  0  0  0  0  0  0  0
  -24.9452  -31.6943   16.0355 C   0  0  0  0  0  0  0  0  0  0  0  0
  -24.6787  -27.9732   19.5815 C   0  0  0  0  0  0  0  0  0  0  0  0
  -23.4225   -8.6434   22.3065 C   0  0  0  0  0  0  0  0  0  0  0  0
  -22.3668   -8.7496   20.1359 C   0  0  0  0  0  0  0  0  0  0  0  0
  -25.5728  -26.9072   19.4916 C   0  0  0  0  0  0  0  0  0  0  0  0
  -20.6886   -6.7997   23.0489 C   0  0  0  0  0  0  0  0  0  0  0  0
  -20.1571   -6.3485   24.2569 C   0  0  0  0  0  0  0  0  0  0  0  0
  -28.6443  -21.3503   20.7240 C   0  0  0  0  0  0  0  0  0  0  0  0
  -26.9834  -27.9590   21.1414 C   0  0  0  0  0  0  0  0  0  0  0  0
  -26.3288  -21.6050   20.0938 C   0  0  0  0  0  0  0  0  0  0  0  0
  -22.0000   -4.8039   24.4908 C   0  0  0  0  0  0  0  0  0  0  0  0
  -23.3947  -10.7230   21.0771 C   0  0  0  0  0  0  0  0  0  0  0  0
  -24.9144  -12.6679   20.4322 C   0  0  0  0  0  0  0  0  0  0  0  0
  -23.8386  -33.8516   15.9384 C   0  0  0  0  0  0  0  0  0  0  0  0
  -24.9355  -29.0473   20.4459 C   0  0  0  0  0  0  0  0  0  0  0  0
  -24.7012  -32.9575   16.6009 C   0  0  0  0  0  0  0  0  0  0  0  0
  -28.6857  -20.0970   20.0993 C   0  0  0  0  0  0  0  0  0  0  0  0
  -26.0886  -29.0349   21.2439 C   0  0  0  0  0  0  0  0  0  0  0  0
  -27.5331  -19.5874   19.4761 C   0  0  0  0  0  0  0  0  0  0  0  0
  -26.3577  -20.3527   19.4797 C   0  0  0  0  0  0  0  0  0  0  0  0
  -22.7279   -8.0210   21.2692 C   0  0  0  0  0  0  0  0  0  0  0  0
  -26.7264  -26.9011   20.2699 C   0  0  0  0  0  0  0  0  0  0  0  0
  -21.8758   -6.2530   22.5617 C   0  0  0  0  0  0  0  0  0  0  0  0
  -27.4710  -22.1032   20.7152 C   0  0  0  0  0  0  0  0  0  0  0  0
  -20.8128   -5.3506   24.9779 C   0  0  0  0  0  0  0  0  0  0  0  0
  -22.5315   -5.2551   23.2827 C   0  0  0  0  0  0  0  0  0  0  0  0
  -23.7384  -12.1187   20.9775 C   0  0  0  0  0  0  0  0  0  0  0  0
  -24.7574  -14.0250   20.5740 C   0  0  0  0  0  0  0  0  0  0  0  0
  -26.0473  -12.0100   19.8495 C   0  0  0  0  0  0  0  0  0  0  0  0
  -25.3826  -32.2032   20.1533 C   0  0  0  0  0  0  0  0  0  0  0  0
  -25.3772  -31.9859   23.4708 C   0  0  0  0  0  0  0  0  0  0  0  0
  -25.0905  -35.3812   23.6425 C   0  0  0  0  0  0  0  0  0  0  0  0
  -21.6221  -18.6268   20.2020 C   0  0  0  0  0  0  0  0  0  0  0  0
  -23.5733  -35.2381   16.4691 C   0  0  0  0  0  0  0  0  0  0  0  0
  -23.9427  -30.1733   20.5502 C   0  0  0  0  0  0  0  0  0  0  0  0
  -29.9393  -19.2673   20.1545 C   0  0  0  0  0  0  0  0  0  0  0  0
  -26.4074  -30.1614   22.1895 C   0  0  0  0  0  0  0  0  0  0  0  0
  -23.9436  -35.4084   17.9402 C   0  0  0  0  0  0  0  0  0  0  0  0
  -21.3338  -16.6893   23.1752 C   0  0  0  0  0  0  0  0  0  0  0  0
  -25.3218  -34.8156   18.2158 C   0  0  0  0  0  0  0  0  0  0  0  0
  -27.2979  -17.0730   16.4782 C   0  0  0  0  0  0  0  0  0  0  0  0
  -26.0940  -17.9542   16.6622 C   0  0  0  0  0  0  0  0  0  0  0  0
  -22.0248  -15.3713   22.8213 C   0  0  0  0  0  0  0  0  0  0  0  0
  -20.5708  -17.2641   21.9837 C   0  0  0  0  0  0  0  0  0  0  0  0
  -22.0612  -16.1040   20.4005 C   0  0  0  0  0  0  0  0  0  0  0  0
  -29.9423  -18.2174   19.0539 C   0  0  0  0  0  0  0  0  0  0  0  0
  -25.3429  -33.3101   17.9253 C   0  0  1  0  0  0  0  0  0  0  0  0
  -27.5601  -18.2296   18.8038 C   0  0  1  0  0  0  0  0  0  0  0  0
  -24.5318  -31.4535   21.1390 C   0  0  1  0  0  0  0  0  0  0  0  0
  -27.3984  -18.3239   17.2858 C   0  0  0  0  0  0  0  0  0  0  0  0
  -22.8897  -15.5141   21.5545 C   0  0  2  0  0  0  0  0  0  0  0  0
  -24.6791  -37.2433   25.2737 C   0  0  0  0  0  0  0  0  0  0  0  0
  -22.9782  -19.5507   16.8943 C   0  0  0  0  0  0  0  0  0  0  0  0
  -22.4139  -31.2652   23.5412 C   0  0  0  0  0  0  0  0  0  0  0  0
  -21.9394  -33.5914   24.3361 C   0  0  0  0  0  0  0  0  0  0  0  0
  -23.3454  -32.0648   25.7201 C   0  0  0  0  0  0  0  0  0  0  0  0
  -27.7175  -36.6184   23.0705 C   0  0  0  0  0  0  0  0  0  0  0  0
  -23.9260  -20.6283   18.9981 C   0  0  0  0  0  0  0  0  0  0  0  0
  -28.3488  -25.5441   21.3574 C   0  0  0  0  0  0  0  0  0  1  0  0
  -28.6598  -24.0599   21.3599 C   0  0  0  0  0  0  0  0  0  0  0  0
  -24.2964  -33.0316   23.5864 C   0  0  1  0  0  0  0  0  0  0  0  0
  -25.7300  -36.4008   24.5676 C   0  0  2  0  0  0  0  0  0  0  0  0
  -22.7593  -19.8590   18.3724 C   0  0  2  0  0  0  0  0  0  0  0  0
  -23.0127  -32.4838   24.2715 C   0  0  0  0  0  0  0  0  0  0  0  0
  -22.8966  -13.0509   21.4320 N   0  0  0  0  0  0  0  0  0  0  0  0
  -23.5444  -14.1994   21.1726 N   0  0  0  0  0  0  0  0  0  0  0  0
  -25.3688  -31.1921   22.3168 N   0  0  0  0  0  0  0  0  0  0  0  0
  -21.4481  -17.3754   20.8158 N   0  0  0  0  0  0  0  0  0  0  0  0
  -25.5401  -15.0742   20.2438 N   0  0  0  0  0  0  0  0  0  0  0  0
  -26.0455  -10.6101   19.7826 N   0  0  0  0  0  0  0  0  0  0  0  0
  -25.1418  -19.8812   18.9366 N   0  0  0  0  0  0  0  0  0  0  0  0
  -24.7138  -32.5783   19.0038 N   0  0  0  0  0  0  0  0  0  0  0  0
  -24.9005  -34.1691   24.2717 N   0  0  0  0  0  0  0  0  0  0  0  0
  -22.4750  -18.6454   19.1052 N   0  0  0  0  0  0  0  0  0  0  0  0
  -26.6225  -37.3118   23.7966 N   0  3  0  0  0  0  0  0  0  0  0  0
  -27.0391  -12.6441   19.4163 O   0  0  0  0  0  0  0  0  0  0  0  0
  -26.5584  -32.4263   20.4168 O   0  0  0  0  0  0  0  0  0  0  0  0
  -26.2027  -31.8690   24.3808 O   0  0  0  0  0  0  0  0  0  0  0  0
  -24.7861  -35.6358   22.4793 O   0  0  0  0  0  0  0  0  0  0  0  0
  -21.0632  -19.6525   20.6050 O   0  0  0  0  0  0  0  0  0  0  0  0
  -28.7342  -17.4623   19.1173 O   0  0  0  0  0  0  0  0  0  0  0  0
  -22.4026   -6.7026   21.3625 O   0  0  0  0  0  0  0  0  0  0  0  0
  -27.6005  -25.8615   20.1845 O   0  0  0  0  0  0  0  0  0  1  0  0
  -27.4397  -23.3295   21.3263 O   0  0  0  0  0  0  0  0  0  0  0  0
  -20.3031   -4.9185   26.1388 F   0  0  0  0  0  0  0  0  0  0  0  0
  -23.6731   -4.7269   22.8204 F   0  0  0  0  0  0  0  0  0  0  0  0
  1  2  1  0  0  0  0
  1  5  2  0  0  0  0
  2  6  2  0  0  0  0
  3  8  2  0  0  0  0
  3 17  1  0  0  0  0
  4  9  1  0  0  0  0
  4 17  2  0  0  0  0
  5 19  1  0  0  0  0
  6 21  1  0  0  0  0
  7 10  2  0  0  0  0
  7 20  1  0  0  0  0
  8 26  1  0  0  0  0
  9 26  2  0  0  0  0
 10 27  1  0  0  0  0
 11 12  2  0  0  0  0
 11 28  1  0  0  0  0
 12 30  1  0  0  0  0
 13 22  2  0  0  0  0
 13 29  1  0  0  0  0
 14 23  1  0  0  0  0
 14 27  2  0  0  0  0
 15 25  1  0  0  0  0
 15 29  2  0  0  0  0
 16 30  2  0  0  0  0
 16 31  1  0  0  0  0
 17 32  1  0  0  0  0
 18 32  1  0  0  0  0
 18 33  2  0  0  0  0
 18 34  1  0  0  0  0
 19 21  2  0  0  0  0
 19 39  1  0  0  0  0
 20 23  2  0  0  0  0
 20 40  1  0  0  0  0
 21 52  1  0  0  0  0
 22 24  1  0  0  0  0
 22 41  1  0  0  0  0
 23 42  1  0  0  0  0
 24 25  2  0  0  0  0
 24 53  1  0  0  0  0
 25 76  1  0  0  0  0
 26 87  1  0  0  0  0
 27 88  1  0  0  0  0
 28 31  2  0  0  0  0
 28 87  1  0  0  0  0
 29 89  1  0  0  0  0
 30 90  1  0  0  0  0
 31 91  1  0  0  0  0
 32 70  2  0  0  0  0
 33 71  1  0  0  0  0
 33 74  1  0  0  0  0
 34 75  1  0  0  0  0
 34 81  2  0  0  0  0
 35 54  1  0  0  0  0
 35 77  1  0  0  0  0
 35 82  2  0  0  0  0
 36 66  1  0  0  0  0
 36 72  1  0  0  0  0
 36 83  2  0  0  0  0
 37 67  1  0  0  0  0
 37 78  1  0  0  0  0
 37 84  2  0  0  0  0
 38 73  1  0  0  0  0
 38 79  1  0  0  0  0
 38 85  2  0  0  0  0
 39 43  1  0  0  0  0
 40 54  1  0  0  0  0
 41 51  1  0  0  0  0
 42 72  1  0  0  0  0
 43 45  1  0  0  0  0
 44 48  1  0  0  0  0
 44 49  1  0  0  0  0
 45 52  1  0  0  0  0
 46 47  1  0  0  0  0
 46 55  1  0  0  0  0
 47 55  1  0  0  0  0
 48 56  1  0  0  0  0
 49 73  1  0  0  0  0
 50 56  1  0  0  0  0
 50 73  1  0  0  0  0
 51 86  1  0  0  0  0
 52 77  1  0  0  0  0
 53 55  1  0  0  0  0
 53 86  1  0  0  0  0
 54 72  1  0  0  0  0
 56 71  1  0  0  0  0
 57 67  1  0  0  0  0
 58 68  1  0  0  0  0
 59 69  1  0  0  0  0
 60 69  1  0  0  0  0
 61 69  1  0  0  0  0
 62 80  1  0  0  0  0
 63 68  1  0  0  0  0
 63 76  1  0  0  0  0
 64 65  1  0  0  0  0
 64 88  1  0  0  0  0
 65 89  1  0  0  0  0
 66 69  1  0  0  0  0
 66 78  1  0  0  0  0
 67 80  1  0  0  0  0
 68 79  1  0  0  0  0
 70 71  1  0  0  0  0
M  CHG  1  80   1
M  ISO  4  38 100  64 101  79 100  88 101
M  END
> <Batch ID>
0152

> <Smiles>
CNC(C)C(=O)NC(C(=O)N1Cc2cc([101O:1][101CH2:1]COc3cc4c(c(NCC(C)[100NH:0][100C:0](=O)N5CCCC(n6nc(-c7ccc(Oc8ccc(F)cc8F)cc7)c(C(N)=O)c6N)C5)c3)C(C3CC3)OCC4)ccc2CC1C(=O)NC1CCCc2ccccc21)C(C)(C)C

> <Shape>
0.302

> <Color>
0.174

> <Negative vol penalty>
0.000

$$$$

  -OEChem-04052321463D

 88 98  0     1  0  0  0  0  0999 V2000
  -38.8410  -30.1987   17.2713 C   0  0  0  0  0  0  0  0  0  0  0  0
  -38.2143  -29.0074   17.6224 C   0  0  0  0  0  0  0  0  0  0  0  0
  -23.0089   -9.8783   19.9823 C   0  0  0  0  0  0  0  0  0  0  0  0
  -23.7310   -9.9417   22.2870 C   0  0  0  0  0  0  0  0  0  0  0  0
  -38.2184  -31.4174   17.5374 C   0  0  0  0  0  0  0  0  0  0  0  0
  -36.9649  -29.0342   18.2411 C   0  0  0  0  0  0  0  0  0  0  0  0
  -32.4202  -24.9902   17.5359 C   0  0  0  0  0  0  0  0  0  0  0  0
  -22.2477   -8.7410   20.2521 C   0  0  0  0  0  0  0  0  0  0  0  0
  -22.9697   -8.8044   22.5569 C   0  0  0  0  0  0  0  0  0  0  0  0
  -32.0084  -23.8992   18.3001 C   0  0  0  0  0  0  0  0  0  0  0  0
  -23.2310   -5.4650   22.0981 C   0  0  0  0  0  0  0  0  0  0  0  0
  -23.8226   -4.4536   22.8548 C   0  0  0  0  0  0  0  0  0  0  0  0
  -30.6380  -18.6971   23.5271 C   0  0  0  0  0  0  0  0  0  0  0  0
  -32.0048  -18.8230   21.5389 C   0  0  0  0  0  0  0  0  0  0  0  0
  -30.3604  -25.2880   19.3839 C   0  0  0  0  0  0  0  0  0  0  0  0
  -22.0955   -4.6945   24.5270 C   0  0  0  0  0  0  0  0  0  0  0  0
  -23.7507  -10.4786   20.9998 C   0  0  0  0  0  0  0  0  0  0  0  0
  -24.1238  -12.9953   20.8146 C   0  0  0  0  0  0  0  0  0  0  0  0
  -36.9564  -31.4589   18.1509 C   0  0  0  0  0  0  0  0  0  0  0  0
  -31.8114  -26.2430   17.6980 C   0  0  0  0  0  0  0  0  0  0  0  0
  -36.3254  -30.2547   18.5169 C   0  0  0  0  0  0  0  0  0  0  0  0
  -30.1346  -17.4673   23.1032 C   0  0  0  0  0  0  0  0  0  0  0  0
  -31.5015  -17.5932   21.1149 C   0  0  0  0  0  0  0  0  0  0  0  0
  -30.7645  -26.3926   18.6187 C   0  0  0  0  0  0  0  0  0  0  0  0
  -31.5731  -19.3750   22.7449 C   0  0  0  0  0  0  0  0  0  0  0  0
  -30.5664  -16.9153   21.8971 C   0  0  0  0  0  0  0  0  0  0  0  0
  -22.2280   -8.2041   21.5394 C   0  0  0  0  0  0  0  0  0  0  0  0
  -30.9803  -24.0487   19.2263 C   0  0  0  0  0  0  0  0  0  0  0  0
  -22.0717   -6.0912   22.5558 C   0  0  0  0  0  0  0  0  0  0  0  0
  -23.2549   -4.0683   24.0693 C   0  0  0  0  0  0  0  0  0  0  0  0
  -21.5039   -5.7059   23.7703 C   0  0  0  0  0  0  0  0  0  0  0  0
  -24.5377  -11.6530   20.7216 C   0  0  0  0  0  0  0  0  0  0  0  0
  -25.2305  -13.7219   20.4487 C   0  0  0  0  0  0  0  0  0  0  0  0
  -22.8527  -13.5370   21.1974 C   0  0  0  0  0  0  0  0  0  0  0  0
  -32.8096  -29.1213   18.6050 C   0  0  0  0  0  0  0  0  0  0  0  0
  -29.7967  -29.9969   17.7813 C   0  0  0  0  0  0  0  0  0  0  0  0
  -26.5436  -29.0842   17.3006 C   0  0  0  0  0  0  0  0  0  0  0  0
  -30.7049  -14.7109   20.6856 C   0  0  0  0  0  0  0  0  0  0  0  0
  -36.3439  -32.8017   18.4613 C   0  0  0  0  0  0  0  0  0  0  0  0
  -32.2491  -27.4034   16.8470 C   0  0  0  0  0  0  0  0  0  0  0  0
  -30.0647  -27.7116   18.8162 C   0  0  0  0  0  0  0  0  0  0  0  0
  -34.8528  -32.7319   18.7804 C   0  0  0  0  0  0  0  0  0  0  0  0
  -29.6015  -12.2436   18.3678 C   0  0  0  0  0  0  0  0  0  0  0  0
  -29.4785  -16.4749   25.3963 C   0  0  0  0  0  0  0  0  0  0  0  0
  -29.4127  -15.3551   24.4054 C   0  0  0  0  0  0  0  0  0  0  0  0
  -31.8524  -17.8555   18.5690 C   0  0  0  0  0  0  0  0  0  0  0  0
  -30.9722  -16.6607   18.7636 C   0  0  0  0  0  0  0  0  0  0  0  0
  -34.5695  -31.6001   19.7629 C   0  0  0  0  0  0  0  0  0  0  0  0
  -28.1517  -11.9804   18.7812 C   0  0  0  0  0  0  0  0  0  0  0  0
  -30.4993  -12.4961   19.5777 C   0  0  0  0  0  0  0  0  0  0  0  0
  -28.5785  -13.2806   20.9059 C   0  0  0  0  0  0  0  0  0  0  0  0
  -29.1326  -16.7652   23.9609 C   0  0  0  0  0  0  0  0  0  0  0  0
  -31.9813  -17.0266   19.8183 C   0  0  0  0  0  0  0  0  0  0  0  0
  -34.9589  -30.2418   19.1670 C   0  0  1  0  0  0  0  0  0  0  0  0
  -31.9063  -28.7574   17.4608 C   0  0  1  0  0  0  0  0  0  0  0  0
  -27.6232  -13.0850   19.7173 C   0  0  2  0  0  0  0  0  0  0  0  0
  -33.6371  -20.6986   23.3618 C   0  0  0  0  0  0  0  0  0  0  0  0
  -24.3064  -30.0271   16.6656 C   0  0  0  0  0  0  0  0  0  0  0  0
  -29.5272  -31.2235   20.5621 C   0  0  0  0  0  0  0  0  0  0  0  0
  -27.0481  -31.2858   20.2182 C   0  0  0  0  0  0  0  0  0  0  0  0
  -28.5471  -32.5974   18.7164 C   0  0  0  0  0  0  0  0  0  0  0  0
  -26.3560  -27.3410   14.9163 C   0  0  0  0  0  0  0  0  0  0  0  0
  -30.2956  -22.0739   22.1813 C   0  0  0  0  0  0  0  0  0  0  0  0
  -30.0589  -23.2650   21.2740 C   0  0  0  0  0  0  0  0  0  1  0  0
  -32.1186  -20.7073   23.2048 C   0  0  1  0  0  0  0  0  0  0  0  0
  -28.4727  -30.0793   18.5018 C   0  0  1  0  0  0  0  0  0  0  0  0
  -25.5775  -29.3607   16.1628 C   0  0  2  0  0  0  0  0  0  0  0  0
  -28.4130  -31.2720   19.4975 C   0  0  0  0  0  0  0  0  0  0  0  0
  -25.8081  -11.5312   20.3275 N   0  0  0  0  0  0  0  0  0  0  0  0
  -26.2020  -12.8063   20.1694 N   0  0  0  0  0  0  0  0  0  0  0  0
  -30.5329  -28.8179   17.9650 N   0  0  0  0  0  0  0  0  0  0  0  0
  -29.9380  -13.5575   20.4163 N   0  0  0  0  0  0  0  0  0  0  0  0
  -25.4575  -15.0484   20.3418 N   0  0  0  0  0  0  0  0  0  0  0  0
  -21.8249  -12.6491   21.5431 N   0  0  0  0  0  0  0  0  0  0  0  0
  -30.0549  -15.6659   21.4667 N   0  0  0  0  0  0  0  0  0  0  0  0
  -33.9541  -29.7962   18.2256 N   0  0  0  0  0  0  0  0  0  0  0  0
  -27.4458  -30.1137   17.4661 N   0  0  0  0  0  0  0  0  0  0  0  0
  -25.2035  -28.0896   15.4805 N   0  3  0  0  0  0  0  0  0  0  0  0
  -31.7549  -21.8232   22.2903 N   0  3  0  0  0  0  0  0  0  0  0  0
  -22.6299  -14.7713   21.2162 O   0  0  0  0  0  0  0  0  0  0  0  0
  -32.4910  -28.8140   19.7477 O   0  0  0  0  0  0  0  0  0  0  0  0
  -30.1610  -30.9408   17.0757 O   0  0  0  0  0  0  0  0  0  0  0  0
  -26.4998  -28.0593   17.9775 O   0  0  0  0  0  0  0  0  0  0  0  0
  -31.8434  -14.8537   20.2325 O   0  0  0  0  0  0  0  0  0  0  0  0
  -21.4851   -7.0946   21.8030 O   0  0  0  0  0  0  0  0  0  0  0  0
  -30.5769  -22.9856   19.9740 O   0  0  0  0  0  0  0  0  0  1  0  0
  -23.8222   -3.0960   24.7951 F   0  0  0  0  0  0  0  0  0  0  0  0
  -20.3896   -6.3030   24.2146 F   0  0  0  0  0  0  0  0  0  0  0  0
  1  2  1  0  0  0  0
  1  5  2  0  0  0  0
  2  6  2  0  0  0  0
  3  8  2  0  0  0  0
  3 17  1  0  0  0  0
  4  9  1  0  0  0  0
  4 17  2  0  0  0  0
  5 19  1  0  0  0  0
  6 21  1  0  0  0  0
  7 10  2  0  0  0  0
  7 20  1  0  0  0  0
  8 27  1  0  0  0  0
  9 27  2  0  0  0  0
 10 28  1  0  0  0  0
 11 12  2  0  0  0  0
 11 29  1  0  0  0  0
 12 30  1  0  0  0  0
 13 22  2  0  0  0  0
 13 25  1  0  0  0  0
 14 23  1  0  0  0  0
 14 25  2  0  0  0  0
 15 24  1  0  0  0  0
 15 28  2  0  0  0  0
 16 30  2  0  0  0  0
 16 31  1  0  0  0  0
 17 32  1  0  0  0  0
 18 32  1  0  0  0  0
 18 33  2  0  0  0  0
 18 34  1  0  0  0  0
 19 21  2  0  0  0  0
 19 39  1  0  0  0  0
 20 24  2  0  0  0  0
 20 40  1  0  0  0  0
 21 54  1  0  0  0  0
 22 26  1  0  0  0  0
 22 52  1  0  0  0  0
 23 26  2  0  0  0  0
 23 53  1  0  0  0  0
 24 41  1  0  0  0  0
 25 65  1  0  0  0  0
 26 75  1  0  0  0  0
 27 85  1  0  0  0  0
 28 86  1  0  0  0  0
 29 31  2  0  0  0  0
 29 85  1  0  0  0  0
 30 87  1  0  0  0  0
 31 88  1  0  0  0  0
 32 69  2  0  0  0  0
 33 70  1  0  0  0  0
 33 73  1  0  0  0  0
 34 74  1  0  0  0  0
 34 80  2  0  0  0  0
 35 55  1  0  0  0  0
 35 76  1  0  0  0  0
 35 81  2  0  0  0  0
 36 66  1  0  0  0  0
 36 71  1  0  0  0  0
 36 82  2  0  0  0  0
 37 67  1  0  0  0  0
 37 77  1  0  0  0  0
 37 83  2  0  0  0  0
 38 72  1  0  0  0  0
 38 75  1  0  0  0  0
 38 84  2  0  0  0  0
 39 42  1  0  0  0  0
 40 55  1  0  0  0  0
 41 71  1  0  0  0  0
 42 48  1  0  0  0  0
 43 49  1  0  0  0  0
 43 50  1  0  0  0  0
 44 45  1  0  0  0  0
 44 52  1  0  0  0  0
 45 52  1  0  0  0  0
 46 47  1  0  0  0  0
 46 53  1  0  0  0  0
 47 53  1  0  0  0  0
 48 54  1  0  0  0  0
 49 56  1  0  0  0  0
 50 72  1  0  0  0  0
 51 56  1  0  0  0  0
 51 72  1  0  0  0  0
 54 76  1  0  0  0  0
 55 71  1  0  0  0  0
 56 70  1  0  0  0  0
 57 65  1  0  0  0  0
 58 67  1  0  0  0  0
 59 68  1  0  0  0  0
 60 68  1  0  0  0  0
 61 68  1  0  0  0  0
 62 78  1  0  0  0  0
 63 64  1  0  0  0  0
 63 79  1  0  0  0  0
 64 86  1  0  0  0  0
 65 79  1  0  0  0  0
 66 68  1  0  0  0  0
 66 77  1  0  0  0  0
 67 78  1  0  0  0  0
 69 70  1  0  0  0  0
M  CHG  2  78   1  79   1
M  ISO  4  38 100  64 101  75 100  86 101
M  END
> <Batch ID>
0152

> <Smiles>
CNC(C)C(=O)NC(C(=O)N1Cc2cc([101O:1][101CH2:1]CNC(C)c3cc(C4CC4)c([100NH:0][100C:0](=O)N4CCCC(n5nc(-c6ccc(Oc7ccc(F)cc7F)cc6)c(C(N)=O)c5N)C4)c(C4CC4)c3)ccc2CC1C(=O)NC1CCCc2ccccc21)C(C)(C)C

> <Shape>
0.228

> <Color>
0.198

> <Negative vol penalty>
0.000

$$$$

  -OEChem-04052321463D

 86 95  0     1  0  0  0  0  0999 V2000
  -26.4653  -34.2123   26.1129 C   0  0  0  0  0  0  0  0  0  0  0  0
  -26.9945  -33.0338   25.5968 C   0  0  0  0  0  0  0  0  0  0  0  0
  -21.7070  -10.5217   20.5938 C   0  0  0  0  0  0  0  0  0  0  0  0
  -23.4099  -10.1374   22.2639 C   0  0  0  0  0  0  0  0  0  0  0  0
  -25.0845  -34.3587   26.2389 C   0  0  0  0  0  0  0  0  0  0  0  0
  -26.1431  -32.0004   25.2073 C   0  0  0  0  0  0  0  0  0  0  0  0
  -26.9620  -28.1156   20.5444 C   0  0  0  0  0  0  0  0  0  0  0  0
  -21.4650   -9.1498   20.5248 C   0  0  0  0  0  0  0  0  0  0  0  0
  -23.1679   -8.7654   22.1950 C   0  0  0  0  0  0  0  0  0  0  0  0
  -27.4483  -26.8102   20.4853 C   0  0  0  0  0  0  0  0  0  0  0  0
  -20.8798   -6.5789   23.3801 C   0  0  0  0  0  0  0  0  0  0  0  0
  -20.7816   -5.8785   24.5823 C   0  0  0  0  0  0  0  0  0  0  0  0
  -25.1873  -25.9716   20.5490 C   0  0  0  0  0  0  0  0  0  0  0  0
  -29.1930  -22.3049   19.0546 C   0  0  0  0  0  0  0  0  0  0  0  0
  -28.6768  -22.0286   21.3985 C   0  0  0  0  0  0  0  0  0  0  0  0
  -22.6489   -4.4924   23.9274 C   0  0  0  0  0  0  0  0  0  0  0  0
  -22.6795  -11.0156   21.4633 C   0  0  0  0  0  0  0  0  0  0  0  0
  -22.3066  -13.3647   22.3854 C   0  0  0  0  0  0  0  0  0  0  0  0
  -24.2153  -33.3303   25.8417 C   0  0  0  0  0  0  0  0  0  0  0  0
  -25.5829  -28.3588   20.6173 C   0  0  0  0  0  0  0  0  0  0  0  0
  -24.7494  -32.1326   25.3293 C   0  0  0  0  0  0  0  0  0  0  0  0
  -24.6860  -27.2810   20.6063 C   0  0  0  0  0  0  0  0  0  0  0  0
  -29.3995  -20.1313   20.0889 C   0  0  0  0  0  0  0  0  0  0  0  0
  -28.7801  -22.8452   20.2724 C   0  0  0  0  0  0  0  0  0  0  0  0
  -29.5027  -20.9479   18.9628 C   0  0  0  0  0  0  0  0  0  0  0  0
  -28.9865  -20.6716   21.3068 C   0  0  0  0  0  0  0  0  0  0  0  0
  -22.1954   -8.2716   21.3255 C   0  0  0  0  0  0  0  0  0  0  0  0
  -26.5610  -25.7379   20.4906 C   0  0  0  0  0  0  0  0  0  0  0  0
  -21.8626   -6.2360   22.4514 C   0  0  0  0  0  0  0  0  0  0  0  0
  -21.6661   -4.8353   24.8560 C   0  0  0  0  0  0  0  0  0  0  0  0
  -22.7471   -5.1928   22.7251 C   0  0  0  0  0  0  0  0  0  0  0  0
  -22.9304  -12.4326   21.5346 C   0  0  0  0  0  0  0  0  0  0  0  0
  -22.8915  -14.5658   22.0666 C   0  0  0  0  0  0  0  0  0  0  0  0
  -21.2893  -13.1627   23.3754 C   0  0  0  0  0  0  0  0  0  0  0  0
  -23.6570  -29.7350   22.7387 C   0  0  0  0  0  0  0  0  0  0  0  0
  -21.4248  -29.2715   20.4312 C   0  0  0  0  0  0  0  0  0  0  0  0
  -20.4192  -27.5136   17.6843 C   0  0  0  0  0  0  0  0  0  0  0  0
  -28.2968  -15.4925   19.4468 C   0  0  0  0  0  0  0  0  0  0  0  0
  -22.7319  -33.5161   26.0410 C   0  0  0  0  0  0  0  0  0  0  0  0
  -25.0733  -29.7735   20.6534 C   0  0  0  0  0  0  0  0  0  0  0  0
  -23.1954  -27.4892   20.6628 C   0  0  0  0  0  0  0  0  0  0  0  0
  -21.8824  -32.5197   25.2563 C   0  0  0  0  0  0  0  0  0  0  0  0
  -24.9704  -16.8896   18.4522 C   0  0  0  0  0  0  0  0  0  0  0  0
  -22.4295  -31.1054   25.4215 C   0  0  0  0  0  0  0  0  0  0  0  0
  -24.0253  -15.9201   19.1601 C   0  0  0  0  0  0  0  0  0  0  0  0
  -31.4476  -16.8692   19.4032 C   0  0  0  0  0  0  0  0  0  0  0  0
  -26.2906  -16.2154   18.0975 C   0  0  0  0  0  0  0  0  0  0  0  0
  -30.4314  -16.2518   18.4511 C   0  0  0  0  0  0  0  0  0  0  0  0
  -28.7436  -17.9515   19.0357 C   0  0  0  0  0  0  0  0  0  0  0  0
  -26.0465  -14.6255   19.9783 C   0  0  0  0  0  0  0  0  0  0  0  0
  -29.7376  -18.6519   19.9887 C   0  0  1  0  0  0  0  0  0  0  0  0
  -23.8574  -30.9986   24.8728 C   0  0  1  0  0  0  0  0  0  0  0  0
  -23.6715  -29.8887   21.2441 C   0  0  1  0  0  0  0  0  0  0  0  0
  -31.2099  -18.3806   19.5755 C   0  0  1  0  0  0  0  0  0  0  0  0
  -24.7102  -15.2736   20.3760 C   0  0  2  0  0  0  0  0  0  0  0  0
  -29.9436  -20.3943   17.6472 C   0  0  0  0  0  0  0  0  0  0  0  0
  -28.8680  -19.8185   22.5275 C   0  0  0  0  0  0  0  0  0  0  0  0
  -32.2082  -18.9402   20.5945 C   0  0  0  0  0  0  0  0  0  0  0  0
  -18.5321  -27.3390   16.0395 C   0  0  0  0  0  0  0  0  0  0  0  0
  -19.7263  -27.8559   22.5339 C   0  0  0  0  0  0  0  0  0  0  0  0
  -18.3487  -26.8982   20.6756 C   0  0  0  0  0  0  0  0  0  0  0  0
  -18.4485  -29.3687   21.0063 C   0  0  0  0  0  0  0  0  0  0  0  0
  -22.1931  -28.1572   15.4044 C   0  0  0  0  0  0  0  0  0  0  0  0
  -28.4483  -24.2959   20.3703 C   0  0  0  0  0  0  0  0  0  1  0  0
  -20.4661  -28.1598   20.0790 C   0  0  1  0  0  0  0  0  0  0  0  0
  -19.8843  -27.9676   16.3382 C   0  0  2  0  0  0  0  0  0  0  0  0
  -19.2755  -28.0663   21.0746 C   0  0  0  0  0  0  0  0  0  0  0  0
  -23.8417  -12.9935   20.7352 N   0  0  0  0  0  0  0  0  0  0  0  0
  -23.7947  -14.2910   21.0823 N   0  0  0  0  0  0  0  0  0  0  0  0
  -22.7465  -28.8907   20.7033 N   0  0  0  0  0  0  0  0  0  0  0  0
  -26.9058  -15.5750   19.2683 N   0  0  0  0  0  0  0  0  0  0  0  0
  -29.0684  -16.5269   18.8964 N   0  0  0  0  0  0  0  0  0  0  0  0
  -22.7161  -15.8197   22.5350 N   0  0  0  0  0  0  0  0  0  0  0  0
  -20.7996  -11.8648   23.5751 N   0  0  0  0  0  0  0  0  0  0  0  0
  -23.8389  -30.9189   23.4279 N   0  0  0  0  0  0  0  0  0  0  0  0
  -20.0700  -28.3861   18.6933 N   0  0  0  0  0  0  0  0  0  0  0  0
  -20.8295  -27.5880   15.2504 N   0  3  0  0  0  0  0  0  0  0  0  0
  -20.8167  -14.1080   24.0512 O   0  0  0  0  0  0  0  0  0  0  0  0
  -23.4915  -28.6248   23.2304 O   0  0  0  0  0  0  0  0  0  0  0  0
  -21.0177  -30.4356   20.4568 O   0  0  0  0  0  0  0  0  0  0  0  0
  -21.0777  -26.4857   17.8271 O   0  0  0  0  0  0  0  0  0  0  0  0
  -28.8155  -14.5544   20.0645 O   0  0  0  0  0  0  0  0  0  0  0  0
  -21.9593   -6.9328   21.2586 O   0  0  0  0  0  0  0  0  0  0  0  0
  -27.0362  -24.4540   20.4333 O   0  0  0  0  0  0  0  0  0  1  0  0
  -21.5727   -4.1638   26.0112 F   0  0  0  0  0  0  0  0  0  0  0  0
  -23.6941   -4.8596   21.8373 F   0  0  0  0  0  0  0  0  0  0  0  0
  1  2  1  0  0  0  0
  1  5  2  0  0  0  0
  2  6  2  0  0  0  0
  3  8  2  0  0  0  0
  3 17  1  0  0  0  0
  4  9  1  0  0  0  0
  4 17  2  0  0  0  0
  5 19  1  0  0  0  0
  6 21  1  0  0  0  0
  7 10  2  0  0  0  0
  7 20  1  0  0  0  0
  8 27  1  0  0  0  0
  9 27  2  0  0  0  0
 10 28  1  0  0  0  0
 11 12  2  0  0  0  0
 11 29  1  0  0  0  0
 12 30  1  0  0  0  0
 13 22  1  0  0  0  0
 13 28  2  0  0  0  0
 14 24  1  0  0  0  0
 14 25  2  0  0  0  0
 15 24  2  0  0  0  0
 15 26  1  0  0  0  0
 16 30  2  0  0  0  0
 16 31  1  0  0  0  0
 17 32  1  0  0  0  0
 18 32  1  0  0  0  0
 18 33  2  0  0  0  0
 18 34  1  0  0  0  0
 19 21  2  0  0  0  0
 19 39  1  0  0  0  0
 20 22  2  0  0  0  0
 20 40  1  0  0  0  0
 21 52  1  0  0  0  0
 22 41  1  0  0  0  0
 23 25  1  0  0  0  0
 23 26  2  0  0  0  0
 23 51  1  0  0  0  0
 24 64  1  0  0  0  0
 25 56  1  0  0  0  0
 26 57  1  0  0  0  0
 27 83  1  0  0  0  0
 28 84  1  0  0  0  0
 29 31  2  0  0  0  0
 29 83  1  0  0  0  0
 30 85  1  0  0  0  0
 31 86  1  0  0  0  0
 32 68  2  0  0  0  0
 33 69  1  0  0  0  0
 33 73  1  0  0  0  0
 34 74  1  0  0  0  0
 34 78  2  0  0  0  0
 35 53  1  0  0  0  0
 35 75  1  0  0  0  0
 35 79  2  0  0  0  0
 36 65  1  0  0  0  0
 36 70  1  0  0  0  0
 36 80  2  0  0  0  0
 37 66  1  0  0  0  0
 37 76  1  0  0  0  0
 37 81  2  0  0  0  0
 38 71  1  0  0  0  0
 38 72  1  0  0  0  0
 38 82  2  0  0  0  0
 39 42  1  0  0  0  0
 40 53  1  0  0  0  0
 41 70  1  0  0  0  0
 42 44  1  0  0  0  0
 43 45  1  0  0  0  0
 43 47  1  0  0  0  0
 44 52  1  0  0  0  0
 45 55  1  0  0  0  0
 46 48  1  0  0  0  0
 46 54  1  0  0  0  0
 47 71  1  0  0  0  0
 48 72  1  0  0  0  0
 49 51  1  0  0  0  0
 49 72  1  0  0  0  0
 50 55  1  0  0  0  0
 50 71  1  0  0  0  0
 51 54  1  0  0  0  0
 52 75  1  0  0  0  0
 53 70  1  0  0  0  0
 54 58  1  0  0  0  0
 55 69  1  0  0  0  0
 59 66  1  0  0  0  0
 60 67  1  0  0  0  0
 61 67  1  0  0  0  0
 62 67  1  0  0  0  0
 63 77  1  0  0  0  0
 64 84  1  0  0  0  0
 65 67  1  0  0  0  0
 65 76  1  0  0  0  0
 66 77  1  0  0  0  0
 68 69  1  0  0  0  0
M  CHG  1  77   1
M  ISO  4  38 100  64 101  72 100  84 101
M  END
> <Batch ID>
0152

> <Smiles>
CNC(C)C(=O)NC(C(=O)N1Cc2cc([101O:1][101CH2:1]c3cc(C)c(C4C[100N:0]([100C:0](=O)N5CCCC(n6nc(-c7ccc(Oc8ccc(F)cc8F)cc7)c(C(N)=O)c6N)C5)CCC4C)c(C)c3)ccc2CC1C(=O)NC1CCCc2ccccc21)C(C)(C)C

> <Shape>
0.300

> <Color>
0.069

> <Negative vol penalty>
0.000

$$$$

  -OEChem-04052321463D

 86 95  0     1  0  0  0  0  0999 V2000
  -18.7312  -19.8111   32.5742 C   0  0  0  0  0  0  0  0  0  0  0  0
  -19.5298  -19.7477   31.4368 C   0  0  0  0  0  0  0  0  0  0  0  0
  -23.0642   -9.8472   20.1843 C   0  0  0  0  0  0  0  0  0  0  0  0
  -23.7234  -10.1466   22.4893 C   0  0  0  0  0  0  0  0  0  0  0  0
  -17.4508  -20.3572   32.4960 C   0  0  0  0  0  0  0  0  0  0  0  0
  -19.0478  -20.2293   30.2202 C   0  0  0  0  0  0  0  0  0  0  0  0
  -22.4631  -23.0387   27.7527 C   0  0  0  0  0  0  0  0  0  0  0  0
  -22.2906   -8.7452   20.5486 C   0  0  0  0  0  0  0  0  0  0  0  0
  -22.9497   -9.0447   22.8536 C   0  0  0  0  0  0  0  0  0  0  0  0
  -23.4753  -22.3606   27.0750 C   0  0  0  0  0  0  0  0  0  0  0  0
  -19.6853   -8.3689   23.4078 C   0  0  0  0  0  0  0  0  0  0  0  0
  -18.8774   -8.4914   24.5383 C   0  0  0  0  0  0  0  0  0  0  0  0
  -22.2787  -22.6585   25.0018 C   0  0  0  0  0  0  0  0  0  0  0  0
  -26.1848  -19.0926   24.3958 C   0  0  0  0  0  0  0  0  0  0  0  0
  -27.6452  -21.0100   24.5620 C   0  0  0  0  0  0  0  0  0  0  0  0
  -20.0524   -6.6537   25.5771 C   0  0  0  0  0  0  0  0  0  0  0  0
  -23.7806  -10.5479   21.1546 C   0  0  0  0  0  0  0  0  0  0  0  0
  -24.1703  -13.0315   20.7214 C   0  0  0  0  0  0  0  0  0  0  0  0
  -16.9565  -20.8546   31.2799 C   0  0  0  0  0  0  0  0  0  0  0  0
  -21.3439  -23.5231   27.0605 C   0  0  0  0  0  0  0  0  0  0  0  0
  -17.7590  -20.7813   30.1254 C   0  0  0  0  0  0  0  0  0  0  0  0
  -21.2548  -23.3447   25.6726 C   0  0  0  0  0  0  0  0  0  0  0  0
  -26.4568  -20.3636   24.9018 C   0  0  0  0  0  0  0  0  0  0  0  0
  -27.1014  -18.4678   23.5501 C   0  0  0  0  0  0  0  0  0  0  0  0
  -28.5618  -20.3852   23.7162 C   0  0  0  0  0  0  0  0  0  0  0  0
  -28.2899  -19.1141   23.2103 C   0  0  0  0  0  0  0  0  0  0  0  0
  -22.2334   -8.3439   21.8833 C   0  0  0  0  0  0  0  0  0  0  0  0
  -23.3819  -22.1679   25.6998 C   0  0  0  0  0  0  0  0  0  0  0  0
  -20.6767   -7.3887   23.3620 C   0  0  0  0  0  0  0  0  0  0  0  0
  -19.0610   -7.6339   25.6229 C   0  0  0  0  0  0  0  0  0  0  0  0
  -20.8602   -6.5311   24.4466 C   0  0  0  0  0  0  0  0  0  0  0  0
  -24.5804  -11.6860   20.7787 C   0  0  0  0  0  0  0  0  0  0  0  0
  -25.2898  -13.7146   20.3134 C   0  0  0  0  0  0  0  0  0  0  0  0
  -22.8917  -13.6120   21.0112 C   0  0  0  0  0  0  0  0  0  0  0  0
  -18.2180  -22.9575   27.1747 C   0  0  0  0  0  0  0  0  0  0  0  0
  -18.0926  -25.4034   25.0477 C   0  0  0  0  0  0  0  0  0  0  0  0
  -19.6885  -27.2600   22.6701 C   0  0  0  0  0  0  0  0  0  0  0  0
  -30.7767  -14.6883   20.6161 C   0  0  0  0  0  0  0  0  0  0  0  0
  -15.5482  -21.3925   31.2343 C   0  0  0  0  0  0  0  0  0  0  0  0
  -20.2734  -24.2758   27.8020 C   0  0  0  0  0  0  0  0  0  0  0  0
  -20.0837  -23.8630   24.8800 C   0  0  0  0  0  0  0  0  0  0  0  0
  -15.2535  -22.2229   29.9878 C   0  0  0  0  0  0  0  0  0  0  0  0
  -29.7039  -12.0240   18.5121 C   0  0  0  0  0  0  0  0  0  0  0  0
  -15.7607  -21.5092   28.7387 C   0  0  0  0  0  0  0  0  0  0  0  0
  -28.2441  -11.8057   18.9138 C   0  0  0  0  0  0  0  0  0  0  0  0
  -30.5714  -12.3903   19.7143 C   0  0  0  0  0  0  0  0  0  0  0  0
  -28.6237  -13.3182   20.9056 C   0  0  0  0  0  0  0  0  0  0  0  0
  -30.2797  -17.6307   22.8413 C   0  0  0  0  0  0  0  0  0  0  0  0
  -29.1857  -18.6276   20.9173 C   0  0  0  0  0  0  0  0  0  0  0  0
  -17.2810  -21.3160   28.7928 C   0  0  1  0  0  0  0  0  0  0  0  0
  -18.9314  -24.2762   27.0763 C   0  0  1  0  0  0  0  0  0  0  0  0
  -27.6990  -13.0014   19.7178 C   0  0  2  0  0  0  0  0  0  0  0  0
  -30.8251  -16.9817   21.5632 C   0  0  2  0  0  0  0  0  0  0  0  0
  -30.5113  -18.0055   20.4751 C   0  0  2  0  0  0  0  0  0  0  0  0
  -26.7829  -17.1055   23.0250 C   0  0  0  0  0  0  0  0  0  0  0  0
  -29.8266  -21.1017   23.3701 C   0  0  0  0  0  0  0  0  0  0  0  0
  -19.3161  -29.1661   21.0810 C   0  0  0  0  0  0  0  0  0  0  0  0
  -16.5093  -23.5559   23.2066 C   0  0  0  0  0  0  0  0  0  0  0  0
  -16.9889  -25.1354   21.3242 C   0  0  0  0  0  0  0  0  0  0  0  0
  -15.6701  -25.9101   23.2948 C   0  0  0  0  0  0  0  0  0  0  0  0
  -21.7968  -28.8937   23.9529 C   0  0  0  0  0  0  0  0  0  0  0  0
  -25.4702  -21.0354   25.8110 C   0  0  0  0  0  0  0  0  0  1  0  0
  -18.1551  -25.5165   23.5436 C   0  0  1  0  0  0  0  0  0  0  0  0
  -19.7937  -28.7607   22.4667 C   0  0  2  0  0  0  0  0  0  0  0  0
  -16.8521  -25.0179   22.8572 C   0  0  0  0  0  0  0  0  0  0  0  0
  -25.8605  -11.5220   20.4345 N   0  0  0  0  0  0  0  0  0  0  0  0
  -26.2644  -12.7733   20.1569 N   0  0  0  0  0  0  0  0  0  0  0  0
  -29.1963  -18.4960   22.3743 N   0  0  3  0  0  0  0  0  0  0  0  0
  -19.0597  -24.5870   25.6511 N   0  0  0  0  0  0  0  0  0  0  0  0
  -30.0003  -13.5322   20.4323 N   0  0  0  0  0  0  0  0  0  0  0  0
  -25.5259  -15.0225   20.0767 N   0  0  0  0  0  0  0  0  0  0  0  0
  -21.8507  -12.7663   21.4179 N   0  0  0  0  0  0  0  0  0  0  0  0
  -17.9595  -22.5530   28.4704 N   0  0  0  0  0  0  0  0  0  0  0  0
  -18.4897  -26.9063   23.2523 N   0  0  0  0  0  0  0  0  0  0  0  0
  -30.1573  -15.7262   21.3015 N   0  0  0  0  0  0  0  0  0  0  0  0
  -31.5626  -19.0635   20.4778 N   0  3  0  0  0  0  0  0  0  0  0  0
  -21.2065  -29.2073   22.6262 N   0  3  0  0  0  0  0  0  0  0  0  0
  -22.6742  -14.8420   20.8965 O   0  0  0  0  0  0  0  0  0  0  0  0
  -17.9226  -22.3525   26.1508 O   0  0  0  0  0  0  0  0  0  0  0  0
  -17.2224  -26.0225   25.6651 O   0  0  0  0  0  0  0  0  0  0  0  0
  -20.5791  -26.4793   22.3418 O   0  0  0  0  0  0  0  0  0  0  0  0
  -31.9342  -14.7900   20.1956 O   0  0  0  0  0  0  0  0  0  0  0  0
  -21.4784   -7.2688   22.2393 O   0  0  0  0  0  0  0  0  0  0  0  0
  -24.3682  -21.5058   25.0360 O   0  0  0  0  0  0  0  0  0  1  0  0
  -18.2861   -7.7527   26.7091 F   0  0  0  0  0  0  0  0  0  0  0  0
  -21.8118   -5.5883   24.4089 F   0  0  0  0  0  0  0  0  0  0  0  0
  1  2  1  0  0  0  0
  1  5  2  0  0  0  0
  2  6  2  0  0  0  0
  3  8  2  0  0  0  0
  3 17  1  0  0  0  0
  4  9  1  0  0  0  0
  4 17  2  0  0  0  0
  5 19  1  0  0  0  0
  6 21  1  0  0  0  0
  7 10  2  0  0  0  0
  7 20  1  0  0  0  0
  8 27  1  0  0  0  0
  9 27  2  0  0  0  0
 10 28  1  0  0  0  0
 11 12  2  0  0  0  0
 11 29  1  0  0  0  0
 12 30  1  0  0  0  0
 13 22  1  0  0  0  0
 13 28  2  0  0  0  0
 14 23  1  0  0  0  0
 14 24  2  0  0  0  0
 15 23  2  0  0  0  0
 15 25  1  0  0  0  0
 16 30  2  0  0  0  0
 16 31  1  0  0  0  0
 17 32  1  0  0  0  0
 18 32  1  0  0  0  0
 18 33  2  0  0  0  0
 18 34  1  0  0  0  0
 19 21  2  0  0  0  0
 19 39  1  0  0  0  0
 20 22  2  0  0  0  0
 20 40  1  0  0  0  0
 21 50  1  0  0  0  0
 22 41  1  0  0  0  0
 23 62  1  0  0  0  0
 24 26  1  0  0  0  0
 24 55  1  0  0  0  0
 25 26  2  0  0  0  0
 25 56  1  0  0  0  0
 26 68  1  0  0  0  0
 27 83  1  0  0  0  0
 28 84  1  0  0  0  0
 29 31  2  0  0  0  0
 29 83  1  0  0  0  0
 30 85  1  0  0  0  0
 31 86  1  0  0  0  0
 32 66  2  0  0  0  0
 33 67  1  0  0  0  0
 33 71  1  0  0  0  0
 34 72  1  0  0  0  0
 34 78  2  0  0  0  0
 35 51  1  0  0  0  0
 35 73  1  0  0  0  0
 35 79  2  0  0  0  0
 36 63  1  0  0  0  0
 36 69  1  0  0  0  0
 36 80  2  0  0  0  0
 37 64  1  0  0  0  0
 37 74  1  0  0  0  0
 37 81  2  0  0  0  0
 38 70  1  0  0  0  0
 38 75  1  0  0  0  0
 38 82  2  0  0  0  0
 39 42  1  0  0  0  0
 40 51  1  0  0  0  0
 41 69  1  0  0  0  0
 42 44  1  0  0  0  0
 43 45  1  0  0  0  0
 43 46  1  0  0  0  0
 44 50  1  0  0  0  0
 45 52  1  0  0  0  0
 46 70  1  0  0  0  0
 47 52  1  0  0  0  0
 47 70  1  0  0  0  0
 48 53  1  0  0  0  0
 48 68  1  0  0  0  0
 49 54  1  0  0  0  0
 49 68  1  0  0  0  0
 50 73  1  0  0  0  0
 51 69  1  0  0  0  0
 52 67  1  0  0  0  0
 53 54  1  0  0  0  0
 53 75  1  0  0  0  0
 54 76  1  0  0  0  0
 57 64  1  0  0  0  0
 58 65  1  0  0  0  0
 59 65  1  0  0  0  0
 60 65  1  0  0  0  0
 61 77  1  0  0  0  0
 62 84  1  0  0  0  0
 63 65  1  0  0  0  0
 63 74  1  0  0  0  0
 64 77  1  0  0  0  0
 66 67  1  0  0  0  0
M  CHG  2  76   1  77   1
M  ISO  4  38 100  62 101  75 100  84 101
M  END
> <Batch ID>
0152

> <Smiles>
CNC(C)C(=O)NC(C(=O)N1Cc2cc([101O:1][101CH2:1]c3cc(C)c(N4CC(N)C([100NH:0][100C:0](=O)N5CCCC(n6nc(-c7ccc(Oc8ccc(F)cc8F)cc7)c(C(N)=O)c6N)C5)C4)c(C)c3)ccc2CC1C(=O)NC1CCCc2ccccc21)C(C)(C)C

> <Shape>
0.220

> <Color>
0.192

> <Negative vol penalty>
0.000

$$$$

  -OEChem-04052321463D

 86 95  0     1  0  0  0  0  0999 V2000
  -22.6892  -15.3760   39.9699 C   0  0  0  0  0  0  0  0  0  0  0  0
  -23.9015  -15.3973   39.2878 C   0  0  0  0  0  0  0  0  0  0  0  0
  -22.8458  -10.1060   20.1093 C   0  0  0  0  0  0  0  0  0  0  0  0
  -24.2750   -9.5473   21.9754 C   0  0  0  0  0  0  0  0  0  0  0  0
  -21.6346  -14.5999   39.4908 C   0  0  0  0  0  0  0  0  0  0  0  0
  -24.0603  -14.6416   38.1267 C   0  0  0  0  0  0  0  0  0  0  0  0
  -27.3802  -16.1201   33.1974 C   0  0  0  0  0  0  0  0  0  0  0  0
  -22.1364   -8.9199   20.2975 C   0  0  0  0  0  0  0  0  0  0  0  0
  -23.5655   -8.3612   22.1636 C   0  0  0  0  0  0  0  0  0  0  0  0
  -28.6610  -15.7550   32.7851 C   0  0  0  0  0  0  0  0  0  0  0  0
  -20.6333   -7.4072   23.5466 C   0  0  0  0  0  0  0  0  0  0  0  0
  -20.2739   -7.0689   24.8512 C   0  0  0  0  0  0  0  0  0  0  0  0
  -27.7146  -14.0197   31.4022 C   0  0  0  0  0  0  0  0  0  0  0  0
  -32.4804  -12.6606   31.3044 C   0  0  0  0  0  0  0  0  0  0  0  0
  -34.2467  -12.5350   29.6769 C   0  0  0  0  0  0  0  0  0  0  0  0
  -21.5428   -5.0209   24.6696 C   0  0  0  0  0  0  0  0  0  0  0  0
  -23.9152  -10.4197   20.9483 C   0  0  0  0  0  0  0  0  0  0  0  0
  -24.1420  -12.9568   20.8089 C   0  0  0  0  0  0  0  0  0  0  0  0
  -21.7774  -13.8420   38.3179 C   0  0  0  0  0  0  0  0  0  0  0  0
  -26.2558  -15.4295   32.7227 C   0  0  0  0  0  0  0  0  0  0  0  0
  -23.0070  -13.8537   37.6321 C   0  0  0  0  0  0  0  0  0  0  0  0
  -26.4205  -14.3797   31.8080 C   0  0  0  0  0  0  0  0  0  0  0  0
  -33.8155  -12.4267   30.9943 C   0  0  0  0  0  0  0  0  0  0  0  0
  -22.4962   -8.0475   21.3246 C   0  0  0  0  0  0  0  0  0  0  0  0
  -28.8286  -14.7027   31.8897 C   0  0  0  0  0  0  0  0  0  0  0  0
  -21.4474   -6.5524   22.8035 C   0  0  0  0  0  0  0  0  0  0  0  0
  -20.7286   -5.8757   25.4127 C   0  0  0  0  0  0  0  0  0  0  0  0
  -21.9021   -5.3592   23.3650 C   0  0  0  0  0  0  0  0  0  0  0  0
  -24.6488  -11.6445   20.7540 C   0  0  0  0  0  0  0  0  0  0  0  0
  -31.6235  -12.9971   30.2690 C   0  0  0  0  0  0  0  0  0  0  0  0
  -33.3106  -12.8770   28.7143 C   0  0  0  0  0  0  0  0  0  0  0  0
  -25.2306  -13.7560   20.5583 C   0  0  0  0  0  0  0  0  0  0  0  0
  -22.8068  -13.4126   21.0638 C   0  0  0  0  0  0  0  0  0  0  0  0
  -23.9604  -13.6887   34.0661 C   0  0  0  0  0  0  0  0  0  0  0  0
  -22.7301  -13.7038   31.0647 C   0  0  0  0  0  0  0  0  0  0  0  0
  -23.2770  -14.0194   27.7109 C   0  0  0  0  0  0  0  0  0  0  0  0
  -31.1220  -12.9640   21.2760 C   0  0  0  0  0  0  0  0  0  0  0  0
  -20.6246  -12.9815   37.8647 C   0  0  0  0  0  0  0  0  0  0  0  0
  -24.8792  -15.8530   33.1565 C   0  0  0  0  0  0  0  0  0  0  0  0
  -25.2446  -13.6195   31.2532 C   0  0  0  0  0  0  0  0  0  0  0  0
  -20.7526  -12.5027   36.4209 C   0  0  0  0  0  0  0  0  0  0  0  0
  -29.4217  -13.7588   18.2505 C   0  0  0  0  0  0  0  0  0  0  0  0
  -22.1573  -11.9695   36.1578 C   0  0  0  0  0  0  0  0  0  0  0  0
  -27.9599  -13.4255   18.5540 C   0  0  0  0  0  0  0  0  0  0  0  0
  -32.4897  -11.8553   24.0401 C   0  0  0  0  0  0  0  0  0  0  0  0
  -30.9951  -13.7095   24.8973 C   0  0  0  0  0  0  0  0  0  0  0  0
  -33.4553  -12.1050   25.1955 C   0  0  0  0  0  0  0  0  0  0  0  0
  -31.9648  -13.9527   26.0507 C   0  0  0  0  0  0  0  0  0  0  0  0
  -30.3762  -12.7736   18.9215 C   0  0  0  0  0  0  0  0  0  0  0  0
  -28.7194  -12.2810   20.6782 C   0  0  0  0  0  0  0  0  0  0  0  0
  -23.2100  -13.0669   36.3554 C   0  0  1  0  0  0  0  0  0  0  0  0
  -23.8389  -14.7472   33.0067 C   0  0  1  0  0  0  0  0  0  0  0  0
  -27.7208  -13.2800   20.0689 C   0  0  2  0  0  0  0  0  0  0  0  0
  -31.7131  -13.1246   23.6783 C   0  0  0  0  0  0  0  0  0  0  0  0
  -32.7403  -12.6873   26.4125 C   0  0  0  0  0  0  0  0  0  0  0  0
  -34.7806  -12.0613   32.0699 C   0  0  0  0  0  0  0  0  0  0  0  0
  -22.0832  -13.9457   25.5048 C   0  0  0  0  0  0  0  0  0  0  0  0
  -22.6165  -10.6592   31.2306 C   0  0  0  0  0  0  0  0  0  0  0  0
  -22.3387  -10.6036   28.7431 C   0  0  0  0  0  0  0  0  0  0  0  0
  -20.6194  -11.7211   30.1635 C   0  0  0  0  0  0  0  0  0  0  0  0
  -24.0002  -16.8223   27.0944 C   0  0  0  0  0  0  0  0  0  0  0  0
  -30.1760  -13.2566   30.5671 C   0  0  0  0  0  0  0  0  0  1  0  0
  -22.8724  -12.8237   29.8465 C   0  0  1  0  0  0  0  0  0  0  0  0
  -22.5615  -14.8304   26.6455 C   0  0  2  0  0  0  0  0  0  0  0  0
  -22.1342  -11.4648   30.0077 C   0  0  0  0  0  0  0  0  0  0  0  0
  -25.9574  -11.6078   20.4891 N   0  0  0  0  0  0  0  0  0  0  0  0
  -32.0055  -13.1118   28.9773 N   0  0  0  0  0  0  0  0  0  0  0  0
  -26.2821  -12.9069   20.3753 N   0  0  0  0  0  0  0  0  0  0  0  0
  -23.9193  -14.0672   31.7123 N   0  0  0  0  0  0  0  0  0  0  0  0
  -30.0977  -12.6833   20.3568 N   0  0  0  0  0  0  0  0  0  0  0  0
  -25.3813  -15.0951   20.4787 N   0  0  0  0  0  0  0  0  0  0  0  0
  -21.8088  -12.4577   21.3018 N   0  0  0  0  0  0  0  0  0  0  0  0
  -23.2358  -13.9542   35.2124 N   0  0  0  0  0  0  0  0  0  0  0  0
  -22.4171  -13.6200   28.7121 N   0  0  0  0  0  0  0  0  0  0  0  0
  -30.7719  -12.8611   22.6168 N   0  0  0  0  0  0  0  0  0  0  0  0
  -23.4728  -15.8680   26.0853 N   0  3  0  0  0  0  0  0  0  0  0  0
  -22.5041  -14.6299   21.0637 O   0  0  0  0  0  0  0  0  0  0  0  0
  -24.6586  -12.7033   33.8583 O   0  0  0  0  0  0  0  0  0  0  0  0
  -21.6056  -14.0618   31.4241 O   0  0  0  0  0  0  0  0  0  0  0  0
  -24.4777  -13.7626   27.6581 O   0  0  0  0  0  0  0  0  0  0  0  0
  -32.2625  -13.2880   20.9277 O   0  0  0  0  0  0  0  0  0  0  0  0
  -21.8040   -6.8901   21.5087 O   0  0  0  0  0  0  0  0  0  0  0  0
  -30.0777  -14.3439   31.4862 O   0  0  0  0  0  0  0  0  0  1  0  0
  -33.7112  -12.9894   27.4086 O   0  0  0  0  0  0  0  0  0  0  0  0
  -20.3847   -5.5516   26.6660 F   0  0  0  0  0  0  0  0  0  0  0  0
  -22.6854   -4.5345   22.6563 F   0  0  0  0  0  0  0  0  0  0  0  0
  1  2  1  0  0  0  0
  1  5  2  0  0  0  0
  2  6  2  0  0  0  0
  3  8  2  0  0  0  0
  3 17  1  0  0  0  0
  4  9  1  0  0  0  0
  4 17  2  0  0  0  0
  5 19  1  0  0  0  0
  6 21  1  0  0  0  0
  7 10  2  0  0  0  0
  7 20  1  0  0  0  0
  8 24  1  0  0  0  0
  9 24  2  0  0  0  0
 10 25  1  0  0  0  0
 11 12  2  0  0  0  0
 11 26  1  0  0  0  0
 12 27  1  0  0  0  0
 13 22  1  0  0  0  0
 13 25  2  0  0  0  0
 14 23  2  0  0  0  0
 14 30  1  0  0  0  0
 15 23  1  0  0  0  0
 15 31  2  0  0  0  0
 16 27  2  0  0  0  0
 16 28  1  0  0  0  0
 17 29  1  0  0  0  0
 18 29  1  0  0  0  0
 18 32  2  0  0  0  0
 18 33  1  0  0  0  0
 19 21  2  0  0  0  0
 19 38  1  0  0  0  0
 20 22  2  0  0  0  0
 20 39  1  0  0  0  0
 21 51  1  0  0  0  0
 22 40  1  0  0  0  0
 23 56  1  0  0  0  0
 24 82  1  0  0  0  0
 25 83  1  0  0  0  0
 26 28  2  0  0  0  0
 26 82  1  0  0  0  0
 27 85  1  0  0  0  0
 28 86  1  0  0  0  0
 29 66  2  0  0  0  0
 30 62  1  0  0  0  0
 30 67  2  0  0  0  0
 31 67  1  0  0  0  0
 31 84  1  0  0  0  0
 32 68  1  0  0  0  0
 32 71  1  0  0  0  0
 33 72  1  0  0  0  0
 33 77  2  0  0  0  0
 34 52  1  0  0  0  0
 34 73  1  0  0  0  0
 34 78  2  0  0  0  0
 35 63  1  0  0  0  0
 35 69  1  0  0  0  0
 35 79  2  0  0  0  0
 36 64  1  0  0  0  0
 36 74  1  0  0  0  0
 36 80  2  0  0  0  0
 37 70  1  0  0  0  0
 37 75  1  0  0  0  0
 37 81  2  0  0  0  0
 38 41  1  0  0  0  0
 39 52  1  0  0  0  0
 40 69  1  0  0  0  0
 41 43  1  0  0  0  0
 42 44  1  0  0  0  0
 42 49  1  0  0  0  0
 43 51  1  0  0  0  0
 44 53  1  0  0  0  0
 45 47  1  0  0  0  0
 45 54  1  0  0  0  0
 46 48  1  0  0  0  0
 46 54  1  0  0  0  0
 47 55  1  0  0  0  0
 48 55  1  0  0  0  0
 49 70  1  0  0  0  0
 50 53  1  0  0  0  0
 50 70  1  0  0  0  0
 51 73  1  0  0  0  0
 52 69  1  0  0  0  0
 53 68  1  0  0  0  0
 54 75  1  0  0  0  0
 55 84  1  0  0  0  0
 57 64  1  0  0  0  0
 58 65  1  0  0  0  0
 59 65  1  0  0  0  0
 60 65  1  0  0  0  0
 61 76  1  0  0  0  0
 62 83  1  0  0  0  0
 63 65  1  0  0  0  0
 63 74  1  0  0  0  0
 64 76  1  0  0  0  0
 66 68  1  0  0  0  0
M  CHG  1  76   1
M  ISO  4  37 100  62 101  75 100  83 101
M  END
> <Batch ID>
0152

> <Smiles>
CNC(C)C(=O)NC(C(=O)N1Cc2cc([101O:1][101CH2:1]c3cc(C)cc(OC4CCC([100NH:0][100C:0](=O)N5CCCC(n6nc(-c7ccc(Oc8ccc(F)cc8F)cc7)c(C(N)=O)c6N)C5)CC4)n3)ccc2CC1C(=O)NC1CCCc2ccccc21)C(C)(C)C

> <Shape>
0.150

> <Color>
0.174

> <Negative vol penalty>
0.000

$$$$

  -OEChem-04052321463D

 86 95  0     1  0  0  0  0  0999 V2000
  -15.6009  -24.1969   10.0748 C   0  0  0  0  0  0  0  0  0  0  0  0
  -16.5904  -23.5126   10.7735 C   0  0  0  0  0  0  0  0  0  0  0  0
  -23.1866  -10.2538   22.1953 C   0  0  0  0  0  0  0  0  0  0  0  0
  -23.8151   -9.4814   19.9941 C   0  0  0  0  0  0  0  0  0  0  0  0
  -15.1450  -25.4291   10.5415 C   0  0  0  0  0  0  0  0  0  0  0  0
  -17.1255  -24.0608   11.9387 C   0  0  0  0  0  0  0  0  0  0  0  0
  -17.5543  -20.6601   15.6664 C   0  0  0  0  0  0  0  0  0  0  0  0
  -22.4520   -9.0851   22.3956 C   0  0  0  0  0  0  0  0  0  0  0  0
  -23.0806   -8.3127   20.1944 C   0  0  0  0  0  0  0  0  0  0  0  0
  -18.6282  -19.7735   15.5991 C   0  0  0  0  0  0  0  0  0  0  0  0
  -19.4429   -7.8473   21.4806 C   0  0  0  0  0  0  0  0  0  0  0  0
  -18.1673   -7.9709   22.0311 C   0  0  0  0  0  0  0  0  0  0  0  0
  -19.8352  -21.1238   17.1925 C   0  0  0  0  0  0  0  0  0  0  0  0
  -18.8385   -6.5898   23.8964 C   0  0  0  0  0  0  0  0  0  0  0  0
  -23.8681  -10.4520   20.9945 C   0  0  0  0  0  0  0  0  0  0  0  0
  -24.1416  -12.9808   20.7996 C   0  0  0  0  0  0  0  0  0  0  0  0
  -15.6679  -25.9881   11.7183 C   0  0  0  0  0  0  0  0  0  0  0  0
  -17.6173  -21.7930   16.4905 C   0  0  0  0  0  0  0  0  0  0  0  0
  -16.6771  -25.3023   12.4208 C   0  0  0  0  0  0  0  0  0  0  0  0
  -18.7598  -22.0219   17.2705 C   0  0  0  0  0  0  0  0  0  0  0  0
  -22.3990   -8.1145   21.3952 C   0  0  0  0  0  0  0  0  0  0  0  0
  -19.7700  -20.0068   16.3599 C   0  0  0  0  0  0  0  0  0  0  0  0
  -20.4163   -7.0949   22.1380 C   0  0  0  0  0  0  0  0  0  0  0  0
  -17.8650   -7.3422   23.2390 C   0  0  0  0  0  0  0  0  0  0  0  0
  -20.1141   -6.4663   23.3459 C   0  0  0  0  0  0  0  0  0  0  0  0
  -24.6266  -11.6593   20.7867 C   0  0  0  0  0  0  0  0  0  0  0  0
  -25.2487  -13.7553   20.5530 C   0  0  0  0  0  0  0  0  0  0  0  0
  -28.8835  -16.7536   17.3739 C   0  0  0  0  0  0  0  0  0  0  0  0
  -27.7946  -17.6314   16.8247 C   0  0  0  0  0  0  0  0  0  0  0  0
  -22.8094  -13.4649   21.0154 C   0  0  0  0  0  0  0  0  0  0  0  0
  -17.5167  -24.9320   16.0000 C   0  0  0  0  0  0  0  0  0  0  0  0
  -17.4927  -25.0446   19.2418 C   0  0  0  0  0  0  0  0  0  0  0  0
  -18.2528  -23.5209   22.1994 C   0  0  0  0  0  0  0  0  0  0  0  0
  -29.8833  -14.6993   17.5687 C   0  0  0  0  0  0  0  0  0  0  0  0
  -15.1772  -27.3448   12.1578 C   0  0  0  0  0  0  0  0  0  0  0  0
  -16.4398  -22.7254   16.5723 C   0  0  0  0  0  0  0  0  0  0  0  0
  -18.8693  -23.2125   18.1864 C   0  0  0  0  0  0  0  0  0  0  0  0
  -29.9349  -17.3965   18.2316 C   0  0  0  0  0  0  0  0  0  0  0  0
  -15.5299  -27.6808   13.6045 C   0  0  0  0  0  0  0  0  0  0  0  0
  -30.1574  -12.5714   20.4746 C   0  0  0  0  0  0  0  0  0  0  0  0
  -16.9917  -27.3500   13.8883 C   0  0  0  0  0  0  0  0  0  0  0  0
  -24.1651  -19.4659   17.9757 C   0  0  0  0  0  0  0  0  0  0  0  0
  -24.4213  -19.9125   15.4997 C   0  0  0  0  0  0  0  0  0  0  0  0
  -28.7027  -12.2246   20.7901 C   0  0  0  0  0  0  0  0  0  0  0  0
  -22.7264  -19.0152   17.7418 C   0  0  0  0  0  0  0  0  0  0  0  0
  -22.9817  -19.4611   15.2726 C   0  0  0  0  0  0  0  0  0  0  0  0
  -28.4370  -19.4004   18.4840 C   0  0  0  0  0  0  0  0  0  0  0  0
  -30.3885  -12.7004   18.9723 C   0  0  0  0  0  0  0  0  0  0  0  0
  -28.0174  -13.3368   18.6186 C   0  0  0  0  0  0  0  0  0  0  0  0
  -17.2646  -25.8526   13.7022 C   0  0  1  0  0  0  0  0  0  0  0  0
  -27.2798  -18.7191   17.7459 C   0  0  1  0  0  0  0  0  0  0  0  0
  -16.8166  -24.1227   17.0549 C   0  0  1  0  0  0  0  0  0  0  0  0
  -29.3091  -18.3769   19.2248 C   0  0  2  0  0  0  0  0  0  0  0  0
  -25.0376  -19.2385   16.7334 C   0  0  0  0  0  0  0  0  0  0  0  0
  -27.7400  -13.2260   20.1277 C   0  0  1  0  0  0  0  0  0  0  0  0
  -22.1182  -19.6848   16.5124 C   0  0  0  0  0  0  0  0  0  1  0  0
  -30.3960  -19.0814   20.0347 C   0  0  0  0  0  0  0  0  0  0  0  0
  -18.1491  -23.8751   24.6815 C   0  0  0  0  0  0  0  0  0  0  0  0
  -19.8801  -26.9367   19.0690 C   0  0  0  0  0  0  0  0  0  0  0  0
  -20.3138  -26.4992   21.4956 C   0  0  0  0  0  0  0  0  0  0  0  0
  -18.1732  -27.5650   20.7854 C   0  0  0  0  0  0  0  0  0  0  0  0
  -16.4868  -21.1762   22.5771 C   0  0  0  0  0  0  0  0  0  0  0  0
  -26.4584  -19.7463   16.9720 C   0  0  0  0  0  0  0  0  0  0  0  0
  -18.5502  -25.1093   20.3171 C   0  0  1  0  0  0  0  0  0  0  0  0
  -17.4374  -23.3096   23.4623 C   0  0  2  0  0  0  0  0  0  0  0  0
  -19.2284  -26.5060   20.3981 C   0  0  0  0  0  0  0  0  0  0  0  0
  -25.9396  -11.5942   20.5503 N   0  0  0  0  0  0  0  0  0  0  0  0
  -28.8798  -15.5035   17.0613 N   0  0  0  0  0  0  0  0  0  0  0  0
  -26.2890  -12.8846   20.4125 N   0  0  0  0  0  0  0  0  0  0  0  0
  -17.6941  -24.0985   18.2268 N   0  0  0  0  0  0  0  0  0  0  0  0
  -29.4346  -13.6328   18.3698 N   0  0  0  0  0  0  0  0  0  0  0  0
  -25.4241  -15.0895   20.4448 N   0  0  0  0  0  0  0  0  0  0  0  0
  -21.7904  -12.5329   21.2550 N   0  0  0  0  0  0  0  0  0  0  0  0
  -16.7810  -25.1051   14.8432 N   0  0  0  0  0  0  0  0  0  0  0  0
  -17.9013  -24.6874   21.5538 N   0  0  0  0  0  0  0  0  0  0  0  0
  -17.2005  -21.8558   23.6888 N   0  3  0  0  0  0  0  0  0  0  0  0
  -27.3491  -17.3672   15.7177 O   0  0  0  0  0  0  0  0  0  0  0  0
  -22.5279  -14.6868   20.9800 O   0  0  0  0  0  0  0  0  0  0  0  0
  -18.6405  -25.3683   16.2199 O   0  0  0  0  0  0  0  0  0  0  0  0
  -16.5199  -25.8006   19.3040 O   0  0  0  0  0  0  0  0  0  0  0  0
  -19.1177  -22.7319   21.8251 O   0  0  0  0  0  0  0  0  0  0  0  0
  -31.0840  -14.8797   17.3514 O   0  0  0  0  0  0  0  0  0  0  0  0
  -21.6826   -6.9739   21.5905 O   0  0  0  0  0  0  0  0  0  0  0  0
  -20.8198  -19.1433   16.2955 O   0  0  0  0  0  0  0  0  0  1  0  0
  -16.6405   -7.4622   23.7684 F   0  0  0  0  0  0  0  0  0  0  0  0
  -21.0455   -5.7431   23.9826 F   0  0  0  0  0  0  0  0  0  0  0  0
  1  2  1  0  0  0  0
  1  5  2  0  0  0  0
  2  6  2  0  0  0  0
  3  8  2  0  0  0  0
  3 15  1  0  0  0  0
  4  9  1  0  0  0  0
  4 15  2  0  0  0  0
  5 17  1  0  0  0  0
  6 19  1  0  0  0  0
  7 10  2  0  0  0  0
  7 18  1  0  0  0  0
  8 21  1  0  0  0  0
  9 21  2  0  0  0  0
 10 22  1  0  0  0  0
 11 12  2  0  0  0  0
 11 23  1  0  0  0  0
 12 24  1  0  0  0  0
 13 20  1  0  0  0  0
 13 22  2  0  0  0  0
 14 24  2  0  0  0  0
 14 25  1  0  0  0  0
 15 26  1  0  0  0  0
 16 26  1  0  0  0  0
 16 27  2  0  0  0  0
 16 30  1  0  0  0  0
 17 19  2  0  0  0  0
 17 35  1  0  0  0  0
 18 20  2  0  0  0  0
 18 36  1  0  0  0  0
 19 50  1  0  0  0  0
 20 37  1  0  0  0  0
 21 83  1  0  0  0  0
 22 84  1  0  0  0  0
 23 25  2  0  0  0  0
 23 83  1  0  0  0  0
 24 85  1  0  0  0  0
 25 86  1  0  0  0  0
 26 67  2  0  0  0  0
 27 69  1  0  0  0  0
 27 72  1  0  0  0  0
 28 29  1  0  0  0  0
 28 38  1  0  0  0  0
 28 68  2  0  0  0  0
 29 51  1  0  0  0  0
 29 77  2  0  0  0  0
 30 73  1  0  0  0  0
 30 78  2  0  0  0  0
 31 52  1  0  0  0  0
 31 74  1  0  0  0  0
 31 79  2  0  0  0  0
 32 64  1  0  0  0  0
 32 70  1  0  0  0  0
 32 80  2  0  0  0  0
 33 65  1  0  0  0  0
 33 75  1  0  0  0  0
 33 81  2  0  0  0  0
 34 68  1  0  0  0  0
 34 71  1  0  0  0  0
 34 82  2  0  0  0  0
 35 39  1  0  0  0  0
 36 52  1  0  0  0  0
 37 70  1  0  0  0  0
 38 53  1  0  0  0  0
 39 41  1  0  0  0  0
 40 44  1  0  0  0  0
 40 48  1  0  0  0  0
 41 50  1  0  0  0  0
 42 45  1  0  0  0  0
 42 54  1  0  0  0  0
 43 46  1  0  0  0  0
 43 54  1  0  0  0  0
 44 55  1  0  0  0  0
 45 56  1  0  0  0  0
 46 56  1  0  0  0  0
 47 51  1  0  0  0  0
 47 53  1  0  0  0  0
 48 71  1  0  0  0  0
 49 55  1  0  0  0  0
 49 71  1  0  0  0  0
 50 74  1  0  0  0  0
 51 63  1  0  0  0  0
 52 70  1  0  0  0  0
 53 57  1  0  0  0  0
 54 63  1  0  0  0  0
 55 69  1  0  0  0  0
 56 84  1  0  0  0  0
 58 65  1  0  0  0  0
 59 66  1  0  0  0  0
 60 66  1  0  0  0  0
 61 66  1  0  0  0  0
 62 76  1  0  0  0  0
 64 66  1  0  0  0  0
 64 75  1  0  0  0  0
 65 76  1  0  0  0  0
 67 69  1  0  0  0  0
M  CHG  1  76   1
M  ISO  4  34 100  56 101  68 100  84 101
M  END
> <Batch ID>
0152

> <Smiles>
CNC(C)C(=O)NC(C(=O)N1Cc2cc([101O:1][101CH:1]3CCC(C=C4CC(C)CC([100NH:0][100C:0](=O)N5CCCC(n6nc(-c7ccc(Oc8ccc(F)cc8F)cc7)c(C(N)=O)c6N)C5)C4=O)CC3)ccc2CC1C(=O)NC1CCCc2ccccc21)C(C)(C)C

> <Shape>
0.162

> <Color>
0.170

> <Negative vol penalty>
0.000

$$$$

  -OEChem-04052321463D

 88 97  0     1  0  0  0  0  0999 V2000
  -33.6949  -27.6185   18.3562 C   0  0  0  0  0  0  0  0  0  0  0  0
  -32.5289  -26.8633   18.2827 C   0  0  0  0  0  0  0  0  0  0  0  0
  -24.5574   -9.5726   21.0872 C   0  0  0  0  0  0  0  0  0  0  0  0
  -24.9026  -10.5357   23.2758 C   0  0  0  0  0  0  0  0  0  0  0  0
  -33.9143  -28.4554   19.4496 C   0  0  0  0  0  0  0  0  0  0  0  0
  -31.5819  -26.9437   19.3031 C   0  0  0  0  0  0  0  0  0  0  0  0
  -26.8512  -27.3283   17.5375 C   0  0  0  0  0  0  0  0  0  0  0  0
  -24.2956   -8.3343   21.6733 C   0  0  0  0  0  0  0  0  0  0  0  0
  -24.6407   -9.2973   23.8620 C   0  0  0  0  0  0  0  0  0  0  0  0
  -26.2461  -26.1594   17.0779 C   0  0  0  0  0  0  0  0  0  0  0  0
  -21.9311   -7.4258   24.6209 C   0  0  0  0  0  0  0  0  0  0  0  0
  -21.0846   -7.4011   25.7292 C   0  0  0  0  0  0  0  0  0  0  0  0
  -26.3239  -20.1351   19.7447 C   0  0  0  0  0  0  0  0  0  0  0  0
  -25.5254  -21.0547   22.2962 C   0  0  0  0  0  0  0  0  0  0  0  0
  -25.0560  -25.9613   19.1669 C   0  0  0  0  0  0  0  0  0  0  0  0
  -22.8599   -6.4505   27.0641 C   0  0  0  0  0  0  0  0  0  0  0  0
  -24.8610  -10.6733   21.8884 C   0  0  0  0  0  0  0  0  0  0  0  0
  -24.2017  -12.9659   20.9845 C   0  0  0  0  0  0  0  0  0  0  0  0
  -32.9651  -28.5534   20.4792 C   0  0  0  0  0  0  0  0  0  0  0  0
  -26.5711  -27.8174   18.8216 C   0  0  0  0  0  0  0  0  0  0  0  0
  -31.7894  -27.7816   20.4119 C   0  0  0  0  0  0  0  0  0  0  0  0
  -27.1692  -20.0298   20.8379 C   0  0  0  0  0  0  0  0  0  0  0  0
  -26.7745  -20.4896   22.0997 C   0  0  0  0  0  0  0  0  0  0  0  0
  -25.6569  -27.1381   19.6394 C   0  0  0  0  0  0  0  0  0  0  0  0
  -25.0669  -20.7142   19.9314 C   0  0  0  0  0  0  0  0  0  0  0  0
  -24.3372   -8.1966   23.0607 C   0  0  0  0  0  0  0  0  0  0  0  0
  -25.3506  -25.4741   17.8937 C   0  0  0  0  0  0  0  0  0  0  0  0
  -23.2420   -6.9627   24.7341 C   0  0  0  0  0  0  0  0  0  0  0  0
  -24.6704  -21.1703   21.1983 C   0  0  0  0  0  0  0  0  0  0  0  0
  -21.5490   -6.9135   26.9508 C   0  0  0  0  0  0  0  0  0  0  0  0
  -23.7064   -6.4751   25.9557 C   0  0  0  0  0  0  0  0  0  0  0  0
  -25.1321  -11.9526   21.2835 C   0  0  0  0  0  0  0  0  0  0  0  0
  -24.9546  -13.9693   20.4252 C   0  0  0  0  0  0  0  0  0  0  0  0
  -22.7836  -12.9974   21.1938 C   0  0  0  0  0  0  0  0  0  0  0  0
  -28.2866  -28.3428   21.4454 C   0  0  0  0  0  0  0  0  0  0  0  0
  -25.5187  -29.6459   22.5238 C   0  0  0  0  0  0  0  0  0  0  0  0
  -22.1164  -29.8073   22.3111 C   0  0  0  0  0  0  0  0  0  0  0  0
  -29.5081  -17.1957   20.3919 C   0  0  0  0  0  0  0  0  0  0  0  0
  -33.2680  -29.4359   21.6642 C   0  0  0  0  0  0  0  0  0  0  0  0
  -27.2117  -29.0943   19.2923 C   0  0  0  0  0  0  0  0  0  0  0  0
  -27.8381  -20.2353   23.1223 C   0  0  0  0  0  0  0  0  0  0  0  0
  -25.3067  -27.6325   21.0183 C   0  0  0  0  0  0  0  0  0  0  0  0
  -32.0433  -29.7474   22.5205 C   0  0  0  0  0  0  0  0  0  0  0  0
  -29.7637  -13.9932   18.8573 C   0  0  0  0  0  0  0  0  0  0  0  0
  -31.2446  -28.4766   22.7923 C   0  0  0  0  0  0  0  0  0  0  0  0
  -28.5086  -13.2589   19.3320 C   0  0  0  0  0  0  0  0  0  0  0  0
  -30.3311  -14.9023   19.9452 C   0  0  0  0  0  0  0  0  0  0  0  0
  -28.1112  -15.1257   20.9920 C   0  0  0  0  0  0  0  0  0  0  0  0
  -30.7271  -27.8604   21.4869 C   0  0  1  0  0  0  0  0  0  0  0  0
  -28.5422  -19.4274   20.8880 C   0  0  1  0  0  0  0  0  0  0  0  0
  -27.2448  -29.2211   20.8123 C   0  0  1  0  0  0  0  0  0  0  0  0
  -29.0789  -19.9790   22.2349 C   0  0  1  0  0  0  0  0  0  0  0  0
  -27.4705  -14.2392   19.9104 C   0  0  2  0  0  0  0  0  0  0  0  0
  -20.1291  -30.9352   23.3483 C   0  0  0  0  0  0  0  0  0  0  0  0
  -25.7441  -27.8077   24.9488 C   0  0  0  0  0  0  0  0  0  0  0  0
  -23.3332  -28.2730   25.4382 C   0  0  0  0  0  0  0  0  0  0  0  0
  -24.9925  -30.1353   25.4704 C   0  0  0  0  0  0  0  0  0  0  0  0
  -21.3529  -31.0758   19.7485 C   0  0  0  0  0  0  0  0  0  0  0  0
  -23.1126  -22.1691   22.6921 C   0  0  0  0  0  0  0  0  0  0  0  0
  -31.7968  -22.1239   20.9659 C   0  0  0  0  0  0  0  0  0  0  0  0
  -24.1369  -20.8378   18.7510 C   0  0  0  0  0  0  0  0  0  0  0  0
  -29.8767  -21.2728   22.0202 C   0  0  0  0  0  0  0  0  0  0  0  0
  -24.5062  -21.9716   17.7921 C   0  0  0  0  0  0  0  0  0  0  0  0
  -24.4147  -23.3540   18.4277 C   0  0  0  0  0  0  0  0  0  1  0  0
  -24.3061  -29.1250   23.2567 C   0  0  1  0  0  0  0  0  0  0  0  0
  -21.1667  -30.9893   22.2378 C   0  0  2  0  0  0  0  0  0  0  0  0
  -24.6018  -28.8246   24.7533 C   0  0  0  0  0  0  0  0  0  0  0  0
  -26.3807  -12.2820   20.9422 N   0  0  0  0  0  0  0  0  0  0  0  0
  -26.2401  -13.5136   20.4229 N   0  0  0  0  0  0  0  0  0  0  0  0
  -25.9640  -28.8820   21.4358 N   0  0  0  0  0  0  0  0  0  0  0  0
  -29.2966  -15.8083   20.4502 N   0  0  0  0  0  0  0  0  0  0  0  0
  -24.6359  -15.1880   19.9400 N   0  0  0  0  0  0  0  0  0  0  0  0
  -22.1699  -11.8823   21.7805 N   0  0  0  0  0  0  0  0  0  0  0  0
  -29.5733  -28.5898   21.0063 N   0  0  0  0  0  0  0  0  0  0  0  0
  -23.2470  -30.1052   23.0420 N   0  0  0  0  0  0  0  0  0  0  0  0
  -28.4751  -17.9830   20.8857 N   0  0  0  0  0  0  0  0  0  0  0  0
  -20.4541  -31.0008   20.9289 N   0  3  0  0  0  0  0  0  0  0  0  0
  -22.0792  -13.9785   20.8552 O   0  0  0  0  0  0  0  0  0  0  0  0
  -27.9482  -27.5040   22.2723 O   0  0  0  0  0  0  0  0  0  0  0  0
  -26.0469  -30.6959   22.8984 O   0  0  0  0  0  0  0  0  0  0  0  0
  -21.8774  -28.7266   21.7768 O   0  0  0  0  0  0  0  0  0  0  0  0
  -30.5388  -17.6960   19.9289 O   0  0  0  0  0  0  0  0  0  0  0  0
  -24.0815   -6.9885   23.6331 O   0  0  0  0  0  0  0  0  0  0  0  0
  -23.4396  -21.7310   21.3757 O   0  0  0  0  0  0  0  0  0  0  0  0
  -24.7590  -24.3326   17.4478 O   0  0  0  0  0  0  0  0  0  1  0  0
  -30.9978  -20.9714   21.2149 O   0  0  0  0  0  0  0  0  0  0  0  0
  -20.7364   -6.8914   28.0154 F   0  0  0  0  0  0  0  0  0  0  0  0
  -24.9651   -6.0300   26.0709 F   0  0  0  0  0  0  0  0  0  0  0  0
  1  2  1  0  0  0  0
  1  5  2  0  0  0  0
  2  6  2  0  0  0  0
  3  8  2  0  0  0  0
  3 17  1  0  0  0  0
  4  9  1  0  0  0  0
  4 17  2  0  0  0  0
  5 19  1  0  0  0  0
  6 21  1  0  0  0  0
  7 10  2  0  0  0  0
  7 20  1  0  0  0  0
  8 26  1  0  0  0  0
  9 26  2  0  0  0  0
 10 27  1  0  0  0  0
 11 12  2  0  0  0  0
 11 28  1  0  0  0  0
 12 30  1  0  0  0  0
 13 22  2  0  0  0  0
 13 25  1  0  0  0  0
 14 23  2  0  0  0  0
 14 29  1  0  0  0  0
 15 24  1  0  0  0  0
 15 27  2  0  0  0  0
 16 30  2  0  0  0  0
 16 31  1  0  0  0  0
 17 32  1  0  0  0  0
 18 32  1  0  0  0  0
 18 33  2  0  0  0  0
 18 34  1  0  0  0  0
 19 21  2  0  0  0  0
 19 39  1  0  0  0  0
 20 24  2  0  0  0  0
 20 40  1  0  0  0  0
 21 49  1  0  0  0  0
 22 23  1  0  0  0  0
 22 50  1  0  0  0  0
 23 41  1  0  0  0  0
 24 42  1  0  0  0  0
 25 29  2  0  0  0  0
 25 61  1  0  0  0  0
 26 83  1  0  0  0  0
 27 85  1  0  0  0  0
 28 31  2  0  0  0  0
 28 83  1  0  0  0  0
 29 84  1  0  0  0  0
 30 87  1  0  0  0  0
 31 88  1  0  0  0  0
 32 68  2  0  0  0  0
 33 69  1  0  0  0  0
 33 72  1  0  0  0  0
 34 73  1  0  0  0  0
 34 78  2  0  0  0  0
 35 51  1  0  0  0  0
 35 74  1  0  0  0  0
 35 79  2  0  0  0  0
 36 65  1  0  0  0  0
 36 70  1  0  0  0  0
 36 80  2  0  0  0  0
 37 66  1  0  0  0  0
 37 75  1  0  0  0  0
 37 81  2  0  0  0  0
 38 71  1  0  0  0  0
 38 76  1  0  0  0  0
 38 82  2  0  0  0  0
 39 43  1  0  0  0  0
 40 51  1  0  0  0  0
 41 52  1  0  0  0  0
 42 70  1  0  0  0  0
 43 45  1  0  0  0  0
 44 46  1  0  0  0  0
 44 47  1  0  0  0  0
 45 49  1  0  0  0  0
 46 53  1  0  0  0  0
 47 71  1  0  0  0  0
 48 53  1  0  0  0  0
 48 71  1  0  0  0  0
 49 74  1  0  0  0  0
 50 52  1  0  0  0  0
 50 76  1  0  0  0  0
 51 70  1  0  0  0  0
 52 62  1  0  0  0  0
 53 69  1  0  0  0  0
 54 66  1  0  0  0  0
 55 67  1  0  0  0  0
 56 67  1  0  0  0  0
 57 67  1  0  0  0  0
 58 77  1  0  0  0  0
 59 84  1  0  0  0  0
 60 86  1  0  0  0  0
 61 63  1  0  0  0  0
 62 86  1  0  0  0  0
 63 64  1  0  0  0  0
 64 85  1  0  0  0  0
 65 67  1  0  0  0  0
 65 75  1  0  0  0  0
 66 77  1  0  0  0  0
 68 69  1  0  0  0  0
M  CHG  1  77   1
M  ISO  4  38 100  64 101  76 100  85 101
M  END
> <Batch ID>
0152

> <Smiles>
CNC(C)C(=O)NC(C(=O)N1Cc2cc([101O:1][101CH2:1]CCc3cc4c(cc3OC)CC(COC)C4[100NH:0][100C:0](=O)N3CCCC(n4nc(-c5ccc(Oc6ccc(F)cc6F)cc5)c(C(N)=O)c4N)C3)ccc2CC1C(=O)NC1CCCc2ccccc21)C(C)(C)C

> <Shape>
0.238

> <Color>
0.102

> <Negative vol penalty>
0.000

$$$$

  -OEChem-04052321463D

 85 94  0     1  0  0  0  0  0999 V2000
  -27.1692  -25.1331   16.3521 C   0  0  0  0  0  0  0  0  0  0  0  0
  -26.0027  -25.4673   17.0325 C   0  0  0  0  0  0  0  0  0  0  0  0
  -24.8415  -13.3849   19.7447 C   0  0  0  0  0  0  0  0  0  0  0  0
  -24.3079  -12.1537   21.7538 C   0  0  0  0  0  0  0  0  0  0  0  0
  -28.4111  -25.4127   16.9209 C   0  0  0  0  0  0  0  0  0  0  0  0
  -26.0774  -26.0803   18.2827 C   0  0  0  0  0  0  0  0  0  0  0  0
  -22.8640  -29.9680   18.7352 C   0  0  0  0  0  0  0  0  0  0  0  0
  -21.5234  -25.2243   20.9830 C   0  0  0  0  0  0  0  0  0  0  0  0
  -25.8776  -12.4916   19.4724 C   0  0  0  0  0  0  0  0  0  0  0  0
  -25.3439  -11.2603   21.4814 C   0  0  0  0  0  0  0  0  0  0  0  0
  -21.5246  -29.6626   18.9730 C   0  0  0  0  0  0  0  0  0  0  0  0
  -28.8932  -10.7425   18.4377 C   0  0  0  0  0  0  0  0  0  0  0  0
  -30.1200  -11.2722   18.0379 C   0  0  0  0  0  0  0  0  0  0  0  0
  -20.8333  -26.1757   20.2403 C   0  0  0  0  0  0  0  0  0  0  0  0
  -21.8405  -30.1307   21.3182 C   0  0  0  0  0  0  0  0  0  0  0  0
  -30.2750  -12.4858   20.1212 C   0  0  0  0  0  0  0  0  0  0  0  0
  -24.0567  -13.2160   20.8855 C   0  0  0  0  0  0  0  0  0  0  0  0
  -21.6459  -14.0390   20.7505 C   0  0  0  0  0  0  0  0  0  0  0  0
  -28.5010  -26.0382   18.1743 C   0  0  0  0  0  0  0  0  0  0  0  0
  -23.7058  -30.3472   19.7906 C   0  0  0  0  0  0  0  0  0  0  0  0
  -27.3216  -26.3674   18.8694 C   0  0  0  0  0  0  0  0  0  0  0  0
  -21.3989  -25.2070   22.3677 C   0  0  0  0  0  0  0  0  0  0  0  0
  -23.1895  -30.4429   21.0908 C   0  0  0  0  0  0  0  0  0  0  0  0
  -26.1287  -11.4292   20.3407 C   0  0  0  0  0  0  0  0  0  0  0  0
  -21.0134  -29.7412   20.2651 C   0  0  0  0  0  0  0  0  0  0  0  0
  -28.3572  -11.0845   19.6793 C   0  0  0  0  0  0  0  0  0  0  0  0
  -30.8109  -12.1438   18.8796 C   0  0  0  0  0  0  0  0  0  0  0  0
  -29.0481  -11.9561   20.5210 C   0  0  0  0  0  0  0  0  0  0  0  0
  -22.9867  -14.1388   21.1676 C   0  0  0  0  0  0  0  0  0  0  0  0
  -20.0379  -27.0807   20.9245 C   0  0  0  0  0  0  0  0  0  0  0  0
  -20.5783  -26.1555   22.9568 C   0  0  0  0  0  0  0  0  0  0  0  0
  -21.0395  -15.1546   21.2742 C   0  0  0  0  0  0  0  0  0  0  0  0
  -21.0058  -13.0282   19.9605 C   0  0  0  0  0  0  0  0  0  0  0  0
  -26.3446  -29.1492   21.0964 C   0  0  0  0  0  0  0  0  0  0  0  0
  -26.2783  -31.9021   22.8109 C   0  0  0  0  0  0  0  0  0  0  0  0
  -24.4415  -34.4906   24.0651 C   0  0  0  0  0  0  0  0  0  0  0  0
  -23.6717  -20.3723   22.9401 C   0  0  0  0  0  0  0  0  0  0  0  0
  -29.8658  -26.2776   18.7699 C   0  0  0  0  0  0  0  0  0  0  0  0
  -25.1416  -30.6992   19.5133 C   0  0  0  0  0  0  0  0  0  0  0  0
  -24.0466  -30.8646   22.2553 C   0  0  0  0  0  0  0  0  0  0  0  0
  -29.8584  -27.2686   19.9310 C   0  0  0  0  0  0  0  0  0  0  0  0
  -21.3278  -18.2272   24.9189 C   0  0  0  0  0  0  0  0  0  0  0  0
  -28.7283  -26.9440   20.9027 C   0  0  0  0  0  0  0  0  0  0  0  0
  -21.4426  -16.9021   24.1673 C   0  0  0  0  0  0  0  0  0  0  0  0
  -21.3038  -22.9116   23.4364 C   0  0  0  0  0  0  0  0  0  0  0  0
  -23.4998  -23.7997   22.5432 C   0  0  0  0  0  0  0  0  0  0  0  0
  -22.6110  -19.0416   24.8041 C   0  0  0  0  0  0  0  0  0  0  0  0
  -22.0791  -21.8583   24.2326 C   0  0  0  0  0  0  0  0  0  0  0  0
  -24.2220  -22.7462   23.3783 C   0  0  0  0  0  0  0  0  0  0  0  0
  -23.1565  -17.9763   22.6380 C   0  0  0  0  0  0  0  0  0  0  0  0
  -22.1504  -24.1721   23.1837 C   0  0  0  0  0  0  0  0  0  0  0  0
  -27.3615  -27.0558   20.2165 C   0  0  1  0  0  0  0  0  0  0  0  0
  -26.0352  -30.5766   20.7437 C   0  0  1  0  0  0  0  0  0  0  0  0
  -21.8729  -17.1331   22.7089 C   0  0  1  0  0  0  0  0  0  0  0  0
  -20.4041  -26.1828   24.4399 C   0  0  0  0  0  0  0  0  0  0  0  0
  -17.7697  -28.0319   20.3828 C   0  0  0  0  0  0  0  0  0  0  0  0
  -24.6582  -36.5663   25.4586 C   0  0  0  0  0  0  0  0  0  0  0  0
  -26.4457  -30.1898   25.3309 C   0  0  0  0  0  0  0  0  0  0  0  0
  -25.7100  -32.1854   26.6517 C   0  0  0  0  0  0  0  0  0  0  0  0
  -27.8538  -32.2561   25.3782 C   0  0  0  0  0  0  0  0  0  0  0  0
  -23.5352  -36.2188   21.8400 C   0  0  0  0  0  0  0  0  0  0  0  0
  -19.2817  -28.1145   20.1587 C   0  0  1  0  0  0  0  0  0  1  0  0
  -25.6619  -32.3314   24.1204 C   0  0  1  0  0  0  0  0  0  0  0  0
  -24.6744  -35.9906   24.0511 C   0  0  2  0  0  0  0  0  0  0  0  0
  -26.4019  -31.7308   25.3489 C   0  0  0  0  0  0  0  0  0  0  0  0
  -23.2190  -15.2316   21.8997 N   0  0  0  0  0  0  0  0  0  0  0  0
  -19.8921  -27.0951   22.2685 N   0  0  0  0  0  0  0  0  0  0  0  0
  -22.0160  -15.8287   21.9466 N   0  0  0  0  0  0  0  0  0  0  0  0
  -25.4455  -31.1924   21.9342 N   0  0  0  0  0  0  0  0  0  0  0  0
  -23.0205  -19.2171   23.4040 N   0  0  0  0  0  0  0  0  0  0  0  0
  -23.3727  -21.5755   23.5968 N   0  0  0  0  0  0  0  0  0  0  0  0
  -19.7715  -15.6149   21.2203 N   0  0  0  0  0  0  0  0  0  0  0  0
  -21.7759  -11.9501   19.5034 N   0  0  0  0  0  0  0  0  0  0  0  0
  -26.9726  -28.4438   20.0877 N   0  0  0  0  0  0  0  0  0  0  0  0
  -25.6286  -33.7898   24.0972 N   0  0  0  0  0  0  0  0  0  0  0  0
  -23.6164  -36.6717   23.2526 N   0  3  0  0  0  0  0  0  0  0  0  0
  -19.7907  -13.0880   19.6547 O   0  0  0  0  0  0  0  0  0  0  0  0
  -26.0378  -28.7200   22.2025 O   0  0  0  0  0  0  0  0  0  0  0  0
  -27.4531  -32.1921   22.5717 O   0  0  0  0  0  0  0  0  0  0  0  0
  -23.3189  -33.9907   24.0527 O   0  0  0  0  0  0  0  0  0  0  0  0
  -24.4684  -20.3304   21.9943 O   0  0  0  0  0  0  0  0  0  0  0  0
  -27.1394  -10.5572   20.0751 O   0  0  0  0  0  0  0  0  0  0  0  0
  -19.7026  -29.4421   20.5008 O   0  0  0  0  0  0  0  0  0  1  0  0
  -31.9898  -12.6512   18.4962 F   0  0  0  0  0  0  0  0  0  0  0  0
  -28.5388  -12.2874   21.7155 F   0  0  0  0  0  0  0  0  0  0  0  0
  1  2  1  0  0  0  0
  1  5  2  0  0  0  0
  2  6  2  0  0  0  0
  3  9  2  0  0  0  0
  3 17  1  0  0  0  0
  4 10  1  0  0  0  0
  4 17  2  0  0  0  0
  5 19  1  0  0  0  0
  6 21  1  0  0  0  0
  7 11  2  0  0  0  0
  7 20  1  0  0  0  0
  8 14  2  0  0  0  0
  8 22  1  0  0  0  0
  9 24  1  0  0  0  0
 10 24  2  0  0  0  0
 11 25  1  0  0  0  0
 12 13  2  0  0  0  0
 12 26  1  0  0  0  0
 13 27  1  0  0  0  0
 14 30  1  0  0  0  0
 15 23  1  0  0  0  0
 15 25  2  0  0  0  0
 16 27  2  0  0  0  0
 16 28  1  0  0  0  0
 17 29  1  0  0  0  0
 18 29  1  0  0  0  0
 18 32  2  0  0  0  0
 18 33  1  0  0  0  0
 19 21  2  0  0  0  0
 19 38  1  0  0  0  0
 20 23  2  0  0  0  0
 20 39  1  0  0  0  0
 21 52  1  0  0  0  0
 22 31  2  0  0  0  0
 22 51  1  0  0  0  0
 23 40  1  0  0  0  0
 24 82  1  0  0  0  0
 25 83  1  0  0  0  0
 26 28  2  0  0  0  0
 26 82  1  0  0  0  0
 27 84  1  0  0  0  0
 28 85  1  0  0  0  0
 29 66  2  0  0  0  0
 30 62  1  0  0  0  0
 30 67  2  0  0  0  0
 31 55  1  0  0  0  0
 31 67  1  0  0  0  0
 32 68  1  0  0  0  0
 32 72  1  0  0  0  0
 33 73  1  0  0  0  0
 33 77  2  0  0  0  0
 34 53  1  0  0  0  0
 34 74  1  0  0  0  0
 34 78  2  0  0  0  0
 35 63  1  0  0  0  0
 35 69  1  0  0  0  0
 35 79  2  0  0  0  0
 36 64  1  0  0  0  0
 36 75  1  0  0  0  0
 36 80  2  0  0  0  0
 37 70  1  0  0  0  0
 37 71  1  0  0  0  0
 37 81  2  0  0  0  0
 38 41  1  0  0  0  0
 39 53  1  0  0  0  0
 40 69  1  0  0  0  0
 41 43  1  0  0  0  0
 42 44  1  0  0  0  0
 42 47  1  0  0  0  0
 43 52  1  0  0  0  0
 44 54  1  0  0  0  0
 45 48  1  0  0  0  0
 45 51  1  0  0  0  0
 46 49  1  0  0  0  0
 46 51  1  0  0  0  0
 47 70  1  0  0  0  0
 48 71  1  0  0  0  0
 49 71  1  0  0  0  0
 50 54  1  0  0  0  0
 50 70  1  0  0  0  0
 52 74  1  0  0  0  0
 53 69  1  0  0  0  0
 54 68  1  0  0  0  0
 56 62  1  0  0  0  0
 57 64  1  0  0  0  0
 58 65  1  0  0  0  0
 59 65  1  0  0  0  0
 60 65  1  0  0  0  0
 61 76  1  0  0  0  0
 62 83  1  0  0  0  0
 63 65  1  0  0  0  0
 63 75  1  0  0  0  0
 64 76  1  0  0  0  0
 66 68  1  0  0  0  0
M  CHG  1  76   1
M  ISO  4  37 100  62 101  71 100  83 101
M  END
> <Batch ID>
0152

> <Smiles>
CNC(C)C(=O)NC(C(=O)N1Cc2cc([101O:1][101CH:1](C)c3ccc(C4CC[100N:0]([100C:0](=O)N5CCCC(n6nc(-c7ccc(Oc8ccc(F)cc8F)cc7)c(C(N)=O)c6N)C5)CC4)c(C)n3)ccc2CC1C(=O)NC1CCCc2ccccc21)C(C)(C)C

> <Shape>
0.293

> <Color>
0.074

> <Negative vol penalty>
0.000

$$$$

  -OEChem-04052321463D

 92103  0     1  0  0  0  0  0999 V2000
  -20.4324  -35.9254   18.3758 C   0  0  0  0  0  0  0  0  0  0  0  0
  -21.4943  -35.0331   18.2687 C   0  0  0  0  0  0  0  0  0  0  0  0
  -24.8769   -8.2936   21.2948 C   0  0  0  0  0  0  0  0  0  0  0  0
  -23.5620  -10.3154   21.4394 C   0  0  0  0  0  0  0  0  0  0  0  0
  -20.4305  -36.8870   19.3854 C   0  0  0  0  0  0  0  0  0  0  0  0
  -22.5557  -35.1027   19.1705 C   0  0  0  0  0  0  0  0  0  0  0  0
  -30.2955  -27.6350   16.7692 C   0  0  0  0  0  0  0  0  0  0  0  0
  -23.9497  -30.4765   20.9443 C   0  0  0  0  0  0  0  0  0  0  0  0
  -29.6646  -28.4681   17.6930 C   0  0  0  0  0  0  0  0  0  0  0  0
  -23.7204   -7.5302   21.4540 C   0  0  0  0  0  0  0  0  0  0  0  0
  -22.4055   -9.5519   21.5985 C   0  0  0  0  0  0  0  0  0  0  0  0
  -24.7273  -29.6595   20.1247 C   0  0  0  0  0  0  0  0  0  0  0  0
  -21.7000   -6.5687   23.9873 C   0  0  0  0  0  0  0  0  0  0  0  0
  -21.7505   -5.4948   24.8760 C   0  0  0  0  0  0  0  0  0  0  0  0
  -26.7073  -30.3711   21.3042 C   0  0  0  0  0  0  0  0  0  0  0  0
  -28.8641  -26.5305   18.8938 C   0  0  0  0  0  0  0  0  0  0  0  0
  -21.2113   -3.9783   23.0742 C   0  0  0  0  0  0  0  0  0  0  0  0
  -24.7977   -9.6863   21.2876 C   0  0  0  0  0  0  0  0  0  0  0  0
  -27.1263  -10.4839   21.9575 C   0  0  0  0  0  0  0  0  0  0  0  0
  -21.4877  -36.9622   20.3059 C   0  0  0  0  0  0  0  0  0  0  0  0
  -24.5470  -31.2564   21.9452 C   0  0  0  0  0  0  0  0  0  0  0  0
  -22.5686  -36.0671   20.1925 C   0  0  0  0  0  0  0  0  0  0  0  0
  -30.2107  -26.2496   16.9076 C   0  0  0  0  0  0  0  0  0  0  0  0
  -25.9346  -31.1934   22.1382 C   0  0  0  0  0  0  0  0  0  0  0  0
  -28.9489  -27.9159   18.7553 C   0  0  0  0  0  0  0  0  0  0  0  0
  -29.4950  -25.6973   17.9699 C   0  0  0  0  0  0  0  0  0  0  0  0
  -22.4848   -8.1592   21.6058 C   0  0  0  0  0  0  0  0  0  0  0  0
  -26.1065  -29.6084   20.3032 C   0  0  0  0  0  0  0  0  0  0  0  0
  -21.4051   -6.3474   22.6420 C   0  0  0  0  0  0  0  0  0  0  0  0
  -21.5062   -4.1996   24.4194 C   0  0  0  0  0  0  0  0  0  0  0  0
  -21.1608   -5.0522   22.1855 C   0  0  0  0  0  0  0  0  0  0  0  0
  -25.9920  -10.4755   21.1239 C   0  0  0  0  0  0  0  0  0  0  0  0
  -27.9742  -11.3937   21.3745 C   0  0  0  0  0  0  0  0  0  0  0  0
  -27.3901   -9.7360   23.1520 C   0  0  0  0  0  0  0  0  0  0  0  0
  -24.7684  -34.3750   22.6318 C   0  0  0  0  0  0  0  0  0  0  0  0
  -26.2404  -33.1411   25.3454 C   0  0  0  0  0  0  0  0  0  0  0  0
  -26.0070  -36.2145   26.8081 C   0  0  0  0  0  0  0  0  0  0  0  0
  -29.0565  -16.1116   19.0528 C   0  0  0  0  0  0  0  0  0  0  0  0
  -21.4642  -38.0491   21.3512 C   0  0  0  0  0  0  0  0  0  0  0  0
  -23.6865  -32.1083   22.8387 C   0  0  0  0  0  0  0  0  0  0  0  0
  -26.6226  -32.0077   23.2003 C   0  0  0  0  0  0  0  0  0  0  0  0
  -22.4466  -37.8148   22.4958 C   0  0  0  0  0  0  0  0  0  0  0  0
  -27.7855  -13.6703   16.8692 C   0  0  0  0  0  0  0  0  0  0  0  0
  -30.5741  -25.5586   14.4450 C   0  0  0  0  0  0  0  0  0  0  0  0
  -30.0920  -24.3408   15.1695 C   0  0  0  0  0  0  0  0  0  0  0  0
  -23.8129  -37.4093   21.9520 C   0  0  0  0  0  0  0  0  0  0  0  0
  -27.2904  -12.6113   17.8537 C   0  0  0  0  0  0  0  0  0  0  0  0
  -30.5626  -22.1752   18.5362 C   0  0  0  0  0  0  0  0  0  0  0  0
  -28.1967  -22.1986   17.7099 C   0  0  0  0  0  0  0  0  0  0  0  0
  -27.4797  -15.0894   17.3517 C   0  0  0  0  0  0  0  0  0  0  0  0
  -30.4331  -23.6454   18.9329 C   0  0  0  0  0  0  0  0  0  0  0  0
  -28.0765  -23.6712   18.1036 C   0  0  0  0  0  0  0  0  0  0  0  0
  -28.2404  -17.9367   17.4947 C   0  0  0  0  0  0  0  0  0  0  0  0
  -30.5705  -17.9226   18.3061 C   0  0  0  0  0  0  0  0  0  0  0  0
  -27.4761  -14.3185   19.7022 C   0  0  0  0  0  0  0  0  0  0  0  0
  -28.0406  -19.3376   18.0640 C   0  0  0  0  0  0  0  0  0  0  0  0
  -30.3995  -19.3080   18.9077 C   0  0  0  0  0  0  0  0  0  0  0  0
  -30.8953  -25.3801   15.9045 C   0  0  0  0  0  0  0  0  0  0  0  0
  -23.7262  -36.0949   21.1668 C   0  0  1  0  0  0  0  0  0  0  0  0
  -24.4557  -33.2231   23.5444 C   0  0  1  0  0  0  0  0  0  0  0  0
  -27.8216  -12.8845   19.2721 C   0  0  1  0  0  0  0  0  0  0  0  0
  -29.2081  -21.4780   18.5936 C   0  0  0  0  0  0  0  0  0  0  0  0
  -26.3339  -37.3798   29.0064 C   0  0  0  0  0  0  0  0  0  0  0  0
  -23.6283  -31.9410   26.3663 C   0  0  0  0  0  0  0  0  0  0  0  0
  -23.5201  -33.7892   28.0518 C   0  0  0  0  0  0  0  0  0  0  0  0
  -25.4180  -32.1710   28.0979 C   0  0  0  0  0  0  0  0  0  0  0  0
  -28.0870  -37.9961   25.6863 C   0  0  0  0  0  0  0  0  0  0  0  0
  -28.2744  -28.8071   19.7426 C   0  0  0  0  0  0  0  0  0  1  0  0
  -25.3073  -33.8993   26.2560 C   0  0  1  0  0  0  0  0  0  0  0  0
  -26.9749  -36.9897   27.6836 C   0  0  2  0  0  0  0  0  0  0  0  0
  -24.4701  -32.9560   27.1652 C   0  0  0  0  0  0  0  0  0  0  0  0
  -26.1056  -11.3137   20.0901 N   0  0  0  0  0  0  0  0  0  0  0  0
  -27.3214  -11.8572   20.2703 N   0  0  0  0  0  0  0  0  0  0  0  0
  -29.3986  -24.3092   18.1257 N   0  0  0  0  0  0  0  0  0  0  0  0
  -25.7328  -32.7554   24.0982 N   0  0  0  0  0  0  0  0  0  0  0  0
  -27.9685  -15.2898   18.7230 N   0  0  0  0  0  0  0  0  0  0  0  0
  -29.2925  -17.2188   18.2244 N   0  0  0  0  0  0  0  0  0  0  0  0
  -29.2069  -11.8346   21.7038 N   0  0  0  0  0  0  0  0  0  0  0  0
  -27.0107  -10.2878   24.3832 N   0  0  0  0  0  0  0  0  0  0  0  0
  -23.6529  -34.9688   22.0728 N   0  0  0  0  0  0  0  0  0  0  0  0
  -26.1351  -34.8532   26.9862 N   0  0  0  0  0  0  0  0  0  0  0  0
  -29.3636  -20.0638   18.1086 N   0  3  0  0  0  0  0  0  0  0  0  0
  -27.4178  -38.2329   26.9913 N   0  3  0  0  0  0  0  0  0  0  0  0
  -27.9607   -8.6191   23.1295 O   0  0  0  0  0  0  0  0  0  0  0  0
  -25.9353  -34.7018   22.4494 O   0  0  0  0  0  0  0  0  0  0  0  0
  -27.3859  -32.8897   25.7300 O   0  0  0  0  0  0  0  0  0  0  0  0
  -25.2137  -36.7619   26.0454 O   0  0  0  0  0  0  0  0  0  0  0  0
  -29.7751  -15.8705   20.0311 O   0  0  0  0  0  0  0  0  0  0  0  0
  -21.3561   -7.4145   21.7608 O   0  0  0  0  0  0  0  0  0  0  0  0
  -26.8730  -28.8059   19.4994 O   0  0  0  0  0  0  0  0  0  1  0  0
  -21.5562   -3.1683   25.2727 F   0  0  0  0  0  0  0  0  0  0  0  0
  -20.8781   -4.8333   20.8939 F   0  0  0  0  0  0  0  0  0  0  0  0
  1  2  1  0  0  0  0
  1  5  2  0  0  0  0
  2  6  2  0  0  0  0
  3 10  2  0  0  0  0
  3 18  1  0  0  0  0
  4 11  1  0  0  0  0
  4 18  2  0  0  0  0
  5 20  1  0  0  0  0
  6 22  1  0  0  0  0
  7  9  2  0  0  0  0
  7 23  1  0  0  0  0
  8 12  2  0  0  0  0
  8 21  1  0  0  0  0
  9 25  1  0  0  0  0
 10 27  1  0  0  0  0
 11 27  2  0  0  0  0
 12 28  1  0  0  0  0
 13 14  2  0  0  0  0
 13 29  1  0  0  0  0
 14 30  1  0  0  0  0
 15 24  1  0  0  0  0
 15 28  2  0  0  0  0
 16 25  2  0  0  0  0
 16 26  1  0  0  0  0
 17 30  2  0  0  0  0
 17 31  1  0  0  0  0
 18 32  1  0  0  0  0
 19 32  1  0  0  0  0
 19 33  2  0  0  0  0
 19 34  1  0  0  0  0
 20 22  2  0  0  0  0
 20 39  1  0  0  0  0
 21 24  2  0  0  0  0
 21 40  1  0  0  0  0
 22 59  1  0  0  0  0
 23 26  2  0  0  0  0
 23 58  1  0  0  0  0
 24 41  1  0  0  0  0
 25 68  1  0  0  0  0
 26 74  1  0  0  0  0
 27 89  1  0  0  0  0
 28 90  1  0  0  0  0
 29 31  2  0  0  0  0
 29 89  1  0  0  0  0
 30 91  1  0  0  0  0
 31 92  1  0  0  0  0
 32 72  2  0  0  0  0
 33 73  1  0  0  0  0
 33 78  1  0  0  0  0
 34 79  1  0  0  0  0
 34 84  2  0  0  0  0
 35 60  1  0  0  0  0
 35 80  1  0  0  0  0
 35 85  2  0  0  0  0
 36 69  1  0  0  0  0
 36 75  1  0  0  0  0
 36 86  2  0  0  0  0
 37 70  1  0  0  0  0
 37 81  1  0  0  0  0
 37 87  2  0  0  0  0
 38 76  1  0  0  0  0
 38 77  1  0  0  0  0
 38 88  2  0  0  0  0
 39 42  1  0  0  0  0
 40 60  1  0  0  0  0
 41 75  1  0  0  0  0
 42 46  1  0  0  0  0
 43 47  1  0  0  0  0
 43 50  1  0  0  0  0
 44 45  1  0  0  0  0
 44 58  1  0  0  0  0
 45 58  1  0  0  0  0
 46 59  1  0  0  0  0
 47 61  1  0  0  0  0
 48 51  1  0  0  0  0
 48 62  1  0  0  0  0
 49 52  1  0  0  0  0
 49 62  1  0  0  0  0
 50 76  1  0  0  0  0
 51 74  1  0  0  0  0
 52 74  1  0  0  0  0
 53 56  1  0  0  0  0
 53 77  1  0  0  0  0
 54 57  1  0  0  0  0
 54 77  1  0  0  0  0
 55 61  1  0  0  0  0
 55 76  1  0  0  0  0
 56 82  1  0  0  0  0
 57 82  1  0  0  0  0
 59 80  1  0  0  0  0
 60 75  1  0  0  0  0
 61 73  1  0  0  0  0
 62 82  1  0  0  0  0
 63 70  1  0  0  0  0
 64 71  1  0  0  0  0
 65 71  1  0  0  0  0
 66 71  1  0  0  0  0
 67 83  1  0  0  0  0
 68 90  1  0  0  0  0
 69 71  1  0  0  0  0
 69 81  1  0  0  0  0
 70 83  1  0  0  0  0
 72 73  1  0  0  0  0
M  CHG  2  82   1  83   1
M  ISO  4  38 100  68 101  77 100  90 101
M  END
> <Batch ID>
0152

> <Smiles>
CNC(C)C(=O)NC(C(=O)N1Cc2cc([101O:1][101CH2:1]c3ccc(C4CC4)c(N4CCC(N5CC[100N:0]([100C:0](=O)N6CCCC(n7nc(-c8ccc(Oc9ccc(F)cc9F)cc8)c(C(N)=O)c7N)C6)CC5)CC4)c3)ccc2CC1C(=O)NC1CCCc2ccccc21)C(C)(C)C

> <Shape>
0.291

> <Color>
0.080

> <Negative vol penalty>
0.000

$$$$

  -OEChem-04052321463D

 84 93  0     1  0  0  0  0  0999 V2000
  -24.1368   -6.9692   24.4152 C   0  0  0  0  0  0  0  0  0  0  0  0
  -25.3544   -7.5694   24.1108 C   0  0  0  0  0  0  0  0  0  0  0  0
  -25.3771  -30.2991   22.7756 C   0  0  0  0  0  0  0  0  0  0  0  0
  -25.7169  -31.6902   20.8298 C   0  0  0  0  0  0  0  0  0  0  0  0
  -23.0126   -7.2419   23.6369 C   0  0  0  0  0  0  0  0  0  0  0  0
  -25.4487   -8.4419   23.0272 C   0  0  0  0  0  0  0  0  0  0  0  0
  -28.9797  -13.4285   22.6124 C   0  0  0  0  0  0  0  0  0  0  0  0
  -25.1862  -31.4386   23.5570 C   0  0  0  0  0  0  0  0  0  0  0  0
  -25.5260  -32.8298   21.6112 C   0  0  0  0  0  0  0  0  0  0  0  0
  -30.2202  -13.6525   22.0167 C   0  0  0  0  0  0  0  0  0  0  0  0
  -27.1059  -33.8007   25.0266 C   0  0  0  0  0  0  0  0  0  0  0  0
  -27.7519  -33.8544   26.2617 C   0  0  0  0  0  0  0  0  0  0  0  0
  -29.1146  -14.4938   20.0447 C   0  0  0  0  0  0  0  0  0  0  0  0
  -32.4559  -16.9442   18.5201 C   0  0  0  0  0  0  0  0  0  0  0  0
  -33.1136  -17.9925   20.5950 C   0  0  0  0  0  0  0  0  0  0  0  0
  -25.6144  -34.0471   27.3713 C   0  0  0  0  0  0  0  0  0  0  0  0
  -25.6425  -30.4249   21.4120 C   0  0  0  0  0  0  0  0  0  0  0  0
  -24.8568  -28.5181   19.9104 C   0  0  0  0  0  0  0  0  0  0  0  0
  -23.0910   -8.1257   22.5490 C   0  0  0  0  0  0  0  0  0  0  0  0
  -27.7952  -13.7258   21.9232 C   0  0  0  0  0  0  0  0  0  0  0  0
  -24.3249   -8.7257   22.2328 C   0  0  0  0  0  0  0  0  0  0  0  0
  -27.8604  -14.2750   20.6348 C   0  0  0  0  0  0  0  0  0  0  0  0
  -31.9944  -19.2868   18.8894 C   0  0  0  0  0  0  0  0  0  0  0  0
  -33.0482  -16.8622   19.7803 C   0  0  0  0  0  0  0  0  0  0  0  0
  -31.9290  -18.1565   18.0746 C   0  0  0  0  0  0  0  0  0  0  0  0
  -32.5868  -19.2048   20.1496 C   0  0  0  0  0  0  0  0  0  0  0  0
  -25.2607  -32.7039   22.9748 C   0  0  0  0  0  0  0  0  0  0  0  0
  -30.2877  -14.1826   20.7316 C   0  0  0  0  0  0  0  0  0  0  0  0
  -25.7141  -33.8703   24.9639 C   0  0  0  0  0  0  0  0  0  0  0  0
  -27.0062  -33.9775   27.4340 C   0  0  0  0  0  0  0  0  0  0  0  0
  -24.9684  -33.9935   26.1362 C   0  0  0  0  0  0  0  0  0  0  0  0
  -25.8403  -29.2481   20.6044 C   0  0  0  0  0  0  0  0  0  0  0  0
  -25.5499  -27.5000   19.3025 C   0  0  0  0  0  0  0  0  0  0  0  0
  -23.4431  -28.7405   19.8231 C   0  0  0  0  0  0  0  0  0  0  0  0
  -25.3076  -12.0301   20.9032 C   0  0  0  0  0  0  0  0  0  0  0  0
  -24.1303  -14.9516   20.1278 C   0  0  0  0  0  0  0  0  0  0  0  0
  -24.7571  -18.2166   19.3576 C   0  0  0  0  0  0  0  0  0  0  0  0
  -29.2435  -23.4311   19.6945 C   0  0  0  0  0  0  0  0  0  0  0  0
  -21.8598   -8.3529   21.7081 C   0  0  0  0  0  0  0  0  0  0  0  0
  -26.4654  -13.5032   22.5900 C   0  0  0  0  0  0  0  0  0  0  0  0
  -26.6184  -14.6303   19.8603 C   0  0  0  0  0  0  0  0  0  0  0  0
  -21.9572   -9.5792   20.8043 C   0  0  0  0  0  0  0  0  0  0  0  0
  -30.5017  -26.7597   18.7196 C   0  0  0  0  0  0  0  0  0  0  0  0
  -23.3008   -9.6050   20.0825 C   0  0  0  0  0  0  0  0  0  0  0  0
  -29.3270  -27.6467   19.1218 C   0  0  0  0  0  0  0  0  0  0  0  0
  -29.9983  -20.6344   17.9555 C   0  0  0  0  0  0  0  0  0  0  0  0
  -30.6670  -25.5660   19.6592 C   0  0  0  0  0  0  0  0  0  0  0  0
  -28.2514  -25.6385   20.2107 C   0  0  0  0  0  0  0  0  0  0  0  0
  -31.4295  -20.5867   18.4118 C   0  0  1  0  0  0  0  0  0  0  0  0
  -24.4615   -9.6970   21.0804 C   0  0  1  0  0  0  0  0  0  0  0  0
  -25.3154  -13.3626   21.5975 C   0  0  1  0  0  0  0  0  0  0  0  0
  -28.0398  -26.8176   19.2487 C   0  0  1  0  0  0  0  0  0  0  0  0
  -30.3855  -21.2786   19.2537 C   0  0  1  0  0  0  0  0  0  0  0  0
  -31.3004  -18.2156   16.7207 C   0  0  0  0  0  0  0  0  0  0  0  0
  -32.6705  -20.3993   21.0430 C   0  0  0  0  0  0  0  0  0  0  0  0
  -23.5950  -20.3520   18.7354 C   0  0  0  0  0  0  0  0  0  0  0  0
  -23.6900  -13.8859   17.3028 C   0  0  0  0  0  0  0  0  0  0  0  0
  -23.4446  -16.2525   16.5233 C   0  0  0  0  0  0  0  0  0  0  0  0
  -21.8336  -15.3135   18.1803 C   0  0  0  0  0  0  0  0  0  0  0  0
  -25.7843  -19.6109   21.7576 C   0  0  0  0  0  0  0  0  0  0  0  0
  -33.6184  -15.5504   20.2623 C   0  0  0  0  0  0  0  0  0  0  0  0
  -32.5893  -14.7116   21.0122 C   0  0  0  0  0  0  0  0  0  1  0  0
  -24.1958  -15.8419   18.9104 C   0  0  1  0  0  0  0  0  0  0  0  0
  -24.1481  -19.5080   19.8732 C   0  0  2  0  0  0  0  0  0  0  0  0
  -23.3146  -15.3151   17.7428 C   0  0  0  0  0  0  0  0  0  0  0  0
  -27.0650  -28.7371   20.4522 N   0  0  0  0  0  0  0  0  0  0  0  0
  -26.8555  -27.6751   19.6558 N   0  0  0  0  0  0  0  0  0  0  0  0
  -25.3419  -14.3883   20.5528 N   0  0  0  0  0  0  0  0  0  0  0  0
  -29.4068  -24.8229   19.8170 N   0  0  0  0  0  0  0  0  0  0  0  0
  -25.1638  -26.4810   18.5057 N   0  0  0  0  0  0  0  0  0  0  0  0
  -22.8949  -29.8328   20.5092 N   0  0  0  0  0  0  0  0  0  0  0  0
  -24.5987  -11.0510   21.5726 N   0  0  0  0  0  0  0  0  0  0  0  0
  -23.8449  -17.1827   19.3659 N   0  0  0  0  0  0  0  0  0  0  0  0
  -30.3953  -22.7094   19.4025 N   0  0  0  0  0  0  0  0  0  0  0  0
  -25.1730  -20.3107   20.5984 N   0  3  0  0  0  0  0  0  0  0  0  0
  -22.6860  -27.9832   19.1697 O   0  0  0  0  0  0  0  0  0  0  0  0
  -25.8997  -11.9003   19.8381 O   0  0  0  0  0  0  0  0  0  0  0  0
  -23.0453  -14.7685   20.6854 O   0  0  0  0  0  0  0  0  0  0  0  0
  -25.9242  -18.1343   18.9813 O   0  0  0  0  0  0  0  0  0  0  0  0
  -28.1522  -22.8694   19.8401 O   0  0  0  0  0  0  0  0  0  0  0  0
  -25.0742  -33.8161   23.7370 O   0  0  0  0  0  0  0  0  0  0  0  0
  -31.4972  -14.4016   20.1476 O   0  0  0  0  0  0  0  0  0  1  0  0
  -27.6266  -34.0275   28.6201 F   0  0  0  0  0  0  0  0  0  0  0  0
  -23.6311  -34.0596   26.0823 F   0  0  0  0  0  0  0  0  0  0  0  0
  1  2  1  0  0  0  0
  1  5  2  0  0  0  0
  2  6  2  0  0  0  0
  3  8  2  0  0  0  0
  3 17  1  0  0  0  0
  4  9  1  0  0  0  0
  4 17  2  0  0  0  0
  5 19  1  0  0  0  0
  6 21  1  0  0  0  0
  7 10  2  0  0  0  0
  7 20  1  0  0  0  0
  8 27  1  0  0  0  0
  9 27  2  0  0  0  0
 10 28  1  0  0  0  0
 11 12  2  0  0  0  0
 11 29  1  0  0  0  0
 12 30  1  0  0  0  0
 13 22  1  0  0  0  0
 13 28  2  0  0  0  0
 14 24  1  0  0  0  0
 14 25  2  0  0  0  0
 15 24  2  0  0  0  0
 15 26  1  0  0  0  0
 16 30  2  0  0  0  0
 16 31  1  0  0  0  0
 17 32  1  0  0  0  0
 18 32  1  0  0  0  0
 18 33  2  0  0  0  0
 18 34  1  0  0  0  0
 19 21  2  0  0  0  0
 19 39  1  0  0  0  0
 20 22  2  0  0  0  0
 20 40  1  0  0  0  0
 21 50  1  0  0  0  0
 22 41  1  0  0  0  0
 23 25  1  0  0  0  0
 23 26  2  0  0  0  0
 23 49  1  0  0  0  0
 24 61  1  0  0  0  0
 25 54  1  0  0  0  0
 26 55  1  0  0  0  0
 27 81  1  0  0  0  0
 28 82  1  0  0  0  0
 29 31  2  0  0  0  0
 29 81  1  0  0  0  0
 30 83  1  0  0  0  0
 31 84  1  0  0  0  0
 32 66  2  0  0  0  0
 33 67  1  0  0  0  0
 33 70  1  0  0  0  0
 34 71  1  0  0  0  0
 34 76  2  0  0  0  0
 35 51  1  0  0  0  0
 35 72  1  0  0  0  0
 35 77  2  0  0  0  0
 36 63  1  0  0  0  0
 36 68  1  0  0  0  0
 36 78  2  0  0  0  0
 37 64  1  0  0  0  0
 37 73  1  0  0  0  0
 37 79  2  0  0  0  0
 38 69  1  0  0  0  0
 38 74  1  0  0  0  0
 38 80  2  0  0  0  0
 39 42  1  0  0  0  0
 40 51  1  0  0  0  0
 41 68  1  0  0  0  0
 42 44  1  0  0  0  0
 43 45  1  0  0  0  0
 43 47  1  0  0  0  0
 44 50  1  0  0  0  0
 45 52  1  0  0  0  0
 46 49  1  0  0  0  0
 46 53  1  0  0  0  0
 47 69  1  0  0  0  0
 48 52  1  0  0  0  0
 48 69  1  0  0  0  0
 49 53  1  0  0  0  0
 50 72  1  0  0  0  0
 51 68  1  0  0  0  0
 52 67  1  0  0  0  0
 53 74  1  0  0  0  0
 56 64  1  0  0  0  0
 57 65  1  0  0  0  0
 58 65  1  0  0  0  0
 59 65  1  0  0  0  0
 60 75  1  0  0  0  0
 61 62  1  0  0  0  0
 62 82  1  0  0  0  0
 63 65  1  0  0  0  0
 63 73  1  0  0  0  0
 64 75  1  0  0  0  0
 66 67  1  0  0  0  0
M  CHG  1  75   1
M  ISO  4  38 100  62 101  74 100  82 101
M  END
> <Batch ID>
0152

> <Smiles>
CNC(C)C(=O)NC(C(=O)N1Cc2cc([101O:1][101CH2:1]Cc3cc(C)c(C4CC4[100NH:0][100C:0](=O)N4CCCC(n5nc(-c6ccc(Oc7ccc(F)cc7F)cc6)c(C(N)=O)c5N)C4)c(C)c3)ccc2CC1C(=O)NC1CCCc2ccccc21)C(C)(C)C

> <Shape>
0.272

> <Color>
0.083

> <Negative vol penalty>
0.000

$$$$

  -OEChem-04052321463D

 88 97  0     1  0  0  0  0  0999 V2000
  -28.4822  -11.4502   21.7402 C   0  0  0  0  0  0  0  0  0  0  0  0
  -28.9760  -12.6946   21.3617 C   0  0  0  0  0  0  0  0  0  0  0  0
  -20.1872  -26.8867   23.2502 C   0  0  0  0  0  0  0  0  0  0  0  0
  -20.2924  -28.8138   21.7969 C   0  0  0  0  0  0  0  0  0  0  0  0
  -27.1433  -11.1344   21.5130 C   0  0  0  0  0  0  0  0  0  0  0  0
  -28.1314  -13.6234   20.7548 C   0  0  0  0  0  0  0  0  0  0  0  0
  -28.2953  -19.7126   21.3872 C   0  0  0  0  0  0  0  0  0  0  0  0
  -18.8076  -27.0533   23.3713 C   0  0  0  0  0  0  0  0  0  0  0  0
  -18.9128  -28.9804   21.9179 C   0  0  0  0  0  0  0  0  0  0  0  0
  -28.8407  -20.7234   20.5968 C   0  0  0  0  0  0  0  0  0  0  0  0
  -15.4712  -30.1290   22.1317 C   0  0  0  0  0  0  0  0  0  0  0  0
  -14.9910  -31.4195   22.3542 C   0  0  0  0  0  0  0  0  0  0  0  0
  -26.6875  -21.0706   19.5659 C   0  0  0  0  0  0  0  0  0  0  0  0
  -30.2084  -28.7166   17.5675 C   0  0  0  0  0  0  0  0  0  0  0  0
  -16.2641  -31.5399   24.4040 C   0  0  0  0  0  0  0  0  0  0  0  0
  -20.9296  -27.7670   22.4631 C   0  0  0  0  0  0  0  0  0  0  0  0
  -23.0378  -26.8312   21.3734 C   0  0  0  0  0  0  0  0  0  0  0  0
  -26.2796  -12.0634   20.9117 C   0  0  0  0  0  0  0  0  0  0  0  0
  -26.9423  -19.3653   21.2649 C   0  0  0  0  0  0  0  0  0  0  0  0
  -26.7801  -13.3191   20.5181 C   0  0  0  0  0  0  0  0  0  0  0  0
  -26.1269  -20.0568   20.3577 C   0  0  0  0  0  0  0  0  0  0  0  0
  -30.1934  -29.1777   19.9519 C   0  0  0  0  0  0  0  0  0  0  0  0
  -30.4115  -27.8134   20.1965 C   0  0  0  0  0  0  0  0  0  0  0  0
  -30.5271  -26.9122   19.1378 C   0  0  0  0  0  0  0  0  0  0  0  0
  -30.0802  -29.6204   18.6261 C   0  0  0  0  0  0  0  0  0  0  0  0
  -18.1704  -28.1001   22.7051 C   0  0  0  0  0  0  0  0  0  0  0  0
  -28.0374  -21.4006   19.6839 C   0  0  0  0  0  0  0  0  0  0  0  0
  -16.3478  -29.5438   23.0455 C   0  0  0  0  0  0  0  0  0  0  0  0
  -30.4279  -27.3642   17.8242 C   0  0  0  0  0  0  0  0  0  0  0  0
  -15.3875  -32.1250   23.4903 C   0  0  0  0  0  0  0  0  0  0  0  0
  -16.7443  -30.2493   24.1816 C   0  0  0  0  0  0  0  0  0  0  0  0
  -22.3548  -27.5958   22.3381 C   0  0  0  0  0  0  0  0  0  0  0  0
  -24.3659  -26.9938   21.6837 C   0  0  0  0  0  0  0  0  0  0  0  0
  -22.5182  -26.0445   20.2932 C   0  0  0  0  0  0  0  0  0  0  0  0
  -25.3689  -16.7329   20.4290 C   0  0  0  0  0  0  0  0  0  0  0  0
  -22.7754  -18.4745   21.3022 C   0  0  0  0  0  0  0  0  0  0  0  0
  -21.3809  -21.5517   21.7855 C   0  0  0  0  0  0  0  0  0  0  0  0
  -28.6608  -30.2468   23.1387 C   0  0  0  0  0  0  0  0  0  0  0  0
  -24.8515  -11.6590   20.6437 C   0  0  0  0  0  0  0  0  0  0  0  0
  -26.3630  -18.2908   22.1438 C   0  0  0  0  0  0  0  0  0  0  0  0
  -24.6635  -19.7358   20.2025 C   0  0  0  0  0  0  0  0  0  0  0  0
  -23.9322  -12.8381   20.3356 C   0  0  0  0  0  0  0  0  0  0  0  0
  -26.5698  -29.0352   25.7534 C   0  0  0  0  0  0  0  0  0  0  0  0
  -24.5860  -13.7749   19.3247 C   0  0  0  0  0  0  0  0  0  0  0  0
  -25.3412  -28.4957   25.0189 C   0  0  0  0  0  0  0  0  0  0  0  0
  -30.2588  -31.5743   20.6078 C   0  0  0  0  0  0  0  0  0  0  0  0
  -27.1238  -30.2893   25.0809 C   0  0  0  0  0  0  0  0  0  0  0  0
  -26.1848  -29.6045   22.9076 C   0  0  0  0  0  0  0  0  0  0  0  0
  -29.4505  -31.7874   19.3366 C   0  0  0  0  0  0  0  0  0  0  0  0
  -25.8891  -14.3626   19.8796 C   0  0  1  0  0  0  0  0  0  0  0  0
  -30.0786  -30.1410   21.1045 C   0  0  1  0  0  0  0  0  0  0  0  0
  -25.0928  -17.6701   21.5705 C   0  0  1  0  0  0  0  0  0  0  0  0
  -25.6238  -28.3079   23.5162 C   0  0  2  0  0  0  0  0  0  0  0  0
  -30.5381  -27.2978   21.5981 C   0  0  0  0  0  0  0  0  0  0  0  0
  -32.1201  -24.9990   18.8347 C   0  0  0  0  0  0  0  0  0  0  0  0
  -19.2325  -22.6560   22.4653 C   0  0  0  0  0  0  0  0  0  0  0  0
  -21.5920  -17.8559   18.5587 C   0  0  0  0  0  0  0  0  0  0  0  0
  -19.9510  -19.7107   18.9254 C   0  0  0  0  0  0  0  0  0  0  0  0
  -19.9599  -17.7362   20.4498 C   0  0  0  0  0  0  0  0  0  0  0  0
  -22.6520  -22.8486   24.1224 C   0  0  0  0  0  0  0  0  0  0  0  0
  -30.4287  -27.0516   15.4666 C   0  0  0  0  0  0  0  0  0  0  0  0
  -29.6400  -24.5339   18.8649 C   0  0  0  0  0  0  0  0  0  0  0  0
  -29.6556  -23.1290   19.4600 C   0  0  0  0  0  0  0  0  0  1  0  0
  -30.7659  -25.4363   19.4059 C   0  0  2  0  0  0  0  0  0  0  0  0
  -21.8374  -19.4232   20.5957 C   0  0  1  0  0  0  0  0  0  0  0  0
  -20.5757  -22.1228   22.9387 C   0  0  2  0  0  0  0  0  0  0  0  0
  -20.8631  -18.6865   19.6337 C   0  0  0  0  0  0  0  0  0  0  0  0
  -23.1807  -28.1992   23.1971 N   0  0  0  0  0  0  0  0  0  0  0  0
  -24.3964  -27.8137   22.7732 N   0  0  0  0  0  0  0  0  0  0  0  0
  -24.1454  -18.6731   21.0798 N   0  0  0  0  0  0  0  0  0  0  0  0
  -27.3716  -30.0438   23.6582 N   0  0  0  0  0  0  0  0  0  0  0  0
  -25.4988  -26.5140   21.1283 N   0  0  0  0  0  0  0  0  0  0  0  0
  -21.1291  -25.9864   20.1169 N   0  0  0  0  0  0  0  0  0  0  0  0
  -25.6043  -15.4277   20.8170 N   0  0  0  0  0  0  0  0  0  0  0  0
  -21.1748  -20.1960   21.6407 N   0  0  0  0  0  0  0  0  0  0  0  0
  -28.8110  -29.9849   21.7824 N   0  0  0  0  0  0  0  0  0  0  0  0
  -21.3211  -23.2375   23.5890 N   0  3  0  0  0  0  0  0  0  0  0  0
  -23.2631  -25.3985   19.5177 O   0  0  0  0  0  0  0  0  0  0  0  0
  -25.3669  -17.1617   19.2810 O   0  0  0  0  0  0  0  0  0  0  0  0
  -22.3099  -17.5944   22.0305 O   0  0  0  0  0  0  0  0  0  0  0  0
  -22.1160  -22.2400   21.0810 O   0  0  0  0  0  0  0  0  0  0  0  0
  -29.6091  -30.6276   23.8334 O   0  0  0  0  0  0  0  0  0  0  0  0
  -29.8811  -30.9309   18.2747 O   0  0  0  0  0  0  0  0  0  0  0  0
  -16.8242  -28.2628   22.8228 O   0  0  0  0  0  0  0  0  0  0  0  0
  -30.5435  -26.5003   16.7768 O   0  0  0  0  0  0  0  0  0  0  0  0
  -28.5673  -22.3872   18.9108 O   0  0  0  0  0  0  0  0  0  1  0  0
  -14.9275  -33.3649   23.7030 F   0  0  0  0  0  0  0  0  0  0  0  0
  -17.5871  -29.6928   25.0623 F   0  0  0  0  0  0  0  0  0  0  0  0
  1  2  1  0  0  0  0
  1  5  2  0  0  0  0
  2  6  2  0  0  0  0
  3  8  2  0  0  0  0
  3 16  1  0  0  0  0
  4  9  1  0  0  0  0
  4 16  2  0  0  0  0
  5 18  1  0  0  0  0
  6 20  1  0  0  0  0
  7 10  2  0  0  0  0
  7 19  1  0  0  0  0
  8 26  1  0  0  0  0
  9 26  2  0  0  0  0
 10 27  1  0  0  0  0
 11 12  2  0  0  0  0
 11 28  1  0  0  0  0
 12 30  1  0  0  0  0
 13 21  1  0  0  0  0
 13 27  2  0  0  0  0
 14 25  1  0  0  0  0
 14 29  2  0  0  0  0
 15 30  2  0  0  0  0
 15 31  1  0  0  0  0
 16 32  1  0  0  0  0
 17 32  1  0  0  0  0
 17 33  2  0  0  0  0
 17 34  1  0  0  0  0
 18 20  2  0  0  0  0
 18 39  1  0  0  0  0
 19 21  2  0  0  0  0
 19 40  1  0  0  0  0
 20 50  1  0  0  0  0
 21 41  1  0  0  0  0
 22 23  1  0  0  0  0
 22 25  2  0  0  0  0
 22 51  1  0  0  0  0
 23 24  2  0  0  0  0
 23 54  1  0  0  0  0
 24 29  1  0  0  0  0
 24 64  1  0  0  0  0
 25 83  1  0  0  0  0
 26 84  1  0  0  0  0
 27 86  1  0  0  0  0
 28 31  2  0  0  0  0
 28 84  1  0  0  0  0
 29 85  1  0  0  0  0
 30 87  1  0  0  0  0
 31 88  1  0  0  0  0
 32 68  2  0  0  0  0
 33 69  1  0  0  0  0
 33 72  1  0  0  0  0
 34 73  1  0  0  0  0
 34 78  2  0  0  0  0
 35 52  1  0  0  0  0
 35 74  1  0  0  0  0
 35 79  2  0  0  0  0
 36 65  1  0  0  0  0
 36 70  1  0  0  0  0
 36 80  2  0  0  0  0
 37 66  1  0  0  0  0
 37 75  1  0  0  0  0
 37 81  2  0  0  0  0
 38 71  1  0  0  0  0
 38 76  1  0  0  0  0
 38 82  2  0  0  0  0
 39 42  1  0  0  0  0
 40 52  1  0  0  0  0
 41 70  1  0  0  0  0
 42 44  1  0  0  0  0
 43 45  1  0  0  0  0
 43 47  1  0  0  0  0
 44 50  1  0  0  0  0
 45 53  1  0  0  0  0
 46 49  1  0  0  0  0
 46 51  1  0  0  0  0
 47 71  1  0  0  0  0
 48 53  1  0  0  0  0
 48 71  1  0  0  0  0
 49 83  1  0  0  0  0
 50 74  1  0  0  0  0
 51 76  1  0  0  0  0
 52 70  1  0  0  0  0
 53 69  1  0  0  0  0
 55 64  1  0  0  0  0
 56 66  1  0  0  0  0
 57 67  1  0  0  0  0
 58 67  1  0  0  0  0
 59 67  1  0  0  0  0
 60 77  1  0  0  0  0
 61 85  1  0  0  0  0
 62 63  1  0  0  0  0
 62 64  1  0  0  0  0
 63 86  1  0  0  0  0
 65 67  1  0  0  0  0
 65 75  1  0  0  0  0
 66 77  1  0  0  0  0
 68 69  1  0  0  0  0
M  CHG  1  77   1
M  ISO  4  38 100  63 101  76 100  86 101
M  END
> <Batch ID>
0152

> <Smiles>
CNC(C)C(=O)NC(C(=O)N1Cc2cc([101O:1][101CH2:1]CC(C)c3c(OC)cc4c(c3C)C([100NH:0][100C:0](=O)N3CCCC(n5nc(-c6ccc(Oc7ccc(F)cc7F)cc6)c(C(N)=O)c5N)C3)CCO4)ccc2CC1C(=O)NC1CCCc2ccccc21)C(C)(C)C

> <Shape>
0.219

> <Color>
0.067

> <Negative vol penalty>
0.000

$$$$

  -OEChem-04052321463D

 84 92  0     1  0  0  0  0  0999 V2000
  -17.2654  -25.4845   22.4464 C   0  0  0  0  0  0  0  0  0  0  0  0
  -18.5661  -25.1164   22.1176 C   0  0  0  0  0  0  0  0  0  0  0  0
  -24.1812  -13.6239   24.0580 C   0  0  0  0  0  0  0  0  0  0  0  0
  -23.6761  -15.4912   22.6105 C   0  0  0  0  0  0  0  0  0  0  0  0
  -17.0108  -26.7547   22.9618 C   0  0  0  0  0  0  0  0  0  0  0  0
  -19.6128  -26.0188   22.3029 C   0  0  0  0  0  0  0  0  0  0  0  0
  -23.6673  -23.8765   24.4515 C   0  0  0  0  0  0  0  0  0  0  0  0
  -23.6100  -14.3034   25.1339 C   0  0  0  0  0  0  0  0  0  0  0  0
  -23.1048  -16.1707   23.6864 C   0  0  0  0  0  0  0  0  0  0  0  0
  -24.4885  -23.1034   23.6319 C   0  0  0  0  0  0  0  0  0  0  0  0
  -21.8364  -18.5453   26.1282 C   0  0  0  0  0  0  0  0  0  0  0  0
  -22.1623  -19.8917   26.2914 C   0  0  0  0  0  0  0  0  0  0  0  0
  -26.0268  -24.9516   23.4401 C   0  0  0  0  0  0  0  0  0  0  0  0
  -28.3669  -22.6931   19.5711 C   0  0  0  0  0  0  0  0  0  0  0  0
  -29.0918  -21.4682   21.5232 C   0  0  0  0  0  0  0  0  0  0  0  0
  -24.4935  -19.2998   26.5197 C   0  0  0  0  0  0  0  0  0  0  0  0
  -24.2143  -14.2178   22.7963 C   0  0  0  0  0  0  0  0  0  0  0  0
  -24.1568  -12.6464   20.7876 C   0  0  0  0  0  0  0  0  0  0  0  0
  -18.0563  -27.6697   23.1625 C   0  0  0  0  0  0  0  0  0  0  0  0
  -24.0149  -25.1988   24.7633 C   0  0  0  0  0  0  0  0  0  0  0  0
  -19.3718  -27.3029   22.8201 C   0  0  0  0  0  0  0  0  0  0  0  0
  -25.2097  -25.7385   24.2660 C   0  0  0  0  0  0  0  0  0  0  0  0
  -28.3909  -22.5327   20.9564 C   0  0  0  0  0  0  0  0  0  0  0  0
  -29.0438  -21.7890   18.7524 C   0  0  0  0  0  0  0  0  0  0  0  0
  -29.7687  -20.5640   20.7046 C   0  0  0  0  0  0  0  0  0  0  0  0
  -23.0718  -15.5767   24.9481 C   0  0  0  0  0  0  0  0  0  0  0  0
  -25.6670  -23.6419   23.1237 C   0  0  0  0  0  0  0  0  0  0  0  0
  -22.8391  -17.5761   26.1608 C   0  0  0  0  0  0  0  0  0  0  0  0
  -29.7446  -20.7245   19.3192 C   0  0  0  0  0  0  0  0  0  0  0  0
  -23.4908  -20.2690   26.4871 C   0  0  0  0  0  0  0  0  0  0  0  0
  -24.1676  -17.9534   26.3565 C   0  0  0  0  0  0  0  0  0  0  0  0
  -24.8047  -13.5167   21.6846 C   0  0  0  0  0  0  0  0  0  0  0  0
  -25.1461  -12.2452   19.9234 C   0  0  0  0  0  0  0  0  0  0  0  0
  -22.7835  -12.2372   20.7397 C   0  0  0  0  0  0  0  0  0  0  0  0
  -22.6985  -28.0455   24.2465 C   0  0  0  0  0  0  0  0  0  0  0  0
  -25.1303  -29.0781   26.1285 C   0  0  0  0  0  0  0  0  0  0  0  0
  -28.2604  -28.5353   27.3755 C   0  0  0  0  0  0  0  0  0  0  0  0
  -30.3254  -14.7217   18.2225 C   0  0  0  0  0  0  0  0  0  0  0  0
  -17.7257  -29.0480   23.6780 C   0  0  0  0  0  0  0  0  0  0  0  0
  -23.1317  -26.0107   25.6706 C   0  0  0  0  0  0  0  0  0  0  0  0
  -25.6382  -27.1462   24.5874 C   0  0  0  0  0  0  0  0  0  0  0  0
  -18.9415  -29.8128   24.1950 C   0  0  0  0  0  0  0  0  0  0  0  0
  -29.8711  -11.5221   19.7169 C   0  0  0  0  0  0  0  0  0  0  0  0
  -20.0997  -29.7040   23.2084 C   0  0  0  0  0  0  0  0  0  0  0  0
  -28.4627  -11.5920   20.3097 C   0  0  0  0  0  0  0  0  0  0  0  0
  -30.5992  -12.8595   19.8330 C   0  0  0  0  0  0  0  0  0  0  0  0
  -28.4601  -14.0827   19.8683 C   0  0  0  0  0  0  0  0  0  0  0  0
  -20.5373  -28.2452   23.0300 C   0  0  1  0  0  0  0  0  0  0  0  0
  -23.3260  -27.5147   25.5043 C   0  0  1  0  0  0  0  0  0  0  0  0
  -27.6658  -12.7733   19.7242 C   0  0  2  0  0  0  0  0  0  0  0  0
  -29.0065  -21.9776   17.2715 C   0  0  0  0  0  0  0  0  0  0  0  0
  -30.5137  -19.4310   21.3299 C   0  0  0  0  0  0  0  0  0  0  0  0
  -29.9975  -29.5744   28.8588 C   0  0  0  0  0  0  0  0  0  0  0  0
  -25.8515  -31.0398   23.9055 C   0  0  0  0  0  0  0  0  0  0  0  0
  -28.0808  -31.3536   25.0010 C   0  0  0  0  0  0  0  0  0  0  0  0
  -25.9958  -31.9835   26.2170 C   0  0  0  0  0  0  0  0  0  0  0  0
  -28.1838  -26.2538   29.2591 C   0  0  0  0  0  0  0  0  0  0  0  0
  -27.6625  -23.5048   21.8372 C   0  0  0  0  0  0  0  0  0  1  0  0
  -30.5803  -17.8605   17.1769 C   0  0  0  0  0  0  0  0  0  0  0  0
  -29.8966  -16.6017   16.6603 C   0  0  0  0  0  0  0  0  0  0  0  0
  -29.6779  -18.7001   18.0729 C   0  0  0  0  0  0  0  0  0  0  0  0
  -26.5477  -29.5384   25.8872 C   0  0  1  0  0  0  0  0  0  0  0  0
  -28.8118  -28.6248   28.7870 C   0  0  2  0  0  0  0  0  0  0  0  0
  -26.6102  -30.9529   25.2449 C   0  0  0  0  0  0  0  0  0  0  0  0
  -26.1050  -13.6603   21.4152 N   0  0  0  0  0  0  0  0  0  0  0  0
  -26.2823  -12.8748   20.3393 N   0  0  0  0  0  0  0  0  0  0  0  0
  -24.7378  -27.9022   25.4736 N   0  0  0  0  0  0  0  0  0  0  0  0
  -29.7909  -13.9373   19.2579 N   0  0  0  0  0  0  0  0  0  0  0  0
  -25.1464  -11.4188   18.8560 N   0  0  0  0  0  0  0  0  0  0  0  0
  -21.9013  -12.7445   21.7034 N   0  0  0  0  0  0  0  0  0  0  0  0
  -21.3388  -27.8166   24.1562 N   0  0  0  0  0  0  0  0  0  0  0  0
  -27.2348  -29.4338   27.1699 N   0  0  0  0  0  0  0  0  0  0  0  0
  -29.4909  -15.7175   17.7299 N   0  0  0  0  0  0  0  0  0  0  0  0
  -29.2564  -27.2817   29.2556 N   0  3  0  0  0  0  0  0  0  0  0  0
  -22.3550  -11.4324   19.8783 O   0  0  0  0  0  0  0  0  0  0  0  0
  -23.3961  -28.6214   23.4198 O   0  0  0  0  0  0  0  0  0  0  0  0
  -24.4007  -29.7338   26.8764 O   0  0  0  0  0  0  0  0  0  0  0  0
  -28.6983  -27.7497   26.5379 O   0  0  0  0  0  0  0  0  0  0  0  0
  -31.4603  -14.5440   17.7670 O   0  0  0  0  0  0  0  0  0  0  0  0
  -22.5141  -16.2399   25.9978 O   0  0  0  0  0  0  0  0  0  0  0  0
  -26.4700  -22.8897   22.3229 O   0  0  0  0  0  0  0  0  0  1  0  0
  -30.4071  -19.8410   18.5186 O   0  0  0  0  0  0  0  0  0  0  0  0
  -23.8037  -21.5621   26.6423 F   0  0  0  0  0  0  0  0  0  0  0  0
  -25.1354  -17.0270   26.3875 F   0  0  0  0  0  0  0  0  0  0  0  0
  1  2  1  0  0  0  0
  1  5  2  0  0  0  0
  2  6  2  0  0  0  0
  3  8  2  0  0  0  0
  3 17  1  0  0  0  0
  4  9  1  0  0  0  0
  4 17  2  0  0  0  0
  5 19  1  0  0  0  0
  6 21  1  0  0  0  0
  7 10  2  0  0  0  0
  7 20  1  0  0  0  0
  8 26  1  0  0  0  0
  9 26  2  0  0  0  0
 10 27  1  0  0  0  0
 11 12  2  0  0  0  0
 11 28  1  0  0  0  0
 12 30  1  0  0  0  0
 13 22  1  0  0  0  0
 13 27  2  0  0  0  0
 14 23  1  0  0  0  0
 14 24  2  0  0  0  0
 15 23  2  0  0  0  0
 15 25  1  0  0  0  0
 16 30  2  0  0  0  0
 16 31  1  0  0  0  0
 17 32  1  0  0  0  0
 18 32  1  0  0  0  0
 18 33  2  0  0  0  0
 18 34  1  0  0  0  0
 19 21  2  0  0  0  0
 19 39  1  0  0  0  0
 20 22  2  0  0  0  0
 20 40  1  0  0  0  0
 21 48  1  0  0  0  0
 22 41  1  0  0  0  0
 23 58  1  0  0  0  0
 24 29  1  0  0  0  0
 24 51  1  0  0  0  0
 25 29  2  0  0  0  0
 25 52  1  0  0  0  0
 26 80  1  0  0  0  0
 27 81  1  0  0  0  0
 28 31  2  0  0  0  0
 28 80  1  0  0  0  0
 29 82  1  0  0  0  0
 30 83  1  0  0  0  0
 31 84  1  0  0  0  0
 32 65  2  0  0  0  0
 33 66  1  0  0  0  0
 33 69  1  0  0  0  0
 34 70  1  0  0  0  0
 34 75  2  0  0  0  0
 35 49  1  0  0  0  0
 35 71  1  0  0  0  0
 35 76  2  0  0  0  0
 36 62  1  0  0  0  0
 36 67  1  0  0  0  0
 36 77  2  0  0  0  0
 37 63  1  0  0  0  0
 37 72  1  0  0  0  0
 37 78  2  0  0  0  0
 38 68  1  0  0  0  0
 38 73  1  0  0  0  0
 38 79  2  0  0  0  0
 39 42  1  0  0  0  0
 40 49  1  0  0  0  0
 41 67  1  0  0  0  0
 42 44  1  0  0  0  0
 43 45  1  0  0  0  0
 43 46  1  0  0  0  0
 44 48  1  0  0  0  0
 45 50  1  0  0  0  0
 46 68  1  0  0  0  0
 47 50  1  0  0  0  0
 47 68  1  0  0  0  0
 48 71  1  0  0  0  0
 49 67  1  0  0  0  0
 50 66  1  0  0  0  0
 53 63  1  0  0  0  0
 54 64  1  0  0  0  0
 55 64  1  0  0  0  0
 56 64  1  0  0  0  0
 57 74  1  0  0  0  0
 58 81  1  0  0  0  0
 59 60  1  0  0  0  0
 59 61  1  0  0  0  0
 60 73  1  0  0  0  0
 61 82  1  0  0  0  0
 62 64  1  0  0  0  0
 62 72  1  0  0  0  0
 63 74  1  0  0  0  0
 65 66  1  0  0  0  0
M  CHG  1  74   1
M  ISO  4  38 100  58 101  73 100  81 101
M  END
> <Batch ID>
0152

> <Smiles>
CNC(C)C(=O)NC(C(=O)N1Cc2cc([101O:1][101CH2:1]c3cc(C)c(OCCC[100NH:0][100C:0](=O)N4CCCC(n5nc(-c6ccc(Oc7ccc(F)cc7F)cc6)c(C(N)=O)c5N)C4)c(C)c3)ccc2CC1C(=O)NC1CCCc2ccccc21)C(C)(C)C

> <Shape>
0.216

> <Color>
0.100

> <Negative vol penalty>
0.000

$$$$

  -OEChem-04052321463D

 87 96  0     1  0  0  0  0  0999 V2000
  -17.5350  -21.6254   17.6975 C   0  0  0  0  0  0  0  0  0  0  0  0
  -18.0935  -20.3712   17.9223 C   0  0  0  0  0  0  0  0  0  0  0  0
  -25.5072  -27.3475   20.7498 C   0  0  0  0  0  0  0  0  0  0  0  0
  -26.5181  -27.0950   22.9295 C   0  0  0  0  0  0  0  0  0  0  0  0
  -18.2238  -22.7737   18.0859 C   0  0  0  0  0  0  0  0  0  0  0  0
  -19.3417  -20.2647   18.5346 C   0  0  0  0  0  0  0  0  0  0  0  0
  -21.1988  -15.8633   22.3667 C   0  0  0  0  0  0  0  0  0  0  0  0
  -24.4072  -27.9765   21.3328 C   0  0  0  0  0  0  0  0  0  0  0  0
  -25.4181  -27.7241   23.5125 C   0  0  0  0  0  0  0  0  0  0  0  0
  -21.9624  -14.7129   22.1743 C   0  0  0  0  0  0  0  0  0  0  0  0
  -21.1688  -29.3275   22.2872 C   0  0  0  0  0  0  0  0  0  0  0  0
  -19.8979  -28.9392   21.8635 C   0  0  0  0  0  0  0  0  0  0  0  0
  -23.9332  -15.9097   22.8833 C   0  0  0  0  0  0  0  0  0  0  0  0
  -20.3461  -26.6792   22.5906 C   0  0  0  0  0  0  0  0  0  0  0  0
  -26.5626  -26.9066   21.5482 C   0  0  0  0  0  0  0  0  0  0  0  0
  -28.8752  -26.8668   20.4721 C   0  0  0  0  0  0  0  0  0  0  0  0
  -19.4768  -22.6808   18.7120 C   0  0  0  0  0  0  0  0  0  0  0  0
  -21.7996  -17.0506   22.8092 C   0  0  0  0  0  0  0  0  0  0  0  0
  -20.0486  -21.4129   18.9305 C   0  0  0  0  0  0  0  0  0  0  0  0
  -23.1746  -17.0732   23.0830 C   0  0  0  0  0  0  0  0  0  0  0  0
  -24.3627  -28.1649   22.7141 C   0  0  0  0  0  0  0  0  0  0  0  0
  -23.3304  -14.7367   22.4298 C   0  0  0  0  0  0  0  0  0  0  0  0
  -22.0284  -28.3917   22.8625 C   0  0  0  0  0  0  0  0  0  0  0  0
  -19.4865  -27.6150   22.0153 C   0  0  0  0  0  0  0  0  0  0  0  0
  -21.6170  -27.0675   23.0142 C   0  0  0  0  0  0  0  0  0  0  0  0
  -27.6989  -26.2561   20.9466 C   0  0  0  0  0  0  0  0  0  0  0  0
  -29.6361  -25.8255   19.9995 C   0  0  0  0  0  0  0  0  0  0  0  0
  -29.2469  -28.2515   20.4596 C   0  0  0  0  0  0  0  0  0  0  0  0
  -22.1524  -19.9706   21.6039 C   0  0  0  0  0  0  0  0  0  0  0  0
  -23.3968  -20.6061   24.5313 C   0  0  0  0  0  0  0  0  0  0  0  0
  -24.9096  -19.4276   27.3543 C   0  0  0  0  0  0  0  0  0  0  0  0
  -29.7786  -20.0969   21.4199 C   0  0  0  0  0  0  0  0  0  0  0  0
  -20.2048  -23.9519   19.0713 C   0  0  0  0  0  0  0  0  0  0  0  0
  -20.9573  -18.2757   23.0374 C   0  0  0  0  0  0  0  0  0  0  0  0
  -23.8641  -18.3169   23.5791 C   0  0  0  0  0  0  0  0  0  0  0  0
  -21.3542  -23.7388   20.0530 C   0  0  0  0  0  0  0  0  0  0  0  0
  -29.2301  -21.4479   18.1077 C   0  0  0  0  0  0  0  0  0  0  0  0
  -22.2095  -22.5510   19.6238 C   0  0  0  0  0  0  0  0  0  0  0  0
  -25.8380  -11.3485   20.7189 C   0  0  0  0  0  0  0  0  0  0  0  0
  -28.8851  -22.9038   18.4263 C   0  0  0  0  0  0  0  0  0  0  0  0
  -24.3516  -11.5609   21.0272 C   0  0  0  0  0  0  0  0  0  0  0  0
  -25.3020  -13.6142   20.1610 C   0  0  0  0  0  0  0  0  0  0  0  0
  -28.6460  -20.5003   19.1512 C   0  0  0  0  0  0  0  0  0  0  0  0
  -28.7014  -22.2613   20.8744 C   0  0  0  0  0  0  0  0  0  0  0  0
  -29.0178  -14.5221   18.5227 C   0  0  0  0  0  0  0  0  0  0  0  0
  -28.8552  -14.6663   20.9992 C   0  0  0  0  0  0  0  0  0  0  0  0
  -29.3881  -15.9950   18.5240 C   0  0  0  0  0  0  0  0  0  0  0  0
  -21.3893  -21.2553   19.6144 C   0  0  1  0  0  0  0  0  0  0  0  0
  -21.7631  -19.5705   22.9989 C   0  0  1  0  0  0  0  0  0  0  0  0
  -26.4545  -12.7460   20.6635 C   0  0  2  0  0  0  0  0  0  0  0  0
  -29.2826  -23.2712   19.8683 C   0  0  2  0  0  0  0  0  0  0  0  0
  -24.1049  -13.0663   20.9282 C   0  0  2  0  0  0  0  0  0  1  0  0
  -29.2305  -16.1405   20.8777 C   0  0  1  0  0  0  0  0  0  0  0  0
  -25.8395  -20.1917   29.5563 C   0  0  0  0  0  0  0  0  0  0  0  0
  -28.8294  -11.9659   20.3092 C   0  0  0  0  0  0  0  0  0  0  0  0
  -29.0504  -16.8422   23.2758 C   0  0  0  0  0  0  0  0  0  0  0  0
  -25.8631  -21.7009   23.1071 C   0  0  0  0  0  0  0  0  0  0  0  0
  -27.0967  -21.5563   25.2809 C   0  0  0  0  0  0  0  0  0  0  0  0
  -25.1094  -23.0497   25.0736 C   0  0  0  0  0  0  0  0  0  0  0  0
  -22.9910  -17.7635   28.8737 C   0  0  0  0  0  0  0  0  0  0  0  0
  -30.8142  -17.8783   21.8231 C   0  0  0  0  0  0  0  0  0  0  0  0
  -24.7755  -20.5445   25.1432 C   0  0  1  0  0  0  0  0  0  0  0  0
  -24.6167  -19.6592   28.8257 C   0  0  2  0  0  0  0  0  0  0  0  0
  -27.6887  -12.8217   19.7810 C   0  0  2  0  0  0  0  0  0  0  0  0
  -30.0065  -16.6026   22.1032 C   0  0  2  0  0  0  0  0  0  0  0  0
  -25.6988  -21.6898   24.6400 C   0  0  0  0  0  0  0  0  0  0  0  0
  -27.7071  -24.9298   20.7897 N   0  0  0  0  0  0  0  0  0  0  0  0
  -28.8979  -24.6984   20.2112 N   0  0  0  0  0  0  0  0  0  0  0  0
  -22.9987  -19.4908   23.7807 N   0  0  0  0  0  0  0  0  0  0  0  0
  -29.0775  -20.8940   20.4999 N   0  0  0  0  0  0  0  0  0  0  0  0
  -30.8578  -25.7733   19.4276 N   0  0  0  0  0  0  0  0  0  0  0  0
  -28.3475  -29.1895   20.9845 N   0  0  0  0  0  0  0  0  0  0  0  0
  -21.2152  -20.7576   20.9621 N   0  0  0  0  0  0  0  0  0  0  0  0
  -24.5800  -20.5261   26.5889 N   0  0  0  0  0  0  0  0  0  0  0  0
  -30.0905  -18.8128   20.9902 N   0  0  0  0  0  0  0  0  0  0  0  0
  -28.1468  -14.2373   19.7290 N   0  3  2  0  0  0  0  0  0  0  0  0
  -24.1974  -18.3861   29.4770 N   0  3  0  0  0  0  0  0  0  0  0  0
  -30.3372  -28.6471   19.9817 O   0  0  0  0  0  0  0  0  0  0  0  0
  -23.2243  -19.5945   21.1443 O   0  0  0  0  0  0  0  0  0  0  0  0
  -22.6960  -21.6038   24.7186 O   0  0  0  0  0  0  0  0  0  0  0  0
  -25.3869  -18.3787   26.9272 O   0  0  0  0  0  0  0  0  0  0  0  0
  -30.1075  -20.5015   22.5403 O   0  0  0  0  0  0  0  0  0  0  0  0
  -30.0666  -16.3403   19.7322 O   0  0  0  0  0  0  0  0  0  0  0  0
  -23.2896  -28.7790   23.2833 O   0  0  0  0  0  0  0  0  0  0  0  0
  -24.0782  -13.6153   22.2422 O   0  0  0  0  0  0  0  0  0  1  0  0
  -18.2654  -27.2426   21.6098 F   0  0  0  0  0  0  0  0  0  0  0  0
  -22.4380  -26.1642   23.5673 F   0  0  0  0  0  0  0  0  0  0  0  0
  1  2  1  0  0  0  0
  1  5  2  0  0  0  0
  2  6  2  0  0  0  0
  3  8  2  0  0  0  0
  3 15  1  0  0  0  0
  4  9  1  0  0  0  0
  4 15  2  0  0  0  0
  5 17  1  0  0  0  0
  6 19  1  0  0  0  0
  7 10  2  0  0  0  0
  7 18  1  0  0  0  0
  8 21  1  0  0  0  0
  9 21  2  0  0  0  0
 10 22  1  0  0  0  0
 11 12  2  0  0  0  0
 11 23  1  0  0  0  0
 12 24  1  0  0  0  0
 13 20  1  0  0  0  0
 13 22  2  0  0  0  0
 14 24  2  0  0  0  0
 14 25  1  0  0  0  0
 15 26  1  0  0  0  0
 16 26  1  0  0  0  0
 16 27  2  0  0  0  0
 16 28  1  0  0  0  0
 17 19  2  0  0  0  0
 17 33  1  0  0  0  0
 18 20  2  0  0  0  0
 18 34  1  0  0  0  0
 19 48  1  0  0  0  0
 20 35  1  0  0  0  0
 21 84  1  0  0  0  0
 22 85  1  0  0  0  0
 23 25  2  0  0  0  0
 23 84  1  0  0  0  0
 24 86  1  0  0  0  0
 25 87  1  0  0  0  0
 26 67  2  0  0  0  0
 27 68  1  0  0  0  0
 27 71  1  0  0  0  0
 28 72  1  0  0  0  0
 28 78  2  0  0  0  0
 29 49  1  0  0  0  0
 29 73  1  0  0  0  0
 29 79  2  0  0  0  0
 30 62  1  0  0  0  0
 30 69  1  0  0  0  0
 30 80  2  0  0  0  0
 31 63  1  0  0  0  0
 31 74  1  0  0  0  0
 31 81  2  0  0  0  0
 32 70  1  0  0  0  0
 32 75  1  0  0  0  0
 32 82  2  0  0  0  0
 33 36  1  0  0  0  0
 34 49  1  0  0  0  0
 35 69  1  0  0  0  0
 36 38  1  0  0  0  0
 37 40  1  0  0  0  0
 37 43  1  0  0  0  0
 38 48  1  0  0  0  0
 39 41  1  0  0  0  0
 39 50  1  0  0  0  0
 40 51  1  0  0  0  0
 41 52  1  0  0  0  0
 42 50  1  0  0  0  0
 42 52  1  0  0  0  0
 43 70  1  0  0  0  0
 44 51  1  0  0  0  0
 44 70  1  0  0  0  0
 45 47  1  0  0  0  0
 45 76  1  0  0  0  0
 46 53  1  0  0  0  0
 46 76  1  0  0  0  0
 47 83  1  0  0  0  0
 48 73  1  0  0  0  0
 49 69  1  0  0  0  0
 50 64  1  0  0  0  0
 51 68  1  0  0  0  0
 52 85  1  0  0  0  0
 53 65  1  0  0  0  0
 53 83  1  0  0  0  0
 54 63  1  0  0  0  0
 55 64  1  0  0  0  0
 56 65  1  0  0  0  0
 57 66  1  0  0  0  0
 58 66  1  0  0  0  0
 59 66  1  0  0  0  0
 60 77  1  0  0  0  0
 61 65  1  0  0  0  0
 61 75  1  0  0  0  0
 62 66  1  0  0  0  0
 62 74  1  0  0  0  0
 63 77  1  0  0  0  0
 64 76  1  0  0  0  0
 67 68  1  0  0  0  0
M  CHG  2  76   1  77   1
M  ISO  4  32 100  52 101  75 100  85 101
M  END
> <Batch ID>
0152

> <Smiles>
CNC(C)C(=O)NC(C(=O)N1Cc2cc([101O:1][101CH:1]3CCC(C(C)N4CCOC(C(C)C[100NH:0][100C:0](=O)N5CCCC(n6nc(-c7ccc(Oc8ccc(F)cc8F)cc7)c(C(N)=O)c6N)C5)C4)C3)ccc2CC1C(=O)NC1CCCc2ccccc21)C(C)(C)C

> <Shape>
0.212

> <Color>
0.054

> <Negative vol penalty>
0.000

$$$$

  -OEChem-04052321463D

 88 97  0     1  0  0  0  0  0999 V2000
  -19.0707  -24.2654   22.8842 C   0  0  0  0  0  0  0  0  0  0  0  0
  -20.2843  -24.4582   22.2322 C   0  0  0  0  0  0  0  0  0  0  0  0
  -23.1937  -10.4491   19.9706 C   0  0  0  0  0  0  0  0  0  0  0  0
  -24.5310   -9.0486   21.4153 C   0  0  0  0  0  0  0  0  0  0  0  0
  -18.2707  -25.3615   23.2042 C   0  0  0  0  0  0  0  0  0  0  0  0
  -20.6983  -25.7474   21.8987 C   0  0  0  0  0  0  0  0  0  0  0  0
  -25.5723  -26.5687   23.0005 C   0  0  0  0  0  0  0  0  0  0  0  0
  -30.6536  -17.2773   19.8912 C   0  0  0  0  0  0  0  0  0  0  0  0
  -22.0861  -10.2388   20.7919 C   0  0  0  0  0  0  0  0  0  0  0  0
  -23.4234   -8.8383   22.2366 C   0  0  0  0  0  0  0  0  0  0  0  0
  -26.5205  -26.0451   22.1228 C   0  0  0  0  0  0  0  0  0  0  0  0
  -30.7548  -18.6375   19.5993 C   0  0  0  0  0  0  0  0  0  0  0  0
  -20.6347   -6.9268   22.2173 C   0  0  0  0  0  0  0  0  0  0  0  0
  -20.3832   -5.6232   22.6449 C   0  0  0  0  0  0  0  0  0  0  0  0
  -26.7677  -28.2174   21.1033 C   0  0  0  0  0  0  0  0  0  0  0  0
  -28.9553  -18.4282   18.0008 C   0  0  0  0  0  0  0  0  0  0  0  0
  -20.6054   -6.3341   24.9432 C   0  0  0  0  0  0  0  0  0  0  0  0
  -24.4162   -9.8540   20.2822 C   0  0  0  0  0  0  0  0  0  0  0  0
  -25.6811   -9.7450   18.0696 C   0  0  0  0  0  0  0  0  0  0  0  0
  -18.6795  -26.6655   22.8832 C   0  0  0  0  0  0  0  0  0  0  0  0
  -25.2061  -27.9205   22.9290 C   0  0  0  0  0  0  0  0  0  0  0  0
  -19.9024  -26.8619   22.2136 C   0  0  0  0  0  0  0  0  0  0  0  0
  -25.8165  -28.7563   21.9830 C   0  0  0  0  0  0  0  0  0  0  0  0
  -28.8542  -17.0680   18.2927 C   0  0  0  0  0  0  0  0  0  0  0  0
  -29.7034  -16.4925   19.2379 C   0  0  0  0  0  0  0  0  0  0  0  0
  -22.2009   -9.4334   21.9249 C   0  0  0  0  0  0  0  0  0  0  0  0
  -27.1163  -26.8687   21.1721 C   0  0  0  0  0  0  0  0  0  0  0  0
  -29.9056  -19.2130   18.6541 C   0  0  0  0  0  0  0  0  0  0  0  0
  -20.8716   -7.9342   23.1527 C   0  0  0  0  0  0  0  0  0  0  0  0
  -20.3685   -5.3268   24.0078 C   0  0  0  0  0  0  0  0  0  0  0  0
  -20.8569   -7.6378   24.5157 C   0  0  0  0  0  0  0  0  0  0  0  0
  -25.5605  -10.0705   19.4339 C   0  0  0  0  0  0  0  0  0  0  0  0
  -26.9493  -10.1493   17.7309 C   0  0  0  0  0  0  0  0  0  0  0  0
  -24.7315   -9.1321   17.1873 C   0  0  0  0  0  0  0  0  0  0  0  0
  -22.5034  -29.4837   22.3328 C   0  0  0  0  0  0  0  0  0  0  0  0
  -24.2899  -32.0782   23.1069 C   0  0  0  0  0  0  0  0  0  0  0  0
  -27.3853  -33.4919   23.3653 C   0  0  0  0  0  0  0  0  0  0  0  0
  -30.6516  -14.2742   19.9633 C   0  0  0  0  0  0  0  0  0  0  0  0
  -17.7589  -27.8154   23.2072 C   0  0  0  0  0  0  0  0  0  0  0  0
  -24.2013  -28.4761   23.9006 C   0  0  0  0  0  0  0  0  0  0  0  0
  -25.4731  -30.2190   21.8784 C   0  0  0  0  0  0  0  0  0  0  0  0
  -18.4445  -29.1783   23.1537 C   0  0  0  0  0  0  0  0  0  0  0  0
  -31.3041  -10.7911   19.6171 C   0  0  0  0  0  0  0  0  0  0  0  0
  -19.2860  -29.3032   21.8876 C   0  0  0  0  0  0  0  0  0  0  0  0
  -27.6486  -23.4433   17.9778 C   0  0  0  0  0  0  0  0  0  0  0  0
  -29.1264  -22.7736   19.9178 C   0  0  0  0  0  0  0  0  0  0  0  0
  -29.9168  -10.1822   19.4006 C   0  0  0  0  0  0  0  0  0  0  0  0
  -27.6898  -24.8929   18.4517 C   0  0  0  0  0  0  0  0  0  0  0  0
  -29.1630  -24.2250   20.3867 C   0  0  0  0  0  0  0  0  0  0  0  0
  -31.2648  -11.9538   20.6073 C   0  0  0  0  0  0  0  0  0  0  0  0
  -28.8996  -12.3945   20.0774 C   0  0  0  0  0  0  0  0  0  0  0  0
  -20.3974  -28.2470   21.8574 C   0  0  1  0  0  0  0  0  0  0  0  0
  -23.5271  -29.7498   23.4000 C   0  0  1  0  0  0  0  0  0  0  0  0
  -28.9076  -22.6742   18.4017 C   0  0  0  0  0  0  0  0  0  0  0  0
  -28.8779  -11.2615   19.0384 C   0  0  2  0  0  0  0  0  0  0  0  0
  -27.9108  -24.9877   19.9590 C   0  0  0  0  0  0  0  0  0  1  0  0
  -28.0650  -16.2126   16.0568 C   0  0  0  0  0  0  0  0  0  0  0  0
  -26.3925  -16.7260   17.8718 C   0  0  0  0  0  0  0  0  0  0  0  0
  -28.5244  -35.6389   23.9902 C   0  0  0  0  0  0  0  0  0  0  0  0
  -23.4443  -33.2997   20.4417 C   0  0  0  0  0  0  0  0  0  0  0  0
  -25.3102  -34.9510   20.6860 C   0  0  0  0  0  0  0  0  0  0  0  0
  -23.4644  -34.9002   22.3633 C   0  0  0  0  0  0  0  0  0  0  0  0
  -28.8750  -32.1951   25.5694 C   0  0  0  0  0  0  0  0  0  0  0  0
  -28.8200  -21.2133   17.9641 C   0  0  0  0  0  0  0  0  0  0  0  0
  -27.8271  -16.2519   17.5772 C   0  0  0  0  0  0  0  0  0  0  0  0
  -25.1718  -33.0357   22.3423 C   0  0  1  0  0  0  0  0  0  0  0  0
  -28.0410  -34.2836   24.4824 C   0  0  2  0  0  0  0  0  0  0  0  0
  -24.3529  -34.0187   21.4588 C   0  0  0  0  0  0  0  0  0  0  0  0
  -26.6642  -10.6376   19.9282 N   0  0  0  0  0  0  0  0  0  0  0  0
  -27.4903  -10.6717   18.8687 N   0  0  0  0  0  0  0  0  0  0  0  0
  -24.4803  -30.7137   22.8465 N   0  0  0  0  0  0  0  0  0  0  0  0
  -30.2613  -12.9386   20.1975 N   0  0  0  0  0  0  0  0  0  0  0  0
  -27.6432  -10.1053   16.5738 N   0  0  0  0  0  0  0  0  0  0  0  0
  -23.4751   -8.7797   17.6986 N   0  0  0  0  0  0  0  0  0  0  0  0
  -29.6178  -15.1123   19.5469 N   0  0  0  0  0  0  0  0  0  0  0  0
  -21.4869  -28.6348   22.7274 N   0  0  0  0  0  0  0  0  0  0  0  0
  -26.0209  -33.6883   23.3330 N   0  0  0  0  0  0  0  0  0  0  0  0
  -29.2098  -33.5377   25.0287 N   0  3  0  0  0  0  0  0  0  0  0  0
  -24.9955   -8.8888   15.9854 O   0  0  0  0  0  0  0  0  0  0  0  0
  -22.6258  -30.0108   21.2333 O   0  0  0  0  0  0  0  0  0  0  0  0
  -23.4675  -32.5242   23.9109 O   0  0  0  0  0  0  0  0  0  0  0  0
  -28.0204  -32.7743   22.5959 O   0  0  0  0  0  0  0  0  0  0  0  0
  -31.8222  -14.6407   20.0944 O   0  0  0  0  0  0  0  0  0  0  0  0
  -21.1204   -9.2281   22.7267 O   0  0  0  0  0  0  0  0  0  0  0  0
  -28.0416  -26.3600   20.3137 O   0  0  0  0  0  0  0  0  0  1  0  0
  -30.0048  -20.5523   18.3672 O   0  0  0  0  0  0  0  0  0  0  0  0
  -20.1254   -4.0752   24.4183 F   0  0  0  0  0  0  0  0  0  0  0  0
  -21.0827   -8.6015   25.4190 F   0  0  0  0  0  0  0  0  0  0  0  0
  1  2  1  0  0  0  0
  1  5  2  0  0  0  0
  2  6  2  0  0  0  0
  3  9  2  0  0  0  0
  3 18  1  0  0  0  0
  4 10  1  0  0  0  0
  4 18  2  0  0  0  0
  5 20  1  0  0  0  0
  6 22  1  0  0  0  0
  7 11  2  0  0  0  0
  7 21  1  0  0  0  0
  8 12  2  0  0  0  0
  8 25  1  0  0  0  0
  9 26  1  0  0  0  0
 10 26  2  0  0  0  0
 11 27  1  0  0  0  0
 12 28  1  0  0  0  0
 13 14  2  0  0  0  0
 13 29  1  0  0  0  0
 14 30  1  0  0  0  0
 15 23  1  0  0  0  0
 15 27  2  0  0  0  0
 16 24  1  0  0  0  0
 16 28  2  0  0  0  0
 17 30  2  0  0  0  0
 17 31  1  0  0  0  0
 18 32  1  0  0  0  0
 19 32  1  0  0  0  0
 19 33  2  0  0  0  0
 19 34  1  0  0  0  0
 20 22  2  0  0  0  0
 20 39  1  0  0  0  0
 21 23  2  0  0  0  0
 21 40  1  0  0  0  0
 22 52  1  0  0  0  0
 23 41  1  0  0  0  0
 24 25  2  0  0  0  0
 24 65  1  0  0  0  0
 25 75  1  0  0  0  0
 26 84  1  0  0  0  0
 27 85  1  0  0  0  0
 28 86  1  0  0  0  0
 29 31  2  0  0  0  0
 29 84  1  0  0  0  0
 30 87  1  0  0  0  0
 31 88  1  0  0  0  0
 32 69  2  0  0  0  0
 33 70  1  0  0  0  0
 33 73  1  0  0  0  0
 34 74  1  0  0  0  0
 34 79  2  0  0  0  0
 35 53  1  0  0  0  0
 35 76  1  0  0  0  0
 35 80  2  0  0  0  0
 36 66  1  0  0  0  0
 36 71  1  0  0  0  0
 36 81  2  0  0  0  0
 37 67  1  0  0  0  0
 37 77  1  0  0  0  0
 37 82  2  0  0  0  0
 38 72  1  0  0  0  0
 38 75  1  0  0  0  0
 38 83  2  0  0  0  0
 39 42  1  0  0  0  0
 40 53  1  0  0  0  0
 41 71  1  0  0  0  0
 42 44  1  0  0  0  0
 43 47  1  0  0  0  0
 43 50  1  0  0  0  0
 44 52  1  0  0  0  0
 45 48  1  0  0  0  0
 45 54  1  0  0  0  0
 46 49  1  0  0  0  0
 46 54  1  0  0  0  0
 47 55  1  0  0  0  0
 48 56  1  0  0  0  0
 49 56  1  0  0  0  0
 50 72  1  0  0  0  0
 51 55  1  0  0  0  0
 51 72  1  0  0  0  0
 52 76  1  0  0  0  0
 53 71  1  0  0  0  0
 54 64  1  0  0  0  0
 55 70  1  0  0  0  0
 56 85  1  0  0  0  0
 57 65  1  0  0  0  0
 58 65  1  0  0  0  0
 59 67  1  0  0  0  0
 60 68  1  0  0  0  0
 61 68  1  0  0  0  0
 62 68  1  0  0  0  0
 63 78  1  0  0  0  0
 64 86  1  0  0  0  0
 66 68  1  0  0  0  0
 66 77  1  0  0  0  0
 67 78  1  0  0  0  0
 69 70  1  0  0  0  0
M  CHG  1  78   1
M  ISO  4  38 100  56 101  75 100  85 101
M  END
> <Batch ID>
0152

> <Smiles>
CNC(C)C(=O)NC(C(=O)N1Cc2cc([101O:1][101CH:1]3CCC(COc4ccc([100NH:0][100C:0](=O)N5CCCC(n6nc(-c7ccc(Oc8ccc(F)cc8F)cc7)c(C(N)=O)c6N)C5)c(C(C)C)c4)CC3)ccc2CC1C(=O)NC1CCCc2ccccc21)C(C)(C)C

> <Shape>
0.286

> <Color>
0.105

> <Negative vol penalty>
0.000

$$$$

  -OEChem-04052321463D

 91100  0     1  0  0  0  0  0999 V2000
  -18.1918   -5.6678   23.7061 C   0  0  0  0  0  0  0  0  0  0  0  0
  -18.4540   -7.0337   23.6728 C   0  0  0  0  0  0  0  0  0  0  0  0
  -22.8385  -34.8308   25.4797 C   0  0  0  0  0  0  0  0  0  0  0  0
  -24.3847  -33.3674   26.6220 C   0  0  0  0  0  0  0  0  0  0  0  0
  -19.2435   -4.7553   23.6350 C   0  0  0  0  0  0  0  0  0  0  0  0
  -19.7684   -7.4878   23.5695 C   0  0  0  0  0  0  0  0  0  0  0  0
  -23.6218  -12.8419   20.7766 C   0  0  0  0  0  0  0  0  0  0  0  0
  -22.5744  -35.4893   26.6806 C   0  0  0  0  0  0  0  0  0  0  0  0
  -24.1206  -34.0260   27.8230 C   0  0  0  0  0  0  0  0  0  0  0  0
  -24.5740  -13.7908   21.1467 C   0  0  0  0  0  0  0  0  0  0  0  0
  -24.0593  -37.8300   28.6168 C   0  0  0  0  0  0  0  0  0  0  0  0
  -24.0302  -39.2244   28.5987 C   0  0  0  0  0  0  0  0  0  0  0  0
  -26.3046  -12.1217   20.9510 C   0  0  0  0  0  0  0  0  0  0  0  0
  -28.7785  -26.2098   19.6307 C   0  0  0  0  0  0  0  0  0  0  0  0
  -26.1699  -25.2783   19.9632 C   0  0  0  0  0  0  0  0  0  0  0  0
  -21.7373  -39.1864   29.3593 C   0  0  0  0  0  0  0  0  0  0  0  0
  -23.7436  -33.7698   25.4504 C   0  0  0  0  0  0  0  0  0  0  0  0
  -25.0129  -33.4057   23.2678 C   0  0  0  0  0  0  0  0  0  0  0  0
  -20.5706   -5.1983   23.5210 C   0  0  0  0  0  0  0  0  0  0  0  0
  -24.0032  -11.5209   20.5011 C   0  0  0  0  0  0  0  0  0  0  0  0
  -20.8389   -6.5803   23.4982 C   0  0  0  0  0  0  0  0  0  0  0  0
  -25.3557  -11.1586   20.5752 C   0  0  0  0  0  0  0  0  0  0  0  0
  -28.4986  -24.8515   19.4815 C   0  0  0  0  0  0  0  0  0  0  0  0
  -27.7540  -27.1024   19.9463 C   0  0  0  0  0  0  0  0  0  0  0  0
  -27.1944  -24.3857   19.6478 C   0  0  0  0  0  0  0  0  0  0  0  0
  -26.4498  -26.6366   20.1125 C   0  0  0  0  0  0  0  0  0  0  0  0
  -23.2155  -35.0869   27.8523 C   0  0  0  0  0  0  0  0  0  0  0  0
  -25.9152  -13.4300   21.2368 C   0  0  0  0  0  0  0  0  0  0  0  0
  -22.9275  -37.1138   29.0061 C   0  0  0  0  0  0  0  0  0  0  0  0
  -22.8692  -39.9026   28.9700 C   0  0  0  0  0  0  0  0  0  0  0  0
  -21.7665  -37.7919   29.3773 C   0  0  0  0  0  0  0  0  0  0  0  0
  -24.0164  -33.0888   24.2103 C   0  0  0  0  0  0  0  0  0  0  0  0
  -24.8587  -32.4676   22.2765 C   0  0  0  0  0  0  0  0  0  0  0  0
  -25.9906  -34.4542   23.2867 C   0  0  0  0  0  0  0  0  0  0  0  0
  -23.3369   -8.6831   21.7685 C   0  0  0  0  0  0  0  0  0  0  0  0
  -25.0500   -7.5871   19.2414 C   0  0  0  0  0  0  0  0  0  0  0  0
  -27.4321   -8.1940   16.8741 C   0  0  0  0  0  0  0  0  0  0  0  0
  -24.0517  -27.2107   20.6280 C   0  0  0  0  0  0  0  0  0  0  0  0
  -21.6780   -4.1747   23.4949 C   0  0  0  0  0  0  0  0  0  0  0  0
  -22.9675  -10.5159   20.0772 C   0  0  0  0  0  0  0  0  0  0  0  0
  -25.8195   -9.7586   20.2698 C   0  0  0  0  0  0  0  0  0  0  0  0
  -23.0129   -4.7338   23.0094 C   0  0  0  0  0  0  0  0  0  0  0  0
  -21.1587  -29.1098   21.4657 C   0  0  0  0  0  0  0  0  0  0  0  0
  -23.3165   -6.0621   23.6951 C   0  0  0  0  0  0  0  0  0  0  0  0
  -21.7263  -30.3404   22.1769 C   0  0  0  0  0  0  0  0  0  0  0  0
  -28.1312  -20.0990   19.0767 C   0  0  0  0  0  0  0  0  0  0  0  0
  -27.7215  -19.8861   21.5698 C   0  0  0  0  0  0  0  0  0  0  0  0
  -27.9761  -18.5861   18.9221 C   0  0  0  0  0  0  0  0  0  0  0  0
  -27.5661  -18.3733   21.4150 C   0  0  0  0  0  0  0  0  0  0  0  0
  -21.9528  -27.8473   21.7962 C   0  0  0  0  0  0  0  0  0  0  0  0
  -23.9680  -29.1783   22.2825 C   0  0  0  0  0  0  0  0  0  0  0  0
  -22.2494   -7.1116   23.3618 C   0  0  1  0  0  0  0  0  0  0  0  0
  -23.4008   -9.0732   20.3189 C   0  0  1  0  0  0  0  0  0  0  0  0
  -23.2406  -30.4859   21.9294 C   0  0  2  0  0  0  0  0  0  0  0  0
  -27.3402  -20.6102   20.2797 C   0  0  0  0  0  0  0  0  0  0  0  0
  -28.3575  -17.8622   20.2123 C   0  0  0  0  0  0  0  0  0  0  0  0
  -29.6117  -23.9146   19.1440 C   0  0  0  0  0  0  0  0  0  0  0  0
  -28.0825  -28.5520   20.1000 C   0  0  0  0  0  0  0  0  0  0  0  0
  -28.6453   -7.0936   14.9729 C   0  0  0  0  0  0  0  0  0  0  0  0
  -30.2812  -15.4042   20.4243 C   0  0  0  0  0  0  0  0  0  0  0  0
  -26.7629   -6.0371   21.2347 C   0  0  0  0  0  0  0  0  0  0  0  0
  -28.4760   -5.7484   19.4320 C   0  0  0  0  0  0  0  0  0  0  0  0
  -26.1947   -4.7800   19.1487 C   0  0  0  0  0  0  0  0  0  0  0  0
  -26.3954  -10.1614   14.9212 C   0  0  0  0  0  0  0  0  0  0  0  0
  -26.8696  -22.9292   19.4925 C   0  0  0  0  0  0  0  0  0  0  0  0
  -28.1632  -14.1889   21.0737 C   0  0  0  0  0  0  0  0  0  1  0  0
  -26.5070   -7.2838   18.9884 C   0  0  1  0  0  0  0  0  0  0  0  0
  -27.4510   -7.9440   15.3769 C   0  0  2  0  0  0  0  0  0  0  0  0
  -28.8690  -15.5362   20.9711 C   0  0  2  0  0  0  0  0  0  0  0  0
  -26.9765   -5.9883   19.7087 C   0  0  0  0  0  0  0  0  0  0  0  0
  -23.2832  -32.0321   23.8500 N   0  0  0  0  0  0  0  0  0  0  0  0
  -23.8194  -31.6768   22.6700 N   0  0  0  0  0  0  0  0  0  0  0  0
  -24.7683   -8.8104   19.8659 N   0  0  0  0  0  0  0  0  0  0  0  0
  -23.3780  -28.0580   21.5330 N   0  0  0  0  0  0  0  0  0  0  0  0
  -25.5120  -32.2502   21.1153 N   0  0  0  0  0  0  0  0  0  0  0  0
  -26.0100  -35.3300   24.3807 N   0  0  0  0  0  0  0  0  0  0  0  0
  -25.3956  -27.5276   20.4329 N   0  0  0  0  0  0  0  0  0  0  0  0
  -22.4633   -7.6458   22.0339 N   0  0  0  0  0  0  0  0  0  0  0  0
  -26.6723   -7.2550   17.5391 N   0  0  0  0  0  0  0  0  0  0  0  0
  -27.6071  -22.0636   20.4475 N   0  3  0  0  0  0  0  0  0  0  0  0
  -28.0912  -16.4087   20.0444 N   0  3  0  0  0  0  0  0  0  0  0  0
  -27.5220   -9.2357   14.6369 N   0  3  0  0  0  0  0  0  0  0  0  0
  -26.8118  -34.6199   22.3530 O   0  0  0  0  0  0  0  0  0  0  0  0
  -24.0299   -9.2780   22.5854 O   0  0  0  0  0  0  0  0  0  0  0  0
  -24.1929   -6.7719   18.8912 O   0  0  0  0  0  0  0  0  0  0  0  0
  -28.0343   -9.1267   17.4014 O   0  0  0  0  0  0  0  0  0  0  0  0
  -23.4718  -26.2900   20.0467 O   0  0  0  0  0  0  0  0  0  0  0  0
  -22.9582  -35.7294   29.0243 O   0  0  0  0  0  0  0  0  0  0  0  0
  -26.8464  -14.3540   21.5984 O   0  0  0  0  0  0  0  0  0  1  0  0
  -22.8419  -41.2417   28.9540 F   0  0  0  0  0  0  0  0  0  0  0  0
  -20.6763  -37.1093   29.7533 F   0  0  0  0  0  0  0  0  0  0  0  0
  1  2  1  0  0  0  0
  1  5  2  0  0  0  0
  2  6  2  0  0  0  0
  3  8  2  0  0  0  0
  3 17  1  0  0  0  0
  4  9  1  0  0  0  0
  4 17  2  0  0  0  0
  5 19  1  0  0  0  0
  6 21  1  0  0  0  0
  7 10  2  0  0  0  0
  7 20  1  0  0  0  0
  8 27  1  0  0  0  0
  9 27  2  0  0  0  0
 10 28  1  0  0  0  0
 11 12  2  0  0  0  0
 11 29  1  0  0  0  0
 12 30  1  0  0  0  0
 13 22  1  0  0  0  0
 13 28  2  0  0  0  0
 14 23  1  0  0  0  0
 14 24  2  0  0  0  0
 15 25  1  0  0  0  0
 15 26  2  0  0  0  0
 16 30  2  0  0  0  0
 16 31  1  0  0  0  0
 17 32  1  0  0  0  0
 18 32  1  0  0  0  0
 18 33  2  0  0  0  0
 18 34  1  0  0  0  0
 19 21  2  0  0  0  0
 19 39  1  0  0  0  0
 20 22  2  0  0  0  0
 20 40  1  0  0  0  0
 21 52  1  0  0  0  0
 22 41  1  0  0  0  0
 23 25  2  0  0  0  0
 23 57  1  0  0  0  0
 24 26  1  0  0  0  0
 24 58  1  0  0  0  0
 25 65  1  0  0  0  0
 26 77  1  0  0  0  0
 27 88  1  0  0  0  0
 28 89  1  0  0  0  0
 29 31  2  0  0  0  0
 29 88  1  0  0  0  0
 30 90  1  0  0  0  0
 31 91  1  0  0  0  0
 32 71  2  0  0  0  0
 33 72  1  0  0  0  0
 33 75  1  0  0  0  0
 34 76  1  0  0  0  0
 34 83  2  0  0  0  0
 35 53  1  0  0  0  0
 35 78  1  0  0  0  0
 35 84  2  0  0  0  0
 36 67  1  0  0  0  0
 36 73  1  0  0  0  0
 36 85  2  0  0  0  0
 37 68  1  0  0  0  0
 37 79  1  0  0  0  0
 37 86  2  0  0  0  0
 38 74  1  0  0  0  0
 38 77  1  0  0  0  0
 38 87  2  0  0  0  0
 39 42  1  0  0  0  0
 40 53  1  0  0  0  0
 41 73  1  0  0  0  0
 42 44  1  0  0  0  0
 43 45  1  0  0  0  0
 43 50  1  0  0  0  0
 44 52  1  0  0  0  0
 45 54  1  0  0  0  0
 46 48  1  0  0  0  0
 46 55  1  0  0  0  0
 47 49  1  0  0  0  0
 47 55  1  0  0  0  0
 48 56  1  0  0  0  0
 49 56  1  0  0  0  0
 50 74  1  0  0  0  0
 51 54  1  0  0  0  0
 51 74  1  0  0  0  0
 52 78  1  0  0  0  0
 53 73  1  0  0  0  0
 54 72  1  0  0  0  0
 55 80  1  0  0  0  0
 56 81  1  0  0  0  0
 59 68  1  0  0  0  0
 60 69  1  0  0  0  0
 61 70  1  0  0  0  0
 62 70  1  0  0  0  0
 63 70  1  0  0  0  0
 64 82  1  0  0  0  0
 65 80  1  0  0  0  0
 66 69  1  0  0  0  0
 66 89  1  0  0  0  0
 67 70  1  0  0  0  0
 67 79  1  0  0  0  0
 68 82  1  0  0  0  0
 69 81  1  0  0  0  0
 71 72  1  0  0  0  0
M  CHG  3  80   1  81   1  82   1
M  ISO  4  38 100  66 101  77 100  89 101
M  END
> <Batch ID>
0152

> <Smiles>
CNC(C)C(=O)NC(C(=O)N1Cc2cc([101O:1][101CH2:1]C(C)NC3CCC(NCc4cc([100NH:0][100C:0](=O)N5CCCC(n6nc(-c7ccc(Oc8ccc(F)cc8F)cc7)c(C(N)=O)c6N)C5)c(C)cc4C)CC3)ccc2CC1C(=O)NC1CCCc2ccccc21)C(C)(C)C

> <Shape>
0.245

> <Color>
0.064

> <Negative vol penalty>
0.000

$$$$

  -OEChem-04052321463D

 88 97  0     1  0  0  0  0  0999 V2000
  -23.4561  -37.5933   18.5481 C   0  0  0  0  0  0  0  0  0  0  0  0
  -23.6061  -36.3949   17.8577 C   0  0  0  0  0  0  0  0  0  0  0  0
  -25.8682  -13.2305   21.2753 C   0  0  0  0  0  0  0  0  0  0  0  0
  -25.8085  -14.1081   19.0251 C   0  0  0  0  0  0  0  0  0  0  0  0
  -24.0958  -37.7753   19.7735 C   0  0  0  0  0  0  0  0  0  0  0  0
  -24.3969  -35.3781   18.3917 C   0  0  0  0  0  0  0  0  0  0  0  0
  -24.8510  -28.2356   18.6978 C   0  0  0  0  0  0  0  0  0  0  0  0
  -24.5384  -13.6095   21.4584 C   0  0  0  0  0  0  0  0  0  0  0  0
  -24.4786  -14.4870   19.2081 C   0  0  0  0  0  0  0  0  0  0  0  0
  -25.7588  -27.2031   18.4663 C   0  0  0  0  0  0  0  0  0  0  0  0
  -22.7885  -16.9991   20.7128 C   0  0  0  0  0  0  0  0  0  0  0  0
  -22.4121  -18.2714   20.2826 C   0  0  0  0  0  0  0  0  0  0  0  0
  -26.7523  -27.5999   20.6284 C   0  0  0  0  0  0  0  0  0  0  0  0
  -29.5691  -21.4177   18.8218 C   0  0  0  0  0  0  0  0  0  0  0  0
  -20.8016  -17.2853   18.7755 C   0  0  0  0  0  0  0  0  0  0  0  0
  -31.5077  -21.6407   16.9145 C   0  0  0  0  0  0  0  0  0  0  0  0
  -26.5033  -13.4799   20.0586 C   0  0  0  0  0  0  0  0  0  0  0  0
  -28.3507  -11.8584   19.3763 C   0  0  0  0  0  0  0  0  0  0  0  0
  -24.8871  -36.7567   20.3274 C   0  0  0  0  0  0  0  0  0  0  0  0
  -24.8940  -28.9663   19.8939 C   0  0  0  0  0  0  0  0  0  0  0  0
  -25.0490  -35.5472   19.6250 C   0  0  0  0  0  0  0  0  0  0  0  0
  -25.8422  -28.6394   20.8738 C   0  0  0  0  0  0  0  0  0  0  0  0
  -30.1198  -20.2659   18.2711 C   0  0  0  0  0  0  0  0  0  0  0  0
  -23.8436  -14.2377   20.4248 C   0  0  0  0  0  0  0  0  0  0  0  0
  -26.7115  -26.8870   19.4304 C   0  0  0  0  0  0  0  0  0  0  0  0
  -22.1716  -15.8698   20.1743 C   0  0  0  0  0  0  0  0  0  0  0  0
  -31.1081  -20.3708   17.2987 C   0  0  0  0  0  0  0  0  0  0  0  0
  -21.4187  -18.4145   19.3139 C   0  0  0  0  0  0  0  0  0  0  0  0
  -21.1781  -16.0130   19.2057 C   0  0  0  0  0  0  0  0  0  0  0  0
  -27.8772  -13.0892   19.8691 C   0  0  0  0  0  0  0  0  0  0  0  0
  -30.0377  -22.6407   18.3696 C   0  0  0  0  0  0  0  0  0  0  0  0
  -29.7181  -11.9867   19.3891 C   0  0  0  0  0  0  0  0  0  0  0  0
  -27.6199  -10.7026   18.9454 C   0  0  0  0  0  0  0  0  0  0  0  0
  -25.4021  -32.0131   20.6440 C   0  0  0  0  0  0  0  0  0  0  0  0
  -24.6337  -31.0014   23.6287 C   0  0  0  0  0  0  0  0  0  0  0  0
  -24.4294  -28.4177   25.8490 C   0  0  0  0  0  0  0  0  0  0  0  0
  -33.3714  -16.7248   19.1535 C   0  0  0  0  0  0  0  0  0  0  0  0
  -25.5973  -37.0174   21.6321 C   0  0  0  0  0  0  0  0  0  0  0  0
  -23.8905  -30.0595   20.1396 C   0  0  0  0  0  0  0  0  0  0  0  0
  -25.9172  -29.3802   22.1830 C   0  0  0  0  0  0  0  0  0  0  0  0
  -26.1147  -35.7502   22.3078 C   0  0  0  0  0  0  0  0  0  0  0  0
  -33.2458  -14.2430   21.7034 C   0  0  0  0  0  0  0  0  0  0  0  0
  -26.8321  -34.8611   21.2970 C   0  0  0  0  0  0  0  0  0  0  0  0
  -27.5979  -18.2647   17.2162 C   0  0  0  0  0  0  0  0  0  0  0  0
  -27.5637  -17.3508   18.4092 C   0  0  0  0  0  0  0  0  0  0  0  0
  -31.8984  -13.5548   21.4779 C   0  0  0  0  0  0  0  0  0  0  0  0
  -33.1690  -15.7412   21.4181 C   0  0  0  0  0  0  0  0  0  0  0  0
  -31.2864  -15.4038   19.8638 C   0  0  0  0  0  0  0  0  0  0  0  0
  -25.8785  -34.4114   20.1834 C   0  0  1  0  0  0  0  0  0  0  0  0
  -24.3561  -31.0757   21.1778 C   0  0  1  0  0  0  0  0  0  0  0  0
  -28.1367  -18.7348   18.5389 C   0  0  0  0  0  0  0  0  0  0  0  0
  -31.3277  -13.8821   20.0849 C   0  0  2  0  0  0  0  0  0  0  0  0
  -23.8011  -27.9065   28.2242 C   0  0  0  0  0  0  0  0  0  0  0  0
  -27.2596  -32.2265   24.5845 C   0  0  0  0  0  0  0  0  0  0  0  0
  -27.0364  -30.8897   26.6896 C   0  0  0  0  0  0  0  0  0  0  0  0
  -25.3161  -32.6016   26.1130 C   0  0  0  0  0  0  0  0  0  0  0  0
  -22.2810  -26.5659   25.0042 C   0  0  0  0  0  0  0  0  0  0  0  0
  -28.4506  -23.7527   19.9412 C   0  0  0  0  0  0  0  0  0  0  0  0
  -33.4330  -17.6373   16.8465 C   0  0  0  0  0  0  0  0  0  0  0  0
  -28.0744  -25.1676   20.3481 C   0  0  0  0  0  0  0  0  0  1  0  0
  -33.0850  -19.1145   16.8869 C   0  0  0  0  0  0  0  0  0  0  0  0
  -29.6409  -18.9299   18.7328 C   0  0  2  0  0  0  0  0  0  0  0  0
  -25.4053  -30.4429   24.7999 C   0  0  1  0  0  0  0  0  0  0  0  0
  -23.3171  -27.9789   26.7843 C   0  0  2  0  0  0  0  0  0  0  0  0
  -26.2544  -31.5273   25.5214 C   0  0  0  0  0  0  0  0  0  0  0  0
  -30.9962  -22.7824   17.4267 N   0  0  0  0  0  0  0  0  0  0  0  0
  -28.8636  -13.9368   20.1729 N   0  0  0  0  0  0  0  0  0  0  0  0
  -29.9707  -13.2376   19.8704 N   0  0  0  0  0  0  0  0  0  0  0  0
  -24.9184  -30.4449   22.3736 N   0  0  0  0  0  0  0  0  0  0  0  0
  -32.6213  -15.9833   20.0812 N   0  0  0  0  0  0  0  0  0  0  0  0
  -30.7171  -11.1503   19.0357 N   0  0  0  0  0  0  0  0  0  0  0  0
  -26.2198  -10.7396   18.9978 N   0  0  0  0  0  0  0  0  0  0  0  0
  -29.4800  -23.7792   18.9275 N   0  0  0  0  0  0  0  0  0  0  0  0
  -25.0232  -33.3420   20.6516 N   0  0  0  0  0  0  0  0  0  0  0  0
  -24.4260  -29.7831   25.6566 N   0  0  0  0  0  0  0  0  0  0  0  0
  -32.7818  -16.9024   17.9079 N   0  0  0  0  0  0  0  0  0  0  0  0
  -22.8100  -26.6339   26.3908 N   0  3  0  0  0  0  0  0  0  0  0  0
  -28.1919   -9.6617   18.5418 O   0  0  0  0  0  0  0  0  0  0  0  0
  -26.4740  -31.5642   20.2554 O   0  0  0  0  0  0  0  0  0  0  0  0
  -23.8037  -31.8933   23.8213 O   0  0  0  0  0  0  0  0  0  0  0  0
  -25.2243  -27.6287   25.3430 O   0  0  0  0  0  0  0  0  0  0  0  0
  -34.4865  -17.1892   19.4142 O   0  0  0  0  0  0  0  0  0  0  0  0
  -29.9355  -18.7844   20.1265 O   0  0  0  0  0  0  0  0  0  0  0  0
  -22.5458  -14.6074   20.6031 O   0  0  0  0  0  0  0  0  0  0  0  0
  -27.5993  -25.8802   19.2067 O   0  0  0  0  0  0  0  0  0  1  0  0
  -31.6737  -19.2739   16.7337 O   0  0  0  0  0  0  0  0  0  0  0  0
  -21.0562  -19.6365   18.9020 F   0  0  0  0  0  0  0  0  0  0  0  0
  -20.5810  -14.9319   18.6856 F   0  0  0  0  0  0  0  0  0  0  0  0
  1  2  1  0  0  0  0
  1  5  2  0  0  0  0
  2  6  2  0  0  0  0
  3  8  2  0  0  0  0
  3 17  1  0  0  0  0
  4  9  1  0  0  0  0
  4 17  2  0  0  0  0
  5 19  1  0  0  0  0
  6 21  1  0  0  0  0
  7 10  2  0  0  0  0
  7 20  1  0  0  0  0
  8 24  1  0  0  0  0
  9 24  2  0  0  0  0
 10 25  1  0  0  0  0
 11 12  2  0  0  0  0
 11 26  1  0  0  0  0
 12 28  1  0  0  0  0
 13 22  1  0  0  0  0
 13 25  2  0  0  0  0
 14 23  2  0  0  0  0
 14 31  1  0  0  0  0
 15 28  2  0  0  0  0
 15 29  1  0  0  0  0
 16 27  2  0  0  0  0
 16 66  1  0  0  0  0
 17 30  1  0  0  0  0
 18 30  1  0  0  0  0
 18 32  2  0  0  0  0
 18 33  1  0  0  0  0
 19 21  2  0  0  0  0
 19 38  1  0  0  0  0
 20 22  2  0  0  0  0
 20 39  1  0  0  0  0
 21 49  1  0  0  0  0
 22 40  1  0  0  0  0
 23 27  1  0  0  0  0
 23 62  1  0  0  0  0
 24 84  1  0  0  0  0
 25 85  1  0  0  0  0
 26 29  2  0  0  0  0
 26 84  1  0  0  0  0
 27 86  1  0  0  0  0
 28 87  1  0  0  0  0
 29 88  1  0  0  0  0
 30 67  2  0  0  0  0
 31 66  2  0  0  0  0
 31 73  1  0  0  0  0
 32 68  1  0  0  0  0
 32 71  1  0  0  0  0
 33 72  1  0  0  0  0
 33 78  2  0  0  0  0
 34 50  1  0  0  0  0
 34 74  1  0  0  0  0
 34 79  2  0  0  0  0
 35 63  1  0  0  0  0
 35 69  1  0  0  0  0
 35 80  2  0  0  0  0
 36 64  1  0  0  0  0
 36 75  1  0  0  0  0
 36 81  2  0  0  0  0
 37 70  1  0  0  0  0
 37 76  1  0  0  0  0
 37 82  2  0  0  0  0
 38 41  1  0  0  0  0
 39 50  1  0  0  0  0
 40 69  1  0  0  0  0
 41 43  1  0  0  0  0
 42 46  1  0  0  0  0
 42 47  1  0  0  0  0
 43 49  1  0  0  0  0
 44 45  1  0  0  0  0
 44 51  1  0  0  0  0
 45 51  1  0  0  0  0
 46 52  1  0  0  0  0
 47 70  1  0  0  0  0
 48 52  1  0  0  0  0
 48 70  1  0  0  0  0
 49 74  1  0  0  0  0
 50 69  1  0  0  0  0
 51 62  1  0  0  0  0
 52 68  1  0  0  0  0
 53 64  1  0  0  0  0
 54 65  1  0  0  0  0
 55 65  1  0  0  0  0
 56 65  1  0  0  0  0
 57 77  1  0  0  0  0
 58 60  1  0  0  0  0
 58 73  1  0  0  0  0
 59 61  1  0  0  0  0
 59 76  1  0  0  0  0
 60 85  1  0  0  0  0
 61 86  1  0  0  0  0
 62 83  1  0  0  0  0
 63 65  1  0  0  0  0
 63 75  1  0  0  0  0
 64 77  1  0  0  0  0
 67 68  1  0  0  0  0
M  CHG  1  77   1
M  ISO  4  37 100  60 101  76 100  85 101
M  END
> <Batch ID>
0152

> <Smiles>
CNC(C)C(=O)NC(C(=O)N1Cc2cc([101O:1][101CH2:1]CNc3cc(C(O)C4CC4)c(OCC[100NH:0][100C:0](=O)N4CCCC(n5nc(-c6ccc(Oc7ccc(F)cc7F)cc6)c(C(N)=O)c5N)C4)cn3)ccc2CC1C(=O)NC1CCCc2ccccc21)C(C)(C)C

> <Shape>
0.248

> <Color>
0.107

> <Negative vol penalty>
0.000

$$$$

  -OEChem-04052321463D

 85 94  0     1  0  0  0  0  0999 V2000
  -27.0870  -37.6927   24.1107 C   0  0  0  0  0  0  0  0  0  0  0  0
  -27.7814  -36.6915   23.4392 C   0  0  0  0  0  0  0  0  0  0  0  0
  -23.6529  -10.4783   22.4353 C   0  0  0  0  0  0  0  0  0  0  0  0
  -24.4723   -8.6166   21.1317 C   0  0  0  0  0  0  0  0  0  0  0  0
  -25.9649  -37.3703   24.8729 C   0  0  0  0  0  0  0  0  0  0  0  0
  -27.3546  -35.3672   23.5303 C   0  0  0  0  0  0  0  0  0  0  0  0
  -28.2569  -21.6688   19.1458 C   0  0  0  0  0  0  0  0  0  0  0  0
  -27.0536  -29.3225   19.6978 C   0  0  0  0  0  0  0  0  0  0  0  0
  -28.0825  -23.0446   18.9968 C   0  0  0  0  0  0  0  0  0  0  0  0
  -22.5135   -9.7450   22.7664 C   0  0  0  0  0  0  0  0  0  0  0  0
  -23.3330   -7.8832   21.4629 C   0  0  0  0  0  0  0  0  0  0  0  0
  -27.4010  -27.9750   19.7826 C   0  0  0  0  0  0  0  0  0  0  0  0
  -22.1949   -6.1104   24.1053 C   0  0  0  0  0  0  0  0  0  0  0  0
  -22.3712   -4.7825   24.4941 C   0  0  0  0  0  0  0  0  0  0  0  0
  -25.4027  -27.5466   21.0642 C   0  0  0  0  0  0  0  0  0  0  0  0
  -28.7171  -23.3749   21.3045 C   0  0  0  0  0  0  0  0  0  0  0  0
  -20.9887   -4.0589   22.6496 C   0  0  0  0  0  0  0  0  0  0  0  0
  -24.6323   -9.9141   21.6178 C   0  0  0  0  0  0  0  0  0  0  0  0
  -27.0274  -10.7144   21.9789 C   0  0  0  0  0  0  0  0  0  0  0  0
  -25.5185  -36.0426   24.9655 C   0  0  0  0  0  0  0  0  0  0  0  0
  -25.8816  -29.7950   20.3058 C   0  0  0  0  0  0  0  0  0  0  0  0
  -26.2262  -35.0265   24.2954 C   0  0  0  0  0  0  0  0  0  0  0  0
  -28.6613  -21.1459   20.3741 C   0  0  0  0  0  0  0  0  0  0  0  0
  -25.0413  -28.9001   20.9834 C   0  0  0  0  0  0  0  0  0  0  0  0
  -28.3126  -23.8977   20.0762 C   0  0  0  0  0  0  0  0  0  0  0  0
  -22.3536   -8.4474   22.2803 C   0  0  0  0  0  0  0  0  0  0  0  0
  -26.5770  -27.0873   20.4684 C   0  0  0  0  0  0  0  0  0  0  0  0
  -21.4155   -6.4126   22.9887 C   0  0  0  0  0  0  0  0  0  0  0  0
  -28.8914  -21.9990   21.4535 C   0  0  0  0  0  0  0  0  0  0  0  0
  -21.7681   -3.7567   23.7663 C   0  0  0  0  0  0  0  0  0  0  0  0
  -20.8124   -5.3868   22.2608 C   0  0  0  0  0  0  0  0  0  0  0  0
  -25.8091  -10.6714   21.2748 C   0  0  0  0  0  0  0  0  0  0  0  0
  -27.8155  -11.5709   21.2496 C   0  0  0  0  0  0  0  0  0  0  0  0
  -27.4124  -10.0404   23.1844 C   0  0  0  0  0  0  0  0  0  0  0  0
  -25.2363  -31.8943   22.6037 C   0  0  0  0  0  0  0  0  0  0  0  0
  -22.1648  -31.3035   21.7437 C   0  0  0  0  0  0  0  0  0  0  0  0
  -19.9156  -29.1731   20.3122 C   0  0  0  0  0  0  0  0  0  0  0  0
  -28.6366  -16.1588   18.3690 C   0  0  0  0  0  0  0  0  0  0  0  0
  -24.3282  -35.7364   25.8397 C   0  0  0  0  0  0  0  0  0  0  0  0
  -25.5073  -31.2466   20.1824 C   0  0  0  0  0  0  0  0  0  0  0  0
  -23.7619  -29.3533   21.6362 C   0  0  0  0  0  0  0  0  0  0  0  0
  -23.7208  -34.3600   25.5812 C   0  0  0  0  0  0  0  0  0  0  0  0
  -27.1625  -13.5486   16.6481 C   0  0  0  0  0  0  0  0  0  0  0  0
  -24.8144  -33.2991   25.5073 C   0  0  0  0  0  0  0  0  0  0  0  0
  -26.7749  -12.5609   17.7483 C   0  0  0  0  0  0  0  0  0  0  0  0
  -27.5314  -18.8791   20.2915 C   0  0  0  0  0  0  0  0  0  0  0  0
  -29.9534  -19.1110   19.5916 C   0  0  0  0  0  0  0  0  0  0  0  0
  -26.8805  -14.9833   17.0787 C   0  0  0  0  0  0  0  0  0  0  0  0
  -27.7322  -17.3653   20.4055 C   0  0  0  0  0  0  0  0  0  0  0  0
  -30.1036  -17.6004   19.7469 C   0  0  0  0  0  0  0  0  0  0  0  0
  -27.1782  -14.3961   19.4629 C   0  0  0  0  0  0  0  0  0  0  0  0
  -28.8463  -19.6470   20.5173 C   0  0  0  0  0  0  0  0  0  0  0  0
  -25.7796  -33.5816   24.3497 C   0  0  1  0  0  0  0  0  0  0  0  0
  -24.5533  -31.7129   21.2777 C   0  0  1  0  0  0  0  0  0  0  0  0
  -27.4495  -12.9264   19.0824 C   0  0  1  0  0  0  0  0  0  0  0  0
  -17.4716  -28.9497   19.7885 C   0  0  0  0  0  0  0  0  0  0  0  0
  -21.5965  -30.6753   24.6750 C   0  0  0  0  0  0  0  0  0  0  0  0
  -19.4695  -29.5693   23.9533 C   0  0  0  0  0  0  0  0  0  0  0  0
  -19.8143  -32.0030   23.5281 C   0  0  0  0  0  0  0  0  0  0  0  0
  -20.4354  -29.0074   17.4034 C   0  0  0  0  0  0  0  0  0  0  0  0
  -29.4995  -22.4477   23.7084 C   0  0  0  0  0  0  0  0  0  0  0  0
  -28.1256  -25.3687   19.9169 C   0  0  0  0  0  0  0  0  0  1  0  0
  -21.1084  -30.3113   22.1660 C   0  0  1  0  0  0  0  0  0  0  0  0
  -18.8302  -29.4018   19.2759 C   0  0  2  0  0  0  0  0  0  0  0  0
  -20.5222  -30.6312   23.5701 C   0  0  0  0  0  0  0  0  0  0  0  0
  -25.8177  -11.4396   20.1822 N   0  0  0  0  0  0  0  0  0  0  0  0
  -27.0509  -11.9734   20.1943 N   0  0  0  0  0  0  0  0  0  0  0  0
  -23.4425  -30.7834   21.4931 N   0  0  0  0  0  0  0  0  0  0  0  0
  -27.5350  -15.2902   18.3504 N   0  0  0  0  0  0  0  0  0  0  0  0
  -28.8270  -16.9196   19.5324 N   0  0  0  0  0  0  0  0  0  0  0  0
  -29.0808  -12.0114   21.4144 N   0  0  0  0  0  0  0  0  0  0  0  0
  -26.4808   -9.1968   23.8049 N   0  0  0  0  0  0  0  0  0  0  0  0
  -25.1871  -33.1869   23.0897 N   0  0  0  0  0  0  0  0  0  0  0  0
  -20.1174  -30.2898   21.0955 N   0  0  0  0  0  0  0  0  0  0  0  0
  -19.1372  -28.6460   18.0287 N   0  3  0  0  0  0  0  0  0  0  0  0
  -28.5431  -10.1947   23.7051 O   0  0  0  0  0  0  0  0  0  0  0  0
  -25.7672  -30.9324   23.1465 O   0  0  0  0  0  0  0  0  0  0  0  0
  -21.8656  -32.4951   21.6331 O   0  0  0  0  0  0  0  0  0  0  0  0
  -20.5211  -28.1089   20.4189 O   0  0  0  0  0  0  0  0  0  0  0  0
  -29.4058  -16.2492   17.4039 O   0  0  0  0  0  0  0  0  0  0  0  0
  -21.2421   -7.7314   22.6035 O   0  0  0  0  0  0  0  0  0  0  0  0
  -29.2868  -21.5046   22.6599 O   0  0  0  0  0  0  0  0  0  0  0  0
  -26.9165  -25.7626   20.5539 O   0  0  0  0  0  0  0  0  0  1  0  0
  -21.9387   -2.4815   24.1388 F   0  0  0  0  0  0  0  0  0  0  0  0
  -20.0635   -5.6709   21.1865 F   0  0  0  0  0  0  0  0  0  0  0  0
  1  2  1  0  0  0  0
  1  5  2  0  0  0  0
  2  6  2  0  0  0  0
  3 10  2  0  0  0  0
  3 18  1  0  0  0  0
  4 11  1  0  0  0  0
  4 18  2  0  0  0  0
  5 20  1  0  0  0  0
  6 22  1  0  0  0  0
  7  9  2  0  0  0  0
  7 23  1  0  0  0  0
  8 12  2  0  0  0  0
  8 21  1  0  0  0  0
  9 25  1  0  0  0  0
 10 26  1  0  0  0  0
 11 26  2  0  0  0  0
 12 27  1  0  0  0  0
 13 14  2  0  0  0  0
 13 28  1  0  0  0  0
 14 30  1  0  0  0  0
 15 24  1  0  0  0  0
 15 27  2  0  0  0  0
 16 25  2  0  0  0  0
 16 29  1  0  0  0  0
 17 30  2  0  0  0  0
 17 31  1  0  0  0  0
 18 32  1  0  0  0  0
 19 32  1  0  0  0  0
 19 33  2  0  0  0  0
 19 34  1  0  0  0  0
 20 22  2  0  0  0  0
 20 39  1  0  0  0  0
 21 24  2  0  0  0  0
 21 40  1  0  0  0  0
 22 53  1  0  0  0  0
 23 29  2  0  0  0  0
 23 52  1  0  0  0  0
 24 41  1  0  0  0  0
 25 62  1  0  0  0  0
 26 81  1  0  0  0  0
 27 83  1  0  0  0  0
 28 31  2  0  0  0  0
 28 81  1  0  0  0  0
 29 82  1  0  0  0  0
 30 84  1  0  0  0  0
 31 85  1  0  0  0  0
 32 66  2  0  0  0  0
 33 67  1  0  0  0  0
 33 71  1  0  0  0  0
 34 72  1  0  0  0  0
 34 76  2  0  0  0  0
 35 54  1  0  0  0  0
 35 73  1  0  0  0  0
 35 77  2  0  0  0  0
 36 63  1  0  0  0  0
 36 68  1  0  0  0  0
 36 78  2  0  0  0  0
 37 64  1  0  0  0  0
 37 74  1  0  0  0  0
 37 79  2  0  0  0  0
 38 69  1  0  0  0  0
 38 70  1  0  0  0  0
 38 80  2  0  0  0  0
 39 42  1  0  0  0  0
 40 54  1  0  0  0  0
 41 68  1  0  0  0  0
 42 44  1  0  0  0  0
 43 45  1  0  0  0  0
 43 48  1  0  0  0  0
 44 53  1  0  0  0  0
 45 55  1  0  0  0  0
 46 49  1  0  0  0  0
 46 52  1  0  0  0  0
 47 50  1  0  0  0  0
 47 52  1  0  0  0  0
 48 69  1  0  0  0  0
 49 70  1  0  0  0  0
 50 70  1  0  0  0  0
 51 55  1  0  0  0  0
 51 69  1  0  0  0  0
 53 73  1  0  0  0  0
 54 68  1  0  0  0  0
 55 67  1  0  0  0  0
 56 64  1  0  0  0  0
 57 65  1  0  0  0  0
 58 65  1  0  0  0  0
 59 65  1  0  0  0  0
 60 75  1  0  0  0  0
 61 82  1  0  0  0  0
 62 83  1  0  0  0  0
 63 65  1  0  0  0  0
 63 74  1  0  0  0  0
 64 75  1  0  0  0  0
 66 67  1  0  0  0  0
M  CHG  1  75   1
M  ISO  4  38 100  62 101  70 100  83 101
M  END
> <Batch ID>
0152

> <Smiles>
CNC(C)C(=O)NC(C(=O)N1Cc2cc([101O:1][101CH2:1]c3ccc(C4CC[100N:0]([100C:0](=O)N5CCCC(n6nc(-c7ccc(Oc8ccc(F)cc8F)cc7)c(C(N)=O)c6N)C5)CC4)c(OC)c3)ccc2CC1C(=O)NC1CCCc2ccccc21)C(C)(C)C

> <Shape>
0.325

> <Color>
0.087

> <Negative vol penalty>
0.000

$$$$

  -OEChem-04052321463D

 85 94  0     1  0  0  0  0  0999 V2000
  -20.0851  -30.7815   24.6690 C   0  0  0  0  0  0  0  0  0  0  0  0
  -20.5555  -29.5696   24.1734 C   0  0  0  0  0  0  0  0  0  0  0  0
  -23.1978   -9.8648   19.8726 C   0  0  0  0  0  0  0  0  0  0  0  0
  -23.6993   -9.8561   22.2360 C   0  0  0  0  0  0  0  0  0  0  0  0
  -20.2327  -31.9456   23.9161 C   0  0  0  0  0  0  0  0  0  0  0  0
  -21.1730  -29.5212   22.9240 C   0  0  0  0  0  0  0  0  0  0  0  0
  -25.8056  -25.8841   21.2457 C   0  0  0  0  0  0  0  0  0  0  0  0
  -22.4534   -8.6953   20.0262 C   0  0  0  0  0  0  0  0  0  0  0  0
  -22.9548   -8.6866   22.3896 C   0  0  0  0  0  0  0  0  0  0  0  0
  -25.8459  -24.6792   20.5456 C   0  0  0  0  0  0  0  0  0  0  0  0
  -23.3700   -5.3778   21.8322 C   0  0  0  0  0  0  0  0  0  0  0  0
  -23.9222   -4.3547   22.6028 C   0  0  0  0  0  0  0  0  0  0  0  0
  -26.2941  -25.8863   18.5058 C   0  0  0  0  0  0  0  0  0  0  0  0
  -26.1020  -19.7402   15.3171 C   0  0  0  0  0  0  0  0  0  0  0  0
  -22.0395   -4.4755   24.1122 C   0  0  0  0  0  0  0  0  0  0  0  0
  -23.8208  -10.4452   20.9775 C   0  0  0  0  0  0  0  0  0  0  0  0
  -24.1247  -12.9775   20.9233 C   0  0  0  0  0  0  0  0  0  0  0  0
  -20.8610  -31.9131   22.6612 C   0  0  0  0  0  0  0  0  0  0  0  0
  -25.9987  -27.1021   20.5781 C   0  0  0  0  0  0  0  0  0  0  0  0
  -21.3280  -30.6858   22.1531 C   0  0  0  0  0  0  0  0  0  0  0  0
  -26.2583  -27.1052   19.2001 C   0  0  0  0  0  0  0  0  0  0  0  0
  -27.3661  -21.2983   16.6505 C   0  0  0  0  0  0  0  0  0  0  0  0
  -27.2411  -20.0465   16.0554 C   0  0  0  0  0  0  0  0  0  0  0  0
  -22.3319   -8.1062   21.2847 C   0  0  0  0  0  0  0  0  0  0  0  0
  -26.0873  -24.6803   19.1749 C   0  0  0  0  0  0  0  0  0  0  0  0
  -22.1526   -5.9499   22.2016 C   0  0  0  0  0  0  0  0  0  0  0  0
  -23.2570   -3.9035   23.7428 C   0  0  0  0  0  0  0  0  0  0  0  0
  -21.4874   -5.4987   23.3415 C   0  0  0  0  0  0  0  0  0  0  0  0
  -24.5904  -11.6531   20.8194 C   0  0  0  0  0  0  0  0  0  0  0  0
  -25.1087  -20.7010   15.1914 C   0  0  0  0  0  0  0  0  0  0  0  0
  -26.3409  -22.2197   16.4909 C   0  0  0  0  0  0  0  0  0  0  0  0
  -25.2356  -13.7512   20.6913 C   0  0  0  0  0  0  0  0  0  0  0  0
  -22.8059  -13.4648   21.2044 C   0  0  0  0  0  0  0  0  0  0  0  0
  -24.2302  -29.6979   20.0906 C   0  0  0  0  0  0  0  0  0  0  0  0
  -26.9666  -30.8396   18.7747 C   0  0  0  0  0  0  0  0  0  0  0  0
  -29.9642  -30.1715   17.2866 C   0  0  0  0  0  0  0  0  0  0  0  0
  -29.7608  -14.6790   17.4450 C   0  0  0  0  0  0  0  0  0  0  0  0
  -20.9554  -33.1894   21.8632 C   0  0  0  0  0  0  0  0  0  0  0  0
  -25.9787  -28.3915   21.3523 C   0  0  0  0  0  0  0  0  0  0  0  0
  -26.4923  -28.3843   18.4401 C   0  0  0  0  0  0  0  0  0  0  0  0
  -21.9564  -33.1161   20.7131 C   0  0  0  0  0  0  0  0  0  0  0  0
  -30.1265  -12.5067   20.3810 C   0  0  0  0  0  0  0  0  0  0  0  0
  -21.7720  -31.8221   19.9266 C   0  0  0  0  0  0  0  0  0  0  0  0
  -28.6778  -12.1641   20.7315 C   0  0  0  0  0  0  0  0  0  0  0  0
  -27.1238  -17.2390   17.3524 C   0  0  0  0  0  0  0  0  0  0  0  0
  -30.3102  -12.7516   18.8851 C   0  0  0  0  0  0  0  0  0  0  0  0
  -27.4312  -15.7484   17.4498 C   0  0  0  0  0  0  0  0  0  0  0  0
  -27.9439  -13.4024   18.6609 C   0  0  0  0  0  0  0  0  0  0  0  0
  -29.2775  -16.8788   16.4114 C   0  0  0  0  0  0  0  0  0  0  0  0
  -22.0255  -30.5968   20.8131 C   0  0  1  0  0  0  0  0  0  0  0  0
  -25.6784  -29.6071   20.4809 C   0  0  1  0  0  0  0  0  0  0  0  0
  -27.7059  -13.2165   20.1658 C   0  0  1  0  0  0  0  0  0  0  0  0
  -28.0004  -17.6732   16.1828 C   0  0  2  0  0  0  0  0  0  0  0  0
  -28.5789  -21.6510   17.4476 C   0  0  0  0  0  0  0  0  0  0  0  0
  -23.8636  -20.4520   14.4208 C   0  0  0  0  0  0  0  0  0  0  0  0
  -31.9650  -31.3104   16.2880 C   0  0  0  0  0  0  0  0  0  0  0  0
  -25.3440  -31.4928   16.2746 C   0  0  0  0  0  0  0  0  0  0  0  0
  -27.4989  -31.7209   15.0205 C   0  0  0  0  0  0  0  0  0  0  0  0
  -27.0017  -33.2468   16.9302 C   0  0  0  0  0  0  0  0  0  0  0  0
  -31.7927  -28.9511   19.2680 C   0  0  0  0  0  0  0  0  0  0  0  0
  -26.3789  -23.5818   17.0859 C   0  0  0  0  0  0  0  0  0  1  0  0
  -27.5742  -30.8281   17.3928 C   0  0  1  0  0  0  0  0  0  0  0  0
  -31.3599  -30.7087   17.5469 C   0  0  2  0  0  0  0  0  0  0  0  0
  -26.8484  -31.7980   16.4182 C   0  0  0  0  0  0  0  0  0  0  0  0
  -25.8954  -11.5855   20.5428 N   0  0  0  0  0  0  0  0  0  0  0  0
  -26.2591  -12.8773   20.4708 N   0  0  0  0  0  0  0  0  0  0  0  0
  -25.2548  -21.8985   15.7748 N   0  3  0  0  0  0  0  0  0  0  0  0
  -26.4565  -29.6195   19.2405 N   0  0  0  0  0  0  0  0  0  0  0  0
  -29.3468  -13.7364   18.3925 N   0  0  0  0  0  0  0  0  0  0  0  0
  -28.8324  -15.6356   17.0365 N   0  0  0  0  0  0  0  0  0  0  0  0
  -25.4268  -15.0871   20.6564 N   0  0  0  0  0  0  0  0  0  0  0  0
  -21.7808  -12.5332   21.4177 N   0  0  0  0  0  0  0  0  0  0  0  0
  -28.2406  -19.0921   16.1872 N   0  0  0  0  0  0  0  0  0  0  0  0
  -23.4463  -30.3894   20.9943 N   0  0  0  0  0  0  0  0  0  0  0  0
  -28.9947  -31.1103   17.5692 N   0  0  0  0  0  0  0  0  0  0  0  0
  -32.2550  -29.6163   18.0227 N   0  3  0  0  0  0  0  0  0  0  0  0
  -22.5409  -14.6901   21.2485 O   0  0  0  0  0  0  0  0  0  0  0  0
  -23.8524  -29.1803   19.0461 O   0  0  0  0  0  0  0  0  0  0  0  0
  -26.9517  -31.8908   19.4201 O   0  0  0  0  0  0  0  0  0  0  0  0
  -29.7551  -29.0341   16.8703 O   0  0  0  0  0  0  0  0  0  0  0  0
  -30.9228  -14.6949   17.0175 O   0  0  0  0  0  0  0  0  0  0  0  0
  -21.6054   -6.9650   21.4350 O   0  0  0  0  0  0  0  0  0  0  0  0
  -26.1268  -23.4981   18.4847 O   0  0  0  0  0  0  0  0  0  1  0  0
  -23.7865   -2.9199   24.4819 F   0  0  0  0  0  0  0  0  0  0  0  0
  -20.3170   -6.0436   23.7007 F   0  0  0  0  0  0  0  0  0  0  0  0
  1  2  1  0  0  0  0
  1  5  2  0  0  0  0
  2  6  2  0  0  0  0
  3  8  2  0  0  0  0
  3 16  1  0  0  0  0
  4  9  1  0  0  0  0
  4 16  2  0  0  0  0
  5 18  1  0  0  0  0
  6 20  1  0  0  0  0
  7 10  2  0  0  0  0
  7 19  1  0  0  0  0
  8 24  1  0  0  0  0
  9 24  2  0  0  0  0
 10 25  1  0  0  0  0
 11 12  2  0  0  0  0
 11 26  1  0  0  0  0
 12 27  1  0  0  0  0
 13 21  1  0  0  0  0
 13 25  2  0  0  0  0
 14 23  2  0  0  0  0
 14 30  1  0  0  0  0
 15 27  2  0  0  0  0
 15 28  1  0  0  0  0
 16 29  1  0  0  0  0
 17 29  1  0  0  0  0
 17 32  2  0  0  0  0
 17 33  1  0  0  0  0
 18 20  2  0  0  0  0
 18 38  1  0  0  0  0
 19 21  2  0  0  0  0
 19 39  1  0  0  0  0
 20 50  1  0  0  0  0
 21 40  1  0  0  0  0
 22 23  1  0  0  0  0
 22 31  2  0  0  0  0
 22 54  1  0  0  0  0
 23 73  1  0  0  0  0
 24 82  1  0  0  0  0
 25 83  1  0  0  0  0
 26 28  2  0  0  0  0
 26 82  1  0  0  0  0
 27 84  1  0  0  0  0
 28 85  1  0  0  0  0
 29 65  2  0  0  0  0
 30 55  1  0  0  0  0
 30 67  2  0  0  0  0
 31 61  1  0  0  0  0
 31 67  1  0  0  0  0
 32 66  1  0  0  0  0
 32 71  1  0  0  0  0
 33 72  1  0  0  0  0
 33 77  2  0  0  0  0
 34 51  1  0  0  0  0
 34 74  1  0  0  0  0
 34 78  2  0  0  0  0
 35 62  1  0  0  0  0
 35 68  1  0  0  0  0
 35 79  2  0  0  0  0
 36 63  1  0  0  0  0
 36 75  1  0  0  0  0
 36 80  2  0  0  0  0
 37 69  1  0  0  0  0
 37 70  1  0  0  0  0
 37 81  2  0  0  0  0
 38 41  1  0  0  0  0
 39 51  1  0  0  0  0
 40 68  1  0  0  0  0
 41 43  1  0  0  0  0
 42 44  1  0  0  0  0
 42 46  1  0  0  0  0
 43 50  1  0  0  0  0
 44 52  1  0  0  0  0
 45 47  1  0  0  0  0
 45 53  1  0  0  0  0
 46 69  1  0  0  0  0
 47 70  1  0  0  0  0
 48 52  1  0  0  0  0
 48 69  1  0  0  0  0
 49 53  1  0  0  0  0
 49 70  1  0  0  0  0
 50 74  1  0  0  0  0
 51 68  1  0  0  0  0
 52 66  1  0  0  0  0
 53 73  1  0  0  0  0
 56 63  1  0  0  0  0
 57 64  1  0  0  0  0
 58 64  1  0  0  0  0
 59 64  1  0  0  0  0
 60 76  1  0  0  0  0
 61 83  1  0  0  0  0
 62 64  1  0  0  0  0
 62 75  1  0  0  0  0
 63 76  1  0  0  0  0
 65 66  1  0  0  0  0
M  CHG  2  67   1  76   1
M  ISO  4  37 100  61 101  70 100  83 101
M  END
> <Batch ID>
0152

> <Smiles>
CNC(C)C(=O)NC(C(=O)N1Cc2cc([101O:1][101CH2:1]c3nc(C)cc(NC4CC[100N:0]([100C:0](=O)N5CCCC(n6nc(-c7ccc(Oc8ccc(F)cc8F)cc7)c(C(N)=O)c6N)C5)C4)c3C)ccc2CC1C(=O)NC1CCCc2ccccc21)C(C)(C)C

> <Shape>
0.225

> <Color>
0.196

> <Negative vol penalty>
0.000

$$$$

  -OEChem-04052321463D

 88 98  0     1  0  0  0  0  0999 V2000
  -28.2569  -36.3514   24.1877 C   0  0  0  0  0  0  0  0  0  0  0  0
  -28.5766  -35.0209   23.9370 C   0  0  0  0  0  0  0  0  0  0  0  0
  -23.5147  -10.2261   22.0564 C   0  0  0  0  0  0  0  0  0  0  0  0
  -24.7825   -8.3636   21.1843 C   0  0  0  0  0  0  0  0  0  0  0  0
  -26.9290  -36.7203   24.3985 C   0  0  0  0  0  0  0  0  0  0  0  0
  -27.5686  -34.0581   23.8982 C   0  0  0  0  0  0  0  0  0  0  0  0
  -27.3440  -29.1060   20.3022 C   0  0  0  0  0  0  0  0  0  0  0  0
  -22.3455   -9.4703   21.9710 C   0  0  0  0  0  0  0  0  0  0  0  0
  -23.6133   -7.6077   21.0988 C   0  0  0  0  0  0  0  0  0  0  0  0
  -27.6631  -27.7677   20.5279 C   0  0  0  0  0  0  0  0  0  0  0  0
  -21.0166   -5.0655   20.9898 C   0  0  0  0  0  0  0  0  0  0  0  0
  -21.0603   -3.7481   21.4461 C   0  0  0  0  0  0  0  0  0  0  0  0
  -28.4226  -23.2282   22.5040 C   0  0  0  0  0  0  0  0  0  0  0  0
  -25.3449  -27.3018   21.0058 C   0  0  0  0  0  0  0  0  0  0  0  0
  -28.8065  -21.4639   20.3774 C   0  0  0  0  0  0  0  0  0  0  0  0
  -21.6681   -4.5314   23.6493 C   0  0  0  0  0  0  0  0  0  0  0  0
  -24.7332   -9.6728   21.6630 C   0  0  0  0  0  0  0  0  0  0  0  0
  -26.8207  -10.5385   22.8465 C   0  0  0  0  0  0  0  0  0  0  0  0
  -25.9031  -35.7632   24.3527 C   0  0  0  0  0  0  0  0  0  0  0  0
  -26.0225  -29.5552   20.4376 C   0  0  0  0  0  0  0  0  0  0  0  0
  -26.2259  -34.4143   24.1100 C   0  0  0  0  0  0  0  0  0  0  0  0
  -28.5543  -21.8610   22.7472 C   0  0  0  0  0  0  0  0  0  0  0  0
  -25.0113  -28.6457   20.7788 C   0  0  0  0  0  0  0  0  0  0  0  0
  -28.7463  -20.9789   21.6839 C   0  0  0  0  0  0  0  0  0  0  0  0
  -28.4827  -23.7132   21.1976 C   0  0  0  0  0  0  0  0  0  0  0  0
  -22.3948   -8.1611   21.4922 C   0  0  0  0  0  0  0  0  0  0  0  0
  -26.6640  -26.8659   20.8825 C   0  0  0  0  0  0  0  0  0  0  0  0
  -21.2987   -6.1158   21.8632 C   0  0  0  0  0  0  0  0  0  0  0  0
  -28.6747  -22.8310   20.1343 C   0  0  0  0  0  0  0  0  0  0  0  0
  -21.3860   -3.4811   22.7759 C   0  0  0  0  0  0  0  0  0  0  0  0
  -21.6244   -5.8488   23.1930 C   0  0  0  0  0  0  0  0  0  0  0  0
  -25.9412  -10.4533   21.7506 C   0  0  0  0  0  0  0  0  0  0  0  0
  -27.8047  -11.4019   22.4307 C   0  0  0  0  0  0  0  0  0  0  0  0
  -26.7542   -9.8947   24.1259 C   0  0  0  0  0  0  0  0  0  0  0  0
  -24.5483  -31.6555   22.3135 C   0  0  0  0  0  0  0  0  0  0  0  0
  -22.0088  -30.9861   20.4094 C   0  0  0  0  0  0  0  0  0  0  0  0
  -20.4723  -28.7927   18.2940 C   0  0  0  0  0  0  0  0  0  0  0  0
  -29.5352  -15.9595   19.9299 C   0  0  0  0  0  0  0  0  0  0  0  0
  -24.4878  -36.2020   24.6337 C   0  0  0  0  0  0  0  0  0  0  0  0
  -25.6903  -30.9966   20.1646 C   0  0  0  0  0  0  0  0  0  0  0  0
  -23.5738  -29.0734   20.9173 C   0  0  0  0  0  0  0  0  0  0  0  0
  -23.4370  -35.1812   24.2045 C   0  0  0  0  0  0  0  0  0  0  0  0
  -28.8296  -13.2847   17.8573 C   0  0  0  0  0  0  0  0  0  0  0  0
  -27.1694  -20.8747   24.6922 C   0  0  0  0  0  0  0  0  0  0  0  0
  -27.7382  -22.1706   25.1796 C   0  0  0  0  0  0  0  0  0  0  0  0
  -23.8311  -33.7824   24.6680 C   0  0  0  0  0  0  0  0  0  0  0  0
  -28.0866  -12.3064   18.7669 C   0  0  0  0  0  0  0  0  0  0  0  0
  -27.7621  -18.6836   21.2542 C   0  0  0  0  0  0  0  0  0  0  0  0
  -30.2688  -18.9638   21.4726 C   0  0  0  0  0  0  0  0  0  0  0  0
  -28.3863  -14.7190   18.1210 C   0  0  0  0  0  0  0  0  0  0  0  0
  -27.9338  -17.1773   21.4705 C   0  0  0  0  0  0  0  0  0  0  0  0
  -30.3783  -17.4603   21.7091 C   0  0  0  0  0  0  0  0  0  0  0  0
  -27.8099  -14.1798   20.4652 C   0  0  0  0  0  0  0  0  0  0  0  0
  -28.4873  -21.3634   24.1530 C   0  0  0  0  0  0  0  0  0  0  0  0
  -28.8925  -19.4876   21.9214 C   0  0  0  0  0  0  0  0  0  0  0  0
  -25.1577  -33.3449   24.0355 C   0  0  1  0  0  0  0  0  0  0  0  0
  -24.3955  -31.4483   20.8331 C   0  0  1  0  0  0  0  0  0  0  0  0
  -28.2257  -12.7111   20.2451 C   0  0  1  0  0  0  0  0  0  0  0  0
  -18.3887  -28.5078   16.9248 C   0  0  0  0  0  0  0  0  0  0  0  0
  -20.4298  -30.3663   22.9457 C   0  0  0  0  0  0  0  0  0  0  0  0
  -18.7303  -29.2051   21.5203 C   0  0  0  0  0  0  0  0  0  0  0  0
  -19.1586  -31.6431   21.2112 C   0  0  0  0  0  0  0  0  0  0  0  0
  -22.0134  -28.6178   15.7734 C   0  0  0  0  0  0  0  0  0  0  0  0
  -27.5068  -23.3647   18.1325 C   0  0  0  0  0  0  0  0  0  0  0  0
  -28.3395  -25.1797   20.9557 C   0  0  0  0  0  0  0  0  0  1  0  0
  -20.8905  -29.9723   20.4360 C   0  0  1  0  0  0  0  0  0  0  0  0
  -19.8316  -28.9880   16.9317 C   0  0  2  0  0  0  0  0  0  0  0  0
  -19.8296  -30.2887   21.5277 C   0  0  0  0  0  0  0  0  0  0  0  0
  -26.3319  -11.2028   20.7164 N   0  0  0  0  0  0  0  0  0  0  0  0
  -27.4677  -11.7673   21.1607 N   0  0  0  0  0  0  0  0  0  0  0  0
  -23.3003  -30.4944   20.6463 N   0  0  0  0  0  0  0  0  0  0  0  0
  -28.5301  -15.0636   19.5354 N   0  0  0  0  0  0  0  0  0  0  0  0
  -29.2780  -16.7444   21.0641 N   0  0  0  0  0  0  0  0  0  0  0  0
  -28.9166  -11.8766   23.0314 N   0  0  0  0  0  0  0  0  0  0  0  0
  -25.6757   -9.0388   24.3879 N   0  0  0  0  0  0  0  0  0  0  0  0
  -24.9513  -32.9298   22.6645 N   0  0  0  0  0  0  0  0  0  0  0  0
  -20.3551  -29.9196   19.0799 N   0  0  0  0  0  0  0  0  0  0  0  0
  -20.5841  -28.2305   15.8920 N   0  3  0  0  0  0  0  0  0  0  0  0
  -27.6167  -10.0859   25.0164 O   0  0  0  0  0  0  0  0  0  0  0  0
  -24.3162  -30.7284   23.0805 O   0  0  0  0  0  0  0  0  0  0  0  0
  -21.7470  -32.1694   20.1797 O   0  0  0  0  0  0  0  0  0  0  0  0
  -21.0186  -27.7439   18.6290 O   0  0  0  0  0  0  0  0  0  0  0  0
  -30.6000  -16.0528   19.3066 O   0  0  0  0  0  0  0  0  0  0  0  0
  -21.2541   -7.4232   21.4089 O   0  0  0  0  0  0  0  0  0  0  0  0
  -28.7356  -23.2883   18.8524 O   0  0  0  0  0  0  0  0  0  0  0  0
  -26.9750  -25.5500   21.1056 O   0  0  0  0  0  0  0  0  0  1  0  0
  -21.4264   -2.2160   23.2143 F   0  0  0  0  0  0  0  0  0  0  0  0
  -21.8953   -6.8538   24.0371 F   0  0  0  0  0  0  0  0  0  0  0  0
  1  2  1  0  0  0  0
  1  5  2  0  0  0  0
  2  6  2  0  0  0  0
  3  8  2  0  0  0  0
  3 17  1  0  0  0  0
  4  9  1  0  0  0  0
  4 17  2  0  0  0  0
  5 19  1  0  0  0  0
  6 21  1  0  0  0  0
  7 10  2  0  0  0  0
  7 20  1  0  0  0  0
  8 26  1  0  0  0  0
  9 26  2  0  0  0  0
 10 27  1  0  0  0  0
 11 12  2  0  0  0  0
 11 28  1  0  0  0  0
 12 30  1  0  0  0  0
 13 22  2  0  0  0  0
 13 25  1  0  0  0  0
 14 23  1  0  0  0  0
 14 27  2  0  0  0  0
 15 24  2  0  0  0  0
 15 29  1  0  0  0  0
 16 30  2  0  0  0  0
 16 31  1  0  0  0  0
 17 32  1  0  0  0  0
 18 32  1  0  0  0  0
 18 33  2  0  0  0  0
 18 34  1  0  0  0  0
 19 21  2  0  0  0  0
 19 39  1  0  0  0  0
 20 23  2  0  0  0  0
 20 40  1  0  0  0  0
 21 56  1  0  0  0  0
 22 24  1  0  0  0  0
 22 54  1  0  0  0  0
 23 41  1  0  0  0  0
 24 55  1  0  0  0  0
 25 29  2  0  0  0  0
 25 65  1  0  0  0  0
 26 84  1  0  0  0  0
 27 86  1  0  0  0  0
 28 31  2  0  0  0  0
 28 84  1  0  0  0  0
 29 85  1  0  0  0  0
 30 87  1  0  0  0  0
 31 88  1  0  0  0  0
 32 69  2  0  0  0  0
 33 70  1  0  0  0  0
 33 74  1  0  0  0  0
 34 75  1  0  0  0  0
 34 79  2  0  0  0  0
 35 57  1  0  0  0  0
 35 76  1  0  0  0  0
 35 80  2  0  0  0  0
 36 66  1  0  0  0  0
 36 71  1  0  0  0  0
 36 81  2  0  0  0  0
 37 67  1  0  0  0  0
 37 77  1  0  0  0  0
 37 82  2  0  0  0  0
 38 72  1  0  0  0  0
 38 73  1  0  0  0  0
 38 83  2  0  0  0  0
 39 42  1  0  0  0  0
 40 57  1  0  0  0  0
 41 71  1  0  0  0  0
 42 46  1  0  0  0  0
 43 47  1  0  0  0  0
 43 50  1  0  0  0  0
 44 45  1  0  0  0  0
 44 54  1  0  0  0  0
 45 54  1  0  0  0  0
 46 56  1  0  0  0  0
 47 58  1  0  0  0  0
 48 51  1  0  0  0  0
 48 55  1  0  0  0  0
 49 52  1  0  0  0  0
 49 55  1  0  0  0  0
 50 72  1  0  0  0  0
 51 73  1  0  0  0  0
 52 73  1  0  0  0  0
 53 58  1  0  0  0  0
 53 72  1  0  0  0  0
 56 76  1  0  0  0  0
 57 71  1  0  0  0  0
 58 70  1  0  0  0  0
 59 67  1  0  0  0  0
 60 68  1  0  0  0  0
 61 68  1  0  0  0  0
 62 68  1  0  0  0  0
 63 78  1  0  0  0  0
 64 85  1  0  0  0  0
 65 86  1  0  0  0  0
 66 68  1  0  0  0  0
 66 77  1  0  0  0  0
 67 78  1  0  0  0  0
 69 70  1  0  0  0  0
M  CHG  1  78   1
M  ISO  4  38 100  65 101  73 100  86 101
M  END
> <Batch ID>
0152

> <Smiles>
CNC(C)C(=O)NC(C(=O)N1Cc2cc([101O:1][101CH2:1]c3cc(C4CC4)c(C4CC[100N:0]([100C:0](=O)N5CCCC(n6nc(-c7ccc(Oc8ccc(F)cc8F)cc7)c(C(N)=O)c6N)C5)CC4)cc3OC)ccc2CC1C(=O)NC1CCCc2ccccc21)C(C)(C)C

> <Shape>
0.308

> <Color>
0.098

> <Negative vol penalty>
0.000

$$$$

  -OEChem-04052321463D

 80 89  0     1  0  0  0  0  0999 V2000
  -24.5216  -35.2692   23.5738 C   0  0  0  0  0  0  0  0  0  0  0  0
  -24.7687  -34.8294   22.2782 C   0  0  0  0  0  0  0  0  0  0  0  0
  -24.1121   -9.8226   21.9830 C   0  0  0  0  0  0  0  0  0  0  0  0
  -22.7846  -10.1251   19.9872 C   0  0  0  0  0  0  0  0  0  0  0  0
  -24.9356  -34.4986   24.6582 C   0  0  0  0  0  0  0  0  0  0  0  0
  -25.4193  -33.6133   22.0666 C   0  0  0  0  0  0  0  0  0  0  0  0
  -28.1940  -26.2751   19.2643 C   0  0  0  0  0  0  0  0  0  0  0  0
  -23.5172   -8.5782   22.1901 C   0  0  0  0  0  0  0  0  0  0  0  0
  -22.1897   -8.8806   20.1943 C   0  0  0  0  0  0  0  0  0  0  0  0
  -28.5674  -25.0736   19.8649 C   0  0  0  0  0  0  0  0  0  0  0  0
  -20.5995   -7.3847   23.4094 C   0  0  0  0  0  0  0  0  0  0  0  0
  -20.1749   -7.0772   24.7020 C   0  0  0  0  0  0  0  0  0  0  0  0
  -26.7325  -25.2859   21.4165 C   0  0  0  0  0  0  0  0  0  0  0  0
  -21.6601   -5.1720   24.7368 C   0  0  0  0  0  0  0  0  0  0  0  0
  -23.7458  -10.5962   20.8815 C   0  0  0  0  0  0  0  0  0  0  0  0
  -25.7284  -12.1494   20.4762 C   0  0  0  0  0  0  0  0  0  0  0  0
  -25.6026  -33.2786   24.4589 C   0  0  0  0  0  0  0  0  0  0  0  0
  -27.0917  -26.9977   19.7430 C   0  0  0  0  0  0  0  0  0  0  0  0
  -25.8236  -32.8097   23.1479 C   0  0  0  0  0  0  0  0  0  0  0  0
  -26.3456  -26.4950   20.8186 C   0  0  0  0  0  0  0  0  0  0  0  0
  -22.5560   -8.1071   21.2958 C   0  0  0  0  0  0  0  0  0  0  0  0
  -27.8384  -24.5802   20.9430 C   0  0  0  0  0  0  0  0  0  0  0  0
  -21.5544   -6.5857   22.7805 C   0  0  0  0  0  0  0  0  0  0  0  0
  -20.7052   -5.9709   25.3657 C   0  0  0  0  0  0  0  0  0  0  0  0
  -22.0847   -5.4794   23.4442 C   0  0  0  0  0  0  0  0  0  0  0  0
  -24.3596  -11.8821   20.6673 C   0  0  0  0  0  0  0  0  0  0  0  0
  -25.7933  -13.5122   20.3182 C   0  0  0  0  0  0  0  0  0  0  0  0
  -26.8418  -11.2465   20.4443 C   0  0  0  0  0  0  0  0  0  0  0  0
  -26.6807  -29.8830   21.0119 C   0  0  0  0  0  0  0  0  0  0  0  0
  -23.5403  -29.0947   20.8146 C   0  0  0  0  0  0  0  0  0  0  0  0
  -21.5160  -26.1709   21.4233 C   0  0  0  0  0  0  0  0  0  0  0  0
  -24.3217  -18.6452   21.7671 C   0  0  0  0  0  0  0  0  0  0  0  0
  -26.0218  -32.4808   25.6685 C   0  0  0  0  0  0  0  0  0  0  0  0
  -26.6858  -28.2787   19.0672 C   0  0  0  0  0  0  0  0  0  0  0  0
  -25.1419  -27.2224   21.3574 C   0  0  0  0  0  0  0  0  0  0  0  0
  -27.0873  -31.4365   25.3518 C   0  0  0  0  0  0  0  0  0  0  0  0
  -22.1524  -16.9358   19.6234 C   0  0  0  0  0  0  0  0  0  0  0  0
  -26.6686  -30.6177   24.1398 C   0  0  0  0  0  0  0  0  0  0  0  0
  -22.6266  -15.4856   19.6915 C   0  0  0  0  0  0  0  0  0  0  0  0
  -25.8827  -17.6545   24.7680 C   0  0  0  0  0  0  0  0  0  0  0  0
  -24.8891  -16.7465   24.1070 C   0  0  0  0  0  0  0  0  0  0  0  0
  -25.9520  -20.8108   23.0549 C   0  0  0  0  0  0  0  0  0  0  0  0
  -26.8615  -19.9512   20.8547 C   0  0  0  0  0  0  0  0  0  0  0  0
  -26.8975  -22.0063   22.9741 C   0  0  0  0  0  0  0  0  0  0  0  0
  -27.8035  -21.1500   20.7802 C   0  0  0  0  0  0  0  0  0  0  0  0
  -22.2191  -17.5937   20.9959 C   0  0  0  0  0  0  0  0  0  0  0  0
  -24.0832  -16.1153   21.6831 C   0  0  0  0  0  0  0  0  0  0  0  0
  -26.5567  -31.5050   22.8935 C   0  0  1  0  0  0  0  0  0  0  0  0
  -25.8551  -29.1906   19.9647 C   0  0  1  0  0  0  0  0  0  0  0  0
  -24.0276  -15.3967   20.3192 C   0  0  1  0  0  0  0  0  0  0  0  0
  -25.9399  -17.4363   23.2808 C   0  0  0  0  0  0  0  0  0  0  0  0
  -26.5170  -19.6012   22.3047 C   0  0  0  0  0  0  0  0  0  0  0  0
  -27.2410  -22.3573   21.5283 C   0  0  0  0  0  0  0  0  0  1  0  0
  -19.3224  -25.4689   20.4268 C   0  0  0  0  0  0  0  0  0  0  0  0
  -22.3232  -30.4764   23.2476 C   0  0  0  0  0  0  0  0  0  0  0  0
  -20.6209  -28.6433   23.3499 C   0  0  0  0  0  0  0  0  0  0  0  0
  -20.7375  -30.1243   21.3460 C   0  0  0  0  0  0  0  0  0  0  0  0
  -22.6099  -23.5584   20.5644 C   0  0  0  0  0  0  0  0  0  0  0  0
  -22.5521  -28.4048   21.7237 C   0  0  1  0  0  0  0  0  0  0  0  0
  -20.8336  -25.3047   20.3799 C   0  0  2  0  0  0  0  0  0  0  0  0
  -21.5862  -29.4062   22.4178 C   0  0  0  0  0  0  0  0  0  0  0  0
  -23.6090  -12.9864   20.6343 N   0  0  0  0  0  0  0  0  0  0  0  0
  -24.5094  -13.9609   20.4206 N   0  0  0  0  0  0  0  0  0  0  0  0
  -24.7887  -28.4737   20.6669 N   0  0  0  0  0  0  0  0  0  0  0  0
  -23.5579  -17.4845   21.5769 N   0  0  0  0  0  0  0  0  0  0  0  0
  -26.8228  -14.3586   20.1031 N   0  0  0  0  0  0  0  0  0  0  0  0
  -27.2170  -10.6917   19.2132 N   0  0  0  0  0  0  0  0  0  0  0  0
  -25.9595  -30.7398   21.8213 N   0  0  0  0  0  0  0  0  0  0  0  0
  -21.8830  -27.3964   20.9089 N   0  0  0  0  0  0  0  0  0  0  0  0
  -25.5916  -18.4951   22.3506 N   0  0  0  0  0  0  0  0  0  0  0  0
  -21.1575  -23.8679   20.6071 N   0  3  0  0  0  0  0  0  0  0  0  0
  -27.4745  -10.9281   21.4796 O   0  0  0  0  0  0  0  0  0  0  0  0
  -27.8828  -29.6555   21.0814 O   0  0  0  0  0  0  0  0  0  0  0  0
  -23.2141  -30.1421   20.2506 O   0  0  0  0  0  0  0  0  0  0  0  0
  -21.7013  -25.7990   22.5799 O   0  0  0  0  0  0  0  0  0  0  0  0
  -23.8877  -19.7615   21.4539 O   0  0  0  0  0  0  0  0  0  0  0  0
  -21.9755   -6.8927   21.4975 O   0  0  0  0  0  0  0  0  0  0  0  0
  -28.2011  -23.4081   21.5315 O   0  0  0  0  0  0  0  0  0  1  0  0
  -20.2984   -5.6768   26.6075 F   0  0  0  0  0  0  0  0  0  0  0  0
  -23.0032   -4.7088   22.8455 F   0  0  0  0  0  0  0  0  0  0  0  0
  1  2  1  0  0  0  0
  1  5  2  0  0  0  0
  2  6  2  0  0  0  0
  3  8  2  0  0  0  0
  3 15  1  0  0  0  0
  4  9  1  0  0  0  0
  4 15  2  0  0  0  0
  5 17  1  0  0  0  0
  6 19  1  0  0  0  0
  7 10  2  0  0  0  0
  7 18  1  0  0  0  0
  8 21  1  0  0  0  0
  9 21  2  0  0  0  0
 10 22  1  0  0  0  0
 11 12  2  0  0  0  0
 11 23  1  0  0  0  0
 12 24  1  0  0  0  0
 13 20  1  0  0  0  0
 13 22  2  0  0  0  0
 14 24  2  0  0  0  0
 14 25  1  0  0  0  0
 15 26  1  0  0  0  0
 16 26  1  0  0  0  0
 16 27  2  0  0  0  0
 16 28  1  0  0  0  0
 17 19  2  0  0  0  0
 17 33  1  0  0  0  0
 18 20  2  0  0  0  0
 18 34  1  0  0  0  0
 19 48  1  0  0  0  0
 20 35  1  0  0  0  0
 21 77  1  0  0  0  0
 22 78  1  0  0  0  0
 23 25  2  0  0  0  0
 23 77  1  0  0  0  0
 24 79  1  0  0  0  0
 25 80  1  0  0  0  0
 26 62  2  0  0  0  0
 27 63  1  0  0  0  0
 27 66  1  0  0  0  0
 28 67  1  0  0  0  0
 28 72  2  0  0  0  0
 29 49  1  0  0  0  0
 29 68  1  0  0  0  0
 29 73  2  0  0  0  0
 30 59  1  0  0  0  0
 30 64  1  0  0  0  0
 30 74  2  0  0  0  0
 31 60  1  0  0  0  0
 31 69  1  0  0  0  0
 31 75  2  0  0  0  0
 32 65  1  0  0  0  0
 32 70  1  0  0  0  0
 32 76  2  0  0  0  0
 33 36  1  0  0  0  0
 34 49  1  0  0  0  0
 35 64  1  0  0  0  0
 36 38  1  0  0  0  0
 37 39  1  0  0  0  0
 37 46  1  0  0  0  0
 38 48  1  0  0  0  0
 39 50  1  0  0  0  0
 40 41  1  0  0  0  0
 40 51  1  0  0  0  0
 41 51  1  0  0  0  0
 42 44  1  0  0  0  0
 42 52  1  0  0  0  0
 43 45  1  0  0  0  0
 43 52  1  0  0  0  0
 44 53  1  0  0  0  0
 45 53  1  0  0  0  0
 46 65  1  0  0  0  0
 47 50  1  0  0  0  0
 47 65  1  0  0  0  0
 48 68  1  0  0  0  0
 49 64  1  0  0  0  0
 50 63  1  0  0  0  0
 51 70  1  0  0  0  0
 52 70  1  0  0  0  0
 53 78  1  0  0  0  0
 54 60  1  0  0  0  0
 55 61  1  0  0  0  0
 56 61  1  0  0  0  0
 57 61  1  0  0  0  0
 58 71  1  0  0  0  0
 59 61  1  0  0  0  0
 59 69  1  0  0  0  0
 60 71  1  0  0  0  0
 62 63  1  0  0  0  0
M  CHG  1  71   1
M  ISO  4  32 100  53 101  70 100  78 101
M  END
> <Batch ID>
0152

> <Smiles>
CNC(C)C(=O)NC(C(=O)N1Cc2cc([101O:1][101CH:1]3CCC([100N:0](C4CC4)[100C:0](=O)N4CCCC(n5nc(-c6ccc(Oc7ccc(F)cc7F)cc6)c(C(N)=O)c5N)C4)CC3)ccc2CC1C(=O)NC1CCCc2ccccc21)C(C)(C)C

> <Shape>
0.307

> <Color>
0.077

> <Negative vol penalty>
0.000

$$$$

  -OEChem-04052321463D

 87 96  0     1  0  0  0  0  0999 V2000
  -28.6524  -36.2954   24.3698 C   0  0  0  0  0  0  0  0  0  0  0  0
  -28.9303  -34.9913   23.9729 C   0  0  0  0  0  0  0  0  0  0  0  0
  -23.6943  -10.5198   22.5286 C   0  0  0  0  0  0  0  0  0  0  0  0
  -24.4633   -8.6802   21.1643 C   0  0  0  0  0  0  0  0  0  0  0  0
  -27.3665  -36.6370   24.7864 C   0  0  0  0  0  0  0  0  0  0  0  0
  -27.9226  -34.0277   23.9934 C   0  0  0  0  0  0  0  0  0  0  0  0
  -27.1962  -29.3764   20.0764 C   0  0  0  0  0  0  0  0  0  0  0  0
  -22.5546   -9.7911   22.8688 C   0  0  0  0  0  0  0  0  0  0  0  0
  -23.3236   -7.9514   21.5045 C   0  0  0  0  0  0  0  0  0  0  0  0
  -27.5377  -28.0266   20.1494 C   0  0  0  0  0  0  0  0  0  0  0  0
  -20.7918   -5.4667   22.3006 C   0  0  0  0  0  0  0  0  0  0  0  0
  -20.9587   -4.1275   22.6531 C   0  0  0  0  0  0  0  0  0  0  0  0
  -27.8146  -21.6916   19.7268 C   0  0  0  0  0  0  0  0  0  0  0  0
  -25.3034  -27.5079   20.8964 C   0  0  0  0  0  0  0  0  0  0  0  0
  -29.3838  -23.4239   21.2497 C   0  0  0  0  0  0  0  0  0  0  0  0
  -22.3911   -4.7876   24.4833 C   0  0  0  0  0  0  0  0  0  0  0  0
  -24.6487   -9.9643   21.6763 C   0  0  0  0  0  0  0  0  0  0  0  0
  -27.0602  -10.7304   22.0011 C   0  0  0  0  0  0  0  0  0  0  0  0
  -26.3401  -35.6795   24.8028 C   0  0  0  0  0  0  0  0  0  0  0  0
  -25.9068  -29.8041   20.4239 C   0  0  0  0  0  0  0  0  0  0  0  0
  -26.6220  -34.3565   24.4119 C   0  0  0  0  0  0  0  0  0  0  0  0
  -28.7740  -21.1783   20.5994 C   0  0  0  0  0  0  0  0  0  0  0  0
  -24.9473  -28.8634   20.8245 C   0  0  0  0  0  0  0  0  0  0  0  0
  -27.6397  -23.0710   19.6155 C   0  0  0  0  0  0  0  0  0  0  0  0
  -29.5586  -22.0445   21.3610 C   0  0  0  0  0  0  0  0  0  0  0  0
  -28.4243  -23.9371   20.3770 C   0  0  0  0  0  0  0  0  0  0  0  0
  -22.3693   -8.5070   22.3567 C   0  0  0  0  0  0  0  0  0  0  0  0
  -26.5921  -27.0925   20.5622 C   0  0  0  0  0  0  0  0  0  0  0  0
  -21.4247   -6.4664   23.0394 C   0  0  0  0  0  0  0  0  0  0  0  0
  -21.7583   -3.7879   23.7444 C   0  0  0  0  0  0  0  0  0  0  0  0
  -22.2242   -6.1269   24.1307 C   0  0  0  0  0  0  0  0  0  0  0  0
  -25.8259  -10.7168   21.3241 C   0  0  0  0  0  0  0  0  0  0  0  0
  -27.8411  -11.5951   21.2738 C   0  0  0  0  0  0  0  0  0  0  0  0
  -27.4646  -10.0245   23.1817 C   0  0  0  0  0  0  0  0  0  0  0  0
  -24.7070  -31.7380   22.6430 C   0  0  0  0  0  0  0  0  0  0  0  0
  -21.9315  -31.2047   21.0510 C   0  0  0  0  0  0  0  0  0  0  0  0
  -20.1155  -29.1761   18.9934 C   0  0  0  0  0  0  0  0  0  0  0  0
  -28.6484  -16.2397   18.4814 C   0  0  0  0  0  0  0  0  0  0  0  0
  -24.9773  -36.0846   25.3060 C   0  0  0  0  0  0  0  0  0  0  0  0
  -25.5464  -31.2603   20.3142 C   0  0  0  0  0  0  0  0  0  0  0  0
  -23.5433  -29.2686   21.1890 C   0  0  0  0  0  0  0  0  0  0  0  0
  -23.8743  -35.0940   24.9421 C   0  0  0  0  0  0  0  0  0  0  0  0
  -27.1068  -13.6859   16.7350 C   0  0  0  0  0  0  0  0  0  0  0  0
  -24.3219  -33.6655   25.2351 C   0  0  0  0  0  0  0  0  0  0  0  0
  -26.7330  -12.6772   17.8208 C   0  0  0  0  0  0  0  0  0  0  0  0
  -27.6173  -18.9263   20.4906 C   0  0  0  0  0  0  0  0  0  0  0  0
  -30.0253  -19.1485   19.7411 C   0  0  0  0  0  0  0  0  0  0  0  0
  -26.8507  -15.1132   17.2047 C   0  0  0  0  0  0  0  0  0  0  0  0
  -27.8036  -17.4081   20.5651 C   0  0  0  0  0  0  0  0  0  0  0  0
  -30.1621  -17.6332   19.8582 C   0  0  0  0  0  0  0  0  0  0  0  0
  -27.1954  -14.4677   19.5675 C   0  0  0  0  0  0  0  0  0  0  0  0
  -28.9455  -19.6746   20.7039 C   0  0  0  0  0  0  0  0  0  0  0  0
  -25.5495  -33.2890   24.3967 C   0  0  1  0  0  0  0  0  0  0  0  0
  -24.3553  -31.6483   21.1850 C   0  0  1  0  0  0  0  0  0  0  0  0
  -27.4416  -13.0044   19.1472 C   0  0  1  0  0  0  0  0  0  0  0  0
  -26.6069  -23.5974   18.6739 C   0  0  0  0  0  0  0  0  0  0  0  0
  -30.0587  -21.3176   23.7211 C   0  0  0  0  0  0  0  0  0  0  0  0
  -17.8652  -28.9867   17.8989 C   0  0  0  0  0  0  0  0  0  0  0  0
  -20.7064  -30.3738   23.7191 C   0  0  0  0  0  0  0  0  0  0  0  0
  -18.8259  -29.3180   22.4475 C   0  0  0  0  0  0  0  0  0  0  0  0
  -19.2179  -31.7758   22.2792 C   0  0  0  0  0  0  0  0  0  0  0  0
  -21.3020  -29.2134   16.2824 C   0  0  0  0  0  0  0  0  0  0  0  0
  -28.2556  -25.4175   20.2741 C   0  0  0  0  0  0  0  0  0  1  0  0
  -30.5916  -21.5180   22.3024 C   0  0  2  0  0  0  0  0  0  0  0  0
  -20.8231  -30.1842   21.1468 C   0  0  1  0  0  0  0  0  0  0  0  0
  -19.2978  -29.4749   17.7498 C   0  0  2  0  0  0  0  0  0  0  0  0
  -19.9203  -30.4052   22.3932 C   0  0  0  0  0  0  0  0  0  0  0  0
  -25.8184  -11.5099   20.2495 N   0  0  0  0  0  0  0  0  0  0  0  0
  -27.0575  -12.0302   20.2457 N   0  0  0  0  0  0  0  0  0  0  0  0
  -23.2412  -30.7047   21.0717 N   0  0  0  0  0  0  0  0  0  0  0  0
  -27.5370  -15.3836   18.4679 N   0  0  0  0  0  0  0  0  0  0  0  0
  -28.8734  -16.9712   19.6573 N   0  0  0  0  0  0  0  0  0  0  0  0
  -29.1147  -12.0182   21.4199 N   0  0  0  0  0  0  0  0  0  0  0  0
  -26.5379   -9.1768   23.8037 N   0  0  0  0  0  0  0  0  0  0  0  0
  -25.1586  -32.9830   23.0373 N   0  0  0  0  0  0  0  0  0  0  0  0
  -20.1096  -30.2360   19.8754 N   0  0  0  0  0  0  0  0  0  0  0  0
  -19.9002  -28.8079   16.5611 N   0  3  0  0  0  0  0  0  0  0  0  0
  -28.6085  -10.1546   23.6799 O   0  0  0  0  0  0  0  0  0  0  0  0
  -24.5768  -30.7511   23.3578 O   0  0  0  0  0  0  0  0  0  0  0  0
  -21.6456  -32.4007   20.9539 O   0  0  0  0  0  0  0  0  0  0  0  0
  -20.6979  -28.1078   19.1669 O   0  0  0  0  0  0  0  0  0  0  0  0
  -29.3966  -16.3443   17.5014 O   0  0  0  0  0  0  0  0  0  0  0  0
  -31.6838  -22.4417   22.3595 O   0  0  0  0  0  0  0  0  0  0  0  0
  -21.2574   -7.7955   22.6886 O   0  0  0  0  0  0  0  0  0  0  0  0
  -26.9254  -25.7652   20.6354 O   0  0  0  0  0  0  0  0  0  1  0  0
  -21.9171   -2.5019   24.0838 F   0  0  0  0  0  0  0  0  0  0  0  0
  -22.8338   -7.0830   24.8450 F   0  0  0  0  0  0  0  0  0  0  0  0
  1  2  1  0  0  0  0
  1  5  2  0  0  0  0
  2  6  2  0  0  0  0
  3  8  2  0  0  0  0
  3 17  1  0  0  0  0
  4  9  1  0  0  0  0
  4 17  2  0  0  0  0
  5 19  1  0  0  0  0
  6 21  1  0  0  0  0
  7 10  2  0  0  0  0
  7 20  1  0  0  0  0
  8 27  1  0  0  0  0
  9 27  2  0  0  0  0
 10 28  1  0  0  0  0
 11 12  2  0  0  0  0
 11 29  1  0  0  0  0
 12 30  1  0  0  0  0
 13 22  2  0  0  0  0
 13 24  1  0  0  0  0
 14 23  1  0  0  0  0
 14 28  2  0  0  0  0
 15 25  2  0  0  0  0
 15 26  1  0  0  0  0
 16 30  2  0  0  0  0
 16 31  1  0  0  0  0
 17 32  1  0  0  0  0
 18 32  1  0  0  0  0
 18 33  2  0  0  0  0
 18 34  1  0  0  0  0
 19 21  2  0  0  0  0
 19 39  1  0  0  0  0
 20 23  2  0  0  0  0
 20 40  1  0  0  0  0
 21 53  1  0  0  0  0
 22 25  1  0  0  0  0
 22 52  1  0  0  0  0
 23 41  1  0  0  0  0
 24 26  2  0  0  0  0
 24 56  1  0  0  0  0
 25 64  1  0  0  0  0
 26 63  1  0  0  0  0
 27 84  1  0  0  0  0
 28 85  1  0  0  0  0
 29 31  2  0  0  0  0
 29 84  1  0  0  0  0
 30 86  1  0  0  0  0
 31 87  1  0  0  0  0
 32 68  2  0  0  0  0
 33 69  1  0  0  0  0
 33 73  1  0  0  0  0
 34 74  1  0  0  0  0
 34 78  2  0  0  0  0
 35 54  1  0  0  0  0
 35 75  1  0  0  0  0
 35 79  2  0  0  0  0
 36 65  1  0  0  0  0
 36 70  1  0  0  0  0
 36 80  2  0  0  0  0
 37 66  1  0  0  0  0
 37 76  1  0  0  0  0
 37 81  2  0  0  0  0
 38 71  1  0  0  0  0
 38 72  1  0  0  0  0
 38 82  2  0  0  0  0
 39 42  1  0  0  0  0
 40 54  1  0  0  0  0
 41 70  1  0  0  0  0
 42 44  1  0  0  0  0
 43 45  1  0  0  0  0
 43 48  1  0  0  0  0
 44 53  1  0  0  0  0
 45 55  1  0  0  0  0
 46 49  1  0  0  0  0
 46 52  1  0  0  0  0
 47 50  1  0  0  0  0
 47 52  1  0  0  0  0
 48 71  1  0  0  0  0
 49 72  1  0  0  0  0
 50 72  1  0  0  0  0
 51 55  1  0  0  0  0
 51 71  1  0  0  0  0
 53 75  1  0  0  0  0
 54 70  1  0  0  0  0
 55 69  1  0  0  0  0
 57 64  1  0  0  0  0
 58 66  1  0  0  0  0
 59 67  1  0  0  0  0
 60 67  1  0  0  0  0
 61 67  1  0  0  0  0
 62 77  1  0  0  0  0
 63 85  1  0  0  0  0
 64 83  1  0  0  0  0
 65 67  1  0  0  0  0
 65 76  1  0  0  0  0
 66 77  1  0  0  0  0
 68 69  1  0  0  0  0
M  CHG  1  77   1
M  ISO  4  38 100  63 101  72 100  85 101
M  END
> <Batch ID>
0152

> <Smiles>
CNC(C)C(=O)NC(C(=O)N1Cc2cc([101O:1][101CH2:1]c3cc(C(C)O)c(C4CC[100N:0]([100C:0](=O)N5CCCC(n6nc(-c7ccc(Oc8ccc(F)cc8F)cc7)c(C(N)=O)c6N)C5)CC4)cc3C)ccc2CC1C(=O)NC1CCCc2ccccc21)C(C)(C)C

> <Shape>
0.310

> <Color>
0.083

> <Negative vol penalty>
0.000

$$$$

  -OEChem-04052321463D

 86 95  0     1  0  0  0  0  0999 V2000
  -28.1644  -33.0573   26.9258 C   0  0  0  0  0  0  0  0  0  0  0  0
  -28.1167  -31.8628   26.2142 C   0  0  0  0  0  0  0  0  0  0  0  0
  -22.9844  -10.4000   21.1804 C   0  0  0  0  0  0  0  0  0  0  0  0
  -24.7055   -8.7297   21.4714 C   0  0  0  0  0  0  0  0  0  0  0  0
  -27.0113  -33.8275   27.0709 C   0  0  0  0  0  0  0  0  0  0  0  0
  -26.9154  -31.4372   25.6483 C   0  0  0  0  0  0  0  0  0  0  0  0
  -27.4904  -29.7555   20.9063 C   0  0  0  0  0  0  0  0  0  0  0  0
  -22.0071   -9.4089   21.2714 C   0  0  0  0  0  0  0  0  0  0  0  0
  -23.7283   -7.7386   21.5625 C   0  0  0  0  0  0  0  0  0  0  0  0
  -28.0126  -28.4730   20.7445 C   0  0  0  0  0  0  0  0  0  0  0  0
  -21.6722   -4.8159   22.2324 C   0  0  0  0  0  0  0  0  0  0  0  0
  -21.8045   -3.8647   23.2439 C   0  0  0  0  0  0  0  0  0  0  0  0
  -25.7858  -27.6181   20.3842 C   0  0  0  0  0  0  0  0  0  0  0  0
  -27.3885  -22.8962   21.0200 C   0  0  0  0  0  0  0  0  0  0  0  0
  -21.7078   -5.6169   24.9045 C   0  0  0  0  0  0  0  0  0  0  0  0
  -24.3336  -10.0604   21.2803 C   0  0  0  0  0  0  0  0  0  0  0  0
  -25.8942  -11.8348   22.2415 C   0  0  0  0  0  0  0  0  0  0  0  0
  -25.7975  -33.4159   26.4982 C   0  0  0  0  0  0  0  0  0  0  0  0
  -26.1085  -29.9775   20.8190 C   0  0  0  0  0  0  0  0  0  0  0  0
  -25.7447  -32.2019   25.7870 C   0  0  0  0  0  0  0  0  0  0  0  0
  -25.2488  -28.9048   20.5428 C   0  0  0  0  0  0  0  0  0  0  0  0
  -27.4662  -23.8009   19.9612 C   0  0  0  0  0  0  0  0  0  0  0  0
  -28.0594  -21.6756   20.9451 C   0  0  0  0  0  0  0  0  0  0  0  0
  -28.2148  -23.4849   18.8274 C   0  0  0  0  0  0  0  0  0  0  0  0
  -28.8857  -22.2643   18.7525 C   0  0  0  0  0  0  0  0  0  0  0  0
  -28.8079  -21.3596   19.8113 C   0  0  0  0  0  0  0  0  0  0  0  0
  -22.3791   -8.0782   21.4625 C   0  0  0  0  0  0  0  0  0  0  0  0
  -27.1601  -27.4036   20.4863 C   0  0  0  0  0  0  0  0  0  0  0  0
  -21.5578   -6.1677   22.5569 C   0  0  0  0  0  0  0  0  0  0  0  0
  -21.8223   -4.2651   24.5800 C   0  0  0  0  0  0  0  0  0  0  0  0
  -21.5756   -6.5682   23.8929 C   0  0  0  0  0  0  0  0  0  0  0  0
  -25.3436  -11.0837   21.1858 C   0  0  0  0  0  0  0  0  0  0  0  0
  -26.8040  -12.6652   21.6340 C   0  0  0  0  0  0  0  0  0  0  0  0
  -25.6088  -11.7860   23.6458 C   0  0  0  0  0  0  0  0  0  0  0  0
  -23.8776  -31.0456   22.8155 C   0  0  0  0  0  0  0  0  0  0  0  0
  -21.9929  -30.8788   20.1806 C   0  0  0  0  0  0  0  0  0  0  0  0
  -21.4154  -29.4961   17.1144 C   0  0  0  0  0  0  0  0  0  0  0  0
  -27.8487  -16.2423   17.3925 C   0  0  0  0  0  0  0  0  0  0  0  0
  -24.5667  -34.2584   26.7220 C   0  0  0  0  0  0  0  0  0  0  0  0
  -25.5635  -31.3713   20.9694 C   0  0  0  0  0  0  0  0  0  0  0  0
  -23.7596  -29.0935   20.4193 C   0  0  0  0  0  0  0  0  0  0  0  0
  -23.4186  -33.9235   25.7733 C   0  0  0  0  0  0  0  0  0  0  0  0
  -28.6277  -12.6869   16.9181 C   0  0  0  0  0  0  0  0  0  0  0  0
  -23.2165  -32.4138   25.6918 C   0  0  0  0  0  0  0  0  0  0  0  0
  -27.8457  -12.0151   18.0477 C   0  0  0  0  0  0  0  0  0  0  0  0
  -29.7978  -17.7391   20.1270 C   0  0  0  0  0  0  0  0  0  0  0  0
  -27.9510  -13.9688   16.4380 C   0  0  0  0  0  0  0  0  0  0  0  0
  -29.0382  -16.5065   19.6478 C   0  0  0  0  0  0  0  0  0  0  0  0
  -26.8668  -14.2647   18.6312 C   0  0  0  0  0  0  0  0  0  0  0  0
  -28.2510  -18.4408   18.4631 C   0  0  0  0  0  0  0  0  0  0  0  0
  -24.4661  -31.7190   25.1373 C   0  0  1  0  0  0  0  0  0  0  0  0
  -24.0918  -31.3973   21.3704 C   0  0  1  0  0  0  0  0  0  0  0  0
  -27.5521  -13.0088   19.1872 C   0  0  1  0  0  0  0  0  0  0  0  0
  -28.8195  -18.8645   19.8090 C   0  0  2  0  0  0  0  0  0  0  0  0
  -27.9575  -20.7269   22.0952 C   0  0  0  0  0  0  0  0  0  0  0  0
  -28.2959  -24.4575   17.6934 C   0  0  0  0  0  0  0  0  0  0  0  0
  -29.6877  -21.9288   17.5338 C   0  0  0  0  0  0  0  0  0  0  0  0
  -20.3059  -29.1414   14.8917 C   0  0  0  0  0  0  0  0  0  0  0  0
  -20.0598  -29.1842   21.8241 C   0  0  0  0  0  0  0  0  0  0  0  0
  -18.9727  -28.4734   19.6837 C   0  0  0  0  0  0  0  0  0  0  0  0
  -18.9646  -30.8784   20.3461 C   0  0  0  0  0  0  0  0  0  0  0  0
  -23.1154  -31.5373   15.8097 C   0  0  0  0  0  0  0  0  0  0  0  0
  -26.7383  -25.1011   20.0663 C   0  0  0  0  0  0  0  0  0  1  0  0
  -21.1194  -29.8175   19.5565 C   0  0  1  0  0  0  0  0  0  0  0  0
  -21.0576  -30.1219   15.7785 C   0  0  2  0  0  0  0  0  0  0  0  0
  -19.8069  -29.5842   20.3568 C   0  0  0  0  0  0  0  0  0  0  0  0
  -25.8603  -11.4084   19.9977 N   0  0  0  0  0  0  0  0  0  0  0  0
  -26.7451  -12.3728   20.3032 N   0  0  0  0  0  0  0  0  0  0  0  0
  -23.2743  -30.4741   20.5806 N   0  0  0  0  0  0  0  0  0  0  0  0
  -27.6689  -14.8649   17.5597 N   0  0  0  0  0  0  0  0  0  0  0  0
  -28.2559  -16.9804   18.5032 N   0  0  0  0  0  0  0  0  0  0  0  0
  -27.6406  -13.6099   22.1138 N   0  0  0  0  0  0  0  0  0  0  0  0
  -24.6463  -10.8745   24.1007 N   0  0  0  0  0  0  0  0  0  0  0  0
  -29.4745  -20.1440   19.7384 N   0  0  0  0  0  0  0  0  0  0  0  0
  -24.5368  -31.8773   23.7005 N   0  0  0  0  0  0  0  0  0  0  0  0
  -20.9102  -30.2239   18.1710 N   0  0  0  0  0  0  0  0  0  0  0  0
  -22.2909  -30.5535   15.0618 N   0  3  0  0  0  0  0  0  0  0  0  0
  -26.1784  -12.5402   24.4706 O   0  0  0  0  0  0  0  0  0  0  0  0
  -23.1658  -30.0913   23.1060 O   0  0  0  0  0  0  0  0  0  0  0  0
  -21.5571  -32.0264   20.3020 O   0  0  0  0  0  0  0  0  0  0  0  0
  -22.0738  -28.4628   17.2110 O   0  0  0  0  0  0  0  0  0  0  0  0
  -27.6982  -16.7823   16.2885 O   0  0  0  0  0  0  0  0  0  0  0  0
  -21.4257   -7.1109   21.5516 O   0  0  0  0  0  0  0  0  0  0  0  0
  -27.6708  -26.1417   20.3275 O   0  0  0  0  0  0  0  0  0  1  0  0
  -21.9478   -3.3513   25.5513 F   0  0  0  0  0  0  0  0  0  0  0  0
  -21.4648   -7.8653   24.2109 F   0  0  0  0  0  0  0  0  0  0  0  0
  1  2  1  0  0  0  0
  1  5  2  0  0  0  0
  2  6  2  0  0  0  0
  3  8  2  0  0  0  0
  3 16  1  0  0  0  0
  4  9  1  0  0  0  0
  4 16  2  0  0  0  0
  5 18  1  0  0  0  0
  6 20  1  0  0  0  0
  7 10  2  0  0  0  0
  7 19  1  0  0  0  0
  8 27  1  0  0  0  0
  9 27  2  0  0  0  0
 10 28  1  0  0  0  0
 11 12  2  0  0  0  0
 11 29  1  0  0  0  0
 12 30  1  0  0  0  0
 13 21  1  0  0  0  0
 13 28  2  0  0  0  0
 14 22  1  0  0  0  0
 14 23  2  0  0  0  0
 15 30  2  0  0  0  0
 15 31  1  0  0  0  0
 16 32  1  0  0  0  0
 17 32  1  0  0  0  0
 17 33  2  0  0  0  0
 17 34  1  0  0  0  0
 18 20  2  0  0  0  0
 18 39  1  0  0  0  0
 19 21  2  0  0  0  0
 19 40  1  0  0  0  0
 20 51  1  0  0  0  0
 21 41  1  0  0  0  0
 22 24  2  0  0  0  0
 22 63  1  0  0  0  0
 23 26  1  0  0  0  0
 23 55  1  0  0  0  0
 24 25  1  0  0  0  0
 24 56  1  0  0  0  0
 25 26  2  0  0  0  0
 25 57  1  0  0  0  0
 26 74  1  0  0  0  0
 27 83  1  0  0  0  0
 28 84  1  0  0  0  0
 29 31  2  0  0  0  0
 29 83  1  0  0  0  0
 30 85  1  0  0  0  0
 31 86  1  0  0  0  0
 32 67  2  0  0  0  0
 33 68  1  0  0  0  0
 33 72  1  0  0  0  0
 34 73  1  0  0  0  0
 34 78  2  0  0  0  0
 35 52  1  0  0  0  0
 35 75  1  0  0  0  0
 35 79  2  0  0  0  0
 36 64  1  0  0  0  0
 36 69  1  0  0  0  0
 36 80  2  0  0  0  0
 37 65  1  0  0  0  0
 37 76  1  0  0  0  0
 37 81  2  0  0  0  0
 38 70  1  0  0  0  0
 38 71  1  0  0  0  0
 38 82  2  0  0  0  0
 39 42  1  0  0  0  0
 40 52  1  0  0  0  0
 41 69  1  0  0  0  0
 42 44  1  0  0  0  0
 43 45  1  0  0  0  0
 43 47  1  0  0  0  0
 44 51  1  0  0  0  0
 45 53  1  0  0  0  0
 46 48  1  0  0  0  0
 46 54  1  0  0  0  0
 47 70  1  0  0  0  0
 48 71  1  0  0  0  0
 49 53  1  0  0  0  0
 49 70  1  0  0  0  0
 50 54  1  0  0  0  0
 50 71  1  0  0  0  0
 51 75  1  0  0  0  0
 52 69  1  0  0  0  0
 53 68  1  0  0  0  0
 54 74  1  0  0  0  0
 58 65  1  0  0  0  0
 59 66  1  0  0  0  0
 60 66  1  0  0  0  0
 61 66  1  0  0  0  0
 62 77  1  0  0  0  0
 63 84  1  0  0  0  0
 64 66  1  0  0  0  0
 64 76  1  0  0  0  0
 65 77  1  0  0  0  0
 67 68  1  0  0  0  0
M  CHG  1  77   1
M  ISO  4  38 100  63 101  71 100  84 101
M  END
> <Batch ID>
0152

> <Smiles>
CNC(C)C(=O)NC(C(=O)N1Cc2cc([101O:1][101CH2:1]c3cc(C)c(NC4CC[100N:0]([100C:0](=O)N5CCCC(n6nc(-c7ccc(Oc8ccc(F)cc8F)cc7)c(C(N)=O)c6N)C5)C4)c(C)c3C)ccc2CC1C(=O)NC1CCCc2ccccc21)C(C)(C)C

> <Shape>
0.330

> <Color>
0.114

> <Negative vol penalty>
0.000

$$$$

  -OEChem-04052321463D

 90 99  0     1  0  0  0  0  0999 V2000
  -21.4029  -16.0894   26.8858 C   0  0  0  0  0  0  0  0  0  0  0  0
  -21.8632  -17.3147   27.3573 C   0  0  0  0  0  0  0  0  0  0  0  0
  -29.2761  -17.4153   21.8284 C   0  0  0  0  0  0  0  0  0  0  0  0
  -29.2097  -16.4073   19.6337 C   0  0  0  0  0  0  0  0  0  0  0  0
  -21.5129  -15.7793   25.5310 C   0  0  0  0  0  0  0  0  0  0  0  0
  -22.4347  -18.2302   26.4743 C   0  0  0  0  0  0  0  0  0  0  0  0
  -23.0716  -25.2809   25.3801 C   0  0  0  0  0  0  0  0  0  0  0  0
  -28.6202  -16.3043   22.3586 C   0  0  0  0  0  0  0  0  0  0  0  0
  -28.5538  -15.2963   20.1639 C   0  0  0  0  0  0  0  0  0  0  0  0
  -24.0461  -26.2525   25.1562 C   0  0  0  0  0  0  0  0  0  0  0  0
  -25.4174  -14.4792   21.1264 C   0  0  0  0  0  0  0  0  0  0  0  0
  -24.3172  -13.9818   20.4280 C   0  0  0  0  0  0  0  0  0  0  0  0
  -24.1117  -25.6405   22.8238 C   0  0  0  0  0  0  0  0  0  0  0  0
  -23.9702  -30.4248   22.5941 C   0  0  0  0  0  0  0  0  0  0  0  0
  -25.1312  -30.1547   20.0718 C   0  0  0  0  0  0  0  0  0  0  0  0
  -25.4383  -11.8566   20.1755 C   0  0  0  0  0  0  0  0  0  0  0  0
  -29.5708  -17.4669   20.4660 C   0  0  0  0  0  0  0  0  0  0  0  0
  -31.6372  -18.8011   19.7897 C   0  0  0  0  0  0  0  0  0  0  0  0
  -22.0773  -16.6953   24.6293 C   0  0  0  0  0  0  0  0  0  0  0  0
  -22.6168  -24.4732   24.3279 C   0  0  0  0  0  0  0  0  0  0  0  0
  -22.5535  -17.9314   25.1063 C   0  0  0  0  0  0  0  0  0  0  0  0
  -23.1295  -24.6612   23.0364 C   0  0  0  0  0  0  0  0  0  0  0  0
  -23.2199  -30.6914   21.4488 C   0  0  0  0  0  0  0  0  0  0  0  0
  -25.3010  -30.0232   22.4782 C   0  0  0  0  0  0  0  0  0  0  0  0
  -23.8004  -30.5564   20.1877 C   0  0  0  0  0  0  0  0  0  0  0  0
  -25.8815  -29.8881   21.2171 C   0  0  0  0  0  0  0  0  0  0  0  0
  -28.2591  -15.2448   21.5264 C   0  0  0  0  0  0  0  0  0  0  0  0
  -24.5685  -26.4304   23.8785 C   0  0  0  0  0  0  0  0  0  0  0  0
  -26.5282  -13.6653   21.3492 C   0  0  0  0  0  0  0  0  0  0  0  0
  -24.3276  -12.6705   19.9526 C   0  0  0  0  0  0  0  0  0  0  0  0
  -26.5386  -12.3540   20.8738 C   0  0  0  0  0  0  0  0  0  0  0  0
  -30.2477  -18.6145   19.9176 C   0  0  0  0  0  0  0  0  0  0  0  0
  -31.7655  -20.0419   19.2149 C   0  0  0  0  0  0  0  0  0  0  0  0
  -32.7154  -17.9305   20.1573 C   0  0  0  0  0  0  0  0  0  0  0  0
  -22.6534  -21.3539   23.7173 C   0  0  0  0  0  0  0  0  0  0  0  0
  -20.8447  -22.2271   21.1700 C   0  0  0  0  0  0  0  0  0  0  0  0
  -19.9240  -24.6696   18.9716 C   0  0  0  0  0  0  0  0  0  0  0  0
  -29.5668  -25.1611   19.2514 C   0  0  0  0  0  0  0  0  0  0  0  0
  -22.2179  -16.2962   23.1817 C   0  0  0  0  0  0  0  0  0  0  0  0
  -21.5458  -23.4478   24.5805 C   0  0  0  0  0  0  0  0  0  0  0  0
  -22.6602  -23.8337   21.8687 C   0  0  0  0  0  0  0  0  0  0  0  0
  -22.4947  -17.4729   22.2495 C   0  0  0  0  0  0  0  0  0  0  0  0
  -28.8104  -23.0004   16.5891 C   0  0  0  0  0  0  0  0  0  0  0  0
  -23.5865  -18.3671   22.8284 C   0  0  0  0  0  0  0  0  0  0  0  0
  -29.2420  -21.6506   17.1618 C   0  0  0  0  0  0  0  0  0  0  0  0
  -26.9354  -27.4275   19.8237 C   0  0  0  0  0  0  0  0  0  0  0  0
  -29.2025  -28.4971   20.1137 C   0  0  0  0  0  0  0  0  0  0  0  0
  -28.1060  -23.8675   17.6341 C   0  0  0  0  0  0  0  0  0  0  0  0
  -27.5127  -26.5457   18.7126 C   0  0  0  0  0  0  0  0  0  0  0  0
  -29.7259  -27.6174   18.9818 C   0  0  0  0  0  0  0  0  0  0  0  0
  -29.3142  -22.7053   19.4529 C   0  0  0  0  0  0  0  0  0  0  0  0
  -23.1570  -18.9608   24.1755 C   0  0  1  0  0  0  0  0  0  0  0  0
  -21.5279  -22.3333   23.5389 C   0  0  1  0  0  0  0  0  0  0  0  0
  -30.0766  -21.8351   18.4418 C   0  0  1  0  0  0  0  0  0  0  0  0
  -27.7010  -28.7467   19.9496 C   0  0  0  0  0  0  0  0  0  0  0  0
  -21.7971  -31.1205   21.5977 C   0  0  0  0  0  0  0  0  0  0  0  0
  -23.0168  -30.8373   18.9478 C   0  0  0  0  0  0  0  0  0  0  0  0
  -18.4554  -25.0732   16.9772 C   0  0  0  0  0  0  0  0  0  0  0  0
  -27.0202  -30.7368   25.9346 C   0  0  0  0  0  0  0  0  0  0  0  0
  -26.9144  -32.1627   23.8967 C   0  0  0  0  0  0  0  0  0  0  0  0
  -22.8403  -20.7421   19.4029 C   0  0  0  0  0  0  0  0  0  0  0  0
  -21.8878  -21.9531   17.4295 C   0  0  0  0  0  0  0  0  0  0  0  0
  -20.4431  -20.4211   18.7668 C   0  0  0  0  0  0  0  0  0  0  0  0
  -18.3554  -26.7337   20.3990 C   0  0  0  0  0  0  0  0  0  0  0  0
  -25.4864  -28.5368   24.4920 C   0  0  0  0  0  0  0  0  0  1  0  0
  -26.0821  -29.7466   23.7216 C   0  0  2  0  0  0  0  0  0  0  0  0
  -21.1319  -22.6468   19.7486 C   0  0  1  0  0  0  0  0  0  0  0  0
  -18.5596  -25.1321   18.4933 C   0  0  2  0  0  0  0  0  0  0  0  0
  -26.2308  -31.0094   24.6478 C   0  0  0  0  0  0  0  0  0  0  0  0
  -21.5862  -21.4552   18.8591 C   0  0  0  0  0  0  0  0  0  0  0  0
  -29.5437  -19.6538   19.4611 N   0  0  0  0  0  0  0  0  0  0  0  0
  -30.4947  -20.5053   19.0407 N   0  0  0  0  0  0  0  0  0  0  0  0
  -21.6161  -22.8398   22.1677 N   0  0  0  0  0  0  0  0  0  0  0  0
  -28.9217  -23.9814   18.8511 N   0  0  0  0  0  0  0  0  0  0  0  0
  -28.9622  -26.3729   18.8852 N   0  0  0  0  0  0  0  0  0  0  0  0
  -32.8404  -20.7710   18.8468 N   0  0  0  0  0  0  0  0  0  0  0  0
  -32.4066  -16.6921   20.7363 N   0  0  0  0  0  0  0  0  0  0  0  0
  -27.2003  -29.4917   21.0837 N   0  0  0  0  0  0  0  0  0  0  0  0
  -22.2387  -20.0609   23.9732 N   0  0  0  0  0  0  0  0  0  0  0  0
  -19.9306  -23.3239   19.2724 N   0  0  0  0  0  0  0  0  0  0  0  0
  -18.3067  -26.5351   18.9276 N   0  3  0  0  0  0  0  0  0  0  0  0
  -33.9176  -18.2486   19.9929 O   0  0  0  0  0  0  0  0  0  0  0  0
  -23.8122  -21.7424   23.6280 O   0  0  0  0  0  0  0  0  0  0  0  0
  -19.9635  -21.3917   21.3876 O   0  0  0  0  0  0  0  0  0  0  0  0
  -20.8886  -25.4255   19.0651 O   0  0  0  0  0  0  0  0  0  0  0  0
  -30.6213  -25.1336   19.8983 O   0  0  0  0  0  0  0  0  0  0  0  0
  -27.6194  -14.1604   22.0434 O   0  0  0  0  0  0  0  0  0  0  0  0
  -25.5259  -27.3831   23.6560 O   0  0  0  0  0  0  0  0  0  1  0  0
  -23.2704  -12.1925   19.2833 F   0  0  0  0  0  0  0  0  0  0  0  0
  -27.6023  -11.5670   21.0858 F   0  0  0  0  0  0  0  0  0  0  0  0
  1  2  1  0  0  0  0
  1  5  2  0  0  0  0
  2  6  2  0  0  0  0
  3  8  2  0  0  0  0
  3 17  1  0  0  0  0
  4  9  1  0  0  0  0
  4 17  2  0  0  0  0
  5 19  1  0  0  0  0
  6 21  1  0  0  0  0
  7 10  2  0  0  0  0
  7 20  1  0  0  0  0
  8 27  1  0  0  0  0
  9 27  2  0  0  0  0
 10 28  1  0  0  0  0
 11 12  2  0  0  0  0
 11 29  1  0  0  0  0
 12 30  1  0  0  0  0
 13 22  1  0  0  0  0
 13 28  2  0  0  0  0
 14 23  2  0  0  0  0
 14 24  1  0  0  0  0
 15 25  2  0  0  0  0
 15 26  1  0  0  0  0
 16 30  2  0  0  0  0
 16 31  1  0  0  0  0
 17 32  1  0  0  0  0
 18 32  1  0  0  0  0
 18 33  2  0  0  0  0
 18 34  1  0  0  0  0
 19 21  2  0  0  0  0
 19 39  1  0  0  0  0
 20 22  2  0  0  0  0
 20 40  1  0  0  0  0
 21 52  1  0  0  0  0
 22 41  1  0  0  0  0
 23 25  1  0  0  0  0
 23 56  1  0  0  0  0
 24 26  2  0  0  0  0
 24 66  1  0  0  0  0
 25 57  1  0  0  0  0
 26 78  1  0  0  0  0
 27 87  1  0  0  0  0
 28 88  1  0  0  0  0
 29 31  2  0  0  0  0
 29 87  1  0  0  0  0
 30 89  1  0  0  0  0
 31 90  1  0  0  0  0
 32 71  2  0  0  0  0
 33 72  1  0  0  0  0
 33 76  1  0  0  0  0
 34 77  1  0  0  0  0
 34 82  2  0  0  0  0
 35 53  1  0  0  0  0
 35 79  1  0  0  0  0
 35 83  2  0  0  0  0
 36 67  1  0  0  0  0
 36 73  1  0  0  0  0
 36 84  2  0  0  0  0
 37 68  1  0  0  0  0
 37 80  1  0  0  0  0
 37 85  2  0  0  0  0
 38 74  1  0  0  0  0
 38 75  1  0  0  0  0
 38 86  2  0  0  0  0
 39 42  1  0  0  0  0
 40 53  1  0  0  0  0
 41 73  1  0  0  0  0
 42 44  1  0  0  0  0
 43 45  1  0  0  0  0
 43 48  1  0  0  0  0
 44 52  1  0  0  0  0
 45 54  1  0  0  0  0
 46 49  1  0  0  0  0
 46 55  1  0  0  0  0
 47 50  1  0  0  0  0
 47 55  1  0  0  0  0
 48 74  1  0  0  0  0
 49 75  1  0  0  0  0
 50 75  1  0  0  0  0
 51 54  1  0  0  0  0
 51 74  1  0  0  0  0
 52 79  1  0  0  0  0
 53 73  1  0  0  0  0
 54 72  1  0  0  0  0
 55 78  1  0  0  0  0
 58 68  1  0  0  0  0
 59 69  1  0  0  0  0
 60 69  1  0  0  0  0
 61 70  1  0  0  0  0
 62 70  1  0  0  0  0
 63 70  1  0  0  0  0
 64 81  1  0  0  0  0
 65 66  1  0  0  0  0
 65 88  1  0  0  0  0
 66 69  1  0  0  0  0
 67 70  1  0  0  0  0
 67 80  1  0  0  0  0
 68 81  1  0  0  0  0
 71 72  1  0  0  0  0
M  CHG  1  81   1
M  ISO  4  38 100  65 101  75 100  88 101
M  END
> <Batch ID>
0152

> <Smiles>
CNC(C)C(=O)NC(C(=O)N1Cc2cc([101O:1][101CH2:1]C(c3cc(C)c(C)cc3NC3CC[100N:0]([100C:0](=O)N4CCCC(n5nc(-c6ccc(Oc7ccc(F)cc7F)cc6)c(C(N)=O)c5N)C4)CC3)C(C)C)ccc2CC1C(=O)NC1CCCc2ccccc21)C(C)(C)C

> <Shape>
0.202

> <Color>
0.066

> <Negative vol penalty>
0.000

$$$$

  -OEChem-04052321463D

 97107  0     1  0  0  0  0  0999 V2000
  -25.2497  -42.9633   22.2187 C   0  0  0  0  0  0  0  0  0  0  0  0
  -26.5040  -42.3616   22.2310 C   0  0  0  0  0  0  0  0  0  0  0  0
  -22.5891  -10.2750   20.5796 C   0  0  0  0  0  0  0  0  0  0  0  0
  -24.5085   -9.0947   21.4514 C   0  0  0  0  0  0  0  0  0  0  0  0
  -24.2307  -42.4645   23.0291 C   0  0  0  0  0  0  0  0  0  0  0  0
  -26.7403  -41.2613   23.0544 C   0  0  0  0  0  0  0  0  0  0  0  0
  -29.3230  -34.1163   21.2365 C   0  0  0  0  0  0  0  0  0  0  0  0
  -21.7658   -9.6039   21.4836 C   0  0  0  0  0  0  0  0  0  0  0  0
  -23.6851   -8.4236   22.3555 C   0  0  0  0  0  0  0  0  0  0  0  0
  -29.6221  -32.7715   21.0170 C   0  0  0  0  0  0  0  0  0  0  0  0
  -21.5388   -5.8118   22.3059 C   0  0  0  0  0  0  0  0  0  0  0  0
  -21.7240   -4.4373   22.4542 C   0  0  0  0  0  0  0  0  0  0  0  0
  -24.6572  -26.5320   18.0384 C   0  0  0  0  0  0  0  0  0  0  0  0
  -25.3518  -24.8447   19.6219 C   0  0  0  0  0  0  0  0  0  0  0  0
  -28.3924  -32.1621   23.0081 C   0  0  0  0  0  0  0  0  0  0  0  0
  -24.9267  -24.2406   17.3216 C   0  0  0  0  0  0  0  0  0  0  0  0
  -25.6900  -18.3249   20.2230 C   0  0  0  0  0  0  0  0  0  0  0  0
  -22.2230   -4.7573   24.7964 C   0  0  0  0  0  0  0  0  0  0  0  0
  -23.9605  -10.0203   20.5634 C   0  0  0  0  0  0  0  0  0  0  0  0
  -24.7288  -10.6878   18.2242 C   0  0  0  0  0  0  0  0  0  0  0  0
  -24.4517  -41.3517   23.8557 C   0  0  0  0  0  0  0  0  0  0  0  0
  -28.5437  -34.4880   22.3355 C   0  0  0  0  0  0  0  0  0  0  0  0
  -25.7236  -40.7480   23.8776 C   0  0  0  0  0  0  0  0  0  0  0  0
  -25.0304  -26.1710   19.3330 C   0  0  0  0  0  0  0  0  0  0  0  0
  -28.0792  -33.5063   23.2262 C   0  0  0  0  0  0  0  0  0  0  0  0
  -24.6053  -25.5668   17.0327 C   0  0  0  0  0  0  0  0  0  0  0  0
  -25.3502  -19.6730   20.2007 C   0  0  0  0  0  0  0  0  0  0  0  0
  -26.3513  -20.6372   20.2365 C   0  0  0  0  0  0  0  0  0  0  0  0
  -25.2999  -23.8795   18.6162 C   0  0  0  0  0  0  0  0  0  0  0  0
  -22.3138   -8.6782   22.3716 C   0  0  0  0  0  0  0  0  0  0  0  0
  -29.1581  -31.7968   21.9008 C   0  0  0  0  0  0  0  0  0  0  0  0
  -21.6957   -6.6591   23.4028 C   0  0  0  0  0  0  0  0  0  0  0  0
  -22.0661   -3.9100   23.6994 C   0  0  0  0  0  0  0  0  0  0  0  0
  -22.0378   -6.1318   24.6480 C   0  0  0  0  0  0  0  0  0  0  0  0
  -24.8114  -10.7128   19.6293 C   0  0  0  0  0  0  0  0  0  0  0  0
  -27.6664  -20.2049   20.2939 C   0  0  0  0  0  0  0  0  0  0  0  0
  -27.0347  -17.9960   20.2807 C   0  0  0  0  0  0  0  0  0  0  0  0
  -25.7530  -11.5016   17.8055 C   0  0  0  0  0  0  0  0  0  0  0  0
  -23.8084   -9.9914   17.3735 C   0  0  0  0  0  0  0  0  0  0  0  0
  -26.9086  -37.2683   24.2519 C   0  0  0  0  0  0  0  0  0  0  0  0
  -24.9307  -34.9236   24.2216 C   0  0  0  0  0  0  0  0  0  0  0  0
  -22.8784  -32.2708   23.5988 C   0  0  0  0  0  0  0  0  0  0  0  0
  -28.6477  -16.0625   20.3596 C   0  0  0  0  0  0  0  0  0  0  0  0
  -23.3331  -40.8775   24.7493 C   0  0  0  0  0  0  0  0  0  0  0  0
  -28.2485  -35.9306   22.6452 C   0  0  0  0  0  0  0  0  0  0  0  0
  -27.2732  -33.9560   24.4141 C   0  0  0  0  0  0  0  0  0  0  0  0
  -23.5565  -39.4769   25.3137 C   0  0  0  0  0  0  0  0  0  0  0  0
  -30.0878  -13.0475   19.1297 C   0  0  0  0  0  0  0  0  0  0  0  0
  -24.9767  -39.3388   25.8529 C   0  0  0  0  0  0  0  0  0  0  0  0
  -28.8898  -12.1063   18.9846 C   0  0  0  0  0  0  0  0  0  0  0  0
  -25.4365  -28.6754   19.9558 C   0  0  0  0  0  0  0  0  0  0  0  0
  -26.1289  -26.8959   21.5510 C   0  0  0  0  0  0  0  0  0  0  0  0
  -29.9553  -13.9494   20.3555 C   0  0  0  0  0  0  0  0  0  0  0  0
  -27.4996  -13.7618   20.2937 C   0  0  0  0  0  0  0  0  0  0  0  0
  -26.8787  -28.8207   19.4745 C   0  0  0  0  0  0  0  0  0  0  0  0
  -27.5687  -27.0053   21.0601 C   0  0  0  0  0  0  0  0  0  0  0  0
  -26.0115  -39.5375   24.7388 C   0  0  1  0  0  0  0  0  0  0  0  0
  -26.8541  -36.1424   23.2615 C   0  0  1  0  0  0  0  0  0  0  0  0
  -27.5569  -12.8785   19.0366 C   0  0  2  0  0  0  0  0  0  0  0  0
  -25.0878  -27.2395   20.4463 C   0  0  0  0  0  0  0  0  0  0  0  0
  -24.2062  -25.9530   15.6486 C   0  0  0  0  0  0  0  0  0  0  0  0
  -23.9092  -20.0587   20.1392 C   0  0  0  0  0  0  0  0  0  0  0  0
  -28.7843  -21.1953   20.3356 C   0  0  0  0  0  0  0  0  0  0  0  0
  -23.6832  -27.2897   21.0905 C   0  0  0  0  0  0  0  0  0  0  0  0
  -20.5663  -31.4162   24.0688 C   0  0  0  0  0  0  0  0  0  0  0  0
  -25.7797  -34.1987   27.0602 C   0  0  0  0  0  0  0  0  0  0  0  0
  -23.8780  -32.5721   27.1376 C   0  0  0  0  0  0  0  0  0  0  0  0
  -23.4226  -35.0078   26.8504 C   0  0  0  0  0  0  0  0  0  0  0  0
  -22.1875  -32.2182   20.7215 C   0  0  0  0  0  0  0  0  0  0  0  0
  -26.0151  -22.1003   20.2126 C   0  0  0  0  0  0  0  0  0  0  0  0
  -29.2593  -28.6124   20.1819 C   0  0  0  0  0  0  0  0  0  0  0  0
  -29.6156  -30.0794   20.3201 C   0  0  0  0  0  0  0  0  0  1  0  0
  -24.4123  -33.6968   24.9284 C   0  0  1  0  0  0  0  0  0  0  0  0
  -21.4443  -32.2003   23.1060 C   0  0  2  0  0  0  0  0  0  0  0  0
  -24.3929  -33.8671   26.4738 C   0  0  0  0  0  0  0  0  0  0  0  0
  -25.8094  -11.4814   20.0736 N   0  0  0  0  0  0  0  0  0  0  0  0
  -28.0353  -18.9045   20.3170 N   0  0  0  0  0  0  0  0  0  0  0  0
  -26.3633  -11.9468   18.9410 N   0  0  0  0  0  0  0  0  0  0  0  0
  -26.3125  -34.9928   24.0060 N   0  0  0  0  0  0  0  0  0  0  0  0
  -28.6704  -14.6520   20.3349 N   0  0  0  0  0  0  0  0  0  0  0  0
  -26.1821  -11.8724   16.5805 N   0  0  0  0  0  0  0  0  0  0  0  0
  -22.8174   -9.1988   17.9684 N   0  0  0  0  0  0  0  0  0  0  0  0
  -25.6248  -22.5385   18.9084 N   0  0  0  0  0  0  0  0  0  0  0  0
  -27.3705  -16.6197   20.3032 N   0  0  0  0  0  0  0  0  0  0  0  0
  -26.1099  -38.3467   23.9222 N   0  0  0  0  0  0  0  0  0  0  0  0
  -23.1076  -33.4090   24.3426 N   0  0  0  0  0  0  0  0  0  0  0  0
  -27.8222  -28.4113   20.5771 N   0  3  0  0  0  0  0  0  0  0  0  0
  -21.3868  -31.5383   21.7721 N   0  3  0  0  0  0  0  0  0  0  0  0
  -23.8735  -10.0566   16.1225 O   0  0  0  0  0  0  0  0  0  0  0  0
  -27.6212  -37.1667   25.2436 O   0  0  0  0  0  0  0  0  0  0  0  0
  -24.1351  -35.8008   23.8740 O   0  0  0  0  0  0  0  0  0  0  0  0
  -23.7111  -31.4011   23.3518 O   0  0  0  0  0  0  0  0  0  0  0  0
  -29.6859  -16.7277   20.3984 O   0  0  0  0  0  0  0  0  0  0  0  0
  -21.5107   -8.0234   23.2541 O   0  0  0  0  0  0  0  0  0  0  0  0
  -29.4499  -30.4854   21.6780 O   0  0  0  0  0  0  0  0  0  1  0  0
  -22.2424   -2.5899   23.8420 F   0  0  0  0  0  0  0  0  0  0  0  0
  -22.1888   -6.9407   25.7058 F   0  0  0  0  0  0  0  0  0  0  0  0
  1  2  1  0  0  0  0
  1  5  2  0  0  0  0
  2  6  2  0  0  0  0
  3  8  2  0  0  0  0
  3 19  1  0  0  0  0
  4  9  1  0  0  0  0
  4 19  2  0  0  0  0
  5 21  1  0  0  0  0
  6 23  1  0  0  0  0
  7 10  2  0  0  0  0
  7 22  1  0  0  0  0
  8 30  1  0  0  0  0
  9 30  2  0  0  0  0
 10 31  1  0  0  0  0
 11 12  2  0  0  0  0
 11 32  1  0  0  0  0
 12 33  1  0  0  0  0
 13 24  1  0  0  0  0
 13 26  2  0  0  0  0
 14 24  2  0  0  0  0
 14 29  1  0  0  0  0
 15 25  1  0  0  0  0
 15 31  2  0  0  0  0
 16 26  1  0  0  0  0
 16 29  2  0  0  0  0
 17 27  2  0  0  0  0
 17 37  1  0  0  0  0
 18 33  2  0  0  0  0
 18 34  1  0  0  0  0
 19 35  1  0  0  0  0
 20 35  1  0  0  0  0
 20 38  2  0  0  0  0
 20 39  1  0  0  0  0
 21 23  2  0  0  0  0
 21 44  1  0  0  0  0
 22 25  2  0  0  0  0
 22 45  1  0  0  0  0
 23 57  1  0  0  0  0
 24 60  1  0  0  0  0
 25 46  1  0  0  0  0
 26 61  1  0  0  0  0
 27 28  1  0  0  0  0
 27 62  1  0  0  0  0
 28 36  2  0  0  0  0
 28 70  1  0  0  0  0
 29 83  1  0  0  0  0
 30 94  1  0  0  0  0
 31 95  1  0  0  0  0
 32 34  2  0  0  0  0
 32 94  1  0  0  0  0
 33 96  1  0  0  0  0
 34 97  1  0  0  0  0
 35 76  2  0  0  0  0
 36 63  1  0  0  0  0
 36 77  1  0  0  0  0
 37 77  2  0  0  0  0
 37 84  1  0  0  0  0
 38 78  1  0  0  0  0
 38 81  1  0  0  0  0
 39 82  1  0  0  0  0
 39 89  2  0  0  0  0
 40 58  1  0  0  0  0
 40 85  1  0  0  0  0
 40 90  2  0  0  0  0
 41 73  1  0  0  0  0
 41 79  1  0  0  0  0
 41 91  2  0  0  0  0
 42 74  1  0  0  0  0
 42 86  1  0  0  0  0
 42 92  2  0  0  0  0
 43 80  1  0  0  0  0
 43 84  1  0  0  0  0
 43 93  2  0  0  0  0
 44 47  1  0  0  0  0
 45 58  1  0  0  0  0
 46 79  1  0  0  0  0
 47 49  1  0  0  0  0
 48 50  1  0  0  0  0
 48 53  1  0  0  0  0
 49 57  1  0  0  0  0
 50 59  1  0  0  0  0
 51 55  1  0  0  0  0
 51 60  1  0  0  0  0
 52 56  1  0  0  0  0
 52 60  1  0  0  0  0
 53 80  1  0  0  0  0
 54 59  1  0  0  0  0
 54 80  1  0  0  0  0
 55 87  1  0  0  0  0
 56 87  1  0  0  0  0
 57 85  1  0  0  0  0
 58 79  1  0  0  0  0
 59 78  1  0  0  0  0
 60 64  1  0  0  0  0
 65 74  1  0  0  0  0
 66 75  1  0  0  0  0
 67 75  1  0  0  0  0
 68 75  1  0  0  0  0
 69 88  1  0  0  0  0
 70 83  1  0  0  0  0
 71 72  1  0  0  0  0
 71 87  1  0  0  0  0
 72 95  1  0  0  0  0
 73 75  1  0  0  0  0
 73 86  1  0  0  0  0
 74 88  1  0  0  0  0
 76 78  1  0  0  0  0
M  CHG  2  87   1  88   1
M  ISO  4  43 100  72 101  84 100  95 101
M  END
> <Batch ID>
0152

> <Smiles>
CNC(C)C(=O)NC(C(=O)N1Cc2cc([101O:1][101CH2:1]CN3CCC(C)(c4cc(C)cc(NCc5c(C)cc([100NH:0][100C:0](=O)N6CCCC(n7nc(-c8ccc(Oc9ccc(F)cc9F)cc8)c(C(N)=O)c7N)C6)nc5C)c4)CC3)ccc2CC1C(=O)NC1CCCc2ccccc21)C(C)(C)C

> <Shape>
0.258

> <Color>
0.088

> <Negative vol penalty>
0.000

$$$$

  -OEChem-04052321463D

 88 98  0     1  0  0  0  0  0999 V2000
  -21.8324  -19.8563   23.3016 C   0  0  0  0  0  0  0  0  0  0  0  0
  -23.0853  -20.3390   22.9371 C   0  0  0  0  0  0  0  0  0  0  0  0
  -25.2951   -9.1661   23.2175 C   0  0  0  0  0  0  0  0  0  0  0  0
  -23.5376   -8.9277   21.5769 C   0  0  0  0  0  0  0  0  0  0  0  0
  -20.7061  -20.6653   23.1575 C   0  0  0  0  0  0  0  0  0  0  0  0
  -23.2123  -21.6307   22.4274 C   0  0  0  0  0  0  0  0  0  0  0  0
  -27.1088  -24.1469   24.4598 C   0  0  0  0  0  0  0  0  0  0  0  0
  -31.2999  -24.3076   19.4052 C   0  0  0  0  0  0  0  0  0  0  0  0
  -24.6082   -8.3096   24.0778 C   0  0  0  0  0  0  0  0  0  0  0  0
  -22.8507   -8.0712   22.4373 C   0  0  0  0  0  0  0  0  0  0  0  0
  -28.3827  -23.8411   23.9828 C   0  0  0  0  0  0  0  0  0  0  0  0
  -23.0203   -4.8311   23.3826 C   0  0  0  0  0  0  0  0  0  0  0  0
  -22.4845   -3.6631   22.8402 C   0  0  0  0  0  0  0  0  0  0  0  0
  -30.7336  -24.6426   18.1803 C   0  0  0  0  0  0  0  0  0  0  0  0
  -28.3234  -25.8050   22.5832 C   0  0  0  0  0  0  0  0  0  0  0  0
  -20.2726   -4.3660   23.5115 C   0  0  0  0  0  0  0  0  0  0  0  0
  -24.7597   -9.4752   21.9670 C   0  0  0  0  0  0  0  0  0  0  0  0
  -26.4232  -10.0041   20.1067 C   0  0  0  0  0  0  0  0  0  0  0  0
  -20.8207  -21.9709   22.6547 C   0  0  0  0  0  0  0  0  0  0  0  0
  -26.4271  -25.2800   23.9932 C   0  0  0  0  0  0  0  0  0  0  0  0
  -22.0862  -22.4574   22.2752 C   0  0  0  0  0  0  0  0  0  0  0  0
  -27.0420  -26.1243   23.0578 C   0  0  0  0  0  0  0  0  0  0  0  0
  -30.9407  -23.1179   20.0288 C   0  0  0  0  0  0  0  0  0  0  0  0
  -23.3860   -7.7621   23.6877 C   0  0  0  0  0  0  0  0  0  0  0  0
  -28.9889  -24.6686   23.0421 C   0  0  0  0  0  0  0  0  0  0  0  0
  -22.1822   -5.7666   23.9895 C   0  0  0  0  0  0  0  0  0  0  0  0
  -21.1106   -3.4305   22.9046 C   0  0  0  0  0  0  0  0  0  0  0  0
  -20.8084   -5.5340   24.0539 C   0  0  0  0  0  0  0  0  0  0  0  0
  -25.4685  -10.3603   21.0781 C   0  0  0  0  0  0  0  0  0  0  0  0
  -29.8203  -23.7608   17.6253 C   0  0  0  0  0  0  0  0  0  0  0  0
  -30.0179  -22.3045   19.3911 C   0  0  0  0  0  0  0  0  0  0  0  0
  -26.7935  -11.1971   19.5356 C   0  0  0  0  0  0  0  0  0  0  0  0
  -26.9300   -8.7106   19.7524 C   0  0  0  0  0  0  0  0  0  0  0  0
  -23.7113  -25.7728   22.4167 C   0  0  0  0  0  0  0  0  0  0  0  0
  -24.4022  -28.8910   22.9841 C   0  0  0  0  0  0  0  0  0  0  0  0
  -26.7665  -31.2591   23.6542 C   0  0  0  0  0  0  0  0  0  0  0  0
  -28.2514  -16.3581   19.7636 C   0  0  0  0  0  0  0  0  0  0  0  0
  -19.5682  -22.7913   22.4728 C   0  0  0  0  0  0  0  0  0  0  0  0
  -25.0645  -25.6106   24.5377 C   0  0  0  0  0  0  0  0  0  0  0  0
  -26.3608  -27.3638   22.5401 C   0  0  0  0  0  0  0  0  0  0  0  0
  -19.8389  -24.2807   22.2758 C   0  0  0  0  0  0  0  0  0  0  0  0
  -24.7877  -15.8157   19.9382 C   0  0  0  0  0  0  0  0  0  0  0  0
  -20.9555  -24.4902   21.2579 C   0  0  0  0  0  0  0  0  0  0  0  0
  -28.4826  -25.4148   16.1594 C   0  0  0  0  0  0  0  0  0  0  0  0
  -27.6987  -24.1404   16.1993 C   0  0  0  0  0  0  0  0  0  0  0  0
  -24.7284  -14.3067   20.1745 C   0  0  0  0  0  0  0  0  0  0  0  0
  -28.3098  -19.8163   18.4276 C   0  0  0  0  0  0  0  0  0  0  0  0
  -27.7657  -19.8963   20.8989 C   0  0  0  0  0  0  0  0  0  0  0  0
  -25.9141  -16.4765   20.7345 C   0  0  0  0  0  0  0  0  0  0  0  0
  -28.9414  -18.4407   18.6364 C   0  0  0  0  0  0  0  0  0  0  0  0
  -28.4126  -18.5216   21.0516 C   0  0  0  0  0  0  0  0  0  0  0  0
  -27.1839  -14.3543   20.7543 C   0  0  0  0  0  0  0  0  0  0  0  0
  -22.2680  -23.8618   21.7416 C   0  0  1  0  0  0  0  0  0  0  0  0
  -29.1999  -24.0995   16.3113 C   0  0  0  0  0  0  0  0  0  0  0  0
  -24.2521  -26.5087   23.6099 C   0  0  1  0  0  0  0  0  0  0  0  0
  -26.0989  -13.6535   19.9219 C   0  0  1  0  0  0  0  0  0  0  0  0
  -28.3164  -20.6673   19.6980 C   0  0  0  0  0  0  0  0  0  0  0  0
  -27.0331  -33.7264   24.0266 C   0  0  0  0  0  0  0  0  0  0  0  0
  -24.1002  -29.3737   19.9865 C   0  0  0  0  0  0  0  0  0  0  0  0
  -25.2808  -31.5605   20.2903 C   0  0  0  0  0  0  0  0  0  0  0  0
  -23.1025  -31.1514   21.4351 C   0  0  0  0  0  0  0  0  0  0  0  0
  -27.8165  -30.8501   26.3908 C   0  0  0  0  0  0  0  0  0  0  0  0
  -31.5409  -22.7500   21.3412 C   0  0  0  0  0  0  0  0  0  0  0  0
  -30.5957  -22.9939   22.5227 C   0  0  0  0  0  0  0  0  0  1  0  0
  -25.1773  -29.9636   22.2576 C   0  0  1  0  0  0  0  0  0  0  0  0
  -26.8127  -32.3731   24.6844 C   0  0  2  0  0  0  0  0  0  0  0  0
  -24.4275  -30.4880   21.0005 C   0  0  0  0  0  0  0  0  0  0  0  0
  -25.2463  -11.6766   21.1243 N   0  0  0  0  0  0  0  0  0  0  0  0
  -29.4465  -22.5962   18.2012 N   0  0  0  0  0  0  0  0  0  0  0  0
  -26.0666  -12.1579   20.1748 N   0  0  0  0  0  0  0  0  0  0  0  0
  -25.0269  -27.6409   23.0981 N   0  0  0  0  0  0  0  0  0  0  0  0
  -27.1925  -15.7949   20.4916 N   0  0  0  0  0  0  0  0  0  0  0  0
  -28.3717  -17.7577   19.7973 N   0  0  0  0  0  0  0  0  0  0  0  0
  -27.6667  -11.5075   18.5539 N   0  0  0  0  0  0  0  0  0  0  0  0
  -26.4418   -7.5906   20.4392 N   0  0  0  0  0  0  0  0  0  0  0  0
  -22.8953  -24.7046   22.7369 N   0  0  0  0  0  0  0  0  0  0  0  0
  -25.4762  -30.9927   23.2476 N   0  0  0  0  0  0  0  0  0  0  0  0
  -27.9192  -32.1362   25.6542 N   0  3  0  0  0  0  0  0  0  0  0  0
  -27.8023   -8.5542   18.8646 O   0  0  0  0  0  0  0  0  0  0  0  0
  -24.0109  -26.1474   21.2891 O   0  0  0  0  0  0  0  0  0  0  0  0
  -23.2868  -29.1547   23.4401 O   0  0  0  0  0  0  0  0  0  0  0  0
  -27.7746  -30.6854   23.2478 O   0  0  0  0  0  0  0  0  0  0  0  0
  -29.0405  -15.6560   19.1190 O   0  0  0  0  0  0  0  0  0  0  0  0
  -22.7156   -6.9261   24.5269 O   0  0  0  0  0  0  0  0  0  0  0  0
  -30.2407  -24.3699   22.5710 O   0  0  0  0  0  0  0  0  0  1  0  0
  -29.6386  -21.1241   19.9742 O   0  0  0  0  0  0  0  0  0  0  0  0
  -20.5961   -2.3095   22.3824 F   0  0  0  0  0  0  0  0  0  0  0  0
  -19.9981   -6.4296   24.6347 F   0  0  0  0  0  0  0  0  0  0  0  0
  1  2  1  0  0  0  0
  1  5  2  0  0  0  0
  2  6  2  0  0  0  0
  3  9  2  0  0  0  0
  3 17  1  0  0  0  0
  4 10  1  0  0  0  0
  4 17  2  0  0  0  0
  5 19  1  0  0  0  0
  6 21  1  0  0  0  0
  7 11  2  0  0  0  0
  7 20  1  0  0  0  0
  8 14  2  0  0  0  0
  8 23  1  0  0  0  0
  9 24  1  0  0  0  0
 10 24  2  0  0  0  0
 11 25  1  0  0  0  0
 12 13  2  0  0  0  0
 12 26  1  0  0  0  0
 13 27  1  0  0  0  0
 14 30  1  0  0  0  0
 15 22  1  0  0  0  0
 15 25  2  0  0  0  0
 16 27  2  0  0  0  0
 16 28  1  0  0  0  0
 17 29  1  0  0  0  0
 18 29  1  0  0  0  0
 18 32  2  0  0  0  0
 18 33  1  0  0  0  0
 19 21  2  0  0  0  0
 19 38  1  0  0  0  0
 20 22  2  0  0  0  0
 20 39  1  0  0  0  0
 21 53  1  0  0  0  0
 22 40  1  0  0  0  0
 23 31  2  0  0  0  0
 23 63  1  0  0  0  0
 24 84  1  0  0  0  0
 25 85  1  0  0  0  0
 26 28  2  0  0  0  0
 26 84  1  0  0  0  0
 27 87  1  0  0  0  0
 28 88  1  0  0  0  0
 29 68  2  0  0  0  0
 30 54  1  0  0  0  0
 30 69  2  0  0  0  0
 31 69  1  0  0  0  0
 31 86  1  0  0  0  0
 32 70  1  0  0  0  0
 32 74  1  0  0  0  0
 33 75  1  0  0  0  0
 33 79  2  0  0  0  0
 34 55  1  0  0  0  0
 34 76  1  0  0  0  0
 34 80  2  0  0  0  0
 35 65  1  0  0  0  0
 35 71  1  0  0  0  0
 35 81  2  0  0  0  0
 36 66  1  0  0  0  0
 36 77  1  0  0  0  0
 36 82  2  0  0  0  0
 37 72  1  0  0  0  0
 37 73  1  0  0  0  0
 37 83  2  0  0  0  0
 38 41  1  0  0  0  0
 39 55  1  0  0  0  0
 40 71  1  0  0  0  0
 41 43  1  0  0  0  0
 42 46  1  0  0  0  0
 42 49  1  0  0  0  0
 43 53  1  0  0  0  0
 44 45  1  0  0  0  0
 44 54  1  0  0  0  0
 45 54  1  0  0  0  0
 46 56  1  0  0  0  0
 47 50  1  0  0  0  0
 47 57  1  0  0  0  0
 48 51  1  0  0  0  0
 48 57  1  0  0  0  0
 49 72  1  0  0  0  0
 50 73  1  0  0  0  0
 51 73  1  0  0  0  0
 52 56  1  0  0  0  0
 52 72  1  0  0  0  0
 53 76  1  0  0  0  0
 55 71  1  0  0  0  0
 56 70  1  0  0  0  0
 57 86  1  0  0  0  0
 58 66  1  0  0  0  0
 59 67  1  0  0  0  0
 60 67  1  0  0  0  0
 61 67  1  0  0  0  0
 62 78  1  0  0  0  0
 63 64  1  0  0  0  0
 64 85  1  0  0  0  0
 65 67  1  0  0  0  0
 65 77  1  0  0  0  0
 66 78  1  0  0  0  0
 68 70  1  0  0  0  0
M  CHG  1  78   1
M  ISO  4  37 100  64 101  73 100  85 101
M  END
> <Batch ID>
0152

> <Smiles>
CNC(C)C(=O)NC(C(=O)N1Cc2cc([101O:1][101CH2:1]Cc3ccc(C4CC4)nc3OC3CC[100N:0]([100C:0](=O)N4CCCC(n5nc(-c6ccc(Oc7ccc(F)cc7F)cc6)c(C(N)=O)c5N)C4)CC3)ccc2CC1C(=O)NC1CCCc2ccccc21)C(C)(C)C

> <Shape>
0.259

> <Color>
0.059

> <Negative vol penalty>
0.000

$$$$

  -OEChem-04052321463D

 88 97  0     1  0  0  0  0  0999 V2000
  -17.1593  -29.7560   24.9649 C   0  0  0  0  0  0  0  0  0  0  0  0
  -18.4541  -29.5464   25.4284 C   0  0  0  0  0  0  0  0  0  0  0  0
  -26.3232  -13.6464   21.7437 C   0  0  0  0  0  0  0  0  0  0  0  0
  -25.2722  -13.2075   19.6130 C   0  0  0  0  0  0  0  0  0  0  0  0
  -16.8380  -29.4617   23.6405 C   0  0  0  0  0  0  0  0  0  0  0  0
  -19.4282  -29.0412   24.5679 C   0  0  0  0  0  0  0  0  0  0  0  0
  -26.4601  -29.4251   23.2558 C   0  0  0  0  0  0  0  0  0  0  0  0
  -31.6332  -29.0385   20.3218 C   0  0  0  0  0  0  0  0  0  0  0  0
  -25.3912  -12.8215   22.3733 C   0  0  0  0  0  0  0  0  0  0  0  0
  -24.3403  -12.3825   20.2426 C   0  0  0  0  0  0  0  0  0  0  0  0
  -27.5709  -28.5997   23.0873 C   0  0  0  0  0  0  0  0  0  0  0  0
  -31.7889  -29.6654   19.0855 C   0  0  0  0  0  0  0  0  0  0  0  0
  -21.9040   -9.8745   21.2391 C   0  0  0  0  0  0  0  0  0  0  0  0
  -21.6166   -8.6467   20.6430 C   0  0  0  0  0  0  0  0  0  0  0  0
  -26.9208  -28.2022   20.7985 C   0  0  0  0  0  0  0  0  0  0  0  0
  -31.6189  -27.5247   17.9785 C   0  0  0  0  0  0  0  0  0  0  0  0
  -23.9344   -7.9997   20.8579 C   0  0  0  0  0  0  0  0  0  0  0  0
  -26.2637  -13.8395   20.3635 C   0  0  0  0  0  0  0  0  0  0  0  0
  -28.4711  -14.3138   19.1761 C   0  0  0  0  0  0  0  0  0  0  0  0
  -17.8110  -28.9618   22.7608 C   0  0  0  0  0  0  0  0  0  0  0  0
  -25.5638  -29.6370   22.1983 C   0  0  0  0  0  0  0  0  0  0  0  0
  -19.1193  -28.7386   23.2309 C   0  0  0  0  0  0  0  0  0  0  0  0
  -25.8007  -29.0328   20.9554 C   0  0  0  0  0  0  0  0  0  0  0  0
  -31.4704  -27.6546   20.3864 C   0  0  0  0  0  0  0  0  0  0  0  0
  -24.3998  -12.1895   21.6228 C   0  0  0  0  0  0  0  0  0  0  0  0
  -27.7999  -27.9857   21.8594 C   0  0  0  0  0  0  0  0  0  0  0  0
  -31.7817  -28.9086   17.9139 C   0  0  0  0  0  0  0  0  0  0  0  0
  -23.2067  -10.1650   21.6445 C   0  0  0  0  0  0  0  0  0  0  0  0
  -31.4633  -26.8977   19.2148 C   0  0  0  0  0  0  0  0  0  0  0  0
  -22.6317   -7.7092   20.4525 C   0  0  0  0  0  0  0  0  0  0  0  0
  -24.2219   -9.2276   21.4540 C   0  0  0  0  0  0  0  0  0  0  0  0
  -27.2257  -14.6921   19.7126 C   0  0  0  0  0  0  0  0  0  0  0  0
  -28.9975  -15.4794   18.6754 C   0  0  0  0  0  0  0  0  0  0  0  0
  -29.0961  -13.0241   19.1340 C   0  0  0  0  0  0  0  0  0  0  0  0
  -22.4777  -29.0438   21.7207 C   0  0  0  0  0  0  0  0  0  0  0  0
  -22.9835  -30.7012   18.9785 C   0  0  0  0  0  0  0  0  0  0  0  0
  -25.1900  -31.7711   16.6049 C   0  0  0  0  0  0  0  0  0  0  0  0
  -30.1770  -20.7076   18.9721 C   0  0  0  0  0  0  0  0  0  0  0  0
  -17.4047  -28.6139   21.3506 C   0  0  0  0  0  0  0  0  0  0  0  0
  -24.3848  -30.5515   22.3883 C   0  0  0  0  0  0  0  0  0  0  0  0
  -24.8798  -29.2441   19.7825 C   0  0  0  0  0  0  0  0  0  0  0  0
  -18.5876  -28.4347   20.4025 C   0  0  0  0  0  0  0  0  0  0  0  0
  -26.8905  -20.0132   17.9529 C   0  0  0  0  0  0  0  0  0  0  0  0
  -19.6608  -27.5630   21.0468 C   0  0  0  0  0  0  0  0  0  0  0  0
  -26.7802  -18.5238   18.2783 C   0  0  0  0  0  0  0  0  0  0  0  0
  -30.6412  -24.0605   17.4589 C   0  0  0  0  0  0  0  0  0  0  0  0
  -29.2491  -24.2903   19.5610 C   0  0  0  0  0  0  0  0  0  0  0  0
  -27.6453  -20.7825   19.0383 C   0  0  0  0  0  0  0  0  0  0  0  0
  -31.1832  -22.7353   17.9923 C   0  0  0  0  0  0  0  0  0  0  0  0
  -29.8255  -22.9627   20.0476 C   0  0  0  0  0  0  0  0  0  0  0  0
  -28.8654  -18.7306   19.6844 C   0  0  0  0  0  0  0  0  0  0  0  0
  -20.2097  -28.2154   22.3213 C   0  0  1  0  0  0  0  0  0  0  0  0
  -23.2571  -30.2867   21.3957 C   0  0  1  0  0  0  0  0  0  0  0  0
  -28.1630  -17.9209   18.5833 C   0  0  1  0  0  0  0  0  0  0  0  0
  -30.1771  -24.9993   18.5732 C   0  0  0  0  0  0  0  0  0  0  0  0
  -32.5433  -27.1922   22.6150 C   0  0  0  0  0  0  0  0  0  0  0  0
  -25.3013  -33.0759   14.4643 C   0  0  0  0  0  0  0  0  0  0  0  0
  -21.7989  -28.3267   17.4723 C   0  0  0  0  0  0  0  0  0  0  0  0
  -22.7908  -29.2549   15.3693 C   0  0  0  0  0  0  0  0  0  0  0  0
  -21.0781  -30.5657   16.6228 C   0  0  0  0  0  0  0  0  0  0  0  0
  -27.0069  -33.7839   17.7908 C   0  0  0  0  0  0  0  0  0  0  0  0
  -31.9175  -28.6871   15.5499 C   0  0  0  0  0  0  0  0  0  0  0  0
  -30.0416  -27.4784   22.4703 C   0  0  0  0  0  0  0  0  0  1  0  0
  -31.3043  -27.0008   21.7182 C   0  0  1  0  0  0  0  0  0  0  0  0
  -23.4093  -30.3421   17.5753 C   0  0  1  0  0  0  0  0  0  0  0  0
  -25.4134  -33.1362   15.9797 C   0  0  2  0  0  0  0  0  0  0  0  0
  -22.2858  -29.6166   16.7824 C   0  0  0  0  0  0  0  0  0  0  0  0
  -26.9760  -15.9960   19.5666 N   0  0  0  0  0  0  0  0  0  0  0  0
  -28.0717  -16.4473   18.9327 N   0  0  0  0  0  0  0  0  0  0  0  0
  -23.7374  -30.1419   20.0200 N   0  0  0  0  0  0  0  0  0  0  0  0
  -28.9392  -20.1475   19.3221 N   0  0  0  0  0  0  0  0  0  0  0  0
  -30.2500  -22.1102   18.9289 N   0  0  0  0  0  0  0  0  0  0  0  0
  -30.1574  -15.7606   18.0445 N   0  0  0  0  0  0  0  0  0  0  0  0
  -28.4168  -11.9338   19.6944 N   0  0  0  0  0  0  0  0  0  0  0  0
  -21.1412  -29.2716   21.9876 N   0  0  0  0  0  0  0  0  0  0  0  0
  -23.8710  -31.5813   16.9591 N   0  0  0  0  0  0  0  0  0  0  0  0
  -26.7671  -33.6514   16.3307 N   0  3  0  0  0  0  0  0  0  0  0  0
  -30.2307  -12.8469   18.6293 O   0  0  0  0  0  0  0  0  0  0  0  0
  -23.0465  -27.9584   21.7272 O   0  0  0  0  0  0  0  0  0  0  0  0
  -22.0220  -31.4559   19.1441 O   0  0  0  0  0  0  0  0  0  0  0  0
  -26.0943  -30.9533   16.7599 O   0  0  0  0  0  0  0  0  0  0  0  0
  -31.1577  -20.0001   18.7102 O   0  0  0  0  0  0  0  0  0  0  0  0
  -23.4904  -11.3842   22.2368 O   0  0  0  0  0  0  0  0  0  0  0  0
  -31.3044  -25.5377   19.2606 O   0  0  0  0  0  0  0  0  0  0  0  0
  -31.9344  -29.5205   16.7080 O   0  0  0  0  0  0  0  0  0  0  0  0
  -28.8902  -27.1737   21.6913 O   0  0  0  0  0  0  0  0  0  1  0  0
  -22.3552   -6.5295   19.8815 F   0  0  0  0  0  0  0  0  0  0  0  0
  -25.4750   -9.5005   21.8425 F   0  0  0  0  0  0  0  0  0  0  0  0
  1  2  1  0  0  0  0
  1  5  2  0  0  0  0
  2  6  2  0  0  0  0
  3  9  2  0  0  0  0
  3 18  1  0  0  0  0
  4 10  1  0  0  0  0
  4 18  2  0  0  0  0
  5 20  1  0  0  0  0
  6 22  1  0  0  0  0
  7 11  2  0  0  0  0
  7 21  1  0  0  0  0
  8 12  2  0  0  0  0
  8 24  1  0  0  0  0
  9 25  1  0  0  0  0
 10 25  2  0  0  0  0
 11 26  1  0  0  0  0
 12 27  1  0  0  0  0
 13 14  2  0  0  0  0
 13 28  1  0  0  0  0
 14 30  1  0  0  0  0
 15 23  1  0  0  0  0
 15 26  2  0  0  0  0
 16 27  2  0  0  0  0
 16 29  1  0  0  0  0
 17 30  2  0  0  0  0
 17 31  1  0  0  0  0
 18 32  1  0  0  0  0
 19 32  1  0  0  0  0
 19 33  2  0  0  0  0
 19 34  1  0  0  0  0
 20 22  2  0  0  0  0
 20 39  1  0  0  0  0
 21 23  2  0  0  0  0
 21 40  1  0  0  0  0
 22 52  1  0  0  0  0
 23 41  1  0  0  0  0
 24 29  2  0  0  0  0
 24 64  1  0  0  0  0
 25 83  1  0  0  0  0
 26 86  1  0  0  0  0
 27 85  1  0  0  0  0
 28 31  2  0  0  0  0
 28 83  1  0  0  0  0
 29 84  1  0  0  0  0
 30 87  1  0  0  0  0
 31 88  1  0  0  0  0
 32 68  2  0  0  0  0
 33 69  1  0  0  0  0
 33 73  1  0  0  0  0
 34 74  1  0  0  0  0
 34 78  2  0  0  0  0
 35 53  1  0  0  0  0
 35 75  1  0  0  0  0
 35 79  2  0  0  0  0
 36 65  1  0  0  0  0
 36 70  1  0  0  0  0
 36 80  2  0  0  0  0
 37 66  1  0  0  0  0
 37 76  1  0  0  0  0
 37 81  2  0  0  0  0
 38 71  1  0  0  0  0
 38 72  1  0  0  0  0
 38 82  2  0  0  0  0
 39 42  1  0  0  0  0
 40 53  1  0  0  0  0
 41 70  1  0  0  0  0
 42 44  1  0  0  0  0
 43 45  1  0  0  0  0
 43 48  1  0  0  0  0
 44 52  1  0  0  0  0
 45 54  1  0  0  0  0
 46 49  1  0  0  0  0
 46 55  1  0  0  0  0
 47 50  1  0  0  0  0
 47 55  1  0  0  0  0
 48 71  1  0  0  0  0
 49 72  1  0  0  0  0
 50 72  1  0  0  0  0
 51 54  1  0  0  0  0
 51 71  1  0  0  0  0
 52 75  1  0  0  0  0
 53 70  1  0  0  0  0
 54 69  1  0  0  0  0
 55 84  1  0  0  0  0
 56 64  1  0  0  0  0
 57 66  1  0  0  0  0
 58 67  1  0  0  0  0
 59 67  1  0  0  0  0
 60 67  1  0  0  0  0
 61 77  1  0  0  0  0
 62 85  1  0  0  0  0
 63 64  1  0  0  0  0
 63 86  1  0  0  0  0
 65 67  1  0  0  0  0
 65 76  1  0  0  0  0
 66 77  1  0  0  0  0
 68 69  1  0  0  0  0
M  CHG  1  77   1
M  ISO  4  38 100  63 101  72 100  86 101
M  END
> <Batch ID>
0152

> <Smiles>
CNC(C)C(=O)NC(C(=O)N1Cc2cc([101O:1][101CH2:1]C(C)c3ccc(OC)cc3OC3CC[100N:0]([100C:0](=O)N4CCCC(n5nc(-c6ccc(Oc7ccc(F)cc7F)cc6)c(C(N)=O)c5N)C4)CC3)ccc2CC1C(=O)NC1CCCc2ccccc21)C(C)(C)C

> <Shape>
0.303

> <Color>
0.095

> <Negative vol penalty>
0.000

$$$$

  -OEChem-04052321463D

 89 98  0     1  0  0  0  0  0999 V2000
  -17.7776  -26.2471   22.8154 C   0  0  0  0  0  0  0  0  0  0  0  0
  -19.1039  -25.8448   22.6958 C   0  0  0  0  0  0  0  0  0  0  0  0
  -25.4420  -12.2298   21.8962 C   0  0  0  0  0  0  0  0  0  0  0  0
  -25.8862  -12.9179   19.6232 C   0  0  0  0  0  0  0  0  0  0  0  0
  -17.4138  -27.5523   22.4866 C   0  0  0  0  0  0  0  0  0  0  0  0
  -20.0672  -26.7473   22.2463 C   0  0  0  0  0  0  0  0  0  0  0  0
  -25.9193  -27.0734   24.0219 C   0  0  0  0  0  0  0  0  0  0  0  0
  -24.5308  -11.2817   21.4311 C   0  0  0  0  0  0  0  0  0  0  0  0
  -24.9750  -11.9697   19.1581 C   0  0  0  0  0  0  0  0  0  0  0  0
  -27.0994  -26.5932   23.4557 C   0  0  0  0  0  0  0  0  0  0  0  0
  -24.6325   -8.2006   20.0421 C   0  0  0  0  0  0  0  0  0  0  0  0
  -24.6912   -6.9204   20.5927 C   0  0  0  0  0  0  0  0  0  0  0  0
  -28.5576  -22.2923   19.6802 C   0  0  0  0  0  0  0  0  0  0  0  0
  -27.4787  -28.7459   22.4352 C   0  0  0  0  0  0  0  0  0  0  0  0
  -28.1544  -20.6621   17.9197 C   0  0  0  0  0  0  0  0  0  0  0  0
  -22.4155   -7.1506   21.3706 C   0  0  0  0  0  0  0  0  0  0  0  0
  -26.1197  -13.0479   20.9922 C   0  0  0  0  0  0  0  0  0  0  0  0
  -28.4403  -13.8479   21.6870 C   0  0  0  0  0  0  0  0  0  0  0  0
  -18.3748  -28.4740   22.0420 C   0  0  0  0  0  0  0  0  0  0  0  0
  -25.5037  -28.3924   23.7896 C   0  0  0  0  0  0  0  0  0  0  0  0
  -19.7158  -28.0656   21.9100 C   0  0  0  0  0  0  0  0  0  0  0  0
  -29.3369  -23.0124   18.7893 C   0  0  0  0  0  0  0  0  0  0  0  0
  -26.2942  -29.2411   23.0016 C   0  0  0  0  0  0  0  0  0  0  0  0
  -29.5334  -22.5616   17.4746 C   0  0  0  0  0  0  0  0  0  0  0  0
  -27.9580  -21.1127   19.2342 C   0  0  0  0  0  0  0  0  0  0  0  0
  -24.2972  -11.1516   20.0621 C   0  0  0  0  0  0  0  0  0  0  0  0
  -27.8778  -27.4286   22.6599 C   0  0  0  0  0  0  0  0  0  0  0  0
  -23.4653   -8.9559   20.1558 C   0  0  0  0  0  0  0  0  0  0  0  0
  -28.9536  -21.3842   17.0309 C   0  0  0  0  0  0  0  0  0  0  0  0
  -23.5827   -6.3954   21.2569 C   0  0  0  0  0  0  0  0  0  0  0  0
  -22.3568   -8.4308   20.8200 C   0  0  0  0  0  0  0  0  0  0  0  0
  -27.0607  -14.0279   21.4721 C   0  0  0  0  0  0  0  0  0  0  0  0
  -28.8791  -15.0676   22.1410 C   0  0  0  0  0  0  0  0  0  0  0  0
  -29.2525  -12.6823   21.4933 C   0  0  0  0  0  0  0  0  0  0  0  0
  -22.9714  -29.7377   22.4181 C   0  0  0  0  0  0  0  0  0  0  0  0
  -24.3201  -32.4767   23.5142 C   0  0  0  0  0  0  0  0  0  0  0  0
  -27.1381  -34.1173   24.5211 C   0  0  0  0  0  0  0  0  0  0  0  0
  -26.8574  -20.6482   21.4522 C   0  0  0  0  0  0  0  0  0  0  0  0
  -17.9258  -29.8603   21.6533 C   0  0  0  0  0  0  0  0  0  0  0  0
  -24.2419  -28.9032   24.4294 C   0  0  0  0  0  0  0  0  0  0  0  0
  -25.9026  -30.6714   22.7382 C   0  0  0  0  0  0  0  0  0  0  0  0
  -19.0716  -30.8628   21.5418 C   0  0  0  0  0  0  0  0  0  0  0  0
  -27.3755  -18.9358   24.5306 C   0  0  0  0  0  0  0  0  0  0  0  0
  -20.2293  -30.2643   20.7490 C   0  0  0  0  0  0  0  0  0  0  0  0
  -27.4852  -17.4672   24.1145 C   0  0  0  0  0  0  0  0  0  0  0  0
  -30.3399  -24.7650   17.5891 C   0  0  0  0  0  0  0  0  0  0  0  0
  -26.3482  -19.6890   23.6873 C   0  0  0  0  0  0  0  0  0  0  0  0
  -26.6467  -18.1111   21.8190 C   0  0  0  0  0  0  0  0  0  0  0  0
  -20.7939  -29.0226   21.4495 C   0  0  1  0  0  0  0  0  0  0  0  0
  -30.1147  -24.2709   19.0299 C   0  0  1  0  0  0  0  0  0  0  0  0
  -30.4572  -23.4857   16.7402 C   0  0  2  0  0  0  0  0  0  0  0  0
  -23.6509  -30.1092   23.7057 C   0  0  1  0  0  0  0  0  0  0  0  0
  -27.7161  -17.3271   22.5971 C   0  0  2  0  0  0  0  0  0  0  0  0
  -28.1218  -20.3576   13.6846 C   0  0  0  0  0  0  0  0  0  0  0  0
  -27.9325  -36.3587   25.3226 C   0  0  0  0  0  0  0  0  0  0  0  0
  -24.1515  -33.5528   20.6641 C   0  0  0  0  0  0  0  0  0  0  0  0
  -25.7773  -35.3411   21.3174 C   0  0  0  0  0  0  0  0  0  0  0  0
  -23.5542  -35.2080   22.4411 C   0  0  0  0  0  0  0  0  0  0  0  0
  -28.0547  -32.9987   27.1033 C   0  0  0  0  0  0  0  0  0  0  0  0
  -28.7078  -24.3649   15.2026 C   0  0  0  0  0  0  0  0  0  0  0  0
  -31.1169  -24.6559   14.6439 C   0  0  0  0  0  0  0  0  0  0  0  0
  -30.2511  -26.5255   20.0807 C   0  0  0  0  0  0  0  0  0  0  0  0
  -28.1109  -20.1461   15.1835 C   0  0  0  0  0  0  0  0  0  0  0  0
  -29.4286  -27.5327   20.8598 C   0  0  0  0  0  0  0  0  0  1  0  0
  -25.3150  -33.4717   22.9675 C   0  0  1  0  0  0  0  0  0  0  0  0
  -27.4183  -34.9876   25.7329 C   0  0  2  0  0  0  0  0  0  0  0  0
  -24.7062  -34.3659   21.8507 C   0  0  0  0  0  0  0  0  0  0  0  0
  -26.6502  -15.2646   21.7657 N   0  0  0  0  0  0  0  0  0  0  0  0
  -27.7786  -15.8726   22.1698 N   0  0  0  0  0  0  0  0  0  0  0  0
  -24.6570  -31.1222   23.3807 N   0  0  0  0  0  0  0  0  0  0  0  0
  -26.6328  -19.5143   22.2613 N   0  0  0  0  0  0  0  0  0  0  0  0
  -30.0952  -15.5193   22.5147 N   0  0  0  0  0  0  0  0  0  0  0  0
  -28.6413  -11.5130   21.0207 N   0  0  0  0  0  0  0  0  0  0  0  0
  -27.1507  -20.3571   20.1203 N   0  0  0  0  0  0  0  0  0  0  0  0
  -21.6369  -29.4086   22.5607 N   0  0  0  0  0  0  0  0  0  0  0  0
  -25.8237  -34.2136   24.1161 N   0  0  0  0  0  0  0  0  0  0  0  0
  -29.4260  -25.3204   19.8140 N   0  3  0  0  0  0  0  0  0  0  0  0
  -28.4399  -34.3449   26.6072 N   0  3  0  0  0  0  0  0  0  0  0  0
  -30.0958  -23.7850   15.3366 N   0  3  0  0  0  0  0  0  0  0  0  0
  -30.4808  -12.6732   21.7479 O   0  0  0  0  0  0  0  0  0  0  0  0
  -23.6101  -29.7504   21.3723 O   0  0  0  0  0  0  0  0  0  0  0  0
  -23.2856  -32.8862   24.0468 O   0  0  0  0  0  0  0  0  0  0  0  0
  -28.0001  -33.4244   23.9851 O   0  0  0  0  0  0  0  0  0  0  0  0
  -26.8211  -21.7919   21.9132 O   0  0  0  0  0  0  0  0  0  0  0  0
  -23.4083  -10.2264   19.6079 O   0  0  0  0  0  0  0  0  0  0  0  0
  -29.0298  -26.9622   22.1056 O   0  0  0  0  0  0  0  0  0  1  0  0
  -29.1567  -20.9219   15.7704 O   0  0  0  0  0  0  0  0  0  0  0  0
  -23.6388   -5.1653   21.7843 F   0  0  0  0  0  0  0  0  0  0  0  0
  -21.2323   -9.1512   20.9314 F   0  0  0  0  0  0  0  0  0  0  0  0
  1  2  1  0  0  0  0
  1  5  2  0  0  0  0
  2  6  2  0  0  0  0
  3  8  2  0  0  0  0
  3 17  1  0  0  0  0
  4  9  1  0  0  0  0
  4 17  2  0  0  0  0
  5 19  1  0  0  0  0
  6 21  1  0  0  0  0
  7 10  2  0  0  0  0
  7 20  1  0  0  0  0
  8 26  1  0  0  0  0
  9 26  2  0  0  0  0
 10 27  1  0  0  0  0
 11 12  2  0  0  0  0
 11 28  1  0  0  0  0
 12 30  1  0  0  0  0
 13 22  2  0  0  0  0
 13 25  1  0  0  0  0
 14 23  1  0  0  0  0
 14 27  2  0  0  0  0
 15 25  2  0  0  0  0
 15 29  1  0  0  0  0
 16 30  2  0  0  0  0
 16 31  1  0  0  0  0
 17 32  1  0  0  0  0
 18 32  1  0  0  0  0
 18 33  2  0  0  0  0
 18 34  1  0  0  0  0
 19 21  2  0  0  0  0
 19 39  1  0  0  0  0
 20 23  2  0  0  0  0
 20 40  1  0  0  0  0
 21 49  1  0  0  0  0
 22 24  1  0  0  0  0
 22 50  1  0  0  0  0
 23 41  1  0  0  0  0
 24 29  2  0  0  0  0
 24 51  1  0  0  0  0
 25 74  1  0  0  0  0
 26 85  1  0  0  0  0
 27 86  1  0  0  0  0
 28 31  2  0  0  0  0
 28 85  1  0  0  0  0
 29 87  1  0  0  0  0
 30 88  1  0  0  0  0
 31 89  1  0  0  0  0
 32 68  2  0  0  0  0
 33 69  1  0  0  0  0
 33 72  1  0  0  0  0
 34 73  1  0  0  0  0
 34 80  2  0  0  0  0
 35 52  1  0  0  0  0
 35 75  1  0  0  0  0
 35 81  2  0  0  0  0
 36 65  1  0  0  0  0
 36 70  1  0  0  0  0
 36 82  2  0  0  0  0
 37 66  1  0  0  0  0
 37 76  1  0  0  0  0
 37 83  2  0  0  0  0
 38 71  1  0  0  0  0
 38 74  1  0  0  0  0
 38 84  2  0  0  0  0
 39 42  1  0  0  0  0
 40 52  1  0  0  0  0
 41 70  1  0  0  0  0
 42 44  1  0  0  0  0
 43 45  1  0  0  0  0
 43 47  1  0  0  0  0
 44 49  1  0  0  0  0
 45 53  1  0  0  0  0
 46 50  1  0  0  0  0
 46 51  1  0  0  0  0
 47 71  1  0  0  0  0
 48 53  1  0  0  0  0
 48 71  1  0  0  0  0
 49 75  1  0  0  0  0
 50 77  1  0  0  0  0
 51 79  1  0  0  0  0
 52 70  1  0  0  0  0
 53 69  1  0  0  0  0
 54 63  1  0  0  0  0
 55 66  1  0  0  0  0
 56 67  1  0  0  0  0
 57 67  1  0  0  0  0
 58 67  1  0  0  0  0
 59 78  1  0  0  0  0
 60 79  1  0  0  0  0
 61 79  1  0  0  0  0
 62 64  1  0  0  0  0
 62 77  1  0  0  0  0
 63 87  1  0  0  0  0
 64 86  1  0  0  0  0
 65 67  1  0  0  0  0
 65 76  1  0  0  0  0
 66 78  1  0  0  0  0
 68 69  1  0  0  0  0
M  CHG  3  77   1  78   1  79   1
M  ISO  4  38 100  64 101  74 100  86 101
M  END
> <Batch ID>
0152

> <Smiles>
CCOc1cc([100NH:0][100C:0](=O)N2CCCC(n3nc(-c4ccc(Oc5ccc(F)cc5F)cc4)c(C(N)=O)c3N)C2)cc2c1C(N(C)C)CC2NC[101CH2:1][101O:1]c1ccc2c(c1)CN(C(=O)C(NC(=O)C(C)NC)C(C)(C)C)C(C(=O)NC1CCCc3ccccc31)C2

> <Shape>
0.292

> <Color>
0.064

> <Negative vol penalty>
0.000

$$$$

  -OEChem-04052321463D

 88 98  0     1  0  0  0  0  0999 V2000
  -19.7000  -32.5404   15.4228 C   0  0  0  0  0  0  0  0  0  0  0  0
  -20.7374  -31.6220   15.5479 C   0  0  0  0  0  0  0  0  0  0  0  0
  -24.6262   -8.4252   20.8350 C   0  0  0  0  0  0  0  0  0  0  0  0
  -24.8373   -9.4003   23.0353 C   0  0  0  0  0  0  0  0  0  0  0  0
  -19.7276  -33.7257   16.1565 C   0  0  0  0  0  0  0  0  0  0  0  0
  -21.8037  -31.8889   16.4059 C   0  0  0  0  0  0  0  0  0  0  0  0
  -24.9586  -27.8278   19.7315 C   0  0  0  0  0  0  0  0  0  0  0  0
  -24.5052   -7.1591   21.4076 C   0  0  0  0  0  0  0  0  0  0  0  0
  -24.7162   -8.1342   23.6080 C   0  0  0  0  0  0  0  0  0  0  0  0
  -26.1830  -27.1941   19.5235 C   0  0  0  0  0  0  0  0  0  0  0  0
  -22.1030   -5.3367   22.9377 C   0  0  0  0  0  0  0  0  0  0  0  0
  -21.1024   -4.4970   22.4485 C   0  0  0  0  0  0  0  0  0  0  0  0
  -30.2068  -20.7549   21.4135 C   0  0  0  0  0  0  0  0  0  0  0  0
  -27.2732  -28.8716   20.8713 C   0  0  0  0  0  0  0  0  0  0  0  0
  -22.7748   -2.8717   21.8173 C   0  0  0  0  0  0  0  0  0  0  0  0
  -28.8195  -20.8080   19.4824 C   0  0  0  0  0  0  0  0  0  0  0  0
  -24.7924   -9.5458   21.6488 C   0  0  0  0  0  0  0  0  0  0  0  0
  -23.8787  -11.7549   20.7584 C   0  0  0  0  0  0  0  0  0  0  0  0
  -20.7900  -34.0028   17.0312 C   0  0  0  0  0  0  0  0  0  0  0  0
  -24.8839  -28.9962   20.5032 C   0  0  0  0  0  0  0  0  0  0  0  0
  -21.8462  -33.0796   17.1509 C   0  0  0  0  0  0  0  0  0  0  0  0
  -29.4761  -21.4950   20.4907 C   0  0  0  0  0  0  0  0  0  0  0  0
  -26.0463  -29.5168   21.0897 C   0  0  0  0  0  0  0  0  0  0  0  0
  -30.2578  -19.3699   21.3014 C   0  0  0  0  0  0  0  0  0  0  0  0
  -24.5501   -7.0136   22.7942 C   0  0  0  0  0  0  0  0  0  0  0  0
  -27.3409  -27.7176   20.0911 C   0  0  0  0  0  0  0  0  0  0  0  0
  -23.4395   -4.9439   22.8666 C   0  0  0  0  0  0  0  0  0  0  0  0
  -21.4383   -3.2645   21.8884 C   0  0  0  0  0  0  0  0  0  0  0  0
  -23.7755   -3.7114   22.3064 C   0  0  0  0  0  0  0  0  0  0  0  0
  -24.9181  -10.8539   21.0578 C   0  0  0  0  0  0  0  0  0  0  0  0
  -29.5661  -18.7780   20.2569 C   0  0  0  0  0  0  0  0  0  0  0  0
  -24.5146  -12.8446   20.2155 C   0  0  0  0  0  0  0  0  0  0  0  0
  -22.4648  -11.6191   20.9538 C   0  0  0  0  0  0  0  0  0  0  0  0
  -24.0099  -32.0009   19.9452 C   0  0  0  0  0  0  0  0  0  0  0  0
  -24.4312  -32.3074   23.1469 C   0  0  0  0  0  0  0  0  0  0  0  0
  -25.9349  -31.1733   25.9929 C   0  0  0  0  0  0  0  0  0  0  0  0
  -28.4327  -16.5648   20.1852 C   0  0  0  0  0  0  0  0  0  0  0  0
  -20.7994  -35.3190   17.7677 C   0  0  0  0  0  0  0  0  0  0  0  0
  -23.5515  -29.6528   20.7402 C   0  0  0  0  0  0  0  0  0  0  0  0
  -26.0168  -30.7573   21.9432 C   0  0  0  0  0  0  0  0  0  0  0  0
  -21.7798  -35.3554   18.9373 C   0  0  0  0  0  0  0  0  0  0  0  0
  -29.2879  -13.4594   18.6837 C   0  0  0  0  0  0  0  0  0  0  0  0
  -27.9610  -23.4962   20.8235 C   0  0  0  0  0  0  0  0  0  0  0  0
  -30.0180  -23.6893   19.3502 C   0  0  0  0  0  0  0  0  0  0  0  0
  -23.1326  -34.7893   18.5177 C   0  0  0  0  0  0  0  0  0  0  0  0
  -28.1389  -12.5682   19.1536 C   0  0  0  0  0  0  0  0  0  0  0  0
  -31.6580  -16.3179   18.9221 C   0  0  0  0  0  0  0  0  0  0  0  0
  -32.1794  -17.3987   19.8213 C   0  0  0  0  0  0  0  0  0  0  0  0
  -27.8984  -25.0181   20.9243 C   0  0  0  0  0  0  0  0  0  0  0  0
  -29.9449  -25.2101   19.4592 C   0  0  0  0  0  0  0  0  0  0  0  0
  -29.7492  -14.4234   19.7774 C   0  0  0  0  0  0  0  0  0  0  0  0
  -27.5085  -14.3506   20.8257 C   0  0  0  0  0  0  0  0  0  0  0  0
  -29.4010  -23.0080   20.5847 C   0  0  0  0  0  0  0  0  0  0  0  0
  -23.0080  -33.3220   18.0900 C   0  0  1  0  0  0  0  0  0  0  0  0
  -23.6702  -31.1259   21.1185 C   0  0  1  0  0  0  0  0  0  0  0  0
  -26.9862  -13.4103   19.7284 C   0  0  2  0  0  0  0  0  0  0  0  0
  -30.9129  -16.6710   20.1802 C   0  0  0  0  0  0  0  0  0  0  0  0
  -28.5158  -25.6908   19.6996 C   0  0  0  0  0  0  0  0  0  1  0  0
  -30.5672  -18.8109   23.7259 C   0  0  0  0  0  0  0  0  0  0  0  0
  -26.1152  -31.6504   28.4500 C   0  0  0  0  0  0  0  0  0  0  0  0
  -26.2810  -34.6599   22.5520 C   0  0  0  0  0  0  0  0  0  0  0  0
  -27.1490  -34.4795   24.8934 C   0  0  0  0  0  0  0  0  0  0  0  0
  -24.7438  -35.0067   24.4939 C   0  0  0  0  0  0  0  0  0  0  0  0
  -24.8155  -28.5282   26.7066 C   0  0  0  0  0  0  0  0  0  0  0  0
  -31.0416  -18.5795   22.2934 C   0  0  0  0  0  0  0  0  0  0  0  0
  -25.5915  -32.6679   24.0428 C   0  0  1  0  0  0  0  0  0  0  0  0
  -25.3799  -30.8685   27.3725 C   0  0  2  0  0  0  0  0  0  0  0  0
  -25.9425  -34.1812   23.9779 C   0  0  0  0  0  0  0  0  0  0  0  0
  -28.8457  -19.4637   19.3412 N   0  0  0  0  0  0  0  0  0  0  0  0
  -26.1228  -11.3297   20.7319 N   0  0  0  0  0  0  0  0  0  0  0  0
  -25.8444  -12.5416   20.2221 N   0  0  0  0  0  0  0  0  0  0  0  0
  -24.6911  -31.3666   22.1403 N   0  0  0  0  0  0  0  0  0  0  0  0
  -28.6103  -15.1750   20.3235 N   0  0  0  0  0  0  0  0  0  0  0  0
  -24.0604  -14.0226   19.7378 N   0  0  0  0  0  0  0  0  0  0  0  0
  -21.9799  -10.4345   21.5245 N   0  0  0  0  0  0  0  0  0  0  0  0
  -22.9083  -32.4638   19.2510 N   0  0  0  0  0  0  0  0  0  0  0  0
  -25.2403  -32.1927   25.3767 N   0  0  0  0  0  0  0  0  0  0  0  0
  -29.6140  -17.3393   20.1297 N   0  0  0  0  0  0  0  0  0  0  0  0
  -25.5114  -29.4150   27.6742 N   0  3  0  0  0  0  0  0  0  0  0  0
  -21.6540  -12.5149   20.6167 O   0  0  0  0  0  0  0  0  0  0  0  0
  -25.1843  -32.2398   19.6896 O   0  0  0  0  0  0  0  0  0  0  0  0
  -23.3329  -32.8355   23.3378 O   0  0  0  0  0  0  0  0  0  0  0  0
  -26.8915  -30.5701   25.5115 O   0  0  0  0  0  0  0  0  0  0  0  0
  -27.3075  -17.0769   20.1463 O   0  0  0  0  0  0  0  0  0  0  0  0
  -24.4317   -5.7784   23.3533 O   0  0  0  0  0  0  0  0  0  0  0  0
  -28.5374  -27.1015   19.8891 O   0  0  0  0  0  0  0  0  0  1  0  0
  -20.4771   -2.4575   21.4201 F   0  0  0  0  0  0  0  0  0  0  0  0
  -25.0577   -3.3282   22.2365 F   0  0  0  0  0  0  0  0  0  0  0  0
  1  2  1  0  0  0  0
  1  5  2  0  0  0  0
  2  6  2  0  0  0  0
  3  8  2  0  0  0  0
  3 17  1  0  0  0  0
  4  9  1  0  0  0  0
  4 17  2  0  0  0  0
  5 19  1  0  0  0  0
  6 21  1  0  0  0  0
  7 10  2  0  0  0  0
  7 20  1  0  0  0  0
  8 25  1  0  0  0  0
  9 25  2  0  0  0  0
 10 26  1  0  0  0  0
 11 12  2  0  0  0  0
 11 27  1  0  0  0  0
 12 28  1  0  0  0  0
 13 22  2  0  0  0  0
 13 24  1  0  0  0  0
 14 23  1  0  0  0  0
 14 26  2  0  0  0  0
 15 28  2  0  0  0  0
 15 29  1  0  0  0  0
 16 22  1  0  0  0  0
 16 69  2  0  0  0  0
 17 30  1  0  0  0  0
 18 30  1  0  0  0  0
 18 32  2  0  0  0  0
 18 33  1  0  0  0  0
 19 21  2  0  0  0  0
 19 38  1  0  0  0  0
 20 23  2  0  0  0  0
 20 39  1  0  0  0  0
 21 54  1  0  0  0  0
 22 53  1  0  0  0  0
 23 40  1  0  0  0  0
 24 31  2  0  0  0  0
 24 65  1  0  0  0  0
 25 85  1  0  0  0  0
 26 86  1  0  0  0  0
 27 29  2  0  0  0  0
 27 85  1  0  0  0  0
 28 87  1  0  0  0  0
 29 88  1  0  0  0  0
 30 70  2  0  0  0  0
 31 69  1  0  0  0  0
 31 78  1  0  0  0  0
 32 71  1  0  0  0  0
 32 74  1  0  0  0  0
 33 75  1  0  0  0  0
 33 80  2  0  0  0  0
 34 55  1  0  0  0  0
 34 76  1  0  0  0  0
 34 81  2  0  0  0  0
 35 66  1  0  0  0  0
 35 72  1  0  0  0  0
 35 82  2  0  0  0  0
 36 67  1  0  0  0  0
 36 77  1  0  0  0  0
 36 83  2  0  0  0  0
 37 73  1  0  0  0  0
 37 78  1  0  0  0  0
 37 84  2  0  0  0  0
 38 41  1  0  0  0  0
 39 55  1  0  0  0  0
 40 72  1  0  0  0  0
 41 45  1  0  0  0  0
 42 46  1  0  0  0  0
 42 51  1  0  0  0  0
 43 49  1  0  0  0  0
 43 53  1  0  0  0  0
 44 50  1  0  0  0  0
 44 53  1  0  0  0  0
 45 54  1  0  0  0  0
 46 56  1  0  0  0  0
 47 48  1  0  0  0  0
 47 57  1  0  0  0  0
 48 57  1  0  0  0  0
 49 58  1  0  0  0  0
 50 58  1  0  0  0  0
 51 73  1  0  0  0  0
 52 56  1  0  0  0  0
 52 73  1  0  0  0  0
 54 76  1  0  0  0  0
 55 72  1  0  0  0  0
 56 71  1  0  0  0  0
 57 78  1  0  0  0  0
 58 86  1  0  0  0  0
 59 65  1  0  0  0  0
 60 67  1  0  0  0  0
 61 68  1  0  0  0  0
 62 68  1  0  0  0  0
 63 68  1  0  0  0  0
 64 79  1  0  0  0  0
 66 68  1  0  0  0  0
 66 77  1  0  0  0  0
 67 79  1  0  0  0  0
 70 71  1  0  0  0  0
M  CHG  1  79   1
M  ISO  4  37 100  58 101  78 100  86 101
M  END
> <Batch ID>
0152

> <Smiles>
CCc1cc(C2CC[101CH:1]([101O:1]c3ccc4c(c3)CN(C(=O)C(NC(=O)C(C)NC)C(C)(C)C)C(C(=O)NC3CCCc5ccccc53)C4)CC2)cnc1[100N:0](C1CC1)[100C:0](=O)N1CCCC(n2nc(-c3ccc(Oc4ccc(F)cc4F)cc3)c(C(N)=O)c2N)C1

> <Shape>
0.338

> <Color>
0.100

> <Negative vol penalty>
0.000

$$$$

  -OEChem-04052321463D

 87 96  0     1  0  0  0  0  0999 V2000
  -23.9873  -33.5721   25.2616 C   0  0  0  0  0  0  0  0  0  0  0  0
  -23.3410  -32.4027   24.8738 C   0  0  0  0  0  0  0  0  0  0  0  0
  -24.7062  -10.5026   23.8396 C   0  0  0  0  0  0  0  0  0  0  0  0
  -24.6009   -9.2334   21.7865 C   0  0  0  0  0  0  0  0  0  0  0  0
  -25.0630  -34.0528   24.5161 C   0  0  0  0  0  0  0  0  0  0  0  0
  -23.7694  -31.7140   23.7395 C   0  0  0  0  0  0  0  0  0  0  0  0
  -24.3386  -25.0683   21.1266 C   0  0  0  0  0  0  0  0  0  0  0  0
  -24.3468   -9.3646   24.5616 C   0  0  0  0  0  0  0  0  0  0  0  0
  -24.2415   -8.0954   22.5085 C   0  0  0  0  0  0  0  0  0  0  0  0
  -23.9946  -24.3202   20.0015 C   0  0  0  0  0  0  0  0  0  0  0  0
  -21.4554   -6.8390   23.9543 C   0  0  0  0  0  0  0  0  0  0  0  0
  -20.4062   -6.0634   23.4613 C   0  0  0  0  0  0  0  0  0  0  0  0
  -25.9140  -25.2018   18.8361 C   0  0  0  0  0  0  0  0  0  0  0  0
  -21.8929   -4.1676   23.2799 C   0  0  0  0  0  0  0  0  0  0  0  0
  -29.9998  -18.9440   17.4571 C   0  0  0  0  0  0  0  0  0  0  0  0
  -24.8332  -10.4371   22.4520 C   0  0  0  0  0  0  0  0  0  0  0  0
  -24.5090  -12.8352   21.6449 C   0  0  0  0  0  0  0  0  0  0  0  0
  -25.5109  -33.3644   23.3776 C   0  0  0  0  0  0  0  0  0  0  0  0
  -25.4686  -25.8985   21.1111 C   0  0  0  0  0  0  0  0  0  0  0  0
  -24.8512  -32.1867   22.9773 C   0  0  0  0  0  0  0  0  0  0  0  0
  -26.2715  -25.9574   19.9631 C   0  0  0  0  0  0  0  0  0  0  0  0
  -27.4065  -19.7759   17.7009 C   0  0  0  0  0  0  0  0  0  0  0  0
  -29.3433  -18.6801   18.6430 C   0  0  0  0  0  0  0  0  0  0  0  0
  -28.0264  -19.1032   18.7588 C   0  0  0  0  0  0  0  0  0  0  0  0
  -24.1145   -8.1610   23.8961 C   0  0  0  0  0  0  0  0  0  0  0  0
  -24.7807  -24.3891   18.8550 C   0  0  0  0  0  0  0  0  0  0  0  0
  -22.7235   -6.2790   24.1100 C   0  0  0  0  0  0  0  0  0  0  0  0
  -20.6249   -4.7277   23.1242 C   0  0  0  0  0  0  0  0  0  0  0  0
  -22.9422   -4.9433   23.7728 C   0  0  0  0  0  0  0  0  0  0  0  0
  -25.2040  -11.6124   21.7056 C   0  0  0  0  0  0  0  0  0  0  0  0
  -28.1427  -19.9812   16.5291 C   0  0  0  0  0  0  0  0  0  0  0  0
  -25.2662  -13.6194   20.8093 C   0  0  0  0  0  0  0  0  0  0  0  0
  -23.2882  -13.2272   22.2865 C   0  0  0  0  0  0  0  0  0  0  0  0
  -25.9607  -29.0233   21.4233 C   0  0  0  0  0  0  0  0  0  0  0  0
  -29.0822  -28.1430   21.3602 C   0  0  0  0  0  0  0  0  0  0  0  0
  -31.4268  -25.8483   20.4202 C   0  0  0  0  0  0  0  0  0  0  0  0
  -30.2171  -15.5667   19.1237 C   0  0  0  0  0  0  0  0  0  0  0  0
  -26.6477  -33.9483   22.5767 C   0  0  0  0  0  0  0  0  0  0  0  0
  -25.8411  -26.6786   22.3421 C   0  0  0  0  0  0  0  0  0  0  0  0
  -27.5062  -26.8178   19.9023 C   0  0  0  0  0  0  0  0  0  0  0  0
  -25.9767  -20.2076   17.8318 C   0  0  0  0  0  0  0  0  0  0  0  0
  -27.2779  -32.9571   21.6016 C   0  0  0  0  0  0  0  0  0  0  0  0
  -29.1630  -12.4291   17.8118 C   0  0  0  0  0  0  0  0  0  0  0  0
  -26.1971  -32.2120   20.8247 C   0  0  0  0  0  0  0  0  0  0  0  0
  -27.9863  -12.0353   18.7065 C   0  0  0  0  0  0  0  0  0  0  0  0
  -30.2567  -13.1457   18.6007 C   0  0  0  0  0  0  0  0  0  0  0  0
  -28.6199  -13.9169   20.2740 C   0  0  0  0  0  0  0  0  0  0  0  0
  -25.9928  -20.7644   15.4139 C   0  0  0  0  0  0  0  0  0  0  0  0
  -25.3023  -31.3980   21.7671 C   0  0  1  0  0  0  0  0  0  0  0  0
  -26.7240  -27.8855   22.0402 C   0  0  1  0  0  0  0  0  0  0  0  0
  -27.4668  -13.2409   19.5126 C   0  0  2  0  0  0  0  0  0  0  0  0
  -27.5366  -20.7303   15.3445 C   0  0  0  0  0  0  0  0  0  0  0  0
  -27.2807  -18.8237   20.0269 C   0  0  0  0  0  0  0  0  0  0  0  0
  -27.9168  -20.0365   14.0192 C   0  0  0  0  0  0  0  0  0  0  0  0
  -28.1125  -22.1610   15.3285 C   0  0  0  0  0  0  0  0  0  0  0  0
  -33.8994  -25.4231   20.4738 C   0  0  0  0  0  0  0  0  0  0  0  0
  -29.4751  -30.1576   19.1026 C   0  0  0  0  0  0  0  0  0  0  0  0
  -31.6486  -29.0340   18.5720 C   0  0  0  0  0  0  0  0  0  0  0  0
  -31.3157  -30.1154   20.7952 C   0  0  0  0  0  0  0  0  0  0  0  0
  -31.0856  -23.3841   22.0234 C   0  0  0  0  0  0  0  0  0  0  0  0
  -30.0476  -17.9641   19.7426 C   0  0  0  0  0  0  0  0  0  0  0  0
  -24.0622  -21.4671   16.8379 C   0  0  0  0  0  0  0  0  0  0  0  0
  -23.7670  -22.4264   17.9741 C   0  0  0  0  0  0  0  0  0  1  0  0
  -30.1169  -27.9503   20.2781 C   0  0  1  0  0  0  0  0  0  0  0  0
  -32.5718  -25.2075   21.1836 C   0  0  2  0  0  0  0  0  0  0  0  0
  -30.6148  -29.2995   19.6871 C   0  0  0  0  0  0  0  0  0  0  0  0
  -29.4367  -19.5823   16.4081 N   0  0  0  0  0  0  0  0  0  0  0  0
  -26.3170  -11.6148   20.9673 N   0  0  0  0  0  0  0  0  0  0  0  0
  -26.3272  -12.8486   20.4346 N   0  0  0  0  0  0  0  0  0  0  0  0
  -27.8252  -27.5665   21.1292 N   0  0  0  0  0  0  0  0  0  0  0  0
  -29.6984  -14.2796   19.3413 N   0  0  0  0  0  0  0  0  0  0  0  0
  -25.1213  -14.8862   20.3658 N   0  0  0  0  0  0  0  0  0  0  0  0
  -22.0782  -12.9974   21.6176 N   0  0  0  0  0  0  0  0  0  0  0  0
  -25.9726  -30.1822   22.1758 N   0  0  0  0  0  0  0  0  0  0  0  0
  -31.1712  -27.1289   20.8630 N   0  0  0  0  0  0  0  0  0  0  0  0
  -29.6271  -16.5857   19.8614 N   0  0  0  0  0  0  0  0  0  0  0  0
  -25.5408  -21.2033   16.7828 N   0  3  1  0  0  0  0  0  0  0  0  0
  -32.3456  -23.7410   21.3219 N   0  3  0  0  0  0  0  0  0  0  0  0
  -23.2719  -13.7801   23.4123 O   0  0  0  0  0  0  0  0  0  0  0  0
  -25.4035  -28.8622   20.3438 O   0  0  0  0  0  0  0  0  0  0  0  0
  -29.3804  -28.7755   22.3764 O   0  0  0  0  0  0  0  0  0  0  0  0
  -30.8223  -25.2720   19.5186 O   0  0  0  0  0  0  0  0  0  0  0  0
  -31.1343  -15.7919   18.3268 O   0  0  0  0  0  0  0  0  0  0  0  0
  -23.7639   -7.0502   24.6003 O   0  0  0  0  0  0  0  0  0  0  0  0
  -24.4445  -23.6552   17.7473 O   0  0  0  0  0  0  0  0  0  1  0  0
  -19.6169   -3.9825   22.6522 F   0  0  0  0  0  0  0  0  0  0  0  0
  -24.1579   -4.3995   23.9213 F   0  0  0  0  0  0  0  0  0  0  0  0
  1  2  1  0  0  0  0
  1  5  2  0  0  0  0
  2  6  2  0  0  0  0
  3  8  2  0  0  0  0
  3 16  1  0  0  0  0
  4  9  1  0  0  0  0
  4 16  2  0  0  0  0
  5 18  1  0  0  0  0
  6 20  1  0  0  0  0
  7 10  2  0  0  0  0
  7 19  1  0  0  0  0
  8 25  1  0  0  0  0
  9 25  2  0  0  0  0
 10 26  1  0  0  0  0
 11 12  2  0  0  0  0
 11 27  1  0  0  0  0
 12 28  1  0  0  0  0
 13 21  1  0  0  0  0
 13 26  2  0  0  0  0
 14 28  2  0  0  0  0
 14 29  1  0  0  0  0
 15 23  2  0  0  0  0
 15 67  1  0  0  0  0
 16 30  1  0  0  0  0
 17 30  1  0  0  0  0
 17 32  2  0  0  0  0
 17 33  1  0  0  0  0
 18 20  2  0  0  0  0
 18 38  1  0  0  0  0
 19 21  2  0  0  0  0
 19 39  1  0  0  0  0
 20 49  1  0  0  0  0
 21 40  1  0  0  0  0
 22 24  2  0  0  0  0
 22 31  1  0  0  0  0
 22 41  1  0  0  0  0
 23 24  1  0  0  0  0
 23 61  1  0  0  0  0
 24 53  1  0  0  0  0
 25 84  1  0  0  0  0
 26 85  1  0  0  0  0
 27 29  2  0  0  0  0
 27 84  1  0  0  0  0
 28 86  1  0  0  0  0
 29 87  1  0  0  0  0
 30 68  2  0  0  0  0
 31 52  1  0  0  0  0
 31 67  2  0  0  0  0
 32 69  1  0  0  0  0
 32 72  1  0  0  0  0
 33 73  1  0  0  0  0
 33 79  2  0  0  0  0
 34 50  1  0  0  0  0
 34 74  1  0  0  0  0
 34 80  2  0  0  0  0
 35 64  1  0  0  0  0
 35 70  1  0  0  0  0
 35 81  2  0  0  0  0
 36 65  1  0  0  0  0
 36 75  1  0  0  0  0
 36 82  2  0  0  0  0
 37 71  1  0  0  0  0
 37 76  1  0  0  0  0
 37 83  2  0  0  0  0
 38 42  1  0  0  0  0
 39 50  1  0  0  0  0
 40 70  1  0  0  0  0
 41 77  1  0  0  0  0
 42 44  1  0  0  0  0
 43 45  1  0  0  0  0
 43 46  1  0  0  0  0
 44 49  1  0  0  0  0
 45 51  1  0  0  0  0
 46 71  1  0  0  0  0
 47 51  1  0  0  0  0
 47 71  1  0  0  0  0
 48 52  1  0  0  0  0
 48 77  1  0  0  0  0
 49 74  1  0  0  0  0
 50 70  1  0  0  0  0
 51 69  1  0  0  0  0
 52 54  1  0  0  0  0
 52 55  1  0  0  0  0
 56 65  1  0  0  0  0
 57 66  1  0  0  0  0
 58 66  1  0  0  0  0
 59 66  1  0  0  0  0
 60 78  1  0  0  0  0
 61 76  1  0  0  0  0
 62 63  1  0  0  0  0
 62 77  1  0  0  0  0
 63 85  1  0  0  0  0
 64 66  1  0  0  0  0
 64 75  1  0  0  0  0
 65 78  1  0  0  0  0
 68 69  1  0  0  0  0
M  CHG  2  77   1  78   1
M  ISO  4  37 100  63 101  76 100  85 101
M  END
> <Batch ID>
0152

> <Smiles>
CNC(C)C(=O)NC(C(=O)N1Cc2cc([101O:1][101CH2:1]CN3Cc4c(ncc(C[100NH:0][100C:0](=O)N5CCCC(n6nc(-c7ccc(Oc8ccc(F)cc8F)cc7)c(C(N)=O)c6N)C5)c4C)C(C)(C)C3)ccc2CC1C(=O)NC1CCCc2ccccc21)C(C)(C)C

> <Shape>
0.267

> <Color>
0.125

> <Negative vol penalty>
0.000

$$$$

  -OEChem-04052321463D

 89 99  0     1  0  0  0  0  0999 V2000
  -16.4915  -27.1376   22.9868 C   0  0  0  0  0  0  0  0  0  0  0  0
  -17.5455  -26.4957   23.6291 C   0  0  0  0  0  0  0  0  0  0  0  0
  -23.8663  -10.0163   22.4546 C   0  0  0  0  0  0  0  0  0  0  0  0
  -23.0224  -10.3180   20.2110 C   0  0  0  0  0  0  0  0  0  0  0  0
  -16.7526  -28.1166   22.0291 C   0  0  0  0  0  0  0  0  0  0  0  0
  -18.8614  -26.8319   23.3132 C   0  0  0  0  0  0  0  0  0  0  0  0
  -23.6477  -26.9549   27.1318 C   0  0  0  0  0  0  0  0  0  0  0  0
  -22.9010   -9.0364   22.6860 C   0  0  0  0  0  0  0  0  0  0  0  0
  -22.0571   -9.3381   20.4423 C   0  0  0  0  0  0  0  0  0  0  0  0
  -24.6698  -26.0410   27.3845 C   0  0  0  0  0  0  0  0  0  0  0  0
  -22.4369   -5.7715   21.9390 C   0  0  0  0  0  0  0  0  0  0  0  0
  -22.8454   -4.5943   22.5658 C   0  0  0  0  0  0  0  0  0  0  0  0
  -28.6002  -23.4947   29.2452 C   0  0  0  0  0  0  0  0  0  0  0  0
  -26.1003  -27.2240   25.8439 C   0  0  0  0  0  0  0  0  0  0  0  0
  -28.1978  -22.4811   27.0894 C   0  0  0  0  0  0  0  0  0  0  0  0
  -21.2990   -5.0199   24.3727 C   0  0  0  0  0  0  0  0  0  0  0  0
  -23.9270  -10.6572   21.2171 C   0  0  0  0  0  0  0  0  0  0  0  0
  -26.2208  -11.4815   20.4643 C   0  0  0  0  0  0  0  0  0  0  0  0
  -18.0723  -28.4718   21.7083 C   0  0  0  0  0  0  0  0  0  0  0  0
  -23.8409  -28.0057   26.2236 C   0  0  0  0  0  0  0  0  0  0  0  0
  -19.1405  -27.8157   22.3493 C   0  0  0  0  0  0  0  0  0  0  0  0
  -29.7343  -22.6992   29.4077 C   0  0  0  0  0  0  0  0  0  0  0  0
  -25.0799  -28.1514   25.5834 C   0  0  0  0  0  0  0  0  0  0  0  0
  -27.8319  -23.3857   28.0861 C   0  0  0  0  0  0  0  0  0  0  0  0
  -29.3320  -21.6855   27.2518 C   0  0  0  0  0  0  0  0  0  0  0  0
  -21.9964   -8.6973   21.6798 C   0  0  0  0  0  0  0  0  0  0  0  0
  -25.8953  -26.1738   26.7383 C   0  0  0  0  0  0  0  0  0  0  0  0
  -21.4595   -6.5730   22.5291 C   0  0  0  0  0  0  0  0  0  0  0  0
  -30.1002  -21.7946   28.4110 C   0  0  0  0  0  0  0  0  0  0  0  0
  -22.2764   -4.2185   23.7827 C   0  0  0  0  0  0  0  0  0  0  0  0
  -20.8905   -6.1971   23.7459 C   0  0  0  0  0  0  0  0  0  0  0  0
  -24.9236  -11.6699   20.9777 C   0  0  0  0  0  0  0  0  0  0  0  0
  -26.7628  -12.7430   20.4292 C   0  0  0  0  0  0  0  0  0  0  0  0
  -26.8771  -10.2741   20.0555 C   0  0  0  0  0  0  0  0  0  0  0  0
  -22.4977  -28.8710   23.4757 C   0  0  0  0  0  0  0  0  0  0  0  0
  -24.4048  -31.4733   23.8120 C   0  0  0  0  0  0  0  0  0  0  0  0
  -27.2227  -32.8450   25.1628 C   0  0  0  0  0  0  0  0  0  0  0  0
  -27.7900  -17.5639   22.5527 C   0  0  0  0  0  0  0  0  0  0  0  0
  -18.3056  -29.5026   20.6323 C   0  0  0  0  0  0  0  0  0  0  0  0
  -22.7373  -28.9988   25.9822 C   0  0  0  0  0  0  0  0  0  0  0  0
  -25.3449  -29.2739   24.6148 C   0  0  0  0  0  0  0  0  0  0  0  0
  -19.7244  -30.0656   20.6254 C   0  0  0  0  0  0  0  0  0  0  0  0
  -24.6250  -17.2764   21.0596 C   0  0  0  0  0  0  0  0  0  0  0  0
  -31.0738  -24.1843   31.0429 C   0  0  0  0  0  0  0  0  0  0  0  0
  -32.0145  -23.1325   30.5439 C   0  0  0  0  0  0  0  0  0  0  0  0
  -20.7465  -28.9385   20.7351 C   0  0  0  0  0  0  0  0  0  0  0  0
  -24.5196  -15.7646   20.8607 C   0  0  0  0  0  0  0  0  0  0  0  0
  -27.6958  -19.7676   25.2955 C   0  0  0  0  0  0  0  0  0  0  0  0
  -29.8228  -19.9933   23.9567 C   0  0  0  0  0  0  0  0  0  0  0  0
  -25.2610  -17.6347   22.4040 C   0  0  0  0  0  0  0  0  0  0  0  0
  -26.9349  -19.4596   24.0025 C   0  0  0  0  0  0  0  0  0  0  0  0
  -29.0177  -19.7098   22.6915 C   0  0  0  0  0  0  0  0  0  0  0  0
  -26.4649  -15.4742   22.4413 C   0  0  0  0  0  0  0  0  0  0  0  0
  -30.5439  -22.8296   30.6548 C   0  0  0  0  0  0  0  0  0  0  0  0
  -20.5813  -28.1702   22.0519 C   0  0  1  0  0  0  0  0  0  0  0  0
  -22.8724  -29.7301   24.6501 C   0  0  1  0  0  0  0  0  0  0  0  0
  -25.8830  -15.0831   21.0741 C   0  0  1  0  0  0  0  0  0  0  0  0
  -28.9330  -20.6281   25.0286 C   0  0  0  0  0  0  0  0  0  0  0  0
  -28.5373  -34.9816   25.2276 C   0  0  0  0  0  0  0  0  0  0  0  0
  -25.4659  -30.9026   21.0088 C   0  0  0  0  0  0  0  0  0  0  0  0
  -27.3866  -32.4315   21.5001 C   0  0  0  0  0  0  0  0  0  0  0  0
  -25.0561  -33.3209   21.4968 C   0  0  0  0  0  0  0  0  0  0  0  0
  -26.8819  -33.1017   28.0915 C   0  0  0  0  0  0  0  0  0  0  0  0
  -31.0296  -19.7532   29.2015 C   0  0  0  0  0  0  0  0  0  0  0  0
  -26.6192  -24.2362   27.9123 C   0  0  0  0  0  0  0  0  0  1  0  0
  -25.8109  -31.8296   23.3937 C   0  0  1  0  0  0  0  0  0  0  0  0
  -27.4534  -34.1525   25.8988 C   0  0  2  0  0  0  0  0  0  0  0  0
  -25.9245  -32.0987   21.8666 C   0  0  0  0  0  0  0  0  0  0  0  0
  -24.6576  -12.9503   21.2495 N   0  0  0  0  0  0  0  0  0  0  0  0
  -25.7951  -13.5778   20.9055 N   0  0  0  0  0  0  0  0  0  0  0  0
  -24.2324  -30.2156   24.4073 N   0  0  0  0  0  0  0  0  0  0  0  0
  -26.5387  -16.9302   22.5794 N   0  0  0  0  0  0  0  0  0  0  0  0
  -27.8381  -18.8965   22.9886 N   0  0  0  0  0  0  0  0  0  0  0  0
  -27.9679  -13.2086   20.0377 N   0  0  0  0  0  0  0  0  0  0  0  0
  -26.1758   -9.0649   20.1575 N   0  0  0  0  0  0  0  0  0  0  0  0
  -29.6827  -20.7929   26.2545 N   0  0  0  0  0  0  0  0  0  0  0  0
  -21.1558  -28.9187   23.1493 N   0  0  0  0  0  0  0  0  0  0  0  0
  -26.2129  -32.9550   24.2304 N   0  0  0  0  0  0  0  0  0  0  0  0
  -27.8670  -33.8889   27.3060 N   0  3  0  0  0  0  0  0  0  0  0  0
  -28.0565  -10.2655   19.6284 O   0  0  0  0  0  0  0  0  0  0  0  0
  -23.3622  -28.2147   22.9069 O   0  0  0  0  0  0  0  0  0  0  0  0
  -23.4943  -32.2841   23.6243 O   0  0  0  0  0  0  0  0  0  0  0  0
  -27.8757  -31.8288   25.3897 O   0  0  0  0  0  0  0  0  0  0  0  0
  -28.8052  -16.9738   22.1624 O   0  0  0  0  0  0  0  0  0  0  0  0
  -21.0544   -7.7410   21.9051 O   0  0  0  0  0  0  0  0  0  0  0  0
  -31.2112  -21.0182   28.5708 O   0  0  0  0  0  0  0  0  0  0  0  0
  -26.9013  -25.2766   26.9843 O   0  0  0  0  0  0  0  0  0  1  0  0
  -22.6677   -3.0872   24.3837 F   0  0  0  0  0  0  0  0  0  0  0  0
  -19.9503   -6.9623   24.3170 F   0  0  0  0  0  0  0  0  0  0  0  0
  1  2  1  0  0  0  0
  1  5  2  0  0  0  0
  2  6  2  0  0  0  0
  3  8  2  0  0  0  0
  3 17  1  0  0  0  0
  4  9  1  0  0  0  0
  4 17  2  0  0  0  0
  5 19  1  0  0  0  0
  6 21  1  0  0  0  0
  7 10  2  0  0  0  0
  7 20  1  0  0  0  0
  8 26  1  0  0  0  0
  9 26  2  0  0  0  0
 10 27  1  0  0  0  0
 11 12  2  0  0  0  0
 11 28  1  0  0  0  0
 12 30  1  0  0  0  0
 13 22  1  0  0  0  0
 13 24  2  0  0  0  0
 14 23  1  0  0  0  0
 14 27  2  0  0  0  0
 15 24  1  0  0  0  0
 15 25  2  0  0  0  0
 16 30  2  0  0  0  0
 16 31  1  0  0  0  0
 17 32  1  0  0  0  0
 18 32  1  0  0  0  0
 18 33  2  0  0  0  0
 18 34  1  0  0  0  0
 19 21  2  0  0  0  0
 19 39  1  0  0  0  0
 20 23  2  0  0  0  0
 20 40  1  0  0  0  0
 21 55  1  0  0  0  0
 22 29  2  0  0  0  0
 22 54  1  0  0  0  0
 23 41  1  0  0  0  0
 24 65  1  0  0  0  0
 25 29  1  0  0  0  0
 25 76  1  0  0  0  0
 26 85  1  0  0  0  0
 27 87  1  0  0  0  0
 28 31  2  0  0  0  0
 28 85  1  0  0  0  0
 29 86  1  0  0  0  0
 30 88  1  0  0  0  0
 31 89  1  0  0  0  0
 32 69  2  0  0  0  0
 33 70  1  0  0  0  0
 33 74  1  0  0  0  0
 34 75  1  0  0  0  0
 34 80  2  0  0  0  0
 35 56  1  0  0  0  0
 35 77  1  0  0  0  0
 35 81  2  0  0  0  0
 36 66  1  0  0  0  0
 36 71  1  0  0  0  0
 36 82  2  0  0  0  0
 37 67  1  0  0  0  0
 37 78  1  0  0  0  0
 37 83  2  0  0  0  0
 38 72  1  0  0  0  0
 38 73  1  0  0  0  0
 38 84  2  0  0  0  0
 39 42  1  0  0  0  0
 40 56  1  0  0  0  0
 41 71  1  0  0  0  0
 42 46  1  0  0  0  0
 43 47  1  0  0  0  0
 43 50  1  0  0  0  0
 44 45  1  0  0  0  0
 44 54  1  0  0  0  0
 45 54  1  0  0  0  0
 46 55  1  0  0  0  0
 47 57  1  0  0  0  0
 48 51  1  0  0  0  0
 48 58  1  0  0  0  0
 49 52  1  0  0  0  0
 49 58  1  0  0  0  0
 50 72  1  0  0  0  0
 51 73  1  0  0  0  0
 52 73  1  0  0  0  0
 53 57  1  0  0  0  0
 53 72  1  0  0  0  0
 55 77  1  0  0  0  0
 56 71  1  0  0  0  0
 57 70  1  0  0  0  0
 58 76  1  0  0  0  0
 59 67  1  0  0  0  0
 60 68  1  0  0  0  0
 61 68  1  0  0  0  0
 62 68  1  0  0  0  0
 63 79  1  0  0  0  0
 64 86  1  0  0  0  0
 65 87  1  0  0  0  0
 66 68  1  0  0  0  0
 66 78  1  0  0  0  0
 67 79  1  0  0  0  0
 69 70  1  0  0  0  0
M  CHG  1  79   1
M  ISO  4  38 100  65 101  73 100  87 101
M  END
> <Batch ID>
0152

> <Smiles>
CNC(C)C(=O)NC(C(=O)N1Cc2cc([101O:1][101CH2:1]c3cc(NC4CC[100N:0]([100C:0](=O)N5CCCC(n6nc(-c7ccc(Oc8ccc(F)cc8F)cc7)c(C(N)=O)c6N)C5)CC4)c(OC)c(C4CC4)c3)ccc2CC1C(=O)NC1CCCc2ccccc21)C(C)(C)C

> <Shape>
0.238

> <Color>
0.098

> <Negative vol penalty>
0.000

$$$$

  -OEChem-04052321463D

 91100  0     1  0  0  0  0  0999 V2000
  -29.9672  -36.3101   21.8994 C   0  0  0  0  0  0  0  0  0  0  0  0
  -30.0157  -35.1215   21.1781 C   0  0  0  0  0  0  0  0  0  0  0  0
  -23.6691  -10.1473   22.1199 C   0  0  0  0  0  0  0  0  0  0  0  0
  -25.0031   -8.1406   21.9455 C   0  0  0  0  0  0  0  0  0  0  0  0
  -29.3064  -36.3531   23.1264 C   0  0  0  0  0  0  0  0  0  0  0  0
  -29.4044  -33.9748   21.6839 C   0  0  0  0  0  0  0  0  0  0  0  0
  -26.6158  -29.5682   18.4729 C   0  0  0  0  0  0  0  0  0  0  0  0
  -22.5107   -9.3937   21.9305 C   0  0  0  0  0  0  0  0  0  0  0  0
  -23.8448   -7.3869   21.7563 C   0  0  0  0  0  0  0  0  0  0  0  0
  -27.0403  -28.3139   18.0365 C   0  0  0  0  0  0  0  0  0  0  0  0
  -21.2122   -4.8851   21.5870 C   0  0  0  0  0  0  0  0  0  0  0  0
  -21.0912   -3.6909   22.2975 C   0  0  0  0  0  0  0  0  0  0  0  0
  -26.0158  -27.3007   19.9712 C   0  0  0  0  0  0  0  0  0  0  0  0
  -28.9819  -22.9377   21.0598 C   0  0  0  0  0  0  0  0  0  0  0  0
  -29.7218  -22.0979   18.9187 C   0  0  0  0  0  0  0  0  0  0  0  0
  -21.2439   -4.9125   24.3764 C   0  0  0  0  0  0  0  0  0  0  0  0
  -24.9153   -9.5207   22.1273 C   0  0  0  0  0  0  0  0  0  0  0  0
  -26.7360  -10.6069   23.5462 C   0  0  0  0  0  0  0  0  0  0  0  0
  -28.6784  -35.2088   23.6429 C   0  0  0  0  0  0  0  0  0  0  0  0
  -25.8963  -29.6996   19.6693 C   0  0  0  0  0  0  0  0  0  0  0  0
  -28.7358  -34.0022   22.9196 C   0  0  0  0  0  0  0  0  0  0  0  0
  -25.5811  -28.5575   20.4192 C   0  0  0  0  0  0  0  0  0  0  0  0
  -29.3774  -20.5731   20.7609 C   0  0  0  0  0  0  0  0  0  0  0  0
  -28.9989  -21.6413   21.5742 C   0  0  0  0  0  0  0  0  0  0  0  0
  -29.7388  -20.8014   19.4331 C   0  0  0  0  0  0  0  0  0  0  0  0
  -22.5985   -8.0135   21.7488 C   0  0  0  0  0  0  0  0  0  0  0  0
  -26.7429  -27.1803   18.7871 C   0  0  0  0  0  0  0  0  0  0  0  0
  -21.3492   -6.0930   22.2711 C   0  0  0  0  0  0  0  0  0  0  0  0
  -29.3433  -23.1660   19.7321 C   0  0  0  0  0  0  0  0  0  0  0  0
  -21.1070   -3.7046   23.6922 C   0  0  0  0  0  0  0  0  0  0  0  0
  -21.3650   -6.1066   23.6658 C   0  0  0  0  0  0  0  0  0  0  0  0
  -26.1123  -10.2988   22.3223 C   0  0  0  0  0  0  0  0  0  0  0  0
  -27.8279  -11.3623   23.1945 C   0  0  0  0  0  0  0  0  0  0  0  0
  -26.3619  -10.2427   24.8815 C   0  0  0  0  0  0  0  0  0  0  0  0
  -26.3948  -31.1847   22.4351 C   0  0  0  0  0  0  0  0  0  0  0  0
  -23.3616  -30.2166   23.0554 C   0  0  0  0  0  0  0  0  0  0  0  0
  -20.8338  -28.0162   22.4112 C   0  0  0  0  0  0  0  0  0  0  0  0
  -30.2812  -15.2968   20.2753 C   0  0  0  0  0  0  0  0  0  0  0  0
  -28.0168  -35.2920   24.9957 C   0  0  0  0  0  0  0  0  0  0  0  0
  -25.4225  -31.0566   20.1125 C   0  0  0  0  0  0  0  0  0  0  0  0
  -24.7938  -28.6424   21.7004 C   0  0  0  0  0  0  0  0  0  0  0  0
  -27.0733  -34.1274   25.2850 C   0  0  0  0  0  0  0  0  0  0  0  0
  -29.9121  -12.2523   18.6806 C   0  0  0  0  0  0  0  0  0  0  0  0
  -27.7339  -32.8018   24.9198 C   0  0  0  0  0  0  0  0  0  0  0  0
  -28.9424  -11.4862   19.5801 C   0  0  0  0  0  0  0  0  0  0  0  0
  -28.3986  -18.2416   20.5947 C   0  0  0  0  0  0  0  0  0  0  0  0
  -30.8088  -18.5536   21.3043 C   0  0  0  0  0  0  0  0  0  0  0  0
  -29.4930  -13.7115   18.5443 C   0  0  0  0  0  0  0  0  0  0  0  0
  -28.4452  -16.8125   21.1430 C   0  0  0  0  0  0  0  0  0  0  0  0
  -30.7905  -17.1315   21.8574 C   0  0  0  0  0  0  0  0  0  0  0  0
  -28.3957  -13.6720   20.7608 C   0  0  0  0  0  0  0  0  0  0  0  0
  -29.3953  -19.1632   21.3206 C   0  0  0  0  0  0  0  0  0  0  0  0
  -28.0635  -32.7435   23.4233 C   0  0  1  0  0  0  0  0  0  0  0  0
  -25.1402  -31.1312   21.6099 C   0  0  1  0  0  0  0  0  0  0  0  0
  -28.7769  -12.1884   20.9395 C   0  0  1  0  0  0  0  0  0  0  0  0
  -31.5966  -19.8135   18.0453 C   0  0  0  0  0  0  0  0  0  0  0  0
  -29.1958  -19.5025   17.3422 C   0  0  0  0  0  0  0  0  0  0  0  0
  -18.4874  -27.4544   23.1014 C   0  0  0  0  0  0  0  0  0  0  0  0
  -24.4209  -28.9642   25.6283 C   0  0  0  0  0  0  0  0  0  0  0  0
  -22.2988  -27.6440   25.7770 C   0  0  0  0  0  0  0  0  0  0  0  0
  -22.2243  -30.1358   25.8658 C   0  0  0  0  0  0  0  0  0  0  0  0
  -19.7938  -28.4889   19.6810 C   0  0  0  0  0  0  0  0  0  0  0  0
  -26.8862  -20.6320   24.3882 C   0  0  0  0  0  0  0  0  0  0  0  0
  -28.6085  -21.4248   22.9997 C   0  0  0  0  0  0  0  0  0  0  0  0
  -28.3614  -25.9035   17.6013 C   0  0  0  0  0  0  0  0  0  1  0  0
  -29.0489  -24.5726   17.8372 C   0  0  0  0  0  0  0  0  0  0  0  0
  -30.1459  -19.6743   18.5414 C   0  0  0  0  0  0  0  0  0  0  0  0
  -22.7363  -28.9886   23.6718 C   0  0  1  0  0  0  0  0  0  0  0  0
  -19.3583  -28.2322   22.1270 C   0  0  2  0  0  0  0  0  0  0  0  0
  -22.9366  -28.9314   25.2126 C   0  0  0  0  0  0  0  0  0  0  0  0
  -26.7544  -10.8163   21.2716 N   0  0  0  0  0  0  0  0  0  0  0  0
  -27.7929  -11.4573   21.8344 N   0  0  0  0  0  0  0  0  0  0  0  0
  -24.3583  -29.9922   22.0952 N   0  0  0  0  0  0  0  0  0  0  0  0
  -29.3431  -14.3415   19.8559 N   0  0  0  0  0  0  0  0  0  0  0  0
  -29.8227  -16.3006   21.1417 N   0  0  0  0  0  0  0  0  0  0  0  0
  -28.8048  -11.9479   23.9191 N   0  0  0  0  0  0  0  0  0  0  0  0
  -25.2116   -9.4630   25.0640 N   0  0  0  0  0  0  0  0  0  0  0  0
  -26.8703  -32.4636   22.6536 N   0  0  0  0  0  0  0  0  0  0  0  0
  -21.3397  -28.9864   23.2503 N   0  0  0  0  0  0  0  0  0  0  0  0
  -19.0269  -27.7888   20.7433 N   0  3  0  0  0  0  0  0  0  0  0  0
  -27.0188  -10.6119   25.8843 O   0  0  0  0  0  0  0  0  0  0  0  0
  -26.8936  -30.1430   22.8445 O   0  0  0  0  0  0  0  0  0  0  0  0
  -22.9748  -31.3337   23.4076 O   0  0  0  0  0  0  0  0  0  0  0  0
  -21.4727  -27.0784   21.9392 O   0  0  0  0  0  0  0  0  0  0  0  0
  -31.4592  -15.2556   19.8989 O   0  0  0  0  0  0  0  0  0  0  0  0
  -21.4684   -7.2778   21.5642 O   0  0  0  0  0  0  0  0  0  0  0  0
  -27.1594  -25.9466   18.3610 O   0  0  0  0  0  0  0  0  0  1  0  0
  -29.3245  -24.4309   19.2299 O   0  0  0  0  0  0  0  0  0  0  0  0
  -27.3057  -20.8582   23.0494 O   0  0  0  0  0  0  0  0  0  0  0  0
  -20.9893   -2.5579   24.3745 F   0  0  0  0  0  0  0  0  0  0  0  0
  -21.4950   -7.2641   24.3286 F   0  0  0  0  0  0  0  0  0  0  0  0
  1  2  1  0  0  0  0
  1  5  2  0  0  0  0
  2  6  2  0  0  0  0
  3  8  2  0  0  0  0
  3 17  1  0  0  0  0
  4  9  1  0  0  0  0
  4 17  2  0  0  0  0
  5 19  1  0  0  0  0
  6 21  1  0  0  0  0
  7 10  2  0  0  0  0
  7 20  1  0  0  0  0
  8 26  1  0  0  0  0
  9 26  2  0  0  0  0
 10 27  1  0  0  0  0
 11 12  2  0  0  0  0
 11 28  1  0  0  0  0
 12 30  1  0  0  0  0
 13 22  1  0  0  0  0
 13 27  2  0  0  0  0
 14 24  2  0  0  0  0
 14 29  1  0  0  0  0
 15 25  1  0  0  0  0
 15 29  2  0  0  0  0
 16 30  2  0  0  0  0
 16 31  1  0  0  0  0
 17 32  1  0  0  0  0
 18 32  1  0  0  0  0
 18 33  2  0  0  0  0
 18 34  1  0  0  0  0
 19 21  2  0  0  0  0
 19 39  1  0  0  0  0
 20 22  2  0  0  0  0
 20 40  1  0  0  0  0
 21 53  1  0  0  0  0
 22 41  1  0  0  0  0
 23 24  1  0  0  0  0
 23 25  2  0  0  0  0
 23 52  1  0  0  0  0
 24 64  1  0  0  0  0
 25 67  1  0  0  0  0
 26 86  1  0  0  0  0
 27 87  1  0  0  0  0
 28 31  2  0  0  0  0
 28 86  1  0  0  0  0
 29 88  1  0  0  0  0
 30 90  1  0  0  0  0
 31 91  1  0  0  0  0
 32 71  2  0  0  0  0
 33 72  1  0  0  0  0
 33 76  1  0  0  0  0
 34 77  1  0  0  0  0
 34 81  2  0  0  0  0
 35 54  1  0  0  0  0
 35 78  1  0  0  0  0
 35 82  2  0  0  0  0
 36 68  1  0  0  0  0
 36 73  1  0  0  0  0
 36 83  2  0  0  0  0
 37 69  1  0  0  0  0
 37 79  1  0  0  0  0
 37 84  2  0  0  0  0
 38 74  1  0  0  0  0
 38 75  1  0  0  0  0
 38 85  2  0  0  0  0
 39 42  1  0  0  0  0
 40 54  1  0  0  0  0
 41 73  1  0  0  0  0
 42 44  1  0  0  0  0
 43 45  1  0  0  0  0
 43 48  1  0  0  0  0
 44 53  1  0  0  0  0
 45 55  1  0  0  0  0
 46 49  1  0  0  0  0
 46 52  1  0  0  0  0
 47 50  1  0  0  0  0
 47 52  1  0  0  0  0
 48 74  1  0  0  0  0
 49 75  1  0  0  0  0
 50 75  1  0  0  0  0
 51 55  1  0  0  0  0
 51 74  1  0  0  0  0
 53 78  1  0  0  0  0
 54 73  1  0  0  0  0
 55 72  1  0  0  0  0
 56 67  1  0  0  0  0
 57 67  1  0  0  0  0
 58 69  1  0  0  0  0
 59 70  1  0  0  0  0
 60 70  1  0  0  0  0
 61 70  1  0  0  0  0
 62 80  1  0  0  0  0
 63 89  1  0  0  0  0
 64 89  1  0  0  0  0
 65 66  1  0  0  0  0
 65 87  1  0  0  0  0
 66 88  1  0  0  0  0
 68 70  1  0  0  0  0
 68 79  1  0  0  0  0
 69 80  1  0  0  0  0
 71 72  1  0  0  0  0
M  CHG  1  80   1
M  ISO  4  38 100  65 101  75 100  87 101
M  END
> <Batch ID>
0152

> <Smiles>
CNC(C)C(=O)NC(C(=O)N1Cc2cc([101O:1][101CH2:1]COc3cc(COC)c(C4CC[100N:0]([100C:0](=O)N5CCCC(n6nc(-c7ccc(Oc8ccc(F)cc8F)cc7)c(C(N)=O)c6N)C5)CC4)c(C(C)C)c3)ccc2CC1C(=O)NC1CCCc2ccccc21)C(C)(C)C

> <Shape>
0.341

> <Color>
0.106

> <Negative vol penalty>
0.000

$$$$

  -OEChem-04052321463D

 86 95  0     1  0  0  0  0  0999 V2000
  -28.4010  -37.0167   21.8083 C   0  0  0  0  0  0  0  0  0  0  0  0
  -28.7925  -35.7153   21.5109 C   0  0  0  0  0  0  0  0  0  0  0  0
  -24.6128   -9.1979   21.6834 C   0  0  0  0  0  0  0  0  0  0  0  0
  -22.8369  -10.1812   20.3733 C   0  0  0  0  0  0  0  0  0  0  0  0
  -27.3139  -37.2409   22.6521 C   0  0  0  0  0  0  0  0  0  0  0  0
  -28.0978  -34.6372   22.0581 C   0  0  0  0  0  0  0  0  0  0  0  0
  -27.0279  -29.2204   19.4085 C   0  0  0  0  0  0  0  0  0  0  0  0
  -23.6674   -8.5559   22.4831 C   0  0  0  0  0  0  0  0  0  0  0  0
  -21.8914   -9.5391   21.1730 C   0  0  0  0  0  0  0  0  0  0  0  0
  -27.6581  -27.9817   19.5185 C   0  0  0  0  0  0  0  0  0  0  0  0
  -21.6861   -5.8226   22.2912 C   0  0  0  0  0  0  0  0  0  0  0  0
  -21.9018   -4.4792   22.5983 C   0  0  0  0  0  0  0  0  0  0  0  0
  -26.0204  -27.3006   21.1536 C   0  0  0  0  0  0  0  0  0  0  0  0
  -30.5461  -21.7348   20.3482 C   0  0  0  0  0  0  0  0  0  0  0  0
  -21.9428   -5.0238   24.9518 C   0  0  0  0  0  0  0  0  0  0  0  0
  -24.1975  -10.0106   20.6285 C   0  0  0  0  0  0  0  0  0  0  0  0
  -25.7682  -10.1811   18.6257 C   0  0  0  0  0  0  0  0  0  0  0  0
  -26.5995  -36.1649   23.2021 C   0  0  0  0  0  0  0  0  0  0  0  0
  -25.8938  -29.5130   20.1795 C   0  0  0  0  0  0  0  0  0  0  0  0
  -27.0009  -34.8471   22.9111 C   0  0  0  0  0  0  0  0  0  0  0  0
  -25.3762  -28.5429   21.0496 C   0  0  0  0  0  0  0  0  0  0  0  0
  -28.6771  -23.0817   19.6439 C   0  0  0  0  0  0  0  0  0  0  0  0
  -29.2424  -21.8305   19.8713 C   0  0  0  0  0  0  0  0  0  0  0  0
  -22.3067   -8.7265   22.2279 C   0  0  0  0  0  0  0  0  0  0  0  0
  -27.1561  -27.0226   20.3933 C   0  0  0  0  0  0  0  0  0  0  0  0
  -21.5988   -6.7667   23.3144 C   0  0  0  0  0  0  0  0  0  0  0  0
  -22.0301   -4.0798   23.9286 C   0  0  0  0  0  0  0  0  0  0  0  0
  -21.7271   -6.3672   24.6447 C   0  0  0  0  0  0  0  0  0  0  0  0
  -25.1736  -10.6746   19.8024 C   0  0  0  0  0  0  0  0  0  0  0  0
  -31.2575  -22.9019   20.5877 C   0  0  0  0  0  0  0  0  0  0  0  0
  -29.4357  -24.2147   19.9013 C   0  0  0  0  0  0  0  0  0  0  0  0
  -26.6179  -11.1828   18.2241 C   0  0  0  0  0  0  0  0  0  0  0  0
  -25.5702   -8.9292   17.9554 C   0  0  0  0  0  0  0  0  0  0  0  0
  -25.1940  -31.6627   22.4140 C   0  0  0  0  0  0  0  0  0  0  0  0
  -22.2175  -30.4021   22.1422 C   0  0  0  0  0  0  0  0  0  0  0  0
  -20.2662  -27.7431   21.2653 C   0  0  0  0  0  0  0  0  0  0  0  0
  -26.6654  -16.9222   18.9203 C   0  0  0  0  0  0  0  0  0  0  0  0
  -25.4605  -36.4569   24.1467 C   0  0  0  0  0  0  0  0  0  0  0  0
  -25.2098  -30.8443   20.0295 C   0  0  0  0  0  0  0  0  0  0  0  0
  -24.1494  -28.8000   21.8846 C   0  0  0  0  0  0  0  0  0  0  0  0
  -24.5455  -35.2587   24.3862 C   0  0  0  0  0  0  0  0  0  0  0  0
  -29.2551  -14.7792   19.9405 C   0  0  0  0  0  0  0  0  0  0  0  0
  -25.3690  -34.0052   24.6643 C   0  0  0  0  0  0  0  0  0  0  0  0
  -28.5558  -13.4206   19.9078 C   0  0  0  0  0  0  0  0  0  0  0  0
  -28.3486  -15.8769   20.4998 C   0  0  0  0  0  0  0  0  0  0  0  0
  -28.5807  -20.0364   18.2993 C   0  0  0  0  0  0  0  0  0  0  0  0
  -28.2620  -19.7625   20.7630 C   0  0  0  0  0  0  0  0  0  0  0  0
  -27.3836  -19.1199   18.0612 C   0  0  0  0  0  0  0  0  0  0  0  0
  -27.0642  -18.8622   20.4815 C   0  0  0  0  0  0  0  0  0  0  0  0
  -26.3407  -14.6228   19.7832 C   0  0  0  0  0  0  0  0  0  0  0  0
  -26.2572  -33.6514   23.4654 C   0  0  1  0  0  0  0  0  0  0  0  0
  -24.3640  -31.2214   21.2418 C   0  0  1  0  0  0  0  0  0  0  0  0
  -27.2073  -13.5111   19.1715 C   0  0  2  0  0  0  0  0  0  0  0  0
  -32.6529  -22.8847   21.0965 C   0  0  0  0  0  0  0  0  0  0  0  0
  -17.8715  -26.9967   21.1908 C   0  0  0  0  0  0  0  0  0  0  0  0
  -22.2614  -29.9679   25.1621 C   0  0  0  0  0  0  0  0  0  0  0  0
  -20.3258  -28.4025   24.8950 C   0  0  0  0  0  0  0  0  0  0  0  0
  -20.0834  -30.8026   24.2597 C   0  0  0  0  0  0  0  0  0  0  0  0
  -20.3448  -27.3954   18.3273 C   0  0  0  0  0  0  0  0  0  0  0  0
  -27.2798  -23.2106   19.1325 C   0  0  0  0  0  0  0  0  0  0  0  0
  -28.9237  -25.5948   19.6913 C   0  0  0  0  0  0  0  0  0  1  0  0
  -21.4714  -29.2696   22.8053 C   0  0  1  0  0  0  0  0  0  0  0  0
  -19.0077  -27.6522   20.4213 C   0  0  2  0  0  0  0  0  0  0  0  0
  -21.0598  -29.6062   24.2664 C   0  0  0  0  0  0  0  0  0  0  0  0
  -25.6088  -11.8948   20.1274 N   0  0  0  0  0  0  0  0  0  0  0  0
  -26.4860  -12.1765   19.1490 N   0  0  0  0  0  0  0  0  0  0  0  0
  -30.6889  -24.0938   20.3602 N   0  3  0  0  0  0  0  0  0  0  0  0
  -28.5157  -20.6583   19.6263 N   0  0  0  0  0  0  0  0  0  0  0  0
  -23.5199  -30.1190   21.7071 N   0  0  0  0  0  0  0  0  0  0  0  0
  -27.0603  -15.8981   19.7941 N   0  0  0  0  0  0  0  0  0  0  0  0
  -27.1724  -18.2057   19.1771 N   0  0  0  0  0  0  0  0  0  0  0  0
  -27.4576  -11.3016   17.1738 N   0  0  0  0  0  0  0  0  0  0  0  0
  -24.6605   -8.0145   18.5033 N   0  0  0  0  0  0  0  0  0  0  0  0
  -25.4748  -33.0156   22.4271 N   0  0  0  0  0  0  0  0  0  0  0  0
  -20.3510  -28.9495   21.9275 N   0  0  0  0  0  0  0  0  0  0  0  0
  -26.2610  -23.2834   20.2148 N   0  3  0  0  0  0  0  0  0  0  0  0
  -19.2657  -26.8513   19.1912 N   0  3  0  0  0  0  0  0  0  0  0  0
  -26.1939   -8.6238   16.9108 O   0  0  0  0  0  0  0  0  0  0  0  0
  -25.5517  -30.8371   23.2459 O   0  0  0  0  0  0  0  0  0  0  0  0
  -21.6624  -31.4956   22.0086 O   0  0  0  0  0  0  0  0  0  0  0  0
  -21.0897  -26.8333   21.3334 O   0  0  0  0  0  0  0  0  0  0  0  0
  -25.9084  -16.7046   17.9661 O   0  0  0  0  0  0  0  0  0  0  0  0
  -21.3839   -8.0999   23.0080 O   0  0  0  0  0  0  0  0  0  0  0  0
  -27.7735  -25.8051   20.5038 O   0  0  0  0  0  0  0  0  0  1  0  0
  -22.2356   -2.7894   24.2234 F   0  0  0  0  0  0  0  0  0  0  0  0
  -21.6430   -7.2694   25.6320 F   0  0  0  0  0  0  0  0  0  0  0  0
  1  2  1  0  0  0  0
  1  5  2  0  0  0  0
  2  6  2  0  0  0  0
  3  8  2  0  0  0  0
  3 16  1  0  0  0  0
  4  9  1  0  0  0  0
  4 16  2  0  0  0  0
  5 18  1  0  0  0  0
  6 20  1  0  0  0  0
  7 10  2  0  0  0  0
  7 19  1  0  0  0  0
  8 24  1  0  0  0  0
  9 24  2  0  0  0  0
 10 25  1  0  0  0  0
 11 12  2  0  0  0  0
 11 26  1  0  0  0  0
 12 27  1  0  0  0  0
 13 21  1  0  0  0  0
 13 25  2  0  0  0  0
 14 23  2  0  0  0  0
 14 30  1  0  0  0  0
 15 27  2  0  0  0  0
 15 28  1  0  0  0  0
 16 29  1  0  0  0  0
 17 29  1  0  0  0  0
 17 32  2  0  0  0  0
 17 33  1  0  0  0  0
 18 20  2  0  0  0  0
 18 38  1  0  0  0  0
 19 21  2  0  0  0  0
 19 39  1  0  0  0  0
 20 51  1  0  0  0  0
 21 40  1  0  0  0  0
 22 23  1  0  0  0  0
 22 31  2  0  0  0  0
 22 60  1  0  0  0  0
 23 68  1  0  0  0  0
 24 83  1  0  0  0  0
 25 84  1  0  0  0  0
 26 28  2  0  0  0  0
 26 83  1  0  0  0  0
 27 85  1  0  0  0  0
 28 86  1  0  0  0  0
 29 65  2  0  0  0  0
 30 54  1  0  0  0  0
 30 67  2  0  0  0  0
 31 61  1  0  0  0  0
 31 67  1  0  0  0  0
 32 66  1  0  0  0  0
 32 72  1  0  0  0  0
 33 73  1  0  0  0  0
 33 78  2  0  0  0  0
 34 52  1  0  0  0  0
 34 74  1  0  0  0  0
 34 79  2  0  0  0  0
 35 62  1  0  0  0  0
 35 69  1  0  0  0  0
 35 80  2  0  0  0  0
 36 63  1  0  0  0  0
 36 75  1  0  0  0  0
 36 81  2  0  0  0  0
 37 70  1  0  0  0  0
 37 71  1  0  0  0  0
 37 82  2  0  0  0  0
 38 41  1  0  0  0  0
 39 52  1  0  0  0  0
 40 69  1  0  0  0  0
 41 43  1  0  0  0  0
 42 44  1  0  0  0  0
 42 45  1  0  0  0  0
 43 51  1  0  0  0  0
 44 53  1  0  0  0  0
 45 70  1  0  0  0  0
 46 48  1  0  0  0  0
 46 68  1  0  0  0  0
 47 49  1  0  0  0  0
 47 68  1  0  0  0  0
 48 71  1  0  0  0  0
 49 71  1  0  0  0  0
 50 53  1  0  0  0  0
 50 70  1  0  0  0  0
 51 74  1  0  0  0  0
 52 69  1  0  0  0  0
 53 66  1  0  0  0  0
 55 63  1  0  0  0  0
 56 64  1  0  0  0  0
 57 64  1  0  0  0  0
 58 64  1  0  0  0  0
 59 77  1  0  0  0  0
 60 76  1  0  0  0  0
 61 84  1  0  0  0  0
 62 64  1  0  0  0  0
 62 75  1  0  0  0  0
 63 77  1  0  0  0  0
 65 66  1  0  0  0  0
M  CHG  3  67   1  76   1  77   1
M  ISO  4  37 100  61 101  71 100  84 101
M  END
> <Batch ID>
0152

> <Smiles>
CNC(C)C(=O)NC(C(=O)N1Cc2cc([101O:1][101CH2:1]c3nc(C)cc(N4CC[100N:0]([100C:0](=O)N5CCCC(n6nc(-c7ccc(Oc8ccc(F)cc8F)cc7)c(C(N)=O)c6N)C5)CC4)c3CN)ccc2CC1C(=O)NC1CCCc2ccccc21)C(C)(C)C

> <Shape>
0.350

> <Color>
0.091

> <Negative vol penalty>
0.000

$$$$

  -OEChem-04052321463D

 85 94  0     1  0  0  0  0  0999 V2000
  -26.4012  -29.7363   28.8185 C   0  0  0  0  0  0  0  0  0  0  0  0
  -27.2432  -28.7268   28.3631 C   0  0  0  0  0  0  0  0  0  0  0  0
  -23.6445   -9.7326   21.3431 C   0  0  0  0  0  0  0  0  0  0  0  0
  -24.2228  -10.6885   23.4853 C   0  0  0  0  0  0  0  0  0  0  0  0
  -25.2931  -30.1130   28.0607 C   0  0  0  0  0  0  0  0  0  0  0  0
  -26.9769  -28.0926   27.1501 C   0  0  0  0  0  0  0  0  0  0  0  0
  -30.3156  -25.0474   21.5917 C   0  0  0  0  0  0  0  0  0  0  0  0
  -23.0727   -8.6354   21.9870 C   0  0  0  0  0  0  0  0  0  0  0  0
  -23.6509   -9.5912   24.1293 C   0  0  0  0  0  0  0  0  0  0  0  0
  -30.3193  -23.8643   20.8540 C   0  0  0  0  0  0  0  0  0  0  0  0
  -24.1312   -5.7907   23.4743 C   0  0  0  0  0  0  0  0  0  0  0  0
  -24.4265   -4.5217   22.9763 C   0  0  0  0  0  0  0  0  0  0  0  0
  -28.4210  -24.6527   19.5915 C   0  0  0  0  0  0  0  0  0  0  0  0
  -30.9897  -19.0845   16.6380 C   0  0  0  0  0  0  0  0  0  0  0  0
  -29.0561  -18.3563   17.8903 C   0  0  0  0  0  0  0  0  0  0  0  0
  -22.0777   -4.1388   22.5593 C   0  0  0  0  0  0  0  0  0  0  0  0
  -24.2196  -10.7592   22.0923 C   0  0  0  0  0  0  0  0  0  0  0  0
  -24.1724  -13.0935   21.0644 C   0  0  0  0  0  0  0  0  0  0  0  0
  -25.0186  -29.4898   26.8332 C   0  0  0  0  0  0  0  0  0  0  0  0
  -29.3561  -26.0390   21.3417 C   0  0  0  0  0  0  0  0  0  0  0  0
  -25.8634  -28.4604   26.3758 C   0  0  0  0  0  0  0  0  0  0  0  0
  -28.4088  -25.8485   20.3256 C   0  0  0  0  0  0  0  0  0  0  0  0
  -31.1259  -20.1828   17.4870 C   0  0  0  0  0  0  0  0  0  0  0  0
  -29.1923  -19.4546   18.7393 C   0  0  0  0  0  0  0  0  0  0  0  0
  -30.2272  -20.3679   18.5376 C   0  0  0  0  0  0  0  0  0  0  0  0
  -23.0759   -8.5647   23.3801 C   0  0  0  0  0  0  0  0  0  0  0  0
  -29.3702  -23.6656   19.8556 C   0  0  0  0  0  0  0  0  0  0  0  0
  -22.8092   -6.2338   23.5149 C   0  0  0  0  0  0  0  0  0  0  0  0
  -29.9547  -18.1712   16.8397 C   0  0  0  0  0  0  0  0  0  0  0  0
  -23.3998   -3.6958   22.5188 C   0  0  0  0  0  0  0  0  0  0  0  0
  -21.7825   -5.4079   23.0574 C   0  0  0  0  0  0  0  0  0  0  0  0
  -24.8110  -11.8926   21.4277 C   0  0  0  0  0  0  0  0  0  0  0  0
  -25.1585  -13.8394   20.4663 C   0  0  0  0  0  0  0  0  0  0  0  0
  -22.8098  -13.4985   21.2510 C   0  0  0  0  0  0  0  0  0  0  0  0
  -27.0319  -27.3898   23.0380 C   0  0  0  0  0  0  0  0  0  0  0  0
  -26.7741  -29.3046   20.4324 C   0  0  0  0  0  0  0  0  0  0  0  0
  -27.2939  -29.7294   17.0863 C   0  0  0  0  0  0  0  0  0  0  0  0
  -29.2684  -14.1413   16.8100 C   0  0  0  0  0  0  0  0  0  0  0  0
  -23.7825  -29.8985   26.0719 C   0  0  0  0  0  0  0  0  0  0  0  0
  -29.3822  -27.3208   22.1283 C   0  0  0  0  0  0  0  0  0  0  0  0
  -27.3700  -26.8907   20.0044 C   0  0  0  0  0  0  0  0  0  0  0  0
  -23.7815  -29.4346   24.6176 C   0  0  0  0  0  0  0  0  0  0  0  0
  -30.1488  -13.1605   20.2561 C   0  0  0  0  0  0  0  0  0  0  0  0
  -31.9183  -22.6062   17.0712 C   0  0  0  0  0  0  0  0  0  0  0  0
  -32.3725  -21.7952   15.8981 C   0  0  0  0  0  0  0  0  0  0  0  0
  -24.1971  -27.9698   24.5243 C   0  0  0  0  0  0  0  0  0  0  0  0
  -28.7780  -12.7912   20.8153 C   0  0  0  0  0  0  0  0  0  0  0  0
  -30.2718  -12.8242   18.7705 C   0  0  0  0  0  0  0  0  0  0  0  0
  -27.8190  -13.0522   18.4942 C   0  0  0  0  0  0  0  0  0  0  0  0
  -32.2412  -21.1469   17.2504 C   0  0  0  0  0  0  0  0  0  0  0  0
  -25.6219  -27.7658   25.0532 C   0  0  1  0  0  0  0  0  0  0  0  0
  -28.0393  -28.0447   22.1357 C   0  0  1  0  0  0  0  0  0  0  0  0
  -27.6601  -13.4279   19.9754 C   0  0  1  0  0  0  0  0  0  0  0  0
  -28.2166  -19.6294   19.8564 C   0  0  0  0  0  0  0  0  0  0  0  0
  -26.9444  -31.3849   15.2330 C   0  0  0  0  0  0  0  0  0  0  0  0
  -23.8098  -28.5860   20.3527 C   0  0  0  0  0  0  0  0  0  0  0  0
  -23.7314  -29.4637   18.0093 C   0  0  0  0  0  0  0  0  0  0  0  0
  -24.3126  -30.9923   19.8930 C   0  0  0  0  0  0  0  0  0  0  0  0
  -30.1997  -29.9322   16.5629 C   0  0  0  0  0  0  0  0  0  0  0  0
  -30.3732  -21.5471   19.4538 C   0  0  0  0  0  0  0  0  0  1  0  0
  -30.8323  -15.0973   15.1450 C   0  0  0  0  0  0  0  0  0  0  0  0
  -31.0148  -16.5777   15.4280 C   0  0  0  0  0  0  0  0  0  0  0  0
  -25.9902  -29.2558   19.1432 C   0  0  1  0  0  0  0  0  0  0  0  0
  -27.9022  -30.8759   16.2990 C   0  0  2  0  0  0  0  0  0  0  0  0
  -24.4793  -29.5538   19.3567 C   0  0  0  0  0  0  0  0  0  0  0  0
  -26.1027  -11.8725   21.0885 N   0  0  0  0  0  0  0  0  0  0  0  0
  -26.2838  -13.0699   20.5058 N   0  0  0  0  0  0  0  0  0  0  0  0
  -27.4327  -28.1244   20.8053 N   0  0  0  0  0  0  0  0  0  0  0  0
  -29.1573  -13.3895   17.9936 N   0  0  0  0  0  0  0  0  0  0  0  0
  -25.1640  -15.0720   19.9157 N   0  0  0  0  0  0  0  0  0  0  0  0
  -21.9295  -12.6104   21.8841 N   0  0  0  0  0  0  0  0  0  0  0  0
  -26.5925  -28.1968   24.0700 N   0  0  0  0  0  0  0  0  0  0  0  0
  -26.6564  -30.1736   18.2254 N   0  0  0  0  0  0  0  0  0  0  0  0
  -30.5617  -14.3527   16.3457 N   0  0  0  0  0  0  0  0  0  0  0  0
  -29.1589  -30.4355   15.6299 N   0  3  0  0  0  0  0  0  0  0  0  0
  -22.3814  -14.6083   20.8531 O   0  0  0  0  0  0  0  0  0  0  0  0
  -26.6784  -26.2381   22.8135 O   0  0  0  0  0  0  0  0  0  0  0  0
  -26.8070  -30.3535   21.0809 O   0  0  0  0  0  0  0  0  0  0  0  0
  -27.3729  -28.5574   16.7249 O   0  0  0  0  0  0  0  0  0  0  0  0
  -28.2871  -14.5879   16.2056 O   0  0  0  0  0  0  0  0  0  0  0  0
  -22.5177   -7.4943   24.0088 O   0  0  0  0  0  0  0  0  0  0  0  0
  -29.3712  -22.5116   19.1345 O   0  0  0  0  0  0  0  0  0  1  0  0
  -29.8219  -17.0993   16.0116 O   0  0  0  0  0  0  0  0  0  0  0  0
  -23.6836   -2.4777   22.0392 F   0  0  0  0  0  0  0  0  0  0  0  0
  -20.5106   -5.8285   23.0927 F   0  0  0  0  0  0  0  0  0  0  0  0
  1  2  1  0  0  0  0
  1  5  2  0  0  0  0
  2  6  2  0  0  0  0
  3  8  2  0  0  0  0
  3 17  1  0  0  0  0
  4  9  1  0  0  0  0
  4 17  2  0  0  0  0
  5 19  1  0  0  0  0
  6 21  1  0  0  0  0
  7 10  2  0  0  0  0
  7 20  1  0  0  0  0
  8 26  1  0  0  0  0
  9 26  2  0  0  0  0
 10 27  1  0  0  0  0
 11 12  2  0  0  0  0
 11 28  1  0  0  0  0
 12 30  1  0  0  0  0
 13 22  1  0  0  0  0
 13 27  2  0  0  0  0
 14 23  1  0  0  0  0
 14 29  2  0  0  0  0
 15 24  2  0  0  0  0
 15 29  1  0  0  0  0
 16 30  2  0  0  0  0
 16 31  1  0  0  0  0
 17 32  1  0  0  0  0
 18 32  1  0  0  0  0
 18 33  2  0  0  0  0
 18 34  1  0  0  0  0
 19 21  2  0  0  0  0
 19 39  1  0  0  0  0
 20 22  2  0  0  0  0
 20 40  1  0  0  0  0
 21 51  1  0  0  0  0
 22 41  1  0  0  0  0
 23 25  2  0  0  0  0
 23 50  1  0  0  0  0
 24 25  1  0  0  0  0
 24 54  1  0  0  0  0
 25 60  1  0  0  0  0
 26 81  1  0  0  0  0
 27 82  1  0  0  0  0
 28 31  2  0  0  0  0
 28 81  1  0  0  0  0
 29 83  1  0  0  0  0
 30 84  1  0  0  0  0
 31 85  1  0  0  0  0
 32 66  2  0  0  0  0
 33 67  1  0  0  0  0
 33 70  1  0  0  0  0
 34 71  1  0  0  0  0
 34 76  2  0  0  0  0
 35 52  1  0  0  0  0
 35 72  1  0  0  0  0
 35 77  2  0  0  0  0
 36 63  1  0  0  0  0
 36 68  1  0  0  0  0
 36 78  2  0  0  0  0
 37 64  1  0  0  0  0
 37 73  1  0  0  0  0
 37 79  2  0  0  0  0
 38 69  1  0  0  0  0
 38 74  1  0  0  0  0
 38 80  2  0  0  0  0
 39 42  1  0  0  0  0
 40 52  1  0  0  0  0
 41 68  1  0  0  0  0
 42 46  1  0  0  0  0
 43 47  1  0  0  0  0
 43 48  1  0  0  0  0
 44 45  1  0  0  0  0
 44 50  1  0  0  0  0
 45 50  1  0  0  0  0
 46 51  1  0  0  0  0
 47 53  1  0  0  0  0
 48 69  1  0  0  0  0
 49 53  1  0  0  0  0
 49 69  1  0  0  0  0
 51 72  1  0  0  0  0
 52 68  1  0  0  0  0
 53 67  1  0  0  0  0
 55 64  1  0  0  0  0
 56 65  1  0  0  0  0
 57 65  1  0  0  0  0
 58 65  1  0  0  0  0
 59 75  1  0  0  0  0
 60 82  1  0  0  0  0
 61 62  1  0  0  0  0
 61 74  1  0  0  0  0
 62 83  1  0  0  0  0
 63 65  1  0  0  0  0
 63 73  1  0  0  0  0
 64 75  1  0  0  0  0
 66 67  1  0  0  0  0
M  CHG  1  75   1
M  ISO  4  38 100  60 101  74 100  82 101
M  END
> <Batch ID>
0152

> <Smiles>
CNC(C)C(=O)NC(C(=O)N1Cc2cc([101O:1][101CH2:1]c3c(C)cc(OCC[100NH:0][100C:0](=O)N4CCCC(n5nc(-c6ccc(Oc7ccc(F)cc7F)cc6)c(C(N)=O)c5N)C4)cc3C3CC3)ccc2CC1C(=O)NC1CCCc2ccccc21)C(C)(C)C

> <Shape>
0.250

> <Color>
0.137

> <Negative vol penalty>
0.000

$$$$

  -OEChem-04052321463D

 85 94  0     1  0  0  0  0  0999 V2000
  -30.7557  -34.3721   19.9592 C   0  0  0  0  0  0  0  0  0  0  0  0
  -30.9456  -32.9943   19.9305 C   0  0  0  0  0  0  0  0  0  0  0  0
  -22.9365  -10.1996   20.2695 C   0  0  0  0  0  0  0  0  0  0  0  0
  -24.2603   -9.3278   22.0929 C   0  0  0  0  0  0  0  0  0  0  0  0
  -29.6494  -34.9087   20.6167 C   0  0  0  0  0  0  0  0  0  0  0  0
  -30.0298  -32.1521   20.5603 C   0  0  0  0  0  0  0  0  0  0  0  0
  -28.3025  -26.5681   18.7327 C   0  0  0  0  0  0  0  0  0  0  0  0
  -22.1734   -9.0320   20.2653 C   0  0  0  0  0  0  0  0  0  0  0  0
  -23.4971   -8.1603   22.0888 C   0  0  0  0  0  0  0  0  0  0  0  0
  -28.6995  -25.2893   19.1213 C   0  0  0  0  0  0  0  0  0  0  0  0
  -20.4724   -7.1596   23.2157 C   0  0  0  0  0  0  0  0  0  0  0  0
  -20.0437   -6.6630   24.4466 C   0  0  0  0  0  0  0  0  0  0  0  0
  -28.8436  -21.1524   22.9376 C   0  0  0  0  0  0  0  0  0  0  0  0
  -26.8258  -25.1745   20.6363 C   0  0  0  0  0  0  0  0  0  0  0  0
  -28.0111  -20.3001   20.8358 C   0  0  0  0  0  0  0  0  0  0  0  0
  -21.2375   -4.6039   24.0317 C   0  0  0  0  0  0  0  0  0  0  0  0
  -23.9800  -10.3475   21.1833 C   0  0  0  0  0  0  0  0  0  0  0  0
  -24.5246  -12.7263   21.9263 C   0  0  0  0  0  0  0  0  0  0  0  0
  -28.7145  -34.0721   21.2466 C   0  0  0  0  0  0  0  0  0  0  0  0
  -27.1684  -27.1649   19.3019 C   0  0  0  0  0  0  0  0  0  0  0  0
  -28.9107  -32.6780   21.2280 C   0  0  0  0  0  0  0  0  0  0  0  0
  -29.4029  -19.9065   23.2213 C   0  0  0  0  0  0  0  0  0  0  0  0
  -26.4150  -26.4598   20.2513 C   0  0  0  0  0  0  0  0  0  0  0  0
  -28.1476  -21.3492   21.7449 C   0  0  0  0  0  0  0  0  0  0  0  0
  -28.5705  -19.0542   21.1194 C   0  0  0  0  0  0  0  0  0  0  0  0
  -22.4537   -8.0124   21.1749 C   0  0  0  0  0  0  0  0  0  0  0  0
  -27.9628  -24.5935   20.0753 C   0  0  0  0  0  0  0  0  0  0  0  0
  -21.2836   -6.3783   22.3927 C   0  0  0  0  0  0  0  0  0  0  0  0
  -29.2664  -18.8574   22.3122 C   0  0  0  0  0  0  0  0  0  0  0  0
  -20.4262   -5.3852   24.8547 C   0  0  0  0  0  0  0  0  0  0  0  0
  -21.6662   -5.1005   22.8008 C   0  0  0  0  0  0  0  0  0  0  0  0
  -24.7691  -11.5531   21.1877 C   0  0  0  0  0  0  0  0  0  0  0  0
  -25.5537  -13.5688   21.5831 C   0  0  0  0  0  0  0  0  0  0  0  0
  -23.4624  -13.0276   22.8410 C   0  0  0  0  0  0  0  0  0  0  0  0
  -26.6415  -29.7674   21.0493 C   0  0  0  0  0  0  0  0  0  0  0  0
  -23.5319  -28.9440   20.6318 C   0  0  0  0  0  0  0  0  0  0  0  0
  -21.2457  -26.4962   19.9770 C   0  0  0  0  0  0  0  0  0  0  0  0
  -30.9722  -14.4906   20.6162 C   0  0  0  0  0  0  0  0  0  0  0  0
  -27.5596  -34.7009   21.9852 C   0  0  0  0  0  0  0  0  0  0  0  0
  -26.7380  -28.5343   18.8525 C   0  0  0  0  0  0  0  0  0  0  0  0
  -25.1781  -27.0480   20.8778 C   0  0  0  0  0  0  0  0  0  0  0  0
  -26.4357  -33.7193   22.3071 C   0  0  0  0  0  0  0  0  0  0  0  0
  -29.0287  -13.2017   17.9258 C   0  0  0  0  0  0  0  0  0  0  0  0
  -29.7227  -18.6058   25.4304 C   0  0  0  0  0  0  0  0  0  0  0  0
  -29.4519  -20.0302   25.8021 C   0  0  0  0  0  0  0  0  0  0  0  0
  -27.0044  -32.4277   22.8860 C   0  0  0  0  0  0  0  0  0  0  0  0
  -27.7304  -12.7492   18.5964 C   0  0  0  0  0  0  0  0  0  0  0  0
  -30.2421  -12.9507   18.8183 C   0  0  0  0  0  0  0  0  0  0  0  0
  -28.8444  -13.0705   20.8446 C   0  0  0  0  0  0  0  0  0  0  0  0
  -30.1439  -19.7143   24.5029 C   0  0  0  0  0  0  0  0  0  0  0  0
  -27.9262  -31.7304   21.8782 C   0  0  1  0  0  0  0  0  0  0  0  0
  -25.8604  -29.2503   19.8745 C   0  0  1  0  0  0  0  0  0  0  0  0
  -27.5867  -13.3546   20.0057 C   0  0  2  0  0  0  0  0  0  0  0  0
  -28.4131  -17.9433   20.1339 C   0  0  0  0  0  0  0  0  0  0  0  0
  -18.7762  -26.1202   19.7380 C   0  0  0  0  0  0  0  0  0  0  0  0
  -23.2220  -29.0673   23.6647 C   0  0  0  0  0  0  0  0  0  0  0  0
  -21.0812  -27.7910   23.4281 C   0  0  0  0  0  0  0  0  0  0  0  0
  -21.3109  -30.0431   22.3803 C   0  0  0  0  0  0  0  0  0  0  0  0
  -21.5351  -25.6098   17.1682 C   0  0  0  0  0  0  0  0  0  0  0  0
  -27.5474  -22.6899   21.4391 C   0  0  0  0  0  0  0  0  0  1  0  0
  -31.5657  -15.9971   22.4969 C   0  0  0  0  0  0  0  0  0  0  0  0
  -31.1501  -17.4150   22.1480 C   0  0  0  0  0  0  0  0  0  0  0  0
  -22.5458  -28.0779   21.3778 C   0  0  1  0  0  0  0  0  0  0  0  0
  -20.0736  -26.4443   19.0138 C   0  0  2  0  0  0  0  0  0  0  0  0
  -22.0643  -28.7342   22.7025 C   0  0  0  0  0  0  0  0  0  0  0  0
  -25.8672  -11.6388   20.4322 N   0  0  0  0  0  0  0  0  0  0  0  0
  -26.3218  -12.8761   20.6942 N   0  0  0  0  0  0  0  0  0  0  0  0
  -24.8016  -28.3922   20.4101 N   0  0  0  0  0  0  0  0  0  0  0  0
  -30.0426  -13.5517   20.1393 N   0  0  0  0  0  0  0  0  0  0  0  0
  -25.8673  -14.8272   21.9580 N   0  0  0  0  0  0  0  0  0  0  0  0
  -22.4881  -12.0487   23.0793 N   0  0  0  0  0  0  0  0  0  0  0  0
  -27.1463  -31.0415   20.8724 N   0  0  0  0  0  0  0  0  0  0  0  0
  -21.4732  -27.7764   20.4361 N   0  0  0  0  0  0  0  0  0  0  0  0
  -30.7050  -15.0161   21.8744 N   0  0  0  0  0  0  0  0  0  0  0  0
  -20.3039  -25.4025   17.9733 N   0  3  0  0  0  0  0  0  0  0  0  0
  -23.3706  -14.1382   23.4169 O   0  0  0  0  0  0  0  0  0  0  0  0
  -26.7751  -29.0632   22.0433 O   0  0  0  0  0  0  0  0  0  0  0  0
  -23.1859  -30.0659   20.2532 O   0  0  0  0  0  0  0  0  0  0  0  0
  -21.8924  -25.5002   20.2935 O   0  0  0  0  0  0  0  0  0  0  0  0
  -31.9639  -14.8389   19.9663 O   0  0  0  0  0  0  0  0  0  0  0  0
  -21.7091   -6.8730   21.1713 O   0  0  0  0  0  0  0  0  0  0  0  0
  -28.3486  -23.3455   20.4569 O   0  0  0  0  0  0  0  0  0  1  0  0
  -29.8128  -17.6383   22.5880 O   0  0  0  0  0  0  0  0  0  0  0  0
  -20.0157   -4.9090   26.0374 F   0  0  0  0  0  0  0  0  0  0  0  0
  -22.4464   -4.3457   22.0150 F   0  0  0  0  0  0  0  0  0  0  0  0
  1  2  1  0  0  0  0
  1  5  2  0  0  0  0
  2  6  2  0  0  0  0
  3  8  2  0  0  0  0
  3 17  1  0  0  0  0
  4  9  1  0  0  0  0
  4 17  2  0  0  0  0
  5 19  1  0  0  0  0
  6 21  1  0  0  0  0
  7 10  2  0  0  0  0
  7 20  1  0  0  0  0
  8 26  1  0  0  0  0
  9 26  2  0  0  0  0
 10 27  1  0  0  0  0
 11 12  2  0  0  0  0
 11 28  1  0  0  0  0
 12 30  1  0  0  0  0
 13 22  1  0  0  0  0
 13 24  2  0  0  0  0
 14 23  1  0  0  0  0
 14 27  2  0  0  0  0
 15 24  1  0  0  0  0
 15 25  2  0  0  0  0
 16 30  2  0  0  0  0
 16 31  1  0  0  0  0
 17 32  1  0  0  0  0
 18 32  1  0  0  0  0
 18 33  2  0  0  0  0
 18 34  1  0  0  0  0
 19 21  2  0  0  0  0
 19 39  1  0  0  0  0
 20 23  2  0  0  0  0
 20 40  1  0  0  0  0
 21 51  1  0  0  0  0
 22 29  2  0  0  0  0
 22 50  1  0  0  0  0
 23 41  1  0  0  0  0
 24 60  1  0  0  0  0
 25 29  1  0  0  0  0
 25 54  1  0  0  0  0
 26 81  1  0  0  0  0
 27 82  1  0  0  0  0
 28 31  2  0  0  0  0
 28 81  1  0  0  0  0
 29 83  1  0  0  0  0
 30 84  1  0  0  0  0
 31 85  1  0  0  0  0
 32 66  2  0  0  0  0
 33 67  1  0  0  0  0
 33 70  1  0  0  0  0
 34 71  1  0  0  0  0
 34 76  2  0  0  0  0
 35 52  1  0  0  0  0
 35 72  1  0  0  0  0
 35 77  2  0  0  0  0
 36 63  1  0  0  0  0
 36 68  1  0  0  0  0
 36 78  2  0  0  0  0
 37 64  1  0  0  0  0
 37 73  1  0  0  0  0
 37 79  2  0  0  0  0
 38 69  1  0  0  0  0
 38 74  1  0  0  0  0
 38 80  2  0  0  0  0
 39 42  1  0  0  0  0
 40 52  1  0  0  0  0
 41 68  1  0  0  0  0
 42 46  1  0  0  0  0
 43 47  1  0  0  0  0
 43 48  1  0  0  0  0
 44 45  1  0  0  0  0
 44 50  1  0  0  0  0
 45 50  1  0  0  0  0
 46 51  1  0  0  0  0
 47 53  1  0  0  0  0
 48 69  1  0  0  0  0
 49 53  1  0  0  0  0
 49 69  1  0  0  0  0
 51 72  1  0  0  0  0
 52 68  1  0  0  0  0
 53 67  1  0  0  0  0
 55 64  1  0  0  0  0
 56 65  1  0  0  0  0
 57 65  1  0  0  0  0
 58 65  1  0  0  0  0
 59 75  1  0  0  0  0
 60 82  1  0  0  0  0
 61 62  1  0  0  0  0
 61 74  1  0  0  0  0
 62 83  1  0  0  0  0
 63 65  1  0  0  0  0
 63 73  1  0  0  0  0
 64 75  1  0  0  0  0
 66 67  1  0  0  0  0
M  CHG  1  75   1
M  ISO  4  38 100  60 101  74 100  82 101
M  END
> <Batch ID>
0152

> <Smiles>
CNC(C)C(=O)NC(C(=O)N1Cc2cc([101O:1][101CH2:1]c3cc(C)c(OCC[100NH:0][100C:0](=O)N4CCCC(n5nc(-c6ccc(Oc7ccc(F)cc7F)cc6)c(C(N)=O)c5N)C4)c(C4CC4)c3)ccc2CC1C(=O)NC1CCCc2ccccc21)C(C)(C)C

> <Shape>
0.328

> <Color>
0.142

> <Negative vol penalty>
0.000

$$$$

  -OEChem-04052321463D

 89 98  0     1  0  0  0  0  0999 V2000
  -17.2300  -30.5269   24.5756 C   0  0  0  0  0  0  0  0  0  0  0  0
  -17.6140  -29.1996   24.4141 C   0  0  0  0  0  0  0  0  0  0  0  0
  -21.7283  -10.4379   20.8731 C   0  0  0  0  0  0  0  0  0  0  0  0
  -23.9099   -9.7930   21.6866 C   0  0  0  0  0  0  0  0  0  0  0  0
  -17.7609  -31.5112   23.7429 C   0  0  0  0  0  0  0  0  0  0  0  0
  -18.5284  -28.8556   23.4191 C   0  0  0  0  0  0  0  0  0  0  0  0
  -22.7904  -24.4663   23.6939 C   0  0  0  0  0  0  0  0  0  0  0  0
  -29.9966  -18.3981   22.8564 C   0  0  0  0  0  0  0  0  0  0  0  0
  -21.3295   -9.1013   20.8827 C   0  0  0  0  0  0  0  0  0  0  0  0
  -23.5111   -8.4564   21.6963 C   0  0  0  0  0  0  0  0  0  0  0  0
  -22.8221  -23.1583   23.2125 C   0  0  0  0  0  0  0  0  0  0  0  0
  -21.6779   -6.4199   23.6744 C   0  0  0  0  0  0  0  0  0  0  0  0
  -31.2244  -18.2928   23.5098 C   0  0  0  0  0  0  0  0  0  0  0  0
  -22.0011   -5.6569   24.7964 C   0  0  0  0  0  0  0  0  0  0  0  0
  -23.9913  -23.9176   21.2439 C   0  0  0  0  0  0  0  0  0  0  0  0
  -31.7719  -16.3586   22.1696 C   0  0  0  0  0  0  0  0  0  0  0  0
  -23.2749   -4.1485   23.4038 C   0  0  0  0  0  0  0  0  0  0  0  0
  -23.0185  -10.7838   21.2750 C   0  0  0  0  0  0  0  0  0  0  0  0
  -23.3145  -13.0942   22.3152 C   0  0  0  0  0  0  0  0  0  0  0  0
  -18.6895  -31.1805   22.7435 C   0  0  0  0  0  0  0  0  0  0  0  0
  -23.3502  -25.5132   22.9476 C   0  0  0  0  0  0  0  0  0  0  0  0
  -19.0712  -29.8362   22.5715 C   0  0  0  0  0  0  0  0  0  0  0  0
  -29.6564  -17.4836   21.8595 C   0  0  0  0  0  0  0  0  0  0  0  0
  -23.9677  -25.2376   21.7192 C   0  0  0  0  0  0  0  0  0  0  0  0
  -22.2210   -8.1105   21.2944 C   0  0  0  0  0  0  0  0  0  0  0  0
  -23.4201  -22.8841   21.9860 C   0  0  0  0  0  0  0  0  0  0  0  0
  -22.1532   -6.0472   22.4170 C   0  0  0  0  0  0  0  0  0  0  0  0
  -30.5440  -16.4639   21.5162 C   0  0  0  0  0  0  0  0  0  0  0  0
  -32.1120  -17.2731   23.1665 C   0  0  0  0  0  0  0  0  0  0  0  0
  -22.7996   -4.5212   24.6611 C   0  0  0  0  0  0  0  0  0  0  0  0
  -22.9517   -4.9115   22.2817 C   0  0  0  0  0  0  0  0  0  0  0  0
  -23.4311  -12.1642   21.2647 C   0  0  0  0  0  0  0  0  0  0  0  0
  -23.8475  -14.2539   21.8078 C   0  0  0  0  0  0  0  0  0  0  0  0
  -22.7729  -12.9248   23.6319 C   0  0  0  0  0  0  0  0  0  0  0  0
  -22.2218  -28.1646   21.6058 C   0  0  0  0  0  0  0  0  0  0  0  0
  -25.3583  -28.7270   20.9991 C   0  0  0  0  0  0  0  0  0  0  0  0
  -28.4967  -27.4605   20.5597 C   0  0  0  0  0  0  0  0  0  0  0  0
  -27.8361  -15.3566   17.4804 C   0  0  0  0  0  0  0  0  0  0  0  0
  -19.2000  -32.2723   21.8369 C   0  0  0  0  0  0  0  0  0  0  0  0
  -23.3314  -26.9148   23.4932 C   0  0  0  0  0  0  0  0  0  0  0  0
  -24.6010  -26.3229   20.8888 C   0  0  0  0  0  0  0  0  0  0  0  0
  -20.4479  -31.8778   21.0512 C   0  0  0  0  0  0  0  0  0  0  0  0
  -24.4994  -16.5827   17.6795 C   0  0  0  0  0  0  0  0  0  0  0  0
  -20.2752  -30.4931   20.4350 C   0  0  0  0  0  0  0  0  0  0  0  0
  -23.8367  -15.6733   18.7157 C   0  0  0  0  0  0  0  0  0  0  0  0
  -26.9721  -17.6798   22.0145 C   0  0  0  0  0  0  0  0  0  0  0  0
  -25.4957  -15.8172   16.8117 C   0  0  0  0  0  0  0  0  0  0  0  0
  -25.8583  -14.1574   18.5970 C   0  0  0  0  0  0  0  0  0  0  0  0
  -28.2540  -17.6163   21.1272 C   0  0  1  0  0  0  0  0  0  0  0  0
  -20.0794  -29.4271   21.5197 C   0  0  1  0  0  0  0  0  0  0  0  0
  -23.4771  -27.9795   22.4104 C   0  0  1  0  0  0  0  0  0  0  0  0
  -27.8003  -19.0052   20.5571 C   0  0  2  0  0  0  0  0  0  0  0  0
  -24.8864  -14.8963   19.5329 C   0  0  2  0  0  0  0  0  0  0  0  0
  -26.3535  -18.6026   20.9464 C   0  0  2  0  0  0  0  0  0  0  0  0
  -28.0314  -19.2442   19.0763 C   0  0  0  0  0  0  0  0  0  0  0  0
  -30.8491  -28.1623   20.0390 C   0  0  0  0  0  0  0  0  0  0  0  0
  -24.5955  -29.1007   18.0685 C   0  0  0  0  0  0  0  0  0  0  0  0
  -27.0157  -28.8489   17.4787 C   0  0  0  0  0  0  0  0  0  0  0  0
  -26.2768  -30.7414   18.9262 C   0  0  0  0  0  0  0  0  0  0  0  0
  -29.5028  -26.4155   23.1394 C   0  0  0  0  0  0  0  0  0  0  0  0
  -30.1222  -14.7988   18.2687 C   0  0  0  0  0  0  0  0  0  0  0  0
  -24.1812  -19.3471   21.8839 C   0  0  0  0  0  0  0  0  0  0  0  0
  -30.6034  -15.8893   19.2092 C   0  0  0  0  0  0  0  0  0  0  0  0
  -23.4919  -20.5588   22.4795 C   0  0  0  0  0  0  0  0  0  1  0  0
  -26.3050  -28.3964   19.8706 C   0  0  1  0  0  0  0  0  0  0  0  0
  -29.8388  -27.8714   21.1379 C   0  0  2  0  0  0  0  0  0  0  0  0
  -26.0347  -29.2515   18.6005 C   0  0  0  0  0  0  0  0  0  0  0  0
  -23.9938  -12.6880   20.1725 N   0  0  0  0  0  0  0  0  0  0  0  0
  -24.2355  -13.9597   20.5338 N   0  0  0  0  0  0  0  0  0  0  0  0
  -24.5515  -27.6780   21.4622 N   0  0  0  0  0  0  0  0  0  0  0  0
  -26.4645  -15.1037   17.6474 N   0  0  0  0  0  0  0  0  0  0  0  0
  -24.0173  -15.4865   22.3315 N   0  0  0  0  0  0  0  0  0  0  0  0
  -22.2671  -11.6677   23.9896 N   0  0  0  0  0  0  0  0  0  0  0  0
  -21.3462  -29.0935   22.1349 N   0  0  0  0  0  0  0  0  0  0  0  0
  -27.6519  -28.5402   20.4123 N   0  0  0  0  0  0  0  0  0  0  0  0
  -28.6855  -14.6428   18.3169 N   0  0  0  0  0  0  0  0  0  0  0  0
  -25.5720  -19.7086   21.5107 N   0  3  0  0  0  0  0  0  0  0  0  0
  -30.3842  -26.7872   22.0027 N   0  3  0  0  0  0  0  0  0  0  0  0
  -22.7237  -13.8650   24.4608 O   0  0  0  0  0  0  0  0  0  0  0  0
  -22.0602  -27.5140   20.5800 O   0  0  0  0  0  0  0  0  0  0  0  0
  -25.3406  -29.8720   21.4577 O   0  0  0  0  0  0  0  0  0  0  0  0
  -28.2262  -26.2985   20.2646 O   0  0  0  0  0  0  0  0  0  0  0  0
  -28.2711  -16.1628   16.6511 O   0  0  0  0  0  0  0  0  0  0  0  0
  -21.8321   -6.8062   21.3041 O   0  0  0  0  0  0  0  0  0  0  0  0
  -23.4519  -21.6084   21.5135 O   0  0  0  0  0  0  0  0  0  1  0  0
  -30.2252  -15.5633   20.5453 O   0  0  0  0  0  0  0  0  0  0  0  0
  -33.2910  -17.1732   23.7943 F   0  0  0  0  0  0  0  0  0  0  0  0
  -23.1111   -3.7895   25.7389 F   0  0  0  0  0  0  0  0  0  0  0  0
  -23.4122   -4.5491   21.0766 F   0  0  0  0  0  0  0  0  0  0  0  0
  1  2  1  0  0  0  0
  1  5  2  0  0  0  0
  2  6  2  0  0  0  0
  3  9  2  0  0  0  0
  3 18  1  0  0  0  0
  4 10  1  0  0  0  0
  4 18  2  0  0  0  0
  5 20  1  0  0  0  0
  6 22  1  0  0  0  0
  7 11  2  0  0  0  0
  7 21  1  0  0  0  0
  8 13  2  0  0  0  0
  8 23  1  0  0  0  0
  9 25  1  0  0  0  0
 10 25  2  0  0  0  0
 11 26  1  0  0  0  0
 12 14  2  0  0  0  0
 12 27  1  0  0  0  0
 13 29  1  0  0  0  0
 14 30  1  0  0  0  0
 15 24  1  0  0  0  0
 15 26  2  0  0  0  0
 16 28  1  0  0  0  0
 16 29  2  0  0  0  0
 17 30  2  0  0  0  0
 17 31  1  0  0  0  0
 18 32  1  0  0  0  0
 19 32  1  0  0  0  0
 19 33  2  0  0  0  0
 19 34  1  0  0  0  0
 20 22  2  0  0  0  0
 20 39  1  0  0  0  0
 21 24  2  0  0  0  0
 21 40  1  0  0  0  0
 22 50  1  0  0  0  0
 23 28  2  0  0  0  0
 23 49  1  0  0  0  0
 24 41  1  0  0  0  0
 25 84  1  0  0  0  0
 26 85  1  0  0  0  0
 27 31  2  0  0  0  0
 27 84  1  0  0  0  0
 28 86  1  0  0  0  0
 29 87  1  0  0  0  0
 30 88  1  0  0  0  0
 31 89  1  0  0  0  0
 32 68  2  0  0  0  0
 33 69  1  0  0  0  0
 33 72  1  0  0  0  0
 34 73  1  0  0  0  0
 34 79  2  0  0  0  0
 35 51  1  0  0  0  0
 35 74  1  0  0  0  0
 35 80  2  0  0  0  0
 36 65  1  0  0  0  0
 36 70  1  0  0  0  0
 36 81  2  0  0  0  0
 37 66  1  0  0  0  0
 37 75  1  0  0  0  0
 37 82  2  0  0  0  0
 38 71  1  0  0  0  0
 38 76  1  0  0  0  0
 38 83  2  0  0  0  0
 39 42  1  0  0  0  0
 40 51  1  0  0  0  0
 41 70  1  0  0  0  0
 42 44  1  0  0  0  0
 43 45  1  0  0  0  0
 43 47  1  0  0  0  0
 44 50  1  0  0  0  0
 45 53  1  0  0  0  0
 46 49  1  0  0  0  0
 46 54  1  0  0  0  0
 47 71  1  0  0  0  0
 48 53  1  0  0  0  0
 48 71  1  0  0  0  0
 49 52  1  0  0  0  0
 50 74  1  0  0  0  0
 51 70  1  0  0  0  0
 52 54  1  0  0  0  0
 52 55  1  0  0  0  0
 53 69  1  0  0  0  0
 54 77  1  0  0  0  0
 56 66  1  0  0  0  0
 57 67  1  0  0  0  0
 58 67  1  0  0  0  0
 59 67  1  0  0  0  0
 60 78  1  0  0  0  0
 61 63  1  0  0  0  0
 61 76  1  0  0  0  0
 62 64  1  0  0  0  0
 62 77  1  0  0  0  0
 63 86  1  0  0  0  0
 64 85  1  0  0  0  0
 65 67  1  0  0  0  0
 65 75  1  0  0  0  0
 66 78  1  0  0  0  0
 68 69  1  0  0  0  0
M  CHG  2  77   1  78   1
M  ISO  4  38 100  64 101  76 100  85 101
M  END
> <Batch ID>
0152

> <Smiles>
CNC(C)C(=O)NC(C(=O)N1Cc2cc([101O:1][101CH2:1]CNC3CC(c4ccc(F)cc4OCC[100NH:0][100C:0](=O)N4CCCC(n5nc(-c6ccc(Oc7ccc(F)cc7F)cc6)c(C(N)=O)c5N)C4)C3C)ccc2CC1C(=O)NC1CCCc2ccccc21)C(C)(C)C

> <Shape>
0.248

> <Color>
0.081

> <Negative vol penalty>
0.000

$$$$

  -OEChem-04052321463D

 93104  0     1  0  0  0  0  0999 V2000
  -24.8454   -8.5444   20.9495 C   0  0  0  0  0  0  0  0  0  0  0  0
  -25.9600   -9.3458   20.7236 C   0  0  0  0  0  0  0  0  0  0  0  0
  -17.8182  -24.4891   22.0792 C   0  0  0  0  0  0  0  0  0  0  0  0
  -18.0274  -24.8480   24.4592 C   0  0  0  0  0  0  0  0  0  0  0  0
  -23.5711   -9.1102   20.9553 C   0  0  0  0  0  0  0  0  0  0  0  0
  -25.8008  -10.7133   20.5024 C   0  0  0  0  0  0  0  0  0  0  0  0
  -29.0840  -16.9747   21.6559 C   0  0  0  0  0  0  0  0  0  0  0  0
  -17.2763  -23.2260   22.3173 C   0  0  0  0  0  0  0  0  0  0  0  0
  -17.4854  -23.5850   24.6973 C   0  0  0  0  0  0  0  0  0  0  0  0
  -29.5013  -18.1145   20.9700 C   0  0  0  0  0  0  0  0  0  0  0  0
  -14.2905  -21.9283   23.2302 C   0  0  0  0  0  0  0  0  0  0  0  0
  -13.1606  -21.5595   22.5001 C   0  0  0  0  0  0  0  0  0  0  0  0
  -27.2583  -18.9953   21.0815 C   0  0  0  0  0  0  0  0  0  0  0  0
  -29.4458  -23.2696   19.6149 C   0  0  0  0  0  0  0  0  0  0  0  0
  -28.3487  -22.4850   17.6105 C   0  0  0  0  0  0  0  0  0  0  0  0
  -14.3703  -19.6836   21.5756 C   0  0  0  0  0  0  0  0  0  0  0  0
  -18.1938  -25.3001   23.1502 C   0  0  0  0  0  0  0  0  0  0  0  0
  -18.0555  -27.8207   22.7830 C   0  0  0  0  0  0  0  0  0  0  0  0
  -23.3970  -10.4869   20.7436 C   0  0  0  0  0  0  0  0  0  0  0  0
  -27.7461  -16.8315   22.0509 C   0  0  0  0  0  0  0  0  0  0  0  0
  -24.5228  -11.2978   20.5041 C   0  0  0  0  0  0  0  0  0  0  0  0
  -26.8272  -17.8539   21.7745 C   0  0  0  0  0  0  0  0  0  0  0  0
  -28.6126  -22.3529   18.9738 C   0  0  0  0  0  0  0  0  0  0  0  0
  -29.7512  -24.4506   17.5295 C   0  0  0  0  0  0  0  0  0  0  0  0
  -17.1099  -22.7740   23.6263 C   0  0  0  0  0  0  0  0  0  0  0  0
  -28.5877  -19.1238   20.6801 C   0  0  0  0  0  0  0  0  0  0  0  0
  -15.4603  -21.1747   23.1329 C   0  0  0  0  0  0  0  0  0  0  0  0
  -30.0150  -24.3186   18.8928 C   0  0  0  0  0  0  0  0  0  0  0  0
  -13.2005  -20.4372   21.6728 C   0  0  0  0  0  0  0  0  0  0  0  0
  -15.5002  -20.0524   22.3057 C   0  0  0  0  0  0  0  0  0  0  0  0
  -28.9180  -23.5339   16.8883 C   0  0  0  0  0  0  0  0  0  0  0  0
  -18.7542  -26.6046   22.9048 C   0  0  0  0  0  0  0  0  0  0  0  0
  -19.0340  -28.7576   22.5566 C   0  0  0  0  0  0  0  0  0  0  0  0
  -16.6479  -28.0802   22.8671 C   0  0  0  0  0  0  0  0  0  0  0  0
  -25.4178  -14.7737   21.3817 C   0  0  0  0  0  0  0  0  0  0  0  0
  -23.8248  -16.4318   23.6697 C   0  0  0  0  0  0  0  0  0  0  0  0
  -23.4613  -19.3417   25.4153 C   0  0  0  0  0  0  0  0  0  0  0  0
  -24.2986  -28.5620   20.1732 C   0  0  0  0  0  0  0  0  0  0  0  0
  -21.9962  -11.0451   20.7121 C   0  0  0  0  0  0  0  0  0  0  0  0
  -27.3178  -15.6079   22.8135 C   0  0  0  0  0  0  0  0  0  0  0  0
  -25.3840  -17.7577   22.1945 C   0  0  0  0  0  0  0  0  0  0  0  0
  -21.9432  -12.5652   20.8416 C   0  0  0  0  0  0  0  0  0  0  0  0
  -23.6414  -29.6613   23.4455 C   0  0  0  0  0  0  0  0  0  0  0  0
  -22.9667  -13.2158   19.9164 C   0  0  0  0  0  0  0  0  0  0  0  0
  -32.5227  -24.2622   15.9713 C   0  0  0  0  0  0  0  0  0  0  0  0
  -32.6670  -25.6520   15.4168 C   0  0  0  0  0  0  0  0  0  0  0  0
  -22.2319  -29.1154   23.6718 C   0  0  0  0  0  0  0  0  0  0  0  0
  -26.7913  -29.0448   17.8210 C   0  0  0  0  0  0  0  0  0  0  0  0
  -27.4509  -27.2034   19.4150 C   0  0  0  0  0  0  0  0  0  0  0  0
  -29.6162  -28.0543   16.3340 C   0  0  0  0  0  0  0  0  0  0  0  0
  -24.5281  -28.6658   22.6954 C   0  0  0  0  0  0  0  0  0  0  0  0
  -26.1091  -29.7592   18.9823 C   0  0  0  0  0  0  0  0  0  0  0  0
  -26.7292  -27.9454   20.5418 C   0  0  0  0  0  0  0  0  0  0  0  0
  -22.5359  -27.6388   21.6483 C   0  0  0  0  0  0  0  0  0  0  0  0
  -24.3929  -12.7895   20.2847 C   0  0  1  0  0  0  0  0  0  0  0  0
  -25.8197  -15.3367   22.7155 C   0  0  1  0  0  0  0  0  0  0  0  0
  -27.9436  -28.1584   18.3174 C   0  0  0  0  0  0  0  0  0  0  0  0
  -28.5680  -27.3968   17.1788 C   0  0  2  0  0  0  0  0  0  0  0  0
  -31.9221  -25.4299   16.7039 C   0  0  0  0  0  0  0  0  0  0  0  0
  -29.9943  -26.9475   17.2830 C   0  0  1  0  0  0  0  0  0  0  0  0
  -21.6048  -28.6404   22.3490 C   0  0  1  0  0  0  0  0  0  0  0  0
  -22.0480  -20.4090   27.1932 C   0  0  0  0  0  0  0  0  0  0  0  0
  -21.5768  -16.8234   21.6441 C   0  0  0  0  0  0  0  0  0  0  0  0
  -20.6694  -18.6413   23.1070 C   0  0  0  0  0  0  0  0  0  0  0  0
  -20.8092  -16.3038   23.9669 C   0  0  0  0  0  0  0  0  0  0  0  0
  -25.7874  -19.7070   27.2084 C   0  0  0  0  0  0  0  0  0  0  0  0
  -31.0393  -24.9904   20.9312 C   0  0  0  0  0  0  0  0  0  0  0  0
  -28.0041  -21.2317   19.7463 C   0  0  0  0  0  0  0  0  0  1  0  0
  -30.3878  -25.6111   16.7560 C   0  0  2  0  0  0  0  0  0  0  0  0
  -22.9311  -17.6484   23.6815 C   0  0  1  0  0  0  0  0  0  0  0  0
  -23.3104  -19.6128   26.9013 C   0  0  2  0  0  0  0  0  0  0  0  0
  -21.5233  -17.3555   23.0901 C   0  0  0  0  0  0  0  0  0  0  0  0
  -20.0745  -26.7524   22.7670 N   0  0  0  0  0  0  0  0  0  0  0  0
  -20.2132  -28.0724   22.5562 N   0  0  0  0  0  0  0  0  0  0  0  0
  -25.0124  -16.5390   22.9322 N   0  0  0  0  0  0  0  0  0  0  0  0
  -23.8715  -28.2099   21.4622 N   0  0  0  0  0  0  0  0  0  0  0  0
  -25.6692  -28.8069   20.0013 N   0  0  0  0  0  0  0  0  0  0  0  0
  -18.9921  -30.0925   22.3597 N   0  0  0  0  0  0  0  0  0  0  0  0
  -15.7830  -27.0033   23.1048 N   0  0  0  0  0  0  0  0  0  0  0  0
  -24.8522  -13.5147   21.4498 N   0  0  0  0  0  0  0  0  0  0  0  0
  -22.9125  -18.1279   25.0592 N   0  0  0  0  0  0  0  0  0  0  0  0
  -24.4803  -20.3841   27.4086 N   0  3  0  0  0  0  0  0  0  0  0  0
  -16.1699  -29.2305   22.7191 O   0  0  0  0  0  0  0  0  0  0  0  0
  -25.6055  -15.4332   20.3661 O   0  0  0  0  0  0  0  0  0  0  0  0
  -23.4852  -15.4259   24.2978 O   0  0  0  0  0  0  0  0  0  0  0  0
  -24.0079  -20.1297   24.6467 O   0  0  0  0  0  0  0  0  0  0  0  0
  -23.5021  -28.6521   19.2304 O   0  0  0  0  0  0  0  0  0  0  0  0
  -16.5809  -21.5417   23.8590 O   0  0  0  0  0  0  0  0  0  0  0  0
  -30.8263  -25.2037   19.5374 O   0  0  0  0  0  0  0  0  0  0  0  0
  -28.9950  -20.2447   20.0056 O   0  0  0  0  0  0  0  0  0  1  0  0
  -12.1150  -20.0823   20.9730 F   0  0  0  0  0  0  0  0  0  0  0  0
  -16.6208  -19.3238   22.2091 F   0  0  0  0  0  0  0  0  0  0  0  0
  -28.5672  -23.6633   15.2028 Cl  0  0  0  0  0  0  0  0  0  0  0  0
  1  2  1  0  0  0  0
  1  5  2  0  0  0  0
  2  6  2  0  0  0  0
  3  8  2  0  0  0  0
  3 17  1  0  0  0  0
  4  9  1  0  0  0  0
  4 17  2  0  0  0  0
  5 19  1  0  0  0  0
  6 21  1  0  0  0  0
  7 10  2  0  0  0  0
  7 20  1  0  0  0  0
  8 25  1  0  0  0  0
  9 25  2  0  0  0  0
 10 26  1  0  0  0  0
 11 12  2  0  0  0  0
 11 27  1  0  0  0  0
 12 29  1  0  0  0  0
 13 22  1  0  0  0  0
 13 26  2  0  0  0  0
 14 23  2  0  0  0  0
 14 28  1  0  0  0  0
 15 23  1  0  0  0  0
 15 31  2  0  0  0  0
 16 29  2  0  0  0  0
 16 30  1  0  0  0  0
 17 32  1  0  0  0  0
 18 32  1  0  0  0  0
 18 33  2  0  0  0  0
 18 34  1  0  0  0  0
 19 21  2  0  0  0  0
 19 39  1  0  0  0  0
 20 22  2  0  0  0  0
 20 40  1  0  0  0  0
 21 55  1  0  0  0  0
 22 41  1  0  0  0  0
 23 68  1  0  0  0  0
 24 28  2  0  0  0  0
 24 31  1  0  0  0  0
 24 69  1  0  0  0  0
 25 88  1  0  0  0  0
 26 90  1  0  0  0  0
 27 30  2  0  0  0  0
 27 88  1  0  0  0  0
 28 89  1  0  0  0  0
 29 91  1  0  0  0  0
 30 92  1  0  0  0  0
 31 93  1  0  0  0  0
 32 73  2  0  0  0  0
 33 74  1  0  0  0  0
 33 78  1  0  0  0  0
 34 79  1  0  0  0  0
 34 83  2  0  0  0  0
 35 56  1  0  0  0  0
 35 80  1  0  0  0  0
 35 84  2  0  0  0  0
 36 70  1  0  0  0  0
 36 75  1  0  0  0  0
 36 85  2  0  0  0  0
 37 71  1  0  0  0  0
 37 81  1  0  0  0  0
 37 86  2  0  0  0  0
 38 76  1  0  0  0  0
 38 77  1  0  0  0  0
 38 87  2  0  0  0  0
 39 42  1  0  0  0  0
 40 56  1  0  0  0  0
 41 75  1  0  0  0  0
 42 44  1  0  0  0  0
 43 47  1  0  0  0  0
 43 51  1  0  0  0  0
 44 55  1  0  0  0  0
 45 46  1  0  0  0  0
 45 59  1  0  0  0  0
 46 59  1  0  0  0  0
 47 61  1  0  0  0  0
 48 52  1  0  0  0  0
 48 57  1  0  0  0  0
 49 53  1  0  0  0  0
 49 57  1  0  0  0  0
 50 58  1  0  0  0  0
 50 60  1  0  0  0  0
 51 76  1  0  0  0  0
 52 77  1  0  0  0  0
 53 77  1  0  0  0  0
 54 61  1  0  0  0  0
 54 76  1  0  0  0  0
 55 80  1  0  0  0  0
 56 75  1  0  0  0  0
 57 58  1  0  0  0  0
 58 60  1  0  0  0  0
 59 69  1  0  0  0  0
 60 69  1  0  0  0  0
 61 74  1  0  0  0  0
 62 71  1  0  0  0  0
 63 72  1  0  0  0  0
 64 72  1  0  0  0  0
 65 72  1  0  0  0  0
 66 82  1  0  0  0  0
 67 89  1  0  0  0  0
 68 90  1  0  0  0  0
 70 72  1  0  0  0  0
 70 81  1  0  0  0  0
 71 82  1  0  0  0  0
 73 74  1  0  0  0  0
M  CHG  1  82   1
M  ISO  4  38 100  68 101  77 100  90 101
M  END
> <Batch ID>
0152

> <Smiles>
CNC(C)C(=O)NC(C(=O)N1Cc2cc([101O:1][101CH2:1]c3cc(Cl)c(C(C4CC4)C4CC4C4CC[100N:0]([100C:0](=O)N5CCCC(n6nc(-c7ccc(Oc8ccc(F)cc8F)cc7)c(C(N)=O)c6N)C5)CC4)c(OC)c3)ccc2CC1C(=O)NC1CCCc2ccccc21)C(C)(C)C

> <Shape>
0.230

> <Color>
0.078

> <Negative vol penalty>
0.000

$$$$

  -OEChem-04052321463D

 85 95  0     1  0  0  0  0  0999 V2000
  -29.4936  -32.9964   25.5358 C   0  0  0  0  0  0  0  0  0  0  0  0
  -29.2817  -31.6493   25.2603 C   0  0  0  0  0  0  0  0  0  0  0  0
  -23.1206   -9.7702   19.9193 C   0  0  0  0  0  0  0  0  0  0  0  0
  -23.8762   -9.7813   22.2141 C   0  0  0  0  0  0  0  0  0  0  0  0
  -28.5248  -33.9380   25.1913 C   0  0  0  0  0  0  0  0  0  0  0  0
  -28.1002  -31.2430   24.6411 C   0  0  0  0  0  0  0  0  0  0  0  0
  -31.1307  -19.1949   20.6313 C   0  0  0  0  0  0  0  0  0  0  0  0
  -28.9057  -27.9010   20.9226 C   0  0  0  0  0  0  0  0  0  0  0  0
  -30.9889  -17.8056   20.6372 C   0  0  0  0  0  0  0  0  0  0  0  0
  -22.4076   -8.5958   20.1597 C   0  0  0  0  0  0  0  0  0  0  0  0
  -23.1631   -8.6069   22.4545 C   0  0  0  0  0  0  0  0  0  0  0  0
  -29.1555  -26.5811   21.2958 C   0  0  0  0  0  0  0  0  0  0  0  0
  -19.9566   -7.7183   23.0454 C   0  0  0  0  0  0  0  0  0  0  0  0
  -19.1990   -7.6498   24.2146 C   0  0  0  0  0  0  0  0  0  0  0  0
  -29.3334  -17.9374   22.4151 C   0  0  0  0  0  0  0  0  0  0  0  0
  -26.8623  -26.0149   20.8063 C   0  0  0  0  0  0  0  0  0  0  0  0
  -20.4908   -5.7412   24.9396 C   0  0  0  0  0  0  0  0  0  0  0  0
  -23.8549  -10.3630   20.9464 C   0  0  0  0  0  0  0  0  0  0  0  0
  -24.1290  -12.8972   20.8449 C   0  0  0  0  0  0  0  0  0  0  0  0
  -27.3351  -33.5441   24.5588 C   0  0  0  0  0  0  0  0  0  0  0  0
  -30.3613  -19.9374   21.5113 C   0  0  0  0  0  0  0  0  0  0  0  0
  -27.6273  -28.2908   20.4981 C   0  0  0  0  0  0  0  0  0  0  0  0
  -27.1140  -32.1800   24.2891 C   0  0  0  0  0  0  0  0  0  0  0  0
  -29.4722  -19.3152   22.3942 C   0  0  0  0  0  0  0  0  0  0  0  0
  -26.5995  -27.3397   20.4257 C   0  0  0  0  0  0  0  0  0  0  0  0
  -30.0963  -17.1813   21.5227 C   0  0  0  0  0  0  0  0  0  0  0  0
  -22.4288   -8.0141   21.4273 C   0  0  0  0  0  0  0  0  0  0  0  0
  -28.1331  -25.6385   21.2405 C   0  0  0  0  0  0  0  0  0  0  0  0
  -20.9812   -6.7983   22.8233 C   0  0  0  0  0  0  0  0  0  0  0  0
  -19.4662   -6.6612   25.1617 C   0  0  0  0  0  0  0  0  0  0  0  0
  -21.2484   -5.8098   23.7704 C   0  0  0  0  0  0  0  0  0  0  0  0
  -24.5922  -11.5759   20.6985 C   0  0  0  0  0  0  0  0  0  0  0  0
  -25.2012  -13.6783   20.4889 C   0  0  0  0  0  0  0  0  0  0  0  0
  -22.8444  -13.3757   21.2650 C   0  0  0  0  0  0  0  0  0  0  0  0
  -25.4408  -30.3412   21.5556 C   0  0  0  0  0  0  0  0  0  0  0  0
  -23.9204  -29.5364   18.8054 C   0  0  0  0  0  0  0  0  0  0  0  0
  -23.4587  -27.2529   16.3116 C   0  0  0  0  0  0  0  0  0  0  0  0
  -30.6370  -14.8692   20.6812 C   0  0  0  0  0  0  0  0  0  0  0  0
  -26.2965  -34.5927   24.2482 C   0  0  0  0  0  0  0  0  0  0  0  0
  -27.3808  -29.7125   20.0734 C   0  0  0  0  0  0  0  0  0  0  0  0
  -30.3665  -21.4202   21.7114 C   0  0  0  0  0  0  0  0  0  0  0  0
  -28.7959  -20.3206   23.2719 C   0  0  0  0  0  0  0  0  0  0  0  0
  -25.2147  -27.7027   19.9576 C   0  0  0  0  0  0  0  0  0  0  0  0
  -25.2354  -34.1239   23.2560 C   0  0  0  0  0  0  0  0  0  0  0  0
  -29.5918  -12.4432   18.2939 C   0  0  0  0  0  0  0  0  0  0  0  0
  -24.7248  -32.7376   23.6358 C   0  0  0  0  0  0  0  0  0  0  0  0
  -27.5749  -22.1011   25.3832 C   0  0  0  0  0  0  0  0  0  0  0  0
  -27.8207  -23.5740   25.5565 C   0  0  0  0  0  0  0  0  0  0  0  0
  -28.1598  -12.1100   18.7187 C   0  0  0  0  0  0  0  0  0  0  0  0
  -30.4984  -12.6880   19.4988 C   0  0  0  0  0  0  0  0  0  0  0  0
  -28.5704  -13.3511   20.8816 C   0  0  0  0  0  0  0  0  0  0  0  0
  -25.8560  -31.7030   23.5961 C   0  0  1  0  0  0  0  0  0  0  0  0
  -25.9102  -30.1116   20.1468 C   0  0  1  0  0  0  0  0  0  0  0  0
  -29.0493  -21.6273   22.4896 C   0  0  1  0  0  0  0  0  0  0  0  0
  -27.8078  -22.9711   24.1792 C   0  0  0  0  0  0  0  0  0  0  0  0
  -27.6046  -13.1601   19.7007 C   0  0  2  0  0  0  0  0  0  0  0  0
  -22.1230  -26.8587   14.2241 C   0  0  0  0  0  0  0  0  0  0  0  0
  -21.4719  -28.8720   20.5005 C   0  0  0  0  0  0  0  0  0  0  0  0
  -20.5425  -27.6194   18.5421 C   0  0  0  0  0  0  0  0  0  0  0  0
  -20.9677  -30.0710   18.3645 C   0  0  0  0  0  0  0  0  0  0  0  0
  -25.8960  -27.1221   14.6378 C   0  0  0  0  0  0  0  0  0  0  0  0
  -29.3750  -24.1319   22.5984 C   0  0  0  0  0  0  0  0  0  1  0  0
  -22.9265  -28.4730   18.4051 C   0  0  1  0  0  0  0  0  0  0  0  0
  -23.4196  -27.4044   14.8017 C   0  0  2  0  0  0  0  0  0  0  0  0
  -29.0881  -22.8512   23.3911 C   0  0  2  0  0  0  0  0  0  0  0  0
  -21.5026  -28.7521   18.9638 C   0  0  0  0  0  0  0  0  0  0  0  0
  -25.8598  -11.5171   20.2819 N   0  0  0  0  0  0  0  0  0  0  0  0
  -26.2023  -12.8112   20.1634 N   0  0  0  0  0  0  0  0  0  0  0  0
  -25.0218  -29.1068   19.5591 N   0  0  0  0  0  0  0  0  0  0  0  0
  -29.9105  -13.6971   20.3824 N   0  0  0  0  0  0  0  0  0  0  0  0
  -25.3758  -15.0155   20.4257 N   0  0  0  0  0  0  0  0  0  0  0  0
  -21.8567  -12.4373   21.5940 N   0  0  0  0  0  0  0  0  0  0  0  0
  -29.9636  -15.7707   21.5049 N   0  0  0  0  0  0  0  0  0  0  0  0
  -26.1439  -31.3210   22.2303 N   0  0  0  0  0  0  0  0  0  0  0  0
  -22.9903  -28.3815   16.9505 N   0  0  0  0  0  0  0  0  0  0  0  0
  -24.5573  -26.6711   14.1779 N   0  3  0  0  0  0  0  0  0  0  0  0
  -22.5750  -14.5991   21.3306 O   0  0  0  0  0  0  0  0  0  0  0  0
  -24.5086  -29.6796   21.9972 O   0  0  0  0  0  0  0  0  0  0  0  0
  -23.7303  -30.7041   18.4560 O   0  0  0  0  0  0  0  0  0  0  0  0
  -23.8608  -26.2338   16.8686 O   0  0  0  0  0  0  0  0  0  0  0  0
  -31.7619  -15.0715   20.2169 O   0  0  0  0  0  0  0  0  0  0  0  0
  -21.7330   -6.8682   21.6624 O   0  0  0  0  0  0  0  0  0  0  0  0
  -28.3741  -24.3497   21.6048 O   0  0  0  0  0  0  0  0  0  1  0  0
  -18.7396   -6.5965   26.2851 F   0  0  0  0  0  0  0  0  0  0  0  0
  -22.2323   -4.9238   23.5631 F   0  0  0  0  0  0  0  0  0  0  0  0
  1  2  1  0  0  0  0
  1  5  2  0  0  0  0
  2  6  2  0  0  0  0
  3 10  2  0  0  0  0
  3 18  1  0  0  0  0
  4 11  1  0  0  0  0
  4 18  2  0  0  0  0
  5 20  1  0  0  0  0
  6 23  1  0  0  0  0
  7  9  2  0  0  0  0
  7 21  1  0  0  0  0
  8 12  2  0  0  0  0
  8 22  1  0  0  0  0
  9 26  1  0  0  0  0
 10 27  1  0  0  0  0
 11 27  2  0  0  0  0
 12 28  1  0  0  0  0
 13 14  2  0  0  0  0
 13 29  1  0  0  0  0
 14 30  1  0  0  0  0
 15 24  1  0  0  0  0
 15 26  2  0  0  0  0
 16 25  1  0  0  0  0
 16 28  2  0  0  0  0
 17 30  2  0  0  0  0
 17 31  1  0  0  0  0
 18 32  1  0  0  0  0
 19 32  1  0  0  0  0
 19 33  2  0  0  0  0
 19 34  1  0  0  0  0
 20 23  2  0  0  0  0
 20 39  1  0  0  0  0
 21 24  2  0  0  0  0
 21 41  1  0  0  0  0
 22 25  2  0  0  0  0
 22 40  1  0  0  0  0
 23 52  1  0  0  0  0
 24 42  1  0  0  0  0
 25 43  1  0  0  0  0
 26 73  1  0  0  0  0
 27 82  1  0  0  0  0
 28 83  1  0  0  0  0
 29 31  2  0  0  0  0
 29 82  1  0  0  0  0
 30 84  1  0  0  0  0
 31 85  1  0  0  0  0
 32 67  2  0  0  0  0
 33 68  1  0  0  0  0
 33 71  1  0  0  0  0
 34 72  1  0  0  0  0
 34 77  2  0  0  0  0
 35 53  1  0  0  0  0
 35 74  1  0  0  0  0
 35 78  2  0  0  0  0
 36 63  1  0  0  0  0
 36 69  1  0  0  0  0
 36 79  2  0  0  0  0
 37 64  1  0  0  0  0
 37 75  1  0  0  0  0
 37 80  2  0  0  0  0
 38 70  1  0  0  0  0
 38 73  1  0  0  0  0
 38 81  2  0  0  0  0
 39 44  1  0  0  0  0
 40 53  1  0  0  0  0
 41 54  1  0  0  0  0
 42 54  1  0  0  0  0
 43 69  1  0  0  0  0
 44 46  1  0  0  0  0
 45 49  1  0  0  0  0
 45 50  1  0  0  0  0
 46 52  1  0  0  0  0
 47 48  1  0  0  0  0
 47 55  1  0  0  0  0
 48 55  1  0  0  0  0
 49 56  1  0  0  0  0
 50 70  1  0  0  0  0
 51 56  1  0  0  0  0
 51 70  1  0  0  0  0
 52 74  1  0  0  0  0
 53 69  1  0  0  0  0
 54 65  1  0  0  0  0
 55 65  1  0  0  0  0
 56 68  1  0  0  0  0
 57 64  1  0  0  0  0
 58 66  1  0  0  0  0
 59 66  1  0  0  0  0
 60 66  1  0  0  0  0
 61 76  1  0  0  0  0
 62 65  1  0  0  0  0
 62 83  1  0  0  0  0
 63 66  1  0  0  0  0
 63 75  1  0  0  0  0
 64 76  1  0  0  0  0
 67 68  1  0  0  0  0
M  CHG  1  76   1
M  ISO  4  38 100  62 101  73 100  83 101
M  END
> <Batch ID>
0152

> <Smiles>
CNC(C)C(=O)NC(C(=O)N1Cc2cc([101O:1][101CH2:1]C(C3CC3)C3Cc4ccc([100NH:0][100C:0](=O)N5CCCC(n6nc(-c7ccc(Oc8ccc(F)cc8F)cc7)c(C(N)=O)c6N)C5)cc4C3)ccc2CC1C(=O)NC1CCCc2ccccc21)C(C)(C)C

> <Shape>
0.339

> <Color>
0.213

> <Negative vol penalty>
0.000

$$$$

  -OEChem-04052321463D

 88 98  0     1  0  0  0  0  0999 V2000
  -21.9302  -25.1033   26.1914 C   0  0  0  0  0  0  0  0  0  0  0  0
  -23.0543  -25.2620   25.3872 C   0  0  0  0  0  0  0  0  0  0  0  0
  -24.5697   -9.2015   22.0574 C   0  0  0  0  0  0  0  0  0  0  0  0
  -23.3711   -9.7598   20.0353 C   0  0  0  0  0  0  0  0  0  0  0  0
  -20.6703  -25.4449   25.7016 C   0  0  0  0  0  0  0  0  0  0  0  0
  -22.9190  -25.7613   24.0923 C   0  0  0  0  0  0  0  0  0  0  0  0
  -26.3993  -29.2708   22.9898 C   0  0  0  0  0  0  0  0  0  0  0  0
  -23.4391   -8.5478   22.5472 C   0  0  0  0  0  0  0  0  0  0  0  0
  -22.2404   -9.1060   20.5251 C   0  0  0  0  0  0  0  0  0  0  0  0
  -27.6804  -28.8200   22.6743 C   0  0  0  0  0  0  0  0  0  0  0  0
  -20.9818   -6.4214   24.1768 C   0  0  0  0  0  0  0  0  0  0  0  0
  -21.1612   -5.1719   24.7701 C   0  0  0  0  0  0  0  0  0  0  0  0
  -27.1936  -29.0972   20.3280 C   0  0  0  0  0  0  0  0  0  0  0  0
  -29.9315  -22.3015   19.7358 C   0  0  0  0  0  0  0  0  0  0  0  0
  -27.7290  -22.9690   20.4708 C   0  0  0  0  0  0  0  0  0  0  0  0
  -22.0751   -4.3209   22.7018 C   0  0  0  0  0  0  0  0  0  0  0  0
  -24.5358   -9.8075   20.8015 C   0  0  0  0  0  0  0  0  0  0  0  0
  -26.7416   -9.9256   19.5255 C   0  0  0  0  0  0  0  0  0  0  0  0
  -20.5206  -25.9577   24.4034 C   0  0  0  0  0  0  0  0  0  0  0  0
  -25.5005  -29.6284   21.9745 C   0  0  0  0  0  0  0  0  0  0  0  0
  -21.6557  -26.1088   23.5842 C   0  0  0  0  0  0  0  0  0  0  0  0
  -25.9026  -29.5547   20.6333 C   0  0  0  0  0  0  0  0  0  0  0  0
  -29.5561  -24.5482   20.5408 C   0  0  0  0  0  0  0  0  0  0  0  0
  -30.4154  -23.5768   20.0274 C   0  0  0  0  0  0  0  0  0  0  0  0
  -28.5883  -21.9976   19.9575 C   0  0  0  0  0  0  0  0  0  0  0  0
  -22.2744   -8.5001   21.7810 C   0  0  0  0  0  0  0  0  0  0  0  0
  -28.0767  -28.7304   21.3432 C   0  0  0  0  0  0  0  0  0  0  0  0
  -21.3490   -6.6207   22.8459 C   0  0  0  0  0  0  0  0  0  0  0  0
  -28.2128  -24.2444   20.7625 C   0  0  0  0  0  0  0  0  0  0  0  0
  -21.7078   -4.1216   24.0326 C   0  0  0  0  0  0  0  0  0  0  0  0
  -21.8956   -5.5705   22.1084 C   0  0  0  0  0  0  0  0  0  0  0  0
  -25.7032  -10.4834   20.2953 C   0  0  0  0  0  0  0  0  0  0  0  0
  -27.6035  -10.9714   19.3024 C   0  0  0  0  0  0  0  0  0  0  0  0
  -26.9117   -8.5822   19.0543 C   0  0  0  0  0  0  0  0  0  0  0  0
  -22.6609  -28.5687   21.0169 C   0  0  0  0  0  0  0  0  0  0  0  0
  -22.8067  -31.1331   19.0357 C   0  0  0  0  0  0  0  0  0  0  0  0
  -24.7368  -33.4103   17.3817 C   0  0  0  0  0  0  0  0  0  0  0  0
  -26.9518  -16.7069   18.9741 C   0  0  0  0  0  0  0  0  0  0  0  0
  -19.1329  -26.2684   23.9013 C   0  0  0  0  0  0  0  0  0  0  0  0
  -24.1314  -30.1381   22.3324 C   0  0  0  0  0  0  0  0  0  0  0  0
  -24.9824  -29.9459   19.5069 C   0  0  0  0  0  0  0  0  0  0  0  0
  -19.1195  -27.1429   22.6501 C   0  0  0  0  0  0  0  0  0  0  0  0
  -29.0966  -15.0806   21.2312 C   0  0  0  0  0  0  0  0  0  0  0  0
  -20.1245  -26.6251   21.6261 C   0  0  0  0  0  0  0  0  0  0  0  0
  -28.5674  -13.6479   21.1746 C   0  0  0  0  0  0  0  0  0  0  0  0
  -30.7733  -26.6959   19.7779 C   0  0  0  0  0  0  0  0  0  0  0  0
  -27.9656  -16.1102   21.2183 C   0  0  0  0  0  0  0  0  0  0  0  0
  -28.7213  -19.9424   18.5840 C   0  0  0  0  0  0  0  0  0  0  0  0
  -27.4958  -19.9502   20.7621 C   0  0  0  0  0  0  0  0  0  0  0  0
  -27.7811  -18.8508   18.0798 C   0  0  0  0  0  0  0  0  0  0  0  0
  -26.5705  -18.8687   20.2154 C   0  0  0  0  0  0  0  0  0  0  0  0
  -26.4903  -14.5162   20.0348 C   0  0  0  0  0  0  0  0  0  0  0  0
  -30.0689  -25.9171   20.8554 C   0  0  1  0  0  0  0  0  0  0  0  0
  -21.5526  -26.6706   22.1829 C   0  0  1  0  0  0  0  0  0  0  0  0
  -23.1223  -29.9871   21.1982 C   0  0  1  0  0  0  0  0  0  0  0  0
  -27.6060  -13.4607   19.9874 C   0  0  2  0  0  0  0  0  0  0  0  0
  -29.4015  -27.1078   20.2172 C   0  0  1  0  0  0  0  0  0  1  0  0
  -31.8581  -23.8755   19.7809 C   0  0  0  0  0  0  0  0  0  0  0  0
  -24.5730  -35.3596   15.8098 C   0  0  0  0  0  0  0  0  0  0  0  0
  -22.2644  -29.2189   16.7223 C   0  0  0  0  0  0  0  0  0  0  0  0
  -23.0452  -31.0058   15.1522 C   0  0  0  0  0  0  0  0  0  0  0  0
  -21.0402  -31.3953   16.5843 C   0  0  0  0  0  0  0  0  0  0  0  0
  -25.9867  -35.2435   19.3402 C   0  0  0  0  0  0  0  0  0  0  0  0
  -27.2310  -25.2481   22.6820 C   0  0  0  0  0  0  0  0  0  0  0  0
  -23.3358  -31.3797   17.6435 C   0  0  1  0  0  0  0  0  0  0  0  0
  -24.6356  -34.9204   17.2644 C   0  0  2  0  0  0  0  0  0  0  0  0
  -22.4383  -30.7406   16.5465 C   0  0  0  0  0  0  0  0  0  0  0  0
  -25.8869  -11.7827   20.5445 N   0  0  0  0  0  0  0  0  0  0  0  0
  -27.0507  -12.0500   19.9279 N   0  0  0  0  0  0  0  0  0  0  0  0
  -28.1022  -20.7169   19.6650 N   0  0  0  0  0  0  0  0  0  0  0  0
  -23.6519  -30.4322   19.9076 N   0  0  0  0  0  0  0  0  0  0  0  0
  -27.0528  -15.8670   20.0932 N   0  0  0  0  0  0  0  0  0  0  0  0
  -27.2233  -18.0691   19.1768 N   0  0  0  0  0  0  0  0  0  0  0  0
  -28.7728  -11.0644   18.6341 N   0  0  0  0  0  0  0  0  0  0  0  0
  -25.9315   -7.6328   19.3741 N   0  0  0  0  0  0  0  0  0  0  0  0
  -22.0692  -28.0217   22.1395 N   0  0  0  0  0  0  0  0  0  0  0  0
  -23.4961  -32.8243   17.5177 N   0  0  0  0  0  0  0  0  0  0  0  0
  -25.8165  -35.5696   17.9009 N   0  3  0  0  0  0  0  0  0  0  0  0
  -27.9118   -8.2302   18.3838 O   0  0  0  0  0  0  0  0  0  0  0  0
  -22.8279  -28.0123   19.9379 O   0  0  0  0  0  0  0  0  0  0  0  0
  -21.6877  -31.5532   19.3406 O   0  0  0  0  0  0  0  0  0  0  0  0
  -25.8089  -32.8102   17.3516 O   0  0  0  0  0  0  0  0  0  0  0  0
  -26.6413  -16.2680   17.8597 O   0  0  0  0  0  0  0  0  0  0  0  0
  -21.1710   -7.8621   22.2585 O   0  0  0  0  0  0  0  0  0  0  0  0
  -29.3289  -28.2893   21.0318 O   0  0  0  0  0  0  0  0  0  1  0  0
  -27.3575  -25.1797   21.2632 O   0  0  0  0  0  0  0  0  0  0  0  0
  -21.8815   -2.9222   24.6030 F   0  0  0  0  0  0  0  0  0  0  0  0
  -22.2514   -5.7563   20.8298 F   0  0  0  0  0  0  0  0  0  0  0  0
  1  2  1  0  0  0  0
  1  5  2  0  0  0  0
  2  6  2  0  0  0  0
  3  8  2  0  0  0  0
  3 17  1  0  0  0  0
  4  9  1  0  0  0  0
  4 17  2  0  0  0  0
  5 19  1  0  0  0  0
  6 21  1  0  0  0  0
  7 10  2  0  0  0  0
  7 20  1  0  0  0  0
  8 26  1  0  0  0  0
  9 26  2  0  0  0  0
 10 27  1  0  0  0  0
 11 12  2  0  0  0  0
 11 28  1  0  0  0  0
 12 30  1  0  0  0  0
 13 22  1  0  0  0  0
 13 27  2  0  0  0  0
 14 24  2  0  0  0  0
 14 25  1  0  0  0  0
 15 25  2  0  0  0  0
 15 29  1  0  0  0  0
 16 30  2  0  0  0  0
 16 31  1  0  0  0  0
 17 32  1  0  0  0  0
 18 32  1  0  0  0  0
 18 33  2  0  0  0  0
 18 34  1  0  0  0  0
 19 21  2  0  0  0  0
 19 39  1  0  0  0  0
 20 22  2  0  0  0  0
 20 40  1  0  0  0  0
 21 54  1  0  0  0  0
 22 41  1  0  0  0  0
 23 24  1  0  0  0  0
 23 29  2  0  0  0  0
 23 53  1  0  0  0  0
 24 58  1  0  0  0  0
 25 70  1  0  0  0  0
 26 84  1  0  0  0  0
 27 85  1  0  0  0  0
 28 31  2  0  0  0  0
 28 84  1  0  0  0  0
 29 86  1  0  0  0  0
 30 87  1  0  0  0  0
 31 88  1  0  0  0  0
 32 68  2  0  0  0  0
 33 69  1  0  0  0  0
 33 74  1  0  0  0  0
 34 75  1  0  0  0  0
 34 79  2  0  0  0  0
 35 55  1  0  0  0  0
 35 76  1  0  0  0  0
 35 80  2  0  0  0  0
 36 65  1  0  0  0  0
 36 71  1  0  0  0  0
 36 81  2  0  0  0  0
 37 66  1  0  0  0  0
 37 77  1  0  0  0  0
 37 82  2  0  0  0  0
 38 72  1  0  0  0  0
 38 73  1  0  0  0  0
 38 83  2  0  0  0  0
 39 42  1  0  0  0  0
 40 55  1  0  0  0  0
 41 71  1  0  0  0  0
 42 44  1  0  0  0  0
 43 45  1  0  0  0  0
 43 47  1  0  0  0  0
 44 54  1  0  0  0  0
 45 56  1  0  0  0  0
 46 53  1  0  0  0  0
 46 57  1  0  0  0  0
 47 72  1  0  0  0  0
 48 50  1  0  0  0  0
 48 70  1  0  0  0  0
 49 51  1  0  0  0  0
 49 70  1  0  0  0  0
 50 73  1  0  0  0  0
 51 73  1  0  0  0  0
 52 56  1  0  0  0  0
 52 72  1  0  0  0  0
 53 57  1  0  0  0  0
 54 76  1  0  0  0  0
 55 71  1  0  0  0  0
 56 69  1  0  0  0  0
 57 85  1  0  0  0  0
 59 66  1  0  0  0  0
 60 67  1  0  0  0  0
 61 67  1  0  0  0  0
 62 67  1  0  0  0  0
 63 78  1  0  0  0  0
 64 86  1  0  0  0  0
 65 67  1  0  0  0  0
 65 77  1  0  0  0  0
 66 78  1  0  0  0  0
 68 69  1  0  0  0  0
M  CHG  1  78   1
M  ISO  4  38 100  57 101  73 100  85 101
M  END
> <Batch ID>
0152

> <Smiles>
CNC(C)C(=O)NC(C(=O)N1Cc2cc([101O:1][101CH:1]3CC3c3c(C)cc(N4CC[100N:0]([100C:0](=O)N5CCCC(n6nc(-c7ccc(Oc8ccc(F)cc8F)cc7)c(C(N)=O)c6N)C5)CC4)cc3OC)ccc2CC1C(=O)NC1CCCc2ccccc21)C(C)(C)C

> <Shape>
0.298

> <Color>
0.082

> <Negative vol penalty>
0.000

$$$$

  -OEChem-04052321463D

 91100  0     1  0  0  0  0  0999 V2000
  -35.1241  -15.3864   29.6655 C   0  0  0  0  0  0  0  0  0  0  0  0
  -33.8888  -15.9313   29.3300 C   0  0  0  0  0  0  0  0  0  0  0  0
  -23.2015   -9.8511   19.9532 C   0  0  0  0  0  0  0  0  0  0  0  0
  -23.9130   -9.9306   22.2607 C   0  0  0  0  0  0  0  0  0  0  0  0
  -35.5295  -14.1792   29.0979 C   0  0  0  0  0  0  0  0  0  0  0  0
  -33.0586  -15.2697   28.4259 C   0  0  0  0  0  0  0  0  0  0  0  0
  -26.9384  -15.0657   28.5171 C   0  0  0  0  0  0  0  0  0  0  0  0
  -22.5101   -8.6666   20.2071 C   0  0  0  0  0  0  0  0  0  0  0  0
  -23.2216   -8.7461   22.5147 C   0  0  0  0  0  0  0  0  0  0  0  0
  -25.9655  -15.7851   27.8246 C   0  0  0  0  0  0  0  0  0  0  0  0
  -21.3462   -5.9351   23.8562 C   0  0  0  0  0  0  0  0  0  0  0  0
  -20.5692   -5.8721   25.0128 C   0  0  0  0  0  0  0  0  0  0  0  0
  -28.8307  -18.7750   23.3383 C   0  0  0  0  0  0  0  0  0  0  0  0
  -25.8192  -14.0097   26.1980 C   0  0  0  0  0  0  0  0  0  0  0  0
  -27.1530  -17.0564   23.7312 C   0  0  0  0  0  0  0  0  0  0  0  0
  -19.2464   -7.7343   24.2256 C   0  0  0  0  0  0  0  0  0  0  0  0
  -23.9030  -10.4831   20.9799 C   0  0  0  0  0  0  0  0  0  0  0  0
  -24.1231  -13.0199   20.8257 C   0  0  0  0  0  0  0  0  0  0  0  0
  -34.6997  -13.4976   28.1937 C   0  0  0  0  0  0  0  0  0  0  0  0
  -27.3676  -13.8156   28.0485 C   0  0  0  0  0  0  0  0  0  0  0  0
  -33.4538  -14.0529   27.8447 C   0  0  0  0  0  0  0  0  0  0  0  0
  -27.8043  -19.6683   23.0824 C   0  0  0  0  0  0  0  0  0  0  0  0
  -26.7959  -13.2753   26.8878 C   0  0  0  0  0  0  0  0  0  0  0  0
  -26.4638  -19.2647   23.1392 C   0  0  0  0  0  0  0  0  0  0  0  0
  -26.1242  -17.9607   23.4593 C   0  0  0  0  0  0  0  0  0  0  0  0
  -22.5201   -8.1141   21.4879 C   0  0  0  0  0  0  0  0  0  0  0  0
  -25.4078  -15.2584   26.6632 C   0  0  0  0  0  0  0  0  0  0  0  0
  -21.0734   -6.8977   22.8842 C   0  0  0  0  0  0  0  0  0  0  0  0
  -28.4963  -17.4604   23.6706 C   0  0  0  0  0  0  0  0  0  0  0  0
  -19.5193   -6.7717   25.1975 C   0  0  0  0  0  0  0  0  0  0  0  0
  -20.0235   -7.7973   23.0689 C   0  0  0  0  0  0  0  0  0  0  0  0
  -24.6179  -11.7064   20.7181 C   0  0  0  0  0  0  0  0  0  0  0  0
  -25.1844  -13.8167   20.4718 C   0  0  0  0  0  0  0  0  0  0  0  0
  -22.8205  -13.4787   21.2111 C   0  0  0  0  0  0  0  0  0  0  0  0
  -30.1400  -12.6270   27.0460 C   0  0  0  0  0  0  0  0  0  0  0  0
  -28.4782   -9.8418   26.9841 C   0  0  0  0  0  0  0  0  0  0  0  0
  -25.4530   -8.2773   26.7674 C   0  0  0  0  0  0  0  0  0  0  0  0
  -30.9481  -14.0590   20.9567 C   0  0  0  0  0  0  0  0  0  0  0  0
  -35.2013  -12.2194   27.5699 C   0  0  0  0  0  0  0  0  0  0  0  0
  -28.3988  -13.0402   28.8218 C   0  0  0  0  0  0  0  0  0  0  0  0
  -27.9139  -21.1045   22.6745 C   0  0  0  0  0  0  0  0  0  0  0  0
  -27.2074  -11.9283   26.3541 C   0  0  0  0  0  0  0  0  0  0  0  0
  -34.1023  -11.3930   26.9069 C   0  0  0  0  0  0  0  0  0  0  0  0
  -26.4875  -21.6051   22.9605 C   0  0  0  0  0  0  0  0  0  0  0  0
  -29.3568  -13.1279   17.9109 C   0  0  0  0  0  0  0  0  0  0  0  0
  -33.2147  -12.2818   26.0414 C   0  0  0  0  0  0  0  0  0  0  0  0
  -27.9266  -12.7885   18.3342 C   0  0  0  0  0  0  0  0  0  0  0  0
  -30.3743  -12.7005   18.9664 C   0  0  0  0  0  0  0  0  0  0  0  0
  -28.6798  -12.8726   20.7476 C   0  0  0  0  0  0  0  0  0  0  0  0
  -32.5146  -13.3527   26.8867 C   0  0  1  0  0  0  0  0  0  0  0  0
  -25.5513  -20.3963   22.7821 C   0  0  1  0  0  0  0  0  0  0  0  0
  -29.1313  -12.0071   27.9712 C   0  0  1  0  0  0  0  0  0  0  0  0
  -27.6133  -13.3351   19.7401 C   0  0  2  0  0  0  0  0  0  0  0  0
  -24.4167   -5.9926   26.7056 C   0  0  0  0  0  0  0  0  0  0  0  0
  -24.3651  -21.4964   18.6760 C   0  0  0  0  0  0  0  0  0  0  0  0
  -22.9460  -19.5245   19.3137 C   0  0  0  0  0  0  0  0  0  0  0  0
  -29.3767   -9.5153   24.0865 C   0  0  0  0  0  0  0  0  0  0  0  0
  -27.5907   -7.7842   23.8008 C   0  0  0  0  0  0  0  0  0  0  0  0
  -29.4343   -7.4130   25.4397 C   0  0  0  0  0  0  0  0  0  0  0  0
  -23.9070   -8.7846   29.2395 C   0  0  0  0  0  0  0  0  0  0  0  0
  -24.6862  -17.5106   23.5159 C   0  0  0  0  0  0  0  0  0  0  0  0
  -23.9471  -17.9669   24.7757 C   0  0  0  0  0  0  0  0  0  0  0  0
  -31.3707  -15.3954   23.0048 C   0  0  0  0  0  0  0  0  0  0  0  0
  -23.8126  -21.0869   21.1276 C   0  0  0  0  0  0  0  0  0  0  0  0
  -24.5244  -17.3824   26.0596 C   0  0  0  0  0  0  0  0  0  1  0  0
  -30.7279  -16.7464   23.2629 C   0  0  0  0  0  0  0  0  0  0  0  0
  -27.6413   -9.1189   25.9565 C   0  0  1  0  0  0  0  0  0  0  0  0
  -24.8367   -7.1583   27.5874 C   0  0  2  0  0  0  0  0  0  0  0  0
  -23.3400  -20.9576   19.6752 C   0  0  0  0  0  0  0  0  0  0  0  0
  -28.5042   -8.4841   24.8296 C   0  0  0  0  0  0  0  0  0  0  0  0
  -25.8943  -11.6667   20.3264 N   0  0  0  0  0  0  0  0  0  0  0  0
  -26.2103  -12.9652   20.1847 N   0  0  0  0  0  0  0  0  0  0  0  0
  -28.2237  -11.2115   27.1421 N   0  0  0  0  0  0  0  0  0  0  0  0
  -30.0205  -13.2533   20.2760 N   0  0  0  0  0  0  0  0  0  0  0  0
  -25.3307  -15.1557   20.3814 N   0  0  0  0  0  0  0  0  0  0  0  0
  -21.8477  -12.5260   21.5431 N   0  0  0  0  0  0  0  0  0  0  0  0
  -31.3954  -12.7793   27.6030 N   0  0  0  0  0  0  0  0  0  0  0  0
  -26.8251   -8.1615   26.6952 N   0  0  0  0  0  0  0  0  0  0  0  0
  -30.5306  -14.5475   22.1887 N   0  0  0  0  0  0  0  0  0  0  0  0
  -25.0752  -20.3410   21.3758 N   0  3  0  0  0  0  0  0  0  0  0  0
  -23.6348   -7.6523   28.3172 N   0  3  0  0  0  0  0  0  0  0  0  0
  -22.5231  -14.6969   21.2438 O   0  0  0  0  0  0  0  0  0  0  0  0
  -29.8045  -12.9422   25.9103 O   0  0  0  0  0  0  0  0  0  0  0  0
  -29.3217   -9.2129   27.6280 O   0  0  0  0  0  0  0  0  0  0  0  0
  -24.7838   -9.1632   26.2403 O   0  0  0  0  0  0  0  0  0  0  0  0
  -32.0635  -14.3279   20.4980 O   0  0  0  0  0  0  0  0  0  0  0  0
  -21.8453   -6.9584   21.7361 O   0  0  0  0  0  0  0  0  0  0  0  0
  -24.4585  -15.9588   25.9849 O   0  0  0  0  0  0  0  0  0  1  0  0
  -29.4831  -16.5583   23.9331 O   0  0  0  0  0  0  0  0  0  0  0  0
  -18.7722   -6.7101   26.3076 F   0  0  0  0  0  0  0  0  0  0  0  0
  -19.7559   -8.7235   22.1381 F   0  0  0  0  0  0  0  0  0  0  0  0
  1  2  1  0  0  0  0
  1  5  2  0  0  0  0
  2  6  2  0  0  0  0
  3  8  2  0  0  0  0
  3 17  1  0  0  0  0
  4  9  1  0  0  0  0
  4 17  2  0  0  0  0
  5 19  1  0  0  0  0
  6 21  1  0  0  0  0
  7 10  2  0  0  0  0
  7 20  1  0  0  0  0
  8 26  1  0  0  0  0
  9 26  2  0  0  0  0
 10 27  1  0  0  0  0
 11 12  2  0  0  0  0
 11 28  1  0  0  0  0
 12 30  1  0  0  0  0
 13 22  2  0  0  0  0
 13 29  1  0  0  0  0
 14 23  1  0  0  0  0
 14 27  2  0  0  0  0
 15 25  1  0  0  0  0
 15 29  2  0  0  0  0
 16 30  2  0  0  0  0
 16 31  1  0  0  0  0
 17 32  1  0  0  0  0
 18 32  1  0  0  0  0
 18 33  2  0  0  0  0
 18 34  1  0  0  0  0
 19 21  2  0  0  0  0
 19 39  1  0  0  0  0
 20 23  2  0  0  0  0
 20 40  1  0  0  0  0
 21 50  1  0  0  0  0
 22 24  1  0  0  0  0
 22 41  1  0  0  0  0
 23 42  1  0  0  0  0
 24 25  2  0  0  0  0
 24 51  1  0  0  0  0
 25 61  1  0  0  0  0
 26 87  1  0  0  0  0
 27 88  1  0  0  0  0
 28 31  2  0  0  0  0
 28 87  1  0  0  0  0
 29 89  1  0  0  0  0
 30 90  1  0  0  0  0
 31 91  1  0  0  0  0
 32 71  2  0  0  0  0
 33 72  1  0  0  0  0
 33 75  1  0  0  0  0
 34 76  1  0  0  0  0
 34 82  2  0  0  0  0
 35 52  1  0  0  0  0
 35 77  1  0  0  0  0
 35 83  2  0  0  0  0
 36 67  1  0  0  0  0
 36 73  1  0  0  0  0
 36 84  2  0  0  0  0
 37 68  1  0  0  0  0
 37 78  1  0  0  0  0
 37 85  2  0  0  0  0
 38 74  1  0  0  0  0
 38 79  1  0  0  0  0
 38 86  2  0  0  0  0
 39 43  1  0  0  0  0
 40 52  1  0  0  0  0
 41 44  1  0  0  0  0
 42 73  1  0  0  0  0
 43 46  1  0  0  0  0
 44 51  1  0  0  0  0
 45 47  1  0  0  0  0
 45 48  1  0  0  0  0
 46 50  1  0  0  0  0
 47 53  1  0  0  0  0
 48 74  1  0  0  0  0
 49 53  1  0  0  0  0
 49 74  1  0  0  0  0
 50 77  1  0  0  0  0
 51 80  1  0  0  0  0
 52 73  1  0  0  0  0
 53 72  1  0  0  0  0
 54 68  1  0  0  0  0
 55 69  1  0  0  0  0
 56 69  1  0  0  0  0
 57 70  1  0  0  0  0
 58 70  1  0  0  0  0
 59 70  1  0  0  0  0
 60 81  1  0  0  0  0
 61 62  1  0  0  0  0
 62 65  1  0  0  0  0
 63 66  1  0  0  0  0
 63 79  1  0  0  0  0
 64 69  1  0  0  0  0
 64 80  1  0  0  0  0
 65 88  1  0  0  0  0
 66 89  1  0  0  0  0
 67 70  1  0  0  0  0
 67 78  1  0  0  0  0
 68 81  1  0  0  0  0
 71 72  1  0  0  0  0
M  CHG  2  80   1  81   1
M  ISO  4  38 100  65 101  79 100  88 101
M  END
> <Batch ID>
0152

> <Smiles>
CNC(C)C(=O)NC(C(=O)N1Cc2cc([101O:1][101CH2:1]CCc3cc(OCC[100NH:0][100C:0](=O)N4CCCC(n5nc(-c6ccc(Oc7ccc(F)cc7F)cc6)c(C(N)=O)c5N)C4)cc4c3C(NCC(C)C)CC4)ccc2CC1C(=O)NC1CCCc2ccccc21)C(C)(C)C

> <Shape>
0.153

> <Color>
0.174

> <Negative vol penalty>
0.000

$$$$

  -OEChem-04052321463D

 90100  0     1  0  0  0  0  0999 V2000
  -29.9858  -30.8019   27.8900 C   0  0  0  0  0  0  0  0  0  0  0  0
  -30.0199  -29.9639   26.7800 C   0  0  0  0  0  0  0  0  0  0  0  0
  -23.3726   -9.8723   21.5885 C   0  0  0  0  0  0  0  0  0  0  0  0
  -23.9740  -10.9888   23.6449 C   0  0  0  0  0  0  0  0  0  0  0  0
  -28.7628  -31.1502   28.4617 C   0  0  0  0  0  0  0  0  0  0  0  0
  -28.8310  -29.4727   26.2418 C   0  0  0  0  0  0  0  0  0  0  0  0
  -32.3138  -19.9466   22.7798 C   0  0  0  0  0  0  0  0  0  0  0  0
  -27.6321  -28.3973   20.3332 C   0  0  0  0  0  0  0  0  0  0  0  0
  -33.0677  -21.1145   22.8952 C   0  0  0  0  0  0  0  0  0  0  0  0
  -22.7386   -8.8676   22.3194 C   0  0  0  0  0  0  0  0  0  0  0  0
  -23.3400   -9.9841   24.3758 C   0  0  0  0  0  0  0  0  0  0  0  0
  -27.6540  -27.2316   19.5687 C   0  0  0  0  0  0  0  0  0  0  0  0
  -21.2723   -5.8204   23.6566 C   0  0  0  0  0  0  0  0  0  0  0  0
  -21.5051   -4.4975   23.2806 C   0  0  0  0  0  0  0  0  0  0  0  0
  -31.3830  -22.3244   21.6562 C   0  0  0  0  0  0  0  0  0  0  0  0
  -25.2803  -26.9704   19.9101 C   0  0  0  0  0  0  0  0  0  0  0  0
  -23.8663   -4.7947   23.6973 C   0  0  0  0  0  0  0  0  0  0  0  0
  -23.9903  -10.9329   22.2513 C   0  0  0  0  0  0  0  0  0  0  0  0
  -24.0730  -13.1638   21.0168 C   0  0  0  0  0  0  0  0  0  0  0  0
  -27.5578  -30.6708   27.9244 C   0  0  0  0  0  0  0  0  0  0  0  0
  -26.4341  -28.8531   20.9019 C   0  0  0  0  0  0  0  0  0  0  0  0
  -31.0946  -19.9676   22.1025 C   0  0  0  0  0  0  0  0  0  0  0  0
  -27.5908  -29.8138   26.8078 C   0  0  0  0  0  0  0  0  0  0  0  0
  -30.6291  -21.1565   21.5408 C   0  0  0  0  0  0  0  0  0  0  0  0
  -25.2455  -28.1435   20.6793 C   0  0  0  0  0  0  0  0  0  0  0  0
  -32.6023  -22.3034   22.3334 C   0  0  0  0  0  0  0  0  0  0  0  0
  -22.7223   -8.9235   23.7131 C   0  0  0  0  0  0  0  0  0  0  0  0
  -26.4785  -26.5164   19.3595 C   0  0  0  0  0  0  0  0  0  0  0  0
  -22.3365   -6.6305   24.0529 C   0  0  0  0  0  0  0  0  0  0  0  0
  -22.8021   -3.9846   23.3010 C   0  0  0  0  0  0  0  0  0  0  0  0
  -23.6335   -6.1176   24.0732 C   0  0  0  0  0  0  0  0  0  0  0  0
  -24.6458  -11.9708   21.4968 C   0  0  0  0  0  0  0  0  0  0  0  0
  -25.1023  -13.8028   20.3698 C   0  0  0  0  0  0  0  0  0  0  0  0
  -22.7306  -13.6509   21.1444 C   0  0  0  0  0  0  0  0  0  0  0  0
  -25.4021  -29.3399   23.8687 C   0  0  0  0  0  0  0  0  0  0  0  0
  -22.8190  -30.5824   22.3502 C   0  0  0  0  0  0  0  0  0  0  0  0
  -20.8952  -30.7051   19.5340 C   0  0  0  0  0  0  0  0  0  0  0  0
  -30.4306  -15.4383   20.1896 C   0  0  0  0  0  0  0  0  0  0  0  0
  -26.2628  -31.0367   28.6055 C   0  0  0  0  0  0  0  0  0  0  0  0
  -26.4225  -30.1269   21.7018 C   0  0  0  0  0  0  0  0  0  0  0  0
  -23.9295  -28.6016   21.2509 C   0  0  0  0  0  0  0  0  0  0  0  0
  -25.0280  -30.7754   27.7470 C   0  0  0  0  0  0  0  0  0  0  0  0
  -29.6852  -12.1827   19.0372 C   0  0  0  0  0  0  0  0  0  0  0  0
  -25.1052  -29.3926   27.1077 C   0  0  0  0  0  0  0  0  0  0  0  0
  -28.2763  -11.9124   19.5582 C   0  0  0  0  0  0  0  0  0  0  0  0
  -30.4805  -17.6540   23.1123 C   0  0  0  0  0  0  0  0  0  0  0  0
  -28.3601  -22.1750   21.5070 C   0  0  0  0  0  0  0  0  0  0  0  0
  -29.5507  -21.6204   19.3479 C   0  0  0  0  0  0  0  0  0  0  0  0
  -30.4961  -12.9729   20.0554 C   0  0  0  0  0  0  0  0  0  0  0  0
  -29.8934  -16.3850   22.5089 C   0  0  0  0  0  0  0  0  0  0  0  0
  -30.6131  -17.8436   20.7491 C   0  0  0  0  0  0  0  0  0  0  0  0
  -28.4436  -14.0437   20.9447 C   0  0  0  0  0  0  0  0  0  0  0  0
  -27.0509  -22.3082   20.7396 C   0  0  0  0  0  0  0  0  0  0  0  0
  -28.2323  -21.7574   18.5971 C   0  0  0  0  0  0  0  0  0  0  0  0
  -30.2945  -18.6886   21.9906 C   0  0  2  0  0  0  0  0  0  0  0  0
  -29.3269  -21.2030   20.8108 C   0  0  0  0  0  0  0  0  0  0  0  0
  -26.3211  -29.2807   26.1801 C   0  0  1  0  0  0  0  0  0  0  0  0
  -25.2399  -30.2192   22.6611 C   0  0  1  0  0  0  0  0  0  0  0  0
  -27.5855  -13.2255   19.9578 C   0  0  2  0  0  0  0  0  0  0  0  0
  -33.4085  -23.5519   22.4566 C   0  0  0  0  0  0  0  0  0  0  0  0
  -18.8280  -31.7834   18.6059 C   0  0  0  0  0  0  0  0  0  0  0  0
  -21.0912  -28.6921   24.0089 C   0  0  0  0  0  0  0  0  0  0  0  0
  -19.2137  -29.1150   22.4076 C   0  0  0  0  0  0  0  0  0  0  0  0
  -20.1579  -30.9972   23.7449 C   0  0  0  0  0  0  0  0  0  0  0  0
  -22.4163  -32.0223   17.3637 C   0  0  0  0  0  0  0  0  0  0  0  0
  -26.0758  -23.0074   18.5544 C   0  0  0  0  0  0  0  0  0  0  0  0
  -25.5394  -24.3724   18.9381 C   0  0  0  0  0  0  0  0  0  1  0  0
  -21.5101  -30.0293   21.8405 C   0  0  1  0  0  0  0  0  0  0  0  0
  -20.3397  -31.8763   18.7439 C   0  0  2  0  0  0  0  0  0  0  0  0
  -20.5182  -29.6985   22.9912 C   0  0  0  0  0  0  0  0  0  0  0  0
  -25.9387  -11.8562   21.1815 N   0  0  0  0  0  0  0  0  0  0  0  0
  -26.1868  -12.9854   20.4963 N   0  0  0  0  0  0  0  0  0  0  0  0
  -23.9708  -29.8495   22.0311 N   0  0  0  0  0  0  0  0  0  0  0  0
  -29.8170  -14.2082   20.4510 N   0  0  0  0  0  0  0  0  0  0  0  0
  -30.2039  -16.4834   21.0843 N   0  0  0  0  0  0  0  0  0  0  0  0
  -25.1765  -14.9786   19.7105 N   0  0  0  0  0  0  0  0  0  0  0  0
  -21.7993  -12.8684   21.8408 N   0  0  0  0  0  0  0  0  0  0  0  0
  -26.0599  -29.9463   24.9219 N   0  0  0  0  0  0  0  0  0  0  0  0
  -21.0043  -31.0006   20.8764 N   0  0  0  0  0  0  0  0  0  0  0  0
  -27.3411  -22.7376   19.3215 N   0  3  0  0  0  0  0  0  0  0  0  0
  -20.9352  -31.9087   17.3781 N   0  3  0  0  0  0  0  0  0  0  0  0
  -22.3635  -14.7398   20.6414 O   0  0  0  0  0  0  0  0  0  0  0  0
  -24.9618  -28.1966   23.8471 O   0  0  0  0  0  0  0  0  0  0  0  0
  -22.8201  -31.6302   23.0013 O   0  0  0  0  0  0  0  0  0  0  0  0
  -21.1984  -29.6340   19.0131 O   0  0  0  0  0  0  0  0  0  0  0  0
  -31.1847  -15.5870   19.2184 O   0  0  0  0  0  0  0  0  0  0  0  0
  -22.1036   -7.9434   24.4266 O   0  0  0  0  0  0  0  0  0  0  0  0
  -26.4973  -25.3697   18.6089 O   0  0  0  0  0  0  0  0  0  1  0  0
  -23.0253   -2.7138   22.9414 F   0  0  0  0  0  0  0  0  0  0  0  0
  -24.6597   -6.8906   24.4541 F   0  0  0  0  0  0  0  0  0  0  0  0
  1  2  1  0  0  0  0
  1  5  2  0  0  0  0
  2  6  2  0  0  0  0
  3 10  2  0  0  0  0
  3 18  1  0  0  0  0
  4 11  1  0  0  0  0
  4 18  2  0  0  0  0
  5 20  1  0  0  0  0
  6 23  1  0  0  0  0
  7  9  2  0  0  0  0
  7 22  1  0  0  0  0
  8 12  2  0  0  0  0
  8 21  1  0  0  0  0
  9 26  1  0  0  0  0
 10 27  1  0  0  0  0
 11 27  2  0  0  0  0
 12 28  1  0  0  0  0
 13 14  2  0  0  0  0
 13 29  1  0  0  0  0
 14 30  1  0  0  0  0
 15 24  1  0  0  0  0
 15 26  2  0  0  0  0
 16 25  1  0  0  0  0
 16 28  2  0  0  0  0
 17 30  2  0  0  0  0
 17 31  1  0  0  0  0
 18 32  1  0  0  0  0
 19 32  1  0  0  0  0
 19 33  2  0  0  0  0
 19 34  1  0  0  0  0
 20 23  2  0  0  0  0
 20 39  1  0  0  0  0
 21 25  2  0  0  0  0
 21 40  1  0  0  0  0
 22 24  2  0  0  0  0
 22 55  1  0  0  0  0
 23 57  1  0  0  0  0
 24 56  1  0  0  0  0
 25 41  1  0  0  0  0
 26 60  1  0  0  0  0
 27 87  1  0  0  0  0
 28 88  1  0  0  0  0
 29 31  2  0  0  0  0
 29 87  1  0  0  0  0
 30 89  1  0  0  0  0
 31 90  1  0  0  0  0
 32 71  2  0  0  0  0
 33 72  1  0  0  0  0
 33 76  1  0  0  0  0
 34 77  1  0  0  0  0
 34 82  2  0  0  0  0
 35 58  1  0  0  0  0
 35 78  1  0  0  0  0
 35 83  2  0  0  0  0
 36 68  1  0  0  0  0
 36 73  1  0  0  0  0
 36 84  2  0  0  0  0
 37 69  1  0  0  0  0
 37 79  1  0  0  0  0
 37 85  2  0  0  0  0
 38 74  1  0  0  0  0
 38 75  1  0  0  0  0
 38 86  2  0  0  0  0
 39 42  1  0  0  0  0
 40 58  1  0  0  0  0
 41 73  1  0  0  0  0
 42 44  1  0  0  0  0
 43 45  1  0  0  0  0
 43 49  1  0  0  0  0
 44 57  1  0  0  0  0
 45 59  1  0  0  0  0
 46 50  1  0  0  0  0
 46 55  1  0  0  0  0
 47 53  1  0  0  0  0
 47 56  1  0  0  0  0
 48 54  1  0  0  0  0
 48 56  1  0  0  0  0
 49 74  1  0  0  0  0
 50 75  1  0  0  0  0
 51 55  1  0  0  0  0
 51 75  1  0  0  0  0
 52 59  1  0  0  0  0
 52 74  1  0  0  0  0
 53 80  1  0  0  0  0
 54 80  1  0  0  0  0
 57 78  1  0  0  0  0
 58 73  1  0  0  0  0
 59 72  1  0  0  0  0
 61 69  1  0  0  0  0
 62 70  1  0  0  0  0
 63 70  1  0  0  0  0
 64 70  1  0  0  0  0
 65 81  1  0  0  0  0
 66 67  1  0  0  0  0
 66 80  1  0  0  0  0
 67 88  1  0  0  0  0
 68 70  1  0  0  0  0
 68 79  1  0  0  0  0
 69 81  1  0  0  0  0
 71 72  1  0  0  0  0
M  CHG  2  80   1  81   1
M  ISO  4  38 100  67 101  75 100  88 101
M  END
> <Batch ID>
0152

> <Smiles>
CNC(C)C(=O)NC(C(=O)N1Cc2cc([101O:1][101CH2:1]CN3CCC(c4cc(C)ccc4C4CC[100N:0]([100C:0](=O)N5CCCC(n6nc(-c7ccc(Oc8ccc(F)cc8F)cc7)c(C(N)=O)c6N)C5)C4)CC3)ccc2CC1C(=O)NC1CCCc2ccccc21)C(C)(C)C

> <Shape>
0.308

> <Color>
0.144

> <Negative vol penalty>
0.000

$$$$

  -OEChem-04052321463D

 87 96  0     1  0  0  0  0  0999 V2000
  -29.5390  -32.3265   25.9537 C   0  0  0  0  0  0  0  0  0  0  0  0
  -29.1062  -31.0800   25.5129 C   0  0  0  0  0  0  0  0  0  0  0  0
  -24.1633  -10.3973   22.8522 C   0  0  0  0  0  0  0  0  0  0  0  0
  -24.6204  -12.2848   24.2894 C   0  0  0  0  0  0  0  0  0  0  0  0
  -28.6405  -33.3902   26.0246 C   0  0  0  0  0  0  0  0  0  0  0  0
  -27.7742  -30.8962   25.1437 C   0  0  0  0  0  0  0  0  0  0  0  0
  -27.2962  -28.2924   20.8267 C   0  0  0  0  0  0  0  0  0  0  0  0
  -23.7628   -9.6506   23.9602 C   0  0  0  0  0  0  0  0  0  0  0  0
  -24.2198  -11.5381   25.3974 C   0  0  0  0  0  0  0  0  0  0  0  0
  -27.4604  -26.9096   20.8956 C   0  0  0  0  0  0  0  0  0  0  0  0
  -21.0268   -9.3872   25.9295 C   0  0  0  0  0  0  0  0  0  0  0  0
  -19.8543   -8.6400   25.8182 C   0  0  0  0  0  0  0  0  0  0  0  0
  -25.0642  -26.6313   20.8966 C   0  0  0  0  0  0  0  0  0  0  0  0
  -27.4848  -22.0727   22.2416 C   0  0  0  0  0  0  0  0  0  0  0  0
  -28.1367  -22.0134   19.9161 C   0  0  0  0  0  0  0  0  0  0  0  0
  -21.1017   -6.6174   26.2543 C   0  0  0  0  0  0  0  0  0  0  0  0
  -24.5921  -11.7144   23.0168 C   0  0  0  0  0  0  0  0  0  0  0  0
  -24.1974  -13.3016   21.0592 C   0  0  0  0  0  0  0  0  0  0  0  0
  -27.2990  -33.2219   25.6469 C   0  0  0  0  0  0  0  0  0  0  0  0
  -26.0126  -28.8565   20.8031 C   0  0  0  0  0  0  0  0  0  0  0  0
  -26.8565  -31.9583   25.2108 C   0  0  0  0  0  0  0  0  0  0  0  0
  -24.8864  -28.0214   20.8247 C   0  0  0  0  0  0  0  0  0  0  0  0
  -27.8193  -22.7403   21.0635 C   0  0  0  0  0  0  0  0  0  0  0  0
  -27.4677  -20.6783   22.2724 C   0  0  0  0  0  0  0  0  0  0  0  0
  -28.1197  -20.6190   19.9468 C   0  0  0  0  0  0  0  0  0  0  0  0
  -27.7852  -19.9514   21.1250 C   0  0  0  0  0  0  0  0  0  0  0  0
  -23.7910  -10.2210   25.2328 C   0  0  0  0  0  0  0  0  0  0  0  0
  -26.3442  -26.0790   20.9335 C   0  0  0  0  0  0  0  0  0  0  0  0
  -22.2369   -8.7495   26.2032 C   0  0  0  0  0  0  0  0  0  0  0  0
  -19.8917   -7.2551   25.9806 C   0  0  0  0  0  0  0  0  0  0  0  0
  -22.2743   -7.3646   26.3656 C   0  0  0  0  0  0  0  0  0  0  0  0
  -25.0065  -12.4860   21.8727 C   0  0  0  0  0  0  0  0  0  0  0  0
  -25.0590  -13.8105   20.1183 C   0  0  0  0  0  0  0  0  0  0  0  0
  -22.7927  -13.5750   21.1462 C   0  0  0  0  0  0  0  0  0  0  0  0
  -24.3927  -30.8257   22.7009 C   0  0  0  0  0  0  0  0  0  0  0  0
  -22.1998  -30.6952   20.3142 C   0  0  0  0  0  0  0  0  0  0  0  0
  -20.9062  -28.9861   17.6585 C   0  0  0  0  0  0  0  0  0  0  0  0
  -30.9006  -14.6284   20.2862 C   0  0  0  0  0  0  0  0  0  0  0  0
  -26.3538  -34.3890   25.7855 C   0  0  0  0  0  0  0  0  0  0  0  0
  -25.8526  -30.3486   20.7017 C   0  0  0  0  0  0  0  0  0  0  0  0
  -23.4869  -28.5761   20.7812 C   0  0  0  0  0  0  0  0  0  0  0  0
  -25.0456  -34.2076   25.0201 C   0  0  0  0  0  0  0  0  0  0  0  0
  -29.0628  -12.6681   17.8880 C   0  0  0  0  0  0  0  0  0  0  0  0
  -24.4684  -32.8181   25.2713 C   0  0  0  0  0  0  0  0  0  0  0  0
  -27.7050  -12.5017   18.5721 C   0  0  0  0  0  0  0  0  0  0  0  0
  -30.2141  -12.6545   18.8911 C   0  0  0  0  0  0  0  0  0  0  0  0
  -31.1054  -16.7490   21.6502 C   0  0  0  0  0  0  0  0  0  0  0  0
  -29.0659  -16.3694   20.4411 C   0  0  0  0  0  0  0  0  0  0  0  0
  -28.7159  -13.4446   20.6810 C   0  0  0  0  0  0  0  0  0  0  0  0
  -25.4251  -31.7259   24.7781 C   0  0  1  0  0  0  0  0  0  0  0  0
  -24.4976  -30.8397   21.2021 C   0  0  1  0  0  0  0  0  0  0  0  0
  -30.0632  -17.7770   22.0876 C   0  0  2  0  0  0  0  0  0  0  0  0
  -29.1349  -17.8387   20.8641 C   0  0  2  0  0  0  0  0  0  0  0  0
  -27.5286  -13.5230   19.7114 C   0  0  2  0  0  0  0  0  0  0  0  0
  -27.1050  -19.9876   23.5464 C   0  0  0  0  0  0  0  0  0  0  0  0
  -28.4635  -19.8638   18.7045 C   0  0  0  0  0  0  0  0  0  0  0  0
  -30.6791  -19.1160   22.4601 C   0  0  0  0  0  0  0  0  0  0  0  0
  -26.7013  -17.8688   20.2074 C   0  0  0  0  0  0  0  0  0  0  0  0
  -19.0928  -29.1132   15.9286 C   0  0  0  0  0  0  0  0  0  0  0  0
  -20.1383  -29.9063   22.4208 C   0  0  0  0  0  0  0  0  0  0  0  0
  -18.6413  -29.1371   20.5673 C   0  0  0  0  0  0  0  0  0  0  0  0
  -19.3128  -31.5352   20.7121 C   0  0  0  0  0  0  0  0  0  0  0  0
  -22.8640  -28.9943   15.4391 C   0  0  0  0  0  0  0  0  0  0  0  0
  -27.8382  -24.2311   21.0307 C   0  0  0  0  0  0  0  0  0  1  0  0
  -27.7660  -18.4307   21.1587 C   0  0  2  0  0  0  0  0  0  0  0  0
  -21.0180  -29.8116   19.9953 C   0  0  1  0  0  0  0  0  0  0  0  0
  -20.5437  -29.4323   16.2535 C   0  0  2  0  0  0  0  0  0  0  0  0
  -19.8038  -30.0869   20.9267 C   0  0  0  0  0  0  0  0  0  0  0  0
  -26.2840  -12.4742   21.4827 N   0  0  0  0  0  0  0  0  0  0  0  0
  -26.2840  -13.2887   20.4138 N   0  0  0  0  0  0  0  0  0  0  0  0
  -23.3824  -30.0417   20.6885 N   0  0  0  0  0  0  0  0  0  0  0  0
  -29.9847  -13.6201   19.9661 N   0  0  0  0  0  0  0  0  0  0  0  0
  -30.3919  -15.8364   20.7619 N   0  0  0  0  0  0  0  0  0  0  0  0
  -24.8807  -14.6488   19.0753 N   0  0  0  0  0  0  0  0  0  0  0  0
  -22.0567  -12.9698   22.1740 N   0  0  0  0  0  0  0  0  0  0  0  0
  -25.3457  -31.5966   23.3388 N   0  0  0  0  0  0  0  0  0  0  0  0
  -20.7376  -30.0014   18.5762 N   0  0  0  0  0  0  0  0  0  0  0  0
  -21.4108  -28.7482   15.2530 N   0  3  0  0  0  0  0  0  0  0  0  0
  -22.2043  -14.3206   20.3268 O   0  0  0  0  0  0  0  0  0  0  0  0
  -23.5113  -30.1657   23.2387 O   0  0  0  0  0  0  0  0  0  0  0  0
  -22.0801  -31.9199   20.2272 O   0  0  0  0  0  0  0  0  0  0  0  0
  -21.2961  -27.8495   17.9167 O   0  0  0  0  0  0  0  0  0  0  0  0
  -32.1164  -14.4735   20.1107 O   0  0  0  0  0  0  0  0  0  0  0  0
  -23.4000   -9.4928   26.3142 O   0  0  0  0  0  0  0  0  0  0  0  0
  -26.5027  -24.7197   21.0020 O   0  0  0  0  0  0  0  0  0  1  0  0
  -18.7653   -6.5379   25.8752 F   0  0  0  0  0  0  0  0  0  0  0  0
  -23.4336   -6.7465   26.6298 F   0  0  0  0  0  0  0  0  0  0  0  0
  1  2  1  0  0  0  0
  1  5  2  0  0  0  0
  2  6  2  0  0  0  0
  3  8  2  0  0  0  0
  3 17  1  0  0  0  0
  4  9  1  0  0  0  0
  4 17  2  0  0  0  0
  5 19  1  0  0  0  0
  6 21  1  0  0  0  0
  7 10  2  0  0  0  0
  7 20  1  0  0  0  0
  8 27  1  0  0  0  0
  9 27  2  0  0  0  0
 10 28  1  0  0  0  0
 11 12  2  0  0  0  0
 11 29  1  0  0  0  0
 12 30  1  0  0  0  0
 13 22  1  0  0  0  0
 13 28  2  0  0  0  0
 14 23  1  0  0  0  0
 14 24  2  0  0  0  0
 15 23  2  0  0  0  0
 15 25  1  0  0  0  0
 16 30  2  0  0  0  0
 16 31  1  0  0  0  0
 17 32  1  0  0  0  0
 18 32  1  0  0  0  0
 18 33  2  0  0  0  0
 18 34  1  0  0  0  0
 19 21  2  0  0  0  0
 19 39  1  0  0  0  0
 20 22  2  0  0  0  0
 20 40  1  0  0  0  0
 21 50  1  0  0  0  0
 22 41  1  0  0  0  0
 23 64  1  0  0  0  0
 24 26  1  0  0  0  0
 24 55  1  0  0  0  0
 25 26  2  0  0  0  0
 25 56  1  0  0  0  0
 26 65  1  0  0  0  0
 27 84  1  0  0  0  0
 28 85  1  0  0  0  0
 29 31  2  0  0  0  0
 29 84  1  0  0  0  0
 30 86  1  0  0  0  0
 31 87  1  0  0  0  0
 32 69  2  0  0  0  0
 33 70  1  0  0  0  0
 33 74  1  0  0  0  0
 34 75  1  0  0  0  0
 34 79  2  0  0  0  0
 35 51  1  0  0  0  0
 35 76  1  0  0  0  0
 35 80  2  0  0  0  0
 36 66  1  0  0  0  0
 36 71  1  0  0  0  0
 36 81  2  0  0  0  0
 37 67  1  0  0  0  0
 37 77  1  0  0  0  0
 37 82  2  0  0  0  0
 38 72  1  0  0  0  0
 38 73  1  0  0  0  0
 38 83  2  0  0  0  0
 39 42  1  0  0  0  0
 40 51  1  0  0  0  0
 41 71  1  0  0  0  0
 42 44  1  0  0  0  0
 43 45  1  0  0  0  0
 43 46  1  0  0  0  0
 44 50  1  0  0  0  0
 45 54  1  0  0  0  0
 46 72  1  0  0  0  0
 47 52  1  0  0  0  0
 47 73  1  0  0  0  0
 48 53  1  0  0  0  0
 48 73  1  0  0  0  0
 49 54  1  0  0  0  0
 49 72  1  0  0  0  0
 50 76  1  0  0  0  0
 51 71  1  0  0  0  0
 52 53  1  0  0  0  0
 52 57  1  0  0  0  0
 53 65  1  0  0  0  0
 54 70  1  0  0  0  0
 58 65  1  0  0  0  0
 59 67  1  0  0  0  0
 60 68  1  0  0  0  0
 61 68  1  0  0  0  0
 62 68  1  0  0  0  0
 63 78  1  0  0  0  0
 64 85  1  0  0  0  0
 66 68  1  0  0  0  0
 66 77  1  0  0  0  0
 67 78  1  0  0  0  0
 69 70  1  0  0  0  0
M  CHG  1  78   1
M  ISO  4  38 100  64 101  73 100  85 101
M  END
> <Batch ID>
0152

> <Smiles>
CNC(C)C(=O)NC(C(=O)N1Cc2cc([101O:1][101CH2:1]c3cc(C)c(C(C)C4C[100N:0]([100C:0](=O)N5CCCC(n6nc(-c7ccc(Oc8ccc(F)cc8F)cc7)c(C(N)=O)c6N)C5)CC4C)c(C)c3)ccc2CC1C(=O)NC1CCCc2ccccc21)C(C)(C)C

> <Shape>
0.301

> <Color>
0.115

> <Negative vol penalty>
0.000

$$$$

  -OEChem-04052321463D

 84 93  0     1  0  0  0  0  0999 V2000
  -26.5140  -38.5909   20.3015 C   0  0  0  0  0  0  0  0  0  0  0  0
  -27.1196  -37.4992   19.6875 C   0  0  0  0  0  0  0  0  0  0  0  0
  -26.0699   -9.3495   21.2644 C   0  0  0  0  0  0  0  0  0  0  0  0
  -24.5109   -9.9030   23.0252 C   0  0  0  0  0  0  0  0  0  0  0  0
  -25.8840  -38.4344   21.5354 C   0  0  0  0  0  0  0  0  0  0  0  0
  -27.0965  -36.2506   20.3078 C   0  0  0  0  0  0  0  0  0  0  0  0
  -26.8336  -29.2584   18.7727 C   0  0  0  0  0  0  0  0  0  0  0  0
  -25.9108   -7.9935   21.5498 C   0  0  0  0  0  0  0  0  0  0  0  0
  -24.3518   -8.5469   23.3106 C   0  0  0  0  0  0  0  0  0  0  0  0
  -27.5039  -28.0683   19.0524 C   0  0  0  0  0  0  0  0  0  0  0  0
  -22.6620   -5.9153   22.0301 C   0  0  0  0  0  0  0  0  0  0  0  0
  -21.3641   -5.4440   22.2274 C   0  0  0  0  0  0  0  0  0  0  0  0
  -26.3176  -27.8994   21.1461 C   0  0  0  0  0  0  0  0  0  0  0  0
  -30.7880  -24.3273   20.1808 C   0  0  0  0  0  0  0  0  0  0  0  0
  -21.9585   -4.7422   24.4615 C   0  0  0  0  0  0  0  0  0  0  0  0
  -28.6148  -23.3613   20.2059 C   0  0  0  0  0  0  0  0  0  0  0  0
  -25.3700  -10.3043   22.0021 C   0  0  0  0  0  0  0  0  0  0  0  0
  -24.7838  -12.4773   20.8013 C   0  0  0  0  0  0  0  0  0  0  0  0
  -25.8449  -37.1812   22.1666 C   0  0  0  0  0  0  0  0  0  0  0  0
  -25.9068  -29.7845   19.6841 C   0  0  0  0  0  0  0  0  0  0  0  0
  -26.4666  -36.0775   21.5520 C   0  0  0  0  0  0  0  0  0  0  0  0
  -25.6350  -29.0950   20.8744 C   0  0  0  0  0  0  0  0  0  0  0  0
  -29.4190  -24.4671   19.9818 C   0  0  0  0  0  0  0  0  0  0  0  0
  -31.3036  -23.1032   20.5922 C   0  0  0  0  0  0  0  0  0  0  0  0
  -25.0518   -7.5922   22.5728 C   0  0  0  0  0  0  0  0  0  0  0  0
  -27.2481  -27.3901   20.2406 C   0  0  0  0  0  0  0  0  0  0  0  0
  -23.6082   -5.7999   23.0485 C   0  0  0  0  0  0  0  0  0  0  0  0
  -21.0123   -4.8575   23.4430 C   0  0  0  0  0  0  0  0  0  0  0  0
  -23.2564   -5.2134   24.2642 C   0  0  0  0  0  0  0  0  0  0  0  0
  -25.5343  -11.7053   21.7082 C   0  0  0  0  0  0  0  0  0  0  0  0
  -30.4150  -22.0586   20.7893 C   0  0  0  0  0  0  0  0  0  0  0  0
  -25.3280  -13.7353   20.8889 C   0  0  0  0  0  0  0  0  0  0  0  0
  -23.6922  -12.0918   19.9554 C   0  0  0  0  0  0  0  0  0  0  0  0
  -25.6997  -32.4672   21.3763 C   0  0  0  0  0  0  0  0  0  0  0  0
  -22.7772  -31.2926   22.1517 C   0  0  0  0  0  0  0  0  0  0  0  0
  -20.7436  -28.5724   22.4864 C   0  0  0  0  0  0  0  0  0  0  0  0
  -30.1060  -16.6958   20.9020 C   0  0  0  0  0  0  0  0  0  0  0  0
  -25.1932  -37.0711   23.5223 C   0  0  0  0  0  0  0  0  0  0  0  0
  -25.1725  -31.0553   19.3553 C   0  0  0  0  0  0  0  0  0  0  0  0
  -24.6342  -29.6070   21.8767 C   0  0  0  0  0  0  0  0  0  0  0  0
  -24.8881  -35.6339   23.9366 C   0  0  0  0  0  0  0  0  0  0  0  0
  -28.6086  -15.6995   24.1848 C   0  0  0  0  0  0  0  0  0  0  0  0
  -26.0927  -34.7356   23.6746 C   0  0  0  0  0  0  0  0  0  0  0  0
  -27.6645  -14.5815   23.7457 C   0  0  0  0  0  0  0  0  0  0  0  0
  -29.8995  -19.9734   22.1332 C   0  0  0  0  0  0  0  0  0  0  0  0
  -31.3276  -19.8126   20.0491 C   0  0  0  0  0  0  0  0  0  0  0  0
  -29.8052  -15.8133   23.2476 C   0  0  0  0  0  0  0  0  0  0  0  0
  -30.4014  -18.5903   22.5570 C   0  0  0  0  0  0  0  0  0  0  0  0
  -31.8142  -18.4497   20.5336 C   0  0  0  0  0  0  0  0  0  0  0  0
  -28.4881  -14.8893   21.3672 C   0  0  0  0  0  0  0  0  0  0  0  0
  -26.4413  -34.7016   22.1816 C   0  0  1  0  0  0  0  0  0  0  0  0
  -30.9198  -20.7004   21.2388 C   0  0  0  0  0  0  0  0  0  0  0  0
  -24.6278  -31.7672   20.5898 C   0  0  1  0  0  0  0  0  0  0  0  0
  -27.2536  -14.7558   22.2738 C   0  0  1  0  0  0  0  0  0  0  0  0
  -32.7696  -22.9461   20.8056 C   0  0  0  0  0  0  0  0  0  0  0  0
  -18.4194  -27.9233   23.1750 C   0  0  0  0  0  0  0  0  0  0  0  0
  -23.5454  -31.6595   25.0817 C   0  0  0  0  0  0  0  0  0  0  0  0
  -21.6429  -30.1528   25.6969 C   0  0  0  0  0  0  0  0  0  0  0  0
  -21.1949  -32.3115   24.5300 C   0  0  0  0  0  0  0  0  0  0  0  0
  -20.1341  -27.4679   19.8092 C   0  0  0  0  0  0  0  0  0  0  0  0
  -28.8360  -25.7630   19.5429 C   0  0  0  0  0  0  0  0  0  1  0  0
  -22.2388  -30.4011   23.2446 C   0  0  1  0  0  0  0  0  0  0  0  0
  -19.3240  -28.3121   22.0160 C   0  0  2  0  0  0  0  0  0  0  0  0
  -22.1758  -31.1223   24.6205 C   0  0  0  0  0  0  0  0  0  0  0  0
  -29.0791  -22.1564   20.6060 N   0  0  0  0  0  0  0  0  0  0  0  0
  -26.4831  -12.4135   22.3263 N   0  0  0  0  0  0  0  0  0  0  0  0
  -26.3325  -13.6438   21.8069 N   0  0  0  0  0  0  0  0  0  0  0  0
  -23.9467  -30.8569   21.5127 N   0  0  0  0  0  0  0  0  0  0  0  0
  -29.3871  -15.9420   21.8449 N   0  0  0  0  0  0  0  0  0  0  0  0
  -30.8140  -17.8065   21.3852 N   0  0  0  0  0  0  0  0  0  0  0  0
  -25.0406  -14.8998   20.2693 N   0  0  0  0  0  0  0  0  0  0  0  0
  -23.2588  -10.7594   19.9895 N   0  0  0  0  0  0  0  0  0  0  0  0
  -25.5271  -33.8351   21.4689 N   0  0  0  0  0  0  0  0  0  0  0  0
  -20.9512  -29.9057   22.7701 N   0  0  0  0  0  0  0  0  0  0  0  0
  -19.3044  -27.2091   21.0140 N   0  3  0  0  0  0  0  0  0  0  0  0
  -23.1288  -12.9010   19.1799 O   0  0  0  0  0  0  0  0  0  0  0  0
  -26.6148  -31.8145   21.8644 O   0  0  0  0  0  0  0  0  0  0  0  0
  -22.1780  -32.3335   21.8703 O   0  0  0  0  0  0  0  0  0  0  0  0
  -21.5832  -27.6815   22.5953 O   0  0  0  0  0  0  0  0  0  0  0  0
  -30.1109  -16.3957   19.7017 O   0  0  0  0  0  0  0  0  0  0  0  0
  -24.8962   -6.2690   22.8514 O   0  0  0  0  0  0  0  0  0  0  0  0
  -27.9056  -26.2212   20.5182 O   0  0  0  0  0  0  0  0  0  1  0  0
  -19.7655   -4.4063   23.6329 F   0  0  0  0  0  0  0  0  0  0  0  0
  -24.1608   -5.1009   25.2467 F   0  0  0  0  0  0  0  0  0  0  0  0
  1  2  1  0  0  0  0
  1  5  2  0  0  0  0
  2  6  2  0  0  0  0
  3  8  2  0  0  0  0
  3 17  1  0  0  0  0
  4  9  1  0  0  0  0
  4 17  2  0  0  0  0
  5 19  1  0  0  0  0
  6 21  1  0  0  0  0
  7 10  2  0  0  0  0
  7 20  1  0  0  0  0
  8 25  1  0  0  0  0
  9 25  2  0  0  0  0
 10 26  1  0  0  0  0
 11 12  2  0  0  0  0
 11 27  1  0  0  0  0
 12 28  1  0  0  0  0
 13 22  1  0  0  0  0
 13 26  2  0  0  0  0
 14 23  2  0  0  0  0
 14 24  1  0  0  0  0
 15 28  2  0  0  0  0
 15 29  1  0  0  0  0
 16 23  1  0  0  0  0
 16 65  2  0  0  0  0
 17 30  1  0  0  0  0
 18 30  1  0  0  0  0
 18 32  2  0  0  0  0
 18 33  1  0  0  0  0
 19 21  2  0  0  0  0
 19 38  1  0  0  0  0
 20 22  2  0  0  0  0
 20 39  1  0  0  0  0
 21 51  1  0  0  0  0
 22 40  1  0  0  0  0
 23 61  1  0  0  0  0
 24 31  2  0  0  0  0
 24 55  1  0  0  0  0
 25 81  1  0  0  0  0
 26 82  1  0  0  0  0
 27 29  2  0  0  0  0
 27 81  1  0  0  0  0
 28 83  1  0  0  0  0
 29 84  1  0  0  0  0
 30 66  2  0  0  0  0
 31 52  1  0  0  0  0
 31 65  1  0  0  0  0
 32 67  1  0  0  0  0
 32 71  1  0  0  0  0
 33 72  1  0  0  0  0
 33 76  2  0  0  0  0
 34 53  1  0  0  0  0
 34 73  1  0  0  0  0
 34 77  2  0  0  0  0
 35 62  1  0  0  0  0
 35 68  1  0  0  0  0
 35 78  2  0  0  0  0
 36 63  1  0  0  0  0
 36 74  1  0  0  0  0
 36 79  2  0  0  0  0
 37 69  1  0  0  0  0
 37 70  1  0  0  0  0
 37 80  2  0  0  0  0
 38 41  1  0  0  0  0
 39 53  1  0  0  0  0
 40 68  1  0  0  0  0
 41 43  1  0  0  0  0
 42 44  1  0  0  0  0
 42 47  1  0  0  0  0
 43 51  1  0  0  0  0
 44 54  1  0  0  0  0
 45 48  1  0  0  0  0
 45 52  1  0  0  0  0
 46 49  1  0  0  0  0
 46 52  1  0  0  0  0
 47 69  1  0  0  0  0
 48 70  1  0  0  0  0
 49 70  1  0  0  0  0
 50 54  1  0  0  0  0
 50 69  1  0  0  0  0
 51 73  1  0  0  0  0
 53 68  1  0  0  0  0
 54 67  1  0  0  0  0
 56 63  1  0  0  0  0
 57 64  1  0  0  0  0
 58 64  1  0  0  0  0
 59 64  1  0  0  0  0
 60 75  1  0  0  0  0
 61 82  1  0  0  0  0
 62 64  1  0  0  0  0
 62 74  1  0  0  0  0
 63 75  1  0  0  0  0
 66 67  1  0  0  0  0
M  CHG  1  75   1
M  ISO  4  37 100  61 101  70 100  82 101
M  END
> <Batch ID>
0152

> <Smiles>
CNC(C)C(=O)NC(C(=O)N1Cc2cc([101O:1][101CH2:1]c3cnc(C4CC[100N:0]([100C:0](=O)N5CCCC(n6nc(-c7ccc(Oc8ccc(F)cc8F)cc7)c(C(N)=O)c6N)C5)CC4)c(C)c3)ccc2CC1C(=O)NC1CCCc2ccccc21)C(C)(C)C

> <Shape>
0.294

> <Color>
0.104

> <Negative vol penalty>
0.000

$$$$

  -OEChem-04052321463D

 86 95  0     1  0  0  0  0  0999 V2000
  -21.9985   -7.4436   24.3790 C   0  0  0  0  0  0  0  0  0  0  0  0
  -23.0366   -8.2912   24.7522 C   0  0  0  0  0  0  0  0  0  0  0  0
  -26.7246  -29.3506   20.1911 C   0  0  0  0  0  0  0  0  0  0  0  0
  -25.8848  -27.1633   20.7804 C   0  0  0  0  0  0  0  0  0  0  0  0
  -21.6422   -7.3290   23.0359 C   0  0  0  0  0  0  0  0  0  0  0  0
  -23.7197   -9.0241   23.7823 C   0  0  0  0  0  0  0  0  0  0  0  0
  -23.9606  -16.2184   24.0564 C   0  0  0  0  0  0  0  0  0  0  0  0
  -25.4279  -29.8620   20.2407 C   0  0  0  0  0  0  0  0  0  0  0  0
  -24.5880  -27.6747   20.8301 C   0  0  0  0  0  0  0  0  0  0  0  0
  -24.2301  -17.5835   24.1561 C   0  0  0  0  0  0  0  0  0  0  0  0
  -22.7014  -29.4713   22.9827 C   0  0  0  0  0  0  0  0  0  0  0  0
  -21.9032  -29.1052   24.0663 C   0  0  0  0  0  0  0  0  0  0  0  0
  -25.4486  -17.5062   22.0686 C   0  0  0  0  0  0  0  0  0  0  0  0
  -29.4716  -18.5487   21.8787 C   0  0  0  0  0  0  0  0  0  0  0  0
  -20.3020  -28.1148   22.5522 C   0  0  0  0  0  0  0  0  0  0  0  0
  -30.6810  -18.9694   19.4691 C   0  0  0  0  0  0  0  0  0  0  0  0
  -26.9531  -28.0013   20.4609 C   0  0  0  0  0  0  0  0  0  0  0  0
  -29.3965  -27.8765   21.1835 C   0  0  0  0  0  0  0  0  0  0  0  0
  -22.3149   -8.0681   22.0502 C   0  0  0  0  0  0  0  0  0  0  0  0
  -24.4215  -15.4943   22.9534 C   0  0  0  0  0  0  0  0  0  0  0  0
  -23.3729   -8.9183   22.4246 C   0  0  0  0  0  0  0  0  0  0  0  0
  -25.1710  -16.1412   21.9571 C   0  0  0  0  0  0  0  0  0  0  0  0
  -29.4321  -19.8159   21.3077 C   0  0  0  0  0  0  0  0  0  0  0  0
  -30.0459  -20.0386   20.0801 C   0  0  0  0  0  0  0  0  0  0  0  0
  -24.3595  -29.0240   20.5602 C   0  0  0  0  0  0  0  0  0  0  0  0
  -24.9725  -18.2257   23.1647 C   0  0  0  0  0  0  0  0  0  0  0  0
  -22.3000  -29.1592   21.6837 C   0  0  0  0  0  0  0  0  0  0  0  0
  -20.7034  -28.4270   23.8511 C   0  0  0  0  0  0  0  0  0  0  0  0
  -21.1003  -28.4810   21.4685 C   0  0  0  0  0  0  0  0  0  0  0  0
  -28.2924  -27.4724   20.4092 C   0  0  0  0  0  0  0  0  0  0  0  0
  -30.1322  -17.5462   21.1871 C   0  0  0  0  0  0  0  0  0  0  0  0
  -30.4263  -27.0733   20.7585 C   0  0  0  0  0  0  0  0  0  0  0  0
  -29.4833  -28.8875   22.1964 C   0  0  0  0  0  0  0  0  0  0  0  0
  -24.6012  -12.1815   21.2015 C   0  0  0  0  0  0  0  0  0  0  0  0
  -24.1503  -14.3098   19.0388 C   0  0  0  0  0  0  0  0  0  0  0  0
  -23.2579  -16.0432   16.2396 C   0  0  0  0  0  0  0  0  0  0  0  0
  -30.6071  -21.6598   18.2354 C   0  0  0  0  0  0  0  0  0  0  0  0
  -21.9252   -7.8754   20.6060 C   0  0  0  0  0  0  0  0  0  0  0  0
  -24.2074  -14.0097   22.8354 C   0  0  0  0  0  0  0  0  0  0  0  0
  -25.6760  -15.3150   20.8059 C   0  0  0  0  0  0  0  0  0  0  0  0
  -22.4519   -8.9702   19.6817 C   0  0  0  0  0  0  0  0  0  0  0  0
  -31.9602  -24.6739   16.9082 C   0  0  0  0  0  0  0  0  0  0  0  0
  -23.9241   -9.2484   19.9684 C   0  0  0  0  0  0  0  0  0  0  0  0
  -29.6108  -21.6653   23.0286 C   0  0  0  0  0  0  0  0  0  0  0  0
  -31.2782  -25.7701   17.7300 C   0  0  0  0  0  0  0  0  0  0  0  0
  -28.6075  -22.1504   24.0463 C   0  0  0  0  0  0  0  0  0  0  0  0
  -31.0157  -23.5072   16.6245 C   0  0  0  0  0  0  0  0  0  0  0  0
  -29.6846  -24.0279   18.6311 C   0  0  0  0  0  0  0  0  0  0  0  0
  -24.1215   -9.7485   21.4045 C   0  0  1  0  0  0  0  0  0  0  0  0
  -28.7196  -20.9256   22.0374 C   0  0  2  0  0  0  0  0  0  0  0  0
  -23.9987  -13.5436   21.3833 C   0  0  1  0  0  0  0  0  0  0  0  0
  -30.6161  -25.1949   18.9973 C   0  0  2  0  0  0  0  0  0  0  0  0
  -27.6541  -20.9707   24.1173 C   0  0  1  0  0  0  0  0  0  0  0  0
  -30.1948  -16.1739   21.7702 C   0  0  0  0  0  0  0  0  0  0  0  0
  -23.4486  -15.9784   13.7382 C   0  0  0  0  0  0  0  0  0  0  0  0
  -26.3177  -21.9981   25.9610 C   0  0  0  0  0  0  0  0  0  0  0  0
  -27.0559  -15.2158   19.2406 C   0  0  0  0  0  0  0  0  0  0  0  0
  -26.8918  -16.0303   16.8788 C   0  0  0  0  0  0  0  0  0  0  0  0
  -26.5912  -13.6060   17.3839 C   0  0  0  0  0  0  0  0  0  0  0  0
  -20.3202  -15.9195   15.9029 C   0  0  0  0  0  0  0  0  0  0  0  0
  -25.3330  -20.1282   24.6037 C   0  0  0  0  0  0  0  0  0  1  0  0
  -24.7750  -15.2414   18.0312 C   0  0  1  0  0  0  0  0  0  0  0  0
  -22.6040  -15.5974   14.9441 C   0  0  2  0  0  0  0  0  0  0  0  0
  -26.2604  -21.3462   24.5811 C   0  0  2  0  0  0  0  0  0  0  0  0
  -26.3105  -15.0328   17.9035 C   0  0  0  0  0  0  0  0  0  0  0  0
  -30.7402  -17.7245   19.9929 N   0  0  0  0  0  0  0  0  0  0  0  0
  -28.5927  -26.4889   19.5568 N   0  0  0  0  0  0  0  0  0  0  0  0
  -29.8973  -26.2685   19.7928 N   0  0  0  0  0  0  0  0  0  0  0  0
  -24.6260  -14.3891   20.3534 N   0  0  0  0  0  0  0  0  0  0  0  0
  -30.4293  -23.0113   17.8715 N   0  0  0  0  0  0  0  0  0  0  0  0
  -31.7239  -26.9841   21.1202 N   0  0  0  0  0  0  0  0  0  0  0  0
  -29.2276  -28.5250   23.5259 N   0  0  0  0  0  0  0  0  0  0  0  0
  -30.0326  -21.3112   19.4572 N   0  0  0  0  0  0  0  0  0  0  0  0
  -23.7450  -11.1418   21.5107 N   0  0  0  0  0  0  0  0  0  0  0  0
  -24.0401  -15.0477   16.7858 N   0  0  0  0  0  0  0  0  0  0  0  0
  -21.2624  -16.2293   14.7969 N   0  3  0  0  0  0  0  0  0  0  0  0
  -29.7628  -30.0807   21.9283 O   0  0  0  0  0  0  0  0  0  0  0  0
  -25.7573  -12.0797   20.8082 O   0  0  0  0  0  0  0  0  0  0  0  0
  -23.2685  -13.5281   18.6720 O   0  0  0  0  0  0  0  0  0  0  0  0
  -23.0944  -17.1639   16.7170 O   0  0  0  0  0  0  0  0  0  0  0  0
  -31.2470  -20.8764   17.5291 O   0  0  0  0  0  0  0  0  0  0  0  0
  -27.5944  -20.4255   22.7883 O   0  0  0  0  0  0  0  0  0  0  0  0
  -23.0940  -29.5227   20.6090 O   0  0  0  0  0  0  0  0  0  0  0  0
  -25.2281  -19.5596   23.2660 O   0  0  0  0  0  0  0  0  0  1  0  0
  -19.9377  -28.0741   24.8919 F   0  0  0  0  0  0  0  0  0  0  0  0
  -20.7099  -28.1774   20.2230 F   0  0  0  0  0  0  0  0  0  0  0  0
  1  2  1  0  0  0  0
  1  5  2  0  0  0  0
  2  6  2  0  0  0  0
  3  8  2  0  0  0  0
  3 17  1  0  0  0  0
  4  9  1  0  0  0  0
  4 17  2  0  0  0  0
  5 19  1  0  0  0  0
  6 21  1  0  0  0  0
  7 10  2  0  0  0  0
  7 20  1  0  0  0  0
  8 25  1  0  0  0  0
  9 25  2  0  0  0  0
 10 26  1  0  0  0  0
 11 12  2  0  0  0  0
 11 27  1  0  0  0  0
 12 28  1  0  0  0  0
 13 22  1  0  0  0  0
 13 26  2  0  0  0  0
 14 23  1  0  0  0  0
 14 31  2  0  0  0  0
 15 28  2  0  0  0  0
 15 29  1  0  0  0  0
 16 24  1  0  0  0  0
 16 66  2  0  0  0  0
 17 30  1  0  0  0  0
 18 30  1  0  0  0  0
 18 32  2  0  0  0  0
 18 33  1  0  0  0  0
 19 21  2  0  0  0  0
 19 38  1  0  0  0  0
 20 22  2  0  0  0  0
 20 39  1  0  0  0  0
 21 49  1  0  0  0  0
 22 40  1  0  0  0  0
 23 24  2  0  0  0  0
 23 50  1  0  0  0  0
 24 73  1  0  0  0  0
 25 83  1  0  0  0  0
 26 84  1  0  0  0  0
 27 29  2  0  0  0  0
 27 83  1  0  0  0  0
 28 85  1  0  0  0  0
 29 86  1  0  0  0  0
 30 67  2  0  0  0  0
 31 54  1  0  0  0  0
 31 66  1  0  0  0  0
 32 68  1  0  0  0  0
 32 71  1  0  0  0  0
 33 72  1  0  0  0  0
 33 77  2  0  0  0  0
 34 51  1  0  0  0  0
 34 74  1  0  0  0  0
 34 78  2  0  0  0  0
 35 62  1  0  0  0  0
 35 69  1  0  0  0  0
 35 79  2  0  0  0  0
 36 63  1  0  0  0  0
 36 75  1  0  0  0  0
 36 80  2  0  0  0  0
 37 70  1  0  0  0  0
 37 73  1  0  0  0  0
 37 81  2  0  0  0  0
 38 41  1  0  0  0  0
 39 51  1  0  0  0  0
 40 69  1  0  0  0  0
 41 43  1  0  0  0  0
 42 45  1  0  0  0  0
 42 47  1  0  0  0  0
 43 49  1  0  0  0  0
 44 46  1  0  0  0  0
 44 50  1  0  0  0  0
 45 52  1  0  0  0  0
 46 53  1  0  0  0  0
 47 70  1  0  0  0  0
 48 52  1  0  0  0  0
 48 70  1  0  0  0  0
 49 74  1  0  0  0  0
 50 82  1  0  0  0  0
 51 69  1  0  0  0  0
 52 68  1  0  0  0  0
 53 64  1  0  0  0  0
 53 82  1  0  0  0  0
 55 63  1  0  0  0  0
 56 64  1  0  0  0  0
 57 65  1  0  0  0  0
 58 65  1  0  0  0  0
 59 65  1  0  0  0  0
 60 76  1  0  0  0  0
 61 64  1  0  0  0  0
 61 84  1  0  0  0  0
 62 65  1  0  0  0  0
 62 75  1  0  0  0  0
 63 76  1  0  0  0  0
 67 68  1  0  0  0  0
M  CHG  1  76   1
M  ISO  4  37 100  61 101  73 100  84 101
M  END
> <Batch ID>
0152

> <Smiles>
CNC(C)C(=O)NC(C(=O)N1Cc2cc([101O:1][101CH2:1]C(C)C3CCC(c4cc(C)ncc4[100NH:0][100C:0](=O)N4CCCC(n5nc(-c6ccc(Oc7ccc(F)cc7F)cc6)c(C(N)=O)c5N)C4)O3)ccc2CC1C(=O)NC1CCCc2ccccc21)C(C)(C)C

> <Shape>
0.266

> <Color>
0.072

> <Negative vol penalty>
0.000

$$$$

  -OEChem-04052321463D

 86 95  0     1  0  0  0  0  0999 V2000
  -32.4919  -14.0307   19.7269 C   0  0  0  0  0  0  0  0  0  0  0  0
  -31.7503  -15.2045   19.6400 C   0  0  0  0  0  0  0  0  0  0  0  0
  -27.9654  -27.1829   18.2313 C   0  0  0  0  0  0  0  0  0  0  0  0
  -26.5726  -25.8266   19.6658 C   0  0  0  0  0  0  0  0  0  0  0  0
  -31.8411  -12.7993   19.7906 C   0  0  0  0  0  0  0  0  0  0  0  0
  -30.3572  -15.1475   19.6157 C   0  0  0  0  0  0  0  0  0  0  0  0
  -26.4639  -19.1892   22.0678 C   0  0  0  0  0  0  0  0  0  0  0  0
  -29.0569  -26.3622   18.5152 C   0  0  0  0  0  0  0  0  0  0  0  0
  -27.6641  -25.0059   19.9496 C   0  0  0  0  0  0  0  0  0  0  0  0
  -25.7425  -20.2485   21.5190 C   0  0  0  0  0  0  0  0  0  0  0  0
  -29.9981  -22.3413   20.7686 C   0  0  0  0  0  0  0  0  0  0  0  0
  -29.7974  -20.9613   20.7405 C   0  0  0  0  0  0  0  0  0  0  0  0
  -23.8193  -18.8108   21.2874 C   0  0  0  0  0  0  0  0  0  0  0  0
  -22.2391  -24.3041   18.0284 C   0  0  0  0  0  0  0  0  0  0  0  0
  -22.9182  -24.3313   20.7341 C   0  0  0  0  0  0  0  0  0  0  0  0
  -29.1421  -21.1037   18.4195 C   0  0  0  0  0  0  0  0  0  0  0  0
  -26.7232  -26.9151   18.8067 C   0  0  0  0  0  0  0  0  0  0  0  0
  -24.6660  -27.6104   17.4680 C   0  0  0  0  0  0  0  0  0  0  0  0
  -30.4392  -12.7278   19.7768 C   0  0  0  0  0  0  0  0  0  0  0  0
  -25.8709  -17.9277   22.2207 C   0  0  0  0  0  0  0  0  0  0  0  0
  -29.6870  -13.9139   19.6779 C   0  0  0  0  0  0  0  0  0  0  0  0
  -24.5345  -17.7378   21.8408 C   0  0  0  0  0  0  0  0  0  0  0  0
  -23.1137  -23.3442   18.5376 C   0  0  0  0  0  0  0  0  0  0  0  0
  -21.7040  -25.2776   18.8720 C   0  0  0  0  0  0  0  0  0  0  0  0
  -23.4533  -23.3578   19.8904 C   0  0  0  0  0  0  0  0  0  0  0  0
  -22.0436  -25.2911   20.2249 C   0  0  0  0  0  0  0  0  0  0  0  0
  -28.9063  -25.2737   19.3743 C   0  0  0  0  0  0  0  0  0  0  0  0
  -24.4209  -20.0587   21.1261 C   0  0  0  0  0  0  0  0  0  0  0  0
  -29.7707  -23.1026   19.6221 C   0  0  0  0  0  0  0  0  0  0  0  0
  -29.3695  -20.3424   19.5660 C   0  0  0  0  0  0  0  0  0  0  0  0
  -29.3428  -22.4838   18.4475 C   0  0  0  0  0  0  0  0  0  0  0  0
  -25.5954  -27.7629   18.5143 C   0  0  0  0  0  0  0  0  0  0  0  0
  -23.7984  -28.6639   17.6232 C   0  0  0  0  0  0  0  0  0  0  0  0
  -24.5933  -26.6063   16.4472 C   0  0  0  0  0  0  0  0  0  0  0  0
  -26.4469  -15.0232   21.0649 C   0  0  0  0  0  0  0  0  0  0  0  0
  -24.0929  -14.1619   23.1238 C   0  0  0  0  0  0  0  0  0  0  0  0
  -21.3376  -15.0734   24.9195 C   0  0  0  0  0  0  0  0  0  0  0  0
  -22.6093  -29.0804   22.5402 C   0  0  0  0  0  0  0  0  0  0  0  0
  -29.7813  -11.3709   19.8000 C   0  0  0  0  0  0  0  0  0  0  0  0
  -26.6542  -16.8023   22.8391 C   0  0  0  0  0  0  0  0  0  0  0  0
  -23.8453  -16.4085   22.0026 C   0  0  0  0  0  0  0  0  0  0  0  0
  -28.2954  -11.4202   20.1467 C   0  0  0  0  0  0  0  0  0  0  0  0
  -25.1918  -31.1843   21.2472 C   0  0  0  0  0  0  0  0  0  0  0  0
  -19.0071  -28.8849   22.9080 C   0  0  0  0  0  0  0  0  0  0  0  0
  -27.5961  -12.5130   19.3444 C   0  0  0  0  0  0  0  0  0  0  0  0
  -24.7219  -31.5644   19.8474 C   0  0  0  0  0  0  0  0  0  0  0  0
  -19.3382  -27.4031   23.0162 C   0  0  0  0  0  0  0  0  0  0  0  0
  -24.0107  -31.0841   22.2001 C   0  0  0  0  0  0  0  0  0  0  0  0
  -20.1364  -29.4151   22.0383 C   0  0  0  0  0  0  0  0  0  0  0  0
  -22.5117  -30.3739   20.3468 C   0  0  0  0  0  0  0  0  0  0  0  0
  -28.1739  -13.8947   19.6739 C   0  0  1  0  0  0  0  0  0  0  0  0
  -26.1109  -15.4245   22.4733 C   0  0  1  0  0  0  0  0  0  0  0  0
  -23.6354  -30.6174   19.3131 C   0  0  2  0  0  0  0  0  0  0  0  0
  -20.8661  -27.3906   23.1146 C   0  0  1  0  0  0  0  0  0  0  0  0
  -23.6745  -22.3120   17.6151 C   0  0  0  0  0  0  0  0  0  0  0  0
  -20.7717  -26.2952   18.2995 C   0  0  0  0  0  0  0  0  0  0  0  0
  -19.6058  -14.1423   26.4787 C   0  0  0  0  0  0  0  0  0  0  0  0
  -22.6883  -12.8308   20.7648 C   0  0  0  0  0  0  0  0  0  0  0  0
  -20.5950  -12.7674   22.1367 C   0  0  0  0  0  0  0  0  0  0  0  0
  -22.6189  -11.5213   22.8943 C   0  0  0  0  0  0  0  0  0  0  0  0
  -22.1488  -16.9034   27.0995 C   0  0  0  0  0  0  0  0  0  0  0  0
  -24.3883  -22.3408   20.4576 C   0  0  0  0  0  0  0  0  0  1  0  0
  -21.4655  -26.1313   22.5021 C   0  0  0  0  0  0  0  0  0  0  0  0
  -22.5901  -14.0451   23.0411 C   0  0  1  0  0  0  0  0  0  0  0  0
  -20.9556  -14.8342   26.3691 C   0  0  2  0  0  0  0  0  0  0  0  0
  -22.1364  -12.8158   22.2042 C   0  0  0  0  0  0  0  0  0  0  0  0
  -25.3422  -28.8293   19.2776 N   0  0  0  0  0  0  0  0  0  0  0  0
  -24.2438  -29.3565   18.7104 N   0  0  0  0  0  0  0  0  0  0  0  0
  -24.6552  -15.3375   22.6064 N   0  0  0  0  0  0  0  0  0  0  0  0
  -22.9953  -30.1484   21.7166 N   0  0  0  0  0  0  0  0  0  0  0  0
  -21.2979  -28.6134   22.4267 N   0  0  0  0  0  0  0  0  0  0  0  0
  -22.7058  -29.0561   16.9342 N   0  0  0  0  0  0  0  0  0  0  0  0
  -25.5644  -25.5958   16.4335 N   0  0  0  0  0  0  0  0  0  0  0  0
  -21.5182  -26.2586   21.0833 N   0  0  0  0  0  0  0  0  0  0  0  0
  -27.6579  -14.3695   20.9399 N   0  0  0  0  0  0  0  0  0  0  0  0
  -22.1044  -14.0436   24.4168 N   0  0  0  0  0  0  0  0  0  0  0  0
  -20.8818  -16.1277   27.1056 N   0  3  0  0  0  0  0  0  0  0  0  0
  -23.7033  -26.6144   15.5632 O   0  0  0  0  0  0  0  0  0  0  0  0
  -25.6647  -15.2858   20.1589 O   0  0  0  0  0  0  0  0  0  0  0  0
  -24.7433  -13.2471   23.6354 O   0  0  0  0  0  0  0  0  0  0  0  0
  -20.9875  -16.0721   24.2945 O   0  0  0  0  0  0  0  0  0  0  0  0
  -23.3981  -28.5728   23.3484 O   0  0  0  0  0  0  0  0  0  0  0  0
  -29.9712  -24.4725   19.6513 O   0  0  0  0  0  0  0  0  0  0  0  0
  -23.7097  -21.0981   20.5857 O   0  0  0  0  0  0  0  0  0  1  0  0
  -29.1783  -19.0170   19.5388 F   0  0  0  0  0  0  0  0  0  0  0  0
  -29.1238  -23.2097   17.3426 F   0  0  0  0  0  0  0  0  0  0  0  0
  1  2  1  0  0  0  0
  1  5  2  0  0  0  0
  2  6  2  0  0  0  0
  3  8  2  0  0  0  0
  3 17  1  0  0  0  0
  4  9  1  0  0  0  0
  4 17  2  0  0  0  0
  5 19  1  0  0  0  0
  6 21  1  0  0  0  0
  7 10  2  0  0  0  0
  7 20  1  0  0  0  0
  8 27  1  0  0  0  0
  9 27  2  0  0  0  0
 10 28  1  0  0  0  0
 11 12  2  0  0  0  0
 11 29  1  0  0  0  0
 12 30  1  0  0  0  0
 13 22  1  0  0  0  0
 13 28  2  0  0  0  0
 14 23  1  0  0  0  0
 14 24  2  0  0  0  0
 15 25  1  0  0  0  0
 15 26  2  0  0  0  0
 16 30  2  0  0  0  0
 16 31  1  0  0  0  0
 17 32  1  0  0  0  0
 18 32  1  0  0  0  0
 18 33  2  0  0  0  0
 18 34  1  0  0  0  0
 19 21  2  0  0  0  0
 19 39  1  0  0  0  0
 20 22  2  0  0  0  0
 20 40  1  0  0  0  0
 21 51  1  0  0  0  0
 22 41  1  0  0  0  0
 23 25  2  0  0  0  0
 23 55  1  0  0  0  0
 24 26  1  0  0  0  0
 24 56  1  0  0  0  0
 25 62  1  0  0  0  0
 26 74  1  0  0  0  0
 27 83  1  0  0  0  0
 28 84  1  0  0  0  0
 29 31  2  0  0  0  0
 29 83  1  0  0  0  0
 30 85  1  0  0  0  0
 31 86  1  0  0  0  0
 32 67  2  0  0  0  0
 33 68  1  0  0  0  0
 33 72  1  0  0  0  0
 34 73  1  0  0  0  0
 34 78  2  0  0  0  0
 35 52  1  0  0  0  0
 35 75  1  0  0  0  0
 35 79  2  0  0  0  0
 36 64  1  0  0  0  0
 36 69  1  0  0  0  0
 36 80  2  0  0  0  0
 37 65  1  0  0  0  0
 37 76  1  0  0  0  0
 37 81  2  0  0  0  0
 38 70  1  0  0  0  0
 38 71  1  0  0  0  0
 38 82  2  0  0  0  0
 39 42  1  0  0  0  0
 40 52  1  0  0  0  0
 41 69  1  0  0  0  0
 42 45  1  0  0  0  0
 43 46  1  0  0  0  0
 43 48  1  0  0  0  0
 44 47  1  0  0  0  0
 44 49  1  0  0  0  0
 45 51  1  0  0  0  0
 46 53  1  0  0  0  0
 47 54  1  0  0  0  0
 48 70  1  0  0  0  0
 49 71  1  0  0  0  0
 50 53  1  0  0  0  0
 50 70  1  0  0  0  0
 51 75  1  0  0  0  0
 52 69  1  0  0  0  0
 53 68  1  0  0  0  0
 54 63  1  0  0  0  0
 54 71  1  0  0  0  0
 57 65  1  0  0  0  0
 58 66  1  0  0  0  0
 59 66  1  0  0  0  0
 60 66  1  0  0  0  0
 61 77  1  0  0  0  0
 62 84  1  0  0  0  0
 63 74  1  0  0  0  0
 64 66  1  0  0  0  0
 64 76  1  0  0  0  0
 65 77  1  0  0  0  0
 67 68  1  0  0  0  0
M  CHG  1  77   1
M  ISO  4  38 100  62 101  71 100  84 101
M  END
> <Batch ID>
0152

> <Smiles>
CNC(C)C(=O)NC(C(=O)N1Cc2cc([101O:1][101CH2:1]c3cc(NCC4CCC[100N:0]4[100C:0](=O)N4CCCC(n5nc(-c6ccc(Oc7ccc(F)cc7F)cc6)c(C(N)=O)c5N)C4)c(C)cc3C)ccc2CC1C(=O)NC1CCCc2ccccc21)C(C)(C)C

> <Shape>
0.240

> <Color>
0.071

> <Negative vol penalty>
0.000

$$$$

  -OEChem-04052321463D

 87 97  0     1  0  0  0  0  0999 V2000
  -29.1475  -37.4764   21.0923 C   0  0  0  0  0  0  0  0  0  0  0  0
  -29.4359  -36.1612   20.7422 C   0  0  0  0  0  0  0  0  0  0  0  0
  -24.5948  -10.1360   23.1165 C   0  0  0  0  0  0  0  0  0  0  0  0
  -24.5631   -8.5877   21.2622 C   0  0  0  0  0  0  0  0  0  0  0  0
  -28.2242  -37.7410   22.1029 C   0  0  0  0  0  0  0  0  0  0  0  0
  -28.8019  -35.1098   21.4032 C   0  0  0  0  0  0  0  0  0  0  0  0
  -27.1083  -29.7375   19.0001 C   0  0  0  0  0  0  0  0  0  0  0  0
  -29.4421  -22.3833   18.3796 C   0  0  0  0  0  0  0  0  0  0  0  0
  -23.4452   -9.5396   23.6343 C   0  0  0  0  0  0  0  0  0  0  0  0
  -23.4134   -7.9912   21.7799 C   0  0  0  0  0  0  0  0  0  0  0  0
  -27.7016  -28.4759   19.0118 C   0  0  0  0  0  0  0  0  0  0  0  0
  -22.6367   -5.7832   24.2176 C   0  0  0  0  0  0  0  0  0  0  0  0
  -22.5875   -4.3895   24.2444 C   0  0  0  0  0  0  0  0  0  0  0  0
  -28.9666  -23.6801   18.2195 C   0  0  0  0  0  0  0  0  0  0  0  0
  -26.3330  -27.8565   20.8993 C   0  0  0  0  0  0  0  0  0  0  0  0
  -20.6288   -4.4316   22.8305 C   0  0  0  0  0  0  0  0  0  0  0  0
  -25.1538   -9.6601   21.9304 C   0  0  0  0  0  0  0  0  0  0  0  0
  -27.6771   -9.9247   21.6652 C   0  0  0  0  0  0  0  0  0  0  0  0
  -27.5713  -36.6925   22.7701 C   0  0  0  0  0  0  0  0  0  0  0  0
  -26.1290  -30.0723   19.9463 C   0  0  0  0  0  0  0  0  0  0  0  0
  -27.8699  -35.3607   22.4246 C   0  0  0  0  0  0  0  0  0  0  0  0
  -25.7270  -29.1221   20.8958 C   0  0  0  0  0  0  0  0  0  0  0  0
  -30.3034  -22.0894   19.4307 C   0  0  0  0  0  0  0  0  0  0  0  0
  -22.8544   -8.4672   22.9660 C   0  0  0  0  0  0  0  0  0  0  0  0
  -27.3161  -27.5362   19.9634 C   0  0  0  0  0  0  0  0  0  0  0  0
  -21.6820   -6.5011   23.4973 C   0  0  0  0  0  0  0  0  0  0  0  0
  -21.5835   -3.7137   23.5508 C   0  0  0  0  0  0  0  0  0  0  0  0
  -20.6780   -5.8253   22.8038 C   0  0  0  0  0  0  0  0  0  0  0  0
  -26.3411  -10.2762   21.3948 C   0  0  0  0  0  0  0  0  0  0  0  0
  -30.6563  -23.1196   20.2874 C   0  0  0  0  0  0  0  0  0  0  0  0
  -29.3791  -24.6390   19.1306 C   0  0  0  0  0  0  0  0  0  0  0  0
  -28.4216  -10.8038   20.9173 C   0  0  0  0  0  0  0  0  0  0  0  0
  -28.1986   -8.8954   22.5163 C   0  0  0  0  0  0  0  0  0  0  0  0
  -25.8888  -32.2464   22.2527 C   0  0  0  0  0  0  0  0  0  0  0  0
  -22.8638  -31.0985   22.4846 C   0  0  0  0  0  0  0  0  0  0  0  0
  -20.6971  -28.5148   21.9586 C   0  0  0  0  0  0  0  0  0  0  0  0
  -29.5879  -15.7022   19.0596 C   0  0  0  0  0  0  0  0  0  0  0  0
  -26.6160  -37.0270   23.8882 C   0  0  0  0  0  0  0  0  0  0  0  0
  -25.4795  -31.4283   19.9034 C   0  0  0  0  0  0  0  0  0  0  0  0
  -24.6656  -29.4250   21.9206 C   0  0  0  0  0  0  0  0  0  0  0  0
  -25.7094  -35.8640   24.2831 C   0  0  0  0  0  0  0  0  0  0  0  0
  -27.0505  -14.0412   17.2898 C   0  0  0  0  0  0  0  0  0  0  0  0
  -26.5206  -34.5804   24.4287 C   0  0  0  0  0  0  0  0  0  0  0  0
  -31.0072  -22.3384   22.7247 C   0  0  0  0  0  0  0  0  0  0  0  0
  -31.5154  -23.7439   22.6434 C   0  0  0  0  0  0  0  0  0  0  0  0
  -26.7410  -12.8741   18.2270 C   0  0  0  0  0  0  0  0  0  0  0  0
  -29.0417  -19.1792   19.0828 C   0  0  0  0  0  0  0  0  0  0  0  0
  -31.4844  -18.5937   18.8412 C   0  0  0  0  0  0  0  0  0  0  0  0
  -27.2885  -15.3438   18.0559 C   0  0  0  0  0  0  0  0  0  0  0  0
  -28.6803  -17.9332   18.2688 C   0  0  0  0  0  0  0  0  0  0  0  0
  -31.0774  -17.3795   18.0111 C   0  0  0  0  0  0  0  0  0  0  0  0
  -28.0091  -14.0712   20.0508 C   0  0  0  0  0  0  0  0  0  0  0  0
  -27.1843  -34.1937   23.1015 C   0  0  1  0  0  0  0  0  0  0  0  0
  -31.5802  -22.8534   21.4329 C   0  0  0  0  0  0  0  0  0  0  0  0
  -24.8605  -31.8368   21.2366 C   0  0  1  0  0  0  0  0  0  0  0  0
  -27.8227  -12.7362   19.3132 C   0  0  1  0  0  0  0  0  0  0  0  0
  -30.4345  -19.7016   18.7229 C   0  0  0  0  0  0  0  0  0  0  0  0
  -18.2971  -27.8588   22.2858 C   0  0  0  0  0  0  0  0  0  0  0  0
  -23.3908  -30.6626   25.4581 C   0  0  0  0  0  0  0  0  0  0  0  0
  -21.3811  -29.1709   25.5244 C   0  0  0  0  0  0  0  0  0  0  0  0
  -21.1260  -31.5785   24.9234 C   0  0  0  0  0  0  0  0  0  0  0  0
  -20.2754  -28.1648   19.0502 C   0  0  0  0  0  0  0  0  0  0  0  0
  -28.8884  -26.0412   18.9893 C   0  0  0  0  0  0  0  0  0  1  0  0
  -22.1963  -29.9947   23.2688 C   0  0  1  0  0  0  0  0  0  0  0  0
  -19.3138  -28.4713   21.3350 C   0  0  2  0  0  0  0  0  0  0  0  0
  -22.0450  -30.3463   24.7757 C   0  0  0  0  0  0  0  0  0  0  0  0
  -26.2395  -11.2990   20.5419 N   0  0  0  0  0  0  0  0  0  0  0  0
  -30.2148  -24.3914   20.1640 N   0  0  0  0  0  0  0  0  0  0  0  0
  -27.5213  -11.5978   20.2699 N   0  0  0  0  0  0  0  0  0  0  0  0
  -24.0648  -30.7668   21.8417 N   0  0  0  0  0  0  0  0  0  0  0  0
  -28.2980  -15.1526   19.1065 N   0  0  0  0  0  0  0  0  0  0  0  0
  -29.7375  -16.9174   18.3748 N   0  0  0  0  0  0  0  0  0  0  0  0
  -29.7520  -10.9674   20.7569 N   0  0  0  0  0  0  0  0  0  0  0  0
  -27.2941   -8.0818   23.2121 N   0  0  0  0  0  0  0  0  0  0  0  0
  -30.7806  -20.8013   19.5962 N   0  0  0  0  0  0  0  0  0  0  0  0
  -26.2179  -33.5878   22.2108 N   0  0  0  0  0  0  0  0  0  0  0  0
  -20.9350  -29.7171   22.5904 N   0  0  0  0  0  0  0  0  0  0  0  0
  -19.3348  -27.6615   20.0840 N   0  3  0  0  0  0  0  0  0  0  0  0
  -29.4304   -8.7135   22.6683 O   0  0  0  0  0  0  0  0  0  0  0  0
  -26.3485  -31.4078   23.0189 O   0  0  0  0  0  0  0  0  0  0  0  0
  -22.3351  -32.2121   22.4380 O   0  0  0  0  0  0  0  0  0  0  0  0
  -21.4863  -27.5747   21.8951 O   0  0  0  0  0  0  0  0  0  0  0  0
  -30.5499  -15.1403   19.5980 O   0  0  0  0  0  0  0  0  0  0  0  0
  -21.7327   -7.8848   23.4711 O   0  0  0  0  0  0  0  0  0  0  0  0
  -27.8982  -26.2957   19.9776 O   0  0  0  0  0  0  0  0  0  1  0  0
  -21.5372   -2.3752   23.5754 F   0  0  0  0  0  0  0  0  0  0  0  0
  -19.7587   -6.5095   22.1091 F   0  0  0  0  0  0  0  0  0  0  0  0
  1  2  1  0  0  0  0
  1  5  2  0  0  0  0
  2  6  2  0  0  0  0
  3  9  2  0  0  0  0
  3 17  1  0  0  0  0
  4 10  1  0  0  0  0
  4 17  2  0  0  0  0
  5 19  1  0  0  0  0
  6 21  1  0  0  0  0
  7 11  2  0  0  0  0
  7 20  1  0  0  0  0
  8 14  2  0  0  0  0
  8 23  1  0  0  0  0
  9 24  1  0  0  0  0
 10 24  2  0  0  0  0
 11 25  1  0  0  0  0
 12 13  2  0  0  0  0
 12 26  1  0  0  0  0
 13 27  1  0  0  0  0
 14 31  1  0  0  0  0
 15 22  1  0  0  0  0
 15 25  2  0  0  0  0
 16 27  2  0  0  0  0
 16 28  1  0  0  0  0
 17 29  1  0  0  0  0
 18 29  1  0  0  0  0
 18 32  2  0  0  0  0
 18 33  1  0  0  0  0
 19 21  2  0  0  0  0
 19 38  1  0  0  0  0
 20 22  2  0  0  0  0
 20 39  1  0  0  0  0
 21 53  1  0  0  0  0
 22 40  1  0  0  0  0
 23 30  2  0  0  0  0
 23 75  1  0  0  0  0
 24 84  1  0  0  0  0
 25 85  1  0  0  0  0
 26 28  2  0  0  0  0
 26 84  1  0  0  0  0
 27 86  1  0  0  0  0
 28 87  1  0  0  0  0
 29 67  2  0  0  0  0
 30 54  1  0  0  0  0
 30 68  1  0  0  0  0
 31 63  1  0  0  0  0
 31 68  2  0  0  0  0
 32 69  1  0  0  0  0
 32 73  1  0  0  0  0
 33 74  1  0  0  0  0
 33 79  2  0  0  0  0
 34 55  1  0  0  0  0
 34 76  1  0  0  0  0
 34 80  2  0  0  0  0
 35 64  1  0  0  0  0
 35 70  1  0  0  0  0
 35 81  2  0  0  0  0
 36 65  1  0  0  0  0
 36 77  1  0  0  0  0
 36 82  2  0  0  0  0
 37 71  1  0  0  0  0
 37 72  1  0  0  0  0
 37 83  2  0  0  0  0
 38 41  1  0  0  0  0
 39 55  1  0  0  0  0
 40 70  1  0  0  0  0
 41 43  1  0  0  0  0
 42 46  1  0  0  0  0
 42 49  1  0  0  0  0
 43 53  1  0  0  0  0
 44 45  1  0  0  0  0
 44 54  1  0  0  0  0
 45 54  1  0  0  0  0
 46 56  1  0  0  0  0
 47 50  1  0  0  0  0
 47 57  1  0  0  0  0
 48 51  1  0  0  0  0
 48 57  1  0  0  0  0
 49 71  1  0  0  0  0
 50 72  1  0  0  0  0
 51 72  1  0  0  0  0
 52 56  1  0  0  0  0
 52 71  1  0  0  0  0
 53 76  1  0  0  0  0
 55 70  1  0  0  0  0
 56 69  1  0  0  0  0
 57 75  1  0  0  0  0
 58 65  1  0  0  0  0
 59 66  1  0  0  0  0
 60 66  1  0  0  0  0
 61 66  1  0  0  0  0
 62 78  1  0  0  0  0
 63 85  1  0  0  0  0
 64 66  1  0  0  0  0
 64 77  1  0  0  0  0
 65 78  1  0  0  0  0
 67 69  1  0  0  0  0
M  CHG  1  78   1
M  ISO  4  37 100  63 101  72 100  85 101
M  END
> <Batch ID>
0152

> <Smiles>
CNC(C)C(=O)NC(C(=O)N1Cc2cc([101O:1][101CH2:1]c3ccc(NC4CC[100N:0]([100C:0](=O)N5CCCC(n6nc(-c7ccc(Oc8ccc(F)cc8F)cc7)c(C(N)=O)c6N)C5)CC4)c(C4CC4)n3)ccc2CC1C(=O)NC1CCCc2ccccc21)C(C)(C)C

> <Shape>
0.301

> <Color>
0.093

> <Negative vol penalty>
0.000

$$$$

  -OEChem-04052321463D

 89 99  0     1  0  0  0  0  0999 V2000
  -32.6677  -27.1257   24.1647 C   0  0  0  0  0  0  0  0  0  0  0  0
  -32.0361  -26.7126   22.9960 C   0  0  0  0  0  0  0  0  0  0  0  0
  -23.5378  -10.2348   21.7176 C   0  0  0  0  0  0  0  0  0  0  0  0
  -24.9888   -8.3485   22.1342 C   0  0  0  0  0  0  0  0  0  0  0  0
  -31.9301  -27.2775   25.3381 C   0  0  0  0  0  0  0  0  0  0  0  0
  -30.6666  -26.4500   23.0003 C   0  0  0  0  0  0  0  0  0  0  0  0
  -28.2935  -28.4439   18.9956 C   0  0  0  0  0  0  0  0  0  0  0  0
  -22.4570   -9.3679   21.5568 C   0  0  0  0  0  0  0  0  0  0  0  0
  -23.9080   -7.4815   21.9734 C   0  0  0  0  0  0  0  0  0  0  0  0
  -28.4123  -27.7665   17.7828 C   0  0  0  0  0  0  0  0  0  0  0  0
  -21.4592   -4.7948   22.0289 C   0  0  0  0  0  0  0  0  0  0  0  0
  -21.3089   -3.7652   22.9578 C   0  0  0  0  0  0  0  0  0  0  0  0
  -28.2516  -22.9233   18.5981 C   0  0  0  0  0  0  0  0  0  0  0  0
  -29.3138  -21.7257   16.7887 C   0  0  0  0  0  0  0  0  0  0  0  0
  -26.2328  -26.7896   18.1220 C   0  0  0  0  0  0  0  0  0  0  0  0
  -21.1181   -5.3938   24.7321 C   0  0  0  0  0  0  0  0  0  0  0  0
  -24.8038   -9.7251   22.0063 C   0  0  0  0  0  0  0  0  0  0  0  0
  -26.3587  -11.2207   23.3675 C   0  0  0  0  0  0  0  0  0  0  0  0
  -30.5492  -27.0259   25.3545 C   0  0  0  0  0  0  0  0  0  0  0  0
  -27.1463  -28.2905   19.7872 C   0  0  0  0  0  0  0  0  0  0  0  0
  -29.9101  -26.5973   24.1754 C   0  0  0  0  0  0  0  0  0  0  0  0
  -28.7739  -22.9036   17.3049 C   0  0  0  0  0  0  0  0  0  0  0  0
  -26.1009  -27.4682   19.3432 C   0  0  0  0  0  0  0  0  0  0  0  0
  -28.8092  -20.5871   18.8590 C   0  0  0  0  0  0  0  0  0  0  0  0
  -28.2693  -21.7651   19.3752 C   0  0  0  0  0  0  0  0  0  0  0  0
  -29.3315  -20.5674   17.5657 C   0  0  0  0  0  0  0  0  0  0  0  0
  -22.6421   -7.9913   21.6847 C   0  0  0  0  0  0  0  0  0  0  0  0
  -27.3831  -26.9369   17.3472 C   0  0  0  0  0  0  0  0  0  0  0  0
  -21.4390   -6.1240   22.4516 C   0  0  0  0  0  0  0  0  0  0  0  0
  -21.1383   -4.0647   24.3094 C   0  0  0  0  0  0  0  0  0  0  0  0
  -21.2684   -6.4235   23.8032 C   0  0  0  0  0  0  0  0  0  0  0  0
  -25.9207  -10.6200   22.1720 C   0  0  0  0  0  0  0  0  0  0  0  0
  -27.4456  -11.9735   22.9954 C   0  0  0  0  0  0  0  0  0  0  0  0
  -25.8304  -11.1081   24.6956 C   0  0  0  0  0  0  0  0  0  0  0  0
  -26.5689  -27.1784   22.7085 C   0  0  0  0  0  0  0  0  0  0  0  0
  -23.5678  -28.2489   22.1004 C   0  0  0  0  0  0  0  0  0  0  0  0
  -21.1991  -29.0727   19.7858 C   0  0  0  0  0  0  0  0  0  0  0  0
  -30.0510  -15.4128   19.6184 C   0  0  0  0  0  0  0  0  0  0  0  0
  -29.8026  -27.1583   26.6582 C   0  0  0  0  0  0  0  0  0  0  0  0
  -27.0222  -29.0490   21.0801 C   0  0  0  0  0  0  0  0  0  0  0  0
  -24.8399  -27.2854   20.1462 C   0  0  0  0  0  0  0  0  0  0  0  0
  -28.2868  -27.2211   26.4885 C   0  0  0  0  0  0  0  0  0  0  0  0
  -30.0610  -12.0871   18.6759 C   0  0  0  0  0  0  0  0  0  0  0  0
  -27.8118  -26.1355   25.5280 C   0  0  0  0  0  0  0  0  0  0  0  0
  -29.0227  -11.4456   19.5961 C   0  0  0  0  0  0  0  0  0  0  0  0
  -27.9876  -18.1999   19.0777 C   0  0  0  0  0  0  0  0  0  0  0  0
  -30.2617  -18.8427   19.9859 C   0  0  0  0  0  0  0  0  0  0  0  0
  -28.1126  -24.1006   15.1127 C   0  0  0  0  0  0  0  0  0  0  0  0
  -29.5861  -13.4492   18.1834 C   0  0  0  0  0  0  0  0  0  0  0  0
  -28.0374  -16.9213   19.9191 C   0  0  0  0  0  0  0  0  0  0  0  0
  -30.2463  -17.5668   20.8228 C   0  0  0  0  0  0  0  0  0  0  0  0
  -28.2075  -13.7754   20.2110 C   0  0  0  0  0  0  0  0  0  0  0  0
  -28.7556  -24.1412   16.4750 C   0  0  1  0  0  0  0  0  0  0  0  0
  -28.8280  -19.3273   19.7040 C   0  0  0  0  0  0  0  0  0  0  0  0
  -28.4218  -26.3267   24.1341 C   0  0  1  0  0  0  0  0  0  0  0  0
  -26.0293  -28.4169   22.0508 C   0  0  1  0  0  0  0  0  0  0  0  0
  -28.6405  -12.3950   20.7454 C   0  0  1  0  0  0  0  0  0  0  0  0
  -27.4399  -24.8385   16.2295 C   0  0  1  0  0  0  0  0  0  1  0  0
  -27.7035  -21.8128   20.7567 C   0  0  0  0  0  0  0  0  0  0  0  0
  -31.4104  -19.4718   16.6538 C   0  0  0  0  0  0  0  0  0  0  0  0
  -29.1468  -18.8298   15.7489 C   0  0  0  0  0  0  0  0  0  0  0  0
  -18.8307  -29.8791   19.5921 C   0  0  0  0  0  0  0  0  0  0  0  0
  -22.5618  -25.4596   22.8197 C   0  0  0  0  0  0  0  0  0  0  0  0
  -20.3891  -26.0347   21.7167 C   0  0  0  0  0  0  0  0  0  0  0  0
  -21.1603  -27.3336   23.7018 C   0  0  0  0  0  0  0  0  0  0  0  0
  -22.0302  -31.5318   18.3641 C   0  0  0  0  0  0  0  0  0  0  0  0
  -29.9157  -19.3191   16.9897 C   0  0  0  0  0  0  0  0  0  0  0  0
  -22.3258  -27.6548   21.4813 C   0  0  1  0  0  0  0  0  0  0  0  0
  -20.2948  -30.2852   19.6576 C   0  0  2  0  0  0  0  0  0  0  0  0
  -21.6337  -26.6224   22.4154 C   0  0  0  0  0  0  0  0  0  0  0  0
  -26.6683  -10.9619   21.1192 N   0  0  0  0  0  0  0  0  0  0  0  0
  -27.5868  -11.7856   21.6520 N   0  0  0  0  0  0  0  0  0  0  0  0
  -24.7686  -28.0434   21.4063 N   0  0  0  0  0  0  0  0  0  0  0  0
  -29.2296  -14.3198   19.3035 N   0  0  0  0  0  0  0  0  0  0  0  0
  -29.4282  -16.5323   20.1905 N   0  0  0  0  0  0  0  0  0  0  0  0
  -28.2846  -12.7713   23.6896 N   0  0  0  0  0  0  0  0  0  0  0  0
  -24.7095  -10.2924   24.9019 N   0  0  0  0  0  0  0  0  0  0  0  0
  -27.7344  -27.3827   23.4222 N   0  0  0  0  0  0  0  0  0  0  0  0
  -21.4788  -28.7812   21.1042 N   0  0  0  0  0  0  0  0  0  0  0  0
  -20.6260  -31.0502   18.4223 N   0  3  0  0  0  0  0  0  0  0  0  0
  -26.3272  -11.7260   25.6677 O   0  0  0  0  0  0  0  0  0  0  0  0
  -25.9713  -26.1164   22.5793 O   0  0  0  0  0  0  0  0  0  0  0  0
  -23.4750  -28.8785   23.1571 O   0  0  0  0  0  0  0  0  0  0  0  0
  -21.6128  -28.4445   18.8138 O   0  0  0  0  0  0  0  0  0  0  0  0
  -31.2691  -15.3902   19.4021 O   0  0  0  0  0  0  0  0  0  0  0  0
  -21.5876   -7.1450   21.5280 O   0  0  0  0  0  0  0  0  0  0  0  0
  -27.4969  -26.2727   16.1617 O   0  0  0  0  0  0  0  0  0  1  0  0
  -20.9925   -3.0759   25.2011 F   0  0  0  0  0  0  0  0  0  0  0  0
  -21.2469   -7.6985   24.2151 F   0  0  0  0  0  0  0  0  0  0  0  0
  1  2  1  0  0  0  0
  1  5  2  0  0  0  0
  2  6  2  0  0  0  0
  3  8  2  0  0  0  0
  3 17  1  0  0  0  0
  4  9  1  0  0  0  0
  4 17  2  0  0  0  0
  5 19  1  0  0  0  0
  6 21  1  0  0  0  0
  7 10  2  0  0  0  0
  7 20  1  0  0  0  0
  8 27  1  0  0  0  0
  9 27  2  0  0  0  0
 10 28  1  0  0  0  0
 11 12  2  0  0  0  0
 11 29  1  0  0  0  0
 12 30  1  0  0  0  0
 13 22  1  0  0  0  0
 13 25  2  0  0  0  0
 14 22  2  0  0  0  0
 14 26  1  0  0  0  0
 15 23  1  0  0  0  0
 15 28  2  0  0  0  0
 16 30  2  0  0  0  0
 16 31  1  0  0  0  0
 17 32  1  0  0  0  0
 18 32  1  0  0  0  0
 18 33  2  0  0  0  0
 18 34  1  0  0  0  0
 19 21  2  0  0  0  0
 19 39  1  0  0  0  0
 20 23  2  0  0  0  0
 20 40  1  0  0  0  0
 21 55  1  0  0  0  0
 22 53  1  0  0  0  0
 23 41  1  0  0  0  0
 24 25  1  0  0  0  0
 24 26  2  0  0  0  0
 24 54  1  0  0  0  0
 25 59  1  0  0  0  0
 26 67  1  0  0  0  0
 27 86  1  0  0  0  0
 28 87  1  0  0  0  0
 29 31  2  0  0  0  0
 29 86  1  0  0  0  0
 30 88  1  0  0  0  0
 31 89  1  0  0  0  0
 32 71  2  0  0  0  0
 33 72  1  0  0  0  0
 33 76  1  0  0  0  0
 34 77  1  0  0  0  0
 34 81  2  0  0  0  0
 35 56  1  0  0  0  0
 35 78  1  0  0  0  0
 35 82  2  0  0  0  0
 36 68  1  0  0  0  0
 36 73  1  0  0  0  0
 36 83  2  0  0  0  0
 37 69  1  0  0  0  0
 37 79  1  0  0  0  0
 37 84  2  0  0  0  0
 38 74  1  0  0  0  0
 38 75  1  0  0  0  0
 38 85  2  0  0  0  0
 39 42  1  0  0  0  0
 40 56  1  0  0  0  0
 41 73  1  0  0  0  0
 42 44  1  0  0  0  0
 43 45  1  0  0  0  0
 43 49  1  0  0  0  0
 44 55  1  0  0  0  0
 45 57  1  0  0  0  0
 46 50  1  0  0  0  0
 46 54  1  0  0  0  0
 47 51  1  0  0  0  0
 47 54  1  0  0  0  0
 48 53  1  0  0  0  0
 48 58  1  0  0  0  0
 49 74  1  0  0  0  0
 50 75  1  0  0  0  0
 51 75  1  0  0  0  0
 52 57  1  0  0  0  0
 52 74  1  0  0  0  0
 53 58  1  0  0  0  0
 55 78  1  0  0  0  0
 56 73  1  0  0  0  0
 57 72  1  0  0  0  0
 58 87  1  0  0  0  0
 60 67  1  0  0  0  0
 61 67  1  0  0  0  0
 62 69  1  0  0  0  0
 63 70  1  0  0  0  0
 64 70  1  0  0  0  0
 65 70  1  0  0  0  0
 66 80  1  0  0  0  0
 68 70  1  0  0  0  0
 68 79  1  0  0  0  0
 69 80  1  0  0  0  0
 71 72  1  0  0  0  0
M  CHG  1  80   1
M  ISO  4  38 100  58 101  75 100  87 101
M  END
> <Batch ID>
0152

> <Smiles>
CNC(C)C(=O)NC(C(=O)N1Cc2cc([101O:1][101CH:1]3CC3c3cc(C)c(C4CC[100N:0]([100C:0](=O)N5CCCC(n6nc(-c7ccc(Oc8ccc(F)cc8F)cc7)c(C(N)=O)c6N)C5)CC4)c(C(C)C)c3)ccc2CC1C(=O)NC1CCCc2ccccc21)C(C)(C)C

> <Shape>
0.245

> <Color>
0.113

> <Negative vol penalty>
0.000

$$$$

  -OEChem-04052321463D

 84 93  0     1  0  0  0  0  0999 V2000
  -41.5456  -25.5407   28.1274 C   0  0  0  0  0  0  0  0  0  0  0  0
  -41.0716  -24.3269   27.6401 C   0  0  0  0  0  0  0  0  0  0  0  0
  -23.1917   -9.8183   19.9318 C   0  0  0  0  0  0  0  0  0  0  0  0
  -23.5693   -9.9995   22.3112 C   0  0  0  0  0  0  0  0  0  0  0  0
  -40.7964  -26.7028   27.9484 C   0  0  0  0  0  0  0  0  0  0  0  0
  -39.8475  -24.2744   26.9744 C   0  0  0  0  0  0  0  0  0  0  0  0
  -38.3600  -20.6256   22.2861 C   0  0  0  0  0  0  0  0  0  0  0  0
  -30.6912  -16.4379   25.2462 C   0  0  0  0  0  0  0  0  0  0  0  0
  -22.4260   -8.6713   20.1406 C   0  0  0  0  0  0  0  0  0  0  0  0
  -22.8037   -8.8524   22.5201 C   0  0  0  0  0  0  0  0  0  0  0  0
  -37.6649  -19.4188   22.2206 C   0  0  0  0  0  0  0  0  0  0  0  0
  -23.2068   -5.5059   22.2568 C   0  0  0  0  0  0  0  0  0  0  0  0
  -23.7056   -4.5451   23.1363 C   0  0  0  0  0  0  0  0  0  0  0  0
  -30.5801  -15.0789   24.9742 C   0  0  0  0  0  0  0  0  0  0  0  0
  -35.6412  -20.6203   21.6910 C   0  0  0  0  0  0  0  0  0  0  0  0
  -21.7486   -4.8042   24.5292 C   0  0  0  0  0  0  0  0  0  0  0  0
  -23.7634  -10.4824   21.0171 C   0  0  0  0  0  0  0  0  0  0  0  0
  -24.1006  -12.9992   20.7728 C   0  0  0  0  0  0  0  0  0  0  0  0
  -39.5670  -26.6661   27.2717 C   0  0  0  0  0  0  0  0  0  0  0  0
  -37.6975  -21.8416   22.0650 C   0  0  0  0  0  0  0  0  0  0  0  0
  -39.0805  -25.4369   26.7873 C   0  0  0  0  0  0  0  0  0  0  0  0
  -31.8245  -17.1325   24.8383 C   0  0  0  0  0  0  0  0  0  0  0  0
  -36.3307  -21.8409   21.7518 C   0  0  0  0  0  0  0  0  0  0  0  0
  -22.2320   -8.1883   21.4347 C   0  0  0  0  0  0  0  0  0  0  0  0
  -36.3046  -19.4162   21.9259 C   0  0  0  0  0  0  0  0  0  0  0  0
  -21.9790   -6.1160   22.5135 C   0  0  0  0  0  0  0  0  0  0  0  0
  -22.9765   -4.1942   24.2725 C   0  0  0  0  0  0  0  0  0  0  0  0
  -21.2498   -5.7651   23.6497 C   0  0  0  0  0  0  0  0  0  0  0  0
  -24.5548  -11.6671   20.8020 C   0  0  0  0  0  0  0  0  0  0  0  0
  -31.6217  -14.4658   24.2968 C   0  0  0  0  0  0  0  0  0  0  0  0
  -32.8106  -16.4274   24.1672 C   0  0  0  0  0  0  0  0  0  0  0  0
  -25.2314  -13.7425   20.5376 C   0  0  0  0  0  0  0  0  0  0  0  0
  -22.7750  -13.5184   20.9433 C   0  0  0  0  0  0  0  0  0  0  0  0
  -37.1352  -24.4392   23.8085 C   0  0  0  0  0  0  0  0  0  0  0  0
  -35.9245  -25.5731   21.0209 C   0  0  0  0  0  0  0  0  0  0  0  0
  -34.5561  -24.8964   17.9686 C   0  0  0  0  0  0  0  0  0  0  0  0
  -31.0466  -12.7563   21.5683 C   0  0  0  0  0  0  0  0  0  0  0  0
  -38.7704  -27.9404   27.1440 C   0  0  0  0  0  0  0  0  0  0  0  0
  -38.4674  -23.1328   22.1130 C   0  0  0  0  0  0  0  0  0  0  0  0
  -35.5774  -23.1178   21.4861 C   0  0  0  0  0  0  0  0  0  0  0  0
  -37.6603  -27.8626   26.0990 C   0  0  0  0  0  0  0  0  0  0  0  0
  -29.5194  -13.4721   18.4326 C   0  0  0  0  0  0  0  0  0  0  0  0
  -30.8721  -19.5271   24.6581 C   0  0  0  0  0  0  0  0  0  0  0  0
  -32.2080  -19.5408   23.9832 C   0  0  0  0  0  0  0  0  0  0  0  0
  -36.8703  -26.5670   26.2547 C   0  0  0  0  0  0  0  0  0  0  0  0
  -28.0329  -13.2108   18.6817 C   0  0  0  0  0  0  0  0  0  0  0  0
  -30.4011  -12.4834   19.1923 C   0  0  0  0  0  0  0  0  0  0  0  0
  -28.6475  -12.1399   20.8894 C   0  0  0  0  0  0  0  0  0  0  0  0
  -31.9554  -18.5884   25.1237 C   0  0  0  0  0  0  0  0  0  0  0  0
  -37.7689  -25.3435   26.0382 C   0  0  1  0  0  0  0  0  0  0  0  0
  -37.5820  -24.3469   22.3769 C   0  0  1  0  0  0  0  0  0  0  0  0
  -27.7195  -13.1470   20.1887 C   0  0  2  0  0  0  0  0  0  0  0  0
  -33.6338  -26.0296   15.9284 C   0  0  0  0  0  0  0  0  0  0  0  0
  -33.3614  -26.2229   22.5434 C   0  0  0  0  0  0  0  0  0  0  0  0
  -32.1918  -26.4444   20.3409 C   0  0  0  0  0  0  0  0  0  0  0  0
  -34.0771  -27.9757   20.9095 C   0  0  0  0  0  0  0  0  0  0  0  0
  -36.6104  -23.6778   16.2210 C   0  0  0  0  0  0  0  0  0  0  0  0
  -31.5361  -13.0083   23.9882 C   0  0  0  0  0  0  0  0  0  0  0  0
  -36.0881  -17.1746   22.6901 C   0  0  0  0  0  0  0  0  0  1  0  0
  -34.9141  -16.2914   23.0660 C   0  0  0  0  0  0  0  0  0  0  0  0
  -34.5675  -25.5572   20.3598 C   0  0  1  0  0  0  0  0  0  0  0  0
  -34.8695  -25.4319   16.5832 C   0  0  2  0  0  0  0  0  0  0  0  0
  -33.5629  -26.5259   21.0453 C   0  0  0  0  0  0  0  0  0  0  0  0
  -25.8715  -11.5668   20.6011 N   0  0  0  0  0  0  0  0  0  0  0  0
  -32.7381  -15.1073   23.8848 N   0  0  0  0  0  0  0  0  0  0  0  0
  -26.2543  -12.8453   20.4435 N   0  0  0  0  0  0  0  0  0  0  0  0
  -36.3729  -24.3549   21.5509 N   0  0  0  0  0  0  0  0  0  0  0  0
  -30.0543  -12.4724   20.6155 N   0  0  0  0  0  0  0  0  0  0  0  0
  -25.4406  -15.0695   20.4041 N   0  0  0  0  0  0  0  0  0  0  0  0
  -21.7289  -12.6156   21.1773 N   0  0  0  0  0  0  0  0  0  0  0  0
  -38.0060  -25.1341   24.6259 N   0  0  0  0  0  0  0  0  0  0  0  0
  -34.7984  -25.8375   18.9468 N   0  0  0  0  0  0  0  0  0  0  0  0
  -30.6321  -12.7310   22.8943 N   0  0  0  0  0  0  0  0  0  0  0  0
  -35.3825  -24.3392   15.7093 N   0  3  0  0  0  0  0  0  0  0  0  0
  -22.5231  -14.7452   20.8733 O   0  0  0  0  0  0  0  0  0  0  0  0
  -36.0779  -23.9197   24.1462 O   0  0  0  0  0  0  0  0  0  0  0  0
  -36.5663  -26.6258   21.0591 O   0  0  0  0  0  0  0  0  0  0  0  0
  -34.1347  -23.7584   18.1633 O   0  0  0  0  0  0  0  0  0  0  0  0
  -32.2141  -13.0186   21.2598 O   0  0  0  0  0  0  0  0  0  0  0  0
  -21.4848   -7.0691   21.6389 O   0  0  0  0  0  0  0  0  0  0  0  0
  -35.6236  -18.2398   21.8619 O   0  0  0  0  0  0  0  0  0  1  0  0
  -33.9429  -17.0752   23.7485 O   0  0  0  0  0  0  0  0  0  0  0  0
  -23.4549   -3.2703   25.1162 F   0  0  0  0  0  0  0  0  0  0  0  0
  -20.0691   -6.3468   23.9009 F   0  0  0  0  0  0  0  0  0  0  0  0
  1  2  1  0  0  0  0
  1  5  2  0  0  0  0
  2  6  2  0  0  0  0
  3  9  2  0  0  0  0
  3 17  1  0  0  0  0
  4 10  1  0  0  0  0
  4 17  2  0  0  0  0
  5 19  1  0  0  0  0
  6 21  1  0  0  0  0
  7 11  2  0  0  0  0
  7 20  1  0  0  0  0
  8 14  2  0  0  0  0
  8 22  1  0  0  0  0
  9 24  1  0  0  0  0
 10 24  2  0  0  0  0
 11 25  1  0  0  0  0
 12 13  2  0  0  0  0
 12 26  1  0  0  0  0
 13 27  1  0  0  0  0
 14 30  1  0  0  0  0
 15 23  1  0  0  0  0
 15 25  2  0  0  0  0
 16 27  2  0  0  0  0
 16 28  1  0  0  0  0
 17 29  1  0  0  0  0
 18 29  1  0  0  0  0
 18 32  2  0  0  0  0
 18 33  1  0  0  0  0
 19 21  2  0  0  0  0
 19 38  1  0  0  0  0
 20 23  2  0  0  0  0
 20 39  1  0  0  0  0
 21 50  1  0  0  0  0
 22 31  2  0  0  0  0
 22 49  1  0  0  0  0
 23 40  1  0  0  0  0
 24 80  1  0  0  0  0
 25 81  1  0  0  0  0
 26 28  2  0  0  0  0
 26 80  1  0  0  0  0
 27 83  1  0  0  0  0
 28 84  1  0  0  0  0
 29 64  2  0  0  0  0
 30 58  1  0  0  0  0
 30 65  2  0  0  0  0
 31 65  1  0  0  0  0
 31 82  1  0  0  0  0
 32 66  1  0  0  0  0
 32 69  1  0  0  0  0
 33 70  1  0  0  0  0
 33 75  2  0  0  0  0
 34 51  1  0  0  0  0
 34 71  1  0  0  0  0
 34 76  2  0  0  0  0
 35 61  1  0  0  0  0
 35 67  1  0  0  0  0
 35 77  2  0  0  0  0
 36 62  1  0  0  0  0
 36 72  1  0  0  0  0
 36 78  2  0  0  0  0
 37 68  1  0  0  0  0
 37 73  1  0  0  0  0
 37 79  2  0  0  0  0
 38 41  1  0  0  0  0
 39 51  1  0  0  0  0
 40 67  1  0  0  0  0
 41 45  1  0  0  0  0
 42 46  1  0  0  0  0
 42 47  1  0  0  0  0
 43 44  1  0  0  0  0
 43 49  1  0  0  0  0
 44 49  1  0  0  0  0
 45 50  1  0  0  0  0
 46 52  1  0  0  0  0
 47 68  1  0  0  0  0
 48 52  1  0  0  0  0
 48 68  1  0  0  0  0
 50 71  1  0  0  0  0
 51 67  1  0  0  0  0
 52 66  1  0  0  0  0
 53 62  1  0  0  0  0
 54 63  1  0  0  0  0
 55 63  1  0  0  0  0
 56 63  1  0  0  0  0
 57 74  1  0  0  0  0
 58 73  1  0  0  0  0
 59 60  1  0  0  0  0
 59 81  1  0  0  0  0
 60 82  1  0  0  0  0
 61 63  1  0  0  0  0
 61 72  1  0  0  0  0
 62 74  1  0  0  0  0
 64 66  1  0  0  0  0
M  CHG  1  74   1
M  ISO  4  37 100  59 101  73 100  81 101
M  END
> <Batch ID>
0152

> <Smiles>
CNC(C)C(=O)NC(C(=O)N1Cc2cc([101O:1][101CH2:1]COc3nc(C[100NH:0][100C:0](=O)N4CCCC(n5nc(-c6ccc(Oc7ccc(F)cc7F)cc6)c(C(N)=O)c5N)C4)ccc3C3CC3)ccc2CC1C(=O)NC1CCCc2ccccc21)C(C)(C)C

> <Shape>
0.146

> <Color>
0.182

> <Negative vol penalty>
0.000

$$$$

  -OEChem-04052321463D

 87 96  0     1  0  0  0  0  0999 V2000
  -31.4175  -24.7655   17.0682 C   0  0  0  0  0  0  0  0  0  0  0  0
  -30.0650  -24.7446   17.3932 C   0  0  0  0  0  0  0  0  0  0  0  0
  -22.8892  -13.2953   21.6095 C   0  0  0  0  0  0  0  0  0  0  0  0
  -23.5330  -13.6488   19.3078 C   0  0  0  0  0  0  0  0  0  0  0  0
  -32.3426  -25.2857   17.9723 C   0  0  0  0  0  0  0  0  0  0  0  0
  -29.6369  -25.2430   18.6231 C   0  0  0  0  0  0  0  0  0  0  0  0
  -25.5319  -28.1791   18.2069 C   0  0  0  0  0  0  0  0  0  0  0  0
  -22.3496  -12.0552   21.2681 C   0  0  0  0  0  0  0  0  0  0  0  0
  -22.9934  -12.4086   18.9665 C   0  0  0  0  0  0  0  0  0  0  0  0
  -24.3041  -27.5382   18.0474 C   0  0  0  0  0  0  0  0  0  0  0  0
  -23.4849   -8.9336   20.6359 C   0  0  0  0  0  0  0  0  0  0  0  0
  -23.7742   -7.8503   21.4656 C   0  0  0  0  0  0  0  0  0  0  0  0
  -26.9567  -21.4913   18.2586 C   0  0  0  0  0  0  0  0  0  0  0  0
  -23.8398  -27.8570   20.3930 C   0  0  0  0  0  0  0  0  0  0  0  0
  -21.4161   -7.5524   21.8989 C   0  0  0  0  0  0  0  0  0  0  0  0
  -23.4808  -14.0922   20.6293 C   0  0  0  0  0  0  0  0  0  0  0  0
  -27.4978  -21.2103   19.5131 C   0  0  0  0  0  0  0  0  0  0  0  0
  -23.3590  -16.4689   21.5479 C   0  0  0  0  0  0  0  0  0  0  0  0
  -31.9245  -25.7996   19.2100 C   0  0  0  0  0  0  0  0  0  0  0  0
  -25.9283  -28.6550   19.4650 C   0  0  0  0  0  0  0  0  0  0  0  0
  -30.5574  -25.7694   19.5452 C   0  0  0  0  0  0  0  0  0  0  0  0
  -25.0720  -28.5059   20.5653 C   0  0  0  0  0  0  0  0  0  0  0  0
  -25.8739  -22.3634   18.1455 C   0  0  0  0  0  0  0  0  0  0  0  0
  -25.3323  -22.9545   19.2869 C   0  0  0  0  0  0  0  0  0  0  0  0
  -25.8734  -22.6734   20.5415 C   0  0  0  0  0  0  0  0  0  0  0  0
  -22.4018  -11.6118   19.9466 C   0  0  0  0  0  0  0  0  0  0  0  0
  -23.4591  -27.3744   19.1411 C   0  0  0  0  0  0  0  0  0  0  0  0
  -22.1612   -9.3264   20.4378 C   0  0  0  0  0  0  0  0  0  0  0  0
  -22.7398   -7.1596   22.0970 C   0  0  0  0  0  0  0  0  0  0  0  0
  -21.1268   -8.6358   21.0692 C   0  0  0  0  0  0  0  0  0  0  0  0
  -26.9561  -21.8014   20.6546 C   0  0  0  0  0  0  0  0  0  0  0  0
  -24.0379  -15.3736   20.9812 C   0  0  0  0  0  0  0  0  0  0  0  0
  -24.3243  -17.4359   21.6882 C   0  0  0  0  0  0  0  0  0  0  0  0
  -28.6380  -20.2918   19.6276 C   0  0  0  0  0  0  0  0  0  0  0  0
  -21.9792  -16.6006   21.9148 C   0  0  0  0  0  0  0  0  0  0  0  0
  -28.3297  -28.0205   21.4486 C   0  0  0  0  0  0  0  0  0  0  0  0
  -27.0930  -30.5103   23.1200 C   0  0  0  0  0  0  0  0  0  0  0  0
  -24.3820  -32.4534   23.8424 C   0  0  0  0  0  0  0  0  0  0  0  0
  -32.9667  -26.3083   20.1742 C   0  0  0  0  0  0  0  0  0  0  0  0
  -27.2442  -29.3679   19.6150 C   0  0  0  0  0  0  0  0  0  0  0  0
  -25.4419  -29.0168   21.9330 C   0  0  0  0  0  0  0  0  0  0  0  0
  -32.3892  -27.1600   21.3018 C   0  0  0  0  0  0  0  0  0  0  0  0
  -29.3536  -17.1793   21.2219 C   0  0  0  0  0  0  0  0  0  0  0  0
  -31.1612  -26.4854   21.9050 C   0  0  0  0  0  0  0  0  0  0  0  0
  -27.9822  -16.5105   21.3317 C   0  0  0  0  0  0  0  0  0  0  0  0
  -21.2062  -22.3904   18.7400 C   0  0  0  0  0  0  0  0  0  0  0  0
  -29.4839  -17.9897   19.9347 C   0  0  0  0  0  0  0  0  0  0  0  0
  -27.0372  -18.3192   19.8362 C   0  0  0  0  0  0  0  0  0  0  0  0
  -22.6655  -21.9692   18.9715 C   0  0  0  0  0  0  0  0  0  0  0  0
  -30.0512  -26.3235   20.8593 C   0  0  1  0  0  0  0  0  0  0  0  0
  -27.7705  -29.3560   21.0468 C   0  0  1  0  0  0  0  0  0  0  0  0
  -26.8461  -17.5336   21.1440 C   0  0  1  0  0  0  0  0  0  0  0  0
  -21.7327  -23.8371   18.8463 C   0  0  1  0  0  0  0  0  0  0  0  0
  -25.3127  -22.6475   16.7906 C   0  0  0  0  0  0  0  0  0  0  0  0
  -25.3091  -23.2954   21.7771 C   0  0  0  0  0  0  0  0  0  0  0  0
  -23.6694  -34.3863   25.2754 C   0  0  0  0  0  0  0  0  0  0  0  0
  -19.6990  -25.2682   18.8576 C   0  0  0  0  0  0  0  0  0  0  0  0
  -27.0058  -28.6712   25.5531 C   0  0  0  0  0  0  0  0  0  0  0  0
  -25.4506  -30.3024   26.6434 C   0  0  0  0  0  0  0  0  0  0  0  0
  -27.7659  -31.0044   26.0357 C   0  0  0  0  0  0  0  0  0  0  0  0
  -23.6999  -34.1024   21.4814 C   0  0  0  0  0  0  0  0  0  0  0  0
  -24.1679  -23.8927   19.1648 C   0  0  0  0  0  0  0  0  0  0  0  0
  -21.7288  -26.0158   20.1305 C   0  0  0  0  0  0  0  0  0  1  0  0
  -26.0553  -30.6584   24.2064 C   0  0  1  0  0  0  0  0  0  0  0  0
  -24.2149  -33.9601   23.9213 C   0  0  2  0  0  0  0  0  0  0  0  0
  -20.9104  -24.8060   19.6713 C   0  0  2  0  0  0  0  0  0  0  0  0
  -26.5630  -30.1476   25.5844 C   0  0  0  0  0  0  0  0  0  0  0  0
  -25.3342  -15.6208   20.7754 N   0  0  0  0  0  0  0  0  0  0  0  0
  -25.4777  -16.8826   21.2151 N   0  0  0  0  0  0  0  0  0  0  0  0
  -28.3730  -18.9313   19.8014 N   0  0  0  0  0  0  0  0  0  0  0  0
  -26.7417  -29.7014   22.0300 N   0  0  0  0  0  0  0  0  0  0  0  0
  -24.2905  -18.6970   22.1687 N   0  0  0  0  0  0  0  0  0  0  0  0
  -21.0767  -17.0845   20.9580 N   0  0  0  0  0  0  0  0  0  0  0  0
  -29.3677  -27.5816   20.6489 N   0  0  0  0  0  0  0  0  0  0  0  0
  -25.6547  -32.0612   24.1998 N   0  0  0  0  0  0  0  0  0  0  0  0
  -22.8883  -23.2883   19.5980 N   0  3  2  0  0  0  0  0  0  0  0  0
  -23.2749  -34.4330   22.8660 N   0  3  0  0  0  0  0  0  0  0  0  0
  -29.7554  -20.8032   19.5726 O   0  0  0  0  0  0  0  0  0  0  0  0
  -21.5620  -16.3135   23.0624 O   0  0  0  0  0  0  0  0  0  0  0  0
  -27.8556  -27.4325   22.4135 O   0  0  0  0  0  0  0  0  0  0  0  0
  -28.1726  -31.0967   23.2309 O   0  0  0  0  0  0  0  0  0  0  0  0
  -23.4732  -31.6994   23.5017 O   0  0  0  0  0  0  0  0  0  0  0  0
  -21.8756  -10.4016   19.6132 O   0  0  0  0  0  0  0  0  0  0  0  0
  -22.2604  -26.7486   18.9884 O   0  0  0  0  0  0  0  0  0  1  0  0
  -23.0176   -6.1184   22.8924 F   0  0  0  0  0  0  0  0  0  0  0  0
  -19.8531   -9.0078   20.8818 F   0  0  0  0  0  0  0  0  0  0  0  0
  -27.4762  -21.5315   21.8615 F   0  0  0  0  0  0  0  0  0  0  0  0
  1  2  1  0  0  0  0
  1  5  2  0  0  0  0
  2  6  2  0  0  0  0
  3  8  2  0  0  0  0
  3 16  1  0  0  0  0
  4  9  1  0  0  0  0
  4 16  2  0  0  0  0
  5 19  1  0  0  0  0
  6 21  1  0  0  0  0
  7 10  2  0  0  0  0
  7 20  1  0  0  0  0
  8 26  1  0  0  0  0
  9 26  2  0  0  0  0
 10 27  1  0  0  0  0
 11 12  2  0  0  0  0
 11 28  1  0  0  0  0
 12 29  1  0  0  0  0
 13 17  1  0  0  0  0
 13 23  2  0  0  0  0
 14 22  1  0  0  0  0
 14 27  2  0  0  0  0
 15 29  2  0  0  0  0
 15 30  1  0  0  0  0
 16 32  1  0  0  0  0
 17 31  2  0  0  0  0
 17 34  1  0  0  0  0
 18 32  1  0  0  0  0
 18 33  2  0  0  0  0
 18 35  1  0  0  0  0
 19 21  2  0  0  0  0
 19 39  1  0  0  0  0
 20 22  2  0  0  0  0
 20 40  1  0  0  0  0
 21 50  1  0  0  0  0
 22 41  1  0  0  0  0
 23 24  1  0  0  0  0
 23 54  1  0  0  0  0
 24 25  2  0  0  0  0
 24 62  1  0  0  0  0
 25 31  1  0  0  0  0
 25 55  1  0  0  0  0
 26 83  1  0  0  0  0
 27 84  1  0  0  0  0
 28 30  2  0  0  0  0
 28 83  1  0  0  0  0
 29 85  1  0  0  0  0
 30 86  1  0  0  0  0
 31 87  1  0  0  0  0
 32 68  2  0  0  0  0
 33 69  1  0  0  0  0
 33 72  1  0  0  0  0
 34 70  1  0  0  0  0
 34 78  2  0  0  0  0
 35 73  1  0  0  0  0
 35 79  2  0  0  0  0
 36 51  1  0  0  0  0
 36 74  1  0  0  0  0
 36 80  2  0  0  0  0
 37 64  1  0  0  0  0
 37 71  1  0  0  0  0
 37 81  2  0  0  0  0
 38 65  1  0  0  0  0
 38 75  1  0  0  0  0
 38 82  2  0  0  0  0
 39 42  1  0  0  0  0
 40 51  1  0  0  0  0
 41 71  1  0  0  0  0
 42 44  1  0  0  0  0
 43 45  1  0  0  0  0
 43 47  1  0  0  0  0
 44 50  1  0  0  0  0
 45 52  1  0  0  0  0
 46 49  1  0  0  0  0
 46 53  1  0  0  0  0
 47 70  1  0  0  0  0
 48 52  1  0  0  0  0
 48 70  1  0  0  0  0
 49 76  1  0  0  0  0
 50 74  1  0  0  0  0
 51 71  1  0  0  0  0
 52 69  1  0  0  0  0
 53 66  1  0  0  0  0
 53 76  1  0  0  0  0
 56 65  1  0  0  0  0
 57 66  1  0  0  0  0
 58 67  1  0  0  0  0
 59 67  1  0  0  0  0
 60 67  1  0  0  0  0
 61 77  1  0  0  0  0
 62 76  1  0  0  0  0
 63 66  1  0  0  0  0
 63 84  1  0  0  0  0
 64 67  1  0  0  0  0
 64 75  1  0  0  0  0
 65 77  1  0  0  0  0
 68 69  1  0  0  0  0
M  CHG  2  76   1  77   1
M  ISO  4  17 100  34 100  63 101  84 101
M  END
> <Batch ID>
0152

> <Smiles>
CNC(C)C(=O)NC(C(=O)N1Cc2cc([101O:1][101CH2:1]C(C)C3CCN3Cc3c(C)c[100c:0]([100C:0](=O)N4CCCC(n5nc(-c6ccc(Oc7ccc(F)cc7F)cc6)c(C(N)=O)c5N)C4)c(F)c3C)ccc2CC1C(=O)NC1CCCc2ccccc21)C(C)(C)C

> <Shape>
0.269

> <Color>
0.053

> <Negative vol penalty>
0.000

$$$$

  -OEChem-04052321463D

 84 93  0     1  0  0  0  0  0999 V2000
  -26.8422  -37.7991   22.0892 C   0  0  0  0  0  0  0  0  0  0  0  0
  -27.4321  -36.7967   21.3259 C   0  0  0  0  0  0  0  0  0  0  0  0
  -22.7460  -16.3569   21.4662 C   0  0  0  0  0  0  0  0  0  0  0  0
  -22.1012  -15.3236   19.3797 C   0  0  0  0  0  0  0  0  0  0  0  0
  -26.1382  -37.4694   23.2466 C   0  0  0  0  0  0  0  0  0  0  0  0
  -27.3193  -35.4640   21.7202 C   0  0  0  0  0  0  0  0  0  0  0  0
  -26.8330  -28.8573   18.9941 C   0  0  0  0  0  0  0  0  0  0  0  0
  -28.2458  -22.7209   19.4827 C   0  0  0  0  0  0  0  0  0  0  0  0
  -21.6379  -17.2007   21.3909 C   0  0  0  0  0  0  0  0  0  0  0  0
  -20.9930  -16.1674   19.3043 C   0  0  0  0  0  0  0  0  0  0  0  0
  -27.4333  -27.6031   19.0963 C   0  0  0  0  0  0  0  0  0  0  0  0
  -28.7149  -21.4271   19.7099 C   0  0  0  0  0  0  0  0  0  0  0  0
  -19.1756  -19.8710   21.5649 C   0  0  0  0  0  0  0  0  0  0  0  0
  -19.3680  -21.2234   21.8471 C   0  0  0  0  0  0  0  0  0  0  0  0
  -26.1260  -27.1450   21.0712 C   0  0  0  0  0  0  0  0  0  0  0  0
  -30.4915  -23.5780   19.7267 C   0  0  0  0  0  0  0  0  0  0  0  0
  -20.9537  -21.3769   20.0308 C   0  0  0  0  0  0  0  0  0  0  0  0
  -22.9777  -15.4184   20.4606 C   0  0  0  0  0  0  0  0  0  0  0  0
  -24.1863  -13.2788   21.1456 C   0  0  0  0  0  0  0  0  0  0  0  0
  -26.0085  -36.1311   23.6501 C   0  0  0  0  0  0  0  0  0  0  0  0
  -25.8811  -29.2698   19.9376 C   0  0  0  0  0  0  0  0  0  0  0  0
  -26.6141  -35.1162   22.8849 C   0  0  0  0  0  0  0  0  0  0  0  0
  -25.5132  -28.4038   20.9773 C   0  0  0  0  0  0  0  0  0  0  0  0
  -29.1341  -23.7964   19.4911 C   0  0  0  0  0  0  0  0  0  0  0  0
  -30.9606  -22.2842   19.9539 C   0  0  0  0  0  0  0  0  0  0  0  0
  -20.7614  -17.1059   20.3100 C   0  0  0  0  0  0  0  0  0  0  0  0
  -27.0820  -26.7479   20.1365 C   0  0  0  0  0  0  0  0  0  0  0  0
  -30.0723  -21.2087   19.9456 C   0  0  0  0  0  0  0  0  0  0  0  0
  -19.8724  -19.2715   20.5156 C   0  0  0  0  0  0  0  0  0  0  0  0
  -20.2570  -21.9763   21.0800 C   0  0  0  0  0  0  0  0  0  0  0  0
  -20.7614  -20.0244   19.7486 C   0  0  0  0  0  0  0  0  0  0  0  0
  -24.1225  -14.5469   20.5376 C   0  0  0  0  0  0  0  0  0  0  0  0
  -25.4818  -12.8679   20.9478 C   0  0  0  0  0  0  0  0  0  0  0  0
  -23.1656  -12.5385   21.8282 C   0  0  0  0  0  0  0  0  0  0  0  0
  -25.6991  -31.6339   22.0545 C   0  0  0  0  0  0  0  0  0  0  0  0
  -22.6887  -30.5018   22.4770 C   0  0  0  0  0  0  0  0  0  0  0  0
  -20.5213  -27.8762   22.2421 C   0  0  0  0  0  0  0  0  0  0  0  0
  -30.5786  -15.8560   20.0003 C   0  0  0  0  0  0  0  0  0  0  0  0
  -25.2782  -35.8276   24.9343 C   0  0  0  0  0  0  0  0  0  0  0  0
  -25.2232  -30.6152   19.7980 C   0  0  0  0  0  0  0  0  0  0  0  0
  -24.4818  -28.7910   22.0043 C   0  0  0  0  0  0  0  0  0  0  0  0
  -24.8871  -34.3593   25.0802 C   0  0  0  0  0  0  0  0  0  0  0  0
  -29.1612  -13.3517   17.9539 C   0  0  0  0  0  0  0  0  0  0  0  0
  -26.0635  -33.4557   24.7248 C   0  0  0  0  0  0  0  0  0  0  0  0
  -27.7071  -13.2698   18.4101 C   0  0  0  0  0  0  0  0  0  0  0  0
  -31.0698  -18.7756   22.2237 C   0  0  0  0  0  0  0  0  0  0  0  0
  -29.6530  -14.7926   17.9726 C   0  0  0  0  0  0  0  0  0  0  0  0
  -31.5745  -17.5079   21.5496 C   0  0  0  0  0  0  0  0  0  0  0  0
  -28.0918  -15.3627   19.8129 C   0  0  0  0  0  0  0  0  0  0  0  0
  -29.3280  -17.9450   20.8157 C   0  0  0  0  0  0  0  0  0  0  0  0
  -26.4928  -33.6568   23.2665 C   0  0  1  0  0  0  0  0  0  0  0  0
  -24.6427  -31.1353   21.1095 C   0  0  1  0  0  0  0  0  0  0  0  0
  -27.5340  -13.9246   19.7895 C   0  0  1  0  0  0  0  0  0  0  0  0
  -29.9635  -19.2477   21.2865 C   0  0  2  0  0  0  0  0  0  0  0  0
  -32.4170  -22.0684   20.2032 C   0  0  0  0  0  0  0  0  0  0  0  0
  -18.1359  -27.2441   22.6980 C   0  0  0  0  0  0  0  0  0  0  0  0
  -23.3081  -30.3253   25.4595 C   0  0  0  0  0  0  0  0  0  0  0  0
  -21.3094  -28.8393   25.7156 C   0  0  0  0  0  0  0  0  0  0  0  0
  -21.0231  -31.1854   24.9177 C   0  0  0  0  0  0  0  0  0  0  0  0
  -20.0135  -27.2756   19.3890 C   0  0  0  0  0  0  0  0  0  0  0  0
  -28.6322  -25.1792   19.2466 C   0  0  0  0  0  0  0  0  0  1  0  0
  -22.0514  -29.4678   23.3735 C   0  0  1  0  0  0  0  0  0  0  0  0
  -19.1199  -27.7752   21.6673 C   0  0  2  0  0  0  0  0  0  0  0  0
  -21.9439  -29.9476   24.8485 C   0  0  0  0  0  0  0  0  0  0  0  0
  -25.2852  -14.9173   19.9943 N   0  0  0  0  0  0  0  0  0  0  0  0
  -26.0917  -13.8757   20.2603 N   0  0  0  0  0  0  0  0  0  0  0  0
  -23.8716  -30.1193   21.8286 N   0  0  0  0  0  0  0  0  0  0  0  0
  -29.4606  -15.4155   19.2835 N   0  0  0  0  0  0  0  0  0  0  0  0
  -30.4299  -16.9761   20.8179 N   0  0  0  0  0  0  0  0  0  0  0  0
  -26.1475  -11.7464   21.2966 N   0  0  0  0  0  0  0  0  0  0  0  0
  -21.8899  -13.1078   21.9414 N   0  0  0  0  0  0  0  0  0  0  0  0
  -25.5823  -32.9735   22.3728 N   0  0  0  0  0  0  0  0  0  0  0  0
  -20.7716  -29.1292   22.7605 N   0  0  0  0  0  0  0  0  0  0  0  0
  -19.1074  -26.8607   20.4907 N   0  3  0  0  0  0  0  0  0  0  0  0
  -23.3830  -11.4129   22.3373 O   0  0  0  0  0  0  0  0  0  0  0  0
  -26.5558  -30.8601   22.4657 O   0  0  0  0  0  0  0  0  0  0  0  0
  -22.1529  -31.6057   22.3510 O   0  0  0  0  0  0  0  0  0  0  0  0
  -21.3133  -26.9364   22.2356 O   0  0  0  0  0  0  0  0  0  0  0  0
  -31.6780  -15.2980   19.8826 O   0  0  0  0  0  0  0  0  0  0  0  0
  -19.6798  -17.9289   20.2362 O   0  0  0  0  0  0  0  0  0  0  0  0
  -30.5154  -19.9314   20.1685 O   0  0  0  0  0  0  0  0  0  0  0  0
  -27.6709  -25.5150   20.2397 O   0  0  0  0  0  0  0  0  0  1  0  0
  -20.4404  -23.2754   21.3501 F   0  0  0  0  0  0  0  0  0  0  0  0
  -21.4328  -19.4543   18.7386 F   0  0  0  0  0  0  0  0  0  0  0  0
  1  2  1  0  0  0  0
  1  5  2  0  0  0  0
  2  6  2  0  0  0  0
  3  9  2  0  0  0  0
  3 18  1  0  0  0  0
  4 10  1  0  0  0  0
  4 18  2  0  0  0  0
  5 20  1  0  0  0  0
  6 22  1  0  0  0  0
  7 11  2  0  0  0  0
  7 21  1  0  0  0  0
  8 12  2  0  0  0  0
  8 24  1  0  0  0  0
  9 26  1  0  0  0  0
 10 26  2  0  0  0  0
 11 27  1  0  0  0  0
 12 28  1  0  0  0  0
 13 14  2  0  0  0  0
 13 29  1  0  0  0  0
 14 30  1  0  0  0  0
 15 23  1  0  0  0  0
 15 27  2  0  0  0  0
 16 24  2  0  0  0  0
 16 25  1  0  0  0  0
 17 30  2  0  0  0  0
 17 31  1  0  0  0  0
 18 32  1  0  0  0  0
 19 32  1  0  0  0  0
 19 33  2  0  0  0  0
 19 34  1  0  0  0  0
 20 22  2  0  0  0  0
 20 39  1  0  0  0  0
 21 23  2  0  0  0  0
 21 40  1  0  0  0  0
 22 51  1  0  0  0  0
 23 41  1  0  0  0  0
 24 61  1  0  0  0  0
 25 28  2  0  0  0  0
 25 55  1  0  0  0  0
 26 80  1  0  0  0  0
 27 82  1  0  0  0  0
 28 81  1  0  0  0  0
 29 31  2  0  0  0  0
 29 80  1  0  0  0  0
 30 83  1  0  0  0  0
 31 84  1  0  0  0  0
 32 65  2  0  0  0  0
 33 66  1  0  0  0  0
 33 70  1  0  0  0  0
 34 71  1  0  0  0  0
 34 75  2  0  0  0  0
 35 52  1  0  0  0  0
 35 72  1  0  0  0  0
 35 76  2  0  0  0  0
 36 62  1  0  0  0  0
 36 67  1  0  0  0  0
 36 77  2  0  0  0  0
 37 63  1  0  0  0  0
 37 73  1  0  0  0  0
 37 78  2  0  0  0  0
 38 68  1  0  0  0  0
 38 69  1  0  0  0  0
 38 79  2  0  0  0  0
 39 42  1  0  0  0  0
 40 52  1  0  0  0  0
 41 67  1  0  0  0  0
 42 44  1  0  0  0  0
 43 45  1  0  0  0  0
 43 47  1  0  0  0  0
 44 51  1  0  0  0  0
 45 53  1  0  0  0  0
 46 48  1  0  0  0  0
 46 54  1  0  0  0  0
 47 68  1  0  0  0  0
 48 69  1  0  0  0  0
 49 53  1  0  0  0  0
 49 68  1  0  0  0  0
 50 54  1  0  0  0  0
 50 69  1  0  0  0  0
 51 72  1  0  0  0  0
 52 67  1  0  0  0  0
 53 66  1  0  0  0  0
 54 81  1  0  0  0  0
 56 63  1  0  0  0  0
 57 64  1  0  0  0  0
 58 64  1  0  0  0  0
 59 64  1  0  0  0  0
 60 74  1  0  0  0  0
 61 82  1  0  0  0  0
 62 64  1  0  0  0  0
 62 73  1  0  0  0  0
 63 74  1  0  0  0  0
 65 66  1  0  0  0  0
M  CHG  1  74   1
M  ISO  4  38 100  61 101  69 100  82 101
M  END
> <Batch ID>
0152

> <Smiles>
CNC(C)C(=O)NC(C(=O)N1Cc2cc([101O:1][101CH2:1]c3ccc(OC4CC[100N:0]([100C:0](=O)N5CCCC(n6nc(-c7ccc(Oc8ccc(F)cc8F)cc7)c(C(N)=O)c6N)C5)C4)c(C)c3)ccc2CC1C(=O)NC1CCCc2ccccc21)C(C)(C)C

> <Shape>
0.318

> <Color>
0.114

> <Negative vol penalty>
0.000

$$$$

  -OEChem-04052321463D

 88 97  0     1  0  0  0  0  0999 V2000
  -28.3624  -31.9950   13.1506 C   0  0  0  0  0  0  0  0  0  0  0  0
  -28.4417  -30.7607   13.7875 C   0  0  0  0  0  0  0  0  0  0  0  0
  -23.6142   -9.6458   20.0553 C   0  0  0  0  0  0  0  0  0  0  0  0
  -24.1570   -9.9630   22.3881 C   0  0  0  0  0  0  0  0  0  0  0  0
  -28.4695  -33.1698   13.8937 C   0  0  0  0  0  0  0  0  0  0  0  0
  -28.6291  -30.7006   15.1680 C   0  0  0  0  0  0  0  0  0  0  0  0
  -26.3298  -26.5288   19.0170 C   0  0  0  0  0  0  0  0  0  0  0  0
  -23.0781   -8.3924   20.3504 C   0  0  0  0  0  0  0  0  0  0  0  0
  -23.6208   -8.7095   22.6832 C   0  0  0  0  0  0  0  0  0  0  0  0
  -26.8732  -25.3783   19.5871 C   0  0  0  0  0  0  0  0  0  0  0  0
  -20.5566   -7.3528   23.1191 C   0  0  0  0  0  0  0  0  0  0  0  0
  -19.7211   -7.2526   24.2316 C   0  0  0  0  0  0  0  0  0  0  0  0
  -27.4339  -26.6327   21.5698 C   0  0  0  0  0  0  0  0  0  0  0  0
  -30.6315  -18.4764   23.5137 C   0  0  0  0  0  0  0  0  0  0  0  0
  -30.5571  -18.2627   21.1083 C   0  0  0  0  0  0  0  0  0  0  0  0
  -21.2313   -5.6472   25.2211 C   0  0  0  0  0  0  0  0  0  0  0  0
  -24.1537  -10.4311   21.0741 C   0  0  0  0  0  0  0  0  0  0  0  0
  -24.0306  -12.9597   20.7598 C   0  0  0  0  0  0  0  0  0  0  0  0
  -28.6487  -33.1241   15.2853 C   0  0  0  0  0  0  0  0  0  0  0  0
  -26.3443  -27.7444   19.7160 C   0  0  0  0  0  0  0  0  0  0  0  0
  -28.7400  -31.8758   15.9303 C   0  0  0  0  0  0  0  0  0  0  0  0
  -26.8878  -27.7966   21.0075 C   0  0  0  0  0  0  0  0  0  0  0  0
  -29.5683  -20.1884   22.1812 C   0  0  0  0  0  0  0  0  0  0  0  0
  -29.9476  -19.6890   23.4271 C   0  0  0  0  0  0  0  0  0  0  0  0
  -23.0814   -7.9242   21.6644 C   0  0  0  0  0  0  0  0  0  0  0  0
  -27.4279  -25.4308   20.8624 C   0  0  0  0  0  0  0  0  0  0  0  0
  -21.7294   -6.6001   23.0576 C   0  0  0  0  0  0  0  0  0  0  0  0
  -30.9363  -17.7633   22.3542 C   0  0  0  0  0  0  0  0  0  0  0  0
  -29.8731  -19.4753   21.0217 C   0  0  0  0  0  0  0  0  0  0  0  0
  -20.0585   -6.3998   25.2826 C   0  0  0  0  0  0  0  0  0  0  0  0
  -22.0667   -5.7473   24.1086 C   0  0  0  0  0  0  0  0  0  0  0  0
  -24.7081  -11.7257   20.7698 C   0  0  0  0  0  0  0  0  0  0  0  0
  -24.9923  -13.8766   20.4123 C   0  0  0  0  0  0  0  0  0  0  0  0
  -22.6549  -13.2510   21.0398 C   0  0  0  0  0  0  0  0  0  0  0  0
  -27.6495  -30.6004   19.2222 C   0  0  0  0  0  0  0  0  0  0  0  0
  -25.9460  -31.4034   21.8633 C   0  0  0  0  0  0  0  0  0  0  0  0
  -24.4108  -30.3927   24.7388 C   0  0  0  0  0  0  0  0  0  0  0  0
  -30.9569  -13.9263   20.9338 C   0  0  0  0  0  0  0  0  0  0  0  0
  -28.8064  -34.4203   16.0399 C   0  0  0  0  0  0  0  0  0  0  0  0
  -25.7302  -28.9705   19.0979 C   0  0  0  0  0  0  0  0  0  0  0  0
  -26.9097  -29.0724   21.8077 C   0  0  0  0  0  0  0  0  0  0  0  0
  -28.6287  -34.2722   17.5488 C   0  0  0  0  0  0  0  0  0  0  0  0
  -29.0670  -14.2733   17.9364 C   0  0  0  0  0  0  0  0  0  0  0  0
  -27.4320  -21.4001   21.4277 C   0  0  0  0  0  0  0  0  0  0  0  0
  -29.4180  -33.0729   18.0641 C   0  0  0  0  0  0  0  0  0  0  0  0
  -27.6744  -13.7711   18.3217 C   0  0  0  0  0  0  0  0  0  0  0  0
  -27.4874  -22.2862   20.1846 C   0  0  0  0  0  0  0  0  0  0  0  0
  -29.5976  -22.5564   21.2618 C   0  0  0  0  0  0  0  0  0  0  0  0
  -30.1674  -13.4732   18.6299 C   0  0  0  0  0  0  0  0  0  0  0  0
  -28.6506  -12.8900   20.4827 C   0  0  0  0  0  0  0  0  0  0  0  0
  -28.8258  -21.5021   22.0813 C   0  0  2  0  0  0  0  0  0  0  0  0
  -28.9181  -31.7696   17.4293 C   0  0  1  0  0  0  0  0  0  0  0  0
  -26.2617  -30.2703   19.6940 C   0  0  1  0  0  0  0  0  0  0  0  0
  -27.5067  -13.7022   19.8516 C   0  0  2  0  0  0  0  0  0  0  0  0
  -28.5188  -23.3477   20.5348 C   0  0  2  0  0  0  0  0  0  1  0  0
  -29.6335  -20.4336   24.6832 C   0  0  0  0  0  0  0  0  0  0  0  0
  -23.1367  -31.2823   26.7092 C   0  0  0  0  0  0  0  0  0  0  0  0
  -28.5463  -32.4487   23.0697 C   0  0  0  0  0  0  0  0  0  0  0  0
  -27.4313  -32.4329   25.3113 C   0  0  0  0  0  0  0  0  0  0  0  0
  -26.5471  -33.8911   23.4906 C   0  0  0  0  0  0  0  0  0  0  0  0
  -22.0167  -28.7901   24.0615 C   0  0  0  0  0  0  0  0  0  0  0  0
  -29.8635  -19.1527   18.6655 C   0  0  0  0  0  0  0  0  0  0  0  0
  -31.6007  -14.3335   23.2957 C   0  0  0  0  0  0  0  0  0  0  0  0
  -31.4012  -15.8035   23.6188 C   0  0  0  0  0  0  0  0  0  0  0  0
  -26.2084  -31.3896   23.3499 C   0  0  1  0  0  0  0  0  0  0  0  0
  -23.0374  -30.6985   25.3085 C   0  0  2  0  0  0  0  0  0  0  0  0
  -27.1848  -32.5168   23.7898 C   0  0  0  0  0  0  0  0  0  0  0  0
  -26.0003  -11.8445   20.4534 N   0  0  0  0  0  0  0  0  0  0  0  0
  -26.1425  -13.1639   20.2414 N   0  0  0  0  0  0  0  0  0  0  0  0
  -26.3028  -30.2456   21.1575 N   0  0  0  0  0  0  0  0  0  0  0  0
  -29.9505  -13.4480   20.0784 N   0  0  0  0  0  0  0  0  0  0  0  0
  -24.9577  -15.2150   20.2390 N   0  0  0  0  0  0  0  0  0  0  0  0
  -21.8036  -12.1912   21.3813 N   0  0  0  0  0  0  0  0  0  0  0  0
  -27.6861  -31.3418   18.0567 N   0  0  0  0  0  0  0  0  0  0  0  0
  -24.9015  -31.4454   23.9957 N   0  0  0  0  0  0  0  0  0  0  0  0
  -30.6678  -13.8724   22.2918 N   0  0  0  0  0  0  0  0  0  0  0  0
  -22.2156  -29.4569   25.3741 N   0  3  0  0  0  0  0  0  0  0  0  0
  -22.1905  -14.4143   20.9728 O   0  0  0  0  0  0  0  0  0  0  0  0
  -28.6157  -30.2124   19.8686 O   0  0  0  0  0  0  0  0  0  0  0  0
  -25.4363  -32.4018   21.3484 O   0  0  0  0  0  0  0  0  0  0  0  0
  -24.9920  -29.3280   24.9365 O   0  0  0  0  0  0  0  0  0  0  0  0
  -32.0311  -14.3734   20.5178 O   0  0  0  0  0  0  0  0  0  0  0  0
  -22.5582   -6.7013   21.9528 O   0  0  0  0  0  0  0  0  0  0  0  0
  -27.9595  -24.3094   21.4209 O   0  0  0  0  0  0  0  0  0  1  0  0
  -29.5108  -19.9474   19.7959 O   0  0  0  0  0  0  0  0  0  0  0  0
  -31.6031  -16.5796   22.4387 O   0  0  0  0  0  0  0  0  0  0  0  0
  -19.2569   -6.3049   26.3515 F   0  0  0  0  0  0  0  0  0  0  0  0
  -23.1927   -5.0226   24.0557 F   0  0  0  0  0  0  0  0  0  0  0  0
  1  2  1  0  0  0  0
  1  5  2  0  0  0  0
  2  6  2  0  0  0  0
  3  8  2  0  0  0  0
  3 17  1  0  0  0  0
  4  9  1  0  0  0  0
  4 17  2  0  0  0  0
  5 19  1  0  0  0  0
  6 21  1  0  0  0  0
  7 10  2  0  0  0  0
  7 20  1  0  0  0  0
  8 25  1  0  0  0  0
  9 25  2  0  0  0  0
 10 26  1  0  0  0  0
 11 12  2  0  0  0  0
 11 27  1  0  0  0  0
 12 30  1  0  0  0  0
 13 22  1  0  0  0  0
 13 26  2  0  0  0  0
 14 24  2  0  0  0  0
 14 28  1  0  0  0  0
 15 28  2  0  0  0  0
 15 29  1  0  0  0  0
 16 30  2  0  0  0  0
 16 31  1  0  0  0  0
 17 32  1  0  0  0  0
 18 32  1  0  0  0  0
 18 33  2  0  0  0  0
 18 34  1  0  0  0  0
 19 21  2  0  0  0  0
 19 39  1  0  0  0  0
 20 22  2  0  0  0  0
 20 40  1  0  0  0  0
 21 52  1  0  0  0  0
 22 41  1  0  0  0  0
 23 24  1  0  0  0  0
 23 29  2  0  0  0  0
 23 51  1  0  0  0  0
 24 56  1  0  0  0  0
 25 83  1  0  0  0  0
 26 84  1  0  0  0  0
 27 31  2  0  0  0  0
 27 83  1  0  0  0  0
 28 86  1  0  0  0  0
 29 85  1  0  0  0  0
 30 87  1  0  0  0  0
 31 88  1  0  0  0  0
 32 68  2  0  0  0  0
 33 69  1  0  0  0  0
 33 72  1  0  0  0  0
 34 73  1  0  0  0  0
 34 78  2  0  0  0  0
 35 53  1  0  0  0  0
 35 74  1  0  0  0  0
 35 79  2  0  0  0  0
 36 65  1  0  0  0  0
 36 70  1  0  0  0  0
 36 80  2  0  0  0  0
 37 66  1  0  0  0  0
 37 75  1  0  0  0  0
 37 81  2  0  0  0  0
 38 71  1  0  0  0  0
 38 76  1  0  0  0  0
 38 82  2  0  0  0  0
 39 42  1  0  0  0  0
 40 53  1  0  0  0  0
 41 70  1  0  0  0  0
 42 45  1  0  0  0  0
 43 46  1  0  0  0  0
 43 49  1  0  0  0  0
 44 47  1  0  0  0  0
 44 51  1  0  0  0  0
 45 52  1  0  0  0  0
 46 54  1  0  0  0  0
 47 55  1  0  0  0  0
 48 51  1  0  0  0  0
 48 55  1  0  0  0  0
 49 71  1  0  0  0  0
 50 54  1  0  0  0  0
 50 71  1  0  0  0  0
 52 74  1  0  0  0  0
 53 70  1  0  0  0  0
 54 69  1  0  0  0  0
 55 84  1  0  0  0  0
 57 66  1  0  0  0  0
 58 67  1  0  0  0  0
 59 67  1  0  0  0  0
 60 67  1  0  0  0  0
 61 77  1  0  0  0  0
 62 85  1  0  0  0  0
 63 64  1  0  0  0  0
 63 76  1  0  0  0  0
 64 86  1  0  0  0  0
 65 67  1  0  0  0  0
 65 75  1  0  0  0  0
 66 77  1  0  0  0  0
 68 69  1  0  0  0  0
M  CHG  1  77   1
M  ISO  4  38 100  55 101  76 100  84 101
M  END
> <Batch ID>
0152

> <Smiles>
CNC(C)C(=O)NC(C(=O)N1Cc2cc([101O:1][101CH:1]3CCC(c4c(C)cc(OCC[100NH:0][100C:0](=O)N5CCCC(n6nc(-c7ccc(Oc8ccc(F)cc8F)cc7)c(C(N)=O)c6N)C5)cc4OC)C3)ccc2CC1C(=O)NC1CCCc2ccccc21)C(C)(C)C

> <Shape>
0.320

> <Color>
0.172

> <Negative vol penalty>
0.000

$$$$

  -OEChem-04052321463D

 90 99  0     1  0  0  0  0  0999 V2000
  -19.5111  -28.8863   26.1885 C   0  0  0  0  0  0  0  0  0  0  0  0
  -20.8365  -28.6372   25.8470 C   0  0  0  0  0  0  0  0  0  0  0  0
  -25.5900  -12.9237   21.6836 C   0  0  0  0  0  0  0  0  0  0  0  0
  -25.1992  -13.1831   19.3136 C   0  0  0  0  0  0  0  0  0  0  0  0
  -18.4883  -28.5409   25.3062 C   0  0  0  0  0  0  0  0  0  0  0  0
  -21.1398  -28.0417   24.6232 C   0  0  0  0  0  0  0  0  0  0  0  0
  -26.0369  -29.1328   21.1113 C   0  0  0  0  0  0  0  0  0  0  0  0
  -25.1860  -11.5910   21.6044 C   0  0  0  0  0  0  0  0  0  0  0  0
  -24.7952  -11.8504   19.2343 C   0  0  0  0  0  0  0  0  0  0  0  0
  -27.2484  -28.4604   20.9560 C   0  0  0  0  0  0  0  0  0  0  0  0
  -22.2782   -9.8757   21.4409 C   0  0  0  0  0  0  0  0  0  0  0  0
  -21.4070   -9.4039   22.4227 C   0  0  0  0  0  0  0  0  0  0  0  0
  -32.2222  -22.4263   18.1126 C   0  0  0  0  0  0  0  0  0  0  0  0
  -26.3547  -27.3063   19.0354 C   0  0  0  0  0  0  0  0  0  0  0  0
  -33.9176  -23.2594   19.6189 C   0  0  0  0  0  0  0  0  0  0  0  0
  -23.0406   -7.7483   23.0766 C   0  0  0  0  0  0  0  0  0  0  0  0
  -25.5965  -13.7198   20.5382 C   0  0  0  0  0  0  0  0  0  0  0  0
  -27.2667  -15.5823   21.0377 C   0  0  0  0  0  0  0  0  0  0  0  0
  -18.7798  -27.9497   24.0668 C   0  0  0  0  0  0  0  0  0  0  0  0
  -24.9699  -28.8884   20.2349 C   0  0  0  0  0  0  0  0  0  0  0  0
  -20.1199  -27.6869   23.7239 C   0  0  0  0  0  0  0  0  0  0  0  0
  -31.4052  -23.5106   18.4324 C   0  0  0  0  0  0  0  0  0  0  0  0
  -25.1316  -27.9787   19.1802 C   0  0  0  0  0  0  0  0  0  0  0  0
  -33.4784  -22.3007   18.7059 C   0  0  0  0  0  0  0  0  0  0  0  0
  -33.1006  -24.3438   19.9386 C   0  0  0  0  0  0  0  0  0  0  0  0
  -24.7886  -11.0543   20.3798 C   0  0  0  0  0  0  0  0  0  0  0  0
  -27.4065  -27.5449   19.9197 C   0  0  0  0  0  0  0  0  0  0  0  0
  -23.5306   -9.2838   21.2768 C   0  0  0  0  0  0  0  0  0  0  0  0
  -31.8444  -24.4694   19.3454 C   0  0  0  0  0  0  0  0  0  0  0  0
  -21.7882   -8.3403   23.2406 C   0  0  0  0  0  0  0  0  0  0  0  0
  -23.9118   -8.2201   22.0946 C   0  0  0  0  0  0  0  0  0  0  0  0
  -26.0132  -15.0967   20.6195 C   0  0  0  0  0  0  0  0  0  0  0  0
  -27.1578  -16.9476   20.9344 C   0  0  0  0  0  0  0  0  0  0  0  0
  -28.4258  -14.8635   21.4799 C   0  0  0  0  0  0  0  0  0  0  0  0
  -22.0196  -27.7495   20.5554 C   0  0  0  0  0  0  0  0  0  0  0  0
  -21.7845  -28.5609   17.4235 C   0  0  0  0  0  0  0  0  0  0  0  0
  -23.3667  -29.1692   14.4615 C   0  0  0  0  0  0  0  0  0  0  0  0
  -25.5624  -21.5047   18.1358 C   0  0  0  0  0  0  0  0  0  0  0  0
  -17.6377  -27.5507   23.1662 C   0  0  0  0  0  0  0  0  0  0  0  0
  -23.6784  -29.6417   20.3998 C   0  0  0  0  0  0  0  0  0  0  0  0
  -24.0236  -27.6957   18.2000 C   0  0  0  0  0  0  0  0  0  0  0  0
  -18.0662  -27.2656   21.7291 C   0  0  0  0  0  0  0  0  0  0  0  0
  -23.1113  -19.8771   20.1407 C   0  0  0  0  0  0  0  0  0  0  0  0
  -19.3053  -26.3762   21.7079 C   0  0  0  0  0  0  0  0  0  0  0  0
  -28.6904  -23.8211   15.6269 C   0  0  0  0  0  0  0  0  0  0  0  0
  -23.7485  -18.5267   20.4729 C   0  0  0  0  0  0  0  0  0  0  0  0
  -27.8260  -22.6404   16.0599 C   0  0  0  0  0  0  0  0  0  0  0  0
  -29.1451  -22.4464   18.1996 C   0  0  0  0  0  0  0  0  0  0  0  0
  -23.4610  -20.3333   18.7259 C   0  0  0  0  0  0  0  0  0  0  0  0
  -25.5414  -19.0124   18.7559 C   0  0  0  0  0  0  0  0  0  0  0  0
  -30.0388  -23.6305   17.7742 C   0  0  2  0  0  0  0  0  0  0  0  0
  -20.4906  -27.0651   22.3950 C   0  0  1  0  0  0  0  0  0  0  0  0
  -22.4882  -28.9344   19.7590 C   0  0  1  0  0  0  0  0  0  0  0  0
  -30.1055  -23.7573   16.2283 C   0  0  2  0  0  0  0  0  0  0  0  0
  -25.2632  -18.5371   20.1922 C   0  0  2  0  0  0  0  0  0  0  0  0
  -27.7483  -22.5412   17.5820 C   0  0  2  0  0  0  0  0  0  0  0  0
  -34.3518  -21.1409   18.3650 C   0  0  0  0  0  0  0  0  0  0  0  0
  -33.5877  -25.3593   20.9194 C   0  0  0  0  0  0  0  0  0  0  0  0
  -30.9561  -25.1002   14.2987 C   0  0  0  0  0  0  0  0  0  0  0  0
  -22.9060  -29.7730   12.0697 C   0  0  0  0  0  0  0  0  0  0  0  0
  -20.8690  -25.7014   16.8805 C   0  0  0  0  0  0  0  0  0  0  0  0
  -21.3406  -26.0857   14.4519 C   0  0  0  0  0  0  0  0  0  0  0  0
  -19.6128  -27.4566   15.6172 C   0  0  0  0  0  0  0  0  0  0  0  0
  -24.9176  -31.6807   14.6756 C   0  0  0  0  0  0  0  0  0  0  0  0
  -30.8972  -24.9935   15.7851 C   0  0  0  0  0  0  0  0  0  0  0  0
  -29.3496  -26.6362   20.9465 C   0  0  0  0  0  0  0  0  0  1  0  0
  -30.1521  -25.3635   20.7569 C   0  0  0  0  0  0  0  0  0  0  0  0
  -22.0585  -27.8610   16.1143 C   0  0  1  0  0  0  0  0  0  0  0  0
  -23.2280  -30.3008   13.4592 C   0  0  2  0  0  0  0  0  0  0  0  0
  -20.9906  -26.7798   15.7854 C   0  0  0  0  0  0  0  0  0  0  0  0
  -25.1700  -16.0741   20.2763 N   0  0  0  0  0  0  0  0  0  0  0  0
  -25.8949  -17.1874   20.4787 N   0  0  0  0  0  0  0  0  0  0  0  0
  -22.7779  -28.4526   18.4070 N   0  0  0  0  0  0  0  0  0  0  0  0
  -24.9120  -20.3222   18.5253 N   0  0  0  0  0  0  0  0  0  0  0  0
  -28.0202  -17.9543   21.1899 N   0  0  0  0  0  0  0  0  0  0  0  0
  -29.3746  -14.4734   20.5250 N   0  0  0  0  0  0  0  0  0  0  0  0
  -21.0769  -28.0559   21.5181 N   0  0  0  0  0  0  0  0  0  0  0  0
  -22.1764  -28.9102   15.1074 N   0  0  0  0  0  0  0  0  0  0  0  0
  -26.9391  -21.4087   17.9738 N   0  0  0  0  0  0  0  0  0  0  0  0
  -24.4939  -31.0834   13.3830 N   0  3  0  0  0  0  0  0  0  0  0  0
  -28.6064  -14.5614   22.6839 O   0  0  0  0  0  0  0  0  0  0  0  0
  -22.4783  -26.6392   20.3132 O   0  0  0  0  0  0  0  0  0  0  0  0
  -20.7311  -29.1868   17.5657 O   0  0  0  0  0  0  0  0  0  0  0  0
  -24.4243  -28.5721   14.6498 O   0  0  0  0  0  0  0  0  0  0  0  0
  -24.9614  -22.5686   17.9516 O   0  0  0  0  0  0  0  0  0  0  0  0
  -24.3946   -9.7539   20.3020 O   0  0  0  0  0  0  0  0  0  0  0  0
  -28.5877  -26.8868   19.7662 O   0  0  0  0  0  0  0  0  0  1  0  0
  -31.0417  -25.5342   19.6602 O   0  0  0  0  0  0  0  0  0  0  0  0
  -20.9522   -7.8883   24.1845 F   0  0  0  0  0  0  0  0  0  0  0  0
  -25.1141   -7.6482   21.9425 F   0  0  0  0  0  0  0  0  0  0  0  0
  1  2  1  0  0  0  0
  1  5  2  0  0  0  0
  2  6  2  0  0  0  0
  3  8  2  0  0  0  0
  3 17  1  0  0  0  0
  4  9  1  0  0  0  0
  4 17  2  0  0  0  0
  5 19  1  0  0  0  0
  6 21  1  0  0  0  0
  7 10  2  0  0  0  0
  7 20  1  0  0  0  0
  8 26  1  0  0  0  0
  9 26  2  0  0  0  0
 10 27  1  0  0  0  0
 11 12  2  0  0  0  0
 11 28  1  0  0  0  0
 12 30  1  0  0  0  0
 13 22  1  0  0  0  0
 13 24  2  0  0  0  0
 14 23  1  0  0  0  0
 14 27  2  0  0  0  0
 15 24  1  0  0  0  0
 15 25  2  0  0  0  0
 16 30  2  0  0  0  0
 16 31  1  0  0  0  0
 17 32  1  0  0  0  0
 18 32  1  0  0  0  0
 18 33  2  0  0  0  0
 18 34  1  0  0  0  0
 19 21  2  0  0  0  0
 19 39  1  0  0  0  0
 20 23  2  0  0  0  0
 20 40  1  0  0  0  0
 21 52  1  0  0  0  0
 22 29  2  0  0  0  0
 22 51  1  0  0  0  0
 23 41  1  0  0  0  0
 24 57  1  0  0  0  0
 25 29  1  0  0  0  0
 25 58  1  0  0  0  0
 26 86  1  0  0  0  0
 27 87  1  0  0  0  0
 28 31  2  0  0  0  0
 28 86  1  0  0  0  0
 29 88  1  0  0  0  0
 30 89  1  0  0  0  0
 31 90  1  0  0  0  0
 32 71  2  0  0  0  0
 33 72  1  0  0  0  0
 33 75  1  0  0  0  0
 34 76  1  0  0  0  0
 34 81  2  0  0  0  0
 35 53  1  0  0  0  0
 35 77  1  0  0  0  0
 35 82  2  0  0  0  0
 36 68  1  0  0  0  0
 36 73  1  0  0  0  0
 36 83  2  0  0  0  0
 37 69  1  0  0  0  0
 37 78  1  0  0  0  0
 37 84  2  0  0  0  0
 38 74  1  0  0  0  0
 38 79  1  0  0  0  0
 38 85  2  0  0  0  0
 39 42  1  0  0  0  0
 40 53  1  0  0  0  0
 41 73  1  0  0  0  0
 42 44  1  0  0  0  0
 43 46  1  0  0  0  0
 43 49  1  0  0  0  0
 44 52  1  0  0  0  0
 45 47  1  0  0  0  0
 45 54  1  0  0  0  0
 46 55  1  0  0  0  0
 47 56  1  0  0  0  0
 48 51  1  0  0  0  0
 48 56  1  0  0  0  0
 49 74  1  0  0  0  0
 50 55  1  0  0  0  0
 50 74  1  0  0  0  0
 51 54  1  0  0  0  0
 52 77  1  0  0  0  0
 53 73  1  0  0  0  0
 54 65  1  0  0  0  0
 55 72  1  0  0  0  0
 56 79  1  0  0  0  0
 59 65  1  0  0  0  0
 60 69  1  0  0  0  0
 61 70  1  0  0  0  0
 62 70  1  0  0  0  0
 63 70  1  0  0  0  0
 64 80  1  0  0  0  0
 66 67  1  0  0  0  0
 66 87  1  0  0  0  0
 67 88  1  0  0  0  0
 68 70  1  0  0  0  0
 68 78  1  0  0  0  0
 69 80  1  0  0  0  0
 71 72  1  0  0  0  0
M  CHG  1  80   1
M  ISO  4  38 100  66 101  79 100  87 101
M  END
> <Batch ID>
0152

> <Smiles>
CCC1CCC([100NH:0][100C:0](=O)N2CCCC(n3nc(-c4ccc(Oc5ccc(F)cc5F)cc4)c(C(N)=O)c3N)C2)CC1c1cc(C)cc(C)c1OC[101CH2:1][101O:1]c1ccc2c(c1)CN(C(=O)C(NC(=O)C(C)NC)C(C)(C)C)C(C(=O)NC1CCCc3ccccc31)C2

> <Shape>
0.224

> <Color>
0.099

> <Negative vol penalty>
0.000

$$$$

  -OEChem-04052321463D

 85 94  0     1  0  0  0  0  0999 V2000
  -28.2129  -26.4281   20.7644 C   0  0  0  0  0  0  0  0  0  0  0  0
  -27.3705  -25.3785   21.1129 C   0  0  0  0  0  0  0  0  0  0  0  0
  -24.8278  -28.7545   21.8177 C   0  0  0  0  0  0  0  0  0  0  0  0
  -23.8621  -29.9436   19.9494 C   0  0  0  0  0  0  0  0  0  0  0  0
  -29.1217  -26.2702   19.7202 C   0  0  0  0  0  0  0  0  0  0  0  0
  -27.4447  -24.1667   20.4252 C   0  0  0  0  0  0  0  0  0  0  0  0
  -24.0564  -19.1252   20.9060 C   0  0  0  0  0  0  0  0  0  0  0  0
  -25.6183  -29.8645   22.1155 C   0  0  0  0  0  0  0  0  0  0  0  0
  -24.6526  -31.0535   20.2472 C   0  0  0  0  0  0  0  0  0  0  0  0
  -22.9091  -18.5963   20.3164 C   0  0  0  0  0  0  0  0  0  0  0  0
  -27.6279  -32.5133   23.5853 C   0  0  0  0  0  0  0  0  0  0  0  0
  -27.7166  -32.9068   24.9205 C   0  0  0  0  0  0  0  0  0  0  0  0
  -24.2842  -17.3108   18.8078 C   0  0  0  0  0  0  0  0  0  0  0  0
  -25.3260  -33.2517   24.9777 C   0  0  0  0  0  0  0  0  0  0  0  0
  -19.0663  -20.9999   13.4667 C   0  0  0  0  0  0  0  0  0  0  0  0
  -23.9497  -28.7940   20.7346 C   0  0  0  0  0  0  0  0  0  0  0  0
  -21.8429  -27.3668   20.9140 C   0  0  0  0  0  0  0  0  0  0  0  0
  -29.1978  -25.0597   19.0118 C   0  0  0  0  0  0  0  0  0  0  0  0
  -25.3283  -18.7586   20.4430 C   0  0  0  0  0  0  0  0  0  0  0  0
  -28.3718  -23.9797   19.3841 C   0  0  0  0  0  0  0  0  0  0  0  0
  -25.4462  -17.8345   19.3950 C   0  0  0  0  0  0  0  0  0  0  0  0
  -20.3512  -20.0910   15.0378 C   0  0  0  0  0  0  0  0  0  0  0  0
  -20.3493  -21.0262   14.0006 C   0  0  0  0  0  0  0  0  0  0  0  0
  -25.5307  -31.0140   21.3303 C   0  0  0  0  0  0  0  0  0  0  0  0
  -23.0228  -17.6912   19.2652 C   0  0  0  0  0  0  0  0  0  0  0  0
  -26.3883  -32.4890   22.9462 C   0  0  0  0  0  0  0  0  0  0  0  0
  -26.5657  -33.2760   25.6167 C   0  0  0  0  0  0  0  0  0  0  0  0
  -25.2373  -32.8582   23.6424 C   0  0  0  0  0  0  0  0  0  0  0  0
  -23.1332  -27.6476   20.4261 C   0  0  0  0  0  0  0  0  0  0  0  0
  -21.5062  -26.1718   20.3265 C   0  0  0  0  0  0  0  0  0  0  0  0
  -19.1148  -19.5380   15.1083 C   0  0  0  0  0  0  0  0  0  0  0  0
  -21.0221  -28.1189   21.8175 C   0  0  0  0  0  0  0  0  0  0  0  0
  -27.7740  -20.3130   19.1369 C   0  0  0  0  0  0  0  0  0  0  0  0
  -29.2503  -17.4391   19.4258 C   0  0  0  0  0  0  0  0  0  0  0  0
  -28.9643  -14.0483   19.6862 C   0  0  0  0  0  0  0  0  0  0  0  0
  -22.1057  -23.4522   15.3610 C   0  0  0  0  0  0  0  0  0  0  0  0
  -30.2052  -24.9406   17.8954 C   0  0  0  0  0  0  0  0  0  0  0  0
  -26.5565  -19.3177   21.1074 C   0  0  0  0  0  0  0  0  0  0  0  0
  -21.1944  -19.4910   16.0732 C   0  0  0  0  0  0  0  0  0  0  0  0
  -26.7887  -17.3930   18.8743 C   0  0  0  0  0  0  0  0  0  0  0  0
  -29.9051  -23.7865   16.9445 C   0  0  0  0  0  0  0  0  0  0  0  0
  -24.0455  -22.4692   18.2538 C   0  0  0  0  0  0  0  0  0  0  0  0
  -29.6514  -22.5127   17.7368 C   0  0  0  0  0  0  0  0  0  0  0  0
  -23.8779  -23.6892   19.1613 C   0  0  0  0  0  0  0  0  0  0  0  0
  -24.1616  -22.8813   16.7893 C   0  0  0  0  0  0  0  0  0  0  0  0
  -22.8615  -24.9347   17.1977 C   0  0  0  0  0  0  0  0  0  0  0  0
  -28.4136  -22.6627   18.6302 C   0  0  1  0  0  0  0  0  0  0  0  0
  -27.7934  -19.2674   20.2158 C   0  0  1  0  0  0  0  0  0  0  0  0
  -22.7158  -24.5831   18.6895 C   0  0  2  0  0  0  0  0  0  0  0  0
  -20.1668  -18.4795   16.7353 C   0  0  2  0  0  0  0  0  0  0  0  0
  -22.3308  -21.2231   12.4526 C   0  0  0  0  0  0  0  0  0  0  0  0
  -30.3483  -11.9630   19.8688 C   0  0  0  0  0  0  0  0  0  0  0  0
  -19.5876  -16.0917   17.2466 C   0  0  0  0  0  0  0  0  0  0  0  0
  -29.9119  -17.6207   16.4527 C   0  0  0  0  0  0  0  0  0  0  0  0
  -30.4222  -15.1699   16.4877 C   0  0  0  0  0  0  0  0  0  0  0  0
  -31.7662  -16.7420   17.8823 C   0  0  0  0  0  0  0  0  0  0  0  0
  -16.9262  -19.7498   13.9115 C   0  0  0  0  0  0  0  0  0  0  0  0
  -27.7926  -13.3618   22.3158 C   0  0  0  0  0  0  0  0  0  0  0  0
  -21.9897  -16.8233   17.3069 C   0  0  0  0  0  0  0  0  0  1  0  0
  -21.4701  -21.8724   13.5562 C   0  0  2  0  0  0  0  0  0  0  0  0
  -29.3864  -16.2146   18.5533 C   0  0  1  0  0  0  0  0  0  0  0  0
  -29.6113  -13.0526   20.6319 C   0  0  2  0  0  0  0  0  0  0  0  0
  -20.6296  -17.0246   16.6331 C   0  0  2  0  0  0  0  0  0  0  0  0
  -30.3462  -16.4464   17.3523 C   0  0  0  0  0  0  0  0  0  0  0  0
  -23.5855  -26.7067   19.5929 N   0  0  0  0  0  0  0  0  0  0  0  0
  -18.3095  -20.0724   14.1621 N   0  0  0  0  0  0  0  0  0  0  0  0
  -22.5738  -25.8230   19.5528 N   0  0  0  0  0  0  0  0  0  0  0  0
  -27.9599  -17.9726   19.5526 N   0  0  0  0  0  0  0  0  0  0  0  0
  -23.0155  -23.7144   16.3987 N   0  0  0  0  0  0  0  0  0  0  0  0
  -20.4040  -25.3959   20.4015 N   0  0  0  0  0  0  0  0  0  0  0  0
  -21.5217  -29.3249   22.3278 N   0  0  0  0  0  0  0  0  0  0  0  0
  -28.3284  -21.5212   19.5143 N   0  0  0  0  0  0  0  0  0  0  0  0
  -29.7879  -15.1259   19.4376 N   0  0  0  0  0  0  0  0  0  0  0  0
  -22.3258  -22.2799   14.6483 N   0  0  0  0  0  0  0  0  0  0  0  0
  -28.5784  -12.4080   21.4913 N   0  3  0  0  0  0  0  0  0  0  0  0
  -19.8861  -27.7248   22.1750 O   0  0  0  0  0  0  0  0  0  0  0  0
  -27.2932  -20.0431   18.0425 O   0  0  0  0  0  0  0  0  0  0  0  0
  -30.2508  -17.9008   19.9802 O   0  0  0  0  0  0  0  0  0  0  0  0
  -27.8422  -13.8846   19.2123 O   0  0  0  0  0  0  0  0  0  0  0  0
  -21.1630  -24.2048   15.0927 O   0  0  0  0  0  0  0  0  0  0  0  0
  -18.8779  -18.6124   16.0238 O   0  0  0  0  0  0  0  0  0  0  0  0
  -26.3018  -32.0973   21.6208 O   0  0  0  0  0  0  0  0  0  0  0  0
  -21.9046  -17.1740   18.6875 O   0  0  0  0  0  0  0  0  0  1  0  0
  -26.6508  -33.6524   26.8994 F   0  0  0  0  0  0  0  0  0  0  0  0
  -24.0435  -32.8357   23.0341 F   0  0  0  0  0  0  0  0  0  0  0  0
  1  2  1  0  0  0  0
  1  5  2  0  0  0  0
  2  6  2  0  0  0  0
  3  8  2  0  0  0  0
  3 16  1  0  0  0  0
  4  9  1  0  0  0  0
  4 16  2  0  0  0  0
  5 18  1  0  0  0  0
  6 20  1  0  0  0  0
  7 10  2  0  0  0  0
  7 19  1  0  0  0  0
  8 24  1  0  0  0  0
  9 24  2  0  0  0  0
 10 25  1  0  0  0  0
 11 12  2  0  0  0  0
 11 26  1  0  0  0  0
 12 27  1  0  0  0  0
 13 21  1  0  0  0  0
 13 25  2  0  0  0  0
 14 27  2  0  0  0  0
 14 28  1  0  0  0  0
 15 23  2  0  0  0  0
 15 66  1  0  0  0  0
 16 29  1  0  0  0  0
 17 29  1  0  0  0  0
 17 30  2  0  0  0  0
 17 32  1  0  0  0  0
 18 20  2  0  0  0  0
 18 37  1  0  0  0  0
 19 21  2  0  0  0  0
 19 38  1  0  0  0  0
 20 47  1  0  0  0  0
 21 40  1  0  0  0  0
 22 23  1  0  0  0  0
 22 31  2  0  0  0  0
 22 39  1  0  0  0  0
 23 60  1  0  0  0  0
 24 82  1  0  0  0  0
 25 83  1  0  0  0  0
 26 28  2  0  0  0  0
 26 82  1  0  0  0  0
 27 84  1  0  0  0  0
 28 85  1  0  0  0  0
 29 65  2  0  0  0  0
 30 67  1  0  0  0  0
 30 70  1  0  0  0  0
 31 66  1  0  0  0  0
 31 81  1  0  0  0  0
 32 71  1  0  0  0  0
 32 76  2  0  0  0  0
 33 48  1  0  0  0  0
 33 72  1  0  0  0  0
 33 77  2  0  0  0  0
 34 61  1  0  0  0  0
 34 68  1  0  0  0  0
 34 78  2  0  0  0  0
 35 62  1  0  0  0  0
 35 73  1  0  0  0  0
 35 79  2  0  0  0  0
 36 69  1  0  0  0  0
 36 74  1  0  0  0  0
 36 80  2  0  0  0  0
 37 41  1  0  0  0  0
 38 48  1  0  0  0  0
 39 50  1  0  0  0  0
 40 68  1  0  0  0  0
 41 43  1  0  0  0  0
 42 44  1  0  0  0  0
 42 45  1  0  0  0  0
 43 47  1  0  0  0  0
 44 49  1  0  0  0  0
 45 69  1  0  0  0  0
 46 49  1  0  0  0  0
 46 69  1  0  0  0  0
 47 72  1  0  0  0  0
 48 68  1  0  0  0  0
 49 67  1  0  0  0  0
 50 63  1  0  0  0  0
 50 81  1  0  0  0  0
 51 60  1  0  0  0  0
 52 62  1  0  0  0  0
 53 63  1  0  0  0  0
 54 64  1  0  0  0  0
 55 64  1  0  0  0  0
 56 64  1  0  0  0  0
 57 66  1  0  0  0  0
 58 75  1  0  0  0  0
 59 63  1  0  0  0  0
 59 83  1  0  0  0  0
 60 74  1  0  0  0  0
 61 64  1  0  0  0  0
 61 73  1  0  0  0  0
 62 75  1  0  0  0  0
 65 67  1  0  0  0  0
M  CHG  1  75   1
M  ISO  4  36 100  59 101  74 100  83 101
M  END
> <Batch ID>
0152

> <Smiles>
CNC(C)C(=O)NC(C(=O)N1Cc2cc([101O:1][101CH2:1]C(C)C3Cc4c(C(C)[100NH:0][100C:0](=O)N5CCCC(n6nc(-c7ccc(Oc8ccc(F)cc8F)cc7)c(C(N)=O)c6N)C5)cn(C)c4O3)ccc2CC1C(=O)NC1CCCc2ccccc21)C(C)(C)C

> <Shape>
0.218

> <Color>
0.053

> <Negative vol penalty>
0.000

$$$$

  -OEChem-04052321463D

 89 98  0     1  0  0  0  0  0999 V2000
  -20.7253   -9.9414   19.1874 C   0  0  0  0  0  0  0  0  0  0  0  0
  -20.8684  -11.2039   18.6208 C   0  0  0  0  0  0  0  0  0  0  0  0
  -20.2786  -27.4254   23.8814 C   0  0  0  0  0  0  0  0  0  0  0  0
  -20.8758  -27.4673   21.5407 C   0  0  0  0  0  0  0  0  0  0  0  0
  -21.4879   -9.5872   20.2995 C   0  0  0  0  0  0  0  0  0  0  0  0
  -21.7735  -12.1134   19.1667 C   0  0  0  0  0  0  0  0  0  0  0  0
  -26.1870  -17.4245   17.2615 C   0  0  0  0  0  0  0  0  0  0  0  0
  -18.9328  -27.3029   23.5358 C   0  0  0  0  0  0  0  0  0  0  0  0
  -19.5300  -27.3447   21.1951 C   0  0  0  0  0  0  0  0  0  0  0  0
  -26.4787  -18.7497   17.5817 C   0  0  0  0  0  0  0  0  0  0  0  0
  -16.4401  -29.3241   22.4750 C   0  0  0  0  0  0  0  0  0  0  0  0
  -15.5216  -30.1230   23.1559 C   0  0  0  0  0  0  0  0  0  0  0  0
  -27.8002  -17.9997   19.4553 C   0  0  0  0  0  0  0  0  0  0  0  0
  -29.2191  -24.2697   19.1159 C   0  0  0  0  0  0  0  0  0  0  0  0
  -26.5068  -23.6234   19.0254 C   0  0  0  0  0  0  0  0  0  0  0  0
  -14.3874  -28.1428   23.9493 C   0  0  0  0  0  0  0  0  0  0  0  0
  -21.2501  -27.5076   22.8838 C   0  0  0  0  0  0  0  0  0  0  0  0
  -23.5614  -26.5922   23.4563 C   0  0  0  0  0  0  0  0  0  0  0  0
  -22.4099  -10.4893   20.8534 C   0  0  0  0  0  0  0  0  0  0  0  0
  -26.6916  -16.3756   18.0435 C   0  0  0  0  0  0  0  0  0  0  0  0
  -22.5483  -11.7713   20.2881 C   0  0  0  0  0  0  0  0  0  0  0  0
  -27.5155  -16.6619   19.1414 C   0  0  0  0  0  0  0  0  0  0  0  0
  -28.2652  -25.2071   19.5122 C   0  0  0  0  0  0  0  0  0  0  0  0
  -27.4607  -22.6860   18.6291 C   0  0  0  0  0  0  0  0  0  0  0  0
  -18.5585  -27.2625   22.1927 C   0  0  0  0  0  0  0  0  0  0  0  0
  -27.2830  -19.0376   18.6805 C   0  0  0  0  0  0  0  0  0  0  0  0
  -16.3322  -27.9345   22.5311 C   0  0  0  0  0  0  0  0  0  0  0  0
  -26.9091  -24.8839   19.4669 C   0  0  0  0  0  0  0  0  0  0  0  0
  -28.8169  -23.0092   18.6743 C   0  0  0  0  0  0  0  0  0  0  0  0
  -14.4953  -29.5324   23.8931 C   0  0  0  0  0  0  0  0  0  0  0  0
  -15.3060  -27.3439   23.2683 C   0  0  0  0  0  0  0  0  0  0  0  0
  -22.6404  -27.6348   23.2402 C   0  0  0  0  0  0  0  0  0  0  0  0
  -24.7368  -27.2313   23.7668 C   0  0  0  0  0  0  0  0  0  0  0  0
  -23.3713  -25.1730   23.3829 C   0  0  0  0  0  0  0  0  0  0  0  0
  -25.3979  -14.0755   19.8154 C   0  0  0  0  0  0  0  0  0  0  0  0
  -28.4739  -13.0773   20.0690 C   0  0  0  0  0  0  0  0  0  0  0  0
  -31.7933  -13.8607   19.9482 C   0  0  0  0  0  0  0  0  0  0  0  0
  -27.8144  -31.8285   22.5216 C   0  0  0  0  0  0  0  0  0  0  0  0
  -23.1778  -10.0781   22.0846 C   0  0  0  0  0  0  0  0  0  0  0  0
  -26.3895  -14.9505   17.6690 C   0  0  0  0  0  0  0  0  0  0  0  0
  -28.0987  -15.5713   20.0009 C   0  0  0  0  0  0  0  0  0  0  0  0
  -24.3852  -10.9660   22.3742 C   0  0  0  0  0  0  0  0  0  0  0  0
  -25.9430  -31.7218   25.4268 C   0  0  0  0  0  0  0  0  0  0  0  0
  -24.0051  -12.4387   22.2574 C   0  0  0  0  0  0  0  0  0  0  0  0
  -24.9838  -30.5539   25.1978 C   0  0  0  0  0  0  0  0  0  0  0  0
  -29.6102  -29.1502   20.6972 C   0  0  0  0  0  0  0  0  0  0  0  0
  -27.3691  -29.5212   19.6068 C   0  0  0  0  0  0  0  0  0  0  0  0
  -26.1035  -32.5530   24.1590 C   0  0  0  0  0  0  0  0  0  0  0  0
  -29.5323  -30.5535   21.2920 C   0  0  0  0  0  0  0  0  0  0  0  0
  -27.3360  -30.9185   20.2172 C   0  0  0  0  0  0  0  0  0  0  0  0
  -25.6109  -30.5933   22.7334 C   0  0  0  0  0  0  0  0  0  0  0  0
  -23.5375  -12.7767   20.8366 C   0  0  1  0  0  0  0  0  0  0  0  0
  -26.5355  -13.9816   18.8383 C   0  0  1  0  0  0  0  0  0  0  0  0
  -28.8111  -29.0418   19.3920 C   0  0  0  0  0  0  0  0  0  0  0  0
  -25.4173  -29.7127   23.9842 C   0  0  2  0  0  0  0  0  0  0  0  0
  -34.0692  -12.8432   20.2352 C   0  0  0  0  0  0  0  0  0  0  0  0
  -30.1244  -27.3748   18.0656 C   0  0  0  0  0  0  0  0  0  0  0  0
  -28.1017  -13.1049   23.0973 C   0  0  0  0  0  0  0  0  0  0  0  0
  -30.5927  -13.0200   23.3343 C   0  0  0  0  0  0  0  0  0  0  0  0
  -29.3828  -11.1437   22.2215 C   0  0  0  0  0  0  0  0  0  0  0  0
  -32.5526  -14.4866   17.1570 C   0  0  0  0  0  0  0  0  0  0  0  0
  -24.6020  -25.3740   19.7716 C   0  0  0  0  0  0  0  0  0  0  0  0
  -28.7186  -26.5666   19.9856 C   0  0  0  0  0  0  0  0  0  0  0  0
  -27.0122  -21.3420   18.1588 C   0  0  0  0  0  0  0  0  0  1  0  0
  -29.6133  -13.3559   21.0193 C   0  0  1  0  0  0  0  0  0  0  0  0
  -32.9623  -13.1883   19.2511 C   0  0  2  0  0  0  0  0  0  0  0  0
  -28.8342  -27.6120   18.8570 C   0  0  1  0  0  0  0  0  0  0  0  0
  -29.4102  -12.6770   22.4032 C   0  0  0  0  0  0  0  0  0  0  0  0
  -23.1840  -28.8443   23.4000 N   0  0  0  0  0  0  0  0  0  0  0  0
  -24.4592  -28.5658   23.7200 N   0  0  0  0  0  0  0  0  0  0  0  0
  -27.7693  -14.1942   19.5978 N   0  0  0  0  0  0  0  0  0  0  0  0
  -26.5112  -31.7178   23.0295 N   0  0  0  0  0  0  0  0  0  0  0  0
  -28.1465  -30.9960   21.4399 N   0  0  0  0  0  0  0  0  0  0  0  0
  -25.9704  -26.7762   24.0727 N   0  0  0  0  0  0  0  0  0  0  0  0
  -22.1000  -24.6854   23.0505 N   0  0  0  0  0  0  0  0  0  0  0  0
  -24.6727  -12.9068   19.9484 N   0  0  0  0  0  0  0  0  0  0  0  0
  -30.8312  -12.9485   20.3269 N   0  0  0  0  0  0  0  0  0  0  0  0
  -33.5271  -14.0861   18.2043 N   0  3  0  0  0  0  0  0  0  0  0  0
  -24.2972  -24.3610   23.6215 O   0  0  0  0  0  0  0  0  0  0  0  0
  -25.1941  -15.1297   20.4060 O   0  0  0  0  0  0  0  0  0  0  0  0
  -28.2230  -11.9123   19.7507 O   0  0  0  0  0  0  0  0  0  0  0  0
  -31.7408  -15.0734   20.1410 O   0  0  0  0  0  0  0  0  0  0  0  0
  -28.6345  -32.6184   23.0057 O   0  0  0  0  0  0  0  0  0  0  0  0
  -29.7616  -22.1056   18.2900 O   0  0  0  0  0  0  0  0  0  0  0  0
  -17.2454  -27.1428   21.8551 O   0  0  0  0  0  0  0  0  0  0  0  0
  -25.9644  -25.7880   19.8499 O   0  0  0  0  0  0  0  0  0  0  0  0
  -27.5708  -20.3393   18.9979 O   0  0  0  0  0  0  0  0  0  1  0  0
  -13.6142  -30.2996   24.5483 F   0  0  0  0  0  0  0  0  0  0  0  0
  -15.1980  -26.0094   23.3270 F   0  0  0  0  0  0  0  0  0  0  0  0
  1  2  1  0  0  0  0
  1  5  2  0  0  0  0
  2  6  2  0  0  0  0
  3  8  2  0  0  0  0
  3 17  1  0  0  0  0
  4  9  1  0  0  0  0
  4 17  2  0  0  0  0
  5 19  1  0  0  0  0
  6 21  1  0  0  0  0
  7 10  2  0  0  0  0
  7 20  1  0  0  0  0
  8 25  1  0  0  0  0
  9 25  2  0  0  0  0
 10 26  1  0  0  0  0
 11 12  2  0  0  0  0
 11 27  1  0  0  0  0
 12 30  1  0  0  0  0
 13 22  1  0  0  0  0
 13 26  2  0  0  0  0
 14 23  2  0  0  0  0
 14 29  1  0  0  0  0
 15 24  1  0  0  0  0
 15 28  2  0  0  0  0
 16 30  2  0  0  0  0
 16 31  1  0  0  0  0
 17 32  1  0  0  0  0
 18 32  1  0  0  0  0
 18 33  2  0  0  0  0
 18 34  1  0  0  0  0
 19 21  2  0  0  0  0
 19 39  1  0  0  0  0
 20 22  2  0  0  0  0
 20 40  1  0  0  0  0
 21 52  1  0  0  0  0
 22 41  1  0  0  0  0
 23 28  1  0  0  0  0
 23 63  1  0  0  0  0
 24 29  2  0  0  0  0
 24 64  1  0  0  0  0
 25 85  1  0  0  0  0
 26 87  1  0  0  0  0
 27 31  2  0  0  0  0
 27 85  1  0  0  0  0
 28 86  1  0  0  0  0
 29 84  1  0  0  0  0
 30 88  1  0  0  0  0
 31 89  1  0  0  0  0
 32 69  2  0  0  0  0
 33 70  1  0  0  0  0
 33 74  1  0  0  0  0
 34 75  1  0  0  0  0
 34 79  2  0  0  0  0
 35 53  1  0  0  0  0
 35 76  1  0  0  0  0
 35 80  2  0  0  0  0
 36 65  1  0  0  0  0
 36 71  1  0  0  0  0
 36 81  2  0  0  0  0
 37 66  1  0  0  0  0
 37 77  1  0  0  0  0
 37 82  2  0  0  0  0
 38 72  1  0  0  0  0
 38 73  1  0  0  0  0
 38 83  2  0  0  0  0
 39 42  1  0  0  0  0
 40 53  1  0  0  0  0
 41 71  1  0  0  0  0
 42 44  1  0  0  0  0
 43 45  1  0  0  0  0
 43 48  1  0  0  0  0
 44 52  1  0  0  0  0
 45 55  1  0  0  0  0
 46 49  1  0  0  0  0
 46 54  1  0  0  0  0
 47 50  1  0  0  0  0
 47 54  1  0  0  0  0
 48 72  1  0  0  0  0
 49 73  1  0  0  0  0
 50 73  1  0  0  0  0
 51 55  1  0  0  0  0
 51 72  1  0  0  0  0
 52 76  1  0  0  0  0
 53 71  1  0  0  0  0
 54 67  1  0  0  0  0
 55 70  1  0  0  0  0
 56 66  1  0  0  0  0
 57 67  1  0  0  0  0
 58 68  1  0  0  0  0
 59 68  1  0  0  0  0
 60 68  1  0  0  0  0
 61 78  1  0  0  0  0
 62 86  1  0  0  0  0
 63 67  1  0  0  0  0
 64 87  1  0  0  0  0
 65 68  1  0  0  0  0
 65 77  1  0  0  0  0
 66 78  1  0  0  0  0
 69 70  1  0  0  0  0
M  CHG  1  78   1
M  ISO  4  38 100  64 101  73 100  87 101
M  END
> <Batch ID>
0152

> <Smiles>
CNC(C)C(=O)NC(C(=O)N1Cc2cc([101O:1][101CH2:1]c3cc(OC)c(CC(C)C4CC[100N:0]([100C:0](=O)N5CCCC(n6nc(-c7ccc(Oc8ccc(F)cc8F)cc7)c(C(N)=O)c6N)C5)CC4)cc3O)ccc2CC1C(=O)NC1CCCc2ccccc21)C(C)(C)C

> <Shape>
0.278

> <Color>
0.067

> <Negative vol penalty>
0.000

$$$$

  -OEChem-04052321463D

 83 92  0     1  0  0  0  0  0999 V2000
  -32.2242  -26.7596   28.7854 C   0  0  0  0  0  0  0  0  0  0  0  0
  -32.5074  -27.7828   27.8863 C   0  0  0  0  0  0  0  0  0  0  0  0
  -29.6563  -18.2754   21.9455 C   0  0  0  0  0  0  0  0  0  0  0  0
  -30.7931  -17.6203   19.9168 C   0  0  0  0  0  0  0  0  0  0  0  0
  -32.7590  -25.4879   28.5835 C   0  0  0  0  0  0  0  0  0  0  0  0
  -33.3267  -27.5351   26.7854 C   0  0  0  0  0  0  0  0  0  0  0  0
  -29.3759  -26.5334   23.9758 C   0  0  0  0  0  0  0  0  0  0  0  0
  -29.4480  -16.9331   22.2623 C   0  0  0  0  0  0  0  0  0  0  0  0
  -30.5849  -16.2779   20.2336 C   0  0  0  0  0  0  0  0  0  0  0  0
  -28.4132  -27.3565   24.5583 C   0  0  0  0  0  0  0  0  0  0  0  0
  -30.0374  -12.6861   20.3273 C   0  0  0  0  0  0  0  0  0  0  0  0
  -29.5939  -11.8411   19.3100 C   0  0  0  0  0  0  0  0  0  0  0  0
  -23.9094  -28.7902   20.1211 C   0  0  0  0  0  0  0  0  0  0  0  0
  -29.4992  -29.2894   23.6077 C   0  0  0  0  0  0  0  0  0  0  0  0
  -26.6080  -28.8497   21.0828 C   0  0  0  0  0  0  0  0  0  0  0  0
  -27.6106  -13.1960   19.0492 C   0  0  0  0  0  0  0  0  0  0  0  0
  -30.3288  -18.6190   20.7728 C   0  0  0  0  0  0  0  0  0  0  0  0
  -31.6465  -20.8032   20.8048 C   0  0  0  0  0  0  0  0  0  0  0  0
  -33.5774  -25.2221   27.4744 C   0  0  0  0  0  0  0  0  0  0  0  0
  -30.4156  -27.0839   23.2126 C   0  0  0  0  0  0  0  0  0  0  0  0
  -33.8741  -26.2590   26.5693 C   0  0  0  0  0  0  0  0  0  0  0  0
  -24.8428  -27.8748   19.7172 C   0  0  0  0  0  0  0  0  0  0  0  0
  -30.4725  -28.4709   23.0144 C   0  0  0  0  0  0  0  0  0  0  0  0
  -24.3380  -29.7671   21.0313 C   0  0  0  0  0  0  0  0  0  0  0  0
  -25.6723  -29.7949   21.5072 C   0  0  0  0  0  0  0  0  0  0  0  0
  -26.1313  -27.9342   20.1886 C   0  0  0  0  0  0  0  0  0  0  0  0
  -29.9123  -15.9343   21.4064 C   0  0  0  0  0  0  0  0  0  0  0  0
  -28.4763  -28.7349   24.3767 C   0  0  0  0  0  0  0  0  0  0  0  0
  -29.2674  -13.7860   20.7056 C   0  0  0  0  0  0  0  0  0  0  0  0
  -28.3805  -12.0961   18.6709 C   0  0  0  0  0  0  0  0  0  0  0  0
  -28.0541  -14.0410   20.0666 C   0  0  0  0  0  0  0  0  0  0  0  0
  -30.5438  -20.0055   20.4447 C   0  0  0  0  0  0  0  0  0  0  0  0
  -31.3752  -22.0322   20.2549 C   0  0  0  0  0  0  0  0  0  0  0  0
  -32.8117  -20.4635   21.5680 C   0  0  0  0  0  0  0  0  0  0  0  0
  -33.5844  -27.1476   23.4536 C   0  0  0  0  0  0  0  0  0  0  0  0
  -33.3881  -28.5614   20.5408 C   0  0  0  0  0  0  0  0  0  0  0  0
  -31.5304  -30.3570   18.3111 C   0  0  0  0  0  0  0  0  0  0  0  0
  -27.7011  -26.1180   19.5780 C   0  0  0  0  0  0  0  0  0  0  0  0
  -34.1709  -23.8438   27.3239 C   0  0  0  0  0  0  0  0  0  0  0  0
  -31.4310  -26.1802   22.5688 C   0  0  0  0  0  0  0  0  0  0  0  0
  -25.1771  -26.6655   18.8925 C   0  0  0  0  0  0  0  0  0  0  0  0
  -31.5567  -29.1099   22.1871 C   0  0  0  0  0  0  0  0  0  0  0  0
  -34.7254  -23.5684   25.9286 C   0  0  0  0  0  0  0  0  0  0  0  0
  -27.8907  -23.4816   16.9363 C   0  0  0  0  0  0  0  0  0  0  0  0
  -35.5747  -24.7419   25.4505 C   0  0  0  0  0  0  0  0  0  0  0  0
  -28.6089  -22.3745   17.6963 C   0  0  0  0  0  0  0  0  0  0  0  0
  -27.0318  -24.3570   17.8489 C   0  0  0  0  0  0  0  0  0  0  0  0
  -28.5042  -23.7955   19.7699 C   0  0  0  0  0  0  0  0  0  0  0  0
  -34.7384  -26.0232   25.3497 C   0  0  1  0  0  0  0  0  0  0  0  0
  -32.7394  -26.8916   22.2379 C   0  0  1  0  0  0  0  0  0  0  0  0
  -29.4186  -22.9703   18.8548 C   0  0  1  0  0  0  0  0  0  0  0  0
  -23.3502  -30.7882   21.4988 C   0  0  0  0  0  0  0  0  0  0  0  0
  -31.6530  -31.3951   16.0297 C   0  0  0  0  0  0  0  0  0  0  0  0
  -25.3749  -28.9275   25.7925 C   0  0  0  0  0  0  0  0  0  0  0  0
  -35.0818  -30.8349   21.6689 C   0  0  0  0  0  0  0  0  0  0  0  0
  -34.3795  -32.2343   19.7153 C   0  0  0  0  0  0  0  0  0  0  0  0
  -35.6836  -30.1407   19.3429 C   0  0  0  0  0  0  0  0  0  0  0  0
  -29.3162  -28.6741   17.2992 C   0  0  0  0  0  0  0  0  0  0  0  0
  -26.1043  -30.8433   22.4819 C   0  0  0  0  0  0  0  0  0  0  0  0
  -25.6205  -30.6024   23.9248 C   0  0  0  0  0  0  0  0  0  0  0  0
  -33.2610  -29.9829   20.0487 C   0  0  1  0  0  0  0  0  0  0  0  0
  -31.2682  -30.1598   16.8290 C   0  0  2  0  0  0  0  0  0  0  0  0
  -26.1796  -29.3239   24.5613 C   0  0  1  0  0  0  0  0  0  1  0  0
  -34.5820  -30.7866   20.2112 C   0  0  0  0  0  0  0  0  0  0  0  0
  -29.6394  -20.6718   19.7221 N   0  0  0  0  0  0  0  0  0  0  0  0
  -30.1733  -21.9012   19.6238 N   0  0  0  0  0  0  0  0  0  0  0  0
  -26.5252  -26.8204   19.4766 N   0  0  0  0  0  0  0  0  0  0  0  0
  -32.5299  -28.1847   21.5835 N   0  0  0  0  0  0  0  0  0  0  0  0
  -27.7562  -24.8257   19.0353 N   0  0  0  0  0  0  0  0  0  0  0  0
  -32.0500  -23.2015   20.2546 N   0  0  0  0  0  0  0  0  0  0  0  0
  -32.9316  -19.1560   22.0582 N   0  0  0  0  0  0  0  0  0  0  0  0
  -33.9283  -26.0050   24.1506 N   0  0  0  0  0  0  0  0  0  0  0  0
  -32.7786  -29.8977   18.6745 N   0  0  0  0  0  0  0  0  0  0  0  0
  -29.8243  -29.8774   16.5915 N   0  3  0  0  0  0  0  0  0  0  0  0
  -33.7119  -21.2993   21.8220 O   0  0  0  0  0  0  0  0  0  0  0  0
  -33.9022  -28.2966   23.7375 O   0  0  0  0  0  0  0  0  0  0  0  0
  -34.2134  -27.8108   20.0143 O   0  0  0  0  0  0  0  0  0  0  0  0
  -30.7113  -30.8709   19.0699 O   0  0  0  0  0  0  0  0  0  0  0  0
  -28.6710  -26.6010   20.1793 O   0  0  0  0  0  0  0  0  0  0  0  0
  -29.7095  -14.6244   21.7153 O   0  0  0  0  0  0  0  0  0  0  0  0
  -27.5325  -29.5457   24.9482 O   0  0  0  0  0  0  0  0  0  1  0  0
  -27.9555  -11.2855   17.6929 F   0  0  0  0  0  0  0  0  0  0  0  0
  -27.3106  -15.0968   20.4249 F   0  0  0  0  0  0  0  0  0  0  0  0
  1  2  1  0  0  0  0
  1  5  2  0  0  0  0
  2  6  2  0  0  0  0
  3  8  2  0  0  0  0
  3 17  1  0  0  0  0
  4  9  1  0  0  0  0
  4 17  2  0  0  0  0
  5 19  1  0  0  0  0
  6 21  1  0  0  0  0
  7 10  2  0  0  0  0
  7 20  1  0  0  0  0
  8 27  1  0  0  0  0
  9 27  2  0  0  0  0
 10 28  1  0  0  0  0
 11 12  2  0  0  0  0
 11 29  1  0  0  0  0
 12 30  1  0  0  0  0
 13 22  2  0  0  0  0
 13 24  1  0  0  0  0
 14 23  1  0  0  0  0
 14 28  2  0  0  0  0
 15 25  1  0  0  0  0
 15 26  2  0  0  0  0
 16 30  2  0  0  0  0
 16 31  1  0  0  0  0
 17 32  1  0  0  0  0
 18 32  1  0  0  0  0
 18 33  2  0  0  0  0
 18 34  1  0  0  0  0
 19 21  2  0  0  0  0
 19 39  1  0  0  0  0
 20 23  2  0  0  0  0
 20 40  1  0  0  0  0
 21 49  1  0  0  0  0
 22 26  1  0  0  0  0
 22 41  1  0  0  0  0
 23 42  1  0  0  0  0
 24 25  2  0  0  0  0
 24 52  1  0  0  0  0
 25 59  1  0  0  0  0
 26 67  1  0  0  0  0
 27 80  1  0  0  0  0
 28 81  1  0  0  0  0
 29 31  2  0  0  0  0
 29 80  1  0  0  0  0
 30 82  1  0  0  0  0
 31 83  1  0  0  0  0
 32 65  2  0  0  0  0
 33 66  1  0  0  0  0
 33 70  1  0  0  0  0
 34 71  1  0  0  0  0
 34 75  2  0  0  0  0
 35 50  1  0  0  0  0
 35 72  1  0  0  0  0
 35 76  2  0  0  0  0
 36 61  1  0  0  0  0
 36 68  1  0  0  0  0
 36 77  2  0  0  0  0
 37 62  1  0  0  0  0
 37 73  1  0  0  0  0
 37 78  2  0  0  0  0
 38 67  1  0  0  0  0
 38 69  1  0  0  0  0
 38 79  2  0  0  0  0
 39 43  1  0  0  0  0
 40 50  1  0  0  0  0
 41 67  1  0  0  0  0
 42 68  1  0  0  0  0
 43 45  1  0  0  0  0
 44 46  1  0  0  0  0
 44 47  1  0  0  0  0
 45 49  1  0  0  0  0
 46 51  1  0  0  0  0
 47 69  1  0  0  0  0
 48 51  1  0  0  0  0
 48 69  1  0  0  0  0
 49 72  1  0  0  0  0
 50 68  1  0  0  0  0
 51 66  1  0  0  0  0
 53 62  1  0  0  0  0
 54 63  1  0  0  0  0
 55 64  1  0  0  0  0
 56 64  1  0  0  0  0
 57 64  1  0  0  0  0
 58 74  1  0  0  0  0
 59 60  1  0  0  0  0
 60 63  1  0  0  0  0
 61 64  1  0  0  0  0
 61 73  1  0  0  0  0
 62 74  1  0  0  0  0
 63 81  1  0  0  0  0
 65 66  1  0  0  0  0
M  CHG  1  74   1
M  ISO  4  38 100  63 101  67 100  81 101
M  END
> <Batch ID>
0152

> <Smiles>
CNC(C)C(=O)NC(C(=O)N1Cc2cc([101O:1][101CH:1](C)CCc3cc4c(cc3C)C[100N:0]4[100C:0](=O)N3CCCC(n4nc(-c5ccc(Oc6ccc(F)cc6F)cc5)c(C(N)=O)c4N)C3)ccc2CC1C(=O)NC1CCCc2ccccc21)C(C)(C)C

> <Shape>
0.194

> <Color>
0.065

> <Negative vol penalty>
0.000

$$$$

  -OEChem-04052321463D

 87 97  0     1  0  0  0  0  0999 V2000
  -17.0666  -29.2205   24.7750 C   0  0  0  0  0  0  0  0  0  0  0  0
  -17.8063  -28.1222   24.3484 C   0  0  0  0  0  0  0  0  0  0  0  0
  -30.7925  -19.3423   20.3802 C   0  0  0  0  0  0  0  0  0  0  0  0
  -28.3920  -19.0758   20.3193 C   0  0  0  0  0  0  0  0  0  0  0  0
  -17.2254  -30.4539   24.1446 C   0  0  0  0  0  0  0  0  0  0  0  0
  -18.7045  -28.2565   23.2903 C   0  0  0  0  0  0  0  0  0  0  0  0
  -25.5027  -17.2394   24.7537 C   0  0  0  0  0  0  0  0  0  0  0  0
  -23.1487  -26.0130   24.2181 C   0  0  0  0  0  0  0  0  0  0  0  0
  -25.4578  -16.0776   23.9802 C   0  0  0  0  0  0  0  0  0  0  0  0
  -30.6665  -20.6081   19.8078 C   0  0  0  0  0  0  0  0  0  0  0  0
  -28.2660  -20.3416   19.7469 C   0  0  0  0  0  0  0  0  0  0  0  0
  -23.2035  -24.6268   24.0792 C   0  0  0  0  0  0  0  0  0  0  0  0
  -28.6379  -21.7428   16.6925 C   0  0  0  0  0  0  0  0  0  0  0  0
  -27.7724  -21.8801   15.6074 C   0  0  0  0  0  0  0  0  0  0  0  0
  -24.4187  -17.2874   22.1428 C   0  0  0  0  0  0  0  0  0  0  0  0
  -24.2108  -24.8907   21.9032 C   0  0  0  0  0  0  0  0  0  0  0  0
  -26.4697  -23.4912   16.8501 C   0  0  0  0  0  0  0  0  0  0  0  0
  -29.6552  -18.5762   20.6359 C   0  0  0  0  0  0  0  0  0  0  0  0
  -29.7850  -16.9514   22.5982 C   0  0  0  0  0  0  0  0  0  0  0  0
  -18.1331  -30.6057   23.0846 C   0  0  0  0  0  0  0  0  0  0  0  0
  -25.0148  -18.4133   24.2045 C   0  0  0  0  0  0  0  0  0  0  0  0
  -23.6154  -26.8499   23.1942 C   0  0  0  0  0  0  0  0  0  0  0  0
  -18.8747  -29.4928   22.6442 C   0  0  0  0  0  0  0  0  0  0  0  0
  -24.4785  -18.4371   22.9126 C   0  0  0  0  0  0  0  0  0  0  0  0
  -24.1632  -26.2872   22.0326 C   0  0  0  0  0  0  0  0  0  0  0  0
  -24.9196  -16.1015   22.6839 C   0  0  0  0  0  0  0  0  0  0  0  0
  -29.4033  -21.1077   19.4912 C   0  0  0  0  0  0  0  0  0  0  0  0
  -23.7319  -24.0655   22.9204 C   0  0  0  0  0  0  0  0  0  0  0  0
  -28.4193  -22.4797   17.8566 C   0  0  0  0  0  0  0  0  0  0  0  0
  -26.6883  -22.7543   15.6861 C   0  0  0  0  0  0  0  0  0  0  0  0
  -27.3352  -23.3539   17.9354 C   0  0  0  0  0  0  0  0  0  0  0  0
  -29.7848  -17.2684   21.2266 C   0  0  0  0  0  0  0  0  0  0  0  0
  -29.9347  -15.5866   22.6352 C   0  0  0  0  0  0  0  0  0  0  0  0
  -29.6608  -17.8135   23.7371 C   0  0  0  0  0  0  0  0  0  0  0  0
  -22.2939  -29.0477   21.3162 C   0  0  0  0  0  0  0  0  0  0  0  0
  -25.3588  -29.5127   20.3609 C   0  0  0  0  0  0  0  0  0  0  0  0
  -28.5121  -28.2513   20.0258 C   0  0  0  0  0  0  0  0  0  0  0  0
  -26.8594  -13.5189   19.1665 C   0  0  0  0  0  0  0  0  0  0  0  0
  -18.2358  -31.9473   22.4032 C   0  0  0  0  0  0  0  0  0  0  0  0
  -23.5738  -28.3431   23.3708 C   0  0  0  0  0  0  0  0  0  0  0  0
  -24.9245  -19.7612   24.8477 C   0  0  0  0  0  0  0  0  0  0  0  0
  -23.9772  -19.8033   22.5650 C   0  0  0  0  0  0  0  0  0  0  0  0
  -24.6961  -27.1417   20.9127 C   0  0  0  0  0  0  0  0  0  0  0  0
  -19.4824  -32.0956   21.5348 C   0  0  0  0  0  0  0  0  0  0  0  0
  -30.2841  -14.0354   18.2878 C   0  0  0  0  0  0  0  0  0  0  0  0
  -24.6617  -11.1413   20.7994 C   0  0  0  0  0  0  0  0  0  0  0  0
  -19.6737  -30.8606   20.6602 C   0  0  0  0  0  0  0  0  0  0  0  0
  -31.0652  -13.7226   19.5593 C   0  0  0  0  0  0  0  0  0  0  0  0
  -23.8091  -12.3937   20.9468 C   0  0  0  0  0  0  0  0  0  0  0  0
  -29.0779  -13.1179   18.1605 C   0  0  0  0  0  0  0  0  0  0  0  0
  -26.0746  -11.7030   20.7682 C   0  0  0  0  0  0  0  0  0  0  0  0
  -28.8683  -12.9679   20.6343 C   0  0  0  0  0  0  0  0  0  0  0  0
  -19.8771  -29.6046   21.5161 C   0  0  1  0  0  0  0  0  0  0  0  0
  -23.6051  -29.1022   22.0478 C   0  0  1  0  0  0  0  0  0  0  0  0
  -24.6988  -20.6696   23.6198 C   0  0  1  0  0  0  0  0  0  0  0  0
  -30.1829  -13.7609   20.8174 C   0  0  2  0  0  0  0  0  0  0  0  0
  -24.5379  -13.4197   20.0747 C   0  0  1  0  0  0  0  0  0  0  0  0
  -30.7949  -28.8541   19.1757 C   0  0  0  0  0  0  0  0  0  0  0  0
  -24.3937  -29.1142   17.4939 C   0  0  0  0  0  0  0  0  0  0  0  0
  -26.7791  -28.7789   16.8114 C   0  0  0  0  0  0  0  0  0  0  0  0
  -26.0575  -30.9581   17.7878 C   0  0  0  0  0  0  0  0  0  0  0  0
  -29.7249  -27.9175   22.7047 C   0  0  0  0  0  0  0  0  0  0  0  0
  -23.9308  -21.9367   23.9618 C   0  0  0  0  0  0  0  0  0  1  0  0
  -24.3694  -14.8383   20.6037 C   0  0  0  0  0  0  0  0  0  0  0  0
  -26.2436  -28.9298   19.2856 C   0  0  1  0  0  0  0  0  0  0  0  0
  -29.8705  -28.8270   20.3830 C   0  0  2  0  0  0  0  0  0  0  0  0
  -25.8567  -29.4289   17.8648 C   0  0  0  0  0  0  0  0  0  0  0  0
  -29.9236  -16.1916   20.4485 N   0  0  0  0  0  0  0  0  0  0  0  0
  -30.0125  -15.1847   21.3341 N   0  0  0  0  0  0  0  0  0  0  0  0
  -24.6277  -28.5962   21.1299 N   0  0  0  0  0  0  0  0  0  0  0  0
  -28.2115  -13.1865   19.3374 N   0  0  0  0  0  0  0  0  0  0  0  0
  -25.9391  -12.9822   20.0696 N   0  0  0  0  0  0  0  0  0  0  0  0
  -30.0063  -14.7030   23.6533 N   0  0  0  0  0  0  0  0  0  0  0  0
  -29.5142  -19.1903   23.5200 N   0  0  0  0  0  0  0  0  0  0  0  0
  -24.8912  -14.9288   21.9271 N   0  0  0  0  0  0  0  0  0  0  0  0
  -21.2282  -29.5583   22.0326 N   0  0  0  0  0  0  0  0  0  0  0  0
  -27.6155  -29.2381   19.6743 N   0  0  0  0  0  0  0  0  0  0  0  0
  -30.5149  -28.0102   21.4501 N   0  3  0  0  0  0  0  0  0  0  0  0
  -29.6958  -17.3777   24.9128 O   0  0  0  0  0  0  0  0  0  0  0  0
  -22.2523  -28.5786   20.1849 O   0  0  0  0  0  0  0  0  0  0  0  0
  -25.3233  -30.7358   20.5177 O   0  0  0  0  0  0  0  0  0  0  0  0
  -28.2715  -27.0463   20.0521 O   0  0  0  0  0  0  0  0  0  0  0  0
  -26.4891  -14.2545   18.2419 O   0  0  0  0  0  0  0  0  0  0  0  0
  -29.2799  -22.3429   18.9328 O   0  0  0  0  0  0  0  0  0  0  0  0
  -23.7865  -22.6995   22.7807 O   0  0  0  0  0  0  0  0  0  1  0  0
  -25.8582  -22.8871   14.6434 F   0  0  0  0  0  0  0  0  0  0  0  0
  -27.1208  -24.0653   19.0505 F   0  0  0  0  0  0  0  0  0  0  0  0
  1  2  1  0  0  0  0
  1  5  2  0  0  0  0
  2  6  2  0  0  0  0
  3 10  2  0  0  0  0
  3 18  1  0  0  0  0
  4 11  1  0  0  0  0
  4 18  2  0  0  0  0
  5 20  1  0  0  0  0
  6 23  1  0  0  0  0
  7  9  2  0  0  0  0
  7 21  1  0  0  0  0
  8 12  2  0  0  0  0
  8 22  1  0  0  0  0
  9 26  1  0  0  0  0
 10 27  1  0  0  0  0
 11 27  2  0  0  0  0
 12 28  1  0  0  0  0
 13 14  2  0  0  0  0
 13 29  1  0  0  0  0
 14 30  1  0  0  0  0
 15 24  1  0  0  0  0
 15 26  2  0  0  0  0
 16 25  1  0  0  0  0
 16 28  2  0  0  0  0
 17 30  2  0  0  0  0
 17 31  1  0  0  0  0
 18 32  1  0  0  0  0
 19 32  1  0  0  0  0
 19 33  2  0  0  0  0
 19 34  1  0  0  0  0
 20 23  2  0  0  0  0
 20 39  1  0  0  0  0
 21 24  2  0  0  0  0
 21 41  1  0  0  0  0
 22 25  2  0  0  0  0
 22 40  1  0  0  0  0
 23 53  1  0  0  0  0
 24 42  1  0  0  0  0
 25 43  1  0  0  0  0
 26 75  1  0  0  0  0
 27 84  1  0  0  0  0
 28 85  1  0  0  0  0
 29 31  2  0  0  0  0
 29 84  1  0  0  0  0
 30 86  1  0  0  0  0
 31 87  1  0  0  0  0
 32 68  2  0  0  0  0
 33 69  1  0  0  0  0
 33 73  1  0  0  0  0
 34 74  1  0  0  0  0
 34 79  2  0  0  0  0
 35 54  1  0  0  0  0
 35 76  1  0  0  0  0
 35 80  2  0  0  0  0
 36 65  1  0  0  0  0
 36 70  1  0  0  0  0
 36 81  2  0  0  0  0
 37 66  1  0  0  0  0
 37 77  1  0  0  0  0
 37 82  2  0  0  0  0
 38 71  1  0  0  0  0
 38 72  1  0  0  0  0
 38 83  2  0  0  0  0
 39 44  1  0  0  0  0
 40 54  1  0  0  0  0
 41 55  1  0  0  0  0
 42 55  1  0  0  0  0
 43 70  1  0  0  0  0
 44 47  1  0  0  0  0
 45 48  1  0  0  0  0
 45 50  1  0  0  0  0
 46 49  1  0  0  0  0
 46 51  1  0  0  0  0
 47 53  1  0  0  0  0
 48 56  1  0  0  0  0
 49 57  1  0  0  0  0
 50 71  1  0  0  0  0
 51 72  1  0  0  0  0
 52 56  1  0  0  0  0
 52 71  1  0  0  0  0
 53 76  1  0  0  0  0
 54 70  1  0  0  0  0
 55 63  1  0  0  0  0
 56 69  1  0  0  0  0
 57 64  1  0  0  0  0
 57 72  1  0  0  0  0
 58 66  1  0  0  0  0
 59 67  1  0  0  0  0
 60 67  1  0  0  0  0
 61 67  1  0  0  0  0
 62 78  1  0  0  0  0
 63 85  1  0  0  0  0
 64 75  1  0  0  0  0
 65 67  1  0  0  0  0
 65 77  1  0  0  0  0
 66 78  1  0  0  0  0
 68 69  1  0  0  0  0
M  CHG  1  78   1
M  ISO  4  38 100  63 101  72 100  85 101
M  END
> <Batch ID>
0152

> <Smiles>
CNC(C)C(=O)NC(C(=O)N1Cc2cc([101O:1][101CH2:1]C3Cc4ccc(NCC5CCC[100N:0]5[100C:0](=O)N5CCCC(n6nc(-c7ccc(Oc8ccc(F)cc8F)cc7)c(C(N)=O)c6N)C5)cc4C3)ccc2CC1C(=O)NC1CCCc2ccccc21)C(C)(C)C

> <Shape>
0.244

> <Color>
0.091

> <Negative vol penalty>
0.000

$$$$

  -OEChem-04052321463D

 86 95  0     1  0  0  0  0  0999 V2000
  -29.5228  -11.5437   19.9837 C   0  0  0  0  0  0  0  0  0  0  0  0
  -29.7214  -12.7316   20.6799 C   0  0  0  0  0  0  0  0  0  0  0  0
  -27.9957  -21.2054   18.3212 C   0  0  0  0  0  0  0  0  0  0  0  0
  -29.1669  -21.9779   20.2881 C   0  0  0  0  0  0  0  0  0  0  0  0
  -28.5729  -11.4846   18.9648 C   0  0  0  0  0  0  0  0  0  0  0  0
  -28.9708  -13.8616   20.3569 C   0  0  0  0  0  0  0  0  0  0  0  0
  -26.0527  -19.6722   23.3631 C   0  0  0  0  0  0  0  0  0  0  0  0
  -28.2132  -19.8838   18.7108 C   0  0  0  0  0  0  0  0  0  0  0  0
  -29.3843  -20.6564   20.6777 C   0  0  0  0  0  0  0  0  0  0  0  0
  -26.0127  -21.0577   23.2128 C   0  0  0  0  0  0  0  0  0  0  0  0
  -31.4851  -18.1339   19.8683 C   0  0  0  0  0  0  0  0  0  0  0  0
  -32.7616  -17.7913   20.3140 C   0  0  0  0  0  0  0  0  0  0  0  0
  -24.3443  -20.8164   21.4873 C   0  0  0  0  0  0  0  0  0  0  0  0
  -31.8409  -17.1408   22.4509 C   0  0  0  0  0  0  0  0  0  0  0  0
  -28.4727  -22.2525   19.1098 C   0  0  0  0  0  0  0  0  0  0  0  0
  -28.6814  -24.2357   17.5189 C   0  0  0  0  0  0  0  0  0  0  0  0
  -27.8036  -12.6117   18.6356 C   0  0  0  0  0  0  0  0  0  0  0  0
  -25.2454  -18.8464   22.5677 C   0  0  0  0  0  0  0  0  0  0  0  0
  -28.0107  -13.8179   19.3318 C   0  0  0  0  0  0  0  0  0  0  0  0
  -24.3740  -19.4208   21.6313 C   0  0  0  0  0  0  0  0  0  0  0  0
  -28.9074  -19.6093   19.8890 C   0  0  0  0  0  0  0  0  0  0  0  0
  -25.1606  -21.6298   22.2729 C   0  0  0  0  0  0  0  0  0  0  0  0
  -30.3864  -17.9800   20.7139 C   0  0  0  0  0  0  0  0  0  0  0  0
  -32.9395  -17.2948   21.6053 C   0  0  0  0  0  0  0  0  0  0  0  0
  -30.5643  -17.4835   22.0052 C   0  0  0  0  0  0  0  0  0  0  0  0
  -28.2489  -23.6178   18.7076 C   0  0  0  0  0  0  0  0  0  0  0  0
  -28.2181  -25.5252   17.6139 C   0  0  0  0  0  0  0  0  0  0  0  0
  -29.4345  -23.6925   16.4265 C   0  0  0  0  0  0  0  0  0  0  0  0
  -25.7952  -16.5667   20.4219 C   0  0  0  0  0  0  0  0  0  0  0  0
  -22.5698  -16.2361   20.5218 C   0  0  0  0  0  0  0  0  0  0  0  0
  -19.7015  -18.4210   20.6495 C   0  0  0  0  0  0  0  0  0  0  0  0
  -23.1747  -27.7333   19.5400 C   0  0  0  0  0  0  0  0  0  0  0  0
  -26.8220  -12.5126   17.4949 C   0  0  0  0  0  0  0  0  0  0  0  0
  -25.2807  -17.3551   22.7606 C   0  0  0  0  0  0  0  0  0  0  0  0
  -23.4722  -18.5794   20.7669 C   0  0  0  0  0  0  0  0  0  0  0  0
  -25.8049  -13.6506   17.4659 C   0  0  0  0  0  0  0  0  0  0  0  0
  -26.3235  -28.1493   21.4757 C   0  0  0  0  0  0  0  0  0  0  0  0
  -26.5008  -14.9936   17.6634 C   0  0  0  0  0  0  0  0  0  0  0  0
  -26.9130  -26.8432   20.9322 C   0  0  0  0  0  0  0  0  0  0  0  0
  -19.8974  -28.1156   20.5894 C   0  0  0  0  0  0  0  0  0  0  0  0
  -23.9641  -25.1813   22.6080 C   0  0  0  0  0  0  0  0  0  0  0  0
  -22.6781  -23.4787   22.5830 C   0  0  0  0  0  0  0  0  0  0  0  0
  -25.2542  -28.7516   20.5644 C   0  0  0  0  0  0  0  0  0  0  0  0
  -21.0974  -28.9384   20.1322 C   0  0  0  0  0  0  0  0  0  0  0  0
  -22.4946  -28.0404   21.9603 C   0  0  0  0  0  0  0  0  0  0  0  0
  -25.4066  -26.9135   18.9042 C   0  0  0  0  0  0  0  0  0  0  0  0
  -27.1987  -15.0580   19.0273 C   0  0  1  0  0  0  0  0  0  0  0  0
  -24.7910  -16.5829   21.5395 C   0  0  1  0  0  0  0  0  0  0  0  0
  -19.9732  -27.8161   22.0955 C   0  0  2  0  0  0  0  0  0  0  0  0
  -22.4577  -24.9775   22.9011 C   0  0  0  0  0  0  0  0  0  0  0  0
  -21.3292  -27.1752   22.4830 C   0  0  1  0  0  0  0  0  0  0  0  0
  -26.8622  -26.8082   19.3970 C   0  0  2  0  0  0  0  0  0  0  0  0
  -24.1686  -23.6852   22.9417 C   0  0  0  0  0  0  0  0  0  1  0  0
  -17.4009  -18.0407   21.5769 C   0  0  0  0  0  0  0  0  0  0  0  0
  -21.9485  -25.6820   20.5560 C   0  0  0  0  0  0  0  0  0  0  0  0
  -17.5978  -27.9272   22.8778 C   0  0  0  0  0  0  0  0  0  0  0  0
  -19.1384  -26.1704   23.7868 C   0  0  0  0  0  0  0  0  0  0  0  0
  -18.3497  -26.0382   21.4105 C   0  0  0  0  0  0  0  0  0  0  0  0
  -21.8649  -15.4342   17.6635 C   0  0  0  0  0  0  0  0  0  0  0  0
  -19.6578  -16.5779   17.9611 C   0  0  0  0  0  0  0  0  0  0  0  0
  -20.2549  -14.6296   19.3999 C   0  0  0  0  0  0  0  0  0  0  0  0
  -19.8854  -20.8036   22.3953 C   0  0  0  0  0  0  0  0  0  0  0  0
  -21.4088  -16.8476   19.7754 C   0  0  1  0  0  0  0  0  0  0  0  0
  -18.7760  -18.6375   21.8331 C   0  0  2  0  0  0  0  0  0  0  0  0
  -21.4864  -25.7239   22.0101 C   0  0  1  0  0  0  0  0  0  0  0  0
  -18.7673  -26.9897   22.5417 C   0  0  0  0  0  0  0  0  0  0  0  0
  -20.8209  -15.8866   18.7039 C   0  0  0  0  0  0  0  0  0  0  0  0
  -27.5636  -24.4467   19.4997 N   0  0  0  0  0  0  0  0  0  0  0  0
  -27.5620  -25.5986   18.8074 N   0  0  0  0  0  0  0  0  0  0  0  0
  -23.5477  -17.1259   20.9885 N   0  0  0  0  0  0  0  0  0  0  0  0
  -24.5581  -27.7276   19.7797 N   0  0  0  0  0  0  0  0  0  0  0  0
  -22.3572  -28.3084   20.5225 N   0  0  0  0  0  0  0  0  0  0  0  0
  -28.3119  -26.5921   16.7922 N   0  0  0  0  0  0  0  0  0  0  0  0
  -30.8329  -23.7747   16.4728 N   0  0  0  0  0  0  0  0  0  0  0  0
  -26.2337  -15.3023   20.0778 N   0  0  0  0  0  0  0  0  0  0  0  0
  -20.4491  -17.2709   20.7894 N   0  0  0  0  0  0  0  0  0  0  0  0
  -18.6133  -20.0940   22.1037 N   0  3  0  0  0  0  0  0  0  0  0  0
  -28.8832  -23.1650   15.4308 O   0  0  0  0  0  0  0  0  0  0  0  0
  -26.1452  -17.6231   19.9088 O   0  0  0  0  0  0  0  0  0  0  0  0
  -22.6041  -15.0147   20.6909 O   0  0  0  0  0  0  0  0  0  0  0  0
  -19.7531  -19.1927   19.6944 O   0  0  0  0  0  0  0  0  0  0  0  0
  -22.6991  -27.2476   18.5057 O   0  0  0  0  0  0  0  0  0  0  0  0
  -29.1196  -18.3198   20.2696 O   0  0  0  0  0  0  0  0  0  0  0  0
  -25.1199  -22.9846   22.1234 O   0  0  0  0  0  0  0  0  0  1  0  0
  -34.1652  -16.9644   22.0327 F   0  0  0  0  0  0  0  0  0  0  0  0
  -29.5125  -17.3323   22.8217 F   0  0  0  0  0  0  0  0  0  0  0  0
  1  2  1  0  0  0  0
  1  5  2  0  0  0  0
  2  6  2  0  0  0  0
  3  8  2  0  0  0  0
  3 15  1  0  0  0  0
  4  9  1  0  0  0  0
  4 15  2  0  0  0  0
  5 17  1  0  0  0  0
  6 19  1  0  0  0  0
  7 10  2  0  0  0  0
  7 18  1  0  0  0  0
  8 21  1  0  0  0  0
  9 21  2  0  0  0  0
 10 22  1  0  0  0  0
 11 12  2  0  0  0  0
 11 23  1  0  0  0  0
 12 24  1  0  0  0  0
 13 20  1  0  0  0  0
 13 22  2  0  0  0  0
 14 24  2  0  0  0  0
 14 25  1  0  0  0  0
 15 26  1  0  0  0  0
 16 26  1  0  0  0  0
 16 27  2  0  0  0  0
 16 28  1  0  0  0  0
 17 19  2  0  0  0  0
 17 33  1  0  0  0  0
 18 20  2  0  0  0  0
 18 34  1  0  0  0  0
 19 47  1  0  0  0  0
 20 35  1  0  0  0  0
 21 83  1  0  0  0  0
 22 84  1  0  0  0  0
 23 25  2  0  0  0  0
 23 83  1  0  0  0  0
 24 85  1  0  0  0  0
 25 86  1  0  0  0  0
 26 68  2  0  0  0  0
 27 69  1  0  0  0  0
 27 73  1  0  0  0  0
 28 74  1  0  0  0  0
 28 78  2  0  0  0  0
 29 48  1  0  0  0  0
 29 75  1  0  0  0  0
 29 79  2  0  0  0  0
 30 63  1  0  0  0  0
 30 70  1  0  0  0  0
 30 80  2  0  0  0  0
 31 64  1  0  0  0  0
 31 76  1  0  0  0  0
 31 81  2  0  0  0  0
 32 71  1  0  0  0  0
 32 72  1  0  0  0  0
 32 82  2  0  0  0  0
 33 36  1  0  0  0  0
 34 48  1  0  0  0  0
 35 70  1  0  0  0  0
 36 38  1  0  0  0  0
 37 39  1  0  0  0  0
 37 43  1  0  0  0  0
 38 47  1  0  0  0  0
 39 52  1  0  0  0  0
 40 44  1  0  0  0  0
 40 49  1  0  0  0  0
 41 50  1  0  0  0  0
 41 53  1  0  0  0  0
 42 50  1  0  0  0  0
 42 53  1  0  0  0  0
 43 71  1  0  0  0  0
 44 72  1  0  0  0  0
 45 51  1  0  0  0  0
 45 72  1  0  0  0  0
 46 52  1  0  0  0  0
 46 71  1  0  0  0  0
 47 75  1  0  0  0  0
 48 70  1  0  0  0  0
 49 51  1  0  0  0  0
 49 66  1  0  0  0  0
 50 65  1  0  0  0  0
 51 65  1  0  0  0  0
 52 69  1  0  0  0  0
 53 84  1  0  0  0  0
 54 64  1  0  0  0  0
 55 65  1  0  0  0  0
 56 66  1  0  0  0  0
 57 66  1  0  0  0  0
 58 66  1  0  0  0  0
 59 67  1  0  0  0  0
 60 67  1  0  0  0  0
 61 67  1  0  0  0  0
 62 77  1  0  0  0  0
 63 67  1  0  0  0  0
 63 76  1  0  0  0  0
 64 77  1  0  0  0  0
 68 69  1  0  0  0  0
M  CHG  1  77   1
M  ISO  4  32 100  53 101  72 100  84 101
M  END
> <Batch ID>
0152

> <Smiles>
CNC(C)C(=O)NC(C(=O)N1Cc2cc([101O:1][101CH:1]3CC(C(C)C4C[100N:0]([100C:0](=O)N5CCCC(n6nc(-c7ccc(Oc8ccc(F)cc8F)cc7)c(C(N)=O)c6N)C5)CCC4C(C)(C)C)C3)ccc2CC1C(=O)NC1CCCc2ccccc21)C(C)(C)C

> <Shape>
0.217

> <Color>
0.054

> <Negative vol penalty>
0.000

$$$$

  -OEChem-04052321463D

 82 91  0     1  0  0  0  0  0999 V2000
  -32.6261  -14.5502   20.1311 C   0  0  0  0  0  0  0  0  0  0  0  0
  -31.7165  -15.5737   19.8853 C   0  0  0  0  0  0  0  0  0  0  0  0
  -25.0739  -31.1514   24.8614 C   0  0  0  0  0  0  0  0  0  0  0  0
  -25.7021  -28.8274   25.0642 C   0  0  0  0  0  0  0  0  0  0  0  0
  -32.2194  -13.2200   20.0359 C   0  0  0  0  0  0  0  0  0  0  0  0
  -30.3998  -15.2676   19.5431 C   0  0  0  0  0  0  0  0  0  0  0  0
  -25.3725  -18.4144   21.0694 C   0  0  0  0  0  0  0  0  0  0  0  0
  -25.8907  -31.4670   25.9471 C   0  0  0  0  0  0  0  0  0  0  0  0
  -26.5190  -29.1429   26.1499 C   0  0  0  0  0  0  0  0  0  0  0  0
  -24.6067  -19.3519   20.3777 C   0  0  0  0  0  0  0  0  0  0  0  0
  -29.5820  -30.4783   26.6551 C   0  0  0  0  0  0  0  0  0  0  0  0
  -30.8592  -29.9186   26.6875 C   0  0  0  0  0  0  0  0  0  0  0  0
  -21.2761  -22.8189   16.1543 C   0  0  0  0  0  0  0  0  0  0  0  0
  -21.3029  -22.8797   18.9812 C   0  0  0  0  0  0  0  0  0  0  0  0
  -23.0872  -17.6040   19.7031 C   0  0  0  0  0  0  0  0  0  0  0  0
  -30.3296  -28.8311   28.7789 C   0  0  0  0  0  0  0  0  0  0  0  0
  -24.9795  -29.8316   24.4200 C   0  0  0  0  0  0  0  0  0  0  0  0
  -24.4986  -29.4842   21.9389 C   0  0  0  0  0  0  0  0  0  0  0  0
  -30.8946  -12.8975   19.7017 C   0  0  0  0  0  0  0  0  0  0  0  0
  -25.0068  -17.0606   21.0740 C   0  0  0  0  0  0  0  0  0  0  0  0
  -29.9754  -13.9318   19.4420 C   0  0  0  0  0  0  0  0  0  0  0  0
  -20.4060  -23.6335   16.8597 C   0  0  0  0  0  0  0  0  0  0  0  0
  -20.4191  -23.6680   18.2608 C   0  0  0  0  0  0  0  0  0  0  0  0
  -23.8486  -16.6517   20.3976 C   0  0  0  0  0  0  0  0  0  0  0  0
  -22.1799  -22.0352   16.8742 C   0  0  0  0  0  0  0  0  0  0  0  0
  -22.1929  -22.0650   18.2774 C   0  0  0  0  0  0  0  0  0  0  0  0
  -26.6133  -30.4628   26.5914 C   0  0  0  0  0  0  0  0  0  0  0  0
  -23.4655  -18.9464   19.6920 C   0  0  0  0  0  0  0  0  0  0  0  0
  -28.6786  -30.2145   27.6846 C   0  0  0  0  0  0  0  0  0  0  0  0
  -31.2330  -29.0949   27.7493 C   0  0  0  0  0  0  0  0  0  0  0  0
  -29.0524  -29.3909   28.7465 C   0  0  0  0  0  0  0  0  0  0  0  0
  -24.1354  -29.5049   23.2989 C   0  0  0  0  0  0  0  0  0  0  0  0
  -23.3499  -29.1155   21.2824 C   0  0  0  0  0  0  0  0  0  0  0  0
  -25.7614  -29.7724   21.3241 C   0  0  0  0  0  0  0  0  0  0  0  0
  -26.3587  -14.3684   20.0601 C   0  0  0  0  0  0  0  0  0  0  0  0
  -23.8083  -12.9959   21.5210 C   0  0  0  0  0  0  0  0  0  0  0  0
  -20.6013  -13.3055   22.6463 C   0  0  0  0  0  0  0  0  0  0  0  0
  -18.8308  -25.8725   20.8289 C   0  0  0  0  0  0  0  0  0  0  0  0
  -30.5137  -11.4446   19.5647 C   0  0  0  0  0  0  0  0  0  0  0  0
  -25.8287  -16.0660   21.8471 C   0  0  0  0  0  0  0  0  0  0  0  0
  -19.3323  -24.5207   16.3114 C   0  0  0  0  0  0  0  0  0  0  0  0
  -23.4016  -15.2135   20.3885 C   0  0  0  0  0  0  0  0  0  0  0  0
  -29.0056  -11.2079   19.5632 C   0  0  0  0  0  0  0  0  0  0  0  0
  -19.0530  -25.4291   17.5189 C   0  0  0  0  0  0  0  0  0  0  0  0
  -18.5884  -28.7259   22.9445 C   0  0  0  0  0  0  0  0  0  0  0  0
  -28.3113  -12.1948   18.6300 C   0  0  0  0  0  0  0  0  0  0  0  0
  -20.0397  -29.1770   23.1179 C   0  0  0  0  0  0  0  0  0  0  0  0
  -18.4734  -27.2042   22.8868 C   0  0  0  0  0  0  0  0  0  0  0  0
  -20.7837  -27.0072   22.0516 C   0  0  0  0  0  0  0  0  0  0  0  0
  -28.5322  -13.6401   19.0924 C   0  0  1  0  0  0  0  0  0  0  0  0
  -19.3458  -24.5836   18.7715 C   0  0  2  0  0  0  0  0  0  0  0  0
  -25.6480  -14.6325   21.3573 C   0  0  1  0  0  0  0  0  0  0  0  0
  -20.9566  -28.5357   22.0590 C   0  0  2  0  0  0  0  0  0  0  0  0
  -23.1284  -21.1580   16.1230 C   0  0  0  0  0  0  0  0  0  0  0  0
  -18.7707  -12.0014   23.7622 C   0  0  0  0  0  0  0  0  0  0  0  0
  -23.2397  -11.5513   18.8942 C   0  0  0  0  0  0  0  0  0  0  0  0
  -20.9428  -11.0435   19.7514 C   0  0  0  0  0  0  0  0  0  0  0  0
  -22.9429  -10.1473   20.9424 C   0  0  0  0  0  0  0  0  0  0  0  0
  -20.5489  -15.1420   24.9666 C   0  0  0  0  0  0  0  0  0  0  0  0
  -23.1583  -21.2158   19.0506 C   0  0  0  0  0  0  0  0  0  1  0  0
  -22.4108  -12.6141   21.0964 C   0  0  1  0  0  0  0  0  0  0  0  0
  -19.9572  -12.9300   23.9686 C   0  0  2  0  0  0  0  0  0  0  0  0
  -22.3933  -11.3659   20.1695 C   0  0  0  0  0  0  0  0  0  0  0  0
  -22.8560  -29.1758   23.4960 N   0  0  0  0  0  0  0  0  0  0  0  0
  -22.4052  -28.9448   22.2512 N   0  0  0  0  0  0  0  0  0  0  0  0
  -24.2420  -14.2777   21.1538 N   0  0  0  0  0  0  0  0  0  0  0  0
  -19.3668  -26.6589   21.8619 N   0  0  0  0  0  0  0  0  0  0  0  0
  -23.0658  -28.9241   19.9766 N   0  0  0  0  0  0  0  0  0  0  0  0
  -26.8371  -30.1356   22.1458 N   0  0  0  0  0  0  0  0  0  0  0  0
  -27.6673  -13.9509   20.2104 N   0  0  0  0  0  0  0  0  0  0  0  0
  -21.6396  -12.4571   22.3248 N   0  0  0  0  0  0  0  0  0  0  0  0
  -19.7457  -25.4005   19.8956 N   0  0  0  0  0  0  0  0  0  0  0  0
  -19.4805  -14.1510   24.6777 N   0  3  0  0  0  0  0  0  0  0  0  0
  -25.9265  -29.7256   20.0815 O   0  0  0  0  0  0  0  0  0  0  0  0
  -25.7634  -14.5300   19.0012 O   0  0  0  0  0  0  0  0  0  0  0  0
  -24.4874  -12.1894   22.1612 O   0  0  0  0  0  0  0  0  0  0  0  0
  -20.2192  -14.2542   21.9648 O   0  0  0  0  0  0  0  0  0  0  0  0
  -17.6255  -25.6147   20.7416 O   0  0  0  0  0  0  0  0  0  0  0  0
  -27.4107  -30.7704   27.6507 O   0  0  0  0  0  0  0  0  0  0  0  0
  -22.7166  -19.8593   19.0156 O   0  0  0  0  0  0  0  0  0  1  0  0
  -32.4590  -28.5562   27.7795 F   0  0  0  0  0  0  0  0  0  0  0  0
  -28.1884  -29.1329   29.7379 F   0  0  0  0  0  0  0  0  0  0  0  0
  1  2  1  0  0  0  0
  1  5  2  0  0  0  0
  2  6  2  0  0  0  0
  3  8  2  0  0  0  0
  3 17  1  0  0  0  0
  4  9  1  0  0  0  0
  4 17  2  0  0  0  0
  5 19  1  0  0  0  0
  6 21  1  0  0  0  0
  7 10  2  0  0  0  0
  7 20  1  0  0  0  0
  8 27  1  0  0  0  0
  9 27  2  0  0  0  0
 10 28  1  0  0  0  0
 11 12  2  0  0  0  0
 11 29  1  0  0  0  0
 12 30  1  0  0  0  0
 13 22  2  0  0  0  0
 13 25  1  0  0  0  0
 14 23  2  0  0  0  0
 14 26  1  0  0  0  0
 15 24  1  0  0  0  0
 15 28  2  0  0  0  0
 16 30  2  0  0  0  0
 16 31  1  0  0  0  0
 17 32  1  0  0  0  0
 18 32  1  0  0  0  0
 18 33  2  0  0  0  0
 18 34  1  0  0  0  0
 19 21  2  0  0  0  0
 19 39  1  0  0  0  0
 20 24  2  0  0  0  0
 20 40  1  0  0  0  0
 21 50  1  0  0  0  0
 22 23  1  0  0  0  0
 22 41  1  0  0  0  0
 23 51  1  0  0  0  0
 24 42  1  0  0  0  0
 25 26  2  0  0  0  0
 25 54  1  0  0  0  0
 26 60  1  0  0  0  0
 27 79  1  0  0  0  0
 28 80  1  0  0  0  0
 29 31  2  0  0  0  0
 29 79  1  0  0  0  0
 30 81  1  0  0  0  0
 31 82  1  0  0  0  0
 32 64  2  0  0  0  0
 33 65  1  0  0  0  0
 33 68  1  0  0  0  0
 34 69  1  0  0  0  0
 34 74  2  0  0  0  0
 35 52  1  0  0  0  0
 35 70  1  0  0  0  0
 35 75  2  0  0  0  0
 36 61  1  0  0  0  0
 36 66  1  0  0  0  0
 36 76  2  0  0  0  0
 37 62  1  0  0  0  0
 37 71  1  0  0  0  0
 37 77  2  0  0  0  0
 38 67  1  0  0  0  0
 38 72  1  0  0  0  0
 38 78  2  0  0  0  0
 39 43  1  0  0  0  0
 40 52  1  0  0  0  0
 41 44  1  0  0  0  0
 42 66  1  0  0  0  0
 43 46  1  0  0  0  0
 44 51  1  0  0  0  0
 45 47  1  0  0  0  0
 45 48  1  0  0  0  0
 46 50  1  0  0  0  0
 47 53  1  0  0  0  0
 48 67  1  0  0  0  0
 49 53  1  0  0  0  0
 49 67  1  0  0  0  0
 50 70  1  0  0  0  0
 51 72  1  0  0  0  0
 52 66  1  0  0  0  0
 53 65  1  0  0  0  0
 55 62  1  0  0  0  0
 56 63  1  0  0  0  0
 57 63  1  0  0  0  0
 58 63  1  0  0  0  0
 59 73  1  0  0  0  0
 60 80  1  0  0  0  0
 61 63  1  0  0  0  0
 61 71  1  0  0  0  0
 62 73  1  0  0  0  0
 64 65  1  0  0  0  0
M  CHG  1  73   1
M  ISO  4  38 100  60 101  72 100  80 101
M  END
> <Batch ID>
0152

> <Smiles>
CNC(C)C(=O)NC(C(=O)N1Cc2cc([101O:1][101CH2:1]c3cc4c(cc3C)CCC4[100NH:0][100C:0](=O)N3CCCC(n4nc(-c5ccc(Oc6ccc(F)cc6F)cc5)c(C(N)=O)c4N)C3)ccc2CC1C(=O)NC1CCCc2ccccc21)C(C)(C)C

> <Shape>
0.233

> <Color>
0.056

> <Negative vol penalty>
0.000

$$$$

  -OEChem-04052321463D

 84 93  0     1  0  0  0  0  0999 V2000
  -17.5658  -29.2075   22.0986 C   0  0  0  0  0  0  0  0  0  0  0  0
  -18.9246  -29.3566   21.8401 C   0  0  0  0  0  0  0  0  0  0  0  0
  -26.4543  -12.8211   21.5804 C   0  0  0  0  0  0  0  0  0  0  0  0
  -25.8808  -13.7452   19.4231 C   0  0  0  0  0  0  0  0  0  0  0  0
  -17.1003  -28.0565   22.7329 C   0  0  0  0  0  0  0  0  0  0  0  0
  -19.8188  -28.3551   22.2166 C   0  0  0  0  0  0  0  0  0  0  0  0
  -24.9014  -26.6535   19.2539 C   0  0  0  0  0  0  0  0  0  0  0  0
  -25.2146  -12.1844   21.6373 C   0  0  0  0  0  0  0  0  0  0  0  0
  -24.6410  -13.1085   19.4799 C   0  0  0  0  0  0  0  0  0  0  0  0
  -26.2465  -26.9685   19.4416 C   0  0  0  0  0  0  0  0  0  0  0  0
  -22.3439  -10.0229   22.1871 C   0  0  0  0  0  0  0  0  0  0  0  0
  -22.3169   -8.6919   22.6032 C   0  0  0  0  0  0  0  0  0  0  0  0
  -26.5351  -24.9459   20.7240 C   0  0  0  0  0  0  0  0  0  0  0  0
  -28.6273  -21.1740   17.1048 C   0  0  0  0  0  0  0  0  0  0  0  0
  -29.1333  -23.3971   16.3392 C   0  0  0  0  0  0  0  0  0  0  0  0
  -23.7459   -8.0843   20.7523 C   0  0  0  0  0  0  0  0  0  0  0  0
  -26.7874  -13.6016   20.4733 C   0  0  0  0  0  0  0  0  0  0  0  0
  -29.2633  -13.7472   19.8765 C   0  0  0  0  0  0  0  0  0  0  0  0
  -17.9880  -27.0361   23.1088 C   0  0  0  0  0  0  0  0  0  0  0  0
  -24.3596  -25.4857   19.8100 C   0  0  0  0  0  0  0  0  0  0  0  0
  -19.3649  -27.1900   22.8577 C   0  0  0  0  0  0  0  0  0  0  0  0
  -25.1834  -24.6170   20.5398 C   0  0  0  0  0  0  0  0  0  0  0  0
  -28.6098  -22.1319   16.0972 C   0  0  0  0  0  0  0  0  0  0  0  0
  -24.3079  -12.3280   20.5871 C   0  0  0  0  0  0  0  0  0  0  0  0
  -27.0629  -26.1162   20.1791 C   0  0  0  0  0  0  0  0  0  0  0  0
  -23.0718  -10.3847   21.0535 C   0  0  0  0  0  0  0  0  0  0  0  0
  -23.0180   -7.7226   21.8859 C   0  0  0  0  0  0  0  0  0  0  0  0
  -23.7729   -9.4154   20.3362 C   0  0  0  0  0  0  0  0  0  0  0  0
  -28.0677  -14.2600   20.4142 C   0  0  0  0  0  0  0  0  0  0  0  0
  -29.1751  -21.5284   18.3271 C   0  0  0  0  0  0  0  0  0  0  0  0
  -29.6583  -23.6521   17.5958 C   0  0  0  0  0  0  0  0  0  0  0  0
  -30.1817  -14.7516   20.0616 C   0  0  0  0  0  0  0  0  0  0  0  0
  -29.5208  -12.4765   19.2642 C   0  0  0  0  0  0  0  0  0  0  0  0
  -22.0837  -24.8623   21.9397 C   0  0  0  0  0  0  0  0  0  0  0  0
  -22.6673  -21.7883   21.0839 C   0  0  0  0  0  0  0  0  0  0  0  0
  -24.8463  -19.5072   19.7817 C   0  0  0  0  0  0  0  0  0  0  0  0
  -29.6880  -20.6781   20.6423 C   0  0  0  0  0  0  0  0  0  0  0  0
  -17.4438  -25.8312   23.8344 C   0  0  0  0  0  0  0  0  0  0  0  0
  -22.9130  -25.1467   19.5759 C   0  0  0  0  0  0  0  0  0  0  0  0
  -24.6552  -23.3408   21.1405 C   0  0  0  0  0  0  0  0  0  0  0  0
  -18.4106  -24.6502   23.8645 C   0  0  0  0  0  0  0  0  0  0  0  0
  -31.1764  -18.4275   22.9654 C   0  0  0  0  0  0  0  0  0  0  0  0
  -28.5628  -20.6128   14.0082 C   0  0  0  0  0  0  0  0  0  0  0  0
  -28.8768  -21.9960   13.5303 C   0  0  0  0  0  0  0  0  0  0  0  0
  -19.8103  -25.1159   24.2526 C   0  0  0  0  0  0  0  0  0  0  0  0
  -30.6618  -17.0561   22.5222 C   0  0  0  0  0  0  0  0  0  0  0  0
  -30.1154  -19.5135   22.7955 C   0  0  0  0  0  0  0  0  0  0  0  0
  -29.0070  -18.2255   21.0117 C   0  0  0  0  0  0  0  0  0  0  0  0
  -28.0324  -21.8039   14.7640 C   0  0  0  0  0  0  0  0  0  0  0  0
  -20.3631  -26.1147   23.2287 C   0  0  1  0  0  0  0  0  0  0  0  0
  -22.3465  -24.1909   20.6214 C   0  0  1  0  0  0  0  0  0  0  0  0
  -30.0620  -17.1109   21.1034 C   0  0  2  0  0  0  0  0  0  0  0  0
  -25.6600  -17.3008   18.9060 C   0  0  0  0  0  0  0  0  0  0  0  0
  -23.0662  -21.1711   24.0454 C   0  0  0  0  0  0  0  0  0  0  0  0
  -24.1744  -19.0276   23.3779 C   0  0  0  0  0  0  0  0  0  0  0  0
  -21.7867  -19.4338   22.7808 C   0  0  0  0  0  0  0  0  0  0  0  0
  -23.9530  -20.1379   17.0316 C   0  0  0  0  0  0  0  0  0  0  0  0
  -30.5017  -26.8163   19.3228 C   0  0  0  0  0  0  0  0  0  0  0  0
  -30.7555  -25.3340   19.0766 C   0  0  0  0  0  0  0  0  0  0  0  0
  -29.0196  -27.1721   19.3354 C   0  0  0  0  0  0  0  0  0  1  0  0
  -23.6022  -20.7042   21.5633 C   0  0  1  0  0  0  0  0  0  0  0  0
  -24.6700  -18.4396   18.7170 C   0  0  2  0  0  0  0  0  0  0  0  0
  -23.1672  -20.1091   22.9323 C   0  0  0  0  0  0  0  0  0  0  0  0
  -28.2104  -15.4942   20.9045 N   0  0  0  0  0  0  0  0  0  0  0  0
  -29.6930  -22.7471   18.5996 N   0  0  0  0  0  0  0  0  0  0  0  0
  -29.5066  -15.7653   20.6755 N   0  0  0  0  0  0  0  0  0  0  0  0
  -23.2328  -23.0564   20.8892 N   0  0  0  0  0  0  0  0  0  0  0  0
  -29.5959  -19.5086   21.4262 N   0  0  0  0  0  0  0  0  0  0  0  0
  -31.4927  -14.8576   19.7577 N   0  0  0  0  0  0  0  0  0  0  0  0
  -28.4647  -11.5617   19.1539 N   0  0  0  0  0  0  0  0  0  0  0  0
  -29.1906  -20.5443   19.3465 N   0  0  0  0  0  0  0  0  0  0  0  0
  -30.1756  -24.9180   17.8225 N   0  0  0  0  0  0  0  0  0  0  0  0
  -20.8246  -25.4218   22.0450 N   0  0  0  0  0  0  0  0  0  0  0  0
  -23.6799  -19.7256   20.4840 N   0  0  0  0  0  0  0  0  0  0  0  0
  -24.8765  -19.0216   17.3607 N   0  3  0  0  0  0  0  0  0  0  0  0
  -30.6578  -12.1554   18.8426 O   0  0  0  0  0  0  0  0  0  0  0  0
  -22.9579  -24.8706   22.7984 O   0  0  0  0  0  0  0  0  0  0  0  0
  -21.4807  -21.5181   20.8827 O   0  0  0  0  0  0  0  0  0  0  0  0
  -25.9130  -20.0866   19.9739 O   0  0  0  0  0  0  0  0  0  0  0  0
  -30.1972  -21.7135   21.0790 O   0  0  0  0  0  0  0  0  0  0  0  0
  -23.0982  -11.7067   20.6421 O   0  0  0  0  0  0  0  0  0  0  0  0
  -28.3760  -26.4216   20.3644 O   0  0  0  0  0  0  0  0  0  1  0  0
  -22.9933   -6.4447   22.2865 F   0  0  0  0  0  0  0  0  0  0  0  0
  -24.4749   -9.7570   19.2470 F   0  0  0  0  0  0  0  0  0  0  0  0
  1  2  1  0  0  0  0
  1  5  2  0  0  0  0
  2  6  2  0  0  0  0
  3  8  2  0  0  0  0
  3 17  1  0  0  0  0
  4  9  1  0  0  0  0
  4 17  2  0  0  0  0
  5 19  1  0  0  0  0
  6 21  1  0  0  0  0
  7 10  2  0  0  0  0
  7 20  1  0  0  0  0
  8 24  1  0  0  0  0
  9 24  2  0  0  0  0
 10 25  1  0  0  0  0
 11 12  2  0  0  0  0
 11 26  1  0  0  0  0
 12 27  1  0  0  0  0
 13 22  1  0  0  0  0
 13 25  2  0  0  0  0
 14 23  1  0  0  0  0
 14 30  2  0  0  0  0
 15 23  2  0  0  0  0
 15 31  1  0  0  0  0
 16 27  2  0  0  0  0
 16 28  1  0  0  0  0
 17 29  1  0  0  0  0
 18 29  1  0  0  0  0
 18 32  2  0  0  0  0
 18 33  1  0  0  0  0
 19 21  2  0  0  0  0
 19 38  1  0  0  0  0
 20 22  2  0  0  0  0
 20 39  1  0  0  0  0
 21 50  1  0  0  0  0
 22 40  1  0  0  0  0
 23 49  1  0  0  0  0
 24 81  1  0  0  0  0
 25 82  1  0  0  0  0
 26 28  2  0  0  0  0
 26 81  1  0  0  0  0
 27 83  1  0  0  0  0
 28 84  1  0  0  0  0
 29 64  2  0  0  0  0
 30 65  1  0  0  0  0
 30 71  1  0  0  0  0
 31 65  2  0  0  0  0
 31 72  1  0  0  0  0
 32 66  1  0  0  0  0
 32 69  1  0  0  0  0
 33 70  1  0  0  0  0
 33 76  2  0  0  0  0
 34 51  1  0  0  0  0
 34 73  1  0  0  0  0
 34 77  2  0  0  0  0
 35 61  1  0  0  0  0
 35 67  1  0  0  0  0
 35 78  2  0  0  0  0
 36 62  1  0  0  0  0
 36 74  1  0  0  0  0
 36 79  2  0  0  0  0
 37 68  1  0  0  0  0
 37 71  1  0  0  0  0
 37 80  2  0  0  0  0
 38 41  1  0  0  0  0
 39 51  1  0  0  0  0
 40 67  1  0  0  0  0
 41 45  1  0  0  0  0
 42 46  1  0  0  0  0
 42 47  1  0  0  0  0
 43 44  1  0  0  0  0
 43 49  1  0  0  0  0
 44 49  1  0  0  0  0
 45 50  1  0  0  0  0
 46 52  1  0  0  0  0
 47 68  1  0  0  0  0
 48 52  1  0  0  0  0
 48 68  1  0  0  0  0
 50 73  1  0  0  0  0
 51 67  1  0  0  0  0
 52 66  1  0  0  0  0
 53 62  1  0  0  0  0
 54 63  1  0  0  0  0
 55 63  1  0  0  0  0
 56 63  1  0  0  0  0
 57 75  1  0  0  0  0
 58 59  1  0  0  0  0
 58 60  1  0  0  0  0
 59 72  1  0  0  0  0
 60 82  1  0  0  0  0
 61 63  1  0  0  0  0
 61 74  1  0  0  0  0
 62 75  1  0  0  0  0
 64 66  1  0  0  0  0
M  CHG  1  75   1
M  ISO  4  37 100  60 101  71 100  82 101
M  END
> <Batch ID>
0152

> <Smiles>
CNC(C)C(=O)NC(C(=O)N1Cc2cc([101O:1][101CH2:1]CCNc3cc(C4CC4)cc([100NH:0][100C:0](=O)N4CCCC(n5nc(-c6ccc(Oc7ccc(F)cc7F)cc6)c(C(N)=O)c5N)C4)n3)ccc2CC1C(=O)NC1CCCc2ccccc21)C(C)(C)C

> <Shape>
0.259

> <Color>
0.083

> <Negative vol penalty>
0.000

$$$$

  -OEChem-04052321463D

 88 97  0     1  0  0  0  0  0999 V2000
  -19.8001  -21.8696   19.2061 C   0  0  0  0  0  0  0  0  0  0  0  0
  -21.1806  -21.8634   19.0335 C   0  0  0  0  0  0  0  0  0  0  0  0
  -23.4895   -9.9778   22.2839 C   0  0  0  0  0  0  0  0  0  0  0  0
  -23.6275   -9.5480   19.9105 C   0  0  0  0  0  0  0  0  0  0  0  0
  -19.1236  -23.0787   19.3622 C   0  0  0  0  0  0  0  0  0  0  0  0
  -21.8852  -23.0666   19.0160 C   0  0  0  0  0  0  0  0  0  0  0  0
  -27.5326  -24.0572   21.1680 C   0  0  0  0  0  0  0  0  0  0  0  0
  -22.6163   -8.8997   22.4284 C   0  0  0  0  0  0  0  0  0  0  0  0
  -22.7543   -8.4699   20.0549 C   0  0  0  0  0  0  0  0  0  0  0  0
  -28.7777  -24.1151   20.5434 C   0  0  0  0  0  0  0  0  0  0  0  0
  -22.8262   -5.5291   22.5949 C   0  0  0  0  0  0  0  0  0  0  0  0
  -23.0510   -4.6504   23.6546 C   0  0  0  0  0  0  0  0  0  0  0  0
  -28.5987  -26.5177   20.4226 C   0  0  0  0  0  0  0  0  0  0  0  0
  -29.6770  -22.8097   15.7148 C   0  0  0  0  0  0  0  0  0  0  0  0
  -27.7872  -24.3031   15.9029 C   0  0  0  0  0  0  0  0  0  0  0  0
  -20.8608   -5.1573   24.5395 C   0  0  0  0  0  0  0  0  0  0  0  0
  -23.9951  -10.3019   21.0249 C   0  0  0  0  0  0  0  0  0  0  0  0
  -26.3016  -11.3899   20.9612 C   0  0  0  0  0  0  0  0  0  0  0  0
  -19.8216  -24.2967   19.3562 C   0  0  0  0  0  0  0  0  0  0  0  0
  -26.8051  -25.2303   21.4153 C   0  0  0  0  0  0  0  0  0  0  0  0
  -21.2173  -24.2932   19.1708 C   0  0  0  0  0  0  0  0  0  0  0  0
  -27.3458  -26.4722   21.0528 C   0  0  0  0  0  0  0  0  0  0  0  0
  -27.4316  -21.9542   15.4631 C   0  0  0  0  0  0  0  0  0  0  0  0
  -28.8100  -21.7416   15.4843 C   0  0  0  0  0  0  0  0  0  0  0  0
  -22.2487   -8.1458   21.3139 C   0  0  0  0  0  0  0  0  0  0  0  0
  -29.3096  -25.3452   20.1679 C   0  0  0  0  0  0  0  0  0  0  0  0
  -21.6188   -6.2221   22.5076 C   0  0  0  0  0  0  0  0  0  0  0  0
  -29.1656  -24.0904   15.9241 C   0  0  0  0  0  0  0  0  0  0  0  0
  -26.9202  -23.2350   15.6724 C   0  0  0  0  0  0  0  0  0  0  0  0
  -22.0683   -4.4644   24.6269 C   0  0  0  0  0  0  0  0  0  0  0  0
  -20.6361   -6.0362   23.4799 C   0  0  0  0  0  0  0  0  0  0  0  0
  -24.8967  -11.4158   20.8750 C   0  0  0  0  0  0  0  0  0  0  0  0
  -26.6829  -12.6919   20.7467 C   0  0  0  0  0  0  0  0  0  0  0  0
  -27.1832  -10.2875   21.2125 C   0  0  0  0  0  0  0  0  0  0  0  0
  -23.9865  -26.3614   20.4773 C   0  0  0  0  0  0  0  0  0  0  0  0
  -24.6649  -28.7197   22.5987 C   0  0  0  0  0  0  0  0  0  0  0  0
  -27.0309  -30.4699   24.3266 C   0  0  0  0  0  0  0  0  0  0  0  0
  -25.0743  -17.1034   17.4268 C   0  0  0  0  0  0  0  0  0  0  0  0
  -19.0411  -25.5812   19.4813 C   0  0  0  0  0  0  0  0  0  0  0  0
  -25.4754  -25.1530   22.1141 C   0  0  0  0  0  0  0  0  0  0  0  0
  -26.6139  -27.7624   21.3142 C   0  0  0  0  0  0  0  0  0  0  0  0
  -19.9080  -26.7895   19.8259 C   0  0  0  0  0  0  0  0  0  0  0  0
  -24.4804  -17.0825   21.0771 C   0  0  0  0  0  0  0  0  0  0  0  0
  -21.1536  -26.8213   18.9460 C   0  0  0  0  0  0  0  0  0  0  0  0
  -24.6053  -15.5936   21.3840 C   0  0  0  0  0  0  0  0  0  0  0  0
  -26.7636  -19.3571   15.8333 C   0  0  0  0  0  0  0  0  0  0  0  0
  -25.1062  -20.6762   16.0004 C   0  0  0  0  0  0  0  0  0  0  0  0
  -23.8907  -17.3369   19.6904 C   0  0  0  0  0  0  0  0  0  0  0  0
  -24.7513  -15.1468   18.9045 C   0  0  0  0  0  0  0  0  0  0  0  0
  -26.4424  -20.7450   15.2015 C   0  0  0  0  0  0  0  0  0  0  0  0
  -22.0199  -25.5761   19.1709 C   0  0  1  0  0  0  0  0  0  0  0  0
  -24.5915  -26.3687   21.8527 C   0  0  1  0  0  0  0  0  0  0  0  0
  -25.3901  -14.8771   20.2751 C   0  0  2  0  0  0  0  0  0  0  0  0
  -25.2408  -19.1387   15.9638 C   0  0  0  0  0  0  0  0  0  0  0  0
  -29.3791  -20.3791   15.2627 C   0  0  0  0  0  0  0  0  0  0  0  0
  -27.2833  -32.3637   25.9536 C   0  0  0  0  0  0  0  0  0  0  0  0
  -24.1637  -30.7174   20.3475 C   0  0  0  0  0  0  0  0  0  0  0  0
  -25.3278  -32.4547   21.7240 C   0  0  0  0  0  0  0  0  0  0  0  0
  -23.2340  -31.3937   22.5685 C   0  0  0  0  0  0  0  0  0  0  0  0
  -28.2606  -28.7095   26.3632 C   0  0  0  0  0  0  0  0  0  0  0  0
  -25.1399  -24.7984   15.8778 C   0  0  0  0  0  0  0  0  0  0  0  0
  -31.7335  -26.0524   17.5725 C   0  0  0  0  0  0  0  0  0  0  0  0
  -30.7395  -26.4776   18.6419 C   0  0  0  0  0  0  0  0  0  1  0  0
  -31.2481  -24.8393   16.7947 C   0  0  0  0  0  0  0  0  0  0  0  0
  -25.3752  -30.0499   22.5275 C   0  0  1  0  0  0  0  0  0  0  0  0
  -27.1262  -30.8598   25.7906 C   0  0  2  0  0  0  0  0  0  0  0  0
  -24.5384  -31.1297   21.7851 C   0  0  0  0  0  0  0  0  0  0  0  0
  -24.4179  -12.6375   20.6254 N   0  0  0  0  0  0  0  0  0  0  0  0
  -25.5281  -13.3913   20.5530 N   0  0  0  0  0  0  0  0  0  0  0  0
  -25.3145  -27.6341   21.9944 N   0  0  0  0  0  0  0  0  0  0  0  0
  -24.6065  -16.5849   18.6475 N   0  0  0  0  0  0  0  0  0  0  0  0
  -27.8898  -13.2952   20.7069 N   0  0  0  0  0  0  0  0  0  0  0  0
  -26.6249   -9.0173   21.4108 N   0  0  0  0  0  0  0  0  0  0  0  0
  -22.7752  -25.7011   20.3991 N   0  0  0  0  0  0  0  0  0  0  0  0
  -25.7214  -30.4018   23.9004 N   0  0  0  0  0  0  0  0  0  0  0  0
  -24.8191  -18.4528   17.2022 N   0  0  0  0  0  0  0  0  0  0  0  0
  -28.2962  -30.1932   26.4291 N   0  3  0  0  0  0  0  0  0  0  0  0
  -28.4281  -10.4276   21.2762 O   0  0  0  0  0  0  0  0  0  0  0  0
  -24.5744  -26.9151   19.5557 O   0  0  0  0  0  0  0  0  0  0  0  0
  -23.5771  -28.6452   23.1757 O   0  0  0  0  0  0  0  0  0  0  0  0
  -28.0195  -30.2514   23.6297 O   0  0  0  0  0  0  0  0  0  0  0  0
  -25.6707  -16.4175   16.5896 O   0  0  0  0  0  0  0  0  0  0  0  0
  -21.3968   -7.0936   21.4546 O   0  0  0  0  0  0  0  0  0  0  0  0
  -25.5765  -23.4591   15.6547 O   0  0  0  0  0  0  0  0  0  0  0  0
  -30.5244  -25.4044   19.5575 O   0  0  0  0  0  0  0  0  0  1  0  0
  -30.0174  -25.1400   16.1507 O   0  0  0  0  0  0  0  0  0  0  0  0
  -22.2836   -3.6194   25.6435 F   0  0  0  0  0  0  0  0  0  0  0  0
  -19.4736   -6.6982   23.4007 F   0  0  0  0  0  0  0  0  0  0  0  0
  1  2  1  0  0  0  0
  1  5  2  0  0  0  0
  2  6  2  0  0  0  0
  3  8  2  0  0  0  0
  3 17  1  0  0  0  0
  4  9  1  0  0  0  0
  4 17  2  0  0  0  0
  5 19  1  0  0  0  0
  6 21  1  0  0  0  0
  7 10  2  0  0  0  0
  7 20  1  0  0  0  0
  8 25  1  0  0  0  0
  9 25  2  0  0  0  0
 10 26  1  0  0  0  0
 11 12  2  0  0  0  0
 11 27  1  0  0  0  0
 12 30  1  0  0  0  0
 13 22  1  0  0  0  0
 13 26  2  0  0  0  0
 14 24  2  0  0  0  0
 14 28  1  0  0  0  0
 15 28  2  0  0  0  0
 15 29  1  0  0  0  0
 16 30  2  0  0  0  0
 16 31  1  0  0  0  0
 17 32  1  0  0  0  0
 18 32  1  0  0  0  0
 18 33  2  0  0  0  0
 18 34  1  0  0  0  0
 19 21  2  0  0  0  0
 19 39  1  0  0  0  0
 20 22  2  0  0  0  0
 20 40  1  0  0  0  0
 21 51  1  0  0  0  0
 22 41  1  0  0  0  0
 23 24  1  0  0  0  0
 23 29  2  0  0  0  0
 23 50  1  0  0  0  0
 24 55  1  0  0  0  0
 25 83  1  0  0  0  0
 26 85  1  0  0  0  0
 27 31  2  0  0  0  0
 27 83  1  0  0  0  0
 28 86  1  0  0  0  0
 29 84  1  0  0  0  0
 30 87  1  0  0  0  0
 31 88  1  0  0  0  0
 32 68  2  0  0  0  0
 33 69  1  0  0  0  0
 33 72  1  0  0  0  0
 34 73  1  0  0  0  0
 34 78  2  0  0  0  0
 35 52  1  0  0  0  0
 35 74  1  0  0  0  0
 35 79  2  0  0  0  0
 36 65  1  0  0  0  0
 36 70  1  0  0  0  0
 36 80  2  0  0  0  0
 37 66  1  0  0  0  0
 37 75  1  0  0  0  0
 37 81  2  0  0  0  0
 38 71  1  0  0  0  0
 38 76  1  0  0  0  0
 38 82  2  0  0  0  0
 39 42  1  0  0  0  0
 40 52  1  0  0  0  0
 41 70  1  0  0  0  0
 42 44  1  0  0  0  0
 43 45  1  0  0  0  0
 43 48  1  0  0  0  0
 44 51  1  0  0  0  0
 45 53  1  0  0  0  0
 46 50  1  0  0  0  0
 46 54  1  0  0  0  0
 47 50  1  0  0  0  0
 47 54  1  0  0  0  0
 48 71  1  0  0  0  0
 49 53  1  0  0  0  0
 49 71  1  0  0  0  0
 51 74  1  0  0  0  0
 52 70  1  0  0  0  0
 53 69  1  0  0  0  0
 54 76  1  0  0  0  0
 56 66  1  0  0  0  0
 57 67  1  0  0  0  0
 58 67  1  0  0  0  0
 59 67  1  0  0  0  0
 60 77  1  0  0  0  0
 61 84  1  0  0  0  0
 62 63  1  0  0  0  0
 62 64  1  0  0  0  0
 63 85  1  0  0  0  0
 64 86  1  0  0  0  0
 65 67  1  0  0  0  0
 65 75  1  0  0  0  0
 66 77  1  0  0  0  0
 68 69  1  0  0  0  0
M  CHG  1  77   1
M  ISO  4  38 100  63 101  76 100  85 101
M  END
> <Batch ID>
0152

> <Smiles>
CNC(C)C(=O)NC(C(=O)N1Cc2cc([101O:1][101CH2:1]CCOc3cc(C)c(C4CC([100NH:0][100C:0](=O)N5CCCC(n6nc(-c7ccc(Oc8ccc(F)cc8F)cc7)c(C(N)=O)c6N)C5)C4)c(OC)c3)ccc2CC1C(=O)NC1CCCc2ccccc21)C(C)(C)C

> <Shape>
0.231

> <Color>
0.108

> <Negative vol penalty>
0.000

$$$$

  -OEChem-04052321463D

 88 97  0     1  0  0  0  0  0999 V2000
  -20.2681   -9.1137   18.8021 C   0  0  0  0  0  0  0  0  0  0  0  0
  -20.2128  -10.4688   19.1122 C   0  0  0  0  0  0  0  0  0  0  0  0
  -27.5742  -25.9710   18.3464 C   0  0  0  0  0  0  0  0  0  0  0  0
  -27.4296  -25.2384   20.6442 C   0  0  0  0  0  0  0  0  0  0  0  0
  -21.2486   -8.3073   19.3786 C   0  0  0  0  0  0  0  0  0  0  0  0
  -21.1372  -11.0180   20.0000 C   0  0  0  0  0  0  0  0  0  0  0  0
  -23.5552  -16.6406   19.7859 C   0  0  0  0  0  0  0  0  0  0  0  0
  -28.3077  -24.8281   18.0282 C   0  0  0  0  0  0  0  0  0  0  0  0
  -28.1632  -24.0955   20.3259 C   0  0  0  0  0  0  0  0  0  0  0  0
  -23.2441  -17.8217   20.4582 C   0  0  0  0  0  0  0  0  0  0  0  0
  -27.5968  -21.1004   18.8668 C   0  0  0  0  0  0  0  0  0  0  0  0
  -27.1426  -19.8804   19.3674 C   0  0  0  0  0  0  0  0  0  0  0  0
  -24.9616  -17.3422   22.0828 C   0  0  0  0  0  0  0  0  0  0  0  0
  -29.2317  -19.5856   20.5446 C   0  0  0  0  0  0  0  0  0  0  0  0
  -27.1351  -26.1762   19.6544 C   0  0  0  0  0  0  0  0  0  0  0  0
  -26.7892  -28.6962   19.8475 C   0  0  0  0  0  0  0  0  0  0  0  0
  -22.1915   -8.8489   20.2664 C   0  0  0  0  0  0  0  0  0  0  0  0
  -24.5663  -15.7946   20.2639 C   0  0  0  0  0  0  0  0  0  0  0  0
  -22.1304  -10.2179   20.5900 C   0  0  0  0  0  0  0  0  0  0  0  0
  -25.2854  -16.1522   21.4133 C   0  0  0  0  0  0  0  0  0  0  0  0
  -28.6022  -23.8904   19.0179 C   0  0  0  0  0  0  0  0  0  0  0  0
  -23.9454  -18.1712   21.6085 C   0  0  0  0  0  0  0  0  0  0  0  0
  -28.8686  -21.5631   19.2049 C   0  0  0  0  0  0  0  0  0  0  0  0
  -27.9600  -19.1230   20.2064 C   0  0  0  0  0  0  0  0  0  0  0  0
  -29.6860  -20.8057   20.0439 C   0  0  0  0  0  0  0  0  0  0  0  0
  -26.3778  -27.3569   19.9839 C   0  0  0  0  0  0  0  0  0  0  0  0
  -25.7181  -29.4315   20.2932 C   0  0  0  0  0  0  0  0  0  0  0  0
  -21.3005  -20.6176   23.7583 C   0  0  0  0  0  0  0  0  0  0  0  0
  -20.0525  -21.0808   23.6122 C   0  0  0  0  0  0  0  0  0  0  0  0
  -28.0286  -29.2282   19.3612 C   0  0  0  0  0  0  0  0  0  0  0  0
  -24.6704  -12.7994   21.3229 C   0  0  0  0  0  0  0  0  0  0  0  0
  -27.8698  -13.3334   21.3534 C   0  0  0  0  0  0  0  0  0  0  0  0
  -30.4299  -15.5846   21.5104 C   0  0  0  0  0  0  0  0  0  0  0  0
  -21.2230  -28.1798   24.0376 C   0  0  0  0  0  0  0  0  0  0  0  0
  -23.2035   -7.9282   20.9012 C   0  0  0  0  0  0  0  0  0  0  0  0
  -24.9078  -14.5374   19.5121 C   0  0  0  0  0  0  0  0  0  0  0  0
  -26.3935  -15.2886   21.9562 C   0  0  0  0  0  0  0  0  0  0  0  0
  -24.3777   -8.6632   21.5425 C   0  0  0  0  0  0  0  0  0  0  0  0
  -20.9702  -29.2925   20.6946 C   0  0  0  0  0  0  0  0  0  0  0  0
  -23.8789   -9.8298   22.3894 C   0  0  0  0  0  0  0  0  0  0  0  0
  -22.3499  -29.0204   20.1017 C   0  0  0  0  0  0  0  0  0  0  0  0
  -22.2606  -26.4360   27.1329 C   0  0  0  0  0  0  0  0  0  0  0  0
  -23.5952  -20.4648   24.3889 C   0  0  0  0  0  0  0  0  0  0  0  0
  -20.5668  -28.1832   21.6567 C   0  0  0  0  0  0  0  0  0  0  0  0
  -21.4834  -27.5261   26.4114 C   0  0  0  0  0  0  0  0  0  0  0  0
  -22.6204  -26.1647   24.7947 C   0  0  0  0  0  0  0  0  0  0  0  0
  -22.9391  -27.7275   22.2170 C   0  0  0  0  0  0  0  0  0  0  0  0
  -23.1309  -10.8556   21.5293 C   0  0  1  0  0  0  0  0  0  0  0  0
  -21.6807  -19.1511   23.6948 C   0  0  1  0  0  0  0  0  0  0  0  0
  -22.5213  -21.4706   23.9729 C   0  0  2  0  0  0  0  0  0  0  0  0
  -25.6089  -13.4952   20.3780 C   0  0  1  0  0  0  0  0  0  0  0  0
  -22.3836  -25.3483   26.0652 C   0  0  1  0  0  0  0  0  0  0  0  0
  -23.3869  -28.8129   21.2164 C   0  0  1  0  0  0  0  0  0  0  0  0
  -23.2153  -19.1990   23.6251 C   0  0  1  0  0  0  0  0  0  1  0  0
  -32.7915  -16.4320   21.4641 C   0  0  0  0  0  0  0  0  0  0  0  0
  -19.6791  -18.5051   25.0660 C   0  0  0  0  0  0  0  0  0  0  0  0
  -21.6203  -16.9266   24.8572 C   0  0  0  0  0  0  0  0  0  0  0  0
  -23.2882  -23.6970   27.7278 C   0  0  0  0  0  0  0  0  0  0  0  0
  -27.8659  -12.4330   24.2688 C   0  0  0  0  0  0  0  0  0  0  0  0
  -30.1304  -13.4710   24.5197 C   0  0  0  0  0  0  0  0  0  0  0  0
  -29.7939  -11.5880   22.9185 C   0  0  0  0  0  0  0  0  0  0  0  0
  -30.3633  -15.9523   18.5745 C   0  0  0  0  0  0  0  0  0  0  0  0
  -23.6536  -23.3016   25.2394 C   0  0  0  0  0  0  0  0  0  0  0  0
  -28.8547  -13.8690   22.3645 C   0  0  1  0  0  0  0  0  0  0  0  0
  -31.6911  -15.7354   20.6789 C   0  0  2  0  0  0  0  0  0  0  0  0
  -21.1954  -18.3912   24.9284 C   0  0  0  0  0  0  0  0  0  0  0  0
  -23.4884  -24.3477   26.3536 C   0  0  1  0  0  0  0  0  0  0  0  0
  -29.1391  -12.8558   23.5090 C   0  0  0  0  0  0  0  0  0  0  0  0
  -25.1419  -27.2448   20.4779 N   0  0  0  0  0  0  0  0  0  0  0  0
  -24.7675  -28.5232   20.6558 N   0  0  0  0  0  0  0  0  0  0  0  0
  -26.6858  -14.0663   21.1893 N   0  0  0  0  0  0  0  0  0  0  0  0
  -21.5738  -27.9741   22.6987 N   0  0  0  0  0  0  0  0  0  0  0  0
  -21.8448  -27.3899   25.0038 N   0  0  0  0  0  0  0  0  0  0  0  0
  -25.5062  -30.7599   20.4066 N   0  0  0  0  0  0  0  0  0  0  0  0
  -29.0652  -29.4516   20.2777 N   0  0  0  0  0  0  0  0  0  0  0  0
  -24.0677  -11.6753   20.7911 N   0  0  0  0  0  0  0  0  0  0  0  0
  -30.0386  -14.2662   21.6102 N   0  0  0  0  0  0  0  0  0  0  0  0
  -22.4101  -22.5266   25.0167 N   0  3  0  0  0  0  0  0  0  0  0  0
  -31.4106  -16.5345   19.4527 N   0  3  0  0  0  0  0  0  0  0  0  0
  -28.2059  -29.5129   18.1525 O   0  0  0  0  0  0  0  0  0  0  0  0
  -24.5065  -13.2481   22.4513 O   0  0  0  0  0  0  0  0  0  0  0  0
  -28.1441  -12.3068   20.7271 O   0  0  0  0  0  0  0  0  0  0  0  0
  -29.8520  -16.5404   22.0233 O   0  0  0  0  0  0  0  0  0  0  0  0
  -20.3576  -29.0066   24.3557 O   0  0  0  0  0  0  0  0  0  0  0  0
  -29.3178  -22.7749   18.7077 O   0  0  0  0  0  0  0  0  0  0  0  0
  -23.6415  -19.3298   22.2708 O   0  0  0  0  0  0  0  0  0  1  0  0
  -27.5230  -17.9521   20.6884 F   0  0  0  0  0  0  0  0  0  0  0  0
  -30.9082  -21.2455   20.3733 F   0  0  0  0  0  0  0  0  0  0  0  0
  1  2  1  0  0  0  0
  1  5  2  0  0  0  0
  2  6  2  0  0  0  0
  3  8  2  0  0  0  0
  3 15  1  0  0  0  0
  4  9  1  0  0  0  0
  4 15  2  0  0  0  0
  5 17  1  0  0  0  0
  6 19  1  0  0  0  0
  7 10  2  0  0  0  0
  7 18  1  0  0  0  0
  8 21  1  0  0  0  0
  9 21  2  0  0  0  0
 10 22  1  0  0  0  0
 11 12  2  0  0  0  0
 11 23  1  0  0  0  0
 12 24  1  0  0  0  0
 13 20  1  0  0  0  0
 13 22  2  0  0  0  0
 14 24  2  0  0  0  0
 14 25  1  0  0  0  0
 15 26  1  0  0  0  0
 16 26  1  0  0  0  0
 16 27  2  0  0  0  0
 16 30  1  0  0  0  0
 17 19  2  0  0  0  0
 17 35  1  0  0  0  0
 18 20  2  0  0  0  0
 18 36  1  0  0  0  0
 19 48  1  0  0  0  0
 20 37  1  0  0  0  0
 21 85  1  0  0  0  0
 22 86  1  0  0  0  0
 23 25  2  0  0  0  0
 23 85  1  0  0  0  0
 24 87  1  0  0  0  0
 25 88  1  0  0  0  0
 26 69  2  0  0  0  0
 27 70  1  0  0  0  0
 27 74  1  0  0  0  0
 28 29  2  0  0  0  0
 28 49  1  0  0  0  0
 28 50  1  0  0  0  0
 30 75  1  0  0  0  0
 30 80  2  0  0  0  0
 31 51  1  0  0  0  0
 31 76  1  0  0  0  0
 31 81  2  0  0  0  0
 32 64  1  0  0  0  0
 32 71  1  0  0  0  0
 32 82  2  0  0  0  0
 33 65  1  0  0  0  0
 33 77  1  0  0  0  0
 33 83  2  0  0  0  0
 34 72  1  0  0  0  0
 34 73  1  0  0  0  0
 34 84  2  0  0  0  0
 35 38  1  0  0  0  0
 36 51  1  0  0  0  0
 37 71  1  0  0  0  0
 38 40  1  0  0  0  0
 39 41  1  0  0  0  0
 39 44  1  0  0  0  0
 40 48  1  0  0  0  0
 41 53  1  0  0  0  0
 42 45  1  0  0  0  0
 42 52  1  0  0  0  0
 43 50  1  0  0  0  0
 43 54  1  0  0  0  0
 44 72  1  0  0  0  0
 45 73  1  0  0  0  0
 46 52  1  0  0  0  0
 46 73  1  0  0  0  0
 47 53  1  0  0  0  0
 47 72  1  0  0  0  0
 48 76  1  0  0  0  0
 49 54  1  0  0  0  0
 49 66  1  0  0  0  0
 50 78  1  0  0  0  0
 51 71  1  0  0  0  0
 52 67  1  0  0  0  0
 53 70  1  0  0  0  0
 54 86  1  0  0  0  0
 55 65  1  0  0  0  0
 56 66  1  0  0  0  0
 57 66  1  0  0  0  0
 58 67  1  0  0  0  0
 59 68  1  0  0  0  0
 60 68  1  0  0  0  0
 61 68  1  0  0  0  0
 62 79  1  0  0  0  0
 63 67  1  0  0  0  0
 63 78  1  0  0  0  0
 64 68  1  0  0  0  0
 64 77  1  0  0  0  0
 65 79  1  0  0  0  0
 69 70  1  0  0  0  0
M  CHG  2  78   1  79   1
M  ISO  4  34 100  54 101  73 100  86 101
M  END
> <Batch ID>
0152

> <Smiles>
C=C1C(NCC(C)C2CC[100N:0]([100C:0](=O)N3CCCC(n4nc(-c5ccc(Oc6ccc(F)cc6F)cc5)c(C(N)=O)c4N)C3)C2)C[101CH:1]([101O:1]c2ccc3c(c2)CN(C(=O)C(NC(=O)C(C)NC)C(C)(C)C)C(C(=O)NC2CCCc4ccccc42)C3)C1C(C)C

> <Shape>
0.245

> <Color>
0.049

> <Negative vol penalty>
0.000

$$$$

  -OEChem-04052321463D

 82 91  0     1  0  0  0  0  0999 V2000
  -32.2090  -35.7477   24.1860 C   0  0  0  0  0  0  0  0  0  0  0  0
  -32.7991  -34.5227   23.8920 C   0  0  0  0  0  0  0  0  0  0  0  0
  -23.0065   -9.8856   19.9810 C   0  0  0  0  0  0  0  0  0  0  0  0
  -23.7327   -9.9422   22.2845 C   0  0  0  0  0  0  0  0  0  0  0  0
  -30.8728  -35.7998   24.5806 C   0  0  0  0  0  0  0  0  0  0  0  0
  -32.0535  -33.3487   23.9936 C   0  0  0  0  0  0  0  0  0  0  0  0
  -31.3893  -26.8794   20.9897 C   0  0  0  0  0  0  0  0  0  0  0  0
  -22.2441   -8.7488   20.2492 C   0  0  0  0  0  0  0  0  0  0  0  0
  -22.9703   -8.8054   22.5528 C   0  0  0  0  0  0  0  0  0  0  0  0
  -31.3573  -25.5293   21.3359 C   0  0  0  0  0  0  0  0  0  0  0  0
  -23.2263   -5.4667   22.0853 C   0  0  0  0  0  0  0  0  0  0  0  0
  -23.8178   -4.4526   22.8384 C   0  0  0  0  0  0  0  0  0  0  0  0
  -30.7595  -19.7948   24.1149 C   0  0  0  0  0  0  0  0  0  0  0  0
  -30.9856  -20.5122   21.3880 C   0  0  0  0  0  0  0  0  0  0  0  0
  -29.0350  -25.7482   21.9508 C   0  0  0  0  0  0  0  0  0  0  0  0
  -22.0940   -4.6917   24.5142 C   0  0  0  0  0  0  0  0  0  0  0  0
  -23.7508  -10.4823   20.9986 C   0  0  0  0  0  0  0  0  0  0  0  0
  -24.1271  -12.9990   20.8190 C   0  0  0  0  0  0  0  0  0  0  0  0
  -30.1078  -34.6268   24.6778 C   0  0  0  0  0  0  0  0  0  0  0  0
  -30.2455  -27.6780   21.1319 C   0  0  0  0  0  0  0  0  0  0  0  0
  -30.7062  -33.3849   24.3913 C   0  0  0  0  0  0  0  0  0  0  0  0
  -30.6530  -18.8431   23.1148 C   0  0  0  0  0  0  0  0  0  0  0  0
  -30.7650  -19.1983   21.7649 C   0  0  0  0  0  0  0  0  0  0  0  0
  -29.0544  -27.1076   21.6032 C   0  0  0  0  0  0  0  0  0  0  0  0
  -30.9944  -21.1206   23.7443 C   0  0  0  0  0  0  0  0  0  0  0  0
  -31.1068  -21.4766   22.3908 C   0  0  0  0  0  0  0  0  0  0  0  0
  -22.2260   -8.2087   21.5352 C   0  0  0  0  0  0  0  0  0  0  0  0
  -30.1808  -24.9641   21.8193 C   0  0  0  0  0  0  0  0  0  0  0  0
  -22.0686   -6.0934   22.5466 C   0  0  0  0  0  0  0  0  0  0  0  0
  -23.2517   -4.0651   24.0529 C   0  0  0  0  0  0  0  0  0  0  0  0
  -21.5025   -5.7058   23.7611 C   0  0  0  0  0  0  0  0  0  0  0  0
  -24.5390  -11.6564   20.7220 C   0  0  0  0  0  0  0  0  0  0  0  0
  -25.2341  -13.7251   20.4531 C   0  0  0  0  0  0  0  0  0  0  0  0
  -22.8574  -13.5415   21.2055 C   0  0  0  0  0  0  0  0  0  0  0  0
  -29.5053  -30.2516   22.8444 C   0  0  0  0  0  0  0  0  0  0  0  0
  -26.7601  -30.1295   21.1206 C   0  0  0  0  0  0  0  0  0  0  0  0
  -24.5631  -28.2572   19.3000 C   0  0  0  0  0  0  0  0  0  0  0  0
  -30.7273  -14.6795   20.6973 C   0  0  0  0  0  0  0  0  0  0  0  0
  -28.6804  -34.7284   25.1542 C   0  0  0  0  0  0  0  0  0  0  0  0
  -30.2891  -29.1264   20.7288 C   0  0  0  0  0  0  0  0  0  0  0  0
  -30.3669  -17.3805   23.2612 C   0  0  0  0  0  0  0  0  0  0  0  0
  -30.5639  -18.0069   20.8799 C   0  0  0  0  0  0  0  0  0  0  0  0
  -27.7934  -27.9171   21.7554 C   0  0  0  0  0  0  0  0  0  0  0  0
  -27.8544  -33.4753   24.8752 C   0  0  0  0  0  0  0  0  0  0  0  0
  -29.5939  -12.2487   18.3557 C   0  0  0  0  0  0  0  0  0  0  0  0
  -28.6293  -32.2246   25.2779 C   0  0  0  0  0  0  0  0  0  0  0  0
  -28.1466  -11.9844   18.7744 C   0  0  0  0  0  0  0  0  0  0  0  0
  -30.4961  -12.4889   19.5641 C   0  0  0  0  0  0  0  0  0  0  0  0
  -28.5839  -13.2794   20.9029 C   0  0  0  0  0  0  0  0  0  0  0  0
  -29.9233  -32.0920   24.4658 C   0  0  1  0  0  0  0  0  0  0  0  0
  -29.2065  -29.9662   21.3998 C   0  0  1  0  0  0  0  0  0  0  0  0
  -27.6249  -13.0868   19.7157 C   0  0  2  0  0  0  0  0  0  0  0  0
  -30.8029  -16.8603   21.8795 C   0  0  2  0  0  0  0  0  0  0  0  0
  -31.1177  -22.1553   24.8158 C   0  0  0  0  0  0  0  0  0  0  0  0
  -22.3933  -28.4272   18.0509 C   0  0  0  0  0  0  0  0  0  0  0  0
  -25.2431  -30.1793   23.7676 C   0  0  0  0  0  0  0  0  0  0  0  0
  -23.2074  -29.4005   22.5355 C   0  0  0  0  0  0  0  0  0  0  0  0
  -24.2439  -31.5968   21.9657 C   0  0  0  0  0  0  0  0  0  0  0  0
  -25.8345  -27.4568   16.7501 C   0  0  0  0  0  0  0  0  0  0  0  0
  -31.3534  -22.9025   21.9940 C   0  0  0  0  0  0  0  0  0  1  0  0
  -25.4178  -29.4607   21.2938 C   0  0  1  0  0  0  0  0  0  0  0  0
  -23.9091  -28.4997   17.9517 C   0  0  2  0  0  0  0  0  0  0  0  0
  -24.5522  -30.1442   22.3897 C   0  0  0  0  0  0  0  0  0  0  0  0
  -25.8085  -11.5339   20.3253 N   0  0  0  0  0  0  0  0  0  0  0  0
  -26.2039  -12.8088   20.1697 N   0  0  0  0  0  0  0  0  0  0  0  0
  -27.8883  -29.3303   21.3539 N   0  0  0  0  0  0  0  0  0  0  0  0
  -29.9460  -13.5468   20.4151 N   0  0  0  0  0  0  0  0  0  0  0  0
  -25.4628  -15.0515   20.3491 N   0  0  0  0  0  0  0  0  0  0  0  0
  -21.8290  -12.6541   21.5508 N   0  0  0  0  0  0  0  0  0  0  0  0
  -29.6373  -31.5957   23.1368 N   0  0  0  0  0  0  0  0  0  0  0  0
  -24.7998  -29.4374   19.9725 N   0  0  0  0  0  0  0  0  0  0  0  0
  -30.1279  -15.6373   21.5062 N   0  0  0  0  0  0  0  0  0  0  0  0
  -24.3646  -27.4807   16.9643 N   0  3  0  0  0  0  0  0  0  0  0  0
  -22.6364  -14.7760   21.2277 O   0  0  0  0  0  0  0  0  0  0  0  0
  -29.6069  -29.3213   23.6355 O   0  0  0  0  0  0  0  0  0  0  0  0
  -26.8060  -31.3152   20.7836 O   0  0  0  0  0  0  0  0  0  0  0  0
  -24.8334  -27.1329   19.7167 O   0  0  0  0  0  0  0  0  0  0  0  0
  -31.8719  -14.8289   20.2564 O   0  0  0  0  0  0  0  0  0  0  0  0
  -21.4821   -7.0995   21.7974 O   0  0  0  0  0  0  0  0  0  0  0  0
  -30.1470  -23.6467   22.1586 O   0  0  0  0  0  0  0  0  0  1  0  0
  -23.8190   -3.0901   24.7753 F   0  0  0  0  0  0  0  0  0  0  0  0
  -20.3897   -6.3033   24.2089 F   0  0  0  0  0  0  0  0  0  0  0  0
  1  2  1  0  0  0  0
  1  5  2  0  0  0  0
  2  6  2  0  0  0  0
  3  8  2  0  0  0  0
  3 17  1  0  0  0  0
  4  9  1  0  0  0  0
  4 17  2  0  0  0  0
  5 19  1  0  0  0  0
  6 21  1  0  0  0  0
  7 10  2  0  0  0  0
  7 20  1  0  0  0  0
  8 27  1  0  0  0  0
  9 27  2  0  0  0  0
 10 28  1  0  0  0  0
 11 12  2  0  0  0  0
 11 29  1  0  0  0  0
 12 30  1  0  0  0  0
 13 22  2  0  0  0  0
 13 25  1  0  0  0  0
 14 23  2  0  0  0  0
 14 26  1  0  0  0  0
 15 24  1  0  0  0  0
 15 28  2  0  0  0  0
 16 30  2  0  0  0  0
 16 31  1  0  0  0  0
 17 32  1  0  0  0  0
 18 32  1  0  0  0  0
 18 33  2  0  0  0  0
 18 34  1  0  0  0  0
 19 21  2  0  0  0  0
 19 39  1  0  0  0  0
 20 24  2  0  0  0  0
 20 40  1  0  0  0  0
 21 50  1  0  0  0  0
 22 23  1  0  0  0  0
 22 41  1  0  0  0  0
 23 42  1  0  0  0  0
 24 43  1  0  0  0  0
 25 26  2  0  0  0  0
 25 54  1  0  0  0  0
 26 60  1  0  0  0  0
 27 79  1  0  0  0  0
 28 80  1  0  0  0  0
 29 31  2  0  0  0  0
 29 79  1  0  0  0  0
 30 81  1  0  0  0  0
 31 82  1  0  0  0  0
 32 64  2  0  0  0  0
 33 65  1  0  0  0  0
 33 68  1  0  0  0  0
 34 69  1  0  0  0  0
 34 74  2  0  0  0  0
 35 51  1  0  0  0  0
 35 70  1  0  0  0  0
 35 75  2  0  0  0  0
 36 61  1  0  0  0  0
 36 66  1  0  0  0  0
 36 76  2  0  0  0  0
 37 62  1  0  0  0  0
 37 71  1  0  0  0  0
 37 77  2  0  0  0  0
 38 67  1  0  0  0  0
 38 72  1  0  0  0  0
 38 78  2  0  0  0  0
 39 44  1  0  0  0  0
 40 51  1  0  0  0  0
 41 53  1  0  0  0  0
 42 53  1  0  0  0  0
 43 66  1  0  0  0  0
 44 46  1  0  0  0  0
 45 47  1  0  0  0  0
 45 48  1  0  0  0  0
 46 50  1  0  0  0  0
 47 52  1  0  0  0  0
 48 67  1  0  0  0  0
 49 52  1  0  0  0  0
 49 67  1  0  0  0  0
 50 70  1  0  0  0  0
 51 66  1  0  0  0  0
 52 65  1  0  0  0  0
 53 72  1  0  0  0  0
 55 62  1  0  0  0  0
 56 63  1  0  0  0  0
 57 63  1  0  0  0  0
 58 63  1  0  0  0  0
 59 73  1  0  0  0  0
 60 80  1  0  0  0  0
 61 63  1  0  0  0  0
 61 71  1  0  0  0  0
 62 73  1  0  0  0  0
 64 65  1  0  0  0  0
M  CHG  1  73   1
M  ISO  4  38 100  60 101  72 100  80 101
M  END
> <Batch ID>
0152

> <Smiles>
CNC(C)C(=O)NC(C(=O)N1Cc2cc([101O:1][101CH2:1]c3cc4c(cc3C)CC([100NH:0][100C:0](=O)N3CCCC(n5nc(-c6ccc(Oc7ccc(F)cc7F)cc6)c(C(N)=O)c5N)C3)C4)ccc2CC1C(=O)NC1CCCc2ccccc21)C(C)(C)C

> <Shape>
0.308

> <Color>
0.202

> <Negative vol penalty>
0.000

$$$$

  -OEChem-04052321463D

 91101  0     1  0  0  0  0  0999 V2000
  -22.6782  -21.1709   18.5316 C   0  0  0  0  0  0  0  0  0  0  0  0
  -23.9004  -21.7095   18.9209 C   0  0  0  0  0  0  0  0  0  0  0  0
  -23.4929   -9.9097   22.0602 C   0  0  0  0  0  0  0  0  0  0  0  0
  -24.2526  -11.3096   23.8769 C   0  0  0  0  0  0  0  0  0  0  0  0
  -21.7736  -21.9479   17.8094 C   0  0  0  0  0  0  0  0  0  0  0  0
  -24.2191  -23.0254   18.5871 C   0  0  0  0  0  0  0  0  0  0  0  0
  -26.2408  -25.5781   22.4654 C   0  0  0  0  0  0  0  0  0  0  0  0
  -22.9090   -9.0361   22.9776 C   0  0  0  0  0  0  0  0  0  0  0  0
  -23.6686  -10.4360   24.7942 C   0  0  0  0  0  0  0  0  0  0  0  0
  -27.5822  -25.3350   22.7576 C   0  0  0  0  0  0  0  0  0  0  0  0
  -20.9078   -6.6278   24.8242 C   0  0  0  0  0  0  0  0  0  0  0  0
  -19.6183   -6.1699   24.5534 C   0  0  0  0  0  0  0  0  0  0  0  0
  -32.1784  -19.2287   19.2190 C   0  0  0  0  0  0  0  0  0  0  0  0
  -28.1963  -27.3543   21.5894 C   0  0  0  0  0  0  0  0  0  0  0  0
  -30.2035  -19.8108   20.4830 C   0  0  0  0  0  0  0  0  0  0  0  0
  -18.8053   -8.4449   24.5781 C   0  0  0  0  0  0  0  0  0  0  0  0
  -24.1648  -11.0464   22.5099 C   0  0  0  0  0  0  0  0  0  0  0  0
  -24.1691  -13.0668   20.9524 C   0  0  0  0  0  0  0  0  0  0  0  0
  -22.0773  -23.2771   17.4750 C   0  0  0  0  0  0  0  0  0  0  0  0
  -25.8675  -26.7073   21.7225 C   0  0  0  0  0  0  0  0  0  0  0  0
  -23.3182  -23.8206   17.8586 C   0  0  0  0  0  0  0  0  0  0  0  0
  -31.4494  -20.1582   19.9607 C   0  0  0  0  0  0  0  0  0  0  0  0
  -26.8493  -27.6108   21.2914 C   0  0  0  0  0  0  0  0  0  0  0  0
  -30.4157  -17.6044   19.5218 C   0  0  0  0  0  0  0  0  0  0  0  0
  -22.9968   -9.2993   24.3446 C   0  0  0  0  0  0  0  0  0  0  0  0
  -28.5604  -26.2216   22.3171 C   0  0  0  0  0  0  0  0  0  0  0  0
  -21.1460   -7.9942   24.9720 C   0  0  0  0  0  0  0  0  0  0  0  0
  -31.6616  -17.9518   18.9995 C   0  0  0  0  0  0  0  0  0  0  0  0
  -18.5671   -7.0784   24.4303 C   0  0  0  0  0  0  0  0  0  0  0  0
  -20.0948   -8.9027   24.8489 C   0  0  0  0  0  0  0  0  0  0  0  0
  -29.6867  -18.5340   20.2635 C   0  0  0  0  0  0  0  0  0  0  0  0
  -24.7687  -11.9489   21.5628 C   0  0  0  0  0  0  0  0  0  0  0  0
  -25.1513  -13.5844   20.1438 C   0  0  0  0  0  0  0  0  0  0  0  0
  -22.8429  -13.5904   21.1029 C   0  0  0  0  0  0  0  0  0  0  0  0
  -24.4312  -27.1783   18.9262 C   0  0  0  0  0  0  0  0  0  0  0  0
  -24.5406  -30.2901   19.8355 C   0  0  0  0  0  0  0  0  0  0  0  0
  -26.0318  -32.7034   21.7326 C   0  0  0  0  0  0  0  0  0  0  0  0
  -30.5952  -15.1311   19.7279 C   0  0  0  0  0  0  0  0  0  0  0  0
  -21.0872  -24.0630   16.6524 C   0  0  0  0  0  0  0  0  0  0  0  0
  -24.4138  -26.9694   21.4386 C   0  0  0  0  0  0  0  0  0  0  0  0
  -26.4989  -28.8485   20.5078 C   0  0  0  0  0  0  0  0  0  0  0  0
  -21.3453  -25.5675   16.6626 C   0  0  0  0  0  0  0  0  0  0  0  0
  -29.6275  -11.7054   18.7558 C   0  0  0  0  0  0  0  0  0  0  0  0
  -22.8240  -25.8572   16.4255 C   0  0  0  0  0  0  0  0  0  0  0  0
  -28.2561  -11.5413   19.4088 C   0  0  0  0  0  0  0  0  0  0  0  0
  -28.8059  -16.6566   16.9722 C   0  0  0  0  0  0  0  0  0  0  0  0
  -28.8298  -15.1752   17.2041 C   0  0  0  0  0  0  0  0  0  0  0  0
  -31.0755  -22.5884   19.5846 C   0  0  0  0  0  0  0  0  0  0  0  0
  -32.1894  -21.7733   21.7016 C   0  0  0  0  0  0  0  0  0  0  0  0
  -30.5191  -12.6621   19.5418 C   0  0  0  0  0  0  0  0  0  0  0  0
  -28.5300  -13.8330   20.4365 C   0  0  0  0  0  0  0  0  0  0  0  0
  -31.5700  -23.9988   19.8790 C   0  0  0  0  0  0  0  0  0  0  0  0
  -32.6757  -23.1899   21.9796 C   0  0  0  0  0  0  0  0  0  0  0  0
  -32.0037  -21.5263   20.1958 C   0  0  0  0  0  0  0  0  0  0  0  0
  -23.6899  -25.2518   17.5370 C   0  0  1  0  0  0  0  0  0  0  0  0
  -24.1949  -27.8795   20.2339 C   0  0  1  0  0  0  0  0  0  0  0  0
  -27.5929  -12.9094   19.6439 C   0  0  2  0  0  0  0  0  0  0  0  0
  -28.7631  -16.1164   18.3755 C   0  0  0  0  0  0  0  0  0  0  0  0
  -25.9258  -35.1598   22.2348 C   0  0  0  0  0  0  0  0  0  0  0  0
  -25.8994  -30.8912   17.1704 C   0  0  0  0  0  0  0  0  0  0  0  0
  -26.6096  -33.1004   18.1102 C   0  0  0  0  0  0  0  0  0  0  0  0
  -24.1837  -32.5713   17.8690 C   0  0  0  0  0  0  0  0  0  0  0  0
  -25.4374  -32.2117   24.5899 C   0  0  0  0  0  0  0  0  0  0  0  0
  -33.6537  -17.5066   17.7792 C   0  0  0  0  0  0  0  0  0  0  0  0
  -32.0759  -25.5962   21.7248 C   0  0  0  0  0  0  0  0  0  0  0  0
  -30.8337  -26.4629   21.6615 C   0  0  0  0  0  0  0  0  0  1  0  0
  -25.5307  -31.4178   19.6710 C   0  0  1  0  0  0  0  0  0  0  0  0
  -25.4515  -33.7730   22.6402 C   0  0  2  0  0  0  0  0  0  0  0  0
  -25.5630  -31.9709   18.2182 C   0  0  0  0  0  0  0  0  0  0  0  0
  -26.0338  -11.7663   21.1751 N   0  0  0  0  0  0  0  0  0  0  0  0
  -26.2371  -12.7764   20.3123 N   0  0  0  0  0  0  0  0  0  0  0  0
  -25.0646  -29.0575   20.2500 N   0  0  0  0  0  0  0  0  0  0  0  0
  -29.8471  -13.9381   19.7903 N   0  0  0  0  0  0  0  0  0  0  0  0
  -25.1835  -14.6474   19.3123 N   0  0  0  0  0  0  0  0  0  0  0  0
  -21.9613  -12.9366   21.9744 N   0  0  0  0  0  0  0  0  0  0  0  0
  -23.6284  -26.0712   18.7283 N   0  0  0  0  0  0  0  0  0  0  0  0
  -25.1880  -32.4126   20.6816 N   0  0  0  0  0  0  0  0  0  0  0  0
  -29.8961  -16.2772   19.2844 N   0  0  0  0  0  0  0  0  0  0  0  0
  -31.7167  -24.1986   21.3757 N   0  3  0  0  0  0  0  0  0  0  0  0
  -25.8598  -33.5309   24.0529 N   0  3  0  0  0  0  0  0  0  0  0  0
  -22.4461  -14.5984   20.4704 O   0  0  0  0  0  0  0  0  0  0  0  0
  -25.2782  -27.6106   18.1532 O   0  0  0  0  0  0  0  0  0  0  0  0
  -23.3454  -30.4973   19.6115 O   0  0  0  0  0  0  0  0  0  0  0  0
  -27.1260  -32.1811   21.9337 O   0  0  0  0  0  0  0  0  0  0  0  0
  -31.7985  -15.1615   20.0119 O   0  0  0  0  0  0  0  0  0  0  0  0
  -22.4269   -8.4472   25.2400 O   0  0  0  0  0  0  0  0  0  0  0  0
  -32.3923  -17.0602   18.2716 O   0  0  0  0  0  0  0  0  0  0  0  0
  -29.8705  -25.9864   22.6004 O   0  0  0  0  0  0  0  0  0  1  0  0
  -17.3292   -6.6387   24.1688 F   0  0  0  0  0  0  0  0  0  0  0  0
  -20.3177  -10.2167   24.9886 F   0  0  0  0  0  0  0  0  0  0  0  0
  -28.1395  -18.1479   20.9296 Cl  0  0  0  0  0  0  0  0  0  0  0  0
  1  2  1  0  0  0  0
  1  5  2  0  0  0  0
  2  6  2  0  0  0  0
  3  8  2  0  0  0  0
  3 17  1  0  0  0  0
  4  9  1  0  0  0  0
  4 17  2  0  0  0  0
  5 19  1  0  0  0  0
  6 21  1  0  0  0  0
  7 10  2  0  0  0  0
  7 20  1  0  0  0  0
  8 25  1  0  0  0  0
  9 25  2  0  0  0  0
 10 26  1  0  0  0  0
 11 12  2  0  0  0  0
 11 27  1  0  0  0  0
 12 29  1  0  0  0  0
 13 22  2  0  0  0  0
 13 28  1  0  0  0  0
 14 23  1  0  0  0  0
 14 26  2  0  0  0  0
 15 22  1  0  0  0  0
 15 31  2  0  0  0  0
 16 29  2  0  0  0  0
 16 30  1  0  0  0  0
 17 32  1  0  0  0  0
 18 32  1  0  0  0  0
 18 33  2  0  0  0  0
 18 34  1  0  0  0  0
 19 21  2  0  0  0  0
 19 39  1  0  0  0  0
 20 23  2  0  0  0  0
 20 40  1  0  0  0  0
 21 55  1  0  0  0  0
 22 54  1  0  0  0  0
 23 41  1  0  0  0  0
 24 28  2  0  0  0  0
 24 31  1  0  0  0  0
 24 78  1  0  0  0  0
 25 86  1  0  0  0  0
 26 88  1  0  0  0  0
 27 30  2  0  0  0  0
 27 86  1  0  0  0  0
 28 87  1  0  0  0  0
 29 89  1  0  0  0  0
 30 90  1  0  0  0  0
 31 91  1  0  0  0  0
 32 70  2  0  0  0  0
 33 71  1  0  0  0  0
 33 74  1  0  0  0  0
 34 75  1  0  0  0  0
 34 81  2  0  0  0  0
 35 56  1  0  0  0  0
 35 76  1  0  0  0  0
 35 82  2  0  0  0  0
 36 67  1  0  0  0  0
 36 72  1  0  0  0  0
 36 83  2  0  0  0  0
 37 68  1  0  0  0  0
 37 77  1  0  0  0  0
 37 84  2  0  0  0  0
 38 73  1  0  0  0  0
 38 78  1  0  0  0  0
 38 85  2  0  0  0  0
 39 42  1  0  0  0  0
 40 56  1  0  0  0  0
 41 72  1  0  0  0  0
 42 44  1  0  0  0  0
 43 45  1  0  0  0  0
 43 50  1  0  0  0  0
 44 55  1  0  0  0  0
 45 57  1  0  0  0  0
 46 47  1  0  0  0  0
 46 58  1  0  0  0  0
 47 58  1  0  0  0  0
 48 52  1  0  0  0  0
 48 54  1  0  0  0  0
 49 53  1  0  0  0  0
 49 54  1  0  0  0  0
 50 73  1  0  0  0  0
 51 57  1  0  0  0  0
 51 73  1  0  0  0  0
 52 79  1  0  0  0  0
 53 79  1  0  0  0  0
 55 76  1  0  0  0  0
 56 72  1  0  0  0  0
 57 71  1  0  0  0  0
 58 78  1  0  0  0  0
 59 68  1  0  0  0  0
 60 69  1  0  0  0  0
 61 69  1  0  0  0  0
 62 69  1  0  0  0  0
 63 80  1  0  0  0  0
 64 87  1  0  0  0  0
 65 66  1  0  0  0  0
 65 79  1  0  0  0  0
 66 88  1  0  0  0  0
 67 69  1  0  0  0  0
 67 77  1  0  0  0  0
 68 80  1  0  0  0  0
 70 71  1  0  0  0  0
M  CHG  2  79   1  80   1
M  ISO  4  38 100  66 101  78 100  88 101
M  END
> <Batch ID>
0152

> <Smiles>
CNC(C)C(=O)NC(C(=O)N1Cc2cc([101O:1][101CH2:1]CN3CCC(c4cc(Cl)c([100N:0](C5CC5)[100C:0](=O)N5CCCC(n6nc(-c7ccc(Oc8ccc(F)cc8F)cc7)c(C(N)=O)c6N)C5)c(OC)c4)CC3)ccc2CC1C(=O)NC1CCCc2ccccc21)C(C)(C)C

> <Shape>
0.225

> <Color>
0.139

> <Negative vol penalty>
0.000

$$$$

  -OEChem-04052321463D

 89 98  0     1  0  0  0  0  0999 V2000
  -26.6833  -37.9545   20.3067 C   0  0  0  0  0  0  0  0  0  0  0  0
  -27.2681  -36.7335   19.9867 C   0  0  0  0  0  0  0  0  0  0  0  0
  -22.7427  -10.1425   22.1505 C   0  0  0  0  0  0  0  0  0  0  0  0
  -24.3263   -9.4786   20.4510 C   0  0  0  0  0  0  0  0  0  0  0  0
  -25.8357  -38.0525   21.4094 C   0  0  0  0  0  0  0  0  0  0  0  0
  -27.0066  -35.6099   20.7700 C   0  0  0  0  0  0  0  0  0  0  0  0
  -26.5384  -29.8127   18.8517 C   0  0  0  0  0  0  0  0  0  0  0  0
  -22.1454   -8.8837   22.0857 C   0  0  0  0  0  0  0  0  0  0  0  0
  -23.7290   -8.2198   20.3862 C   0  0  0  0  0  0  0  0  0  0  0  0
  -27.4402  -28.7494   18.8505 C   0  0  0  0  0  0  0  0  0  0  0  0
  -22.7672   -5.7688   23.2450 C   0  0  0  0  0  0  0  0  0  0  0  0
  -22.4624   -5.1332   24.4486 C   0  0  0  0  0  0  0  0  0  0  0  0
  -26.4912  -27.9501   20.9193 C   0  0  0  0  0  0  0  0  0  0  0  0
  -20.1268   -5.0865   23.8324 C   0  0  0  0  0  0  0  0  0  0  0  0
  -28.8026  -19.2530   18.0190 C   0  0  0  0  0  0  0  0  0  0  0  0
  -23.8331  -10.4400   21.3331 C   0  0  0  0  0  0  0  0  0  0  0  0
  -25.5123  -12.1359   22.2342 C   0  0  0  0  0  0  0  0  0  0  0  0
  -25.5560  -36.9274   22.2009 C   0  0  0  0  0  0  0  0  0  0  0  0
  -25.6120  -29.9591   19.8942 C   0  0  0  0  0  0  0  0  0  0  0  0
  -26.1556  -35.6932   21.8852 C   0  0  0  0  0  0  0  0  0  0  0  0
  -25.5771  -29.0147   20.9301 C   0  0  0  0  0  0  0  0  0  0  0  0
  -28.7310  -18.0019   18.5908 C   0  0  0  0  0  0  0  0  0  0  0  0
  -30.0221  -17.6863   19.0811 C   0  0  0  0  0  0  0  0  0  0  0  0
  -22.6386   -7.9223   21.2036 C   0  0  0  0  0  0  0  0  0  0  0  0
  -27.4186  -27.8195   19.8858 C   0  0  0  0  0  0  0  0  0  0  0  0
  -21.7518   -6.0634   22.3351 C   0  0  0  0  0  0  0  0  0  0  0  0
  -21.1422   -4.7920   24.7423 C   0  0  0  0  0  0  0  0  0  0  0  0
  -20.4316   -5.7222   22.6288 C   0  0  0  0  0  0  0  0  0  0  0  0
  -24.4502  -11.7404   21.3992 C   0  0  0  0  0  0  0  0  0  0  0  0
  -30.8434  -18.7542   18.7942 C   0  0  0  0  0  0  0  0  0  0  0  0
  -25.7259  -13.4550   21.9167 C   0  0  0  0  0  0  0  0  0  0  0  0
  -26.2409  -11.3785   23.2095 C   0  0  0  0  0  0  0  0  0  0  0  0
  -25.0557  -32.1726   22.1065 C   0  0  0  0  0  0  0  0  0  0  0  0
  -22.4810  -30.3120   22.7630 C   0  0  0  0  0  0  0  0  0  0  0  0
  -21.0261  -27.2277   22.6310 C   0  0  0  0  0  0  0  0  0  0  0  0
  -26.2923  -17.5326   18.1677 C   0  0  0  0  0  0  0  0  0  0  0  0
  -24.6709  -37.0928   23.4109 C   0  0  0  0  0  0  0  0  0  0  0  0
  -24.6283  -31.0966   19.8670 C   0  0  0  0  0  0  0  0  0  0  0  0
  -24.5887  -29.1155   22.0620 C   0  0  0  0  0  0  0  0  0  0  0  0
  -24.1491  -35.7713   23.9691 C   0  0  0  0  0  0  0  0  0  0  0  0
  -22.9759  -16.6574   19.1231 C   0  0  0  0  0  0  0  0  0  0  0  0
  -25.2798  -34.7529   24.0748 C   0  0  0  0  0  0  0  0  0  0  0  0
  -23.1512  -15.3327   19.8691 C   0  0  0  0  0  0  0  0  0  0  0  0
  -29.3992  -22.2259   19.5218 C   0  0  0  0  0  0  0  0  0  0  0  0
  -31.2922  -23.3230   18.2735 C   0  0  0  0  0  0  0  0  0  0  0  0
  -23.9368  -16.7742   17.9412 C   0  0  0  0  0  0  0  0  0  0  0  0
  -25.5266  -15.2272   19.0128 C   0  0  0  0  0  0  0  0  0  0  0  0
  -29.5231  -23.2749   20.6185 C   0  0  0  0  0  0  0  0  0  0  0  0
  -31.4065  -24.3661   19.3767 C   0  0  0  0  0  0  0  0  0  0  0  0
  -25.8768  -34.4462   22.6960 C   0  0  1  0  0  0  0  0  0  0  0  0
  -24.0691  -31.4361   21.2452 C   0  0  1  0  0  0  0  0  0  0  0  0
  -30.7329  -21.9966   18.8014 C   0  0  0  0  0  0  0  0  0  0  0  0
  -24.6249  -15.0915   20.2506 C   0  0  2  0  0  0  0  0  0  0  0  0
  -33.1857  -17.9240   18.3721 C   0  0  0  0  0  0  0  0  0  0  0  0
  -32.5998  -18.9707   20.5893 C   0  0  0  0  0  0  0  0  0  0  0  0
  -18.9317  -26.0082   23.2816 C   0  0  0  0  0  0  0  0  0  0  0  0
  -23.4172  -30.2582   25.6665 C   0  0  0  0  0  0  0  0  0  0  0  0
  -21.8888  -28.3127   26.0503 C   0  0  0  0  0  0  0  0  0  0  0  0
  -20.9477  -30.5209   25.3714 C   0  0  0  0  0  0  0  0  0  0  0  0
  -20.4044  -26.5561   19.8165 C   0  0  0  0  0  0  0  0  0  0  0  0
  -30.5696  -20.9874   17.6670 C   0  0  0  0  0  0  0  0  0  0  0  0
  -30.0863  -25.6655   21.0451 C   0  0  0  0  0  0  0  0  0  0  0  0
  -28.7028  -26.2747   21.1587 C   0  0  0  0  0  0  0  0  0  1  0  0
  -32.2806  -18.9588   19.0775 C   0  0  0  0  0  0  0  0  0  0  0  0
  -22.2143  -29.1389   23.6750 C   0  0  1  0  0  0  0  0  0  0  0  0
  -19.6446  -26.7839   22.1849 C   0  0  2  0  0  0  0  0  0  0  0  0
  -22.1371  -29.5566   25.1706 C   0  0  0  0  0  0  0  0  0  0  0  0
  -24.0188  -12.7284   20.6106 N   0  0  0  0  0  0  0  0  0  0  0  0
  -30.0914  -19.7007   18.1488 N   0  0  0  0  0  0  0  0  0  0  0  0
  -24.8139  -13.7577   20.9488 N   0  0  0  0  0  0  0  0  0  0  0  0
  -23.6516  -30.2489   21.9939 N   0  0  0  0  0  0  0  0  0  0  0  0
  -25.3142  -16.5379   18.3789 N   0  0  0  0  0  0  0  0  0  0  0  0
  -30.3887  -16.5506   19.7144 N   0  0  0  0  0  0  0  0  0  0  0  0
  -26.6028  -14.3739   22.3738 N   0  0  0  0  0  0  0  0  0  0  0  0
  -25.8920  -10.0360   23.4098 N   0  0  0  0  0  0  0  0  0  0  0  0
  -27.5582  -17.2093   18.6550 N   0  0  0  0  0  0  0  0  0  0  0  0
  -25.0144  -33.5462   21.9607 N   0  0  0  0  0  0  0  0  0  0  0  0
  -21.0055  -28.4964   23.1707 N   0  0  0  0  0  0  0  0  0  0  0  0
  -30.0588  -24.5571   20.0290 N   0  3  0  0  0  0  0  0  0  0  0  0
  -19.7444  -25.9114   20.9809 N   0  3  0  0  0  0  0  0  0  0  0  0
  -27.1628  -11.8821   23.8951 O   0  0  0  0  0  0  0  0  0  0  0  0
  -25.7984  -31.5416   22.8494 O   0  0  0  0  0  0  0  0  0  0  0  0
  -21.6765  -31.2465   22.7288 O   0  0  0  0  0  0  0  0  0  0  0  0
  -22.0231  -26.5184   22.5157 O   0  0  0  0  0  0  0  0  0  0  0  0
  -26.0201  -18.6045   17.6209 O   0  0  0  0  0  0  0  0  0  0  0  0
  -22.0561   -6.6938   21.1402 O   0  0  0  0  0  0  0  0  0  0  0  0
  -28.2980  -26.7811   19.8874 O   0  0  0  0  0  0  0  0  0  1  0  0
  -20.8499   -4.1802   25.8974 F   0  0  0  0  0  0  0  0  0  0  0  0
  -19.4520   -6.0015   21.7581 F   0  0  0  0  0  0  0  0  0  0  0  0
  1  2  1  0  0  0  0
  1  5  2  0  0  0  0
  2  6  2  0  0  0  0
  3  8  2  0  0  0  0
  3 16  1  0  0  0  0
  4  9  1  0  0  0  0
  4 16  2  0  0  0  0
  5 18  1  0  0  0  0
  6 20  1  0  0  0  0
  7 10  2  0  0  0  0
  7 19  1  0  0  0  0
  8 24  1  0  0  0  0
  9 24  2  0  0  0  0
 10 25  1  0  0  0  0
 11 12  2  0  0  0  0
 11 26  1  0  0  0  0
 12 27  1  0  0  0  0
 13 21  1  0  0  0  0
 13 25  2  0  0  0  0
 14 27  2  0  0  0  0
 14 28  1  0  0  0  0
 15 22  2  0  0  0  0
 15 69  1  0  0  0  0
 16 29  1  0  0  0  0
 17 29  1  0  0  0  0
 17 31  2  0  0  0  0
 17 32  1  0  0  0  0
 18 20  2  0  0  0  0
 18 37  1  0  0  0  0
 19 21  2  0  0  0  0
 19 38  1  0  0  0  0
 20 50  1  0  0  0  0
 21 39  1  0  0  0  0
 22 23  1  0  0  0  0
 22 76  1  0  0  0  0
 23 30  2  0  0  0  0
 23 73  1  0  0  0  0
 24 86  1  0  0  0  0
 25 87  1  0  0  0  0
 26 28  2  0  0  0  0
 26 86  1  0  0  0  0
 27 88  1  0  0  0  0
 28 89  1  0  0  0  0
 29 68  2  0  0  0  0
 30 64  1  0  0  0  0
 30 69  1  0  0  0  0
 31 70  1  0  0  0  0
 31 74  1  0  0  0  0
 32 75  1  0  0  0  0
 32 81  2  0  0  0  0
 33 51  1  0  0  0  0
 33 77  1  0  0  0  0
 33 82  2  0  0  0  0
 34 65  1  0  0  0  0
 34 71  1  0  0  0  0
 34 83  2  0  0  0  0
 35 66  1  0  0  0  0
 35 78  1  0  0  0  0
 35 84  2  0  0  0  0
 36 72  1  0  0  0  0
 36 76  1  0  0  0  0
 36 85  2  0  0  0  0
 37 40  1  0  0  0  0
 38 51  1  0  0  0  0
 39 71  1  0  0  0  0
 40 42  1  0  0  0  0
 41 43  1  0  0  0  0
 41 46  1  0  0  0  0
 42 50  1  0  0  0  0
 43 53  1  0  0  0  0
 44 48  1  0  0  0  0
 44 52  1  0  0  0  0
 45 49  1  0  0  0  0
 45 52  1  0  0  0  0
 46 72  1  0  0  0  0
 47 53  1  0  0  0  0
 47 72  1  0  0  0  0
 48 79  1  0  0  0  0
 49 79  1  0  0  0  0
 50 77  1  0  0  0  0
 51 71  1  0  0  0  0
 52 61  1  0  0  0  0
 53 70  1  0  0  0  0
 54 64  1  0  0  0  0
 55 64  1  0  0  0  0
 56 66  1  0  0  0  0
 57 67  1  0  0  0  0
 58 67  1  0  0  0  0
 59 67  1  0  0  0  0
 60 80  1  0  0  0  0
 61 69  1  0  0  0  0
 62 63  1  0  0  0  0
 62 79  1  0  0  0  0
 63 87  1  0  0  0  0
 65 67  1  0  0  0  0
 65 78  1  0  0  0  0
 66 80  1  0  0  0  0
 68 70  1  0  0  0  0
M  CHG  2  79   1  80   1
M  ISO  4  36 100  63 101  76 100  87 101
M  END
> <Batch ID>
0152

> <Smiles>
CNC(C)C(=O)NC(C(=O)N1Cc2cc([101O:1][101CH2:1]CN3CCC(Cn4cc([100NH:0][100C:0](=O)N5CCCC(n6nc(-c7ccc(Oc8ccc(F)cc8F)cc7)c(C(N)=O)c6N)C5)c(N)c4C(C)C)CC3)ccc2CC1C(=O)NC1CCCc2ccccc21)C(C)(C)C

> <Shape>
0.315

> <Color>
0.114

> <Negative vol penalty>
0.000

$$$$

  -OEChem-04052321463D

 87 96  0     1  0  0  0  0  0999 V2000
  -27.2276  -37.5217   22.8582 C   0  0  0  0  0  0  0  0  0  0  0  0
  -27.6880  -36.4588   22.0877 C   0  0  0  0  0  0  0  0  0  0  0  0
  -24.4864   -9.0494   20.5270 C   0  0  0  0  0  0  0  0  0  0  0  0
  -22.7631  -10.3127   21.6546 C   0  0  0  0  0  0  0  0  0  0  0  0
  -26.5283  -37.2740   24.0386 C   0  0  0  0  0  0  0  0  0  0  0  0
  -27.4502  -35.1475   22.4978 C   0  0  0  0  0  0  0  0  0  0  0  0
  -26.3736  -30.3049   18.9067 C   0  0  0  0  0  0  0  0  0  0  0  0
  -30.3150  -17.8471   19.3472 C   0  0  0  0  0  0  0  0  0  0  0  0
  -30.3393  -16.6659   20.0886 C   0  0  0  0  0  0  0  0  0  0  0  0
  -23.9742   -7.8694   21.0663 C   0  0  0  0  0  0  0  0  0  0  0  0
  -22.2509   -9.1327   22.1938 C   0  0  0  0  0  0  0  0  0  0  0  0
  -27.1968  -29.2799   18.4424 C   0  0  0  0  0  0  0  0  0  0  0  0
  -20.3163   -6.5600   21.1649 C   0  0  0  0  0  0  0  0  0  0  0  0
  -18.9338   -6.3784   21.1267 C   0  0  0  0  0  0  0  0  0  0  0  0
  -31.5793  -18.9358   21.0745 C   0  0  0  0  0  0  0  0  0  0  0  0
  -26.4553  -27.8715   20.2551 C   0  0  0  0  0  0  0  0  0  0  0  0
  -18.8862   -6.2342   23.5380 C   0  0  0  0  0  0  0  0  0  0  0  0
  -23.8809  -10.2711   20.8212 C   0  0  0  0  0  0  0  0  0  0  0  0
  -24.0524  -12.0930   19.0439 C   0  0  0  0  0  0  0  0  0  0  0  0
  -26.2734  -35.9589   24.4585 C   0  0  0  0  0  0  0  0  0  0  0  0
  -25.5920  -30.1243   20.0568 C   0  0  0  0  0  0  0  0  0  0  0  0
  -26.7480  -34.8819   23.6857 C   0  0  0  0  0  0  0  0  0  0  0  0
  -31.6005  -17.7590   21.8543 C   0  0  0  0  0  0  0  0  0  0  0  0
  -25.6211  -28.8948   20.7304 C   0  0  0  0  0  0  0  0  0  0  0  0
  -30.9387  -18.9828   19.8388 C   0  0  0  0  0  0  0  0  0  0  0  0
  -30.9762  -16.5948   21.3461 C   0  0  0  0  0  0  0  0  0  0  0  0
  -22.8564   -7.9110   21.8997 C   0  0  0  0  0  0  0  0  0  0  0  0
  -27.2400  -28.0640   19.1183 C   0  0  0  0  0  0  0  0  0  0  0  0
  -20.9837   -6.5786   22.3896 C   0  0  0  0  0  0  0  0  0  0  0  0
  -18.2188   -6.2155   22.3132 C   0  0  0  0  0  0  0  0  0  0  0  0
  -20.2687   -6.4158   23.5761 C   0  0  0  0  0  0  0  0  0  0  0  0
  -24.4099  -11.4904   20.2649 C   0  0  0  0  0  0  0  0  0  0  0  0
  -24.8335  -13.2207   18.9758 C   0  0  0  0  0  0  0  0  0  0  0  0
  -23.0995  -11.6711   18.0592 C   0  0  0  0  0  0  0  0  0  0  0  0
  -25.4545  -31.5075   22.9154 C   0  0  0  0  0  0  0  0  0  0  0  0
  -22.8618  -29.5934   23.2852 C   0  0  0  0  0  0  0  0  0  0  0  0
  -21.2025  -26.7546   22.3716 C   0  0  0  0  0  0  0  0  0  0  0  0
  -30.0971  -14.2832   21.8015 C   0  0  0  0  0  0  0  0  0  0  0  0
  -25.5543  -35.7409   25.7661 C   0  0  0  0  0  0  0  0  0  0  0  0
  -24.6890  -31.2306   20.5294 C   0  0  0  0  0  0  0  0  0  0  0  0
  -32.3043  -17.8679   23.1942 C   0  0  0  0  0  0  0  0  0  0  0  0
  -24.7859  -28.6434   21.9583 C   0  0  0  0  0  0  0  0  0  0  0  0
  -25.0184  -34.3218   25.9373 C   0  0  0  0  0  0  0  0  0  0  0  0
  -31.7591  -16.9771   24.3076 C   0  0  0  0  0  0  0  0  0  0  0  0
  -32.2170  -15.5277   24.1900 C   0  0  0  0  0  0  0  0  0  0  0  0
  -27.0277  -16.4433   21.7222 C   0  0  0  0  0  0  0  0  0  0  0  0
  -26.0843  -33.2991   25.5566 C   0  0  0  0  0  0  0  0  0  0  0  0
  -25.9715  -15.4232   21.3042 C   0  0  0  0  0  0  0  0  0  0  0  0
  -32.2514  -15.0099   22.7594 C   0  0  0  0  0  0  0  0  0  0  0  0
  -28.1666  -15.7835   22.4914 C   0  0  0  0  0  0  0  0  0  0  0  0
  -27.7583  -13.6278   21.3420 C   0  0  0  0  0  0  0  0  0  0  0  0
  -26.4883  -33.4454   24.0845 C   0  0  1  0  0  0  0  0  0  0  0  0
  -24.3246  -31.1147   22.0062 C   0  0  1  0  0  0  0  0  0  0  0  0
  -26.6124  -14.2578   20.5338 C   0  0  1  0  0  0  0  0  0  0  0  0
  -19.1269  -25.4374   22.8758 C   0  0  0  0  0  0  0  0  0  0  0  0
  -24.1376  -28.5746   25.8628 C   0  0  0  0  0  0  0  0  0  0  0  0
  -22.5427  -26.6455   25.8075 C   0  0  0  0  0  0  0  0  0  0  0  0
  -21.6731  -28.9751   26.0060 C   0  0  0  0  0  0  0  0  0  0  0  0
  -20.2014  -27.0517   19.6024 C   0  0  0  0  0  0  0  0  0  0  0  0
  -30.9283  -20.2462   19.0477 C   0  0  0  0  0  0  0  0  0  0  0  0
  -29.0297  -23.5240   19.4939 C   0  0  0  0  0  0  0  0  0  0  0  0
  -28.9785  -24.8490   18.7370 C   0  0  0  0  0  0  0  0  0  0  0  0
  -30.0039  -22.5571   18.8377 C   0  0  0  0  0  0  0  0  0  0  0  0
  -28.0399  -25.8429   19.4063 C   0  0  0  0  0  0  0  0  0  1  0  0
  -22.6313  -28.1934   23.8008 C   0  0  1  0  0  0  0  0  0  0  0  0
  -19.7510  -26.5120   21.9992 C   0  0  2  0  0  0  0  0  0  0  0  0
  -22.7635  -28.1022   25.3473 C   0  0  0  0  0  0  0  0  0  0  0  0
  -25.3454  -12.1783   20.9250 N   0  0  0  0  0  0  0  0  0  0  0  0
  -25.5824  -13.2247   20.1157 N   0  0  0  0  0  0  0  0  0  0  0  0
  -31.0206  -15.3252   22.0302 N   0  0  0  0  0  0  0  0  0  0  0  0
  -23.9239  -29.7581   22.3847 N   0  0  0  0  0  0  0  0  0  0  0  0
  -28.7324  -14.6372   21.7658 N   0  0  0  0  0  0  0  0  0  0  0  0
  -24.9460  -14.1993   18.0527 N   0  0  0  0  0  0  0  0  0  0  0  0
  -22.3825  -10.4885   18.2869 N   0  0  0  0  0  0  0  0  0  0  0  0
  -25.4860  -32.8541   23.2242 N   0  0  0  0  0  0  0  0  0  0  0  0
  -21.3307  -27.7781   23.2867 N   0  0  0  0  0  0  0  0  0  0  0  0
  -19.6466  -26.0777   20.5774 N   0  3  0  0  0  0  0  0  0  0  0  0
  -29.9863  -21.2698   19.5799 N   0  3  0  0  0  0  0  0  0  0  0  0
  -22.9018  -12.3148   17.0009 O   0  0  0  0  0  0  0  0  0  0  0  0
  -26.2387  -30.6521   23.3089 O   0  0  0  0  0  0  0  0  0  0  0  0
  -22.1222  -30.5060   23.6617 O   0  0  0  0  0  0  0  0  0  0  0  0
  -22.1295  -26.0992   21.9008 O   0  0  0  0  0  0  0  0  0  0  0  0
  -30.4618  -13.1073   21.6773 O   0  0  0  0  0  0  0  0  0  0  0  0
  -22.3561   -6.7598   22.4259 O   0  0  0  0  0  0  0  0  0  0  0  0
  -28.0490  -27.0547   18.6644 O   0  0  0  0  0  0  0  0  0  1  0  0
  -16.8910   -6.0427   22.2765 F   0  0  0  0  0  0  0  0  0  0  0  0
  -20.9042   -6.4340   24.7558 F   0  0  0  0  0  0  0  0  0  0  0  0
  1  2  1  0  0  0  0
  1  5  2  0  0  0  0
  2  6  2  0  0  0  0
  3 10  2  0  0  0  0
  3 18  1  0  0  0  0
  4 11  1  0  0  0  0
  4 18  2  0  0  0  0
  5 20  1  0  0  0  0
  6 22  1  0  0  0  0
  7 12  2  0  0  0  0
  7 21  1  0  0  0  0
  8  9  2  0  0  0  0
  8 25  1  0  0  0  0
  9 26  1  0  0  0  0
 10 27  1  0  0  0  0
 11 27  2  0  0  0  0
 12 28  1  0  0  0  0
 13 14  2  0  0  0  0
 13 29  1  0  0  0  0
 14 30  1  0  0  0  0
 15 23  1  0  0  0  0
 15 25  2  0  0  0  0
 16 24  1  0  0  0  0
 16 28  2  0  0  0  0
 17 30  2  0  0  0  0
 17 31  1  0  0  0  0
 18 32  1  0  0  0  0
 19 32  1  0  0  0  0
 19 33  2  0  0  0  0
 19 34  1  0  0  0  0
 20 22  2  0  0  0  0
 20 39  1  0  0  0  0
 21 24  2  0  0  0  0
 21 40  1  0  0  0  0
 22 52  1  0  0  0  0
 23 26  2  0  0  0  0
 23 41  1  0  0  0  0
 24 42  1  0  0  0  0
 25 60  1  0  0  0  0
 26 70  1  0  0  0  0
 27 84  1  0  0  0  0
 28 85  1  0  0  0  0
 29 31  2  0  0  0  0
 29 84  1  0  0  0  0
 30 86  1  0  0  0  0
 31 87  1  0  0  0  0
 32 68  2  0  0  0  0
 33 69  1  0  0  0  0
 33 73  1  0  0  0  0
 34 74  1  0  0  0  0
 34 79  2  0  0  0  0
 35 53  1  0  0  0  0
 35 75  1  0  0  0  0
 35 80  2  0  0  0  0
 36 65  1  0  0  0  0
 36 71  1  0  0  0  0
 36 81  2  0  0  0  0
 37 66  1  0  0  0  0
 37 76  1  0  0  0  0
 37 82  2  0  0  0  0
 38 70  1  0  0  0  0
 38 72  1  0  0  0  0
 38 83  2  0  0  0  0
 39 43  1  0  0  0  0
 40 53  1  0  0  0  0
 41 44  1  0  0  0  0
 42 71  1  0  0  0  0
 43 47  1  0  0  0  0
 44 45  1  0  0  0  0
 45 49  1  0  0  0  0
 46 48  1  0  0  0  0
 46 50  1  0  0  0  0
 47 52  1  0  0  0  0
 48 54  1  0  0  0  0
 49 70  1  0  0  0  0
 50 72  1  0  0  0  0
 51 54  1  0  0  0  0
 51 72  1  0  0  0  0
 52 75  1  0  0  0  0
 53 71  1  0  0  0  0
 54 69  1  0  0  0  0
 55 66  1  0  0  0  0
 56 67  1  0  0  0  0
 57 67  1  0  0  0  0
 58 67  1  0  0  0  0
 59 77  1  0  0  0  0
 60 78  1  0  0  0  0
 61 62  1  0  0  0  0
 61 63  1  0  0  0  0
 62 64  1  0  0  0  0
 63 78  1  0  0  0  0
 64 85  1  0  0  0  0
 65 67  1  0  0  0  0
 65 76  1  0  0  0  0
 66 77  1  0  0  0  0
 68 69  1  0  0  0  0
M  CHG  2  77   1  78   1
M  ISO  4  38 100  64 101  70 100  85 101
M  END
> <Batch ID>
0152

> <Smiles>
CNC(C)C(=O)NC(C(=O)N1Cc2cc([101O:1][101CH2:1]CCCNCc3ccc4c(c3)CCCC[100N:0]4[100C:0](=O)N3CCCC(n4nc(-c5ccc(Oc6ccc(F)cc6F)cc5)c(C(N)=O)c4N)C3)ccc2CC1C(=O)NC1CCCc2ccccc21)C(C)(C)C

> <Shape>
0.321

> <Color>
0.069

> <Negative vol penalty>
0.000

$$$$

  -OEChem-04052321463D

 92103  0     1  0  0  0  0  0999 V2000
  -21.1819  -24.5304   22.9954 C   0  0  0  0  0  0  0  0  0  0  0  0
  -22.1480  -25.1847   22.2378 C   0  0  0  0  0  0  0  0  0  0  0  0
  -28.8199  -10.1730   16.2395 C   0  0  0  0  0  0  0  0  0  0  0  0
  -31.1233   -9.7338   16.8210 C   0  0  0  0  0  0  0  0  0  0  0  0
  -20.0026  -25.1899   23.3392 C   0  0  0  0  0  0  0  0  0  0  0  0
  -21.9348  -26.4987   21.8227 C   0  0  0  0  0  0  0  0  0  0  0  0
  -26.0110  -29.4302   22.4833 C   0  0  0  0  0  0  0  0  0  0  0  0
  -28.9616   -9.3952   15.0904 C   0  0  0  0  0  0  0  0  0  0  0  0
  -31.2651   -8.9559   15.6719 C   0  0  0  0  0  0  0  0  0  0  0  0
  -27.0398  -29.3099   21.5501 C   0  0  0  0  0  0  0  0  0  0  0  0
  -29.0052   -6.1086   14.2969 C   0  0  0  0  0  0  0  0  0  0  0  0
  -27.9914   -5.1971   14.0020 C   0  0  0  0  0  0  0  0  0  0  0  0
  -28.0151  -25.9973   19.3009 C   0  0  0  0  0  0  0  0  0  0  0  0
  -26.2501  -31.2964   20.4323 C   0  0  0  0  0  0  0  0  0  0  0  0
  -30.1440  -24.3573   18.5521 C   0  0  0  0  0  0  0  0  0  0  0  0
  -27.5985   -6.3152   11.8967 C   0  0  0  0  0  0  0  0  0  0  0  0
  -29.9008  -10.3424   17.1048 C   0  0  0  0  0  0  0  0  0  0  0  0
  -29.3502  -10.7120   19.5681 C   0  0  0  0  0  0  0  0  0  0  0  0
  -19.7791  -26.5159   22.9363 C   0  0  0  0  0  0  0  0  0  0  0  0
  -25.0859  -30.4801   22.3915 C   0  0  0  0  0  0  0  0  0  0  0  0
  -20.7509  -27.1762   22.1603 C   0  0  0  0  0  0  0  0  0  0  0  0
  -29.2461  -26.5616   18.9668 C   0  0  0  0  0  0  0  0  0  0  0  0
  -25.2120  -31.4292   21.3671 C   0  0  0  0  0  0  0  0  0  0  0  0
  -27.8485  -24.6129   19.2608 C   0  0  0  0  0  0  0  0  0  0  0  0
  -30.3106  -25.7416   18.5923 C   0  0  0  0  0  0  0  0  0  0  0  0
  -30.1842   -8.7866   14.8066 C   0  0  0  0  0  0  0  0  0  0  0  0
  -27.1577  -30.2414   20.5227 C   0  0  0  0  0  0  0  0  0  0  0  0
  -29.3156   -7.1235   13.3917 C   0  0  0  0  0  0  0  0  0  0  0  0
  -28.9130  -23.7930   18.8863 C   0  0  0  0  0  0  0  0  0  0  0  0
  -27.2881   -5.3004   12.8019 C   0  0  0  0  0  0  0  0  0  0  0  0
  -28.6122   -7.2268   12.1916 C   0  0  0  0  0  0  0  0  0  0  0  0
  -29.7551  -11.1463   18.2917 C   0  0  0  0  0  0  0  0  0  0  0  0
  -29.3727  -11.8477   20.3403 C   0  0  0  0  0  0  0  0  0  0  0  0
  -28.9865   -9.3994   20.0158 C   0  0  0  0  0  0  0  0  0  0  0  0
  -21.9418  -30.6684   21.9636 C   0  0  0  0  0  0  0  0  0  0  0  0
  -22.4524  -33.8286   22.4877 C   0  0  0  0  0  0  0  0  0  0  0  0
  -24.6243  -36.4605   22.4342 C   0  0  0  0  0  0  0  0  0  0  0  0
  -28.7161  -17.4777   19.2178 C   0  0  0  0  0  0  0  0  0  0  0  0
  -18.4684  -27.1716   23.2921 C   0  0  0  0  0  0  0  0  0  0  0  0
  -23.9978  -30.6111   23.4216 C   0  0  0  0  0  0  0  0  0  0  0  0
  -24.2568  -32.5863   21.2362 C   0  0  0  0  0  0  0  0  0  0  0  0
  -18.4829  -28.6895   23.1303 C   0  0  0  0  0  0  0  0  0  0  0  0
  -31.5594  -16.0792   20.7283 C   0  0  0  0  0  0  0  0  0  0  0  0
  -19.1092  -29.0780   21.7947 C   0  0  0  0  0  0  0  0  0  0  0  0
  -25.1685  -23.7579   17.3733 C   0  0  0  0  0  0  0  0  0  0  0  0
  -24.1720  -23.6339   18.4919 C   0  0  0  0  0  0  0  0  0  0  0  0
  -31.3809  -14.5975   20.3977 C   0  0  0  0  0  0  0  0  0  0  0  0
  -28.7880  -20.8761   20.6987 C   0  0  0  0  0  0  0  0  0  0  0  0
  -30.5085  -20.7477   18.8459 C   0  0  0  0  0  0  0  0  0  0  0  0
  -29.2137  -28.8419   17.7523 C   0  0  0  0  0  0  0  0  0  0  0  0
  -31.1777  -16.9788   19.5515 C   0  0  0  0  0  0  0  0  0  0  0  0
  -28.0518  -19.6976   20.0633 C   0  0  0  0  0  0  0  0  0  0  0  0
  -29.7314  -19.5754   18.2512 C   0  0  0  0  0  0  0  0  0  0  0  0
  -29.6434  -15.2432   18.6854 C   0  0  0  0  0  0  0  0  0  0  0  0
  -29.4025  -28.0453   19.0161 C   0  0  1  0  0  0  0  0  0  0  0  0
  -20.5671  -28.6099   21.7121 C   0  0  1  0  0  0  0  0  0  0  0  0
  -22.8057  -31.4270   22.9311 C   0  0  1  0  0  0  0  0  0  0  0  0
  -25.4014  -24.4807   18.6710 C   0  0  0  0  0  0  0  0  0  0  0  0
  -29.9633  -14.3164   19.8685 C   0  0  1  0  0  0  0  0  0  0  0  0
  -29.6208  -21.6655   19.6881 C   0  0  0  0  0  0  0  0  0  0  0  0
  -28.1826  -28.9136   18.8368 C   0  0  1  0  0  0  0  0  0  1  0  0
  -31.6387  -26.3212   18.2298 C   0  0  0  0  0  0  0  0  0  0  0  0
  -26.1278  -24.3231   21.0799 C   0  0  0  0  0  0  0  0  0  0  0  0
  -24.7416  -38.9272   22.8805 C   0  0  0  0  0  0  0  0  0  0  0  0
  -21.0031  -34.3710   19.8580 C   0  0  0  0  0  0  0  0  0  0  0  0
  -21.9673  -36.6814   19.8836 C   0  0  0  0  0  0  0  0  0  0  0  0
  -20.4318  -35.9523   21.7093 C   0  0  0  0  0  0  0  0  0  0  0  0
  -26.6574  -36.0978   24.5541 C   0  0  0  0  0  0  0  0  0  0  0  0
  -26.5238  -24.0260   19.6219 C   0  0  2  0  0  0  0  0  0  0  0  0
  -22.7792  -35.0177   21.6169 C   0  0  1  0  0  0  0  0  0  0  0  0
  -24.9307  -37.5348   23.4621 C   0  0  2  0  0  0  0  0  0  0  0  0
  -21.5624  -35.4828   20.7680 C   0  0  0  0  0  0  0  0  0  0  0  0
  -30.0156  -12.4557   18.2511 N   0  0  0  0  0  0  0  0  0  0  0  0
  -29.7737  -12.8540   19.5116 N   0  0  0  0  0  0  0  0  0  0  0  0
  -23.2059  -32.6676   22.2642 N   0  0  0  0  0  0  0  0  0  0  0  0
  -29.8350  -16.6467   19.0567 N   0  0  0  0  0  0  0  0  0  0  0  0
  -28.9554  -18.8612   19.2739 N   0  0  0  0  0  0  0  0  0  0  0  0
  -29.0883  -12.0737   21.6405 N   0  0  0  0  0  0  0  0  0  0  0  0
  -29.0180   -8.3458   19.0921 N   0  0  0  0  0  0  0  0  0  0  0  0
  -21.4252  -29.4925   22.4732 N   0  0  0  0  0  0  0  0  0  0  0  0
  -23.3125  -36.0421   22.5081 N   0  0  0  0  0  0  0  0  0  0  0  0
  -26.3378  -37.4109   23.9371 N   0  3  0  0  0  0  0  0  0  0  0  0
  -28.6278   -9.1708   21.1959 O   0  0  0  0  0  0  0  0  0  0  0  0
  -21.7565  -31.1176   20.8386 O   0  0  0  0  0  0  0  0  0  0  0  0
  -21.5662  -33.9286   23.3400 O   0  0  0  0  0  0  0  0  0  0  0  0
  -25.4636  -36.0376   21.6422 O   0  0  0  0  0  0  0  0  0  0  0  0
  -27.5725  -17.0144   19.3097 O   0  0  0  0  0  0  0  0  0  0  0  0
  -30.3228   -8.0273   13.6856 O   0  0  0  0  0  0  0  0  0  0  0  0
  -28.1627  -30.1257   19.6082 O   0  0  0  0  0  0  0  0  0  1  0  0
  -28.7663  -22.4315   18.8418 O   0  0  0  0  0  0  0  0  0  0  0  0
  -26.3156   -4.4240   12.5182 F   0  0  0  0  0  0  0  0  0  0  0  0
  -28.9067   -8.1990   11.3175 F   0  0  0  0  0  0  0  0  0  0  0  0
  1  2  1  0  0  0  0
  1  5  2  0  0  0  0
  2  6  2  0  0  0  0
  3  8  2  0  0  0  0
  3 17  1  0  0  0  0
  4  9  1  0  0  0  0
  4 17  2  0  0  0  0
  5 19  1  0  0  0  0
  6 21  1  0  0  0  0
  7 10  2  0  0  0  0
  7 20  1  0  0  0  0
  8 26  1  0  0  0  0
  9 26  2  0  0  0  0
 10 27  1  0  0  0  0
 11 12  2  0  0  0  0
 11 28  1  0  0  0  0
 12 30  1  0  0  0  0
 13 22  1  0  0  0  0
 13 24  2  0  0  0  0
 14 23  1  0  0  0  0
 14 27  2  0  0  0  0
 15 25  1  0  0  0  0
 15 29  2  0  0  0  0
 16 30  2  0  0  0  0
 16 31  1  0  0  0  0
 17 32  1  0  0  0  0
 18 32  1  0  0  0  0
 18 33  2  0  0  0  0
 18 34  1  0  0  0  0
 19 21  2  0  0  0  0
 19 39  1  0  0  0  0
 20 23  2  0  0  0  0
 20 40  1  0  0  0  0
 21 56  1  0  0  0  0
 22 25  2  0  0  0  0
 22 55  1  0  0  0  0
 23 41  1  0  0  0  0
 24 29  1  0  0  0  0
 24 69  1  0  0  0  0
 25 62  1  0  0  0  0
 26 88  1  0  0  0  0
 27 89  1  0  0  0  0
 28 31  2  0  0  0  0
 28 88  1  0  0  0  0
 29 90  1  0  0  0  0
 30 91  1  0  0  0  0
 31 92  1  0  0  0  0
 32 73  2  0  0  0  0
 33 74  1  0  0  0  0
 33 78  1  0  0  0  0
 34 79  1  0  0  0  0
 34 83  2  0  0  0  0
 35 57  1  0  0  0  0
 35 80  1  0  0  0  0
 35 84  2  0  0  0  0
 36 70  1  0  0  0  0
 36 75  1  0  0  0  0
 36 85  2  0  0  0  0
 37 71  1  0  0  0  0
 37 81  1  0  0  0  0
 37 86  2  0  0  0  0
 38 76  1  0  0  0  0
 38 77  1  0  0  0  0
 38 87  2  0  0  0  0
 39 42  1  0  0  0  0
 40 57  1  0  0  0  0
 41 75  1  0  0  0  0
 42 44  1  0  0  0  0
 43 47  1  0  0  0  0
 43 51  1  0  0  0  0
 44 56  1  0  0  0  0
 45 46  1  0  0  0  0
 45 58  1  0  0  0  0
 46 58  1  0  0  0  0
 47 59  1  0  0  0  0
 48 52  1  0  0  0  0
 48 60  1  0  0  0  0
 49 53  1  0  0  0  0
 49 60  1  0  0  0  0
 50 55  1  0  0  0  0
 50 61  1  0  0  0  0
 51 76  1  0  0  0  0
 52 77  1  0  0  0  0
 53 77  1  0  0  0  0
 54 59  1  0  0  0  0
 54 76  1  0  0  0  0
 55 61  1  0  0  0  0
 56 80  1  0  0  0  0
 57 75  1  0  0  0  0
 58 69  1  0  0  0  0
 59 74  1  0  0  0  0
 60 90  1  0  0  0  0
 61 89  1  0  0  0  0
 63 69  1  0  0  0  0
 64 71  1  0  0  0  0
 65 72  1  0  0  0  0
 66 72  1  0  0  0  0
 67 72  1  0  0  0  0
 68 82  1  0  0  0  0
 70 72  1  0  0  0  0
 70 81  1  0  0  0  0
 71 82  1  0  0  0  0
 73 74  1  0  0  0  0
M  CHG  1  82   1
M  ISO  4  38 100  61 101  77 100  89 101
M  END
> <Batch ID>
0152

> <Smiles>
CNC(C)C(=O)NC(C(=O)N1Cc2cc([101O:1][101CH:1]3CC3c3cc(C(C)C4CC4)c(OC4CC[100N:0]([100C:0](=O)N5CCCC(n6nc(-c7ccc(Oc8ccc(F)cc8F)cc7)c(C(N)=O)c6N)C5)CC4)cc3C)ccc2CC1C(=O)NC1CCCc2ccccc21)C(C)(C)C

> <Shape>
0.264

> <Color>
0.097

> <Negative vol penalty>
0.000

$$$$

  -OEChem-04052321463D

 87 96  0     1  0  0  0  0  0999 V2000
  -19.8095  -23.9572   22.2544 C   0  0  0  0  0  0  0  0  0  0  0  0
  -20.9784  -24.3768   21.6276 C   0  0  0  0  0  0  0  0  0  0  0  0
  -31.7795  -13.0754   16.9022 C   0  0  0  0  0  0  0  0  0  0  0  0
  -33.7179  -12.3181   18.1294 C   0  0  0  0  0  0  0  0  0  0  0  0
  -18.8891  -24.8987   22.7129 C   0  0  0  0  0  0  0  0  0  0  0  0
  -21.2271  -25.7384   21.4580 C   0  0  0  0  0  0  0  0  0  0  0  0
  -25.9861  -27.0059   22.6373 C   0  0  0  0  0  0  0  0  0  0  0  0
  -32.4638  -12.8823   15.7022 C   0  0  0  0  0  0  0  0  0  0  0  0
  -34.4022  -12.1249   16.9294 C   0  0  0  0  0  0  0  0  0  0  0  0
  -26.9739  -26.7157   21.6972 C   0  0  0  0  0  0  0  0  0  0  0  0
  -34.8059  -14.5029   13.8821 C   0  0  0  0  0  0  0  0  0  0  0  0
  -34.7204  -15.5083   12.9191 C   0  0  0  0  0  0  0  0  0  0  0  0
  -26.9373  -29.0120   20.9589 C   0  0  0  0  0  0  0  0  0  0  0  0
  -33.7393  -13.9382   11.3669 C   0  0  0  0  0  0  0  0  0  0  0  0
  -28.1642  -24.8189   18.6659 C   0  0  0  0  0  0  0  0  0  0  0  0
  -32.4066  -12.7934   18.1158 C   0  0  0  0  0  0  0  0  0  0  0  0
  -30.9020  -12.0571   20.0398 C   0  0  0  0  0  0  0  0  0  0  0  0
  -19.1311  -26.2727   22.5574 C   0  0  0  0  0  0  0  0  0  0  0  0
  -25.4578  -28.3009   22.7381 C   0  0  0  0  0  0  0  0  0  0  0  0
  -20.3084  -26.6992   21.9136 C   0  0  0  0  0  0  0  0  0  0  0  0
  -25.9447  -29.3166   21.9029 C   0  0  0  0  0  0  0  0  0  0  0  0
  -28.8859  -25.0646   19.8131 C   0  0  0  0  0  0  0  0  0  0  0  0
  -29.1115  -23.8175   20.4463 C   0  0  0  0  0  0  0  0  0  0  0  0
  -33.7751  -12.4070   15.7157 C   0  0  0  0  0  0  0  0  0  0  0  0
  -27.4476  -27.7181   20.8558 C   0  0  0  0  0  0  0  0  0  0  0  0
  -34.3582  -13.2151   13.5875 C   0  0  0  0  0  0  0  0  0  0  0  0
  -34.1871  -15.2260   11.6615 C   0  0  0  0  0  0  0  0  0  0  0  0
  -33.8249  -12.9327   12.3299 C   0  0  0  0  0  0  0  0  0  0  0  0
  -31.7005  -12.9932   19.3558 C   0  0  0  0  0  0  0  0  0  0  0  0
  -28.5209  -22.8476   19.6666 C   0  0  0  0  0  0  0  0  0  0  0  0
  -30.4612  -12.7301   21.1530 C   0  0  0  0  0  0  0  0  0  0  0  0
  -30.5869  -10.7004   19.6993 C   0  0  0  0  0  0  0  0  0  0  0  0
  -22.5751  -29.5839   22.3533 C   0  0  0  0  0  0  0  0  0  0  0  0
  -24.0492  -32.2605   23.4419 C   0  0  0  0  0  0  0  0  0  0  0  0
  -26.9553  -33.9989   23.8657 C   0  0  0  0  0  0  0  0  0  0  0  0
  -29.5664  -18.3797   22.4662 C   0  0  0  0  0  0  0  0  0  0  0  0
  -18.0845  -27.2519   23.0271 C   0  0  0  0  0  0  0  0  0  0  0  0
  -24.4117  -28.6039   23.7755 C   0  0  0  0  0  0  0  0  0  0  0  0
  -25.4250  -30.7278   21.9847 C   0  0  0  0  0  0  0  0  0  0  0  0
  -18.5992  -28.6844   23.1434 C   0  0  0  0  0  0  0  0  0  0  0  0
  -31.6944  -16.2391   24.1508 C   0  0  0  0  0  0  0  0  0  0  0  0
  -19.3954  -29.0681   21.9002 C   0  0  0  0  0  0  0  0  0  0  0  0
  -31.8659  -15.0649   23.1875 C   0  0  0  0  0  0  0  0  0  0  0  0
  -29.8455  -20.6944   19.8429 C   0  0  0  0  0  0  0  0  0  0  0  0
  -27.6900  -20.9630   21.1434 C   0  0  0  0  0  0  0  0  0  0  0  0
  -31.7099  -17.5664   23.4014 C   0  0  0  0  0  0  0  0  0  0  0  0
  -29.7692  -19.1821   20.0713 C   0  0  0  0  0  0  0  0  0  0  0  0
  -27.6507  -19.4475   21.3180 C   0  0  0  0  0  0  0  0  0  0  0  0
  -30.8409  -16.4934   21.3492 C   0  0  0  0  0  0  0  0  0  0  0  0
  -20.6255  -28.1679   21.7332 C   0  0  1  0  0  0  0  0  0  0  0  0
  -28.4504  -21.3446   19.8603 C   0  0  0  0  0  0  0  0  0  0  0  0
  -23.5791  -29.8380   23.4419 C   0  0  1  0  0  0  0  0  0  0  0  0
  -30.8256  -15.1222   22.0549 C   0  0  1  0  0  0  0  0  0  0  0  0
  -29.8445  -23.5953   21.7098 C   0  0  0  0  0  0  0  0  0  0  0  0
  -30.7123  -26.7972   19.7377 C   0  0  0  0  0  0  0  0  0  0  0  0
  -27.8381  -36.1742   24.7522 C   0  0  0  0  0  0  0  0  0  0  0  0
  -27.4150  -23.5260   16.1785 C   0  0  0  0  0  0  0  0  0  0  0  0
  -25.7423  -22.6375   17.8575 C   0  0  0  0  0  0  0  0  0  0  0  0
  -23.0119  -33.6922   20.9551 C   0  0  0  0  0  0  0  0  0  0  0  0
  -24.6687  -35.5159   21.3991 C   0  0  0  0  0  0  0  0  0  0  0  0
  -22.8747  -35.0309   23.0630 C   0  0  0  0  0  0  0  0  0  0  0  0
  -28.6322  -32.6294   25.8834 C   0  0  0  0  0  0  0  0  0  0  0  0
  -29.3357  -26.3891   20.2861 C   0  0  1  0  0  0  0  0  0  1  0  0
  -24.7942  -33.4065   22.8011 C   0  0  1  0  0  0  0  0  0  0  0  0
  -27.5315  -34.7192   25.0713 C   0  0  2  0  0  0  0  0  0  0  0  0
  -27.2238  -22.8143   17.5193 C   0  0  0  0  0  0  0  0  0  0  0  0
  -23.8460  -34.3844   22.0515 C   0  0  0  0  0  0  0  0  0  0  0  0
  -31.7649  -14.1712   19.9821 N   0  0  0  0  0  0  0  0  0  0  0  0
  -27.9484  -23.4678   18.5870 N   0  0  0  0  0  0  0  0  0  0  0  0
  -31.0012  -13.9799   21.0712 N   0  0  0  0  0  0  0  0  0  0  0  0
  -24.3982  -30.9728   23.0110 N   0  0  0  0  0  0  0  0  0  0  0  0
  -30.7113  -17.5799   22.3326 N   0  0  0  0  0  0  0  0  0  0  0  0
  -28.9978  -18.8786   21.2846 N   0  0  0  0  0  0  0  0  0  0  0  0
  -29.6682  -12.3689   22.1841 N   0  0  0  0  0  0  0  0  0  0  0  0
  -31.1235  -10.1656   18.5202 N   0  0  0  0  0  0  0  0  0  0  0  0
  -21.6764  -28.5745   22.6413 N   0  0  0  0  0  0  0  0  0  0  0  0
  -25.5768  -34.0294   23.8632 N   0  0  0  0  0  0  0  0  0  0  0  0
  -28.7920  -34.0597   25.5151 N   0  3  0  0  0  0  0  0  0  0  0  0
  -29.8380   -9.9889   20.4110 O   0  0  0  0  0  0  0  0  0  0  0  0
  -22.6121  -30.2549   21.3286 O   0  0  0  0  0  0  0  0  0  0  0  0
  -23.1943  -32.4987   24.2987 O   0  0  0  0  0  0  0  0  0  0  0  0
  -27.6579  -33.4659   23.0096 O   0  0  0  0  0  0  0  0  0  0  0  0
  -29.0798  -18.6330   23.5754 O   0  0  0  0  0  0  0  0  0  0  0  0
  -34.4430  -12.2182   14.5449 O   0  0  0  0  0  0  0  0  0  0  0  0
  -28.4123  -27.4371   19.9359 O   0  0  0  0  0  0  0  0  0  1  0  0
  -34.1036  -16.1920   10.7374 F   0  0  0  0  0  0  0  0  0  0  0  0
  -33.3921  -11.6977   12.0415 F   0  0  0  0  0  0  0  0  0  0  0  0
  1  2  1  0  0  0  0
  1  5  2  0  0  0  0
  2  6  2  0  0  0  0
  3  8  2  0  0  0  0
  3 16  1  0  0  0  0
  4  9  1  0  0  0  0
  4 16  2  0  0  0  0
  5 18  1  0  0  0  0
  6 20  1  0  0  0  0
  7 10  2  0  0  0  0
  7 19  1  0  0  0  0
  8 24  1  0  0  0  0
  9 24  2  0  0  0  0
 10 25  1  0  0  0  0
 11 12  2  0  0  0  0
 11 26  1  0  0  0  0
 12 27  1  0  0  0  0
 13 21  1  0  0  0  0
 13 25  2  0  0  0  0
 14 27  2  0  0  0  0
 14 28  1  0  0  0  0
 15 22  2  0  0  0  0
 15 69  1  0  0  0  0
 16 29  1  0  0  0  0
 17 29  1  0  0  0  0
 17 31  2  0  0  0  0
 17 32  1  0  0  0  0
 18 20  2  0  0  0  0
 18 37  1  0  0  0  0
 19 21  2  0  0  0  0
 19 38  1  0  0  0  0
 20 50  1  0  0  0  0
 21 39  1  0  0  0  0
 22 23  1  0  0  0  0
 22 63  1  0  0  0  0
 23 30  2  0  0  0  0
 23 54  1  0  0  0  0
 24 84  1  0  0  0  0
 25 85  1  0  0  0  0
 26 28  2  0  0  0  0
 26 84  1  0  0  0  0
 27 86  1  0  0  0  0
 28 87  1  0  0  0  0
 29 68  2  0  0  0  0
 30 51  1  0  0  0  0
 30 69  1  0  0  0  0
 31 70  1  0  0  0  0
 31 74  1  0  0  0  0
 32 75  1  0  0  0  0
 32 79  2  0  0  0  0
 33 52  1  0  0  0  0
 33 76  1  0  0  0  0
 33 80  2  0  0  0  0
 34 64  1  0  0  0  0
 34 71  1  0  0  0  0
 34 81  2  0  0  0  0
 35 65  1  0  0  0  0
 35 77  1  0  0  0  0
 35 82  2  0  0  0  0
 36 72  1  0  0  0  0
 36 73  1  0  0  0  0
 36 83  2  0  0  0  0
 37 40  1  0  0  0  0
 38 52  1  0  0  0  0
 39 71  1  0  0  0  0
 40 42  1  0  0  0  0
 41 43  1  0  0  0  0
 41 46  1  0  0  0  0
 42 50  1  0  0  0  0
 43 53  1  0  0  0  0
 44 47  1  0  0  0  0
 44 51  1  0  0  0  0
 45 48  1  0  0  0  0
 45 51  1  0  0  0  0
 46 72  1  0  0  0  0
 47 73  1  0  0  0  0
 48 73  1  0  0  0  0
 49 53  1  0  0  0  0
 49 72  1  0  0  0  0
 50 76  1  0  0  0  0
 52 71  1  0  0  0  0
 53 70  1  0  0  0  0
 55 63  1  0  0  0  0
 56 65  1  0  0  0  0
 57 66  1  0  0  0  0
 58 66  1  0  0  0  0
 59 67  1  0  0  0  0
 60 67  1  0  0  0  0
 61 67  1  0  0  0  0
 62 78  1  0  0  0  0
 63 85  1  0  0  0  0
 64 67  1  0  0  0  0
 64 77  1  0  0  0  0
 65 78  1  0  0  0  0
 66 69  1  0  0  0  0
 68 70  1  0  0  0  0
M  CHG  1  78   1
M  ISO  4  36 100  63 101  73 100  85 101
M  END
> <Batch ID>
0152

> <Smiles>
CNC(C)C(=O)NC(C(=O)N1Cc2cc([101O:1][101CH:1](C)c3cn(C(C)C)c(C4CC[100N:0]([100C:0](=O)N5CCCC(n6nc(-c7ccc(Oc8ccc(F)cc8F)cc7)c(C(N)=O)c6N)C5)CC4)c3C)ccc2CC1C(=O)NC1CCCc2ccccc21)C(C)(C)C

> <Shape>
0.270

> <Color>
0.087

> <Negative vol penalty>
0.000

$$$$

  -OEChem-04052321463D

 86 95  0     1  0  0  0  0  0999 V2000
  -22.5189  -10.7887   19.4398 C   0  0  0  0  0  0  0  0  0  0  0  0
  -21.9683  -12.0535   19.6204 C   0  0  0  0  0  0  0  0  0  0  0  0
  -29.4275  -27.6218   18.2077 C   0  0  0  0  0  0  0  0  0  0  0  0
  -29.1714  -26.2000   20.1442 C   0  0  0  0  0  0  0  0  0  0  0  0
  -23.8430  -10.5477   19.8036 C   0  0  0  0  0  0  0  0  0  0  0  0
  -22.7413  -13.0777   20.1660 C   0  0  0  0  0  0  0  0  0  0  0  0
  -22.4851  -19.0326   18.7591 C   0  0  0  0  0  0  0  0  0  0  0  0
  -30.6563  -27.0229   17.9304 C   0  0  0  0  0  0  0  0  0  0  0  0
  -30.4002  -25.6011   19.8669 C   0  0  0  0  0  0  0  0  0  0  0  0
  -21.8566  -20.1152   19.3729 C   0  0  0  0  0  0  0  0  0  0  0  0
  -33.8364  -27.2261   19.0572 C   0  0  0  0  0  0  0  0  0  0  0  0
  -34.9024  -28.0608   18.7219 C   0  0  0  0  0  0  0  0  0  0  0  0
  -23.9145  -20.6584   20.5084 C   0  0  0  0  0  0  0  0  0  0  0  0
  -21.4519  -23.8512   23.6828 C   0  0  0  0  0  0  0  0  0  0  0  0
  -35.0966  -26.9538   16.5832 C   0  0  0  0  0  0  0  0  0  0  0  0
  -28.6850  -27.2104   19.3147 C   0  0  0  0  0  0  0  0  0  0  0  0
  -26.1492  -27.4257   19.1386 C   0  0  0  0  0  0  0  0  0  0  0  0
  -24.6356  -11.5720   20.3451 C   0  0  0  0  0  0  0  0  0  0  0  0
  -23.8323  -18.7478   19.0242 C   0  0  0  0  0  0  0  0  0  0  0  0
  -24.0769  -12.8498   20.5387 C   0  0  0  0  0  0  0  0  0  0  0  0
  -24.5585  -19.5731   19.8947 C   0  0  0  0  0  0  0  0  0  0  0  0
  -21.9380  -23.8358   22.3522 C   0  0  0  0  0  0  0  0  0  0  0  0
  -31.1427  -26.0125   18.7600 C   0  0  0  0  0  0  0  0  0  0  0  0
  -22.5705  -20.9266   20.2499 C   0  0  0  0  0  0  0  0  0  0  0  0
  -33.4005  -26.2551   18.1555 C   0  0  0  0  0  0  0  0  0  0  0  0
  -35.5325  -27.9247   17.4849 C   0  0  0  0  0  0  0  0  0  0  0  0
  -34.0306  -26.1190   16.9186 C   0  0  0  0  0  0  0  0  0  0  0  0
  -27.4159  -27.8291   19.6019 C   0  0  0  0  0  0  0  0  0  0  0  0
  -20.7362  -25.0167   23.8458 C   0  0  0  0  0  0  0  0  0  0  0  0
  -21.5048  -24.9925   21.7426 C   0  0  0  0  0  0  0  0  0  0  0  0
  -25.2772  -28.3324   19.6900 C   0  0  0  0  0  0  0  0  0  0  0  0
  -25.7928  -26.3295   18.2860 C   0  0  0  0  0  0  0  0  0  0  0  0
  -25.3970  -16.2927   20.3003 C   0  0  0  0  0  0  0  0  0  0  0  0
  -28.0092  -17.9968   19.4087 C   0  0  0  0  0  0  0  0  0  0  0  0
  -29.3649  -21.0342   18.6453 C   0  0  0  0  0  0  0  0  0  0  0  0
  -23.4334  -31.3980   23.8340 C   0  0  0  0  0  0  0  0  0  0  0  0
  -26.0476  -11.2512   20.7672 C   0  0  0  0  0  0  0  0  0  0  0  0
  -24.5030  -17.5921   18.3335 C   0  0  0  0  0  0  0  0  0  0  0  0
  -26.0124  -19.3221   20.1972 C   0  0  0  0  0  0  0  0  0  0  0  0
  -26.9124  -12.4890   20.9911 C   0  0  0  0  0  0  0  0  0  0  0  0
  -26.1257  -32.6935   22.0940 C   0  0  0  0  0  0  0  0  0  0  0  0
  -26.1605  -13.5221   21.8243 C   0  0  0  0  0  0  0  0  0  0  0  0
  -26.6081  -31.5180   21.2443 C   0  0  0  0  0  0  0  0  0  0  0  0
  -20.4853  -29.4847   22.6615 C   0  0  0  0  0  0  0  0  0  0  0  0
  -22.2041  -27.8727   23.5537 C   0  0  0  0  0  0  0  0  0  0  0  0
  -25.7404  -32.2325   23.4951 C   0  0  0  0  0  0  0  0  0  0  0  0
  -21.1255  -30.5962   23.4886 C   0  0  0  0  0  0  0  0  0  0  0  0
  -22.8080  -29.0124   24.3677 C   0  0  0  0  0  0  0  0  0  0  0  0
  -25.1742  -29.9722   22.6667 C   0  0  0  0  0  0  0  0  0  0  0  0
  -24.8910  -13.9932   21.1046 C   0  0  1  0  0  0  0  0  0  0  0  0
  -25.7389  -17.0896   19.0732 C   0  0  1  0  0  0  0  0  0  0  0  0
  -20.7095  -28.1053   23.2944 C   0  0  0  0  0  0  0  0  0  0  0  0
  -25.5705  -30.3813   21.2338 C   0  0  2  0  0  0  0  0  0  0  0  0
  -20.0204  -25.5298   25.0320 C   0  0  0  0  0  0  0  0  0  0  0  0
  -21.7230  -25.4825   20.3648 C   0  0  0  0  0  0  0  0  0  0  0  0
  -31.5333  -22.1156   17.9926 C   0  0  0  0  0  0  0  0  0  0  0  0
  -18.6094  -26.9157   22.5327 C   0  0  0  0  0  0  0  0  0  0  0  0
  -28.9899  -17.7628   22.2885 C   0  0  0  0  0  0  0  0  0  0  0  0
  -30.6109  -19.6107   21.8130 C   0  0  0  0  0  0  0  0  0  0  0  0
  -30.7663  -17.4629   20.5538 C   0  0  0  0  0  0  0  0  0  0  0  0
  -28.2492  -21.9885   16.0755 C   0  0  0  0  0  0  0  0  0  0  0  0
  -22.7573  -22.7713   21.7392 C   0  0  0  0  0  0  0  0  0  1  0  0
  -28.8671  -19.0561   20.0573 C   0  0  1  0  0  0  0  0  0  0  0  0
  -30.2436  -21.4839   17.4920 C   0  0  2  0  0  0  0  0  0  0  0  0
  -20.1331  -27.0013   22.4112 C   0  0  2  0  0  0  0  0  0  0  0  0
  -29.7806  -18.4770   21.1742 C   0  0  0  0  0  0  0  0  0  0  0  0
  -27.3581  -28.9081   20.3871 N   0  0  0  0  0  0  0  0  0  0  0  0
  -20.7754  -25.7028   22.6600 N   0  0  0  0  0  0  0  0  0  0  0  0
  -26.0447  -29.1905   20.4213 N   0  0  0  0  0  0  0  0  0  0  0  0
  -26.6218  -18.1763   19.5021 N   0  0  0  0  0  0  0  0  0  0  0  0
  -24.7576  -31.1503   23.4421 N   0  0  0  0  0  0  0  0  0  0  0  0
  -22.5364  -30.3198   23.7555 N   0  0  0  0  0  0  0  0  0  0  0  0
  -23.9365  -28.4714   19.6157 N   0  0  0  0  0  0  0  0  0  0  0  0
  -26.8129  -25.4958   17.8079 N   0  0  0  0  0  0  0  0  0  0  0  0
  -25.2228  -14.9424   20.0638 N   0  0  0  0  0  0  0  0  0  0  0  0
  -29.5906  -19.7145   18.9750 N   0  0  0  0  0  0  0  0  0  0  0  0
  -29.5252  -22.4841   16.6528 N   0  3  0  0  0  0  0  0  0  0  0  0
  -24.6066  -26.1059   17.9447 O   0  0  0  0  0  0  0  0  0  0  0  0
  -25.2998  -16.8606   21.3818 O   0  0  0  0  0  0  0  0  0  0  0  0
  -28.5502  -17.0488   18.8339 O   0  0  0  0  0  0  0  0  0  0  0  0
  -28.5614  -21.7802   19.2007 O   0  0  0  0  0  0  0  0  0  0  0  0
  -23.0708  -32.5142   24.2261 O   0  0  0  0  0  0  0  0  0  0  0  0
  -32.3416  -25.4277   18.4896 O   0  0  0  0  0  0  0  0  0  0  0  0
  -21.9562  -21.9891   20.8540 O   0  0  0  0  0  0  0  0  0  1  0  0
  -36.5552  -28.7274   17.1625 F   0  0  0  0  0  0  0  0  0  0  0  0
  -33.6155  -25.1888   16.0477 F   0  0  0  0  0  0  0  0  0  0  0  0
  1  2  1  0  0  0  0
  1  5  2  0  0  0  0
  2  6  2  0  0  0  0
  3  8  2  0  0  0  0
  3 16  1  0  0  0  0
  4  9  1  0  0  0  0
  4 16  2  0  0  0  0
  5 18  1  0  0  0  0
  6 20  1  0  0  0  0
  7 10  2  0  0  0  0
  7 19  1  0  0  0  0
  8 23  1  0  0  0  0
  9 23  2  0  0  0  0
 10 24  1  0  0  0  0
 11 12  2  0  0  0  0
 11 25  1  0  0  0  0
 12 26  1  0  0  0  0
 13 21  1  0  0  0  0
 13 24  2  0  0  0  0
 14 22  1  0  0  0  0
 14 29  2  0  0  0  0
 15 26  2  0  0  0  0
 15 27  1  0  0  0  0
 16 28  1  0  0  0  0
 17 28  1  0  0  0  0
 17 31  2  0  0  0  0
 17 32  1  0  0  0  0
 18 20  2  0  0  0  0
 18 37  1  0  0  0  0
 19 21  2  0  0  0  0
 19 38  1  0  0  0  0
 20 50  1  0  0  0  0
 21 39  1  0  0  0  0
 22 30  2  0  0  0  0
 22 62  1  0  0  0  0
 23 83  1  0  0  0  0
 24 84  1  0  0  0  0
 25 27  2  0  0  0  0
 25 83  1  0  0  0  0
 26 85  1  0  0  0  0
 27 86  1  0  0  0  0
 28 67  2  0  0  0  0
 29 54  1  0  0  0  0
 29 68  1  0  0  0  0
 30 55  1  0  0  0  0
 30 68  1  0  0  0  0
 31 69  1  0  0  0  0
 31 73  1  0  0  0  0
 32 74  1  0  0  0  0
 32 78  2  0  0  0  0
 33 51  1  0  0  0  0
 33 75  1  0  0  0  0
 33 79  2  0  0  0  0
 34 63  1  0  0  0  0
 34 70  1  0  0  0  0
 34 80  2  0  0  0  0
 35 64  1  0  0  0  0
 35 76  1  0  0  0  0
 35 81  2  0  0  0  0
 36 71  1  0  0  0  0
 36 72  1  0  0  0  0
 36 82  2  0  0  0  0
 37 40  1  0  0  0  0
 38 51  1  0  0  0  0
 39 70  1  0  0  0  0
 40 42  1  0  0  0  0
 41 43  1  0  0  0  0
 41 46  1  0  0  0  0
 42 50  1  0  0  0  0
 43 53  1  0  0  0  0
 44 47  1  0  0  0  0
 44 52  1  0  0  0  0
 45 48  1  0  0  0  0
 45 52  1  0  0  0  0
 46 71  1  0  0  0  0
 47 72  1  0  0  0  0
 48 72  1  0  0  0  0
 49 53  1  0  0  0  0
 49 71  1  0  0  0  0
 50 75  1  0  0  0  0
 51 70  1  0  0  0  0
 52 65  1  0  0  0  0
 53 69  1  0  0  0  0
 56 64  1  0  0  0  0
 57 65  1  0  0  0  0
 58 66  1  0  0  0  0
 59 66  1  0  0  0  0
 60 66  1  0  0  0  0
 61 77  1  0  0  0  0
 62 84  1  0  0  0  0
 63 66  1  0  0  0  0
 63 76  1  0  0  0  0
 64 77  1  0  0  0  0
 65 68  1  0  0  0  0
 67 69  1  0  0  0  0
M  CHG  1  77   1
M  ISO  4  36 100  62 101  72 100  84 101
M  END
> <Batch ID>
0152

> <Smiles>
CNC(C)C(=O)NC(C(=O)N1Cc2cc([101O:1][101CH2:1]c3cc(C)n(C(C)C4CC[100N:0]([100C:0](=O)N5CCCC(n6nc(-c7ccc(Oc8ccc(F)cc8F)cc7)c(C(N)=O)c6N)C5)CC4)c3C)ccc2CC1C(=O)NC1CCCc2ccccc21)C(C)(C)C

> <Shape>
0.264

> <Color>
0.066

> <Negative vol penalty>
0.000

$$$$

  -OEChem-04052321463D

 84 93  0     1  0  0  0  0  0999 V2000
  -42.1510  -21.6682   26.1830 C   0  0  0  0  0  0  0  0  0  0  0  0
  -41.0106  -21.2834   25.4852 C   0  0  0  0  0  0  0  0  0  0  0  0
  -23.0003   -9.8924   19.9811 C   0  0  0  0  0  0  0  0  0  0  0  0
  -23.7262   -9.9452   22.2849 C   0  0  0  0  0  0  0  0  0  0  0  0
  -42.4463  -23.0215   26.3418 C   0  0  0  0  0  0  0  0  0  0  0  0
  -40.1642  -22.2519   24.9467 C   0  0  0  0  0  0  0  0  0  0  0  0
  -38.7313  -21.1648   20.2128 C   0  0  0  0  0  0  0  0  0  0  0  0
  -30.2481  -18.9347   23.0724 C   0  0  0  0  0  0  0  0  0  0  0  0
  -22.2344   -8.7576   20.2484 C   0  0  0  0  0  0  0  0  0  0  0  0
  -22.9603   -8.8105   22.5522 C   0  0  0  0  0  0  0  0  0  0  0  0
  -37.7276  -20.2101   20.0547 C   0  0  0  0  0  0  0  0  0  0  0  0
  -23.2062   -5.4713   22.0823 C   0  0  0  0  0  0  0  0  0  0  0  0
  -23.7945   -4.4549   22.8349 C   0  0  0  0  0  0  0  0  0  0  0  0
  -29.7602  -17.6977   22.6661 C   0  0  0  0  0  0  0  0  0  0  0  0
  -36.1089  -21.9718   19.7460 C   0  0  0  0  0  0  0  0  0  0  0  0
  -22.0710   -4.6980   24.5105 C   0  0  0  0  0  0  0  0  0  0  0  0
  -23.7462  -10.4861   20.9993 C   0  0  0  0  0  0  0  0  0  0  0  0
  -24.1302  -13.0018   20.8216 C   0  0  0  0  0  0  0  0  0  0  0  0
  -41.6082  -24.0069   25.7967 C   0  0  0  0  0  0  0  0  0  0  0  0
  -38.4289  -22.5326   20.1494 C   0  0  0  0  0  0  0  0  0  0  0  0
  -40.4478  -23.6198   25.0995 C   0  0  0  0  0  0  0  0  0  0  0  0
  -31.5233  -19.3334   22.6874 C   0  0  0  0  0  0  0  0  0  0  0  0
  -37.1110  -22.9418   19.9010 C   0  0  0  0  0  0  0  0  0  0  0  0
  -22.2144   -8.2167   21.5339 C   0  0  0  0  0  0  0  0  0  0  0  0
  -36.4157  -20.6135   19.8242 C   0  0  0  0  0  0  0  0  0  0  0  0
  -22.0503   -6.1012   22.5439 C   0  0  0  0  0  0  0  0  0  0  0  0
  -23.2269   -4.0682   24.0490 C   0  0  0  0  0  0  0  0  0  0  0  0
  -21.4827   -5.7145   23.7579 C   0  0  0  0  0  0  0  0  0  0  0  0
  -24.5380  -11.6579   20.7237 C   0  0  0  0  0  0  0  0  0  0  0  0
  -30.5804  -16.9028   21.8818 C   0  0  0  0  0  0  0  0  0  0  0  0
  -32.2647  -18.4652   21.9022 C   0  0  0  0  0  0  0  0  0  0  0  0
  -25.2395  -13.7247   20.4564 C   0  0  0  0  0  0  0  0  0  0  0  0
  -22.8621  -13.5478   21.2082 C   0  0  0  0  0  0  0  0  0  0  0  0
  -38.6368  -24.9721   22.1765 C   0  0  0  0  0  0  0  0  0  0  0  0
  -37.7452  -26.6998   19.5799 C   0  0  0  0  0  0  0  0  0  0  0  0
  -36.1955  -26.7712   16.5401 C   0  0  0  0  0  0  0  0  0  0  0  0
  -30.7185  -14.6887   20.6879 C   0  0  0  0  0  0  0  0  0  0  0  0
  -41.9435  -25.4580   26.0349 C   0  0  0  0  0  0  0  0  0  0  0  0
  -39.5276  -23.5495   20.2954 C   0  0  0  0  0  0  0  0  0  0  0  0
  -36.7376  -24.3977   19.8039 C   0  0  0  0  0  0  0  0  0  0  0  0
  -41.1945  -26.4157   25.1118 C   0  0  0  0  0  0  0  0  0  0  0  0
  -29.6007  -12.2338   18.3639 C   0  0  0  0  0  0  0  0  0  0  0  0
  -39.7149  -26.0500   25.0502 C   0  0  0  0  0  0  0  0  0  0  0  0
  -28.1504  -11.9757   18.7787 C   0  0  0  0  0  0  0  0  0  0  0  0
  -30.5015  -12.4784   19.5732 C   0  0  0  0  0  0  0  0  0  0  0  0
  -28.5862  -13.2672   20.9069 C   0  0  0  0  0  0  0  0  0  0  0  0
  -32.1627  -20.9688   24.5991 C   0  0  0  0  0  0  0  0  0  0  0  0
  -39.5183  -24.6403   24.4795 C   0  0  1  0  0  0  0  0  0  0  0  0
  -32.0574  -20.6560   23.1161 C   0  0  1  0  0  0  0  0  0  0  0  0
  -39.0181  -24.9222   20.7240 C   0  0  1  0  0  0  0  0  0  0  0  0
  -27.6283  -13.0796   19.7191 C   0  0  2  0  0  0  0  0  0  0  0  0
  -35.5923  -28.3353   14.6727 C   0  0  0  0  0  0  0  0  0  0  0  0
  -35.4871  -27.8523   21.2778 C   0  0  0  0  0  0  0  0  0  0  0  0
  -34.3908  -28.6316   19.1661 C   0  0  0  0  0  0  0  0  0  0  0  0
  -36.6356  -29.5136   19.8029 C   0  0  0  0  0  0  0  0  0  0  0  0
  -34.2997  -21.7273   23.5141 C   0  0  0  0  0  0  0  0  0  0  0  0
  -37.8035  -25.2403   14.5832 C   0  0  0  0  0  0  0  0  0  0  0  0
  -35.5975  -18.4461   20.3614 C   0  0  0  0  0  0  0  0  0  1  0  0
  -34.2304  -17.8823   20.6974 C   0  0  0  0  0  0  0  0  0  0  0  0
  -36.4269  -27.1309   18.9838 C   0  0  1  0  0  0  0  0  0  0  0  0
  -36.6236  -27.3522   15.2046 C   0  0  2  0  0  0  0  0  0  0  0  0
  -35.7415  -28.2546   19.8113 C   0  0  0  0  0  0  0  0  0  0  0  0
  -25.8072  -11.5318   20.3272 N   0  0  0  0  0  0  0  0  0  0  0  0
  -31.8245  -17.2559   21.4879 N   0  0  0  0  0  0  0  0  0  0  0  0
  -26.2065  -12.8057   20.1726 N   0  0  0  0  0  0  0  0  0  0  0  0
  -37.8461  -25.3540   19.9598 N   0  0  0  0  0  0  0  0  0  0  0  0
  -29.9462  -13.5396   20.4161 N   0  0  0  0  0  0  0  0  0  0  0  0
  -25.4722  -15.0505   20.3534 N   0  0  0  0  0  0  0  0  0  0  0  0
  -21.8309  -12.6633   21.5526 N   0  0  0  0  0  0  0  0  0  0  0  0
  -30.0740  -15.6441   21.4731 N   0  0  0  0  0  0  0  0  0  0  0  0
  -39.6672  -24.6526   23.0400 N   0  0  0  0  0  0  0  0  0  0  0  0
  -36.7046  -27.4938   17.5983 N   0  0  0  0  0  0  0  0  0  0  0  0
  -33.3417  -20.6587   23.8125 N   0  3  1  0  0  0  0  0  0  0  0  0
  -36.7996  -26.2660   14.1996 N   0  3  0  0  0  0  0  0  0  0  0  0
  -22.6448  -14.7830   21.2312 O   0  0  0  0  0  0  0  0  0  0  0  0
  -37.4928  -25.2794   22.4906 O   0  0  0  0  0  0  0  0  0  0  0  0
  -38.6544  -27.5251   19.6974 O   0  0  0  0  0  0  0  0  0  0  0  0
  -35.4779  -25.7779   16.6351 O   0  0  0  0  0  0  0  0  0  0  0  0
  -31.8570  -14.8280   20.2334 O   0  0  0  0  0  0  0  0  0  0  0  0
  -21.4670   -7.1096   21.7952 O   0  0  0  0  0  0  0  0  0  0  0  0
  -35.4340  -19.6838   19.6702 O   0  0  0  0  0  0  0  0  0  1  0  0
  -33.5257  -18.8205   21.5013 O   0  0  0  0  0  0  0  0  0  0  0  0
  -23.7911   -3.0911   24.7708 F   0  0  0  0  0  0  0  0  0  0  0  0
  -20.3717   -6.3151   24.2060 F   0  0  0  0  0  0  0  0  0  0  0  0
  1  2  1  0  0  0  0
  1  5  2  0  0  0  0
  2  6  2  0  0  0  0
  3  9  2  0  0  0  0
  3 17  1  0  0  0  0
  4 10  1  0  0  0  0
  4 17  2  0  0  0  0
  5 19  1  0  0  0  0
  6 21  1  0  0  0  0
  7 11  2  0  0  0  0
  7 20  1  0  0  0  0
  8 14  2  0  0  0  0
  8 22  1  0  0  0  0
  9 24  1  0  0  0  0
 10 24  2  0  0  0  0
 11 25  1  0  0  0  0
 12 13  2  0  0  0  0
 12 26  1  0  0  0  0
 13 27  1  0  0  0  0
 14 30  1  0  0  0  0
 15 23  1  0  0  0  0
 15 25  2  0  0  0  0
 16 27  2  0  0  0  0
 16 28  1  0  0  0  0
 17 29  1  0  0  0  0
 18 29  1  0  0  0  0
 18 32  2  0  0  0  0
 18 33  1  0  0  0  0
 19 21  2  0  0  0  0
 19 38  1  0  0  0  0
 20 23  2  0  0  0  0
 20 39  1  0  0  0  0
 21 48  1  0  0  0  0
 22 31  2  0  0  0  0
 22 49  1  0  0  0  0
 23 40  1  0  0  0  0
 24 80  1  0  0  0  0
 25 81  1  0  0  0  0
 26 28  2  0  0  0  0
 26 80  1  0  0  0  0
 27 83  1  0  0  0  0
 28 84  1  0  0  0  0
 29 63  2  0  0  0  0
 30 64  2  0  0  0  0
 30 70  1  0  0  0  0
 31 64  1  0  0  0  0
 31 82  1  0  0  0  0
 32 65  1  0  0  0  0
 32 68  1  0  0  0  0
 33 69  1  0  0  0  0
 33 75  2  0  0  0  0
 34 50  1  0  0  0  0
 34 71  1  0  0  0  0
 34 76  2  0  0  0  0
 35 60  1  0  0  0  0
 35 66  1  0  0  0  0
 35 77  2  0  0  0  0
 36 61  1  0  0  0  0
 36 72  1  0  0  0  0
 36 78  2  0  0  0  0
 37 67  1  0  0  0  0
 37 70  1  0  0  0  0
 37 79  2  0  0  0  0
 38 41  1  0  0  0  0
 39 50  1  0  0  0  0
 40 66  1  0  0  0  0
 41 43  1  0  0  0  0
 42 44  1  0  0  0  0
 42 45  1  0  0  0  0
 43 48  1  0  0  0  0
 44 51  1  0  0  0  0
 45 67  1  0  0  0  0
 46 51  1  0  0  0  0
 46 67  1  0  0  0  0
 47 49  1  0  0  0  0
 47 73  1  0  0  0  0
 48 71  1  0  0  0  0
 49 73  1  0  0  0  0
 50 66  1  0  0  0  0
 51 65  1  0  0  0  0
 52 61  1  0  0  0  0
 53 62  1  0  0  0  0
 54 62  1  0  0  0  0
 55 62  1  0  0  0  0
 56 73  1  0  0  0  0
 57 74  1  0  0  0  0
 58 59  1  0  0  0  0
 58 81  1  0  0  0  0
 59 82  1  0  0  0  0
 60 62  1  0  0  0  0
 60 72  1  0  0  0  0
 61 74  1  0  0  0  0
 63 65  1  0  0  0  0
M  CHG  2  73   1  74   1
M  ISO  4  37 100  58 101  70 100  81 101
M  END
> <Batch ID>
0152

> <Smiles>
CNC(C)C(=O)NC(C(=O)N1Cc2cc([101O:1][101CH2:1]COc3nc([100NH:0][100C:0](=O)N4CCCC(n5nc(-c6ccc(Oc7ccc(F)cc7F)cc6)c(C(N)=O)c5N)C4)ccc3C3CN3C)ccc2CC1C(=O)NC1CCCc2ccccc21)C(C)(C)C

> <Shape>
0.175

> <Color>
0.190

> <Negative vol penalty>
0.000

$$$$

  -OEChem-04052321463D

 86 95  0     1  0  0  0  0  0999 V2000
  -29.2316  -23.4202   13.8496 C   0  0  0  0  0  0  0  0  0  0  0  0
  -27.9962  -23.8384   14.3336 C   0  0  0  0  0  0  0  0  0  0  0  0
  -26.6678  -13.3488   20.3003 C   0  0  0  0  0  0  0  0  0  0  0  0
  -24.3544  -13.7148   20.8928 C   0  0  0  0  0  0  0  0  0  0  0  0
  -30.3059  -23.2657   14.7248 C   0  0  0  0  0  0  0  0  0  0  0  0
  -27.8340  -24.1011   15.6934 C   0  0  0  0  0  0  0  0  0  0  0  0
  -24.2705  -28.3973   18.2135 C   0  0  0  0  0  0  0  0  0  0  0  0
  -26.5754  -12.0325   20.7521 C   0  0  0  0  0  0  0  0  0  0  0  0
  -24.2619  -12.3984   21.3446 C   0  0  0  0  0  0  0  0  0  0  0  0
  -22.9957  -28.3472   18.7756 C   0  0  0  0  0  0  0  0  0  0  0  0
  -23.8947   -9.3228   19.9931 C   0  0  0  0  0  0  0  0  0  0  0  0
  -22.7702   -8.5879   19.6175 C   0  0  0  0  0  0  0  0  0  0  0  0
  -23.9776  -28.1335   20.9686 C   0  0  0  0  0  0  0  0  0  0  0  0
  -17.9728  -29.0643   22.9132 C   0  0  0  0  0  0  0  0  0  0  0  0
  -18.1763  -26.6854   23.2825 C   0  0  0  0  0  0  0  0  0  0  0  0
  -22.1871   -8.2916   21.9433 C   0  0  0  0  0  0  0  0  0  0  0  0
  -25.5574  -14.1901   20.3707 C   0  0  0  0  0  0  0  0  0  0  0  0
  -25.9734  -15.9826   18.6039 C   0  0  0  0  0  0  0  0  0  0  0  0
  -30.1594  -23.5360   16.0946 C   0  0  0  0  0  0  0  0  0  0  0  0
  -25.4104  -28.3047   19.0250 C   0  0  0  0  0  0  0  0  0  0  0  0
  -28.9070  -23.9487   16.5880 C   0  0  0  0  0  0  0  0  0  0  0  0
  -25.2658  -28.1852   20.4146 C   0  0  0  0  0  0  0  0  0  0  0  0
  -17.4038  -27.8469   23.2868 C   0  0  0  0  0  0  0  0  0  0  0  0
  -19.3143  -29.1203   22.5350 C   0  0  0  0  0  0  0  0  0  0  0  0
  -20.0868  -27.9589   22.5306 C   0  0  0  0  0  0  0  0  0  0  0  0
  -19.5178  -26.7414   22.9044 C   0  0  0  0  0  0  0  0  0  0  0  0
  -25.3724  -11.5572   21.2743 C   0  0  0  0  0  0  0  0  0  0  0  0
  -22.8490  -28.2124   20.1531 C   0  0  0  0  0  0  0  0  0  0  0  0
  -24.1654   -9.5421   21.3438 C   0  0  0  0  0  0  0  0  0  0  0  0
  -21.9164   -8.0723   20.5926 C   0  0  0  0  0  0  0  0  0  0  0  0
  -23.3115   -9.0265   22.3189 C   0  0  0  0  0  0  0  0  0  0  0  0
  -25.6525  -15.5502   19.9046 C   0  0  0  0  0  0  0  0  0  0  0  0
  -25.9320  -17.3535   18.6779 C   0  0  0  0  0  0  0  0  0  0  0  0
  -26.2815  -15.2139   17.4335 C   0  0  0  0  0  0  0  0  0  0  0  0
  -27.8364  -26.2644   19.2609 C   0  0  0  0  0  0  0  0  0  0  0  0
  -28.9565  -28.4466   21.3836 C   0  0  0  0  0  0  0  0  0  0  0  0
  -28.2751  -30.9813   23.5648 C   0  0  0  0  0  0  0  0  0  0  0  0
  -22.9731  -21.0125   22.2432 C   0  0  0  0  0  0  0  0  0  0  0  0
  -31.3368  -23.3090   17.0093 C   0  0  0  0  0  0  0  0  0  0  0  0
  -26.7787  -28.3872   18.4059 C   0  0  0  0  0  0  0  0  0  0  0  0
  -26.4577  -28.1022   21.3317 C   0  0  0  0  0  0  0  0  0  0  0  0
  -31.1815  -23.9685   18.3772 C   0  0  0  0  0  0  0  0  0  0  0  0
  -26.5597  -20.9580   21.7635 C   0  0  0  0  0  0  0  0  0  0  0  0
  -29.7966  -23.6869   18.9514 C   0  0  0  0  0  0  0  0  0  0  0  0
  -26.7575  -19.5924   21.1029 C   0  0  0  0  0  0  0  0  0  0  0  0
  -21.6998  -23.9496   24.1107 C   0  0  0  0  0  0  0  0  0  0  0  0
  -21.5764  -23.9172   21.6104 C   0  0  0  0  0  0  0  0  0  0  0  0
  -25.4703  -20.9034   22.8303 C   0  0  0  0  0  0  0  0  0  0  0  0
  -20.4448  -24.8211   24.1603 C   0  0  0  0  0  0  0  0  0  0  0  0
  -20.3188  -24.7834   21.6643 C   0  0  0  0  0  0  0  0  0  0  0  0
  -24.3519  -19.0306   21.6835 C   0  0  0  0  0  0  0  0  0  0  0  0
  -28.6982  -24.2674   18.0526 C   0  0  1  0  0  0  0  0  0  0  0  0
  -27.8669  -27.7666   19.2765 C   0  0  1  0  0  0  0  0  0  0  0  0
  -25.4248  -19.0249   20.5795 C   0  0  2  0  0  0  0  0  0  0  0  0
  -21.7213  -23.0619   22.8679 C   0  0  0  0  0  0  0  0  0  0  0  0
  -15.9690  -27.7870   23.6891 C   0  0  0  0  0  0  0  0  0  0  0  0
  -19.8991  -30.4366   22.1392 C   0  0  0  0  0  0  0  0  0  0  0  0
  -29.3916  -32.5423   25.1816 C   0  0  0  0  0  0  0  0  0  0  0  0
  -29.2279  -26.1669   23.3934 C   0  0  0  0  0  0  0  0  0  0  0  0
  -29.4191  -27.8818   25.2074 C   0  0  0  0  0  0  0  0  0  0  0  0
  -31.1301  -27.7906   23.3944 C   0  0  0  0  0  0  0  0  0  0  0  0
  -27.3912  -33.3664   22.0519 C   0  0  0  0  0  0  0  0  0  0  0  0
  -21.5292  -28.0235   22.1224 C   0  0  0  0  0  0  0  0  0  1  0  0
  -28.8150  -28.6614   22.8711 C   0  0  1  0  0  0  0  0  0  0  0  0
  -28.9107  -32.3471   23.7522 C   0  0  2  0  0  0  0  0  0  0  0  0
  -29.6254  -27.6248   23.6994 C   0  0  0  0  0  0  0  0  0  0  0  0
  -25.4241  -16.5641   20.7435 N   0  0  0  0  0  0  0  0  0  0  0  0
  -25.6019  -17.6474   19.9682 N   0  0  0  0  0  0  0  0  0  0  0  0
  -20.2773  -25.5646   22.9075 N   0  0  0  0  0  0  0  0  0  0  0  0
  -27.7744  -28.1810   20.6779 N   0  0  0  0  0  0  0  0  0  0  0  0
  -24.2231  -20.3719   22.2628 N   0  0  0  0  0  0  0  0  0  0  0  0
  -26.1461  -18.3241   17.7644 N   0  0  0  0  0  0  0  0  0  0  0  0
  -25.2305  -14.8358   16.5868 N   0  0  0  0  0  0  0  0  0  0  0  0
  -28.5872  -25.6969   18.2492 N   0  0  0  0  0  0  0  0  0  0  0  0
  -29.1891  -30.0493   23.1205 N   0  0  0  0  0  0  0  0  0  0  0  0
  -22.9347  -22.2769   22.8182 N   0  0  0  0  0  0  0  0  0  0  0  0
  -27.9292  -33.4230   23.4354 N   0  3  0  0  0  0  0  0  0  0  0  0
  -27.4519  -14.8583   17.1558 O   0  0  0  0  0  0  0  0  0  0  0  0
  -27.1813  -25.6646   20.1052 O   0  0  0  0  0  0  0  0  0  0  0  0
  -30.0737  -28.5190   20.8657 O   0  0  0  0  0  0  0  0  0  0  0  0
  -27.0876  -30.7621   23.7935 O   0  0  0  0  0  0  0  0  0  0  0  0
  -21.9661  -20.4979   21.7450 O   0  0  0  0  0  0  0  0  0  0  0  0
  -25.2817  -10.2727   21.7150 O   0  0  0  0  0  0  0  0  0  0  0  0
  -21.6058  -28.1626   20.7043 O   0  0  0  0  0  0  0  0  0  1  0  0
  -20.8358   -7.3678   20.2318 F   0  0  0  0  0  0  0  0  0  0  0  0
  -23.5658   -9.2350   23.6180 F   0  0  0  0  0  0  0  0  0  0  0  0
  1  2  1  0  0  0  0
  1  5  2  0  0  0  0
  2  6  2  0  0  0  0
  3  8  2  0  0  0  0
  3 17  1  0  0  0  0
  4  9  1  0  0  0  0
  4 17  2  0  0  0  0
  5 19  1  0  0  0  0
  6 21  1  0  0  0  0
  7 10  2  0  0  0  0
  7 20  1  0  0  0  0
  8 27  1  0  0  0  0
  9 27  2  0  0  0  0
 10 28  1  0  0  0  0
 11 12  2  0  0  0  0
 11 29  1  0  0  0  0
 12 30  1  0  0  0  0
 13 22  1  0  0  0  0
 13 28  2  0  0  0  0
 14 23  1  0  0  0  0
 14 24  2  0  0  0  0
 15 23  2  0  0  0  0
 15 26  1  0  0  0  0
 16 30  2  0  0  0  0
 16 31  1  0  0  0  0
 17 32  1  0  0  0  0
 18 32  1  0  0  0  0
 18 33  2  0  0  0  0
 18 34  1  0  0  0  0
 19 21  2  0  0  0  0
 19 39  1  0  0  0  0
 20 22  2  0  0  0  0
 20 40  1  0  0  0  0
 21 52  1  0  0  0  0
 22 41  1  0  0  0  0
 23 56  1  0  0  0  0
 24 25  1  0  0  0  0
 24 57  1  0  0  0  0
 25 26  2  0  0  0  0
 25 63  1  0  0  0  0
 26 69  1  0  0  0  0
 27 83  1  0  0  0  0
 28 84  1  0  0  0  0
 29 31  2  0  0  0  0
 29 83  1  0  0  0  0
 30 85  1  0  0  0  0
 31 86  1  0  0  0  0
 32 67  2  0  0  0  0
 33 68  1  0  0  0  0
 33 72  1  0  0  0  0
 34 73  1  0  0  0  0
 34 78  2  0  0  0  0
 35 53  1  0  0  0  0
 35 74  1  0  0  0  0
 35 79  2  0  0  0  0
 36 64  1  0  0  0  0
 36 70  1  0  0  0  0
 36 80  2  0  0  0  0
 37 65  1  0  0  0  0
 37 75  1  0  0  0  0
 37 81  2  0  0  0  0
 38 71  1  0  0  0  0
 38 76  1  0  0  0  0
 38 82  2  0  0  0  0
 39 42  1  0  0  0  0
 40 53  1  0  0  0  0
 41 70  1  0  0  0  0
 42 44  1  0  0  0  0
 43 45  1  0  0  0  0
 43 48  1  0  0  0  0
 44 52  1  0  0  0  0
 45 54  1  0  0  0  0
 46 49  1  0  0  0  0
 46 55  1  0  0  0  0
 47 50  1  0  0  0  0
 47 55  1  0  0  0  0
 48 71  1  0  0  0  0
 49 69  1  0  0  0  0
 50 69  1  0  0  0  0
 51 54  1  0  0  0  0
 51 71  1  0  0  0  0
 52 74  1  0  0  0  0
 53 70  1  0  0  0  0
 54 68  1  0  0  0  0
 55 76  1  0  0  0  0
 58 65  1  0  0  0  0
 59 66  1  0  0  0  0
 60 66  1  0  0  0  0
 61 66  1  0  0  0  0
 62 77  1  0  0  0  0
 63 84  1  0  0  0  0
 64 66  1  0  0  0  0
 64 75  1  0  0  0  0
 65 77  1  0  0  0  0
 67 68  1  0  0  0  0
M  CHG  1  77   1
M  ISO  4  38 100  63 101  76 100  84 101
M  END
> <Batch ID>
0152

> <Smiles>
CNC(C)C(=O)NC(C(=O)N1Cc2cc([101O:1][101CH2:1]c3c(C)cc(C)cc3N3CCC([100NH:0][100C:0](=O)N4CCCC(n5nc(-c6ccc(Oc7ccc(F)cc7F)cc6)c(C(N)=O)c5N)C4)CC3)ccc2CC1C(=O)NC1CCCc2ccccc21)C(C)(C)C

> <Shape>
0.236

> <Color>
0.062

> <Negative vol penalty>
0.000

$$$$

  -OEChem-04052321463D

 97108  0     1  0  0  0  0  0999 V2000
  -16.4318  -29.1518   23.4626 C   0  0  0  0  0  0  0  0  0  0  0  0
  -17.1334  -28.9276   22.2824 C   0  0  0  0  0  0  0  0  0  0  0  0
  -26.9287   -8.7991   21.1307 C   0  0  0  0  0  0  0  0  0  0  0  0
  -27.6945  -10.0669   19.2219 C   0  0  0  0  0  0  0  0  0  0  0  0
  -16.8074  -30.1948   24.3082 C   0  0  0  0  0  0  0  0  0  0  0  0
  -18.2104  -29.7472   21.9465 C   0  0  0  0  0  0  0  0  0  0  0  0
  -24.7855  -26.9921   20.9128 C   0  0  0  0  0  0  0  0  0  0  0  0
  -27.9045   -7.8342   20.8813 C   0  0  0  0  0  0  0  0  0  0  0  0
  -28.6704   -9.1020   18.9726 C   0  0  0  0  0  0  0  0  0  0  0  0
  -26.0274  -26.5153   20.4925 C   0  0  0  0  0  0  0  0  0  0  0  0
  -28.3531   -5.2339   18.7690 C   0  0  0  0  0  0  0  0  0  0  0  0
  -27.9694   -3.8943   18.8302 C   0  0  0  0  0  0  0  0  0  0  0  0
  -29.0557  -21.1519   17.3298 C   0  0  0  0  0  0  0  0  0  0  0  0
  -26.7993  -28.7835   20.1646 C   0  0  0  0  0  0  0  0  0  0  0  0
  -29.5764   -3.5146   20.5939 C   0  0  0  0  0  0  0  0  0  0  0  0
  -26.8236   -9.9155   20.3010 C   0  0  0  0  0  0  0  0  0  0  0  0
  -24.4206  -10.7240   20.5825 C   0  0  0  0  0  0  0  0  0  0  0  0
  -17.8956  -31.0215   23.9872 C   0  0  0  0  0  0  0  0  0  0  0  0
  -24.5507  -28.3685   20.9752 C   0  0  0  0  0  0  0  0  0  0  0  0
  -18.6001  -30.8031   22.7879 C   0  0  0  0  0  0  0  0  0  0  0  0
  -29.9537  -22.1779   17.0356 C   0  0  0  0  0  0  0  0  0  0  0  0
  -29.1744  -19.9170   16.6920 C   0  0  0  0  0  0  0  0  0  0  0  0
  -25.5615  -29.2672   20.5966 C   0  0  0  0  0  0  0  0  0  0  0  0
  -30.9703  -21.9691   16.1036 C   0  0  0  0  0  0  0  0  0  0  0  0
  -30.1909  -19.7082   15.7600 C   0  0  0  0  0  0  0  0  0  0  0  0
  -31.0889  -20.7342   15.4658 C   0  0  0  0  0  0  0  0  0  0  0  0
  -28.7754   -7.9856   19.8023 C   0  0  0  0  0  0  0  0  0  0  0  0
  -27.0316  -27.4088   20.1191 C   0  0  0  0  0  0  0  0  0  0  0  0
  -29.3486   -5.7139   19.6202 C   0  0  0  0  0  0  0  0  0  0  0  0
  -28.5810   -3.0347   19.7427 C   0  0  0  0  0  0  0  0  0  0  0  0
  -29.9601   -4.8542   20.5327 C   0  0  0  0  0  0  0  0  0  0  0  0
  -25.8154  -10.9123   20.5578 C   0  0  0  0  0  0  0  0  0  0  0  0
  -23.9112  -11.9671   20.8683 C   0  0  0  0  0  0  0  0  0  0  0  0
  -23.6538   -9.5318   20.3665 C   0  0  0  0  0  0  0  0  0  0  0  0
  -22.1446  -31.1276   21.7962 C   0  0  0  0  0  0  0  0  0  0  0  0
  -24.8985  -32.0137   22.8167 C   0  0  0  0  0  0  0  0  0  0  0  0
  -27.5986  -32.0671   24.4321 C   0  0  0  0  0  0  0  0  0  0  0  0
  -25.7902  -17.4705   20.0765 C   0  0  0  0  0  0  0  0  0  0  0  0
  -18.2346  -32.1658   24.9093 C   0  0  0  0  0  0  0  0  0  0  0  0
  -23.2080  -28.9257   21.3631 C   0  0  0  0  0  0  0  0  0  0  0  0
  -25.2524  -30.7386   20.6467 C   0  0  0  0  0  0  0  0  0  0  0  0
  -19.6216  -32.7547   24.6647 C   0  0  0  0  0  0  0  0  0  0  0  0
  -24.9914  -16.0393   23.1198 C   0  0  0  0  0  0  0  0  0  0  0  0
  -29.2586  -23.3421   19.1740 C   0  0  0  0  0  0  0  0  0  0  0  0
  -28.9348  -24.4934   16.9360 C   0  0  0  0  0  0  0  0  0  0  0  0
  -19.8511  -32.9784   23.1733 C   0  0  0  0  0  0  0  0  0  0  0  0
  -24.9711  -14.5402   22.8222 C   0  0  0  0  0  0  0  0  0  0  0  0
  -29.1176  -24.6883   19.8797 C   0  0  0  0  0  0  0  0  0  0  0  0
  -28.7961  -25.8336   17.6533 C   0  0  0  0  0  0  0  0  0  0  0  0
  -28.6978  -17.9071   18.1599 C   0  0  0  0  0  0  0  0  0  0  0  0
  -26.7940  -19.3811   17.3772 C   0  0  0  0  0  0  0  0  0  0  0  0
  -32.8901  -20.5493   12.1916 C   0  0  0  0  0  0  0  0  0  0  0  0
  -34.5325  -20.3940   14.0872 C   0  0  0  0  0  0  0  0  0  0  0  0
  -26.1542  -16.7212   22.4082 C   0  0  0  0  0  0  0  0  0  0  0  0
  -27.6800  -16.8206   18.5186 C   0  0  0  0  0  0  0  0  0  0  0  0
  -25.8270  -18.2541   17.7285 C   0  0  0  0  0  0  0  0  0  0  0  0
  -31.7582  -20.1721   13.1498 C   0  0  0  0  0  0  0  0  0  0  0  0
  -33.3925  -20.0147   15.0336 C   0  0  0  0  0  0  0  0  0  0  0  0
  -26.1419  -15.0176   20.6149 C   0  0  0  0  0  0  0  0  0  0  0  0
  -29.8020  -23.5117   17.7440 C   0  0  0  0  0  0  0  0  0  0  0  0
  -28.1844  -18.8184   17.0306 C   0  0  0  0  0  0  0  0  0  0  0  0
  -19.7895  -31.6550   22.4011 C   0  0  1  0  0  0  0  0  0  0  0  0
  -23.3065  -30.2459   22.1484 C   0  0  1  0  0  0  0  0  0  0  0  0
  -24.9787  -14.2773   21.3059 C   0  0  1  0  0  0  0  0  0  0  0  0
  -34.2514  -20.0208   12.6341 C   0  0  0  0  0  0  0  0  0  0  0  0
  -28.2602  -25.6615   19.0726 C   0  0  0  0  0  0  0  0  0  1  0  0
  -31.9306  -23.0742   15.7923 C   0  0  0  0  0  0  0  0  0  0  0  0
  -30.3127  -18.3808   15.0792 C   0  0  0  0  0  0  0  0  0  0  0  0
  -27.0147  -32.9653   26.7014 C   0  0  0  0  0  0  0  0  0  0  0  0
  -25.2249  -33.7717   20.3455 C   0  0  0  0  0  0  0  0  0  0  0  0
  -27.2586  -34.7697   21.4113 C   0  0  0  0  0  0  0  0  0  0  0  0
  -25.0290  -35.0262   22.5001 C   0  0  0  0  0  0  0  0  0  0  0  0
  -30.1889  -33.4791   24.6676 C   0  0  0  0  0  0  0  0  0  0  0  0
  -26.1705  -32.7705   22.5294 C   0  0  1  0  0  0  0  0  0  0  0  0
  -28.1399  -32.5608   25.7616 C   0  0  2  0  0  0  0  0  0  0  0  0
  -25.9189  -34.0564   21.6924 C   0  0  0  0  0  0  0  0  0  0  0  0
  -26.1696  -12.1757   20.8078 N   0  0  0  0  0  0  0  0  0  0  0  0
  -24.9899  -12.7924   20.9922 N   0  0  0  0  0  0  0  0  0  0  0  0
  -32.1095  -20.5246   14.5299 N   0  0  0  0  0  0  0  0  0  0  0  0
  -24.5072  -31.0538   21.8755 N   0  0  0  0  0  0  0  0  0  0  0  0
  -26.1283  -16.4447   20.9720 N   0  0  0  0  0  0  0  0  0  0  0  0
  -26.3646  -17.4132   18.7977 N   0  0  0  0  0  0  0  0  0  0  0  0
  -22.6503  -12.4238   21.0230 N   0  0  0  0  0  0  0  0  0  0  0  0
  -23.2409   -9.2303   19.0615 N   0  0  0  0  0  0  0  0  0  0  0  0
  -21.0205  -30.9131   22.5706 N   0  0  0  0  0  0  0  0  0  0  0  0
  -26.8021  -33.0129   23.8220 N   0  0  0  0  0  0  0  0  0  0  0  0
  -34.2852  -18.5396   12.4821 N   0  3  0  0  0  0  0  0  0  0  0  0
  -29.0259  -33.7410   25.5541 N   0  3  0  0  0  0  0  0  0  0  0  0
  -23.3301   -8.7656   21.3053 O   0  0  0  0  0  0  0  0  0  0  0  0
  -22.2589  -31.9442   20.8896 O   0  0  0  0  0  0  0  0  0  0  0  0
  -24.2640  -32.2687   23.8442 O   0  0  0  0  0  0  0  0  0  0  0  0
  -27.8595  -30.9551   23.9783 O   0  0  0  0  0  0  0  0  0  0  0  0
  -25.0201  -18.3837   20.3995 O   0  0  0  0  0  0  0  0  0  0  0  0
  -29.7279   -7.0443   19.5588 O   0  0  0  0  0  0  0  0  0  0  0  0
  -28.2510  -26.9335   19.7116 O   0  0  0  0  0  0  0  0  0  1  0  0
  -28.2113   -1.7486   19.8024 F   0  0  0  0  0  0  0  0  0  0  0  0
  -30.9162   -5.3098   21.3538 F   0  0  0  0  0  0  0  0  0  0  0  0
  1  2  1  0  0  0  0
  1  5  2  0  0  0  0
  2  6  2  0  0  0  0
  3  8  2  0  0  0  0
  3 16  1  0  0  0  0
  4  9  1  0  0  0  0
  4 16  2  0  0  0  0
  5 18  1  0  0  0  0
  6 20  1  0  0  0  0
  7 10  2  0  0  0  0
  7 19  1  0  0  0  0
  8 27  1  0  0  0  0
  9 27  2  0  0  0  0
 10 28  1  0  0  0  0
 11 12  2  0  0  0  0
 11 29  1  0  0  0  0
 12 30  1  0  0  0  0
 13 21  1  0  0  0  0
 13 22  2  0  0  0  0
 14 23  1  0  0  0  0
 14 28  2  0  0  0  0
 15 30  2  0  0  0  0
 15 31  1  0  0  0  0
 16 32  1  0  0  0  0
 17 32  1  0  0  0  0
 17 33  2  0  0  0  0
 17 34  1  0  0  0  0
 18 20  2  0  0  0  0
 18 39  1  0  0  0  0
 19 23  2  0  0  0  0
 19 40  1  0  0  0  0
 20 62  1  0  0  0  0
 21 24  2  0  0  0  0
 21 60  1  0  0  0  0
 22 25  1  0  0  0  0
 22 61  1  0  0  0  0
 23 41  1  0  0  0  0
 24 26  1  0  0  0  0
 24 67  1  0  0  0  0
 25 26  2  0  0  0  0
 25 68  1  0  0  0  0
 26 79  1  0  0  0  0
 27 94  1  0  0  0  0
 28 95  1  0  0  0  0
 29 31  2  0  0  0  0
 29 94  1  0  0  0  0
 30 96  1  0  0  0  0
 31 97  1  0  0  0  0
 32 77  2  0  0  0  0
 33 78  1  0  0  0  0
 33 83  1  0  0  0  0
 34 84  1  0  0  0  0
 34 89  2  0  0  0  0
 35 63  1  0  0  0  0
 35 85  1  0  0  0  0
 35 90  2  0  0  0  0
 36 74  1  0  0  0  0
 36 80  1  0  0  0  0
 36 91  2  0  0  0  0
 37 75  1  0  0  0  0
 37 86  1  0  0  0  0
 37 92  2  0  0  0  0
 38 81  1  0  0  0  0
 38 82  1  0  0  0  0
 38 93  2  0  0  0  0
 39 42  1  0  0  0  0
 40 63  1  0  0  0  0
 41 80  1  0  0  0  0
 42 46  1  0  0  0  0
 43 47  1  0  0  0  0
 43 54  1  0  0  0  0
 44 48  1  0  0  0  0
 44 60  1  0  0  0  0
 45 49  1  0  0  0  0
 45 60  1  0  0  0  0
 46 62  1  0  0  0  0
 47 64  1  0  0  0  0
 48 66  1  0  0  0  0
 49 66  1  0  0  0  0
 50 55  1  0  0  0  0
 50 61  1  0  0  0  0
 51 56  1  0  0  0  0
 51 61  1  0  0  0  0
 52 57  1  0  0  0  0
 52 65  1  0  0  0  0
 53 58  1  0  0  0  0
 53 65  1  0  0  0  0
 54 81  1  0  0  0  0
 55 82  1  0  0  0  0
 56 82  1  0  0  0  0
 57 79  1  0  0  0  0
 58 79  1  0  0  0  0
 59 64  1  0  0  0  0
 59 81  1  0  0  0  0
 62 85  1  0  0  0  0
 63 80  1  0  0  0  0
 64 78  1  0  0  0  0
 65 87  1  0  0  0  0
 66 95  1  0  0  0  0
 69 75  1  0  0  0  0
 70 76  1  0  0  0  0
 71 76  1  0  0  0  0
 72 76  1  0  0  0  0
 73 88  1  0  0  0  0
 74 76  1  0  0  0  0
 74 86  1  0  0  0  0
 75 88  1  0  0  0  0
 77 78  1  0  0  0  0
M  CHG  2  87   1  88   1
M  ISO  4  38 100  66 101  82 100  95 101
M  END
> <Batch ID>
0152

> <Smiles>
CNC(C)C(=O)NC(C(=O)N1Cc2cc([101O:1][101CH:1]3CCC(c4cc(C5CC[100N:0]([100C:0](=O)N6CCCC(n7nc(-c8ccc(Oc9ccc(F)cc9F)cc8)c(C(N)=O)c7N)C6)CC5)c(C)c(N5CCC(N)CC5)c4C)CC3)ccc2CC1C(=O)NC1CCCc2ccccc21)C(C)(C)C

> <Shape>
0.242

> <Color>
0.094

> <Negative vol penalty>
0.000

$$$$

  -OEChem-04052321463D

 88 97  0     1  0  0  0  0  0999 V2000
  -23.1475  -34.4128   25.7068 C   0  0  0  0  0  0  0  0  0  0  0  0
  -22.6444  -33.1224   25.5756 C   0  0  0  0  0  0  0  0  0  0  0  0
  -23.0732   -9.8683   19.9472 C   0  0  0  0  0  0  0  0  0  0  0  0
  -23.8327   -9.8830   22.2407 C   0  0  0  0  0  0  0  0  0  0  0  0
  -24.5249  -34.6196   25.7699 C   0  0  0  0  0  0  0  0  0  0  0  0
  -23.5185  -32.0381   25.5062 C   0  0  0  0  0  0  0  0  0  0  0  0
  -24.0096  -25.1357   27.3587 C   0  0  0  0  0  0  0  0  0  0  0  0
  -22.3291   -8.7160   20.2010 C   0  0  0  0  0  0  0  0  0  0  0  0
  -23.0886   -8.7308   22.4945 C   0  0  0  0  0  0  0  0  0  0  0  0
  -24.3013  -23.8900   26.8047 C   0  0  0  0  0  0  0  0  0  0  0  0
  -19.3806   -7.9247   21.6545 C   0  0  0  0  0  0  0  0  0  0  0  0
  -18.0738   -7.8770   21.1692 C   0  0  0  0  0  0  0  0  0  0  0  0
  -26.6590  -24.3604   27.0036 C   0  0  0  0  0  0  0  0  0  0  0  0
  -18.6335   -5.9293   19.8537 C   0  0  0  0  0  0  0  0  0  0  0  0
  -25.2705  -19.0127   25.9471 C   0  0  0  0  0  0  0  0  0  0  0  0
  -23.8250  -10.4517   20.9670 C   0  0  0  0  0  0  0  0  0  0  0  0
  -24.1671  -12.9764   20.8384 C   0  0  0  0  0  0  0  0  0  0  0  0
  -25.4160  -33.5365   25.7110 C   0  0  0  0  0  0  0  0  0  0  0  0
  -25.0420  -26.0091   27.7298 C   0  0  0  0  0  0  0  0  0  0  0  0
  -24.9091  -32.2308   25.5672 C   0  0  0  0  0  0  0  0  0  0  0  0
  -26.3777  -25.6156   27.5644 C   0  0  0  0  0  0  0  0  0  0  0  0
  -25.3279  -20.1626   25.1762 C   0  0  0  0  0  0  0  0  0  0  0  0
  -25.8752  -20.0650   23.9018 C   0  0  0  0  0  0  0  0  0  0  0  0
  -26.3419  -18.8379   23.4437 C   0  0  0  0  0  0  0  0  0  0  0  0
  -22.3368   -8.1473   21.4746 C   0  0  0  0  0  0  0  0  0  0  0  0
  -25.6261  -23.5034   26.6244 C   0  0  0  0  0  0  0  0  0  0  0  0
  -20.3139   -6.9748   21.2393 C   0  0  0  0  0  0  0  0  0  0  0  0
  -17.7002   -6.8793   20.2688 C   0  0  0  0  0  0  0  0  0  0  0  0
  -19.9403   -5.9771   20.3390 C   0  0  0  0  0  0  0  0  0  0  0  0
  -24.5943  -11.6416   20.7053 C   0  0  0  0  0  0  0  0  0  0  0  0
  -26.2393  -17.7474   24.2922 C   0  0  0  0  0  0  0  0  0  0  0  0
  -25.2594  -13.7245   20.4728 C   0  0  0  0  0  0  0  0  0  0  0  0
  -22.8966  -13.4938   21.2554 C   0  0  0  0  0  0  0  0  0  0  0  0
  -25.9525  -28.9178   26.8275 C   0  0  0  0  0  0  0  0  0  0  0  0
  -28.0531  -28.5962   29.2782 C   0  0  0  0  0  0  0  0  0  0  0  0
  -29.8106  -26.5143   31.3333 C   0  0  0  0  0  0  0  0  0  0  0  0
  -30.7432  -14.7437   20.6585 C   0  0  0  0  0  0  0  0  0  0  0  0
  -26.8983  -33.8138   25.7356 C   0  0  0  0  0  0  0  0  0  0  0  0
  -24.7109  -27.3384   28.3507 C   0  0  0  0  0  0  0  0  0  0  0  0
  -27.5228  -26.5082   27.9651 C   0  0  0  0  0  0  0  0  0  0  0  0
  -27.7442  -32.5782   26.0321 C   0  0  0  0  0  0  0  0  0  0  0  0
  -29.6058  -12.3511   18.2797 C   0  0  0  0  0  0  0  0  0  0  0  0
  -27.2768  -31.3962   25.1888 C   0  0  0  0  0  0  0  0  0  0  0  0
  -28.8148  -19.3200   18.3253 C   0  0  0  0  0  0  0  0  0  0  0  0
  -27.5121  -19.6118   19.0163 C   0  0  0  0  0  0  0  0  0  0  0  0
  -28.1682  -12.0590   18.7134 C   0  0  0  0  0  0  0  0  0  0  0  0
  -30.5227  -12.5760   19.4800 C   0  0  0  0  0  0  0  0  0  0  0  0
  -28.6208  -13.3120   20.8638 C   0  0  0  0  0  0  0  0  0  0  0  0
  -25.8244  -31.0269   25.5136 C   0  0  1  0  0  0  0  0  0  0  0  0
  -25.8381  -28.3577   28.2171 C   0  0  1  0  0  0  0  0  0  0  0  0
  -28.7841  -19.5305   19.8138 C   0  0  0  0  0  0  0  0  0  0  0  0
  -27.6468  -13.1334   19.6866 C   0  0  2  0  0  0  0  0  0  0  0  0
  -25.9607  -21.2763   23.0292 C   0  0  0  0  0  0  0  0  0  0  0  0
  -26.7244  -16.4036   23.8560 C   0  0  0  0  0  0  0  0  0  0  0  0
  -31.4737  -26.5439   33.2124 C   0  0  0  0  0  0  0  0  0  0  0  0
  -30.2737  -29.2757   27.2990 C   0  0  0  0  0  0  0  0  0  0  0  0
  -31.9258  -28.3744   28.9502 C   0  0  0  0  0  0  0  0  0  0  0  0
  -30.5168  -30.3445   29.5469 C   0  0  0  0  0  0  0  0  0  0  0  0
  -27.9396  -25.1353   33.1654 C   0  0  0  0  0  0  0  0  0  0  0  0
  -26.9327  -18.7005   22.0807 C   0  0  0  0  0  0  0  0  0  0  0  0
  -24.8090  -21.4599   25.7231 C   0  0  0  0  0  0  0  0  0  1  0  0
  -30.5070  -18.0261   20.9030 C   0  0  0  0  0  0  0  0  0  0  0  0
  -30.8091  -16.8984   21.8881 C   0  0  0  0  0  0  0  0  0  0  0  0
  -29.4547  -28.0536   29.4207 C   0  0  1  0  0  0  0  0  0  0  0  0
  -29.9997  -26.5095   32.8396 C   0  0  2  0  0  0  0  0  0  0  0  0
  -29.0191  -18.3774   20.7460 C   0  0  1  0  0  0  0  0  0  0  0  0
  -30.5214  -28.9958   28.7948 C   0  0  0  0  0  0  0  0  0  0  0  0
  -25.7137  -17.8034   25.5365 N   0  0  0  0  0  0  0  0  0  0  0  0
  -25.8592  -11.5442   20.2876 N   0  0  0  0  0  0  0  0  0  0  0  0
  -26.2362  -12.8273   20.1549 N   0  0  0  0  0  0  0  0  0  0  0  0
  -27.1476  -27.8007   28.5620 N   0  0  0  0  0  0  0  0  0  0  0  0
  -29.9721  -13.6075   20.3624 N   0  0  0  0  0  0  0  0  0  0  0  0
  -25.4700  -15.0557   20.3952 N   0  0  0  0  0  0  0  0  0  0  0  0
  -21.8846  -12.5859   21.5956 N   0  0  0  0  0  0  0  0  0  0  0  0
  -25.7571  -30.2838   26.7537 N   0  0  0  0  0  0  0  0  0  0  0  0
  -29.6488  -27.7928   30.8430 N   0  0  0  0  0  0  0  0  0  0  0  0
  -30.1440  -15.6754   21.4973 N   0  0  0  0  0  0  0  0  0  0  0  0
  -29.3931  -25.2849   33.4339 N   0  3  0  0  0  0  0  0  0  0  0  0
  -28.4160  -18.5724   22.0903 N   0  3  0  0  0  0  0  0  0  0  0  0
  -22.6605  -14.7246   21.3085 O   0  0  0  0  0  0  0  0  0  0  0  0
  -26.2011  -28.1665   25.8919 O   0  0  0  0  0  0  0  0  0  0  0  0
  -27.7703  -29.6824   29.7898 O   0  0  0  0  0  0  0  0  0  0  0  0
  -29.8106  -25.4869   30.6588 O   0  0  0  0  0  0  0  0  0  0  0  0
  -31.8793  -14.9175   20.2045 O   0  0  0  0  0  0  0  0  0  0  0  0
  -21.6107   -7.0231   21.7227 O   0  0  0  0  0  0  0  0  0  0  0  0
  -25.9137  -22.2883   26.0833 O   0  0  0  0  0  0  0  0  0  1  0  0
  -16.4448   -6.8326   19.8041 F   0  0  0  0  0  0  0  0  0  0  0  0
  -20.8322   -5.0611   19.9374 F   0  0  0  0  0  0  0  0  0  0  0  0
  1  2  1  0  0  0  0
  1  5  2  0  0  0  0
  2  6  2  0  0  0  0
  3  8  2  0  0  0  0
  3 16  1  0  0  0  0
  4  9  1  0  0  0  0
  4 16  2  0  0  0  0
  5 18  1  0  0  0  0
  6 20  1  0  0  0  0
  7 10  2  0  0  0  0
  7 19  1  0  0  0  0
  8 25  1  0  0  0  0
  9 25  2  0  0  0  0
 10 26  1  0  0  0  0
 11 12  2  0  0  0  0
 11 27  1  0  0  0  0
 12 28  1  0  0  0  0
 13 21  1  0  0  0  0
 13 26  2  0  0  0  0
 14 28  2  0  0  0  0
 14 29  1  0  0  0  0
 15 22  1  0  0  0  0
 15 68  2  0  0  0  0
 16 30  1  0  0  0  0
 17 30  1  0  0  0  0
 17 32  2  0  0  0  0
 17 33  1  0  0  0  0
 18 20  2  0  0  0  0
 18 38  1  0  0  0  0
 19 21  2  0  0  0  0
 19 39  1  0  0  0  0
 20 49  1  0  0  0  0
 21 40  1  0  0  0  0
 22 23  2  0  0  0  0
 22 61  1  0  0  0  0
 23 24  1  0  0  0  0
 23 53  1  0  0  0  0
 24 31  2  0  0  0  0
 24 60  1  0  0  0  0
 25 85  1  0  0  0  0
 26 86  1  0  0  0  0
 27 29  2  0  0  0  0
 27 85  1  0  0  0  0
 28 87  1  0  0  0  0
 29 88  1  0  0  0  0
 30 69  2  0  0  0  0
 31 54  1  0  0  0  0
 31 68  1  0  0  0  0
 32 70  1  0  0  0  0
 32 73  1  0  0  0  0
 33 74  1  0  0  0  0
 33 80  2  0  0  0  0
 34 50  1  0  0  0  0
 34 75  1  0  0  0  0
 34 81  2  0  0  0  0
 35 64  1  0  0  0  0
 35 71  1  0  0  0  0
 35 82  2  0  0  0  0
 36 65  1  0  0  0  0
 36 76  1  0  0  0  0
 36 83  2  0  0  0  0
 37 72  1  0  0  0  0
 37 77  1  0  0  0  0
 37 84  2  0  0  0  0
 38 41  1  0  0  0  0
 39 50  1  0  0  0  0
 40 71  1  0  0  0  0
 41 43  1  0  0  0  0
 42 46  1  0  0  0  0
 42 47  1  0  0  0  0
 43 49  1  0  0  0  0
 44 45  1  0  0  0  0
 44 51  1  0  0  0  0
 45 51  1  0  0  0  0
 46 52  1  0  0  0  0
 47 72  1  0  0  0  0
 48 52  1  0  0  0  0
 48 72  1  0  0  0  0
 49 75  1  0  0  0  0
 50 71  1  0  0  0  0
 51 66  1  0  0  0  0
 52 70  1  0  0  0  0
 55 65  1  0  0  0  0
 56 67  1  0  0  0  0
 57 67  1  0  0  0  0
 58 67  1  0  0  0  0
 59 78  1  0  0  0  0
 60 79  1  0  0  0  0
 61 86  1  0  0  0  0
 62 63  1  0  0  0  0
 62 66  1  0  0  0  0
 63 77  1  0  0  0  0
 64 67  1  0  0  0  0
 64 76  1  0  0  0  0
 65 78  1  0  0  0  0
 66 79  1  0  0  0  0
 69 70  1  0  0  0  0
M  CHG  2  78   1  79   1
M  ISO  4  37 100  61 101  77 100  86 101
M  END
> <Batch ID>
0152

> <Smiles>
CNC(C)C(=O)NC(C(=O)N1Cc2cc([101O:1][101CH2:1]c3cnc(C)c(CNC(CC[100NH:0][100C:0](=O)N4CCCC(n5nc(-c6ccc(Oc7ccc(F)cc7F)cc6)c(C(N)=O)c5N)C4)C4CC4)c3C)ccc2CC1C(=O)NC1CCCc2ccccc21)C(C)(C)C

> <Shape>
0.224

> <Color>
0.187

> <Negative vol penalty>
0.000

$$$$

  -OEChem-04052321463D

 88 97  0     1  0  0  0  0  0999 V2000
  -21.8484  -31.7991   11.8696 C   0  0  0  0  0  0  0  0  0  0  0  0
  -22.4606  -30.5688   12.0862 C   0  0  0  0  0  0  0  0  0  0  0  0
  -24.9042  -18.2597   22.4626 C   0  0  0  0  0  0  0  0  0  0  0  0
  -25.3672  -18.6998   20.1326 C   0  0  0  0  0  0  0  0  0  0  0  0
  -21.9649  -32.8115   12.8212 C   0  0  0  0  0  0  0  0  0  0  0  0
  -23.1905  -30.3504   13.2541 C   0  0  0  0  0  0  0  0  0  0  0  0
  -24.8698  -25.1631   17.9004 C   0  0  0  0  0  0  0  0  0  0  0  0
  -25.4654  -19.4895   22.8065 C   0  0  0  0  0  0  0  0  0  0  0  0
  -25.9284  -19.9297   20.4764 C   0  0  0  0  0  0  0  0  0  0  0  0
  -25.9811  -24.5759   18.5038 C   0  0  0  0  0  0  0  0  0  0  0  0
  -24.5462  -22.7433   22.7738 C   0  0  0  0  0  0  0  0  0  0  0  0
  -23.8568  -23.5368   23.6906 C   0  0  0  0  0  0  0  0  0  0  0  0
  -26.0479  -26.3713   20.1136 C   0  0  0  0  0  0  0  0  0  0  0  0
  -29.9752  -20.9813   18.9448 C   0  0  0  0  0  0  0  0  0  0  0  0
  -29.6832  -20.6184   21.3154 C   0  0  0  0  0  0  0  0  0  0  0  0
  -25.7578  -23.4676   25.1800 C   0  0  0  0  0  0  0  0  0  0  0  0
  -24.8552  -17.8648   21.1257 C   0  0  0  0  0  0  0  0  0  0  0  0
  -22.9298  -16.3326   20.4528 C   0  0  0  0  0  0  0  0  0  0  0  0
  -22.6885  -32.6022   14.0058 C   0  0  0  0  0  0  0  0  0  0  0  0
  -24.3450  -26.3665   18.3932 C   0  0  0  0  0  0  0  0  0  0  0  0
  -23.3178  -31.3614   14.2218 C   0  0  0  0  0  0  0  0  0  0  0  0
  -24.9284  -26.9703   19.5162 C   0  0  0  0  0  0  0  0  0  0  0  0
  -29.6915  -21.4780   20.2169 C   0  0  0  0  0  0  0  0  0  0  0  0
  -30.2506  -19.6249   18.7710 C   0  0  0  0  0  0  0  0  0  0  0  0
  -29.9586  -19.2621   21.1417 C   0  0  0  0  0  0  0  0  0  0  0  0
  -25.9775  -20.3245   21.8134 C   0  0  0  0  0  0  0  0  0  0  0  0
  -26.5721  -25.1815   19.6088 C   0  0  0  0  0  0  0  0  0  0  0  0
  -25.8415  -22.3118   23.0601 C   0  0  0  0  0  0  0  0  0  0  0  0
  -30.2423  -18.7653   19.8695 C   0  0  0  0  0  0  0  0  0  0  0  0
  -24.4626  -23.8990   24.8937 C   0  0  0  0  0  0  0  0  0  0  0  0
  -26.4473  -22.6740   24.2632 C   0  0  0  0  0  0  0  0  0  0  0  0
  -24.2762  -16.5943   20.7700 C   0  0  0  0  0  0  0  0  0  0  0  0
  -22.8945  -14.9849   20.1904 C   0  0  0  0  0  0  0  0  0  0  0  0
  -21.8110  -17.2278   20.4001 C   0  0  0  0  0  0  0  0  0  0  0  0
  -23.9589  -29.2939   17.2164 C   0  0  0  0  0  0  0  0  0  0  0  0
  -22.3926  -29.7901   20.0133 C   0  0  0  0  0  0  0  0  0  0  0  0
  -21.9153  -28.8798   23.2676 C   0  0  0  0  0  0  0  0  0  0  0  0
  -28.2839  -13.8962   20.6693 C   0  0  0  0  0  0  0  0  0  0  0  0
  -22.8260  -33.7423   14.9835 C   0  0  0  0  0  0  0  0  0  0  0  0
  -23.1296  -26.9731   17.7474 C   0  0  0  0  0  0  0  0  0  0  0  0
  -24.3909  -28.2521   20.0964 C   0  0  0  0  0  0  0  0  0  0  0  0
  -23.3037  -33.3050   16.3658 C   0  0  0  0  0  0  0  0  0  0  0  0
  -25.5550  -12.4948   22.5014 C   0  0  0  0  0  0  0  0  0  0  0  0
  -30.2261  -13.4286   17.6429 C   0  0  0  0  0  0  0  0  0  0  0  0
  -24.4891  -32.3527   16.2445 C   0  0  0  0  0  0  0  0  0  0  0  0
  -24.4571  -12.2817   21.4652 C   0  0  0  0  0  0  0  0  0  0  0  0
  -30.5076  -14.9055   17.8806 C   0  0  0  0  0  0  0  0  0  0  0  0
  -26.9244  -12.2375   21.8919 C   0  0  0  0  0  0  0  0  0  0  0  0
  -28.8553  -13.2455   18.2757 C   0  0  0  0  0  0  0  0  0  0  0  0
  -26.1272  -12.9895   19.6592 C   0  0  0  0  0  0  0  0  0  0  0  0
  -24.0974  -31.0779   15.4875 C   0  0  1  0  0  0  0  0  0  0  0  0
  -22.9926  -28.4682   18.0178 C   0  0  1  0  0  0  0  0  0  0  0  0
  -24.6804  -13.1116   20.1908 C   0  0  2  0  0  0  0  0  0  0  0  0
  -29.9267  -15.1540   19.2754 C   0  0  1  0  0  0  0  0  0  0  0  0
  -30.5522  -19.1121   17.4013 C   0  0  0  0  0  0  0  0  0  0  0  0
  -29.9454  -18.3576   22.3299 C   0  0  0  0  0  0  0  0  0  0  0  0
  -30.5943  -23.8180   20.0140 C   0  0  0  0  0  0  0  0  0  0  0  0
  -20.5970  -29.4953   25.3123 C   0  0  0  0  0  0  0  0  0  0  0  0
  -24.2218  -32.1896   20.4674 C   0  0  0  0  0  0  0  0  0  0  0  0
  -23.5285  -32.1746   22.8731 C   0  0  0  0  0  0  0  0  0  0  0  0
  -21.8295  -32.5690   21.0898 C   0  0  0  0  0  0  0  0  0  0  0  0
  -20.6042  -26.2282   23.3624 C   0  0  0  0  0  0  0  0  0  0  0  0
  -29.4134  -16.5796   19.4323 C   0  0  0  0  0  0  0  0  0  0  0  0
  -28.1377  -23.3915   19.6342 C   0  0  0  0  0  0  0  0  0  1  0  0
  -29.3965  -22.9280   20.4027 C   0  0  1  0  0  0  0  0  0  0  0  0
  -22.7911  -30.2507   21.3947 C   0  0  1  0  0  0  0  0  0  0  0  0
  -20.6503  -28.6241   24.0669 C   0  0  2  0  0  0  0  0  0  0  0  0
  -23.1042  -31.7728   21.4444 C   0  0  0  0  0  0  0  0  0  0  0  0
  -25.0408  -15.5005   20.7148 N   0  0  0  0  0  0  0  0  0  0  0  0
  -24.1720  -14.5385   20.3601 N   0  0  0  0  0  0  0  0  0  0  0  0
  -23.2047  -28.8097   19.4259 N   0  0  0  0  0  0  0  0  0  0  0  0
  -27.1583  -13.0597   20.7046 N   0  0  0  0  0  0  0  0  0  0  0  0
  -28.8644  -14.1520   19.4250 N   0  0  0  0  0  0  0  0  0  0  0  0
  -21.8956  -14.1499   19.8335 N   0  0  0  0  0  0  0  0  0  0  0  0
  -22.0232  -18.5807   20.6985 N   0  0  0  0  0  0  0  0  0  0  0  0
  -23.3542  -30.1856   16.3511 N   0  0  0  0  0  0  0  0  0  0  0  0
  -21.7180  -29.8319   22.2900 N   0  0  0  0  0  0  0  0  0  0  0  0
  -20.5840  -27.1964   24.4890 N   0  3  0  0  0  0  0  0  0  0  0  0
  -20.6543  -16.8365   20.1132 O   0  0  0  0  0  0  0  0  0  0  0  0
  -25.1639  -29.1349   17.3726 O   0  0  0  0  0  0  0  0  0  0  0  0
  -21.3934  -30.2768   19.4783 O   0  0  0  0  0  0  0  0  0  0  0  0
  -22.9737  -28.2962   23.4909 O   0  0  0  0  0  0  0  0  0  0  0  0
  -28.7557  -14.3849   21.7044 O   0  0  0  0  0  0  0  0  0  0  0  0
  -26.5249  -21.5248   22.1485 O   0  0  0  0  0  0  0  0  0  0  0  0
  -30.5141  -17.4307   19.6986 O   0  0  0  0  0  0  0  0  0  0  0  0
  -27.6644  -24.6071   20.2032 O   0  0  0  0  0  0  0  0  0  1  0  0
  -23.8010  -24.6622   25.7734 F   0  0  0  0  0  0  0  0  0  0  0  0
  -27.6918  -22.2636   24.5433 F   0  0  0  0  0  0  0  0  0  0  0  0
  1  2  1  0  0  0  0
  1  5  2  0  0  0  0
  2  6  2  0  0  0  0
  3  8  2  0  0  0  0
  3 17  1  0  0  0  0
  4  9  1  0  0  0  0
  4 17  2  0  0  0  0
  5 19  1  0  0  0  0
  6 21  1  0  0  0  0
  7 10  2  0  0  0  0
  7 20  1  0  0  0  0
  8 26  1  0  0  0  0
  9 26  2  0  0  0  0
 10 27  1  0  0  0  0
 11 12  2  0  0  0  0
 11 28  1  0  0  0  0
 12 30  1  0  0  0  0
 13 22  1  0  0  0  0
 13 27  2  0  0  0  0
 14 23  1  0  0  0  0
 14 24  2  0  0  0  0
 15 23  2  0  0  0  0
 15 25  1  0  0  0  0
 16 30  2  0  0  0  0
 16 31  1  0  0  0  0
 17 32  1  0  0  0  0
 18 32  1  0  0  0  0
 18 33  2  0  0  0  0
 18 34  1  0  0  0  0
 19 21  2  0  0  0  0
 19 39  1  0  0  0  0
 20 22  2  0  0  0  0
 20 40  1  0  0  0  0
 21 51  1  0  0  0  0
 22 41  1  0  0  0  0
 23 65  1  0  0  0  0
 24 29  1  0  0  0  0
 24 55  1  0  0  0  0
 25 29  2  0  0  0  0
 25 56  1  0  0  0  0
 26 84  1  0  0  0  0
 27 86  1  0  0  0  0
 28 31  2  0  0  0  0
 28 84  1  0  0  0  0
 29 85  1  0  0  0  0
 30 87  1  0  0  0  0
 31 88  1  0  0  0  0
 32 69  2  0  0  0  0
 33 70  1  0  0  0  0
 33 74  1  0  0  0  0
 34 75  1  0  0  0  0
 34 79  2  0  0  0  0
 35 52  1  0  0  0  0
 35 76  1  0  0  0  0
 35 80  2  0  0  0  0
 36 66  1  0  0  0  0
 36 71  1  0  0  0  0
 36 81  2  0  0  0  0
 37 67  1  0  0  0  0
 37 77  1  0  0  0  0
 37 82  2  0  0  0  0
 38 72  1  0  0  0  0
 38 73  1  0  0  0  0
 38 83  2  0  0  0  0
 39 42  1  0  0  0  0
 40 52  1  0  0  0  0
 41 71  1  0  0  0  0
 42 45  1  0  0  0  0
 43 46  1  0  0  0  0
 43 48  1  0  0  0  0
 44 47  1  0  0  0  0
 44 49  1  0  0  0  0
 45 51  1  0  0  0  0
 46 53  1  0  0  0  0
 47 54  1  0  0  0  0
 48 72  1  0  0  0  0
 49 73  1  0  0  0  0
 50 53  1  0  0  0  0
 50 72  1  0  0  0  0
 51 76  1  0  0  0  0
 52 71  1  0  0  0  0
 53 70  1  0  0  0  0
 54 63  1  0  0  0  0
 54 73  1  0  0  0  0
 57 65  1  0  0  0  0
 58 67  1  0  0  0  0
 59 68  1  0  0  0  0
 60 68  1  0  0  0  0
 61 68  1  0  0  0  0
 62 78  1  0  0  0  0
 63 85  1  0  0  0  0
 64 65  1  0  0  0  0
 64 86  1  0  0  0  0
 66 68  1  0  0  0  0
 66 77  1  0  0  0  0
 67 78  1  0  0  0  0
 69 70  1  0  0  0  0
M  CHG  1  78   1
M  ISO  4  38 100  64 101  73 100  86 101
M  END
> <Batch ID>
0152

> <Smiles>
CNC(C)C(=O)NC(C(=O)N1Cc2cc([101O:1][101CH2:1]C(C)c3cc(C)c(OCC4CCC[100N:0]4[100C:0](=O)N4CCCC(n5nc(-c6ccc(Oc7ccc(F)cc7F)cc6)c(C(N)=O)c5N)C4)c(C)c3)ccc2CC1C(=O)NC1CCCc2ccccc21)C(C)(C)C

> <Shape>
0.203

> <Color>
0.074

> <Negative vol penalty>
0.000

$$$$

  -OEChem-04052321463D

 86 95  0     1  0  0  0  0  0999 V2000
  -26.1795  -18.5654   15.6034 C   0  0  0  0  0  0  0  0  0  0  0  0
  -25.9376  -19.9262   15.4530 C   0  0  0  0  0  0  0  0  0  0  0  0
  -23.9120  -14.7151   19.5549 C   0  0  0  0  0  0  0  0  0  0  0  0
  -25.2569  -14.7889   21.5606 C   0  0  0  0  0  0  0  0  0  0  0  0
  -26.7115  -18.0839   16.7977 C   0  0  0  0  0  0  0  0  0  0  0  0
  -26.2385  -20.8073   16.4922 C   0  0  0  0  0  0  0  0  0  0  0  0
  -19.1950  -29.0799   22.3472 C   0  0  0  0  0  0  0  0  0  0  0  0
  -25.2842  -26.8036   17.0033 C   0  0  0  0  0  0  0  0  0  0  0  0
  -17.8687  -28.7088   22.5680 C   0  0  0  0  0  0  0  0  0  0  0  0
  -24.7065  -13.6809   19.0601 C   0  0  0  0  0  0  0  0  0  0  0  0
  -26.0515  -13.7547   21.0659 C   0  0  0  0  0  0  0  0  0  0  0  0
  -24.2925  -27.6493   17.4984 C   0  0  0  0  0  0  0  0  0  0  0  0
  -28.6538  -11.3785   20.1764 C   0  0  0  0  0  0  0  0  0  0  0  0
  -30.0373  -11.5089   20.2975 C   0  0  0  0  0  0  0  0  0  0  0  0
  -25.5067  -27.8485   19.5733 C   0  0  0  0  0  0  0  0  0  0  0  0
  -18.5841  -26.4599   23.0855 C   0  0  0  0  0  0  0  0  0  0  0  0
  -29.9633  -13.5262   18.9700 C   0  0  0  0  0  0  0  0  0  0  0  0
  -24.1872  -15.2692   20.8051 C   0  0  0  0  0  0  0  0  0  0  0  0
  -22.2045  -16.2166   22.1008 C   0  0  0  0  0  0  0  0  0  0  0  0
  -27.0071  -18.9586   17.8562 C   0  0  0  0  0  0  0  0  0  0  0  0
  -26.3910  -26.4647   17.7948 C   0  0  0  0  0  0  0  0  0  0  0  0
  -26.7982  -20.3436   17.6965 C   0  0  0  0  0  0  0  0  0  0  0  0
  -20.2159  -28.1410   22.4954 C   0  0  0  0  0  0  0  0  0  0  0  0
  -26.5124  -27.0004   19.0849 C   0  0  0  0  0  0  0  0  0  0  0  0
  -17.5632  -27.3988   22.9372 C   0  0  0  0  0  0  0  0  0  0  0  0
  -25.7762  -13.2007   19.8156 C   0  0  0  0  0  0  0  0  0  0  0  0
  -24.4022  -28.1695   18.7846 C   0  0  0  0  0  0  0  0  0  0  0  0
  -27.9251  -12.3218   19.4520 C   0  0  0  0  0  0  0  0  0  0  0  0
  -19.9104  -26.8310   22.8646 C   0  0  0  0  0  0  0  0  0  0  0  0
  -30.6920  -12.5827   19.6944 C   0  0  0  0  0  0  0  0  0  0  0  0
  -28.5798  -13.3957   18.8488 C   0  0  0  0  0  0  0  0  0  0  0  0
  -23.3672  -16.3379   21.3164 C   0  0  0  0  0  0  0  0  0  0  0  0
  -21.8036  -17.5113   22.3230 C   0  0  0  0  0  0  0  0  0  0  0  0
  -21.5458  -15.0388   22.5853 C   0  0  0  0  0  0  0  0  0  0  0  0
  -27.5549  -23.7553   18.9813 C   0  0  0  0  0  0  0  0  0  0  0  0
  -30.0010  -25.6703   19.9149 C   0  0  0  0  0  0  0  0  0  0  0  0
  -31.0857  -28.8092   20.7006 C   0  0  0  0  0  0  0  0  0  0  0  0
  -22.9530  -22.6691   23.7455 C   0  0  0  0  0  0  0  0  0  0  0  0
  -27.5887  -18.3845   19.1240 C   0  0  0  0  0  0  0  0  0  0  0  0
  -27.4655  -25.5726   17.2362 C   0  0  0  0  0  0  0  0  0  0  0  0
  -27.6911  -26.6836   19.9674 C   0  0  0  0  0  0  0  0  0  0  0  0
  -27.4590  -19.3258   20.3171 C   0  0  0  0  0  0  0  0  0  0  0  0
  -23.3731  -21.8488   20.2458 C   0  0  0  0  0  0  0  0  0  0  0  0
  -27.9530  -20.7144   19.9397 C   0  0  0  0  0  0  0  0  0  0  0  0
  -23.3118  -20.3207   20.2821 C   0  0  0  0  0  0  0  0  0  0  0  0
  -21.9621  -29.7286   21.1912 C   0  0  0  0  0  0  0  0  0  0  0  0
  -22.5660  -27.6922   21.2516 C   0  0  0  0  0  0  0  0  0  0  0  0
  -24.1038  -22.4018   21.4658 C   0  0  0  0  0  0  0  0  0  0  0  0
  -23.4786  -20.4343   22.8117 C   0  0  0  0  0  0  0  0  0  0  0  0
  -27.0891  -21.3170   18.8245 C   0  0  1  0  0  0  0  0  0  0  0  0
  -28.2922  -24.8838   18.3177 C   0  0  1  0  0  0  0  0  0  0  0  0
  -22.7322  -19.8147   21.6163 C   0  0  2  0  0  0  0  0  0  0  0  0
  -23.2114  -28.9751   20.6903 C   0  0  0  0  0  0  0  0  0  1  0  0
  -21.7374  -28.5845   22.2374 C   0  0  0  0  0  0  0  0  0  0  0  0
  -16.1453  -27.0022   23.1744 C   0  0  0  0  0  0  0  0  0  0  0  0
  -33.1263  -30.0549   21.4633 C   0  0  0  0  0  0  0  0  0  0  0  0
  -29.5946  -24.5996   22.7430 C   0  0  0  0  0  0  0  0  0  0  0  0
  -30.9594  -26.5196   23.5911 C   0  0  0  0  0  0  0  0  0  0  0  0
  -31.9862  -24.8446   22.0539 C   0  0  0  0  0  0  0  0  0  0  0  0
  -31.1258  -30.4742   18.2542 C   0  0  0  0  0  0  0  0  0  0  0  0
  -22.4915  -24.9702   24.5511 C   0  0  0  0  0  0  0  0  0  0  0  0
  -21.0313  -25.3011   24.2995 C   0  0  0  0  0  0  0  0  0  0  0  0
  -30.3037  -26.4965   21.1415 C   0  0  1  0  0  0  0  0  0  0  0  0
  -32.3133  -29.5891   20.2654 C   0  0  2  0  0  0  0  0  0  0  0  0
  -30.6877  -25.6197   22.3667 C   0  0  0  0  0  0  0  0  0  0  0  0
  -23.6843  -17.6093   21.0576 N   0  0  0  0  0  0  0  0  0  0  0  0
  -22.7148  -18.2988   21.6829 N   0  0  0  0  0  0  0  0  0  0  0  0
  -28.7122  -25.8017   19.3785 N   0  0  0  0  0  0  0  0  0  0  0  0
  -23.4913  -21.8969   22.7027 N   0  0  0  0  0  0  0  0  0  0  0  0
  -20.7640  -18.0417   23.0014 N   0  0  0  0  0  0  0  0  0  0  0  0
  -22.0915  -13.7883   22.2645 N   0  0  0  0  0  0  0  0  0  0  0  0
  -27.7101  -22.5348   18.3521 N   0  0  0  0  0  0  0  0  0  0  0  0
  -31.3316  -27.4532   20.7458 N   0  0  0  0  0  0  0  0  0  0  0  0
  -23.0104  -24.0459   23.5675 N   0  0  0  0  0  0  0  0  0  0  0  0
  -31.9125  -30.7872   19.4749 N   0  3  0  0  0  0  0  0  0  0  0  0
  -20.4950  -15.0932   23.2682 O   0  0  0  0  0  0  0  0  0  0  0  0
  -26.8953  -23.9752   19.9904 O   0  0  0  0  0  0  0  0  0  0  0  0
  -30.8780  -24.9408   19.4456 O   0  0  0  0  0  0  0  0  0  0  0  0
  -30.0168  -29.3493   20.9766 O   0  0  0  0  0  0  0  0  0  0  0  0
  -22.4530  -22.1683   24.7586 O   0  0  0  0  0  0  0  0  0  0  0  0
  -26.5516  -12.1914   19.3333 O   0  0  0  0  0  0  0  0  0  0  0  0
  -23.4353  -28.9947   19.2706 O   0  0  0  0  0  0  0  0  0  1  0  0
  -20.8968  -25.9035   23.0137 O   0  0  0  0  0  0  0  0  0  0  0  0
  -32.0203  -12.7087   19.8121 F   0  0  0  0  0  0  0  0  0  0  0  0
  -27.8850  -14.3058   18.1526 F   0  0  0  0  0  0  0  0  0  0  0  0
  -22.5443  -28.8716   23.8470 Cl  0  0  0  0  0  0  0  0  0  0  0  0
  1  2  1  0  0  0  0
  1  5  2  0  0  0  0
  2  6  2  0  0  0  0
  3 10  2  0  0  0  0
  3 18  1  0  0  0  0
  4 11  1  0  0  0  0
  4 18  2  0  0  0  0
  5 20  1  0  0  0  0
  6 22  1  0  0  0  0
  7  9  2  0  0  0  0
  7 23  1  0  0  0  0
  8 12  2  0  0  0  0
  8 21  1  0  0  0  0
  9 25  1  0  0  0  0
 10 26  1  0  0  0  0
 11 26  2  0  0  0  0
 12 27  1  0  0  0  0
 13 14  2  0  0  0  0
 13 28  1  0  0  0  0
 14 30  1  0  0  0  0
 15 24  1  0  0  0  0
 15 27  2  0  0  0  0
 16 25  2  0  0  0  0
 16 29  1  0  0  0  0
 17 30  2  0  0  0  0
 17 31  1  0  0  0  0
 18 32  1  0  0  0  0
 19 32  1  0  0  0  0
 19 33  2  0  0  0  0
 19 34  1  0  0  0  0
 20 22  2  0  0  0  0
 20 39  1  0  0  0  0
 21 24  2  0  0  0  0
 21 40  1  0  0  0  0
 22 50  1  0  0  0  0
 23 29  2  0  0  0  0
 23 54  1  0  0  0  0
 24 41  1  0  0  0  0
 25 55  1  0  0  0  0
 26 81  1  0  0  0  0
 27 82  1  0  0  0  0
 28 31  2  0  0  0  0
 28 81  1  0  0  0  0
 29 83  1  0  0  0  0
 30 84  1  0  0  0  0
 31 85  1  0  0  0  0
 32 66  2  0  0  0  0
 33 67  1  0  0  0  0
 33 70  1  0  0  0  0
 34 71  1  0  0  0  0
 34 76  2  0  0  0  0
 35 51  1  0  0  0  0
 35 72  1  0  0  0  0
 35 77  2  0  0  0  0
 36 63  1  0  0  0  0
 36 68  1  0  0  0  0
 36 78  2  0  0  0  0
 37 64  1  0  0  0  0
 37 73  1  0  0  0  0
 37 79  2  0  0  0  0
 38 69  1  0  0  0  0
 38 74  1  0  0  0  0
 38 80  2  0  0  0  0
 39 42  1  0  0  0  0
 40 51  1  0  0  0  0
 41 68  1  0  0  0  0
 42 44  1  0  0  0  0
 43 45  1  0  0  0  0
 43 48  1  0  0  0  0
 44 50  1  0  0  0  0
 45 52  1  0  0  0  0
 46 53  1  0  0  0  0
 46 54  1  0  0  0  0
 47 53  1  0  0  0  0
 47 54  1  0  0  0  0
 48 69  1  0  0  0  0
 49 52  1  0  0  0  0
 49 69  1  0  0  0  0
 50 72  1  0  0  0  0
 51 68  1  0  0  0  0
 52 67  1  0  0  0  0
 53 82  1  0  0  0  0
 54 86  1  0  0  0  0
 56 64  1  0  0  0  0
 57 65  1  0  0  0  0
 58 65  1  0  0  0  0
 59 65  1  0  0  0  0
 60 75  1  0  0  0  0
 61 62  1  0  0  0  0
 61 74  1  0  0  0  0
 62 83  1  0  0  0  0
 63 65  1  0  0  0  0
 63 73  1  0  0  0  0
 64 75  1  0  0  0  0
 66 67  1  0  0  0  0
M  CHG  1  75   1
M  ISO  4  38 100  53 101  74 100  82 101
M  END
> <Batch ID>
0152

> <Smiles>
CNC(C)C(=O)NC(C(=O)N1Cc2cc([101O:1][101CH:1]3CC(Cl)(c4ccc(C)cc4OCC[100NH:0][100C:0](=O)N4CCCC(n5nc(-c6ccc(Oc7ccc(F)cc7F)cc6)c(C(N)=O)c5N)C4)C3)ccc2CC1C(=O)NC1CCCc2ccccc21)C(C)(C)C

> <Shape>
0.222

> <Color>
0.057

> <Negative vol penalty>
0.000

$$$$

  -OEChem-04052321463D

 89 99  0     1  0  0  0  0  0999 V2000
  -29.5068  -34.3526   29.3913 C   0  0  0  0  0  0  0  0  0  0  0  0
  -30.1961  -33.3747   28.6813 C   0  0  0  0  0  0  0  0  0  0  0  0
  -22.7252  -10.1661   20.2156 C   0  0  0  0  0  0  0  0  0  0  0  0
  -24.3842   -9.5683   21.8672 C   0  0  0  0  0  0  0  0  0  0  0  0
  -28.1346  -34.5122   29.2029 C   0  0  0  0  0  0  0  0  0  0  0  0
  -29.5133  -32.5552   27.7832 C   0  0  0  0  0  0  0  0  0  0  0  0
  -30.4259  -29.0986   21.5755 C   0  0  0  0  0  0  0  0  0  0  0  0
  -22.0437   -8.9758   20.4694 C   0  0  0  0  0  0  0  0  0  0  0  0
  -23.7026   -8.3780   22.1209 C   0  0  0  0  0  0  0  0  0  0  0  0
  -30.2755  -27.8302   21.0168 C   0  0  0  0  0  0  0  0  0  0  0  0
  -20.9736   -7.3931   23.8538 C   0  0  0  0  0  0  0  0  0  0  0  0
  -20.7865   -7.0266   25.1866 C   0  0  0  0  0  0  0  0  0  0  0  0
  -27.9192  -28.2495   20.7141 C   0  0  0  0  0  0  0  0  0  0  0  0
  -32.1171  -19.0775   21.3687 C   0  0  0  0  0  0  0  0  0  0  0  0
  -22.0163   -4.9837   24.7975 C   0  0  0  0  0  0  0  0  0  0  0  0
  -23.8955  -10.4623   20.9145 C   0  0  0  0  0  0  0  0  0  0  0  0
  -24.1079  -13.0019   20.8009 C   0  0  0  0  0  0  0  0  0  0  0  0
  -27.4364  -33.7006   28.2949 C   0  0  0  0  0  0  0  0  0  0  0  0
  -29.3202  -29.9493   21.7180 C   0  0  0  0  0  0  0  0  0  0  0  0
  -28.1303  -32.7032   27.5835 C   0  0  0  0  0  0  0  0  0  0  0  0
  -28.0588  -29.5292   21.2726 C   0  0  0  0  0  0  0  0  0  0  0  0
  -31.7236  -17.7612   21.5825 C   0  0  0  0  0  0  0  0  0  0  0  0
  -30.3964  -17.3973   21.3843 C   0  0  0  0  0  0  0  0  0  0  0  0
  -22.5323   -8.0818   21.4220 C   0  0  0  0  0  0  0  0  0  0  0  0
  -29.0215  -27.4043   20.5886 C   0  0  0  0  0  0  0  0  0  0  0  0
  -21.6819   -6.5548   22.9928 C   0  0  0  0  0  0  0  0  0  0  0  0
  -21.3079   -5.8220   25.6584 C   0  0  0  0  0  0  0  0  0  0  0  0
  -22.2033   -5.3502   23.4647 C   0  0  0  0  0  0  0  0  0  0  0  0
  -24.6002  -11.6914   20.6524 C   0  0  0  0  0  0  0  0  0  0  0  0
  -29.5087  -18.3794   20.9755 C   0  0  0  0  0  0  0  0  0  0  0  0
  -31.1524  -19.9844   20.9603 C   0  0  0  0  0  0  0  0  0  0  0  0
  -25.1563  -13.8069   20.4275 C   0  0  0  0  0  0  0  0  0  0  0  0
  -22.8183  -13.4514   21.2373 C   0  0  0  0  0  0  0  0  0  0  0  0
  -27.8278  -31.2946   24.1810 C   0  0  0  0  0  0  0  0  0  0  0  0
  -30.6089  -15.0354   20.6501 C   0  0  0  0  0  0  0  0  0  0  0  0
  -26.1502  -32.7940   21.8443 C   0  0  0  0  0  0  0  0  0  0  0  0
  -25.0491  -32.7961   18.6141 C   0  0  0  0  0  0  0  0  0  0  0  0
  -25.9449  -33.8790   28.1600 C   0  0  0  0  0  0  0  0  0  0  0  0
  -29.5041  -31.3248   22.2982 C   0  0  0  0  0  0  0  0  0  0  0  0
  -26.8437  -30.4122   21.3846 C   0  0  0  0  0  0  0  0  0  0  0  0
  -25.3628  -33.2190   26.9127 C   0  0  0  0  0  0  0  0  0  0  0  0
  -29.5309  -12.6917   18.1631 C   0  0  0  0  0  0  0  0  0  0  0  0
  -33.3936  -16.9268   23.3682 C   0  0  0  0  0  0  0  0  0  0  0  0
  -34.1827  -17.1774   22.1213 C   0  0  0  0  0  0  0  0  0  0  0  0
  -25.9057  -31.8021   26.7559 C   0  0  0  0  0  0  0  0  0  0  0  0
  -28.1235  -12.3075   18.6180 C   0  0  0  0  0  0  0  0  0  0  0  0
  -31.4779  -23.4810   19.6903 C   0  0  0  0  0  0  0  0  0  0  0  0
  -29.8501  -22.8386   21.5179 C   0  0  0  0  0  0  0  0  0  0  0  0
  -30.5792  -24.6539   19.3062 C   0  0  0  0  0  0  0  0  0  0  0  0
  -28.9556  -24.0136   21.1305 C   0  0  0  0  0  0  0  0  0  0  0  0
  -30.4547  -12.9363   19.3521 C   0  0  0  0  0  0  0  0  0  0  0  0
  -28.5341  -13.5690   20.7778 C   0  0  0  0  0  0  0  0  0  0  0  0
  -32.7395  -16.7601   22.0224 C   0  0  0  0  0  0  0  0  0  0  0  0
  -27.4292  -31.8112   26.5820 C   0  0  1  0  0  0  0  0  0  0  0  0
  -28.2153  -31.9107   22.8665 C   0  0  1  0  0  0  0  0  0  0  0  0
  -27.5605  -13.3429   19.6076 C   0  0  2  0  0  0  0  0  0  0  0  0
  -30.6671  -22.3460   20.3212 C   0  0  0  0  0  0  0  0  0  0  0  0
  -29.7579  -25.1482   20.4951 C   0  0  0  0  0  0  0  0  0  1  0  0
  -28.0700  -18.0490   20.7463 C   0  0  0  0  0  0  0  0  0  0  0  0
  -30.1655  -15.5034   23.0433 C   0  0  0  0  0  0  0  0  0  0  0  0
  -23.6657  -34.1360   17.0053 C   0  0  0  0  0  0  0  0  0  0  0  0
  -23.6071  -31.7909   23.1995 C   0  0  0  0  0  0  0  0  0  0  0  0
  -22.3594  -32.3219   21.0948 C   0  0  0  0  0  0  0  0  0  0  0  0
  -23.4867  -34.1466   22.3685 C   0  0  0  0  0  0  0  0  0  0  0  0
  -27.3478  -33.2012   16.7945 C   0  0  0  0  0  0  0  0  0  0  0  0
  -29.9432  -15.9931   21.6059 C   0  0  1  0  0  0  0  0  0  0  0  0
  -24.8896  -32.4912   21.0709 C   0  0  1  0  0  0  0  0  0  0  0  0
  -25.0629  -33.8746   17.5459 C   0  0  2  0  0  0  0  0  0  0  0  0
  -23.6080  -32.6701   21.9330 C   0  0  0  0  0  0  0  0  0  0  0  0
  -25.8631  -11.6611   20.2185 N   0  0  0  0  0  0  0  0  0  0  0  0
  -29.8537  -19.6682   20.7575 N   0  0  0  0  0  0  0  0  0  0  0  0
  -26.1731  -12.9625   20.0909 N   0  0  0  0  0  0  0  0  0  0  0  0
  -27.0735  -31.7458   21.9645 N   0  0  0  0  0  0  0  0  0  0  0  0
  -29.8742  -13.9088   20.2799 N   0  0  0  0  0  0  0  0  0  0  0  0
  -25.2983  -15.1475   20.3575 N   0  0  0  0  0  0  0  0  0  0  0  0
  -21.8578  -12.4911   21.5830 N   0  0  0  0  0  0  0  0  0  0  0  0
  -31.5587  -21.2899   20.7499 N   0  0  0  0  0  0  0  0  0  0  0  0
  -27.7815  -32.1918   25.2309 N   0  0  0  0  0  0  0  0  0  0  0  0
  -24.9301  -33.3317   19.8791 N   0  0  0  0  0  0  0  0  0  0  0  0
  -25.9377  -33.4676   16.4101 N   0  3  0  0  0  0  0  0  0  0  0  0
  -22.5209  -14.6683   21.3026 O   0  0  0  0  0  0  0  0  0  0  0  0
  -27.5870  -30.0944   24.2381 O   0  0  0  0  0  0  0  0  0  0  0  0
  -31.7468  -15.2843   20.2434 O   0  0  0  0  0  0  0  0  0  0  0  0
  -26.3129  -33.9213   22.3181 O   0  0  0  0  0  0  0  0  0  0  0  0
  -25.1317  -31.5981   18.3522 O   0  0  0  0  0  0  0  0  0  0  0  0
  -21.8675   -6.9204   21.6701 O   0  0  0  0  0  0  0  0  0  0  0  0
  -28.8717  -26.1665   20.0435 O   0  0  0  0  0  0  0  0  0  1  0  0
  -21.1295   -5.4710   26.9387 F   0  0  0  0  0  0  0  0  0  0  0  0
  -22.8857   -4.5413   22.6426 F   0  0  0  0  0  0  0  0  0  0  0  0
  1  2  1  0  0  0  0
  1  5  2  0  0  0  0
  2  6  2  0  0  0  0
  3  8  2  0  0  0  0
  3 16  1  0  0  0  0
  4  9  1  0  0  0  0
  4 16  2  0  0  0  0
  5 18  1  0  0  0  0
  6 20  1  0  0  0  0
  7 10  2  0  0  0  0
  7 19  1  0  0  0  0
  8 24  1  0  0  0  0
  9 24  2  0  0  0  0
 10 25  1  0  0  0  0
 11 12  2  0  0  0  0
 11 26  1  0  0  0  0
 12 27  1  0  0  0  0
 13 21  1  0  0  0  0
 13 25  2  0  0  0  0
 14 22  2  0  0  0  0
 14 31  1  0  0  0  0
 15 27  2  0  0  0  0
 15 28  1  0  0  0  0
 16 29  1  0  0  0  0
 17 29  1  0  0  0  0
 17 32  2  0  0  0  0
 17 33  1  0  0  0  0
 18 20  2  0  0  0  0
 18 38  1  0  0  0  0
 19 21  2  0  0  0  0
 19 39  1  0  0  0  0
 20 54  1  0  0  0  0
 21 40  1  0  0  0  0
 22 23  1  0  0  0  0
 22 53  1  0  0  0  0
 23 30  2  0  0  0  0
 23 66  1  0  0  0  0
 24 86  1  0  0  0  0
 25 87  1  0  0  0  0
 26 28  2  0  0  0  0
 26 86  1  0  0  0  0
 27 88  1  0  0  0  0
 28 89  1  0  0  0  0
 29 70  2  0  0  0  0
 30 59  1  0  0  0  0
 30 71  1  0  0  0  0
 31 71  2  0  0  0  0
 31 77  1  0  0  0  0
 32 72  1  0  0  0  0
 32 75  1  0  0  0  0
 33 76  1  0  0  0  0
 33 81  2  0  0  0  0
 34 55  1  0  0  0  0
 34 78  1  0  0  0  0
 34 82  2  0  0  0  0
 35 66  1  0  0  0  0
 35 74  1  0  0  0  0
 35 83  2  0  0  0  0
 36 67  1  0  0  0  0
 36 73  1  0  0  0  0
 36 84  2  0  0  0  0
 37 68  1  0  0  0  0
 37 79  1  0  0  0  0
 37 85  2  0  0  0  0
 38 41  1  0  0  0  0
 39 55  1  0  0  0  0
 40 73  1  0  0  0  0
 41 45  1  0  0  0  0
 42 46  1  0  0  0  0
 42 51  1  0  0  0  0
 43 44  1  0  0  0  0
 43 53  1  0  0  0  0
 44 53  1  0  0  0  0
 45 54  1  0  0  0  0
 46 56  1  0  0  0  0
 47 49  1  0  0  0  0
 47 57  1  0  0  0  0
 48 50  1  0  0  0  0
 48 57  1  0  0  0  0
 49 58  1  0  0  0  0
 50 58  1  0  0  0  0
 51 74  1  0  0  0  0
 52 56  1  0  0  0  0
 52 74  1  0  0  0  0
 54 78  1  0  0  0  0
 55 73  1  0  0  0  0
 56 72  1  0  0  0  0
 57 77  1  0  0  0  0
 58 87  1  0  0  0  0
 60 66  1  0  0  0  0
 61 68  1  0  0  0  0
 62 69  1  0  0  0  0
 63 69  1  0  0  0  0
 64 69  1  0  0  0  0
 65 80  1  0  0  0  0
 67 69  1  0  0  0  0
 67 79  1  0  0  0  0
 68 80  1  0  0  0  0
 70 72  1  0  0  0  0
M  CHG  1  80   1
M  ISO  4  35 100  58 101  66 100  87 101
M  END
> <Batch ID>
0152

> <Smiles>
CNC(C)C(=O)NC(C(=O)N1Cc2cc([101O:1][101CH:1]3CCC(Nc4cc(C5CC5)c([100CH:0](C)[100C:0](=O)N5CCCC(n6nc(-c7ccc(Oc8ccc(F)cc8F)cc7)c(C(N)=O)c6N)C5)c(C)n4)CC3)ccc2CC1C(=O)NC1CCCc2ccccc21)C(C)(C)C

> <Shape>
0.355

> <Color>
0.212

> <Negative vol penalty>
0.000

$$$$

  -OEChem-04052321463D

 91100  0     1  0  0  0  0  0999 V2000
  -31.4942  -38.8297   23.9532 C   0  0  0  0  0  0  0  0  0  0  0  0
  -31.4712  -37.7644   24.8477 C   0  0  0  0  0  0  0  0  0  0  0  0
  -23.3408  -10.1570   22.2397 C   0  0  0  0  0  0  0  0  0  0  0  0
  -23.5783   -9.5449   19.9146 C   0  0  0  0  0  0  0  0  0  0  0  0
  -31.4984  -38.5859   22.5805 C   0  0  0  0  0  0  0  0  0  0  0  0
  -31.4515  -36.4546   24.3699 C   0  0  0  0  0  0  0  0  0  0  0  0
  -33.7742  -29.8789   26.0074 C   0  0  0  0  0  0  0  0  0  0  0  0
  -22.5978   -8.9989   22.4686 C   0  0  0  0  0  0  0  0  0  0  0  0
  -22.8354   -8.3868   20.1435 C   0  0  0  0  0  0  0  0  0  0  0  0
  -33.3014  -28.5760   26.1578 C   0  0  0  0  0  0  0  0  0  0  0  0
  -19.4313   -7.9306   21.9623 C   0  0  0  0  0  0  0  0  0  0  0  0
  -18.2657   -8.0484   22.7193 C   0  0  0  0  0  0  0  0  0  0  0  0
  -33.3910  -28.2738   23.7662 C   0  0  0  0  0  0  0  0  0  0  0  0
  -30.5842  -24.1047   24.1118 C   0  0  0  0  0  0  0  0  0  0  0  0
  -32.2304  -22.1617   25.2509 C   0  0  0  0  0  0  0  0  0  0  0  0
  -19.1645   -6.5023   24.3438 C   0  0  0  0  0  0  0  0  0  0  0  0
  -23.8310  -10.4300   20.9626 C   0  0  0  0  0  0  0  0  0  0  0  0
  -24.1783  -12.9568   20.9147 C   0  0  0  0  0  0  0  0  0  0  0  0
  -31.4885  -37.2722   22.0856 C   0  0  0  0  0  0  0  0  0  0  0  0
  -34.0491  -30.3935   24.7322 C   0  0  0  0  0  0  0  0  0  0  0  0
  -31.4543  -36.1930   22.9892 C   0  0  0  0  0  0  0  0  0  0  0  0
  -33.8696  -29.5827   23.6025 C   0  0  0  0  0  0  0  0  0  0  0  0
  -30.0621  -22.8538   24.4406 C   0  0  0  0  0  0  0  0  0  0  0  0
  -32.7525  -23.4127   24.9220 C   0  0  0  0  0  0  0  0  0  0  0  0
  -31.9295  -24.3842   24.3525 C   0  0  0  0  0  0  0  0  0  0  0  0
  -30.8852  -21.8823   25.0101 C   0  0  0  0  0  0  0  0  0  0  0  0
  -22.3452   -8.1138   21.4206 C   0  0  0  0  0  0  0  0  0  0  0  0
  -33.1069  -27.7742   25.0369 C   0  0  0  0  0  0  0  0  0  0  0  0
  -20.4635   -7.0987   22.3960 C   0  0  0  0  0  0  0  0  0  0  0  0
  -18.1323   -7.3343   23.9101 C   0  0  0  0  0  0  0  0  0  0  0  0
  -20.3302   -6.3846   23.5867 C   0  0  0  0  0  0  0  0  0  0  0  0
  -24.5980  -11.6265   20.7253 C   0  0  0  0  0  0  0  0  0  0  0  0
  -25.2645  -13.7146   20.5507 C   0  0  0  0  0  0  0  0  0  0  0  0
  -22.9193  -13.4624   21.3782 C   0  0  0  0  0  0  0  0  0  0  0  0
  -32.9134  -32.7983   22.9912 C   0  0  0  0  0  0  0  0  0  0  0  0
  -31.3852  -19.4570   25.1867 C   0  0  0  0  0  0  0  0  0  0  0  0
  -35.3126  -31.9590   20.9758 C   0  0  0  0  0  0  0  0  0  0  0  0
  -37.4537  -29.5436   19.8674 C   0  0  0  0  0  0  0  0  0  0  0  0
  -30.7544  -14.7130   20.6475 C   0  0  0  0  0  0  0  0  0  0  0  0
  -31.4460  -37.0590   20.5932 C   0  0  0  0  0  0  0  0  0  0  0  0
  -34.5840  -31.7920   24.5889 C   0  0  0  0  0  0  0  0  0  0  0  0
  -34.1691  -30.0809   22.2131 C   0  0  0  0  0  0  0  0  0  0  0  0
  -31.8026  -35.6361   20.1708 C   0  0  0  0  0  0  0  0  0  0  0  0
  -29.5557  -12.4081   18.2129 C   0  0  0  0  0  0  0  0  0  0  0  0
  -31.0609  -34.6210   21.0347 C   0  0  0  0  0  0  0  0  0  0  0  0
  -28.1274  -12.1046   18.6687 C   0  0  0  0  0  0  0  0  0  0  0  0
  -31.7354  -16.5298   23.1694 C   0  0  0  0  0  0  0  0  0  0  0  0
  -30.5003  -12.5885   19.3992 C   0  0  0  0  0  0  0  0  0  0  0  0
  -32.4201  -17.7940   23.6794 C   0  0  0  0  0  0  0  0  0  0  0  0
  -30.6000  -19.2009   22.7813 C   0  0  0  0  0  0  0  0  0  0  0  0
  -28.6325  -13.2803   20.8507 C   0  0  0  0  0  0  0  0  0  0  0  0
  -31.4574  -34.7576   22.5097 C   0  0  1  0  0  0  0  0  0  0  0  0
  -34.3423  -32.3852   23.2043 C   0  0  1  0  0  0  0  0  0  0  0  0
  -29.8589  -17.9655   22.2424 C   0  0  2  0  0  0  0  0  0  0  0  0
  -27.6316  -13.1455   19.6904 C   0  0  2  0  0  0  0  0  0  0  0  0
  -30.8551  -16.8232   21.9499 C   0  0  2  0  0  0  0  0  0  0  0  0
  -28.6187  -22.5776   24.1743 C   0  0  0  0  0  0  0  0  0  0  0  0
  -34.1959  -23.6888   25.1883 C   0  0  0  0  0  0  0  0  0  0  0  0
  -29.0498  -18.3486   21.0003 C   0  0  0  0  0  0  0  0  0  0  0  0
  -29.7982  -20.4668   26.8015 C   0  0  0  0  0  0  0  0  0  0  0  0
  -39.2719  -29.1443   18.1845 C   0  0  0  0  0  0  0  0  0  0  0  0
  -33.2202  -31.7737   18.7628 C   0  0  0  0  0  0  0  0  0  0  0  0
  -34.8779  -30.4851   17.3991 C   0  0  0  0  0  0  0  0  0  0  0  0
  -35.3774  -32.8344   18.0728 C   0  0  0  0  0  0  0  0  0  0  0  0
  -39.4380  -28.9469   21.9805 C   0  0  0  0  0  0  0  0  0  0  0  0
  -32.4688  -25.7365   23.9897 C   0  0  0  0  0  0  0  0  0  1  0  0
  -30.3483  -20.5362   25.3710 C   0  0  1  0  0  0  0  0  0  0  0  0
  -35.4486  -31.0036   19.8149 C   0  0  1  0  0  0  0  0  0  0  0  0
  -38.9496  -29.5646   19.6101 C   0  0  2  0  0  0  0  0  0  0  0  0
  -34.7235  -31.5151   18.5383 C   0  0  0  0  0  0  0  0  0  0  0  0
  -25.8528  -11.5407   20.2758 N   0  0  0  0  0  0  0  0  0  0  0  0
  -26.2310  -12.8267   20.1796 N   0  0  0  0  0  0  0  0  0  0  0  0
  -34.6841  -31.4573   22.1244 N   0  0  0  0  0  0  0  0  0  0  0  0
  -31.4417  -18.8510   23.9315 N   0  0  0  0  0  0  0  0  0  0  0  0
  -29.9731  -13.5899   20.3294 N   0  0  0  0  0  0  0  0  0  0  0  0
  -25.4776  -15.0472   20.5150 N   0  0  0  0  0  0  0  0  0  0  0  0
  -21.9194  -13.7328   20.4340 N   0  0  0  0  0  0  0  0  0  0  0  0
  -32.7487  -34.1479   22.7445 N   0  0  0  0  0  0  0  0  0  0  0  0
  -36.8789  -30.7760   19.6390 N   0  0  0  0  0  0  0  0  0  0  0  0
  -30.1774  -15.6163   21.5318 N   0  0  0  0  0  0  0  0  0  0  0  0
  -39.6487  -28.6362   20.5431 N   0  3  0  0  0  0  0  0  0  0  0  0
  -22.6934  -13.6838   22.5920 O   0  0  0  0  0  0  0  0  0  0  0  0
  -32.0262  -31.9547   23.0451 O   0  0  0  0  0  0  0  0  0  0  0  0
  -32.1206  -19.1611   26.1322 O   0  0  0  0  0  0  0  0  0  0  0  0
  -35.7543  -33.1059   20.8701 O   0  0  0  0  0  0  0  0  0  0  0  0
  -36.8544  -28.5340   20.2307 O   0  0  0  0  0  0  0  0  0  0  0  0
  -31.8805  -14.8998   20.1742 O   0  0  0  0  0  0  0  0  0  0  0  0
  -21.6205   -6.9835   21.6437 O   0  0  0  0  0  0  0  0  0  0  0  0
  -32.6449  -26.5023   25.1809 O   0  0  0  0  0  0  0  0  0  1  0  0
  -17.0135   -7.4486   24.6377 F   0  0  0  0  0  0  0  0  0  0  0  0
  -21.3189   -5.5847   24.0091 F   0  0  0  0  0  0  0  0  0  0  0  0
  1  2  1  0  0  0  0
  1  5  2  0  0  0  0
  2  6  2  0  0  0  0
  3  8  2  0  0  0  0
  3 17  1  0  0  0  0
  4  9  1  0  0  0  0
  4 17  2  0  0  0  0
  5 19  1  0  0  0  0
  6 21  1  0  0  0  0
  7 10  2  0  0  0  0
  7 20  1  0  0  0  0
  8 27  1  0  0  0  0
  9 27  2  0  0  0  0
 10 28  1  0  0  0  0
 11 12  2  0  0  0  0
 11 29  1  0  0  0  0
 12 30  1  0  0  0  0
 13 22  1  0  0  0  0
 13 28  2  0  0  0  0
 14 23  2  0  0  0  0
 14 25  1  0  0  0  0
 15 24  1  0  0  0  0
 15 26  2  0  0  0  0
 16 30  2  0  0  0  0
 16 31  1  0  0  0  0
 17 32  1  0  0  0  0
 18 32  1  0  0  0  0
 18 33  2  0  0  0  0
 18 34  1  0  0  0  0
 19 21  2  0  0  0  0
 19 40  1  0  0  0  0
 20 22  2  0  0  0  0
 20 41  1  0  0  0  0
 21 52  1  0  0  0  0
 22 42  1  0  0  0  0
 23 26  1  0  0  0  0
 23 57  1  0  0  0  0
 24 25  2  0  0  0  0
 24 58  1  0  0  0  0
 25 66  1  0  0  0  0
 26 67  1  0  0  0  0
 27 88  1  0  0  0  0
 28 89  1  0  0  0  0
 29 31  2  0  0  0  0
 29 88  1  0  0  0  0
 30 90  1  0  0  0  0
 31 91  1  0  0  0  0
 32 71  2  0  0  0  0
 33 72  1  0  0  0  0
 33 76  1  0  0  0  0
 34 77  1  0  0  0  0
 34 82  2  0  0  0  0
 35 53  1  0  0  0  0
 35 78  1  0  0  0  0
 35 83  2  0  0  0  0
 36 67  1  0  0  0  0
 36 74  1  0  0  0  0
 36 84  2  0  0  0  0
 37 68  1  0  0  0  0
 37 73  1  0  0  0  0
 37 85  2  0  0  0  0
 38 69  1  0  0  0  0
 38 79  1  0  0  0  0
 38 86  2  0  0  0  0
 39 75  1  0  0  0  0
 39 80  1  0  0  0  0
 39 87  2  0  0  0  0
 40 43  1  0  0  0  0
 41 53  1  0  0  0  0
 42 73  1  0  0  0  0
 43 45  1  0  0  0  0
 44 46  1  0  0  0  0
 44 48  1  0  0  0  0
 45 52  1  0  0  0  0
 46 55  1  0  0  0  0
 47 49  1  0  0  0  0
 47 56  1  0  0  0  0
 48 75  1  0  0  0  0
 49 74  1  0  0  0  0
 50 54  1  0  0  0  0
 50 74  1  0  0  0  0
 51 55  1  0  0  0  0
 51 75  1  0  0  0  0
 52 78  1  0  0  0  0
 53 73  1  0  0  0  0
 54 56  1  0  0  0  0
 54 59  1  0  0  0  0
 55 72  1  0  0  0  0
 56 80  1  0  0  0  0
 60 67  1  0  0  0  0
 61 69  1  0  0  0  0
 62 70  1  0  0  0  0
 63 70  1  0  0  0  0
 64 70  1  0  0  0  0
 65 81  1  0  0  0  0
 66 89  1  0  0  0  0
 68 70  1  0  0  0  0
 68 79  1  0  0  0  0
 69 81  1  0  0  0  0
 71 72  1  0  0  0  0
M  CHG  1  81   1
M  ISO  4  39 100  66 101  80 100  89 101
M  END
> <Batch ID>
0152

> <Smiles>
CNC(C)C(=O)NC(C(=O)N1Cc2cc([101O:1][101CH2:1]c3cc(C)c(C(C)C(=O)N4CCC([100NH:0][100C:0](=O)N5CCCC(n6nc(-c7ccc(Oc8ccc(F)cc8F)cc7)c(C(N)=O)c6N)C5)C(C)C4)cc3C)ccc2CC1C(=O)NC1CCCc2ccccc21)C(C)(C)C

> <Shape>
0.155

> <Color>
0.156

> <Negative vol penalty>
0.000

$$$$

  -OEChem-04052321463D

 87 96  0     1  0  0  0  0  0999 V2000
  -26.8507  -38.4753   20.4230 C   0  0  0  0  0  0  0  0  0  0  0  0
  -27.4021  -37.3468   19.8248 C   0  0  0  0  0  0  0  0  0  0  0  0
  -27.3359  -10.8930   20.7779 C   0  0  0  0  0  0  0  0  0  0  0  0
  -26.7622  -11.9794   18.6976 C   0  0  0  0  0  0  0  0  0  0  0  0
  -26.1851  -38.3614   21.6428 C   0  0  0  0  0  0  0  0  0  0  0  0
  -27.2891  -36.1039   20.4466 C   0  0  0  0  0  0  0  0  0  0  0  0
  -26.6344  -29.1358   18.9187 C   0  0  0  0  0  0  0  0  0  0  0  0
  -25.9836  -10.6624   21.0304 C   0  0  0  0  0  0  0  0  0  0  0  0
  -25.4099  -11.7487   18.9500 C   0  0  0  0  0  0  0  0  0  0  0  0
  -27.2244  -27.9080   19.2156 C   0  0  0  0  0  0  0  0  0  0  0  0
  -23.5990   -8.4839   20.0300 C   0  0  0  0  0  0  0  0  0  0  0  0
  -23.2309   -7.2169   20.4823 C   0  0  0  0  0  0  0  0  0  0  0  0
  -25.9838  -27.8184   21.2825 C   0  0  0  0  0  0  0  0  0  0  0  0
  -27.0133  -19.1580   20.5579 C   0  0  0  0  0  0  0  0  0  0  0  0
  -22.3359   -8.1974   22.5009 C   0  0  0  0  0  0  0  0  0  0  0  0
  -26.3220  -17.7922   18.7377 C   0  0  0  0  0  0  0  0  0  0  0  0
  -27.7252  -11.5516   19.6115 C   0  0  0  0  0  0  0  0  0  0  0  0
  -30.1391  -10.8265   19.2178 C   0  0  0  0  0  0  0  0  0  0  0  0
  -26.0556  -37.1149   22.2752 C   0  0  0  0  0  0  0  0  0  0  0  0
  -25.7213  -29.7203   19.8082 C   0  0  0  0  0  0  0  0  0  0  0  0
  -26.6223  -35.9734   21.6767 C   0  0  0  0  0  0  0  0  0  0  0  0
  -25.3816  -29.0524   20.9934 C   0  0  0  0  0  0  0  0  0  0  0  0
  -25.7451  -19.7278   20.5724 C   0  0  0  0  0  0  0  0  0  0  0  0
  -27.3154  -18.1711   19.6262 C   0  0  0  0  0  0  0  0  0  0  0  0
  -25.0206  -11.0902   20.1165 C   0  0  0  0  0  0  0  0  0  0  0  0
  -26.9013  -27.2505   20.3989 C   0  0  0  0  0  0  0  0  0  0  0  0
  -23.3356   -9.6078   20.8132 C   0  0  0  0  0  0  0  0  0  0  0  0
  -22.5994   -7.0736   21.7177 C   0  0  0  0  0  0  0  0  0  0  0  0
  -22.7041   -9.4645   22.0486 C   0  0  0  0  0  0  0  0  0  0  0  0
  -29.1219  -11.7906   19.3504 C   0  0  0  0  0  0  0  0  0  0  0  0
  -24.8221  -19.2794   19.6413 C   0  0  0  0  0  0  0  0  0  0  0  0
  -31.2765  -11.5581   18.9778 C   0  0  0  0  0  0  0  0  0  0  0  0
  -30.0627   -9.3973   19.3037 C   0  0  0  0  0  0  0  0  0  0  0  0
  -25.6407  -32.4161   21.4905 C   0  0  0  0  0  0  0  0  0  0  0  0
  -22.6355  -31.4242   22.2023 C   0  0  0  0  0  0  0  0  0  0  0  0
  -21.0220  -28.3111   23.0525 C   0  0  0  0  0  0  0  0  0  0  0  0
  -29.0521  -16.5753   18.7172 C   0  0  0  0  0  0  0  0  0  0  0  0
  -25.3684  -37.0491   23.6162 C   0  0  0  0  0  0  0  0  0  0  0  0
  -25.0734  -31.0325   19.4607 C   0  0  0  0  0  0  0  0  0  0  0  0
  -24.3919  -29.6277   21.9721 C   0  0  0  0  0  0  0  0  0  0  0  0
  -24.9670  -35.6345   24.0261 C   0  0  0  0  0  0  0  0  0  0  0  0
  -32.6112  -16.0600   20.1076 C   0  0  0  0  0  0  0  0  0  0  0  0
  -26.1202  -34.6636   23.7928 C   0  0  0  0  0  0  0  0  0  0  0  0
  -26.1168  -22.6204   19.9898 C   0  0  0  0  0  0  0  0  0  0  0  0
  -25.9406  -23.1045   22.4658 C   0  0  0  0  0  0  0  0  0  0  0  0
  -32.4287  -14.5478   20.0757 C   0  0  0  0  0  0  0  0  0  0  0  0
  -26.9385  -23.8923   19.8033 C   0  0  0  0  0  0  0  0  0  0  0  0
  -26.7623  -24.3754   22.2724 C   0  0  0  0  0  0  0  0  0  0  0  0
  -31.2603  -16.7588   19.9810 C   0  0  0  0  0  0  0  0  0  0  0  0
  -31.0215  -15.2216   18.0286 C   0  0  0  0  0  0  0  0  0  0  0  0
  -26.4991  -34.6036   22.3081 C   0  0  1  0  0  0  0  0  0  0  0  0
  -24.5459  -31.7802   20.6814 C   0  0  1  0  0  0  0  0  0  0  0  0
  -26.2760  -22.0471   21.4048 C   0  0  0  0  0  0  0  0  0  0  0  0
  -31.7637  -14.0865   18.7634 C   0  0  2  0  0  0  0  0  0  0  0  0
  -26.6047  -24.9399   20.8620 C   0  0  0  0  0  0  0  0  0  1  0  0
  -25.4936  -20.2766   23.0198 C   0  0  0  0  0  0  0  0  0  0  0  0
  -18.6504  -27.5596   22.7236 C   0  0  0  0  0  0  0  0  0  0  0  0
  -22.2225  -32.4458   25.0477 C   0  0  0  0  0  0  0  0  0  0  0  0
  -20.7111  -30.4919   25.4554 C   0  0  0  0  0  0  0  0  0  0  0  0
  -20.1205  -32.1823   23.7185 C   0  0  0  0  0  0  0  0  0  0  0  0
  -21.8712  -25.8926   21.5732 C   0  0  0  0  0  0  0  0  0  0  0  0
  -22.6641  -19.3110   18.6425 C   0  0  0  0  0  0  0  0  0  0  0  0
  -25.4034  -20.8064   21.5853 C   0  0  2  0  0  0  0  0  0  0  0  0
  -22.0196  -30.5706   23.2845 C   0  0  1  0  0  0  0  0  0  0  0  0
  -20.0699  -27.5131   22.1800 C   0  0  2  0  0  0  0  0  0  0  0  0
  -21.2952  -31.4186   24.3679 C   0  0  0  0  0  0  0  0  0  0  0  0
  -25.0788  -18.3228   18.7211 N   0  0  0  0  0  0  0  0  0  0  0  0
  -29.5733  -13.0395   19.2068 N   0  0  0  0  0  0  0  0  0  0  0  0
  -30.8867  -12.8651   18.9815 N   0  0  0  0  0  0  0  0  0  0  0  0
  -23.7901  -30.9160   21.5905 N   0  0  0  0  0  0  0  0  0  0  0  0
  -30.3973  -16.1866   18.9372 N   0  0  0  0  0  0  0  0  0  0  0  0
  -32.5620  -11.2045   18.7663 N   0  0  0  0  0  0  0  0  0  0  0  0
  -29.8110   -8.6701   18.1323 N   0  0  0  0  0  0  0  0  0  0  0  0
  -28.5994  -17.5713   19.5867 N   0  0  0  0  0  0  0  0  0  0  0  0
  -25.5499  -33.7922   21.5767 N   0  0  0  0  0  0  0  0  0  0  0  0
  -21.1591  -29.6081   22.6051 N   0  0  0  0  0  0  0  0  0  0  0  0
  -20.5007  -26.0880   22.1122 N   0  3  0  0  0  0  0  0  0  0  0  0
  -30.1967   -8.7845   20.3899 O   0  0  0  0  0  0  0  0  0  0  0  0
  -26.5032  -31.7103   22.0001 O   0  0  0  0  0  0  0  0  0  0  0  0
  -22.1073  -32.4988   21.9058 O   0  0  0  0  0  0  0  0  0  0  0  0
  -21.5846  -27.8329   24.0350 O   0  0  0  0  0  0  0  0  0  0  0  0
  -28.3677  -16.0652   17.8277 O   0  0  0  0  0  0  0  0  0  0  0  0
  -23.7010  -10.8651   20.3624 O   0  0  0  0  0  0  0  0  0  0  0  0
  -27.4763  -26.0522   20.6914 O   0  0  0  0  0  0  0  0  0  1  0  0
  -23.5612  -19.8167   19.6237 O   0  0  0  0  0  0  0  0  0  0  0  0
  -22.2445   -5.8569   22.1513 F   0  0  0  0  0  0  0  0  0  0  0  0
  -22.4474  -10.5406   22.8049 F   0  0  0  0  0  0  0  0  0  0  0  0
  1  2  1  0  0  0  0
  1  5  2  0  0  0  0
  2  6  2  0  0  0  0
  3  8  2  0  0  0  0
  3 17  1  0  0  0  0
  4  9  1  0  0  0  0
  4 17  2  0  0  0  0
  5 19  1  0  0  0  0
  6 21  1  0  0  0  0
  7 10  2  0  0  0  0
  7 20  1  0  0  0  0
  8 25  1  0  0  0  0
  9 25  2  0  0  0  0
 10 26  1  0  0  0  0
 11 12  2  0  0  0  0
 11 27  1  0  0  0  0
 12 28  1  0  0  0  0
 13 22  1  0  0  0  0
 13 26  2  0  0  0  0
 14 23  1  0  0  0  0
 14 24  2  0  0  0  0
 15 28  2  0  0  0  0
 15 29  1  0  0  0  0
 16 24  1  0  0  0  0
 16 67  2  0  0  0  0
 17 30  1  0  0  0  0
 18 30  1  0  0  0  0
 18 32  2  0  0  0  0
 18 33  1  0  0  0  0
 19 21  2  0  0  0  0
 19 38  1  0  0  0  0
 20 22  2  0  0  0  0
 20 39  1  0  0  0  0
 21 51  1  0  0  0  0
 22 40  1  0  0  0  0
 23 31  2  0  0  0  0
 23 63  1  0  0  0  0
 24 74  1  0  0  0  0
 25 83  1  0  0  0  0
 26 84  1  0  0  0  0
 27 29  2  0  0  0  0
 27 83  1  0  0  0  0
 28 86  1  0  0  0  0
 29 87  1  0  0  0  0
 30 68  2  0  0  0  0
 31 67  1  0  0  0  0
 31 85  1  0  0  0  0
 32 69  1  0  0  0  0
 32 72  1  0  0  0  0
 33 73  1  0  0  0  0
 33 78  2  0  0  0  0
 34 52  1  0  0  0  0
 34 75  1  0  0  0  0
 34 79  2  0  0  0  0
 35 64  1  0  0  0  0
 35 70  1  0  0  0  0
 35 80  2  0  0  0  0
 36 65  1  0  0  0  0
 36 76  1  0  0  0  0
 36 81  2  0  0  0  0
 37 71  1  0  0  0  0
 37 74  1  0  0  0  0
 37 82  2  0  0  0  0
 38 41  1  0  0  0  0
 39 52  1  0  0  0  0
 40 70  1  0  0  0  0
 41 43  1  0  0  0  0
 42 46  1  0  0  0  0
 42 49  1  0  0  0  0
 43 51  1  0  0  0  0
 44 47  1  0  0  0  0
 44 53  1  0  0  0  0
 45 48  1  0  0  0  0
 45 53  1  0  0  0  0
 46 54  1  0  0  0  0
 47 55  1  0  0  0  0
 48 55  1  0  0  0  0
 49 71  1  0  0  0  0
 50 54  1  0  0  0  0
 50 71  1  0  0  0  0
 51 75  1  0  0  0  0
 52 70  1  0  0  0  0
 53 63  1  0  0  0  0
 54 69  1  0  0  0  0
 55 84  1  0  0  0  0
 56 63  1  0  0  0  0
 57 65  1  0  0  0  0
 58 66  1  0  0  0  0
 59 66  1  0  0  0  0
 60 66  1  0  0  0  0
 61 77  1  0  0  0  0
 62 85  1  0  0  0  0
 64 66  1  0  0  0  0
 64 76  1  0  0  0  0
 65 77  1  0  0  0  0
 68 69  1  0  0  0  0
M  CHG  1  77   1
M  ISO  4  37 100  55 101  74 100  84 101
M  END
> <Batch ID>
0152

> <Smiles>
CNC(C)C(=O)NC(C(=O)N1Cc2cc([101O:1][101CH:1]3CCC(C(C)c4cc([100NH:0][100C:0](=O)N5CCCC(n6nc(-c7ccc(Oc8ccc(F)cc8F)cc7)c(C(N)=O)c6N)C5)cnc4OC)CC3)ccc2CC1C(=O)NC1CCCc2ccccc21)C(C)(C)C

> <Shape>
0.259

> <Color>
0.062

> <Negative vol penalty>
0.000

$$$$

  -OEChem-04052321463D

 93102  0     1  0  0  0  0  0999 V2000
  -20.3310  -24.7519   23.9493 C   0  0  0  0  0  0  0  0  0  0  0  0
  -21.5450  -25.1685   23.4125 C   0  0  0  0  0  0  0  0  0  0  0  0
  -24.3670  -12.5285   18.3085 C   0  0  0  0  0  0  0  0  0  0  0  0
  -26.0391  -11.4872   19.7073 C   0  0  0  0  0  0  0  0  0  0  0  0
  -19.1929  -25.5418   23.7921 C   0  0  0  0  0  0  0  0  0  0  0  0
  -21.6213  -26.3748   22.7172 C   0  0  0  0  0  0  0  0  0  0  0  0
  -25.6704  -29.1195   24.0272 C   0  0  0  0  0  0  0  0  0  0  0  0
  -24.5470  -11.5308   17.3505 C   0  0  0  0  0  0  0  0  0  0  0  0
  -26.2191  -10.4894   18.7493 C   0  0  0  0  0  0  0  0  0  0  0  0
  -26.8988  -28.7394   23.4882 C   0  0  0  0  0  0  0  0  0  0  0  0
  -24.8251   -9.4565   14.3768 C   0  0  0  0  0  0  0  0  0  0  0  0
  -24.9237   -9.8475   13.0415 C   0  0  0  0  0  0  0  0  0  0  0  0
  -28.6530  -24.4147   22.0492 C   0  0  0  0  0  0  0  0  0  0  0  0
  -26.7085  -30.4879   21.8372 C   0  0  0  0  0  0  0  0  0  0  0  0
  -28.6242  -24.3915   19.6384 C   0  0  0  0  0  0  0  0  0  0  0  0
  -26.8671  -11.1800   13.5752 C   0  0  0  0  0  0  0  0  0  0  0  0
  -25.1131  -12.5067   19.4869 C   0  0  0  0  0  0  0  0  0  0  0  0
  -24.0217  -13.5287   21.5539 C   0  0  0  0  0  0  0  0  0  0  0  0
  -19.2574  -26.7631   23.1029 C   0  0  0  0  0  0  0  0  0  0  0  0
  -24.9455  -30.1814   23.4675 C   0  0  0  0  0  0  0  0  0  0  0  0
  -20.4827  -27.1811   22.5495 C   0  0  0  0  0  0  0  0  0  0  0  0
  -27.5847  -23.5053   22.0866 C   0  0  0  0  0  0  0  0  0  0  0  0
  -25.4724  -30.8811   22.3726 C   0  0  0  0  0  0  0  0  0  0  0  0
  -27.0361  -23.0285   20.8819 C   0  0  0  0  0  0  0  0  0  0  0  0
  -29.1660  -24.8587   20.8315 C   0  0  0  0  0  0  0  0  0  0  0  0
  -25.4730  -10.5113   17.5709 C   0  0  0  0  0  0  0  0  0  0  0  0
  -27.4166  -29.4218   22.3913 C   0  0  0  0  0  0  0  0  0  0  0  0
  -25.7475   -9.9272   15.3113 C   0  0  0  0  0  0  0  0  0  0  0  0
  -27.5681  -23.4810   19.6627 C   0  0  0  0  0  0  0  0  0  0  0  0
  -25.9446  -10.7093   12.6407 C   0  0  0  0  0  0  0  0  0  0  0  0
  -26.7685  -10.7890   14.9105 C   0  0  0  0  0  0  0  0  0  0  0  0
  -24.9280  -13.5374   20.4766 C   0  0  0  0  0  0  0  0  0  0  0  0
  -24.2350  -14.7262   22.1918 C   0  0  0  0  0  0  0  0  0  0  0  0
  -23.0720  -12.5276   21.9431 C   0  0  0  0  0  0  0  0  0  0  0  0
  -22.0998  -30.4703   22.0812 C   0  0  0  0  0  0  0  0  0  0  0  0
  -22.8246  -33.6315   22.1423 C   0  0  0  0  0  0  0  0  0  0  0  0
  -25.2285  -36.0509   22.2635 C   0  0  0  0  0  0  0  0  0  0  0  0
  -25.1194  -20.1127   22.2336 C   0  0  0  0  0  0  0  0  0  0  0  0
  -17.9904  -27.5599   22.9178 C   0  0  0  0  0  0  0  0  0  0  0  0
  -23.6346  -30.5962   24.0773 C   0  0  0  0  0  0  0  0  0  0  0  0
  -27.0937  -23.0115   23.4229 C   0  0  0  0  0  0  0  0  0  0  0  0
  -24.7431  -32.0413   21.7475 C   0  0  0  0  0  0  0  0  0  0  0  0
  -18.2364  -29.0047   22.4906 C   0  0  0  0  0  0  0  0  0  0  0  0
  -27.8955  -18.1614   21.6388 C   0  0  0  0  0  0  0  0  0  0  0  0
  -19.2584  -29.0603   21.3596 C   0  0  0  0  0  0  0  0  0  0  0  0
  -27.3114  -16.7747   21.3706 C   0  0  0  0  0  0  0  0  0  0  0  0
  -25.7442  -22.3078   23.3424 C   0  0  0  0  0  0  0  0  0  0  0  0
  -27.0591  -19.2442   20.9667 C   0  0  0  0  0  0  0  0  0  0  0  0
  -25.0217  -17.8511   21.1075 C   0  0  0  0  0  0  0  0  0  0  0  0
  -20.6110  -28.4953   21.8101 C   0  0  1  0  0  0  0  0  0  0  0  0
  -25.8785  -22.0461   20.8731 C   0  0  2  0  0  0  0  0  0  0  0  0
  -22.7401  -31.3619   23.1072 C   0  0  1  0  0  0  0  0  0  0  0  0
  -25.8268  -16.7153   21.7709 C   0  0  1  0  0  0  0  0  0  0  0  0
  -25.5162  -38.5438   22.2610 C   0  0  0  0  0  0  0  0  0  0  0  0
  -21.6502  -23.6056   16.5418 C   0  0  0  0  0  0  0  0  0  0  0  0
  -22.9485  -21.4460   16.3844 C   0  0  0  0  0  0  0  0  0  0  0  0
  -24.6201  -24.2017   20.8153 C   0  0  0  0  0  0  0  0  0  0  0  0
  -23.3791  -22.0456   21.0515 C   0  0  0  0  0  0  0  0  0  0  0  0
  -22.2586  -33.6913   19.1446 C   0  0  0  0  0  0  0  0  0  0  0  0
  -23.4519  -35.8895   19.0338 C   0  0  0  0  0  0  0  0  0  0  0  0
  -21.3843  -35.6628   20.4108 C   0  0  0  0  0  0  0  0  0  0  0  0
  -26.5164  -36.0214   24.9280 C   0  0  0  0  0  0  0  0  0  0  0  0
  -27.7060  -21.8661   17.9223 C   0  0  0  0  0  0  0  0  0  0  0  0
  -30.2995  -25.8275   20.8086 C   0  0  0  0  0  0  0  0  0  0  0  0
  -29.8701  -27.3032   20.7952 C   0  0  0  0  0  0  0  0  0  0  0  0
  -24.4797  -22.6808   18.8458 C   0  0  0  0  0  0  0  0  0  0  0  0
  -28.9788  -27.6779   21.9736 C   0  0  0  0  0  0  0  0  0  1  0  0
  -23.5283  -34.5852   21.2073 C   0  0  1  0  0  0  0  0  0  0  0  0
  -25.3602  -37.2980   23.1191 C   0  0  2  0  0  0  0  0  0  0  0  0
  -22.9402  -22.8800   16.8890 C   0  0  0  0  0  0  0  0  0  0  0  0
  -24.5893  -22.7225   20.3847 C   0  0  0  0  0  0  0  0  0  0  0  0
  -22.6689  -34.9341   19.9594 C   0  0  0  0  0  0  0  0  0  0  0  0
  -25.6623  -14.6521   20.4296 N   0  0  0  0  0  0  0  0  0  0  0  0
  -25.2176  -15.3550   21.4852 N   0  0  0  0  0  0  0  0  0  0  0  0
  -23.4622  -32.4048   22.3756 N   0  0  0  0  0  0  0  0  0  0  0  0
  -25.6546  -19.1519   21.3644 N   0  0  0  0  0  0  0  0  0  0  0  0
  -25.6780  -21.4041   22.1868 N   0  0  0  0  0  0  0  0  0  0  0  0
  -23.6761  -15.2921   23.2825 N   0  0  0  0  0  0  0  0  0  0  0  0
  -22.9829  -11.3573   21.1770 N   0  0  0  0  0  0  0  0  0  0  0  0
  -21.3196  -29.4642   22.6184 N   0  0  0  0  0  0  0  0  0  0  0  0
  -23.9086  -35.7406   22.0129 N   0  0  0  0  0  0  0  0  0  0  0  0
  -26.5485  -37.1905   24.0119 N   0  3  0  0  0  0  0  0  0  0  0  0
  -23.0863  -22.8600   18.3703 N   0  3  0  0  0  0  0  0  0  0  0  0
  -22.3130  -12.6738   22.9310 O   0  0  0  0  0  0  0  0  0  0  0  0
  -22.2977  -30.6805   20.8902 O   0  0  0  0  0  0  0  0  0  0  0  0
  -21.7524  -33.9656   22.6525 O   0  0  0  0  0  0  0  0  0  0  0  0
  -26.1994  -35.4177   21.8551 O   0  0  0  0  0  0  0  0  0  0  0  0
  -24.1984  -19.8313   23.0109 O   0  0  0  0  0  0  0  0  0  0  0  0
  -25.6488   -9.5374   16.6364 O   0  0  0  0  0  0  0  0  0  0  0  0
  -27.0867  -23.0274   18.4687 O   0  0  0  0  0  0  0  0  0  0  0  0
  -28.6235  -29.0498   21.8591 O   0  0  0  0  0  0  0  0  0  1  0  0
  -26.0401  -11.0835   11.3582 F   0  0  0  0  0  0  0  0  0  0  0  0
  -27.6582  -11.2435   15.8036 F   0  0  0  0  0  0  0  0  0  0  0  0
  1  2  1  0  0  0  0
  1  5  2  0  0  0  0
  2  6  2  0  0  0  0
  3  8  2  0  0  0  0
  3 17  1  0  0  0  0
  4  9  1  0  0  0  0
  4 17  2  0  0  0  0
  5 19  1  0  0  0  0
  6 21  1  0  0  0  0
  7 10  2  0  0  0  0
  7 20  1  0  0  0  0
  8 26  1  0  0  0  0
  9 26  2  0  0  0  0
 10 27  1  0  0  0  0
 11 12  2  0  0  0  0
 11 28  1  0  0  0  0
 12 30  1  0  0  0  0
 13 22  2  0  0  0  0
 13 25  1  0  0  0  0
 14 23  1  0  0  0  0
 14 27  2  0  0  0  0
 15 25  2  0  0  0  0
 15 29  1  0  0  0  0
 16 30  2  0  0  0  0
 16 31  1  0  0  0  0
 17 32  1  0  0  0  0
 18 32  1  0  0  0  0
 18 33  2  0  0  0  0
 18 34  1  0  0  0  0
 19 21  2  0  0  0  0
 19 39  1  0  0  0  0
 20 23  2  0  0  0  0
 20 40  1  0  0  0  0
 21 50  1  0  0  0  0
 22 24  1  0  0  0  0
 22 41  1  0  0  0  0
 23 42  1  0  0  0  0
 24 29  2  0  0  0  0
 24 51  1  0  0  0  0
 25 64  1  0  0  0  0
 26 89  1  0  0  0  0
 27 91  1  0  0  0  0
 28 31  2  0  0  0  0
 28 89  1  0  0  0  0
 29 90  1  0  0  0  0
 30 92  1  0  0  0  0
 31 93  1  0  0  0  0
 32 73  2  0  0  0  0
 33 74  1  0  0  0  0
 33 78  1  0  0  0  0
 34 79  1  0  0  0  0
 34 84  2  0  0  0  0
 35 52  1  0  0  0  0
 35 80  1  0  0  0  0
 35 85  2  0  0  0  0
 36 68  1  0  0  0  0
 36 75  1  0  0  0  0
 36 86  2  0  0  0  0
 37 69  1  0  0  0  0
 37 81  1  0  0  0  0
 37 87  2  0  0  0  0
 38 76  1  0  0  0  0
 38 77  1  0  0  0  0
 38 88  2  0  0  0  0
 39 43  1  0  0  0  0
 40 52  1  0  0  0  0
 41 47  1  0  0  0  0
 42 75  1  0  0  0  0
 43 45  1  0  0  0  0
 44 46  1  0  0  0  0
 44 48  1  0  0  0  0
 45 50  1  0  0  0  0
 46 53  1  0  0  0  0
 47 77  1  0  0  0  0
 48 76  1  0  0  0  0
 49 53  1  0  0  0  0
 49 76  1  0  0  0  0
 50 80  1  0  0  0  0
 51 71  1  0  0  0  0
 51 77  1  0  0  0  0
 52 75  1  0  0  0  0
 53 74  1  0  0  0  0
 54 69  1  0  0  0  0
 55 70  1  0  0  0  0
 56 70  1  0  0  0  0
 57 71  1  0  0  0  0
 58 71  1  0  0  0  0
 59 72  1  0  0  0  0
 60 72  1  0  0  0  0
 61 72  1  0  0  0  0
 62 82  1  0  0  0  0
 63 90  1  0  0  0  0
 64 65  1  0  0  0  0
 65 67  1  0  0  0  0
 66 71  1  0  0  0  0
 66 83  1  0  0  0  0
 67 91  1  0  0  0  0
 68 72  1  0  0  0  0
 68 81  1  0  0  0  0
 69 82  1  0  0  0  0
 70 83  1  0  0  0  0
 73 74  1  0  0  0  0
M  CHG  2  82   1  83   1
M  ISO  4  38 100  67 101  77 100  91 101
M  END
> <Batch ID>
0152

> <Smiles>
CNC(C)C(=O)NC(C(=O)N1Cc2cc([101O:1][101CH2:1]CCc3cc4c(c(OC)c3)C(C(C)(C)CNC(C)C)[100N:0]([100C:0](=O)N3CCCC(n5nc(-c6ccc(Oc7ccc(F)cc7F)cc6)c(C(N)=O)c5N)C3)CC4)ccc2CC1C(=O)NC1CCCc2ccccc21)C(C)(C)C

> <Shape>
0.204

> <Color>
0.091

> <Negative vol penalty>
0.000

$$$$

  -OEChem-04052321463D

 89 99  0     1  0  0  0  0  0999 V2000
  -20.0422  -34.4333   22.1455 C   0  0  0  0  0  0  0  0  0  0  0  0
  -21.3209  -33.9986   21.8118 C   0  0  0  0  0  0  0  0  0  0  0  0
  -24.2842   -9.1329   22.6520 C   0  0  0  0  0  0  0  0  0  0  0  0
  -22.3877  -10.4806   22.0008 C   0  0  0  0  0  0  0  0  0  0  0  0
  -19.2167  -33.6295   22.9306 C   0  0  0  0  0  0  0  0  0  0  0  0
  -21.7752  -32.7602   22.2639 C   0  0  0  0  0  0  0  0  0  0  0  0
  -32.3247  -24.3436   18.3205 C   0  0  0  0  0  0  0  0  0  0  0  0
  -25.4901  -28.8963   19.3015 C   0  0  0  0  0  0  0  0  0  0  0  0
  -33.1469  -23.8225   17.3215 C   0  0  0  0  0  0  0  0  0  0  0  0
  -23.5776   -7.9774   22.3184 C   0  0  0  0  0  0  0  0  0  0  0  0
  -21.6812   -9.3252   21.6671 C   0  0  0  0  0  0  0  0  0  0  0  0
  -26.8609  -28.6585   19.3916 C   0  0  0  0  0  0  0  0  0  0  0  0
  -21.1660   -6.0489   23.6930 C   0  0  0  0  0  0  0  0  0  0  0  0
  -21.2114   -4.9810   24.5891 C   0  0  0  0  0  0  0  0  0  0  0  0
  -26.4367  -26.8154   20.8890 C   0  0  0  0  0  0  0  0  0  0  0  0
  -31.5115  -22.1016   16.8732 C   0  0  0  0  0  0  0  0  0  0  0  0
  -22.1878   -3.5849   22.8760 C   0  0  0  0  0  0  0  0  0  0  0  0
  -23.6892  -10.3845   22.4932 C   0  0  0  0  0  0  0  0  0  0  0  0
  -24.9421  -11.9200   24.0995 C   0  0  0  0  0  0  0  0  0  0  0  0
  -19.6575  -32.3764   23.3844 C   0  0  0  0  0  0  0  0  0  0  0  0
  -24.5814  -28.1009   20.0143 C   0  0  0  0  0  0  0  0  0  0  0  0
  -20.9553  -31.9394   23.0568 C   0  0  0  0  0  0  0  0  0  0  0  0
  -31.0960  -23.7436   18.5960 C   0  0  0  0  0  0  0  0  0  0  0  0
  -25.0547  -27.0436   20.8043 C   0  0  0  0  0  0  0  0  0  0  0  0
  -32.7403  -22.7016   16.5978 C   0  0  0  0  0  0  0  0  0  0  0  0
  -30.6894  -22.6226   17.8723 C   0  0  0  0  0  0  0  0  0  0  0  0
  -22.2761   -8.0736   21.8259 C   0  0  0  0  0  0  0  0  0  0  0  0
  -27.3346  -27.6197   20.1877 C   0  0  0  0  0  0  0  0  0  0  0  0
  -21.6314   -5.8849   22.3883 C   0  0  0  0  0  0  0  0  0  0  0  0
  -21.7223   -3.7490   24.1806 C   0  0  0  0  0  0  0  0  0  0  0  0
  -22.1423   -4.6529   21.9798 C   0  0  0  0  0  0  0  0  0  0  0  0
  -24.4184  -11.5784   22.8382 C   0  0  0  0  0  0  0  0  0  0  0  0
  -25.5395  -13.1412   23.9038 C   0  0  0  0  0  0  0  0  0  0  0  0
  -24.8931  -11.1980   25.3372 C   0  0  0  0  0  0  0  0  0  0  0  0
  -22.4400  -28.6415   22.3003 C   0  0  0  0  0  0  0  0  0  0  0  0
  -21.6828  -25.5293   21.7871 C   0  0  0  0  0  0  0  0  0  0  0  0
  -22.6589  -22.4567   20.6677 C   0  0  0  0  0  0  0  0  0  0  0  0
  -25.6571  -18.1488   21.9620 C   0  0  0  0  0  0  0  0  0  0  0  0
  -18.7466  -31.5634   24.2699 C   0  0  0  0  0  0  0  0  0  0  0  0
  -23.1042  -28.3536   19.8854 C   0  0  0  0  0  0  0  0  0  0  0  0
  -24.1194  -26.1480   21.5735 C   0  0  0  0  0  0  0  0  0  0  0  0
  -19.1660  -30.1011   24.3961 C   0  0  0  0  0  0  0  0  0  0  0  0
  -26.5795  -15.6665   19.6544 C   0  0  0  0  0  0  0  0  0  0  0  0
  -20.6639  -29.9965   24.6649 C   0  0  0  0  0  0  0  0  0  0  0  0
  -26.1389  -14.3964   20.3814 C   0  0  0  0  0  0  0  0  0  0  0  0
  -27.5655  -19.7746   19.1815 C   0  0  0  0  0  0  0  0  0  0  0  0
  -28.3284  -20.6570   21.4108 C   0  0  0  0  0  0  0  0  0  0  0  0
  -30.5740  -25.7139   20.3747 C   0  0  0  0  0  0  0  0  0  0  0  0
  -28.8434  -25.0453   19.3380 C   0  0  0  0  0  0  0  0  0  0  0  0
  -25.5666  -16.8007   19.8186 C   0  0  0  0  0  0  0  0  0  0  0  0
  -26.2504  -19.3555   19.8258 C   0  0  0  0  0  0  0  0  0  0  0  0
  -27.0031  -20.2165   22.0214 C   0  0  0  0  0  0  0  0  0  0  0  0
  -24.7838  -15.8305   21.9549 C   0  0  0  0  0  0  0  0  0  0  0  0
  -30.1784  -24.3521   19.7350 C   0  0  0  0  0  0  0  0  0  0  0  0
  -21.4749  -30.5914   23.5075 C   0  0  1  0  0  0  0  0  0  0  0  0
  -22.2996  -27.8053   21.0599 C   0  0  1  0  0  0  0  0  0  0  0  0
  -25.8087  -14.6899   21.8556 C   0  0  1  0  0  0  0  0  0  0  0  0
  -28.1913  -20.9566   19.9191 C   0  0  0  0  0  0  0  0  0  0  0  0
  -29.0668  -26.0228   20.5124 C   0  0  0  0  0  0  0  0  0  1  0  0
  -33.6196  -22.1448   15.5296 C   0  0  0  0  0  0  0  0  0  0  0  0
  -21.8346  -20.1004   20.4112 C   0  0  0  0  0  0  0  0  0  0  0  0
  -22.0620  -25.0734   24.7802 C   0  0  0  0  0  0  0  0  0  0  0  0
  -22.1690  -22.6145   24.3213 C   0  0  0  0  0  0  0  0  0  0  0  0
  -20.0945  -23.8923   23.7860 C   0  0  0  0  0  0  0  0  0  0  0  0
  -22.9813  -22.5409   17.7270 C   0  0  0  0  0  0  0  0  0  0  0  0
  -29.3715  -21.9625   18.1532 C   0  0  0  0  0  0  0  0  0  0  0  0
  -22.1505  -24.2086   22.3491 C   0  0  1  0  0  0  0  0  0  0  0  0
  -21.9824  -21.4593   19.7447 C   0  0  2  0  0  0  0  0  0  0  0  0
  -21.6370  -23.9651   23.7963 C   0  0  0  0  0  0  0  0  0  0  0  0
  -24.6616  -12.5076   21.9100 N   0  0  0  0  0  0  0  0  0  0  0  0
  -25.3446  -13.4452   22.5886 N   0  0  0  0  0  0  0  0  0  0  0  0
  -22.6844  -26.4392   21.4200 N   0  0  0  0  0  0  0  0  0  0  0  0
  -25.2531  -17.0175   21.2373 N   0  0  0  0  0  0  0  0  0  0  0  0
  -26.4066  -19.1130   21.2675 N   0  0  0  0  0  0  0  0  0  0  0  0
  -26.2072  -13.9741   24.7303 N   0  0  0  0  0  0  0  0  0  0  0  0
  -23.8126  -11.4247   26.2006 N   0  0  0  0  0  0  0  0  0  0  0  0
  -21.5194  -29.6677   22.3943 N   0  0  0  0  0  0  0  0  0  0  0  0
  -21.7403  -23.1886   21.3900 N   0  0  0  0  0  0  0  0  0  0  0  0
  -22.7780  -21.2865   18.4964 N   0  3  0  0  0  0  0  0  0  0  0  0
  -25.7896  -10.3883   25.6752 O   0  0  0  0  0  0  0  0  0  0  0  0
  -23.3176  -28.3744   23.1128 O   0  0  0  0  0  0  0  0  0  0  0  0
  -20.4735  -25.7430   21.6713 O   0  0  0  0  0  0  0  0  0  0  0  0
  -23.8801  -22.5722   20.7434 O   0  0  0  0  0  0  0  0  0  0  0  0
  -25.3702  -18.2902   23.1572 O   0  0  0  0  0  0  0  0  0  0  0  0
  -21.5864   -6.9463   21.5001 O   0  0  0  0  0  0  0  0  0  0  0  0
  -28.6749  -27.3854   20.2781 O   0  0  0  0  0  0  0  0  0  1  0  0
  -29.4727  -21.2197   19.3600 O   0  0  0  0  0  0  0  0  0  0  0  0
  -21.7673   -2.7240   25.0417 F   0  0  0  0  0  0  0  0  0  0  0  0
  -22.5920   -4.4896   20.7281 F   0  0  0  0  0  0  0  0  0  0  0  0
  1  2  1  0  0  0  0
  1  5  2  0  0  0  0
  2  6  2  0  0  0  0
  3 10  2  0  0  0  0
  3 18  1  0  0  0  0
  4 11  1  0  0  0  0
  4 18  2  0  0  0  0
  5 20  1  0  0  0  0
  6 22  1  0  0  0  0
  7  9  2  0  0  0  0
  7 23  1  0  0  0  0
  8 12  2  0  0  0  0
  8 21  1  0  0  0  0
  9 25  1  0  0  0  0
 10 27  1  0  0  0  0
 11 27  2  0  0  0  0
 12 28  1  0  0  0  0
 13 14  2  0  0  0  0
 13 29  1  0  0  0  0
 14 30  1  0  0  0  0
 15 24  1  0  0  0  0
 15 28  2  0  0  0  0
 16 25  2  0  0  0  0
 16 26  1  0  0  0  0
 17 30  2  0  0  0  0
 17 31  1  0  0  0  0
 18 32  1  0  0  0  0
 19 32  1  0  0  0  0
 19 33  2  0  0  0  0
 19 34  1  0  0  0  0
 20 22  2  0  0  0  0
 20 39  1  0  0  0  0
 21 24  2  0  0  0  0
 21 40  1  0  0  0  0
 22 55  1  0  0  0  0
 23 26  2  0  0  0  0
 23 54  1  0  0  0  0
 24 41  1  0  0  0  0
 25 60  1  0  0  0  0
 26 66  1  0  0  0  0
 27 85  1  0  0  0  0
 28 86  1  0  0  0  0
 29 31  2  0  0  0  0
 29 85  1  0  0  0  0
 30 88  1  0  0  0  0
 31 89  1  0  0  0  0
 32 70  2  0  0  0  0
 33 71  1  0  0  0  0
 33 75  1  0  0  0  0
 34 76  1  0  0  0  0
 34 80  2  0  0  0  0
 35 56  1  0  0  0  0
 35 77  1  0  0  0  0
 35 81  2  0  0  0  0
 36 67  1  0  0  0  0
 36 72  1  0  0  0  0
 36 82  2  0  0  0  0
 37 68  1  0  0  0  0
 37 78  1  0  0  0  0
 37 83  2  0  0  0  0
 38 73  1  0  0  0  0
 38 74  1  0  0  0  0
 38 84  2  0  0  0  0
 39 42  1  0  0  0  0
 40 56  1  0  0  0  0
 41 72  1  0  0  0  0
 42 44  1  0  0  0  0
 43 45  1  0  0  0  0
 43 50  1  0  0  0  0
 44 55  1  0  0  0  0
 45 57  1  0  0  0  0
 46 51  1  0  0  0  0
 46 58  1  0  0  0  0
 47 52  1  0  0  0  0
 47 58  1  0  0  0  0
 48 54  1  0  0  0  0
 48 59  1  0  0  0  0
 49 54  1  0  0  0  0
 49 59  1  0  0  0  0
 50 73  1  0  0  0  0
 51 74  1  0  0  0  0
 52 74  1  0  0  0  0
 53 57  1  0  0  0  0
 53 73  1  0  0  0  0
 55 77  1  0  0  0  0
 56 72  1  0  0  0  0
 57 71  1  0  0  0  0
 58 87  1  0  0  0  0
 59 86  1  0  0  0  0
 61 68  1  0  0  0  0
 62 69  1  0  0  0  0
 63 69  1  0  0  0  0
 64 69  1  0  0  0  0
 65 79  1  0  0  0  0
 66 87  1  0  0  0  0
 67 69  1  0  0  0  0
 67 78  1  0  0  0  0
 68 79  1  0  0  0  0
 70 71  1  0  0  0  0
M  CHG  1  79   1
M  ISO  4  38 100  59 101  74 100  86 101
M  END
> <Batch ID>
0152

> <Smiles>
CNC(C)C(=O)NC(C(=O)N1Cc2cc([101O:1][101CH:1]3CC(c4ccc(C)cc4COC4CC[100N:0]([100C:0](=O)N5CCCC(n6nc(-c7ccc(Oc8ccc(F)cc8F)cc7)c(C(N)=O)c6N)C5)CC4)C3)ccc2CC1C(=O)NC1CCCc2ccccc21)C(C)(C)C

> <Shape>
0.224

> <Color>
0.112

> <Negative vol penalty>
0.000

$$$$

  -OEChem-04052321463D

 82 91  0     1  0  0  0  0  0999 V2000
  -28.6404  -37.1577   23.8334 C   0  0  0  0  0  0  0  0  0  0  0  0
  -29.1193  -35.8516   23.8530 C   0  0  0  0  0  0  0  0  0  0  0  0
  -24.3728   -9.1288   21.2103 C   0  0  0  0  0  0  0  0  0  0  0  0
  -24.5701  -10.8815   22.8614 C   0  0  0  0  0  0  0  0  0  0  0  0
  -27.3147  -37.4180   24.1778 C   0  0  0  0  0  0  0  0  0  0  0  0
  -28.2729  -34.8053   24.2180 C   0  0  0  0  0  0  0  0  0  0  0  0
  -26.9920  -29.3290   19.7168 C   0  0  0  0  0  0  0  0  0  0  0  0
  -24.0284   -8.2227   22.2133 C   0  0  0  0  0  0  0  0  0  0  0  0
  -24.2257   -9.9754   23.8644 C   0  0  0  0  0  0  0  0  0  0  0  0
  -26.8628  -28.1421   18.9953 C   0  0  0  0  0  0  0  0  0  0  0  0
  -21.2850   -7.4395   24.0280 C   0  0  0  0  0  0  0  0  0  0  0  0
  -20.2090   -6.5850   23.7880 C   0  0  0  0  0  0  0  0  0  0  0  0
  -25.3327  -27.2842   20.6599 C   0  0  0  0  0  0  0  0  0  0  0  0
  -21.6660   -4.6761   24.0531 C   0  0  0  0  0  0  0  0  0  0  0  0
  -24.6437  -10.4582   21.5344 C   0  0  0  0  0  0  0  0  0  0  0  0
  -24.2264  -11.7612   19.3813 C   0  0  0  0  0  0  0  0  0  0  0  0
  -26.4490  -36.3733   24.5379 C   0  0  0  0  0  0  0  0  0  0  0  0
  -26.2793  -29.5043   20.9063 C   0  0  0  0  0  0  0  0  0  0  0  0
  -26.9348  -35.0521   24.5689 C   0  0  0  0  0  0  0  0  0  0  0  0
  -25.4485  -28.4758   21.3805 C   0  0  0  0  0  0  0  0  0  0  0  0
  -23.9548   -8.6459   23.5403 C   0  0  0  0  0  0  0  0  0  0  0  0
  -26.0353  -27.1221   19.4658 C   0  0  0  0  0  0  0  0  0  0  0  0
  -22.5515   -6.9124   24.2804 C   0  0  0  0  0  0  0  0  0  0  0  0
  -20.3995   -5.2033   23.8006 C   0  0  0  0  0  0  0  0  0  0  0  0
  -22.7420   -5.5307   24.2930 C   0  0  0  0  0  0  0  0  0  0  0  0
  -25.0000  -11.3945   20.4988 C   0  0  0  0  0  0  0  0  0  0  0  0
  -25.0039  -12.6726   18.7095 C   0  0  0  0  0  0  0  0  0  0  0  0
  -22.9215  -11.3178   18.9860 C   0  0  0  0  0  0  0  0  0  0  0  0
  -25.4587  -31.7546   23.7940 C   0  0  0  0  0  0  0  0  0  0  0  0
  -22.8450  -30.3787   22.9657 C   0  0  0  0  0  0  0  0  0  0  0  0
  -20.1145  -28.9777   21.4762 C   0  0  0  0  0  0  0  0  0  0  0  0
  -29.3795  -16.3671   20.4320 C   0  0  0  0  0  0  0  0  0  0  0  0
  -25.0371  -36.7092   24.9480 C   0  0  0  0  0  0  0  0  0  0  0  0
  -26.4356  -30.7416   21.7479 C   0  0  0  0  0  0  0  0  0  0  0  0
  -24.7278  -28.6949   22.6827 C   0  0  0  0  0  0  0  0  0  0  0  0
  -24.1030  -35.5018   24.9610 C   0  0  0  0  0  0  0  0  0  0  0  0
  -29.5800  -13.8444   17.9405 C   0  0  0  0  0  0  0  0  0  0  0  0
  -24.7649  -34.3224   25.6666 C   0  0  0  0  0  0  0  0  0  0  0  0
  -28.3573  -12.9652   18.2082 C   0  0  0  0  0  0  0  0  0  0  0  0
  -25.3289  -22.2845   19.2311 C   0  0  0  0  0  0  0  0  0  0  0  0
  -26.6045  -23.2018   21.2191 C   0  0  0  0  0  0  0  0  0  0  0  0
  -25.5037  -23.6177   18.5079 C   0  0  0  0  0  0  0  0  0  0  0  0
  -26.7758  -24.5330   20.4914 C   0  0  0  0  0  0  0  0  0  0  0  0
  -27.1149  -18.8452   22.2806 C   0  0  0  0  0  0  0  0  0  0  0  0
  -28.2353  -19.3702   20.5421 C   0  0  0  0  0  0  0  0  0  0  0  0
  -30.1991  -14.3600   19.2378 C   0  0  0  0  0  0  0  0  0  0  0  0
  -28.0402  -14.1732   20.4084 C   0  0  0  0  0  0  0  0  0  0  0  0
  -26.0407  -33.8875   24.9354 C   0  0  1  0  0  0  0  0  0  0  0  0
  -25.1339  -31.1582   22.4559 C   0  0  1  0  0  0  0  0  0  0  0  0
  -27.3462  -13.6750   19.1290 C   0  0  2  0  0  0  0  0  0  0  0  0
  -28.4284  -18.3163   21.6579 C   0  0  0  0  0  0  0  0  0  0  0  0
  -26.4668  -22.0522   20.2231 C   0  0  0  0  0  0  0  0  0  0  0  0
  -27.3987  -20.1804   21.5571 C   0  0  0  0  0  0  0  0  0  0  0  0
  -25.6460  -24.7788   19.4910 C   0  0  0  0  0  0  0  0  0  1  0  0
  -17.6185  -28.8234   21.6857 C   0  0  0  0  0  0  0  0  0  0  0  0
  -23.1642  -28.4237   25.2851 C   0  0  0  0  0  0  0  0  0  0  0  0
  -20.8428  -27.6074   24.8237 C   0  0  0  0  0  0  0  0  0  0  0  0
  -21.2184  -29.9809   25.4931 C   0  0  0  0  0  0  0  0  0  0  0  0
  -19.6988  -30.2190   18.8219 C   0  0  0  0  0  0  0  0  0  0  0  0
  -21.9011  -29.2227   23.1799 C   0  0  1  0  0  0  0  0  0  0  0  0
  -18.7825  -29.5703   21.0531 C   0  0  2  0  0  0  0  0  0  0  0  0
  -21.8015  -28.8081   24.6751 C   0  0  0  0  0  0  0  0  0  0  0  0
  -26.1787  -12.0216   20.5381 N   0  0  0  0  0  0  0  0  0  0  0  0
  -26.1515  -12.7914   19.4369 N   0  0  0  0  0  0  0  0  0  0  0  0
  -24.1895  -30.0631   22.7349 N   0  0  0  0  0  0  0  0  0  0  0  0
  -29.1870  -15.0271   20.0607 N   0  0  0  0  0  0  0  0  0  0  0  0
  -24.8111  -13.3758   17.5734 N   0  0  0  0  0  0  0  0  0  0  0  0
  -22.2629  -10.3780   19.7906 N   0  0  0  0  0  0  0  0  0  0  0  0
  -25.7097  -33.1130   23.7585 N   0  0  0  0  0  0  0  0  0  0  0  0
  -20.6297  -29.6179   22.5835 N   0  0  0  0  0  0  0  0  0  0  0  0
  -28.3725  -16.9353   21.2053 N   0  0  0  0  0  0  0  0  0  0  0  0
  -26.2030  -20.7952   20.9724 N   0  3  0  0  0  0  0  0  0  0  0  0
  -18.6335  -29.5049   19.5718 N   0  3  0  0  0  0  0  0  0  0  0  0
  -22.3630  -11.7301   17.9411 O   0  0  0  0  0  0  0  0  0  0  0  0
  -25.4790  -31.0364   24.7867 O   0  0  0  0  0  0  0  0  0  0  0  0
  -22.4060  -31.5315   23.0071 O   0  0  0  0  0  0  0  0  0  0  0  0
  -20.6431  -28.0383   20.8859 O   0  0  0  0  0  0  0  0  0  0  0  0
  -30.3729  -17.0204   20.0950 O   0  0  0  0  0  0  0  0  0  0  0  0
  -23.6186   -7.7621   24.5192 O   0  0  0  0  0  0  0  0  0  0  0  0
  -25.9102  -25.9678   18.7541 O   0  0  0  0  0  0  0  0  0  1  0  0
  -19.3658   -4.3827   23.5717 F   0  0  0  0  0  0  0  0  0  0  0  0
  -23.9562   -5.0183   24.5361 F   0  0  0  0  0  0  0  0  0  0  0  0
  1  2  1  0  0  0  0
  1  5  2  0  0  0  0
  2  6  2  0  0  0  0
  3  8  2  0  0  0  0
  3 15  1  0  0  0  0
  4  9  1  0  0  0  0
  4 15  2  0  0  0  0
  5 17  1  0  0  0  0
  6 19  1  0  0  0  0
  7 10  2  0  0  0  0
  7 18  1  0  0  0  0
  8 21  1  0  0  0  0
  9 21  2  0  0  0  0
 10 22  1  0  0  0  0
 11 12  2  0  0  0  0
 11 23  1  0  0  0  0
 12 24  1  0  0  0  0
 13 20  1  0  0  0  0
 13 22  2  0  0  0  0
 14 24  2  0  0  0  0
 14 25  1  0  0  0  0
 15 26  1  0  0  0  0
 16 26  1  0  0  0  0
 16 27  2  0  0  0  0
 16 28  1  0  0  0  0
 17 19  2  0  0  0  0
 17 33  1  0  0  0  0
 18 20  2  0  0  0  0
 18 34  1  0  0  0  0
 19 48  1  0  0  0  0
 20 35  1  0  0  0  0
 21 79  1  0  0  0  0
 22 80  1  0  0  0  0
 23 25  2  0  0  0  0
 23 79  1  0  0  0  0
 24 81  1  0  0  0  0
 25 82  1  0  0  0  0
 26 63  2  0  0  0  0
 27 64  1  0  0  0  0
 27 67  1  0  0  0  0
 28 68  1  0  0  0  0
 28 74  2  0  0  0  0
 29 49  1  0  0  0  0
 29 69  1  0  0  0  0
 29 75  2  0  0  0  0
 30 60  1  0  0  0  0
 30 65  1  0  0  0  0
 30 76  2  0  0  0  0
 31 61  1  0  0  0  0
 31 70  1  0  0  0  0
 31 77  2  0  0  0  0
 32 66  1  0  0  0  0
 32 71  1  0  0  0  0
 32 78  2  0  0  0  0
 33 36  1  0  0  0  0
 34 49  1  0  0  0  0
 35 65  1  0  0  0  0
 36 38  1  0  0  0  0
 37 39  1  0  0  0  0
 37 46  1  0  0  0  0
 38 48  1  0  0  0  0
 39 50  1  0  0  0  0
 40 42  1  0  0  0  0
 40 52  1  0  0  0  0
 41 43  1  0  0  0  0
 41 52  1  0  0  0  0
 42 54  1  0  0  0  0
 43 54  1  0  0  0  0
 44 51  1  0  0  0  0
 44 53  1  0  0  0  0
 45 51  1  0  0  0  0
 45 53  1  0  0  0  0
 46 66  1  0  0  0  0
 47 50  1  0  0  0  0
 47 66  1  0  0  0  0
 48 69  1  0  0  0  0
 49 65  1  0  0  0  0
 50 64  1  0  0  0  0
 51 71  1  0  0  0  0
 52 72  1  0  0  0  0
 53 72  1  0  0  0  0
 54 80  1  0  0  0  0
 55 61  1  0  0  0  0
 56 62  1  0  0  0  0
 57 62  1  0  0  0  0
 58 62  1  0  0  0  0
 59 73  1  0  0  0  0
 60 62  1  0  0  0  0
 60 70  1  0  0  0  0
 61 73  1  0  0  0  0
 63 64  1  0  0  0  0
M  CHG  2  72   1  73   1
M  ISO  4  32 100  54 101  71 100  80 101
M  END
> <Batch ID>
0152

> <Smiles>
CNC(C)C(=O)NC(C(=O)N1Cc2cc([101O:1][101CH:1]3CCC(NC4CC([100NH:0][100C:0](=O)N5CCCC(n6nc(-c7ccc(Oc8ccc(F)cc8F)cc7)c(C(N)=O)c6N)C5)C4)CC3)ccc2CC1C(=O)NC1CCCc2ccccc21)C(C)(C)C

> <Shape>
0.295

> <Color>
0.088

> <Negative vol penalty>
0.000

$$$$

  -OEChem-04052321463D

 89 99  0     1  0  0  0  0  0999 V2000
  -27.7804  -38.0190   25.6125 C   0  0  0  0  0  0  0  0  0  0  0  0
  -28.4969  -37.0575   24.9071 C   0  0  0  0  0  0  0  0  0  0  0  0
  -26.7206   -7.9143   22.7196 C   0  0  0  0  0  0  0  0  0  0  0  0
  -25.3057   -7.3708   20.8382 C   0  0  0  0  0  0  0  0  0  0  0  0
  -26.5603  -37.6862   26.1994 C   0  0  0  0  0  0  0  0  0  0  0  0
  -27.9942  -35.7622   24.7892 C   0  0  0  0  0  0  0  0  0  0  0  0
  -27.8388  -30.2262   20.2455 C   0  0  0  0  0  0  0  0  0  0  0  0
  -28.6169  -24.0159   18.9108 C   0  0  0  0  0  0  0  0  0  0  0  0
  -26.1005   -6.9182   23.4738 C   0  0  0  0  0  0  0  0  0  0  0  0
  -24.6856   -6.3746   21.5924 C   0  0  0  0  0  0  0  0  0  0  0  0
  -28.1033  -28.8580   20.2054 C   0  0  0  0  0  0  0  0  0  0  0  0
  -28.7025  -22.6237   18.9102 C   0  0  0  0  0  0  0  0  0  0  0  0
  -22.3207   -6.1815   24.0009 C   0  0  0  0  0  0  0  0  0  0  0  0
  -20.9291   -6.1022   23.9504 C   0  0  0  0  0  0  0  0  0  0  0  0
  -25.9470  -28.4184   21.1935 C   0  0  0  0  0  0  0  0  0  0  0  0
  -28.9900  -24.0378   21.2978 C   0  0  0  0  0  0  0  0  0  0  0  0
  -21.0887   -3.8514   23.0869 C   0  0  0  0  0  0  0  0  0  0  0  0
  -26.3231   -8.1407   21.4018 C   0  0  0  0  0  0  0  0  0  0  0  0
  -28.1012   -9.0339   19.8055 C   0  0  0  0  0  0  0  0  0  0  0  0
  -26.0377  -36.3887   26.0803 C   0  0  0  0  0  0  0  0  0  0  0  0
  -26.6288  -30.7022   20.7707 C   0  0  0  0  0  0  0  0  0  0  0  0
  -26.7666  -35.4114   25.3761 C   0  0  0  0  0  0  0  0  0  0  0  0
  -25.6685  -29.7930   21.2367 C   0  0  0  0  0  0  0  0  0  0  0  0
  -28.7607  -24.7230   20.1046 C   0  0  0  0  0  0  0  0  0  0  0  0
  -29.0756  -22.6456   21.2972 C   0  0  0  0  0  0  0  0  0  0  0  0
  -25.0831   -6.1483   22.9101 C   0  0  0  0  0  0  0  0  0  0  0  0
  -27.1585  -27.9539   20.6822 C   0  0  0  0  0  0  0  0  0  0  0  0
  -28.9318  -21.9386   20.1033 C   0  0  0  0  0  0  0  0  0  0  0  0
  -23.0964   -5.0959   23.5943 C   0  0  0  0  0  0  0  0  0  0  0  0
  -20.3130   -4.9371   23.4935 C   0  0  0  0  0  0  0  0  0  0  0  0
  -22.4804   -3.9308   23.1373 C   0  0  0  0  0  0  0  0  0  0  0  0
  -26.9629   -9.1700   20.6225 C   0  0  0  0  0  0  0  0  0  0  0  0
  -28.3048  -10.2899   19.2884 C   0  0  0  0  0  0  0  0  0  0  0  0
  -28.9027   -7.8756   19.5379 C   0  0  0  0  0  0  0  0  0  0  0  0
  -25.8241  -32.5639   23.2183 C   0  0  0  0  0  0  0  0  0  0  0  0
  -22.8505  -32.2775   21.9541 C   0  0  0  0  0  0  0  0  0  0  0  0
  -20.6804  -30.4761   20.0326 C   0  0  0  0  0  0  0  0  0  0  0  0
  -28.6516  -15.6307   19.6992 C   0  0  0  0  0  0  0  0  0  0  0  0
  -24.7375  -36.0635   26.7720 C   0  0  0  0  0  0  0  0  0  0  0  0
  -26.3477  -32.1798   20.7822 C   0  0  0  0  0  0  0  0  0  0  0  0
  -24.3456  -30.2518   21.7918 C   0  0  0  0  0  0  0  0  0  0  0  0
  -24.0946  -34.7684   26.2827 C   0  0  0  0  0  0  0  0  0  0  0  0
  -25.3789  -14.4069   19.3618 C   0  0  0  0  0  0  0  0  0  0  0  0
  -25.1327  -33.6535   26.2044 C   0  0  0  0  0  0  0  0  0  0  0  0
  -31.2860  -20.6623   23.7420 C   0  0  0  0  0  0  0  0  0  0  0  0
  -31.5584  -20.6257   22.2640 C   0  0  0  0  0  0  0  0  0  0  0  0
  -25.5887  -12.9110   19.5957 C   0  0  0  0  0  0  0  0  0  0  0  0
  -28.2120  -19.0624   18.3660 C   0  0  0  0  0  0  0  0  0  0  0  0
  -27.3071  -18.9737   20.7288 C   0  0  0  0  0  0  0  0  0  0  0  0
  -26.2214  -15.2592   20.3123 C   0  0  0  0  0  0  0  0  0  0  0  0
  -29.0684  -17.8352   18.6742 C   0  0  0  0  0  0  0  0  0  0  0  0
  -28.1864  -17.7517   20.9839 C   0  0  0  0  0  0  0  0  0  0  0  0
  -27.8732  -13.4317   20.5327 C   0  0  0  0  0  0  0  0  0  0  0  0
  -26.2423  -34.0021   25.2051 C   0  0  1  0  0  0  0  0  0  0  0  0
  -25.2955  -32.5799   21.8119 C   0  0  1  0  0  0  0  0  0  0  0  0
  -30.7928  -21.7749   22.8589 C   0  0  0  0  0  0  0  0  0  0  0  0
  -27.0840  -12.5494   19.5529 C   0  0  1  0  0  0  0  0  0  0  0  0
  -27.8622  -19.8672   19.6183 C   0  0  0  0  0  0  0  0  0  0  0  0
  -18.3079  -30.4745   19.2148 C   0  0  0  0  0  0  0  0  0  0  0  0
  -21.9052  -31.3582   24.7056 C   0  0  0  0  0  0  0  0  0  0  0  0
  -19.8248  -30.4834   23.6217 C   0  0  0  0  0  0  0  0  0  0  0  0
  -20.3436  -32.9218   23.5348 C   0  0  0  0  0  0  0  0  0  0  0  0
  -21.5338  -30.6091   17.2019 C   0  0  0  0  0  0  0  0  0  0  0  0
  -28.6706  -26.2116   20.1044 C   0  0  0  0  0  0  0  0  0  1  0  0
  -29.3228  -21.9283   22.5832 C   0  0  1  0  0  0  0  0  0  0  0  0
  -21.7012  -31.3151   22.1322 C   0  0  1  0  0  0  0  0  0  0  0  0
  -19.7395  -30.8920   18.9163 C   0  0  2  0  0  0  0  0  0  0  0  0
  -20.9693  -31.5107   23.4900 C   0  0  0  0  0  0  0  0  0  0  0  0
  -26.4775  -10.4143   20.6274 N   0  0  0  0  0  0  0  0  0  0  0  0
  -27.3149  -11.0716   19.8071 N   0  0  0  0  0  0  0  0  0  0  0  0
  -24.1202  -31.7067   21.7875 N   0  0  0  0  0  0  0  0  0  0  0  0
  -27.6318  -14.8511   20.2655 N   0  0  0  0  0  0  0  0  0  0  0  0
  -28.4832  -17.0251   19.7420 N   0  0  0  0  0  0  0  0  0  0  0  0
  -29.2324  -10.7909   18.4451 N   0  0  0  0  0  0  0  0  0  0  0  0
  -28.5533   -6.6649   20.1514 N   0  0  0  0  0  0  0  0  0  0  0  0
  -25.7845  -33.7931   23.8482 N   0  0  0  0  0  0  0  0  0  0  0  0
  -20.8450  -31.4807   20.9626 N   0  0  0  0  0  0  0  0  0  0  0  0
  -20.1533  -30.2647   17.6293 N   0  3  0  0  0  0  0  0  0  0  0  0
  -29.9091   -7.9169   18.7901 O   0  0  0  0  0  0  0  0  0  0  0  0
  -26.2359  -31.5137   23.6970 O   0  0  0  0  0  0  0  0  0  0  0  0
  -22.6288  -33.4910   21.9553 O   0  0  0  0  0  0  0  0  0  0  0  0
  -21.2129  -29.3693   20.0772 O   0  0  0  0  0  0  0  0  0  0  0  0
  -29.6508  -15.1150   19.1828 O   0  0  0  0  0  0  0  0  0  0  0  0
  -24.4779   -5.1759   23.6457 O   0  0  0  0  0  0  0  0  0  0  0  0
  -29.0114  -20.5709   20.0846 O   0  0  0  0  0  0  0  0  0  0  0  0
  -27.4161  -26.6087   20.6446 O   0  0  0  0  0  0  0  0  0  1  0  0
  -18.9766   -4.8604   23.4466 F   0  0  0  0  0  0  0  0  0  0  0  0
  -23.2203   -2.8841   22.7465 F   0  0  0  0  0  0  0  0  0  0  0  0
  -28.7738  -22.5619   23.6683 F   0  0  0  0  0  0  0  0  0  0  0  0
  1  2  1  0  0  0  0
  1  5  2  0  0  0  0
  2  6  2  0  0  0  0
  3  9  2  0  0  0  0
  3 18  1  0  0  0  0
  4 10  1  0  0  0  0
  4 18  2  0  0  0  0
  5 20  1  0  0  0  0
  6 22  1  0  0  0  0
  7 11  2  0  0  0  0
  7 21  1  0  0  0  0
  8 12  2  0  0  0  0
  8 24  1  0  0  0  0
  9 26  1  0  0  0  0
 10 26  2  0  0  0  0
 11 27  1  0  0  0  0
 12 28  1  0  0  0  0
 13 14  2  0  0  0  0
 13 29  1  0  0  0  0
 14 30  1  0  0  0  0
 15 23  1  0  0  0  0
 15 27  2  0  0  0  0
 16 24  2  0  0  0  0
 16 25  1  0  0  0  0
 17 30  2  0  0  0  0
 17 31  1  0  0  0  0
 18 32  1  0  0  0  0
 19 32  1  0  0  0  0
 19 33  2  0  0  0  0
 19 34  1  0  0  0  0
 20 22  2  0  0  0  0
 20 39  1  0  0  0  0
 21 23  2  0  0  0  0
 21 40  1  0  0  0  0
 22 54  1  0  0  0  0
 23 41  1  0  0  0  0
 24 64  1  0  0  0  0
 25 28  2  0  0  0  0
 25 65  1  0  0  0  0
 26 84  1  0  0  0  0
 27 86  1  0  0  0  0
 28 85  1  0  0  0  0
 29 31  2  0  0  0  0
 29 84  1  0  0  0  0
 30 87  1  0  0  0  0
 31 88  1  0  0  0  0
 32 69  2  0  0  0  0
 33 70  1  0  0  0  0
 33 74  1  0  0  0  0
 34 75  1  0  0  0  0
 34 79  2  0  0  0  0
 35 55  1  0  0  0  0
 35 76  1  0  0  0  0
 35 80  2  0  0  0  0
 36 66  1  0  0  0  0
 36 71  1  0  0  0  0
 36 81  2  0  0  0  0
 37 67  1  0  0  0  0
 37 77  1  0  0  0  0
 37 82  2  0  0  0  0
 38 72  1  0  0  0  0
 38 73  1  0  0  0  0
 38 83  2  0  0  0  0
 39 42  1  0  0  0  0
 40 55  1  0  0  0  0
 41 71  1  0  0  0  0
 42 44  1  0  0  0  0
 43 47  1  0  0  0  0
 43 50  1  0  0  0  0
 44 54  1  0  0  0  0
 45 46  1  0  0  0  0
 45 56  1  0  0  0  0
 46 56  1  0  0  0  0
 47 57  1  0  0  0  0
 48 51  1  0  0  0  0
 48 58  1  0  0  0  0
 49 52  1  0  0  0  0
 49 58  1  0  0  0  0
 50 72  1  0  0  0  0
 51 73  1  0  0  0  0
 52 73  1  0  0  0  0
 53 57  1  0  0  0  0
 53 72  1  0  0  0  0
 54 76  1  0  0  0  0
 55 71  1  0  0  0  0
 56 65  1  0  0  0  0
 57 70  1  0  0  0  0
 58 85  1  0  0  0  0
 59 67  1  0  0  0  0
 60 68  1  0  0  0  0
 61 68  1  0  0  0  0
 62 68  1  0  0  0  0
 63 78  1  0  0  0  0
 64 86  1  0  0  0  0
 65 89  1  0  0  0  0
 66 68  1  0  0  0  0
 66 77  1  0  0  0  0
 67 78  1  0  0  0  0
 69 70  1  0  0  0  0
M  CHG  1  78   1
M  ISO  4  38 100  64 101  73 100  86 101
M  END
> <Batch ID>
0152

> <Smiles>
CNC(C)C(=O)NC(C(=O)N1Cc2cc([101O:1][101CH2:1]c3ccc(OC4CC[100N:0]([100C:0](=O)N5CCCC(n6nc(-c7ccc(Oc8ccc(F)cc8F)cc7)c(C(N)=O)c6N)C5)CC4)c(C(F)C4CC4)c3)ccc2CC1C(=O)NC1CCCc2ccccc21)C(C)(C)C

> <Shape>
0.268

> <Color>
0.065

> <Negative vol penalty>
0.000

$$$$

  -OEChem-04052321463D

 89 98  0     1  0  0  0  0  0999 V2000
  -34.8047  -33.9050   18.1910 C   0  0  0  0  0  0  0  0  0  0  0  0
  -34.1012  -32.7836   18.6188 C   0  0  0  0  0  0  0  0  0  0  0  0
  -24.6623   -9.0721   21.9562 C   0  0  0  0  0  0  0  0  0  0  0  0
  -24.3699   -8.4852   19.6308 C   0  0  0  0  0  0  0  0  0  0  0  0
  -34.6550  -35.1181   18.8617 C   0  0  0  0  0  0  0  0  0  0  0  0
  -33.2484  -32.8745   19.7183 C   0  0  0  0  0  0  0  0  0  0  0  0
  -28.8023  -30.5844   18.9229 C   0  0  0  0  0  0  0  0  0  0  0  0
  -23.4679   -8.4237   22.2700 C   0  0  0  0  0  0  0  0  0  0  0  0
  -23.1754   -7.8368   19.9447 C   0  0  0  0  0  0  0  0  0  0  0  0
  -28.7747  -29.1942   19.0255 C   0  0  0  0  0  0  0  0  0  0  0  0
  -22.4062   -5.2480   22.7396 C   0  0  0  0  0  0  0  0  0  0  0  0
  -22.3959   -4.4136   23.8573 C   0  0  0  0  0  0  0  0  0  0  0  0
  -27.8601  -29.3826   21.2497 C   0  0  0  0  0  0  0  0  0  0  0  0
  -27.2353  -23.1090   19.9845 C   0  0  0  0  0  0  0  0  0  0  0  0
  -29.6201  -22.8464   19.6994 C   0  0  0  0  0  0  0  0  0  0  0  0
  -20.6690   -5.7752   24.8578 C   0  0  0  0  0  0  0  0  0  0  0  0
  -25.1133   -9.1029   20.6365 C   0  0  0  0  0  0  0  0  0  0  0  0
  -27.6383   -9.2132   20.2902 C   0  0  0  0  0  0  0  0  0  0  0  0
  -33.7926  -35.2263   19.9640 C   0  0  0  0  0  0  0  0  0  0  0  0
  -28.3684  -31.3855   19.9889 C   0  0  0  0  0  0  0  0  0  0  0  0
  -33.0881  -34.0899   20.4052 C   0  0  0  0  0  0  0  0  0  0  0  0
  -27.8808  -30.7827   21.1571 C   0  0  0  0  0  0  0  0  0  0  0  0
  -28.6068  -25.0259   19.4542 C   0  0  0  0  0  0  0  0  0  0  0  0
  -27.3547  -24.4745   19.7261 C   0  0  0  0  0  0  0  0  0  0  0  0
  -22.7244   -7.8060   21.2643 C   0  0  0  0  0  0  0  0  0  0  0  0
  -28.3063  -28.5932   20.1902 C   0  0  0  0  0  0  0  0  0  0  0  0
  -21.5481   -6.3461   22.6810 C   0  0  0  0  0  0  0  0  0  0  0  0
  -28.3680  -22.2950   19.9712 C   0  0  0  0  0  0  0  0  0  0  0  0
  -29.7395  -24.2119   19.4409 C   0  0  0  0  0  0  0  0  0  0  0  0
  -21.5273   -4.6772   24.9164 C   0  0  0  0  0  0  0  0  0  0  0  0
  -20.6794   -6.6097   23.7401 C   0  0  0  0  0  0  0  0  0  0  0  0
  -26.3468   -9.7730   20.3116 C   0  0  0  0  0  0  0  0  0  0  0  0
  -28.4572  -10.2532   19.9239 C   0  0  0  0  0  0  0  0  0  0  0  0
  -28.0600   -7.8730   20.5760 C   0  0  0  0  0  0  0  0  0  0  0  0
  -29.7377  -33.5531   21.8679 C   0  0  0  0  0  0  0  0  0  0  0  0
  -26.7110  -33.9419   22.9681 C   0  0  0  0  0  0  0  0  0  0  0  0
  -23.5950  -32.6203   23.4050 C   0  0  0  0  0  0  0  0  0  0  0  0
  -28.1586  -15.9942   20.5071 C   0  0  0  0  0  0  0  0  0  0  0  0
  -33.6996  -36.5471   20.6861 C   0  0  0  0  0  0  0  0  0  0  0  0
  -28.3795  -32.8834   19.8522 C   0  0  0  0  0  0  0  0  0  0  0  0
  -27.3847  -31.5978   22.3224 C   0  0  0  0  0  0  0  0  0  0  0  0
  -32.4902  -36.6514   21.6117 C   0  0  0  0  0  0  0  0  0  0  0  0
  -28.4584  -14.3302   17.4308 C   0  0  0  0  0  0  0  0  0  0  0  0
  -32.3563  -35.3902   22.4592 C   0  0  0  0  0  0  0  0  0  0  0  0
  -28.0736  -12.9028   17.8192 C   0  0  0  0  0  0  0  0  0  0  0  0
  -29.8328  -19.1994   19.6879 C   0  0  0  0  0  0  0  0  0  0  0  0
  -27.4967  -19.2165   18.7122 C   0  0  0  0  0  0  0  0  0  0  0  0
  -27.5747  -15.3700   18.1219 C   0  0  0  0  0  0  0  0  0  0  0  0
  -29.3838  -18.1280   20.6803 C   0  0  0  0  0  0  0  0  0  0  0  0
  -27.1005  -18.1482   19.7287 C   0  0  0  0  0  0  0  0  0  0  0  0
  -27.1338  -13.8010   19.9820 C   0  0  0  0  0  0  0  0  0  0  0  0
  -32.1346  -34.1547   21.5785 C   0  0  1  0  0  0  0  0  0  0  0  0
  -28.3948  -33.6059   21.1957 C   0  0  1  0  0  0  0  0  0  0  0  0
  -28.0423  -12.7357   19.3488 C   0  0  1  0  0  0  0  0  0  0  0  0
  -28.6750  -20.0661   19.1916 C   0  0  0  0  0  0  0  0  0  0  0  0
  -23.8627  -25.8375   19.9662 C   0  0  0  0  0  0  0  0  0  0  0  0
  -21.3429  -33.1625   24.3700 C   0  0  0  0  0  0  0  0  0  0  0  0
  -27.8071  -33.4818   25.7783 C   0  0  0  0  0  0  0  0  0  0  0  0
  -25.4593  -33.0892   26.5543 C   0  0  0  0  0  0  0  0  0  0  0  0
  -26.1042  -35.3055   25.6083 C   0  0  0  0  0  0  0  0  0  0  0  0
  -22.2708  -32.3393   20.7732 C   0  0  0  0  0  0  0  0  0  0  0  0
  -32.0722  -23.8267   19.1840 C   0  0  0  0  0  0  0  0  0  0  0  0
  -28.7441  -26.4888   19.1724 C   0  0  0  0  0  0  0  0  0  1  0  0
  -24.8936  -24.7618   20.0190 C   0  0  0  0  0  0  0  0  0  0  0  0
  -25.8833  -33.3156   24.0643 C   0  0  1  0  0  0  0  0  0  0  0  0
  -22.2136  -33.1832   23.1234 C   0  0  2  0  0  0  0  0  0  0  0  0
  -26.3246  -33.7824   25.4803 C   0  0  0  0  0  0  0  0  0  0  0  0
  -26.3407  -11.0681   19.9849 N   0  0  0  0  0  0  0  0  0  0  0  0
  -27.6384  -11.3308   19.7550 N   0  0  0  0  0  0  0  0  0  0  0  0
  -27.4215  -33.0586   22.1429 N   0  0  0  0  0  0  0  0  0  0  0  0
  -27.5450  -15.1457   19.5734 N   0  0  0  0  0  0  0  0  0  0  0  0
  -28.2571  -17.3528   20.1621 N   0  0  0  0  0  0  0  0  0  0  0  0
  -29.7907  -10.3419   19.7331 N   0  0  0  0  0  0  0  0  0  0  0  0
  -27.0884   -6.9295   20.9370 N   0  0  0  0  0  0  0  0  0  0  0  0
  -26.1961  -25.2820   19.7449 N   0  0  0  0  0  0  0  0  0  0  0  0
  -30.7629  -34.1002   21.1202 N   0  0  0  0  0  0  0  0  0  0  0  0
  -24.4910  -33.6119   23.7444 N   0  0  0  0  0  0  0  0  0  0  0  0
  -21.5354  -32.3851   22.0631 N   0  3  0  0  0  0  0  0  0  0  0  0
  -29.2646   -7.5264   20.5289 O   0  0  0  0  0  0  0  0  0  0  0  0
  -29.8360  -33.0543   22.9829 O   0  0  0  0  0  0  0  0  0  0  0  0
  -26.7210  -35.1691   22.8439 O   0  0  0  0  0  0  0  0  0  0  0  0
  -23.8525  -31.4206   23.3348 O   0  0  0  0  0  0  0  0  0  0  0  0
  -28.5960  -15.5661   21.5825 O   0  0  0  0  0  0  0  0  0  0  0  0
  -21.5590   -7.1731   21.5703 O   0  0  0  0  0  0  0  0  0  0  0  0
  -28.2505  -20.9535   20.2239 O   0  0  0  0  0  0  0  0  0  0  0  0
  -30.9709  -24.7326   19.1766 O   0  0  0  0  0  0  0  0  0  0  0  0
  -28.2788  -27.2265   20.2940 O   0  0  0  0  0  0  0  0  0  1  0  0
  -21.5163   -3.8749   25.9890 F   0  0  0  0  0  0  0  0  0  0  0  0
  -19.8518   -7.6624   23.6890 F   0  0  0  0  0  0  0  0  0  0  0  0
  1  2  1  0  0  0  0
  1  5  2  0  0  0  0
  2  6  2  0  0  0  0
  3  8  2  0  0  0  0
  3 17  1  0  0  0  0
  4  9  1  0  0  0  0
  4 17  2  0  0  0  0
  5 19  1  0  0  0  0
  6 21  1  0  0  0  0
  7 10  2  0  0  0  0
  7 20  1  0  0  0  0
  8 25  1  0  0  0  0
  9 25  2  0  0  0  0
 10 26  1  0  0  0  0
 11 12  2  0  0  0  0
 11 27  1  0  0  0  0
 12 30  1  0  0  0  0
 13 22  1  0  0  0  0
 13 26  2  0  0  0  0
 14 24  1  0  0  0  0
 14 28  2  0  0  0  0
 15 28  1  0  0  0  0
 15 29  2  0  0  0  0
 16 30  2  0  0  0  0
 16 31  1  0  0  0  0
 17 32  1  0  0  0  0
 18 32  1  0  0  0  0
 18 33  2  0  0  0  0
 18 34  1  0  0  0  0
 19 21  2  0  0  0  0
 19 39  1  0  0  0  0
 20 22  2  0  0  0  0
 20 40  1  0  0  0  0
 21 52  1  0  0  0  0
 22 41  1  0  0  0  0
 23 24  2  0  0  0  0
 23 29  1  0  0  0  0
 23 63  1  0  0  0  0
 24 75  1  0  0  0  0
 25 84  1  0  0  0  0
 26 87  1  0  0  0  0
 27 31  2  0  0  0  0
 27 84  1  0  0  0  0
 28 85  1  0  0  0  0
 29 86  1  0  0  0  0
 30 88  1  0  0  0  0
 31 89  1  0  0  0  0
 32 68  2  0  0  0  0
 33 69  1  0  0  0  0
 33 73  1  0  0  0  0
 34 74  1  0  0  0  0
 34 79  2  0  0  0  0
 35 53  1  0  0  0  0
 35 76  1  0  0  0  0
 35 80  2  0  0  0  0
 36 65  1  0  0  0  0
 36 70  1  0  0  0  0
 36 81  2  0  0  0  0
 37 66  1  0  0  0  0
 37 77  1  0  0  0  0
 37 82  2  0  0  0  0
 38 71  1  0  0  0  0
 38 72  1  0  0  0  0
 38 83  2  0  0  0  0
 39 42  1  0  0  0  0
 40 53  1  0  0  0  0
 41 70  1  0  0  0  0
 42 44  1  0  0  0  0
 43 45  1  0  0  0  0
 43 48  1  0  0  0  0
 44 52  1  0  0  0  0
 45 54  1  0  0  0  0
 46 49  1  0  0  0  0
 46 55  1  0  0  0  0
 47 50  1  0  0  0  0
 47 55  1  0  0  0  0
 48 71  1  0  0  0  0
 49 72  1  0  0  0  0
 50 72  1  0  0  0  0
 51 54  1  0  0  0  0
 51 71  1  0  0  0  0
 52 76  1  0  0  0  0
 53 70  1  0  0  0  0
 54 69  1  0  0  0  0
 55 85  1  0  0  0  0
 56 64  1  0  0  0  0
 57 66  1  0  0  0  0
 58 67  1  0  0  0  0
 59 67  1  0  0  0  0
 60 67  1  0  0  0  0
 61 78  1  0  0  0  0
 62 86  1  0  0  0  0
 63 87  1  0  0  0  0
 64 75  1  0  0  0  0
 65 67  1  0  0  0  0
 65 77  1  0  0  0  0
 66 78  1  0  0  0  0
 68 69  1  0  0  0  0
M  CHG  1  78   1
M  ISO  4  38 100  63 101  72 100  87 101
M  END
> <Batch ID>
0152

> <Smiles>
CCNc1cc(OC2CC[100N:0]([100C:0](=O)N3CCCC(n4nc(-c5ccc(Oc6ccc(F)cc6F)cc5)c(C(N)=O)c4N)C3)CC2)cc(OC)c1[101CH2:1][101O:1]c1ccc2c(c1)CN(C(=O)C(NC(=O)C(C)NC)C(C)(C)C)C(C(=O)NC1CCCc3ccccc31)C2

> <Shape>
0.252

> <Color>
0.108

> <Negative vol penalty>
0.000

$$$$

  -OEChem-04052321463D

 89 99  0     1  0  0  0  0  0999 V2000
  -27.1422  -37.9243   22.5393 C   0  0  0  0  0  0  0  0  0  0  0  0
  -27.6194  -36.9742   21.6421 C   0  0  0  0  0  0  0  0  0  0  0  0
  -27.7034   -7.3918   22.1404 C   0  0  0  0  0  0  0  0  0  0  0  0
  -27.9058   -6.5808   19.8736 C   0  0  0  0  0  0  0  0  0  0  0  0
  -26.5654  -37.5180   23.7418 C   0  0  0  0  0  0  0  0  0  0  0  0
  -27.5211  -35.6171   21.9475 C   0  0  0  0  0  0  0  0  0  0  0  0
  -26.5800  -29.2437   18.8155 C   0  0  0  0  0  0  0  0  0  0  0  0
  -26.8435   -6.3357   22.4415 C   0  0  0  0  0  0  0  0  0  0  0  0
  -27.0458   -5.5246   20.1747 C   0  0  0  0  0  0  0  0  0  0  0  0
  -27.1590  -27.9768   18.7560 C   0  0  0  0  0  0  0  0  0  0  0  0
  -23.5909   -5.5560   21.9541 C   0  0  0  0  0  0  0  0  0  0  0  0
  -22.4342   -5.8488   22.6764 C   0  0  0  0  0  0  0  0  0  0  0  0
  -26.0717  -27.3893   20.8277 C   0  0  0  0  0  0  0  0  0  0  0  0
  -23.1507   -4.3505   24.4311 C   0  0  0  0  0  0  0  0  0  0  0  0
  -28.2345   -7.5144   20.8564 C   0  0  0  0  0  0  0  0  0  0  0  0
  -30.5250   -8.6209   20.6641 C   0  0  0  0  0  0  0  0  0  0  0  0
  -26.4512  -36.1551   24.0578 C   0  0  0  0  0  0  0  0  0  0  0  0
  -25.7498  -29.5972   19.8889 C   0  0  0  0  0  0  0  0  0  0  0  0
  -26.9434  -35.1923   23.1560 C   0  0  0  0  0  0  0  0  0  0  0  0
  -25.4813  -28.6604   20.8971 C   0  0  0  0  0  0  0  0  0  0  0  0
  -26.5147   -5.4021   21.4587 C   0  0  0  0  0  0  0  0  0  0  0  0
  -26.9072  -27.0504   19.7637 C   0  0  0  0  0  0  0  0  0  0  0  0
  -24.5275   -4.6603   22.4702 C   0  0  0  0  0  0  0  0  0  0  0  0
  -22.2141   -5.2461   23.9150 C   0  0  0  0  0  0  0  0  0  0  0  0
  -24.3074   -4.0576   23.7087 C   0  0  0  0  0  0  0  0  0  0  0  0
  -29.1224   -8.6055   20.5446 C   0  0  0  0  0  0  0  0  0  0  0  0
  -27.4976  -22.7135   19.6293 C   0  0  0  0  0  0  0  0  0  0  0  0
  -27.9029  -23.6314   20.5731 C   0  0  0  0  0  0  0  0  0  0  0  0
  -29.6311  -22.2570   21.1678 C   0  0  0  0  0  0  0  0  0  0  0  0
  -29.2255  -21.3386   20.2246 C   0  0  0  0  0  0  0  0  0  0  0  0
  -30.8914   -9.8770   20.2465 C   0  0  0  0  0  0  0  0  0  0  0  0
  -31.4169   -7.5917   21.1124 C   0  0  0  0  0  0  0  0  0  0  0  0
  -25.8612  -31.7966   22.1811 C   0  0  0  0  0  0  0  0  0  0  0  0
  -22.8922  -30.6794   22.8589 C   0  0  0  0  0  0  0  0  0  0  0  0
  -20.6524  -28.1108   22.6795 C   0  0  0  0  0  0  0  0  0  0  0  0
  -30.3669  -15.2178   20.1269 C   0  0  0  0  0  0  0  0  0  0  0  0
  -25.8630  -35.7658   25.3909 C   0  0  0  0  0  0  0  0  0  0  0  0
  -25.1115  -30.9587   19.9246 C   0  0  0  0  0  0  0  0  0  0  0  0
  -24.5810  -28.9836   22.0605 C   0  0  0  0  0  0  0  0  0  0  0  0
  -25.4572  -34.2964   25.4719 C   0  0  0  0  0  0  0  0  0  0  0  0
  -28.2317  -13.4968   17.9358 C   0  0  0  0  0  0  0  0  0  0  0  0
  -26.5652  -33.4053   24.9194 C   0  0  0  0  0  0  0  0  0  0  0  0
  -23.8471  -22.0745   18.5157 C   0  0  0  0  0  0  0  0  0  0  0  0
  -24.6250  -20.9936   19.2130 C   0  0  0  0  0  0  0  0  0  0  0  0
  -28.3845  -12.0586   18.4304 C   0  0  0  0  0  0  0  0  0  0  0  0
  -30.5638  -18.4994   18.4125 C   0  0  0  0  0  0  0  0  0  0  0  0
  -28.3583  -18.3447   19.6459 C   0  0  0  0  0  0  0  0  0  0  0  0
  -28.1696  -14.4967   19.0917 C   0  0  0  0  0  0  0  0  0  0  0  0
  -31.1309  -17.4280   19.3425 C   0  0  0  0  0  0  0  0  0  0  0  0
  -28.9766  -17.2803   20.5495 C   0  0  0  0  0  0  0  0  0  0  0  0
  -29.4532  -12.9518   20.5347 C   0  0  0  0  0  0  0  0  0  0  0  0
  -26.8323  -33.7101   23.4405 C   0  0  1  0  0  0  0  0  0  0  0  0
  -24.6941  -31.3864   21.3282 C   0  0  1  0  0  0  0  0  0  0  0  0
  -25.0176  -22.4345   19.3881 C   0  0  0  0  0  0  0  0  0  0  0  0
  -29.5775  -11.9295   19.3942 C   0  0  1  0  0  0  0  0  0  0  0  0
  -29.4100  -19.2786   19.0446 C   0  0  0  0  0  0  0  0  0  0  0  0
  -30.8239  -22.0079   22.0257 C   0  0  0  0  0  0  0  0  0  0  0  0
  -18.3195  -27.4806   23.3561 C   0  0  0  0  0  0  0  0  0  0  0  0
  -23.8386  -30.2685   25.7304 C   0  0  0  0  0  0  0  0  0  0  0  0
  -21.8478  -28.7965   26.1021 C   0  0  0  0  0  0  0  0  0  0  0  0
  -21.5276  -31.2002   25.5169 C   0  0  0  0  0  0  0  0  0  0  0  0
  -19.8135  -27.7355   19.8663 C   0  0  0  0  0  0  0  0  0  0  0  0
  -26.3087  -22.9603   18.7652 C   0  0  0  0  0  0  0  0  0  0  0  0
  -27.1709  -24.9139   20.7745 C   0  0  0  0  0  0  0  0  0  1  0  0
  -22.3361  -29.5898   23.7435 C   0  0  1  0  0  0  0  0  0  0  0  0
  -19.1934  -28.0739   22.2620 C   0  0  2  0  0  0  0  0  0  0  0  0
  -22.4061  -29.9580   25.2524 C   0  0  0  0  0  0  0  0  0  0  0  0
  -28.6312   -9.7603   20.0870 N   0  0  0  0  0  0  0  0  0  0  0  0
  -28.9770  -23.4196   21.3592 N   0  0  0  0  0  0  0  0  0  0  0  0
  -28.1516  -21.5506   19.4382 N   0  0  0  0  0  0  0  0  0  0  0  0
  -29.7312  -10.5130   19.9155 N   0  0  0  0  0  0  0  0  0  0  0  0
  -23.9856  -30.3300   22.0537 N   0  0  0  0  0  0  0  0  0  0  0  0
  -29.3055  -14.3086   20.0041 N   0  0  0  0  0  0  0  0  0  0  0  0
  -30.0760  -16.5705   19.8818 N   0  0  0  0  0  0  0  0  0  0  0  0
  -32.0897  -10.4885   20.1339 N   0  0  0  0  0  0  0  0  0  0  0  0
  -30.8734   -6.3610   21.5050 N   0  0  0  0  0  0  0  0  0  0  0  0
  -25.8117  -33.1098   22.6083 N   0  0  0  0  0  0  0  0  0  0  0  0
  -20.9881  -29.3172   23.2568 N   0  0  0  0  0  0  0  0  0  0  0  0
  -19.0277  -27.2514   21.0303 N   0  3  0  0  0  0  0  0  0  0  0  0
  -32.6576   -7.7642   21.1789 O   0  0  0  0  0  0  0  0  0  0  0  0
  -26.7407  -30.9816   22.4340 O   0  0  0  0  0  0  0  0  0  0  0  0
  -22.3711  -31.7973   22.8763 O   0  0  0  0  0  0  0  0  0  0  0  0
  -21.4168  -27.1628   22.5137 O   0  0  0  0  0  0  0  0  0  0  0  0
  -31.5067  -14.8460   20.4332 O   0  0  0  0  0  0  0  0  0  0  0  0
  -25.6758   -4.3712   21.7522 O   0  0  0  0  0  0  0  0  0  0  0  0
  -27.4755  -25.8050   19.7081 O   0  0  0  0  0  0  0  0  0  1  0  0
  -29.9077  -20.1642   20.0453 O   0  0  0  0  0  0  0  0  0  0  0  0
  -21.1040   -5.5286   24.6092 F   0  0  0  0  0  0  0  0  0  0  0  0
  -25.2041   -3.1973   24.2102 F   0  0  0  0  0  0  0  0  0  0  0  0
  1  2  1  0  0  0  0
  1  5  2  0  0  0  0
  2  6  2  0  0  0  0
  3  8  2  0  0  0  0
  3 15  1  0  0  0  0
  4  9  1  0  0  0  0
  4 15  2  0  0  0  0
  5 17  1  0  0  0  0
  6 19  1  0  0  0  0
  7 10  2  0  0  0  0
  7 18  1  0  0  0  0
  8 21  1  0  0  0  0
  9 21  2  0  0  0  0
 10 22  1  0  0  0  0
 11 12  2  0  0  0  0
 11 23  1  0  0  0  0
 12 24  1  0  0  0  0
 13 20  1  0  0  0  0
 13 22  2  0  0  0  0
 14 24  2  0  0  0  0
 14 25  1  0  0  0  0
 15 26  1  0  0  0  0
 16 26  1  0  0  0  0
 16 31  2  0  0  0  0
 16 32  1  0  0  0  0
 17 19  2  0  0  0  0
 17 37  1  0  0  0  0
 18 20  2  0  0  0  0
 18 38  1  0  0  0  0
 19 52  1  0  0  0  0
 20 39  1  0  0  0  0
 21 85  1  0  0  0  0
 22 86  1  0  0  0  0
 23 25  2  0  0  0  0
 23 85  1  0  0  0  0
 24 88  1  0  0  0  0
 25 89  1  0  0  0  0
 26 68  2  0  0  0  0
 27 28  2  0  0  0  0
 27 63  1  0  0  0  0
 27 70  1  0  0  0  0
 28 64  1  0  0  0  0
 28 69  1  0  0  0  0
 29 30  1  0  0  0  0
 29 57  1  0  0  0  0
 29 69  2  0  0  0  0
 30 70  2  0  0  0  0
 30 87  1  0  0  0  0
 31 71  1  0  0  0  0
 31 75  1  0  0  0  0
 32 76  1  0  0  0  0
 32 80  2  0  0  0  0
 33 53  1  0  0  0  0
 33 77  1  0  0  0  0
 33 81  2  0  0  0  0
 34 65  1  0  0  0  0
 34 72  1  0  0  0  0
 34 82  2  0  0  0  0
 35 66  1  0  0  0  0
 35 78  1  0  0  0  0
 35 83  2  0  0  0  0
 36 73  1  0  0  0  0
 36 74  1  0  0  0  0
 36 84  2  0  0  0  0
 37 40  1  0  0  0  0
 38 53  1  0  0  0  0
 39 72  1  0  0  0  0
 40 42  1  0  0  0  0
 41 45  1  0  0  0  0
 41 48  1  0  0  0  0
 42 52  1  0  0  0  0
 43 44  1  0  0  0  0
 43 54  1  0  0  0  0
 44 54  1  0  0  0  0
 45 55  1  0  0  0  0
 46 49  1  0  0  0  0
 46 56  1  0  0  0  0
 47 50  1  0  0  0  0
 47 56  1  0  0  0  0
 48 73  1  0  0  0  0
 49 74  1  0  0  0  0
 50 74  1  0  0  0  0
 51 55  1  0  0  0  0
 51 73  1  0  0  0  0
 52 77  1  0  0  0  0
 53 72  1  0  0  0  0
 54 63  1  0  0  0  0
 55 71  1  0  0  0  0
 56 87  1  0  0  0  0
 58 66  1  0  0  0  0
 59 67  1  0  0  0  0
 60 67  1  0  0  0  0
 61 67  1  0  0  0  0
 62 79  1  0  0  0  0
 64 86  1  0  0  0  0
 65 67  1  0  0  0  0
 65 78  1  0  0  0  0
 66 79  1  0  0  0  0
 68 71  1  0  0  0  0
M  CHG  1  79   1
M  ISO  4  36 100  64 101  74 100  86 101
M  END
> <Batch ID>
0152

> <Smiles>
CNC(C)C(=O)NC(C(=O)N1Cc2cc([101O:1][101CH2:1]c3nc(C)c(OC4CC[100N:0]([100C:0](=O)N5CCCC(n6nc(-c7ccc(Oc8ccc(F)cc8F)cc7)c(C(N)=O)c6N)C5)CC4)nc3CC3CC3)ccc2CC1C(=O)NC1CCCc2ccccc21)C(C)(C)C

> <Shape>
0.292

> <Color>
0.091

> <Negative vol penalty>
0.000

$$$$

  -OEChem-04052321463D

 90 99  0     1  0  0  0  0  0999 V2000
  -28.5341  -34.4437   28.8461 C   0  0  0  0  0  0  0  0  0  0  0  0
  -28.4906  -33.4015   27.9255 C   0  0  0  0  0  0  0  0  0  0  0  0
  -23.8658   -9.4093   21.7241 C   0  0  0  0  0  0  0  0  0  0  0  0
  -24.3248  -10.7317   23.6933 C   0  0  0  0  0  0  0  0  0  0  0  0
  -27.5239  -35.4046   28.8577 C   0  0  0  0  0  0  0  0  0  0  0  0
  -27.4362  -33.3190   27.0167 C   0  0  0  0  0  0  0  0  0  0  0  0
  -29.0003  -32.2663   22.3167 C   0  0  0  0  0  0  0  0  0  0  0  0
  -23.3680   -8.3843   22.5285 C   0  0  0  0  0  0  0  0  0  0  0  0
  -23.8269   -9.7067   24.4977 C   0  0  0  0  0  0  0  0  0  0  0  0
  -29.3342  -30.9416   22.0385 C   0  0  0  0  0  0  0  0  0  0  0  0
  -20.5134   -7.6968   24.2053 C   0  0  0  0  0  0  0  0  0  0  0  0
  -19.3162   -7.0936   23.8198 C   0  0  0  0  0  0  0  0  0  0  0  0
  -27.1819  -30.6243   20.9963 C   0  0  0  0  0  0  0  0  0  0  0  0
  -29.5621  -25.9117   21.8082 C   0  0  0  0  0  0  0  0  0  0  0  0
  -31.0325  -26.6014   20.0196 C   0  0  0  0  0  0  0  0  0  0  0  0
  -28.4505  -20.3599   19.8351 C   0  0  0  0  0  0  0  0  0  0  0  0
  -20.4424   -4.9623   23.6577 C   0  0  0  0  0  0  0  0  0  0  0  0
  -24.3442  -10.5830   22.3065 C   0  0  0  0  0  0  0  0  0  0  0  0
  -24.1367  -12.7164   20.9233 C   0  0  0  0  0  0  0  0  0  0  0  0
  -26.4617  -35.3393   27.9422 C   0  0  0  0  0  0  0  0  0  0  0  0
  -27.7484  -32.7777   21.9459 C   0  0  0  0  0  0  0  0  0  0  0  0
  -26.4101  -34.2792   27.0170 C   0  0  0  0  0  0  0  0  0  0  0  0
  -26.8355  -31.9566   21.2687 C   0  0  0  0  0  0  0  0  0  0  0  0
  -30.2223  -26.9219   21.1089 C   0  0  0  0  0  0  0  0  0  0  0  0
  -29.7121  -24.5808   21.4183 C   0  0  0  0  0  0  0  0  0  0  0  0
  -31.1825  -25.2705   19.6297 C   0  0  0  0  0  0  0  0  0  0  0  0
  -29.6354  -20.8186   19.2704 C   0  0  0  0  0  0  0  0  0  0  0  0
  -28.2917  -19.0040   20.0986 C   0  0  0  0  0  0  0  0  0  0  0  0
  -30.5222  -24.2602   20.3291 C   0  0  0  0  0  0  0  0  0  0  0  0
  -23.3485   -8.5329   23.9153 C   0  0  0  0  0  0  0  0  0  0  0  0
  -28.4239  -30.1195   21.3808 C   0  0  0  0  0  0  0  0  0  0  0  0
  -21.6751   -6.9328   24.3169 C   0  0  0  0  0  0  0  0  0  0  0  0
  -19.2807   -5.7263   23.5460 C   0  0  0  0  0  0  0  0  0  0  0  0
  -21.6396   -5.5655   24.0432 C   0  0  0  0  0  0  0  0  0  0  0  0
  -24.8591  -11.6421   21.4761 C   0  0  0  0  0  0  0  0  0  0  0  0
  -30.6231  -19.8881   18.9902 C   0  0  0  0  0  0  0  0  0  0  0  0
  -29.3394  -18.1547   19.7812 C   0  0  0  0  0  0  0  0  0  0  0  0
  -25.0737  -13.4359   20.2227 C   0  0  0  0  0  0  0  0  0  0  0  0
  -22.7432  -13.0356   21.0332 C   0  0  0  0  0  0  0  0  0  0  0  0
  -25.2603  -33.9778   23.5184 C   0  0  0  0  0  0  0  0  0  0  0  0
  -24.1609  -34.5884   20.5283 C   0  0  0  0  0  0  0  0  0  0  0  0
  -24.2241  -33.8169   17.2045 C   0  0  0  0  0  0  0  0  0  0  0  0
  -30.1168  -15.7586   19.8039 C   0  0  0  0  0  0  0  0  0  0  0  0
  -25.3680  -36.3746   28.0242 C   0  0  0  0  0  0  0  0  0  0  0  0
  -27.4138  -34.2165   22.2295 C   0  0  0  0  0  0  0  0  0  0  0  0
  -25.4862  -32.4631   20.8313 C   0  0  0  0  0  0  0  0  0  0  0  0
  -24.4826  -36.4249   26.7817 C   0  0  0  0  0  0  0  0  0  0  0  0
  -29.8506  -12.3026   18.9900 C   0  0  0  0  0  0  0  0  0  0  0  0
  -24.0709  -35.0173   26.3622 C   0  0  0  0  0  0  0  0  0  0  0  0
  -28.4688  -11.9110   19.5188 C   0  0  0  0  0  0  0  0  0  0  0  0
  -30.5423  -13.3124   19.9041 C   0  0  0  0  0  0  0  0  0  0  0  0
  -28.3714  -14.1196   20.7434 C   0  0  0  0  0  0  0  0  0  0  0  0
  -25.2959  -34.1694   25.9989 C   0  0  1  0  0  0  0  0  0  0  0  0
  -25.9125  -34.4853   22.2635 C   0  0  1  0  0  0  0  0  0  0  0  0
  -27.6087  -13.1535   19.8223 C   0  0  2  0  0  0  0  0  0  0  0  0
  -28.9933  -23.5205   22.1879 C   0  0  0  0  0  0  0  0  0  0  0  0
  -32.0572  -24.9573   18.4593 C   0  0  0  0  0  0  0  0  0  0  0  0
  -27.0189  -18.5155   20.7024 C   0  0  0  0  0  0  0  0  0  0  0  0
  -31.9174  -20.3237   18.3854 C   0  0  0  0  0  0  0  0  0  0  0  0
  -23.1886  -34.4637   15.0121 C   0  0  0  0  0  0  0  0  0  0  0  0
  -21.6082  -33.1054   21.2992 C   0  0  0  0  0  0  0  0  0  0  0  0
  -21.0442  -32.9535   18.8647 C   0  0  0  0  0  0  0  0  0  0  0  0
  -21.2422  -35.1857   19.9604 C   0  0  0  0  0  0  0  0  0  0  0  0
  -26.8420  -34.5974   16.0660 C   0  0  0  0  0  0  0  0  0  0  0  0
  -29.8137  -22.2816   18.9842 C   0  0  0  0  0  0  0  0  0  0  0  0
  -30.0601  -28.3534   21.5284 C   0  0  0  0  0  0  0  0  0  1  0  0
  -23.3313  -33.8320   19.5191 C   0  0  1  0  0  0  0  0  0  0  0  0
  -24.3479  -34.6912   15.9697 C   0  0  2  0  0  0  0  0  0  0  0  0
  -21.8311  -33.7587   19.9207 C   0  0  0  0  0  0  0  0  0  0  0  0
  -26.1551  -11.6723   21.1544 N   0  0  0  0  0  0  0  0  0  0  0  0
  -30.5052  -18.5633   19.2319 N   0  0  0  0  0  0  0  0  0  0  0  0
  -26.2544  -12.7743   20.3917 N   0  0  0  0  0  0  0  0  0  0  0  0
  -25.2033  -33.8752   21.1370 N   0  0  0  0  0  0  0  0  0  0  0  0
  -29.6700  -14.4641   20.1438 N   0  0  0  0  0  0  0  0  0  0  0  0
  -24.9947  -14.5635   19.4847 N   0  0  0  0  0  0  0  0  0  0  0  0
  -21.9220  -12.1901   21.7915 N   0  0  0  0  0  0  0  0  0  0  0  0
  -30.6746  -22.9111   19.9342 N   0  0  0  0  0  0  0  0  0  0  0  0
  -29.1892  -16.7710   20.0468 N   0  0  0  0  0  0  0  0  0  0  0  0
  -25.7787  -34.5180   24.6799 N   0  0  0  0  0  0  0  0  0  0  0  0
  -23.5744  -34.4706   18.2301 N   0  0  0  0  0  0  0  0  0  0  0  0
  -25.6180  -34.3932   15.2493 N   0  3  0  0  0  0  0  0  0  0  0  0
  -22.2381  -14.0316   20.4620 O   0  0  0  0  0  0  0  0  0  0  0  0
  -24.3529  -33.1581   23.4388 O   0  0  0  0  0  0  0  0  0  0  0  0
  -23.8984  -35.7707   20.7625 O   0  0  0  0  0  0  0  0  0  0  0  0
  -24.6570  -32.6676   17.2531 O   0  0  0  0  0  0  0  0  0  0  0  0
  -31.2293  -15.9514   19.3067 O   0  0  0  0  0  0  0  0  0  0  0  0
  -22.8626   -7.5330   24.7005 O   0  0  0  0  0  0  0  0  0  0  0  0
  -28.7470  -28.8259   21.1086 O   0  0  0  0  0  0  0  0  0  1  0  0
  -18.1307   -5.1469   23.1774 F   0  0  0  0  0  0  0  0  0  0  0  0
  -22.7521   -4.8261   24.1499 F   0  0  0  0  0  0  0  0  0  0  0  0
  1  2  1  0  0  0  0
  1  5  2  0  0  0  0
  2  6  2  0  0  0  0
  3  8  2  0  0  0  0
  3 18  1  0  0  0  0
  4  9  1  0  0  0  0
  4 18  2  0  0  0  0
  5 20  1  0  0  0  0
  6 22  1  0  0  0  0
  7 10  2  0  0  0  0
  7 21  1  0  0  0  0
  8 30  1  0  0  0  0
  9 30  2  0  0  0  0
 10 31  1  0  0  0  0
 11 12  2  0  0  0  0
 11 32  1  0  0  0  0
 12 33  1  0  0  0  0
 13 23  1  0  0  0  0
 13 31  2  0  0  0  0
 14 24  1  0  0  0  0
 14 25  2  0  0  0  0
 15 24  2  0  0  0  0
 15 26  1  0  0  0  0
 16 27  1  0  0  0  0
 16 28  2  0  0  0  0
 17 33  2  0  0  0  0
 17 34  1  0  0  0  0
 18 35  1  0  0  0  0
 19 35  1  0  0  0  0
 19 38  2  0  0  0  0
 19 39  1  0  0  0  0
 20 22  2  0  0  0  0
 20 44  1  0  0  0  0
 21 23  2  0  0  0  0
 21 45  1  0  0  0  0
 22 53  1  0  0  0  0
 23 46  1  0  0  0  0
 24 66  1  0  0  0  0
 25 29  1  0  0  0  0
 25 56  1  0  0  0  0
 26 29  2  0  0  0  0
 26 57  1  0  0  0  0
 27 36  2  0  0  0  0
 27 65  1  0  0  0  0
 28 37  1  0  0  0  0
 28 58  1  0  0  0  0
 29 77  1  0  0  0  0
 30 87  1  0  0  0  0
 31 88  1  0  0  0  0
 32 34  2  0  0  0  0
 32 87  1  0  0  0  0
 33 89  1  0  0  0  0
 34 90  1  0  0  0  0
 35 70  2  0  0  0  0
 36 59  1  0  0  0  0
 36 71  1  0  0  0  0
 37 71  2  0  0  0  0
 37 78  1  0  0  0  0
 38 72  1  0  0  0  0
 38 75  1  0  0  0  0
 39 76  1  0  0  0  0
 39 82  2  0  0  0  0
 40 54  1  0  0  0  0
 40 79  1  0  0  0  0
 40 83  2  0  0  0  0
 41 67  1  0  0  0  0
 41 73  1  0  0  0  0
 41 84  2  0  0  0  0
 42 68  1  0  0  0  0
 42 80  1  0  0  0  0
 42 85  2  0  0  0  0
 43 74  1  0  0  0  0
 43 78  1  0  0  0  0
 43 86  2  0  0  0  0
 44 47  1  0  0  0  0
 45 54  1  0  0  0  0
 46 73  1  0  0  0  0
 47 49  1  0  0  0  0
 48 50  1  0  0  0  0
 48 51  1  0  0  0  0
 49 53  1  0  0  0  0
 50 55  1  0  0  0  0
 51 74  1  0  0  0  0
 52 55  1  0  0  0  0
 52 74  1  0  0  0  0
 53 79  1  0  0  0  0
 54 73  1  0  0  0  0
 55 72  1  0  0  0  0
 60 68  1  0  0  0  0
 61 69  1  0  0  0  0
 62 69  1  0  0  0  0
 63 69  1  0  0  0  0
 64 81  1  0  0  0  0
 65 77  1  0  0  0  0
 66 88  1  0  0  0  0
 67 69  1  0  0  0  0
 67 80  1  0  0  0  0
 68 81  1  0  0  0  0
 70 72  1  0  0  0  0
M  CHG  1  81   1
M  ISO  4  43 100  66 101  78 100  88 101
M  END
> <Batch ID>
0152

> <Smiles>
CNC(C)C(=O)NC(C(=O)N1Cc2cc([101O:1][101CH2:1]c3cc(C)c(NCc4cc(C)c([100NH:0][100C:0](=O)N5CCCC(n6nc(-c7ccc(Oc8ccc(F)cc8F)cc7)c(C(N)=O)c6N)C5)nc4C)c(C)c3)ccc2CC1C(=O)NC1CCCc2ccccc21)C(C)(C)C

> <Shape>
0.264

> <Color>
0.104

> <Negative vol penalty>
0.000

$$$$

  -OEChem-04052321463D

 89 98  0     1  0  0  0  0  0999 V2000
  -28.9346  -32.4105   26.5073 C   0  0  0  0  0  0  0  0  0  0  0  0
  -28.6581  -31.2155   25.8508 C   0  0  0  0  0  0  0  0  0  0  0  0
  -25.8841   -9.8177   23.1690 C   0  0  0  0  0  0  0  0  0  0  0  0
  -25.5114   -8.1864   21.4264 C   0  0  0  0  0  0  0  0  0  0  0  0
  -27.9166  -33.3389   26.7209 C   0  0  0  0  0  0  0  0  0  0  0  0
  -27.3630  -30.9478   25.4085 C   0  0  0  0  0  0  0  0  0  0  0  0
  -27.2651  -29.0724   20.7055 C   0  0  0  0  0  0  0  0  0  0  0  0
  -25.2306   -8.9910   24.0828 C   0  0  0  0  0  0  0  0  0  0  0  0
  -24.8579   -7.3596   22.3402 C   0  0  0  0  0  0  0  0  0  0  0  0
  -27.5888  -27.7252   20.5504 C   0  0  0  0  0  0  0  0  0  0  0  0
  -22.7756   -4.9786   24.1304 C   0  0  0  0  0  0  0  0  0  0  0  0
  -21.5785   -4.3865   23.7281 C   0  0  0  0  0  0  0  0  0  0  0  0
  -28.0913  -21.6637   18.7083 C   0  0  0  0  0  0  0  0  0  0  0  0
  -25.2420  -27.1827   20.4189 C   0  0  0  0  0  0  0  0  0  0  0  0
  -29.0709  -22.8888   21.0153 C   0  0  0  0  0  0  0  0  0  0  0  0
  -20.6112   -6.5739   23.3868 C   0  0  0  0  0  0  0  0  0  0  0  0
  -26.0245   -9.4154   21.8408 C   0  0  0  0  0  0  0  0  0  0  0  0
  -28.0733  -10.2808   20.5913 C   0  0  0  0  0  0  0  0  0  0  0  0
  -26.6105  -33.0867   26.2724 C   0  0  0  0  0  0  0  0  0  0  0  0
  -25.9248  -29.4842   20.7294 C   0  0  0  0  0  0  0  0  0  0  0  0
  -26.3263  -31.8732   25.6175 C   0  0  0  0  0  0  0  0  0  0  0  0
  -28.7352  -20.9015   19.6830 C   0  0  0  0  0  0  0  0  0  0  0  0
  -24.9040  -28.5360   20.5718 C   0  0  0  0  0  0  0  0  0  0  0  0
  -27.9373  -23.0385   18.8870 C   0  0  0  0  0  0  0  0  0  0  0  0
  -29.2249  -21.5140   20.8365 C   0  0  0  0  0  0  0  0  0  0  0  0
  -28.4270  -23.6510   20.0405 C   0  0  0  0  0  0  0  0  0  0  0  0
  -24.7175   -7.7619   23.6684 C   0  0  0  0  0  0  0  0  0  0  0  0
  -26.5771  -26.7798   20.4099 C   0  0  0  0  0  0  0  0  0  0  0  0
  -22.8905   -6.3684   24.1609 C   0  0  0  0  0  0  0  0  0  0  0  0
  -20.4963   -5.1841   23.3563 C   0  0  0  0  0  0  0  0  0  0  0  0
  -21.8083   -7.1661   23.7891 C   0  0  0  0  0  0  0  0  0  0  0  0
  -26.6990  -10.2693   20.8963 C   0  0  0  0  0  0  0  0  0  0  0  0
  -28.2059  -11.2640   19.6414 C   0  0  0  0  0  0  0  0  0  0  0  0
  -29.1350   -9.4749   21.1193 C   0  0  0  0  0  0  0  0  0  0  0  0
  -24.0542  -30.9100   22.8675 C   0  0  0  0  0  0  0  0  0  0  0  0
  -21.9316  -30.9378   20.4147 C   0  0  0  0  0  0  0  0  0  0  0  0
  -20.8914  -29.5665   17.4678 C   0  0  0  0  0  0  0  0  0  0  0  0
  -27.1054  -16.2252   17.5929 C   0  0  0  0  0  0  0  0  0  0  0  0
  -25.5331  -34.0998   26.5683 C   0  0  0  0  0  0  0  0  0  0  0  0
  -25.5929  -30.9444   20.8708 C   0  0  0  0  0  0  0  0  0  0  0  0
  -23.4500  -28.9289   20.5704 C   0  0  0  0  0  0  0  0  0  0  0  0
  -24.2680  -33.9039   25.7368 C   0  0  0  0  0  0  0  0  0  0  0  0
  -24.7234  -13.7922   16.9972 C   0  0  0  0  0  0  0  0  0  0  0  0
  -23.8533  -32.4359   25.7334 C   0  0  0  0  0  0  0  0  0  0  0  0
  -25.1290  -12.6506   17.9292 C   0  0  0  0  0  0  0  0  0  0  0  0
  -27.7298  -18.6112   20.0899 C   0  0  0  0  0  0  0  0  0  0  0  0
  -29.0530  -19.0541   17.9774 C   0  0  0  0  0  0  0  0  0  0  0  0
  -24.8808  -15.1421   17.6873 C   0  0  0  0  0  0  0  0  0  0  0  0
  -27.8759  -17.1074   19.8398 C   0  0  0  0  0  0  0  0  0  0  0  0
  -29.1899  -17.5457   17.7919 C   0  0  0  0  0  0  0  0  0  0  0  0
  -26.6780  -14.2634   19.1418 C   0  0  0  0  0  0  0  0  0  0  0  0
  -28.8902  -19.4079   19.4667 C   0  0  0  0  0  0  0  0  0  0  0  0
  -24.9394  -31.5573   25.1009 C   0  0  1  0  0  0  0  0  0  0  0  0
  -24.1817  -31.1883   21.3965 C   0  0  1  0  0  0  0  0  0  0  0  0
  -26.5448  -12.8717   18.4907 C   0  0  1  0  0  0  0  0  0  0  0  0
  -27.2454  -23.8342   17.8294 C   0  0  0  0  0  0  0  0  0  0  0  0
  -29.0964  -20.7441   23.2044 C   0  0  0  0  0  0  0  0  0  0  0  0
  -19.1046  -29.7785   15.7186 C   0  0  0  0  0  0  0  0  0  0  0  0
  -32.2278  -21.0341   20.8401 C   0  0  0  0  0  0  0  0  0  0  0  0
  -32.1053  -20.3431   23.2316 C   0  0  0  0  0  0  0  0  0  0  0  0
  -19.9419  -29.5778   22.2859 C   0  0  0  0  0  0  0  0  0  0  0  0
  -18.5763  -28.9687   20.2778 C   0  0  0  0  0  0  0  0  0  0  0  0
  -18.9600  -31.3681   20.8419 C   0  0  0  0  0  0  0  0  0  0  0  0
  -22.8715  -30.1694   15.3523 C   0  0  0  0  0  0  0  0  0  0  0  0
  -28.2745  -25.1214   20.2534 C   0  0  0  0  0  0  0  0  0  1  0  0
  -29.9171  -20.7183   21.8940 C   0  0  2  0  0  0  0  0  0  0  0  0
  -20.8669  -29.9933   19.9115 C   0  0  1  0  0  0  0  0  0  0  0  0
  -20.5027  -30.1995   16.1439 C   0  0  2  0  0  0  0  0  0  0  0  0
  -31.4067  -21.1537   22.1327 C   0  0  0  0  0  0  0  0  0  0  0  0
  -19.6135  -29.9690   20.8312 C   0  0  0  0  0  0  0  0  0  0  0  0
  -26.0080  -11.1734   20.1969 N   0  0  0  0  0  0  0  0  0  0  0  0
  -26.9519  -11.7624   19.4431 N   0  0  0  0  0  0  0  0  0  0  0  0
  -23.1762  -30.3679   20.7180 N   0  0  0  0  0  0  0  0  0  0  0  0
  -26.2365  -15.3123   18.2095 N   0  0  0  0  0  0  0  0  0  0  0  0
  -28.0699  -16.8356   18.4088 N   0  0  0  0  0  0  0  0  0  0  0  0
  -29.2717  -11.7422   18.9648 N   0  0  0  0  0  0  0  0  0  0  0  0
  -28.8239   -8.5116   22.0887 N   0  0  0  0  0  0  0  0  0  0  0  0
  -24.8996  -31.6646   23.6582 N   0  0  0  0  0  0  0  0  0  0  0  0
  -20.5899  -30.3869   18.5342 N   0  0  0  0  0  0  0  0  0  0  0  0
  -21.4604  -29.7961   15.0758 N   0  3  0  0  0  0  0  0  0  0  0  0
  -30.3269   -9.6162   20.7547 O   0  0  0  0  0  0  0  0  0  0  0  0
  -23.2473  -30.0737   23.2565 O   0  0  0  0  0  0  0  0  0  0  0  0
  -21.6709  -32.1382   20.5275 O   0  0  0  0  0  0  0  0  0  0  0  0
  -21.4073  -28.4539   17.5481 O   0  0  0  0  0  0  0  0  0  0  0  0
  -27.0253  -16.4798   16.3846 O   0  0  0  0  0  0  0  0  0  0  0  0
  -24.0800   -6.9548   24.5598 O   0  0  0  0  0  0  0  0  0  0  0  0
  -26.8925  -25.4547   20.2579 O   0  0  0  0  0  0  0  0  0  1  0  0
  -19.3473   -4.6153   22.9685 F   0  0  0  0  0  0  0  0  0  0  0  0
  -21.9131   -8.5018   23.8153 F   0  0  0  0  0  0  0  0  0  0  0  0
  1  2  1  0  0  0  0
  1  5  2  0  0  0  0
  2  6  2  0  0  0  0
  3  8  2  0  0  0  0
  3 17  1  0  0  0  0
  4  9  1  0  0  0  0
  4 17  2  0  0  0  0
  5 19  1  0  0  0  0
  6 21  1  0  0  0  0
  7 10  2  0  0  0  0
  7 20  1  0  0  0  0
  8 27  1  0  0  0  0
  9 27  2  0  0  0  0
 10 28  1  0  0  0  0
 11 12  2  0  0  0  0
 11 29  1  0  0  0  0
 12 30  1  0  0  0  0
 13 22  2  0  0  0  0
 13 24  1  0  0  0  0
 14 23  1  0  0  0  0
 14 28  2  0  0  0  0
 15 25  2  0  0  0  0
 15 26  1  0  0  0  0
 16 30  2  0  0  0  0
 16 31  1  0  0  0  0
 17 32  1  0  0  0  0
 18 32  1  0  0  0  0
 18 33  2  0  0  0  0
 18 34  1  0  0  0  0
 19 21  2  0  0  0  0
 19 39  1  0  0  0  0
 20 23  2  0  0  0  0
 20 40  1  0  0  0  0
 21 53  1  0  0  0  0
 22 25  1  0  0  0  0
 22 52  1  0  0  0  0
 23 41  1  0  0  0  0
 24 26  2  0  0  0  0
 24 56  1  0  0  0  0
 25 66  1  0  0  0  0
 26 65  1  0  0  0  0
 27 86  1  0  0  0  0
 28 87  1  0  0  0  0
 29 31  2  0  0  0  0
 29 86  1  0  0  0  0
 30 88  1  0  0  0  0
 31 89  1  0  0  0  0
 32 71  2  0  0  0  0
 33 72  1  0  0  0  0
 33 76  1  0  0  0  0
 34 77  1  0  0  0  0
 34 81  2  0  0  0  0
 35 54  1  0  0  0  0
 35 78  1  0  0  0  0
 35 82  2  0  0  0  0
 36 67  1  0  0  0  0
 36 73  1  0  0  0  0
 36 83  2  0  0  0  0
 37 68  1  0  0  0  0
 37 79  1  0  0  0  0
 37 84  2  0  0  0  0
 38 74  1  0  0  0  0
 38 75  1  0  0  0  0
 38 85  2  0  0  0  0
 39 42  1  0  0  0  0
 40 54  1  0  0  0  0
 41 73  1  0  0  0  0
 42 44  1  0  0  0  0
 43 45  1  0  0  0  0
 43 48  1  0  0  0  0
 44 53  1  0  0  0  0
 45 55  1  0  0  0  0
 46 49  1  0  0  0  0
 46 52  1  0  0  0  0
 47 50  1  0  0  0  0
 47 52  1  0  0  0  0
 48 74  1  0  0  0  0
 49 75  1  0  0  0  0
 50 75  1  0  0  0  0
 51 55  1  0  0  0  0
 51 74  1  0  0  0  0
 53 78  1  0  0  0  0
 54 73  1  0  0  0  0
 55 72  1  0  0  0  0
 57 66  1  0  0  0  0
 58 68  1  0  0  0  0
 59 69  1  0  0  0  0
 60 69  1  0  0  0  0
 61 70  1  0  0  0  0
 62 70  1  0  0  0  0
 63 70  1  0  0  0  0
 64 80  1  0  0  0  0
 65 87  1  0  0  0  0
 66 69  1  0  0  0  0
 67 70  1  0  0  0  0
 67 79  1  0  0  0  0
 68 80  1  0  0  0  0
 71 72  1  0  0  0  0
M  CHG  1  80   1
M  ISO  4  38 100  65 101  75 100  87 101
M  END
> <Batch ID>
0152

> <Smiles>
CNC(C)C(=O)NC(C(=O)N1Cc2cc([101O:1][101CH2:1]c3cc(C(C)C(C)C)c(C4CC[100N:0]([100C:0](=O)N5CCCC(n6nc(-c7ccc(Oc8ccc(F)cc8F)cc7)c(C(N)=O)c6N)C5)CC4)cc3C)ccc2CC1C(=O)NC1CCCc2ccccc21)C(C)(C)C

> <Shape>
0.263

> <Color>
0.062

> <Negative vol penalty>
0.000

$$$$

  -OEChem-04052321463D

 87 96  0     1  0  0  0  0  0999 V2000
  -27.0508  -37.4990   22.1086 C   0  0  0  0  0  0  0  0  0  0  0  0
  -27.7430  -36.4239   21.5604 C   0  0  0  0  0  0  0  0  0  0  0  0
  -24.5506   -9.4818   21.2372 C   0  0  0  0  0  0  0  0  0  0  0  0
  -22.5550  -10.6794   20.5887 C   0  0  0  0  0  0  0  0  0  0  0  0
  -26.1089  -37.2808   23.1132 C   0  0  0  0  0  0  0  0  0  0  0  0
  -27.4944  -35.1301   22.0172 C   0  0  0  0  0  0  0  0  0  0  0  0
  -27.3037  -28.3433   19.7328 C   0  0  0  0  0  0  0  0  0  0  0  0
  -23.7846   -8.3450   21.4952 C   0  0  0  0  0  0  0  0  0  0  0  0
  -21.7890   -9.5426   20.8467 C   0  0  0  0  0  0  0  0  0  0  0  0
  -27.8159  -27.0857   20.0488 C   0  0  0  0  0  0  0  0  0  0  0  0
  -21.7632   -7.2096   23.9548 C   0  0  0  0  0  0  0  0  0  0  0  0
  -22.0177   -6.5119   25.1354 C   0  0  0  0  0  0  0  0  0  0  0  0
  -26.1094  -26.8203   21.7330 C   0  0  0  0  0  0  0  0  0  0  0  0
  -30.2431  -21.8207   22.7206 C   0  0  0  0  0  0  0  0  0  0  0  0
  -22.5622   -4.5387   23.8520 C   0  0  0  0  0  0  0  0  0  0  0  0
  -23.9358  -10.6490   20.7840 C   0  0  0  0  0  0  0  0  0  0  0  0
  -25.3360  -12.1803   19.3000 C   0  0  0  0  0  0  0  0  0  0  0  0
  -25.8417  -35.9827   23.5758 C   0  0  0  0  0  0  0  0  0  0  0  0
  -26.1952  -28.8543   20.4232 C   0  0  0  0  0  0  0  0  0  0  0  0
  -26.5490  -34.8945   23.0298 C   0  0  0  0  0  0  0  0  0  0  0  0
  -25.5834  -28.0836   21.4222 C   0  0  0  0  0  0  0  0  0  0  0  0
  -29.8863  -23.1009   22.2972 C   0  0  0  0  0  0  0  0  0  0  0  0
  -29.2343  -23.2754   21.0765 C   0  0  0  0  0  0  0  0  0  0  0  0
  -28.9391  -22.1696   20.2791 C   0  0  0  0  0  0  0  0  0  0  0  0
  -29.9479  -20.7148   21.9232 C   0  0  0  0  0  0  0  0  0  0  0  0
  -22.4038   -8.3754   21.3000 C   0  0  0  0  0  0  0  0  0  0  0  0
  -27.2206  -26.3252   21.0510 C   0  0  0  0  0  0  0  0  0  0  0  0
  -21.9082   -6.5719   22.7227 C   0  0  0  0  0  0  0  0  0  0  0  0
  -29.2959  -20.8893   20.7025 C   0  0  0  0  0  0  0  0  0  0  0  0
  -22.4172   -5.1764   25.0841 C   0  0  0  0  0  0  0  0  0  0  0  0
  -22.3077   -5.2365   22.6713 C   0  0  0  0  0  0  0  0  0  0  0  0
  -24.7265  -11.8238   20.5178 C   0  0  0  0  0  0  0  0  0  0  0  0
  -25.9639  -13.3724   19.5663 C   0  0  0  0  0  0  0  0  0  0  0  0
  -25.3346  -11.4951   18.0405 C   0  0  0  0  0  0  0  0  0  0  0  0
  -25.6790  -31.3828   22.2789 C   0  0  0  0  0  0  0  0  0  0  0  0
  -22.6011  -30.3679   22.1406 C   0  0  0  0  0  0  0  0  0  0  0  0
  -20.4199  -27.7903   21.6457 C   0  0  0  0  0  0  0  0  0  0  0  0
  -29.2311  -16.3588   22.7984 C   0  0  0  0  0  0  0  0  0  0  0  0
  -24.8488  -35.8014   24.6965 C   0  0  0  0  0  0  0  0  0  0  0  0
  -25.6383  -30.2013   20.0522 C   0  0  0  0  0  0  0  0  0  0  0  0
  -24.3790  -28.5781   22.1792 C   0  0  0  0  0  0  0  0  0  0  0  0
  -24.3740  -34.3601   24.8624 C   0  0  0  0  0  0  0  0  0  0  0  0
  -25.6392  -16.4712   23.5234 C   0  0  0  0  0  0  0  0  0  0  0  0
  -25.5591  -33.4003   24.8279 C   0  0  0  0  0  0  0  0  0  0  0  0
  -25.1458  -15.2553   22.7464 C   0  0  0  0  0  0  0  0  0  0  0  0
  -31.4612  -17.1580   25.1790 C   0  0  0  0  0  0  0  0  0  0  0  0
  -27.0397  -16.2630   24.1012 C   0  0  0  0  0  0  0  0  0  0  0  0
  -29.9818  -16.7714   25.2690 C   0  0  0  0  0  0  0  0  0  0  0  0
  -27.5443  -14.6226   22.3102 C   0  0  0  0  0  0  0  0  0  0  0  0
  -26.2894  -33.4737   23.4816 C   0  0  1  0  0  0  0  0  0  0  0  0
  -24.8212  -30.8390   21.1716 C   0  0  1  0  0  0  0  0  0  0  0  0
  -26.1671  -14.8527   21.6724 C   0  0  1  0  0  0  0  0  0  0  0  0
  -31.1941  -17.6827   23.7600 C   0  0  2  0  0  0  0  0  0  0  0  0
  -30.2136  -24.2683   23.1694 C   0  0  0  0  0  0  0  0  0  0  0  0
  -28.2404  -22.3505   18.9689 C   0  0  0  0  0  0  0  0  0  0  0  0
  -17.9672  -27.2597   21.6350 C   0  0  0  0  0  0  0  0  0  0  0  0
  -22.5808  -30.4122   25.1914 C   0  0  0  0  0  0  0  0  0  0  0  0
  -20.5112  -29.0046   25.1286 C   0  0  0  0  0  0  0  0  0  0  0  0
  -20.4964  -31.2867   24.1215 C   0  0  0  0  0  0  0  0  0  0  0  0
  -20.4895  -26.9789   18.8004 C   0  0  0  0  0  0  0  0  0  0  0  0
  -29.9937  -19.4168   18.9703 C   0  0  0  0  0  0  0  0  0  0  0  0
  -28.8527  -24.6491   20.6233 C   0  0  0  0  0  0  0  0  0  1  0  0
  -30.9800  -19.1741   23.5925 C   0  0  0  0  0  0  0  0  0  0  0  0
  -21.7486  -29.4255   22.9554 C   0  0  1  0  0  0  0  0  0  0  0  0
  -19.1651  -27.6811   20.7983 C   0  0  2  0  0  0  0  0  0  0  0  0
  -21.3581  -30.0235   24.3365 C   0  0  0  0  0  0  0  0  0  0  0  0
  -24.9474  -12.7171   21.4859 N   0  0  0  0  0  0  0  0  0  0  0  0
  -25.7028  -13.6467   20.8766 N   0  0  0  0  0  0  0  0  0  0  0  0
  -23.8753  -29.9040   21.7842 N   0  0  0  0  0  0  0  0  0  0  0  0
  -27.9866  -15.7877   23.0855 N   0  0  0  0  0  0  0  0  0  0  0  0
  -29.9218  -16.9602   23.8269 N   0  0  0  0  0  0  0  0  0  0  0  0
  -26.7084  -14.2024   18.8052 N   0  0  0  0  0  0  0  0  0  0  0  0
  -24.6399  -10.2819   17.9406 N   0  0  0  0  0  0  0  0  0  0  0  0
  -30.3112  -19.4410   22.3594 N   0  0  0  0  0  0  0  0  0  0  0  0
  -25.5558  -32.7461   22.4683 N   0  0  0  0  0  0  0  0  0  0  0  0
  -20.6104  -29.0733   22.1134 N   0  0  0  0  0  0  0  0  0  0  0  0
  -19.3579  -26.6768   19.7143 N   0  3  0  0  0  0  0  0  0  0  0  0
  -25.9454  -11.9371   17.0380 O   0  0  0  0  0  0  0  0  0  0  0  0
  -26.3982  -30.6217   22.9154 O   0  0  0  0  0  0  0  0  0  0  0  0
  -22.1504  -31.4721   21.8257 O   0  0  0  0  0  0  0  0  0  0  0  0
  -21.1554  -26.8323   21.8733 O   0  0  0  0  0  0  0  0  0  0  0  0
  -29.7280  -16.3082   21.6655 O   0  0  0  0  0  0  0  0  0  0  0  0
  -21.6560   -7.2663   21.5514 O   0  0  0  0  0  0  0  0  0  0  0  0
  -29.0073  -19.8080   19.9217 O   0  0  0  0  0  0  0  0  0  0  0  0
  -27.7227  -25.0886   21.3641 O   0  0  0  0  0  0  0  0  0  1  0  0
  -22.6630   -4.5069   26.2179 F   0  0  0  0  0  0  0  0  0  0  0  0
  -22.4499   -4.6189   21.4905 F   0  0  0  0  0  0  0  0  0  0  0  0
  1  2  1  0  0  0  0
  1  5  2  0  0  0  0
  2  6  2  0  0  0  0
  3  8  2  0  0  0  0
  3 16  1  0  0  0  0
  4  9  1  0  0  0  0
  4 16  2  0  0  0  0
  5 18  1  0  0  0  0
  6 20  1  0  0  0  0
  7 10  2  0  0  0  0
  7 19  1  0  0  0  0
  8 26  1  0  0  0  0
  9 26  2  0  0  0  0
 10 27  1  0  0  0  0
 11 12  2  0  0  0  0
 11 28  1  0  0  0  0
 12 30  1  0  0  0  0
 13 21  1  0  0  0  0
 13 27  2  0  0  0  0
 14 22  2  0  0  0  0
 14 25  1  0  0  0  0
 15 30  2  0  0  0  0
 15 31  1  0  0  0  0
 16 32  1  0  0  0  0
 17 32  1  0  0  0  0
 17 33  2  0  0  0  0
 17 34  1  0  0  0  0
 18 20  2  0  0  0  0
 18 39  1  0  0  0  0
 19 21  2  0  0  0  0
 19 40  1  0  0  0  0
 20 50  1  0  0  0  0
 21 41  1  0  0  0  0
 22 23  1  0  0  0  0
 22 54  1  0  0  0  0
 23 24  2  0  0  0  0
 23 62  1  0  0  0  0
 24 29  1  0  0  0  0
 24 55  1  0  0  0  0
 25 29  2  0  0  0  0
 25 74  1  0  0  0  0
 26 83  1  0  0  0  0
 27 85  1  0  0  0  0
 28 31  2  0  0  0  0
 28 83  1  0  0  0  0
 29 84  1  0  0  0  0
 30 86  1  0  0  0  0
 31 87  1  0  0  0  0
 32 67  2  0  0  0  0
 33 68  1  0  0  0  0
 33 72  1  0  0  0  0
 34 73  1  0  0  0  0
 34 78  2  0  0  0  0
 35 51  1  0  0  0  0
 35 75  1  0  0  0  0
 35 79  2  0  0  0  0
 36 64  1  0  0  0  0
 36 69  1  0  0  0  0
 36 80  2  0  0  0  0
 37 65  1  0  0  0  0
 37 76  1  0  0  0  0
 37 81  2  0  0  0  0
 38 70  1  0  0  0  0
 38 71  1  0  0  0  0
 38 82  2  0  0  0  0
 39 42  1  0  0  0  0
 40 51  1  0  0  0  0
 41 69  1  0  0  0  0
 42 44  1  0  0  0  0
 43 45  1  0  0  0  0
 43 47  1  0  0  0  0
 44 50  1  0  0  0  0
 45 52  1  0  0  0  0
 46 48  1  0  0  0  0
 46 53  1  0  0  0  0
 47 70  1  0  0  0  0
 48 71  1  0  0  0  0
 49 52  1  0  0  0  0
 49 70  1  0  0  0  0
 50 75  1  0  0  0  0
 51 69  1  0  0  0  0
 52 68  1  0  0  0  0
 53 63  1  0  0  0  0
 53 71  1  0  0  0  0
 56 65  1  0  0  0  0
 57 66  1  0  0  0  0
 58 66  1  0  0  0  0
 59 66  1  0  0  0  0
 60 77  1  0  0  0  0
 61 84  1  0  0  0  0
 62 85  1  0  0  0  0
 63 74  1  0  0  0  0
 64 66  1  0  0  0  0
 64 76  1  0  0  0  0
 65 77  1  0  0  0  0
 67 68  1  0  0  0  0
M  CHG  1  77   1
M  ISO  4  38 100  62 101  71 100  85 101
M  END
> <Batch ID>
0152

> <Smiles>
CNC(C)C(=O)NC(C(=O)N1Cc2cc([101O:1][101CH2:1]c3c(C)cc(NCC4CC[100N:0]4[100C:0](=O)N4CCCC(n5nc(-c6ccc(Oc7ccc(F)cc7F)cc6)c(C(N)=O)c5N)C4)c(OC)c3C)ccc2CC1C(=O)NC1CCCc2ccccc21)C(C)(C)C

> <Shape>
0.341

> <Color>
0.100

> <Negative vol penalty>
0.000

$$$$

  -OEChem-04052321463D

 89 99  0     1  0  0  0  0  0999 V2000
  -25.7994  -38.3338   21.5543 C   0  0  0  0  0  0  0  0  0  0  0  0
  -26.5244  -37.3625   20.8714 C   0  0  0  0  0  0  0  0  0  0  0  0
  -24.2062   -9.5464   21.4291 C   0  0  0  0  0  0  0  0  0  0  0  0
  -23.5707   -8.8474   19.2055 C   0  0  0  0  0  0  0  0  0  0  0  0
  -25.0949  -37.9934   22.7083 C   0  0  0  0  0  0  0  0  0  0  0  0
  -26.5463  -36.0504   21.3428 C   0  0  0  0  0  0  0  0  0  0  0  0
  -26.8969  -29.2858   19.0118 C   0  0  0  0  0  0  0  0  0  0  0  0
  -23.1912   -8.7559   21.9678 C   0  0  0  0  0  0  0  0  0  0  0  0
  -22.5556   -8.0568   19.7442 C   0  0  0  0  0  0  0  0  0  0  0  0
  -27.6288  -28.1155   19.2080 C   0  0  0  0  0  0  0  0  0  0  0  0
  -22.6807   -5.4848   22.6553 C   0  0  0  0  0  0  0  0  0  0  0  0
  -22.9923   -4.6949   23.7618 C   0  0  0  0  0  0  0  0  0  0  0  0
  -26.3097  -27.6263   21.1676 C   0  0  0  0  0  0  0  0  0  0  0  0
  -28.6142  -23.0096   20.8399 C   0  0  0  0  0  0  0  0  0  0  0  0
  -21.3110   -5.8477   25.0584 C   0  0  0  0  0  0  0  0  0  0  0  0
  -24.3960   -9.5922   20.0480 C   0  0  0  0  0  0  0  0  0  0  0  0
  -26.7735  -10.0258   19.2312 C   0  0  0  0  0  0  0  0  0  0  0  0
  -25.1002  -36.6744   23.1887 C   0  0  0  0  0  0  0  0  0  0  0  0
  -25.8714  -29.6413   19.8997 C   0  0  0  0  0  0  0  0  0  0  0  0
  -25.8423  -35.6923   22.5051 C   0  0  0  0  0  0  0  0  0  0  0  0
  -25.5646  -28.8003   20.9789 C   0  0  0  0  0  0  0  0  0  0  0  0
  -28.6485  -24.1516   21.6777 C   0  0  0  0  0  0  0  0  0  0  0  0
  -22.3659   -8.0110   21.1254 C   0  0  0  0  0  0  0  0  0  0  0  0
  -27.3372  -27.2870   20.2877 C   0  0  0  0  0  0  0  0  0  0  0  0
  -21.6842   -6.4563   22.7503 C   0  0  0  0  0  0  0  0  0  0  0  0
  -22.3075   -4.8763   24.9633 C   0  0  0  0  0  0  0  0  0  0  0  0
  -20.9994   -6.6377   23.9519 C   0  0  0  0  0  0  0  0  0  0  0  0
  -25.4441  -10.4091   19.4909 C   0  0  0  0  0  0  0  0  0  0  0  0
  -29.6912  -23.9820   22.5616 C   0  0  0  0  0  0  0  0  0  0  0  0
  -29.6368  -22.1769   21.2375 C   0  0  0  0  0  0  0  0  0  0  0  0
  -27.3599  -11.1526   18.7085 C   0  0  0  0  0  0  0  0  0  0  0  0
  -27.4206   -8.7641   19.4434 C   0  0  0  0  0  0  0  0  0  0  0  0
  -25.3509  -32.0870   21.8620 C   0  0  0  0  0  0  0  0  0  0  0  0
  -22.4717  -30.6477   22.2634 C   0  0  0  0  0  0  0  0  0  0  0  0
  -20.6196  -27.7846   22.1250 C   0  0  0  0  0  0  0  0  0  0  0  0
  -28.3657  -16.4241   18.6421 C   0  0  0  0  0  0  0  0  0  0  0  0
  -24.3620  -36.3643   24.4667 C   0  0  0  0  0  0  0  0  0  0  0  0
  -25.0735  -30.8934   19.6588 C   0  0  0  0  0  0  0  0  0  0  0  0
  -24.4599  -29.1265   21.9493 C   0  0  0  0  0  0  0  0  0  0  0  0
  -24.1315  -34.8719   24.6903 C   0  0  0  0  0  0  0  0  0  0  0  0
  -25.3338  -15.5025   17.1297 C   0  0  0  0  0  0  0  0  0  0  0  0
  -25.4133  -34.0884   24.4258 C   0  0  0  0  0  0  0  0  0  0  0  0
  -30.4373  -26.3922   23.2731 C   0  0  0  0  0  0  0  0  0  0  0  0
  -31.5403  -25.4662   23.6808 C   0  0  0  0  0  0  0  0  0  0  0  0
  -25.1937  -14.0518   17.5902 C   0  0  0  0  0  0  0  0  0  0  0  0
  -28.1107  -19.5936   20.1512 C   0  0  0  0  0  0  0  0  0  0  0  0
  -30.3522  -19.2336   19.0495 C   0  0  0  0  0  0  0  0  0  0  0  0
  -25.8630  -16.4086   18.2428 C   0  0  0  0  0  0  0  0  0  0  0  0
  -27.4545  -18.7541   19.0511 C   0  0  0  0  0  0  0  0  0  0  0  0
  -29.6503  -18.4280   17.9598 C   0  0  0  0  0  0  0  0  0  0  0  0
  -26.9837  -14.4822   19.3159 C   0  0  0  0  0  0  0  0  0  0  0  0
  -25.8702  -34.2529   22.9713 C   0  0  1  0  0  0  0  0  0  0  0  0
  -30.1116  -24.9643   23.6580 C   0  0  0  0  0  0  0  0  0  0  0  0
  -24.3915  -31.4188   20.9183 C   0  0  1  0  0  0  0  0  0  0  0  0
  -26.5091  -13.5368   18.2014 C   0  0  1  0  0  0  0  0  0  0  0  0
  -29.3955  -20.2627   19.6572 C   0  0  0  0  0  0  0  0  0  0  0  0
  -18.3043  -26.9139   22.5477 C   0  0  0  0  0  0  0  0  0  0  0  0
  -32.6445  -22.0778   22.0955 C   0  0  0  0  0  0  0  0  0  0  0  0
  -31.0776  -20.9322   23.7199 C   0  0  0  0  0  0  0  0  0  0  0  0
  -22.9981  -30.7136   25.2682 C   0  0  0  0  0  0  0  0  0  0  0  0
  -21.1691  -29.0282   25.5551 C   0  0  0  0  0  0  0  0  0  0  0  0
  -20.6529  -31.2772   24.6073 C   0  0  0  0  0  0  0  0  0  0  0  0
  -20.2858  -26.9679   19.3001 C   0  0  0  0  0  0  0  0  0  0  0  0
  -27.7294  -25.3052   21.6056 C   0  0  0  0  0  0  0  0  0  1  0  0
  -21.9212  -29.6013   23.2020 C   0  0  1  0  0  0  0  0  0  0  0  0
  -19.2600  -27.4929   21.5161 C   0  0  2  0  0  0  0  0  0  0  0  0
  -31.4216  -22.2379   23.0008 C   0  0  0  0  0  0  0  0  0  0  0  0
  -21.7075  -30.1496   24.6411 C   0  0  0  0  0  0  0  0  0  0  0  0
  -25.2000  -11.6801   19.1605 N   0  0  0  0  0  0  0  0  0  0  0  0
  -30.2846  -22.7781   22.2850 N   0  0  0  0  0  0  0  0  0  0  0  0
  -26.3841  -12.1052   18.6880 N   0  0  0  0  0  0  0  0  0  0  0  0
  -23.7125  -30.3649   21.6749 N   0  0  0  0  0  0  0  0  0  0  0  0
  -27.0955  -15.8562   18.8217 N   0  0  0  0  0  0  0  0  0  0  0  0
  -28.4220  -17.8148   18.4661 N   0  0  0  0  0  0  0  0  0  0  0  0
  -28.6098  -11.4114   18.2691 N   0  0  0  0  0  0  0  0  0  0  0  0
  -26.6716   -7.7125   19.9889 N   0  0  0  0  0  0  0  0  0  0  0  0
  -30.0414  -20.9440   20.7574 N   0  0  0  0  0  0  0  0  0  0  0  0
  -25.0744  -33.4209   22.0944 N   0  0  0  0  0  0  0  0  0  0  0  0
  -20.7101  -29.0855   22.5731 N   0  0  0  0  0  0  0  0  0  0  0  0
  -19.3920  -26.5169   20.3976 N   0  3  0  0  0  0  0  0  0  0  0  0
  -28.6315   -8.5796   19.1731 O   0  0  0  0  0  0  0  0  0  0  0  0
  -26.2728  -31.4400   22.3449 O   0  0  0  0  0  0  0  0  0  0  0  0
  -21.8214  -31.6748   22.0544 O   0  0  0  0  0  0  0  0  0  0  0  0
  -21.5109  -26.9416   22.1994 O   0  0  0  0  0  0  0  0  0  0  0  0
  -29.3898  -15.7296   18.6392 O   0  0  0  0  0  0  0  0  0  0  0  0
  -21.3754   -7.2393   21.6507 O   0  0  0  0  0  0  0  0  0  0  0  0
  -28.0632  -26.1242   20.4854 O   0  0  0  0  0  0  0  0  0  1  0  0
  -22.6059   -4.1165   26.0254 F   0  0  0  0  0  0  0  0  0  0  0  0
  -20.0403   -7.5686   24.0489 F   0  0  0  0  0  0  0  0  0  0  0  0
  1  2  1  0  0  0  0
  1  5  2  0  0  0  0
  2  6  2  0  0  0  0
  3  8  2  0  0  0  0
  3 16  1  0  0  0  0
  4  9  1  0  0  0  0
  4 16  2  0  0  0  0
  5 18  1  0  0  0  0
  6 20  1  0  0  0  0
  7 10  2  0  0  0  0
  7 19  1  0  0  0  0
  8 23  1  0  0  0  0
  9 23  2  0  0  0  0
 10 24  1  0  0  0  0
 11 12  2  0  0  0  0
 11 25  1  0  0  0  0
 12 26  1  0  0  0  0
 13 21  1  0  0  0  0
 13 24  2  0  0  0  0
 14 22  1  0  0  0  0
 14 30  2  0  0  0  0
 15 26  2  0  0  0  0
 15 27  1  0  0  0  0
 16 28  1  0  0  0  0
 17 28  1  0  0  0  0
 17 31  2  0  0  0  0
 17 32  1  0  0  0  0
 18 20  2  0  0  0  0
 18 37  1  0  0  0  0
 19 21  2  0  0  0  0
 19 38  1  0  0  0  0
 20 52  1  0  0  0  0
 21 39  1  0  0  0  0
 22 29  2  0  0  0  0
 22 64  1  0  0  0  0
 23 86  1  0  0  0  0
 24 87  1  0  0  0  0
 25 27  2  0  0  0  0
 25 86  1  0  0  0  0
 26 88  1  0  0  0  0
 27 89  1  0  0  0  0
 28 69  2  0  0  0  0
 29 53  1  0  0  0  0
 29 70  1  0  0  0  0
 30 70  1  0  0  0  0
 30 77  1  0  0  0  0
 31 71  1  0  0  0  0
 31 75  1  0  0  0  0
 32 76  1  0  0  0  0
 32 81  2  0  0  0  0
 33 54  1  0  0  0  0
 33 78  1  0  0  0  0
 33 82  2  0  0  0  0
 34 65  1  0  0  0  0
 34 72  1  0  0  0  0
 34 83  2  0  0  0  0
 35 66  1  0  0  0  0
 35 79  1  0  0  0  0
 35 84  2  0  0  0  0
 36 73  1  0  0  0  0
 36 74  1  0  0  0  0
 36 85  2  0  0  0  0
 37 40  1  0  0  0  0
 38 54  1  0  0  0  0
 39 72  1  0  0  0  0
 40 42  1  0  0  0  0
 41 45  1  0  0  0  0
 41 48  1  0  0  0  0
 42 52  1  0  0  0  0
 43 44  1  0  0  0  0
 43 53  1  0  0  0  0
 44 53  1  0  0  0  0
 45 55  1  0  0  0  0
 46 49  1  0  0  0  0
 46 56  1  0  0  0  0
 47 50  1  0  0  0  0
 47 56  1  0  0  0  0
 48 73  1  0  0  0  0
 49 74  1  0  0  0  0
 50 74  1  0  0  0  0
 51 55  1  0  0  0  0
 51 73  1  0  0  0  0
 52 78  1  0  0  0  0
 54 72  1  0  0  0  0
 55 71  1  0  0  0  0
 56 77  1  0  0  0  0
 57 66  1  0  0  0  0
 58 67  1  0  0  0  0
 59 67  1  0  0  0  0
 60 68  1  0  0  0  0
 61 68  1  0  0  0  0
 62 68  1  0  0  0  0
 63 80  1  0  0  0  0
 64 87  1  0  0  0  0
 65 68  1  0  0  0  0
 65 79  1  0  0  0  0
 66 80  1  0  0  0  0
 67 70  1  0  0  0  0
 69 71  1  0  0  0  0
M  CHG  1  80   1
M  ISO  4  36 100  64 101  74 100  87 101
M  END
> <Batch ID>
0152

> <Smiles>
CNC(C)C(=O)NC(C(=O)N1Cc2cc([101O:1][101CH2:1]c3cc(NC4CC[100N:0]([100C:0](=O)N5CCCC(n6nc(-c7ccc(Oc8ccc(F)cc8F)cc7)c(C(N)=O)c6N)C5)CC4)n(C(C)C)c3C3CC3)ccc2CC1C(=O)NC1CCCc2ccccc21)C(C)(C)C

> <Shape>
0.305

> <Color>
0.094

> <Negative vol penalty>
0.000

$$$$

  -OEChem-04052321463D

 94104  0     1  0  0  0  0  0999 V2000
  -20.7415  -38.2908   23.8746 C   0  0  0  0  0  0  0  0  0  0  0  0
  -21.0479  -37.3283   22.9180 C   0  0  0  0  0  0  0  0  0  0  0  0
  -23.6778   -9.9764   22.0271 C   0  0  0  0  0  0  0  0  0  0  0  0
  -25.0688   -8.0013   22.0601 C   0  0  0  0  0  0  0  0  0  0  0  0
  -21.7521  -38.8253   24.6726 C   0  0  0  0  0  0  0  0  0  0  0  0
  -22.3654  -36.9006   22.7581 C   0  0  0  0  0  0  0  0  0  0  0  0
  -24.2527  -31.2658   21.2771 C   0  0  0  0  0  0  0  0  0  0  0  0
  -22.5494   -9.1786   21.8382 C   0  0  0  0  0  0  0  0  0  0  0  0
  -23.9403   -7.2034   21.8712 C   0  0  0  0  0  0  0  0  0  0  0  0
  -24.6482  -30.6968   20.0673 C   0  0  0  0  0  0  0  0  0  0  0  0
  -21.3828   -4.6218   21.7586 C   0  0  0  0  0  0  0  0  0  0  0  0
  -21.2573   -3.4778   22.5466 C   0  0  0  0  0  0  0  0  0  0  0  0
  -26.9552  -31.1255   20.6269 C   0  0  0  0  0  0  0  0  0  0  0  0
  -28.9795  -20.5223   18.8151 C   0  0  0  0  0  0  0  0  0  0  0  0
  -29.3323  -22.8473   20.3161 C   0  0  0  0  0  0  0  0  0  0  0  0
  -21.2775   -4.8467   24.5373 C   0  0  0  0  0  0  0  0  0  0  0  0
  -24.9376   -9.3878   22.1380 C   0  0  0  0  0  0  0  0  0  0  0  0
  -26.6589  -10.6227   23.5591 C   0  0  0  0  0  0  0  0  0  0  0  0
  -23.0812  -38.3969   24.5290 C   0  0  0  0  0  0  0  0  0  0  0  0
  -25.2064  -31.7796   22.1675 C   0  0  0  0  0  0  0  0  0  0  0  0
  -23.3950  -37.4309   23.5540 C   0  0  0  0  0  0  0  0  0  0  0  0
  -26.5694  -31.6982   21.8485 C   0  0  0  0  0  0  0  0  0  0  0  0
  -29.1822  -20.4391   20.1926 C   0  0  0  0  0  0  0  0  0  0  0  0
  -29.3585  -21.6015   20.9431 C   0  0  0  0  0  0  0  0  0  0  0  0
  -29.1297  -22.9305   18.9385 C   0  0  0  0  0  0  0  0  0  0  0  0
  -22.6806   -7.7921   21.7603 C   0  0  0  0  0  0  0  0  0  0  0  0
  -25.9995  -30.6292   19.7408 C   0  0  0  0  0  0  0  0  0  0  0  0
  -21.4558   -5.8783   22.3599 C   0  0  0  0  0  0  0  0  0  0  0  0
  -28.9533  -21.7680   18.1880 C   0  0  0  0  0  0  0  0  0  0  0  0
  -21.2045   -3.5902   23.9359 C   0  0  0  0  0  0  0  0  0  0  0  0
  -21.4031   -5.9908   23.7492 C   0  0  0  0  0  0  0  0  0  0  0  0
  -26.1037  -10.2114   22.3326 C   0  0  0  0  0  0  0  0  0  0  0  0
  -27.7473  -11.3823   23.2058 C   0  0  0  0  0  0  0  0  0  0  0  0
  -26.2293  -10.3431   24.8981 C   0  0  0  0  0  0  0  0  0  0  0  0
  -25.8240  -34.6519   23.3810 C   0  0  0  0  0  0  0  0  0  0  0  0
  -27.9933  -33.0095   25.1471 C   0  0  0  0  0  0  0  0  0  0  0  0
  -29.9771  -30.2511   25.4666 C   0  0  0  0  0  0  0  0  0  0  0  0
  -30.2408  -15.1696   20.1300 C   0  0  0  0  0  0  0  0  0  0  0  0
  -24.1468  -39.0382   25.3822 C   0  0  0  0  0  0  0  0  0  0  0  0
  -24.7651  -32.3661   23.4804 C   0  0  0  0  0  0  0  0  0  0  0  0
  -27.6340  -32.2171   22.7789 C   0  0  0  0  0  0  0  0  0  0  0  0
  -25.4590  -38.2586   25.4059 C   0  0  0  0  0  0  0  0  0  0  0  0
  -30.0267  -12.0109   18.7425 C   0  0  0  0  0  0  0  0  0  0  0  0
  -25.8608  -37.8465   23.9932 C   0  0  0  0  0  0  0  0  0  0  0  0
  -29.0337  -11.2828   19.6481 C   0  0  0  0  0  0  0  0  0  0  0  0
  -28.2716  -18.0746   20.1485 C   0  0  0  0  0  0  0  0  0  0  0  0
  -30.6355  -18.5045   20.9463 C   0  0  0  0  0  0  0  0  0  0  0  0
  -28.0049  -25.8296   19.7873 C   0  0  0  0  0  0  0  0  0  0  0  0
  -29.7583  -26.5531   18.1191 C   0  0  0  0  0  0  0  0  0  0  0  0
  -29.5782  -13.4443   18.4823 C   0  0  0  0  0  0  0  0  0  0  0  0
  -28.3272  -16.6896   20.7995 C   0  0  0  0  0  0  0  0  0  0  0  0
  -30.6260  -17.1250   21.5986 C   0  0  0  0  0  0  0  0  0  0  0  0
  -28.3753  -13.5299   20.6419 C   0  0  0  0  0  0  0  0  0  0  0  0
  -26.9159  -26.3494   18.8557 C   0  0  0  0  0  0  0  0  0  0  0  0
  -28.6559  -27.0568   17.1953 C   0  0  0  0  0  0  0  0  0  0  0  0
  -29.2081  -19.0732   20.8523 C   0  0  0  0  0  0  0  0  0  0  0  0
  -24.8084  -36.9232   23.3675 C   0  0  1  0  0  0  0  0  0  0  0  0
  -25.7897  -33.3232   24.0818 C   0  0  1  0  0  0  0  0  0  0  0  0
  -28.7844  -12.0740   20.9443 C   0  0  1  0  0  0  0  0  0  0  0  0
  -29.2840  -25.4323   19.0463 C   0  0  0  0  0  0  0  0  0  0  0  0
  -29.5795  -21.5363   22.4186 C   0  0  0  0  0  0  0  0  0  0  0  0
  -31.6668  -29.2067   27.0001 C   0  0  0  0  0  0  0  0  0  0  0  0
  -30.1016  -34.9847   24.1653 C   0  0  0  0  0  0  0  0  0  0  0  0
  -31.8627  -33.3764   24.9271 C   0  0  0  0  0  0  0  0  0  0  0  0
  -30.2883  -34.3761   26.5838 C   0  0  0  0  0  0  0  0  0  0  0  0
  -28.2790  -27.8668   25.9030 C   0  0  0  0  0  0  0  0  0  0  0  0
  -27.4046  -21.9238   16.3899 C   0  0  0  0  0  0  0  0  0  0  0  0
  -26.3962  -28.1093   17.1686 C   0  0  0  0  0  0  0  0  0  0  0  0
  -25.5625  -29.0445   18.0221 C   0  0  0  0  0  0  0  0  0  1  0  0
  -29.4418  -32.6223   24.9714 C   0  0  1  0  0  0  0  0  0  0  0  0
  -30.1954  -29.2961   26.6263 C   0  0  2  0  0  0  0  0  0  0  0  0
  -30.4037  -33.8317   25.1433 C   0  0  0  0  0  0  0  0  0  0  0  0
  -26.7832  -10.6717   21.2788 N   0  0  0  0  0  0  0  0  0  0  0  0
  -27.7765  -11.3802   21.8422 N   0  0  0  0  0  0  0  0  0  0  0  0
  -27.1519  -32.7872   24.0478 N   0  0  0  0  0  0  0  0  0  0  0  0
  -29.3486  -14.1607   19.7368 N   0  0  0  0  0  0  0  0  0  0  0  0
  -29.7155  -16.2185   20.8997 N   0  0  0  0  0  0  0  0  0  0  0  0
  -28.6726  -12.0452   23.9316 N   0  0  0  0  0  0  0  0  0  0  0  0
  -25.0914   -9.5457   25.0819 N   0  0  0  0  0  0  0  0  0  0  0  0
  -29.1067  -24.1977   18.3166 N   0  0  0  0  0  0  0  0  0  0  0  0
  -24.9378  -35.5807   23.8922 N   0  0  0  0  0  0  0  0  0  0  0  0
  -29.6873  -31.5266   25.9028 N   0  0  0  0  0  0  0  0  0  0  0  0
  -27.4646  -27.4801   18.0200 N   0  3  0  0  0  0  0  0  0  0  0  0
  -29.7172  -27.9304   26.2698 N   0  3  0  0  0  0  0  0  0  0  0  0
  -26.8269  -10.8007   25.9016 O   0  0  0  0  0  0  0  0  0  0  0  0
  -26.5984  -34.8223   22.4466 O   0  0  0  0  0  0  0  0  0  0  0  0
  -27.6206  -33.4850   26.2226 O   0  0  0  0  0  0  0  0  0  0  0  0
  -30.0595  -29.9014   24.2912 O   0  0  0  0  0  0  0  0  0  0  0  0
  -31.4365  -15.1355   19.8133 O   0  0  0  0  0  0  0  0  0  0  0  0
  -21.5797   -7.0133   21.5762 O   0  0  0  0  0  0  0  0  0  0  0  0
  -28.7539  -21.8273   16.8410 O   0  0  0  0  0  0  0  0  0  0  0  0
  -26.3910  -30.0709   18.5518 O   0  0  0  0  0  0  0  0  0  1  0  0
  -21.0824   -2.4916   24.6924 F   0  0  0  0  0  0  0  0  0  0  0  0
  -21.4715   -7.1953   24.3326 F   0  0  0  0  0  0  0  0  0  0  0  0
  1  2  1  0  0  0  0
  1  5  2  0  0  0  0
  2  6  2  0  0  0  0
  3  8  2  0  0  0  0
  3 17  1  0  0  0  0
  4  9  1  0  0  0  0
  4 17  2  0  0  0  0
  5 19  1  0  0  0  0
  6 21  1  0  0  0  0
  7 10  2  0  0  0  0
  7 20  1  0  0  0  0
  8 26  1  0  0  0  0
  9 26  2  0  0  0  0
 10 27  1  0  0  0  0
 11 12  2  0  0  0  0
 11 28  1  0  0  0  0
 12 30  1  0  0  0  0
 13 22  1  0  0  0  0
 13 27  2  0  0  0  0
 14 23  2  0  0  0  0
 14 29  1  0  0  0  0
 15 24  2  0  0  0  0
 15 25  1  0  0  0  0
 16 30  2  0  0  0  0
 16 31  1  0  0  0  0
 17 32  1  0  0  0  0
 18 32  1  0  0  0  0
 18 33  2  0  0  0  0
 18 34  1  0  0  0  0
 19 21  2  0  0  0  0
 19 39  1  0  0  0  0
 20 22  2  0  0  0  0
 20 40  1  0  0  0  0
 21 57  1  0  0  0  0
 22 41  1  0  0  0  0
 23 24  1  0  0  0  0
 23 56  1  0  0  0  0
 24 61  1  0  0  0  0
 25 29  2  0  0  0  0
 25 80  1  0  0  0  0
 26 90  1  0  0  0  0
 27 92  1  0  0  0  0
 28 31  2  0  0  0  0
 28 90  1  0  0  0  0
 29 91  1  0  0  0  0
 30 93  1  0  0  0  0
 31 94  1  0  0  0  0
 32 73  2  0  0  0  0
 33 74  1  0  0  0  0
 33 78  1  0  0  0  0
 34 79  1  0  0  0  0
 34 85  2  0  0  0  0
 35 58  1  0  0  0  0
 35 81  1  0  0  0  0
 35 86  2  0  0  0  0
 36 70  1  0  0  0  0
 36 75  1  0  0  0  0
 36 87  2  0  0  0  0
 37 71  1  0  0  0  0
 37 82  1  0  0  0  0
 37 88  2  0  0  0  0
 38 76  1  0  0  0  0
 38 77  1  0  0  0  0
 38 89  2  0  0  0  0
 39 42  1  0  0  0  0
 40 58  1  0  0  0  0
 41 75  1  0  0  0  0
 42 44  1  0  0  0  0
 43 45  1  0  0  0  0
 43 50  1  0  0  0  0
 44 57  1  0  0  0  0
 45 59  1  0  0  0  0
 46 51  1  0  0  0  0
 46 56  1  0  0  0  0
 47 52  1  0  0  0  0
 47 56  1  0  0  0  0
 48 54  1  0  0  0  0
 48 60  1  0  0  0  0
 49 55  1  0  0  0  0
 49 60  1  0  0  0  0
 50 76  1  0  0  0  0
 51 77  1  0  0  0  0
 52 77  1  0  0  0  0
 53 59  1  0  0  0  0
 53 76  1  0  0  0  0
 54 83  1  0  0  0  0
 55 83  1  0  0  0  0
 57 81  1  0  0  0  0
 58 75  1  0  0  0  0
 59 74  1  0  0  0  0
 60 80  1  0  0  0  0
 62 71  1  0  0  0  0
 63 72  1  0  0  0  0
 64 72  1  0  0  0  0
 65 72  1  0  0  0  0
 66 84  1  0  0  0  0
 67 91  1  0  0  0  0
 68 69  1  0  0  0  0
 68 83  1  0  0  0  0
 69 92  1  0  0  0  0
 70 72  1  0  0  0  0
 70 82  1  0  0  0  0
 71 84  1  0  0  0  0
 73 74  1  0  0  0  0
M  CHG  2  83   1  84   1
M  ISO  4  38 100  69 101  77 100  92 101
M  END
> <Batch ID>
0152

> <Smiles>
CNC(C)C(=O)NC(C(=O)N1Cc2cc([101O:1][101CH2:1]CN3CCC(Nc4cc(C)c(C5CC[100N:0]([100C:0](=O)N6CCCC(n7nc(-c8ccc(Oc9ccc(F)cc9F)cc8)c(C(N)=O)c7N)C6)CC5)cc4OC)CC3)ccc2CC1C(=O)NC1CCCc2ccccc21)C(C)(C)C

> <Shape>
0.324

> <Color>
0.087

> <Negative vol penalty>
0.000

$$$$
