
  -OEChem-04052321483D

 89 98  0     1  0  0  0  0  0999 V2000
  -28.6499  -36.8669   25.6410 C   0  0  0  0  0  0  0  0  0  0  0  0
  -29.0811  -35.6554   25.1102 C   0  0  0  0  0  0  0  0  0  0  0  0
  -23.8584   -9.7110   22.2227 C   0  0  0  0  0  0  0  0  0  0  0  0
  -25.1489   -7.7436   21.6741 C   0  0  0  0  0  0  0  0  0  0  0  0
  -27.3084  -37.0407   25.9785 C   0  0  0  0  0  0  0  0  0  0  0  0
  -28.1711  -34.6166   24.9176 C   0  0  0  0  0  0  0  0  0  0  0  0
  -28.2030  -30.4852   20.3969 C   0  0  0  0  0  0  0  0  0  0  0  0
  -22.6799   -8.9808   22.0692 C   0  0  0  0  0  0  0  0  0  0  0  0
  -23.9704   -7.0134   21.5206 C   0  0  0  0  0  0  0  0  0  0  0  0
  -28.6643  -29.1713   20.3303 C   0  0  0  0  0  0  0  0  0  0  0  0
  -21.6948   -5.5113   23.5172 C   0  0  0  0  0  0  0  0  0  0  0  0
  -21.6406   -4.2425   24.0940 C   0  0  0  0  0  0  0  0  0  0  0  0
  -30.2722  -20.7029   20.4491 C   0  0  0  0  0  0  0  0  0  0  0  0
  -26.4373  -28.3718   20.7998 C   0  0  0  0  0  0  0  0  0  0  0  0
  -28.6125  -22.4751   21.8228 C   0  0  0  0  0  0  0  0  0  0  0  0
  -21.2593   -3.2687   21.9160 C   0  0  0  0  0  0  0  0  0  0  0  0
  -25.0929   -9.0924   22.0251 C   0  0  0  0  0  0  0  0  0  0  0  0
  -27.0622  -10.0102   23.3621 C   0  0  0  0  0  0  0  0  0  0  0  0
  -26.3796  -36.0068   25.7810 C   0  0  0  0  0  0  0  0  0  0  0  0
  -26.8552  -30.7530   20.6768 C   0  0  0  0  0  0  0  0  0  0  0  0
  -26.8161  -34.7763   25.2540 C   0  0  0  0  0  0  0  0  0  0  0  0
  -29.4850  -20.2446   21.5054 C   0  0  0  0  0  0  0  0  0  0  0  0
  -25.9608  -29.6900   20.8669 C   0  0  0  0  0  0  0  0  0  0  0  0
  -30.2297  -22.0473   20.0797 C   0  0  0  0  0  0  0  0  0  0  0  0
  -28.6551  -21.1307   22.1923 C   0  0  0  0  0  0  0  0  0  0  0  0
  -22.7359   -7.6320   21.7181 C   0  0  0  0  0  0  0  0  0  0  0  0
  -27.7821  -28.1144   20.5346 C   0  0  0  0  0  0  0  0  0  0  0  0
  -21.5312   -5.6589   22.1397 C   0  0  0  0  0  0  0  0  0  0  0  0
  -29.3998  -22.9334   20.7665 C   0  0  0  0  0  0  0  0  0  0  0  0
  -21.4229   -3.1212   23.2935 C   0  0  0  0  0  0  0  0  0  0  0  0
  -21.3135   -4.5376   21.3392 C   0  0  0  0  0  0  0  0  0  0  0  0
  -26.3106   -9.8463   22.1830 C   0  0  0  0  0  0  0  0  0  0  0  0
  -28.1177  -10.8057   22.9887 C   0  0  0  0  0  0  0  0  0  0  0  0
  -26.8271   -9.4898   24.6773 C   0  0  0  0  0  0  0  0  0  0  0  0
  -25.3049  -32.2658   23.0031 C   0  0  0  0  0  0  0  0  0  0  0  0
  -22.7277  -31.7187   21.1108 C   0  0  0  0  0  0  0  0  0  0  0  0
  -21.2815  -29.8377   18.6579 C   0  0  0  0  0  0  0  0  0  0  0  0
  -30.2858  -15.0656   20.3103 C   0  0  0  0  0  0  0  0  0  0  0  0
  -24.9489  -36.2254   26.2051 C   0  0  0  0  0  0  0  0  0  0  0  0
  -26.3679  -32.1754   20.7188 C   0  0  0  0  0  0  0  0  0  0  0  0
  -24.5001  -29.9237   21.1503 C   0  0  0  0  0  0  0  0  0  0  0  0
  -23.9774  -35.2031   25.6207 C   0  0  0  0  0  0  0  0  0  0  0  0
  -29.7242  -12.2289   18.4165 C   0  0  0  0  0  0  0  0  0  0  0  0
  -24.5341  -33.7909   25.7711 C   0  0  0  0  0  0  0  0  0  0  0  0
  -28.8476  -11.3587   19.3167 C   0  0  0  0  0  0  0  0  0  0  0  0
  -28.4735  -17.9454   21.1703 C   0  0  0  0  0  0  0  0  0  0  0  0
  -30.9475  -18.1802   21.6538 C   0  0  0  0  0  0  0  0  0  0  0  0
  -29.3061  -13.6925   18.4976 C   0  0  0  0  0  0  0  0  0  0  0  0
  -28.5647  -16.4618   21.5387 C   0  0  0  0  0  0  0  0  0  0  0  0
  -30.9748  -16.7028   22.0346 C   0  0  0  0  0  0  0  0  0  0  0  0
  -28.4474  -13.3882   20.7972 C   0  0  0  0  0  0  0  0  0  0  0  0
  -29.5490  -18.7786   21.8904 C   0  0  0  0  0  0  0  0  0  0  0  0
  -25.8545  -33.6341   25.0072 C   0  0  1  0  0  0  0  0  0  0  0  0
  -25.0800  -32.3423   21.5194 C   0  0  1  0  0  0  0  0  0  0  0  0
  -28.8320  -11.8951   20.7591 C   0  0  1  0  0  0  0  0  0  0  0  0
  -31.0784  -22.5204   18.9459 C   0  0  0  0  0  0  0  0  0  0  0  0
  -26.3002  -20.8432   23.0440 C   0  0  0  0  0  0  0  0  0  0  0  0
  -28.1714  -21.3454   24.6568 C   0  0  0  0  0  0  0  0  0  0  0  0
  -19.1533  -29.6078   17.3482 C   0  0  0  0  0  0  0  0  0  0  0  0
  -21.3795  -30.4393   23.5307 C   0  0  0  0  0  0  0  0  0  0  0  0
  -19.7146  -29.4086   21.9706 C   0  0  0  0  0  0  0  0  0  0  0  0
  -19.8833  -31.8910   22.1492 C   0  0  0  0  0  0  0  0  0  0  0  0
  -22.6702  -30.3359   16.0923 C   0  0  0  0  0  0  0  0  0  0  0  0
  -29.5864  -26.5967   20.8458 C   0  0  0  0  0  0  0  0  0  1  0  0
  -29.7149  -25.1985   21.4188 C   0  0  0  0  0  0  0  0  0  0  0  0
  -27.8030  -20.6636   23.3264 C   0  0  0  0  0  0  0  0  0  0  0  0
  -21.7172  -30.6052   20.9764 C   0  0  1  0  0  0  0  0  0  0  0  0
  -20.5402  -30.2301   17.3925 C   0  0  2  0  0  0  0  0  0  0  0  0
  -20.7015  -30.5813   22.1533 C   0  0  0  0  0  0  0  0  0  0  0  0
  -26.8435  -10.4863   21.1388 N   0  0  0  0  0  0  0  0  0  0  0  0
  -27.9410  -11.0602   21.6604 N   0  0  0  0  0  0  0  0  0  0  0  0
  -24.0732  -31.3322   21.1876 N   0  0  0  0  0  0  0  0  0  0  0  0
  -29.3004  -14.1630   19.8827 N   0  0  0  0  0  0  0  0  0  0  0  0
  -29.9298  -15.9586   21.3321 N   0  0  0  0  0  0  0  0  0  0  0  0
  -29.1705  -11.3053   23.6702 N   0  0  0  0  0  0  0  0  0  0  0  0
  -25.6955   -8.6900   24.8870 N   0  0  0  0  0  0  0  0  0  0  0  0
  -25.6034  -33.4806   23.5902 N   0  0  0  0  0  0  0  0  0  0  0  0
  -21.1050  -30.7661   19.6619 N   0  0  0  0  0  0  0  0  0  0  0  0
  -21.2957  -29.7807   16.1891 N   0  3  0  0  0  0  0  0  0  0  0  0
  -27.5889   -9.7406   25.6418 O   0  0  0  0  0  0  0  0  0  0  0  0
  -25.2129  -31.1850   23.5732 O   0  0  0  0  0  0  0  0  0  0  0  0
  -22.3380  -32.8887   21.1393 O   0  0  0  0  0  0  0  0  0  0  0  0
  -21.9472  -28.8085   18.7478 O   0  0  0  0  0  0  0  0  0  0  0  0
  -31.4174  -15.0732   19.8097 O   0  0  0  0  0  0  0  0  0  0  0  0
  -21.5861   -6.9192   21.5685 O   0  0  0  0  0  0  0  0  0  0  0  0
  -28.2330  -26.8222   20.4703 O   0  0  0  0  0  0  0  0  0  1  0  0
  -29.3473  -24.2499   20.4194 O   0  0  0  0  0  0  0  0  0  0  0  0
  -21.3724   -1.9027   23.8473 F   0  0  0  0  0  0  0  0  0  0  0  0
  -21.1568   -4.6729   20.0152 F   0  0  0  0  0  0  0  0  0  0  0  0
  1  2  1  0  0  0  0
  1  5  2  0  0  0  0
  2  6  2  0  0  0  0
  3  8  2  0  0  0  0
  3 17  1  0  0  0  0
  4  9  1  0  0  0  0
  4 17  2  0  0  0  0
  5 19  1  0  0  0  0
  6 21  1  0  0  0  0
  7 10  2  0  0  0  0
  7 20  1  0  0  0  0
  8 26  1  0  0  0  0
  9 26  2  0  0  0  0
 10 27  1  0  0  0  0
 11 12  2  0  0  0  0
 11 28  1  0  0  0  0
 12 30  1  0  0  0  0
 13 22  2  0  0  0  0
 13 24  1  0  0  0  0
 14 23  1  0  0  0  0
 14 27  2  0  0  0  0
 15 25  2  0  0  0  0
 15 29  1  0  0  0  0
 16 30  2  0  0  0  0
 16 31  1  0  0  0  0
 17 32  1  0  0  0  0
 18 32  1  0  0  0  0
 18 33  2  0  0  0  0
 18 34  1  0  0  0  0
 19 21  2  0  0  0  0
 19 39  1  0  0  0  0
 20 23  2  0  0  0  0
 20 40  1  0  0  0  0
 21 53  1  0  0  0  0
 22 25  1  0  0  0  0
 22 52  1  0  0  0  0
 23 41  1  0  0  0  0
 24 29  2  0  0  0  0
 24 56  1  0  0  0  0
 25 66  1  0  0  0  0
 26 85  1  0  0  0  0
 27 86  1  0  0  0  0
 28 31  2  0  0  0  0
 28 85  1  0  0  0  0
 29 87  1  0  0  0  0
 30 88  1  0  0  0  0
 31 89  1  0  0  0  0
 32 70  2  0  0  0  0
 33 71  1  0  0  0  0
 33 75  1  0  0  0  0
 34 76  1  0  0  0  0
 34 80  2  0  0  0  0
 35 54  1  0  0  0  0
 35 77  1  0  0  0  0
 35 81  2  0  0  0  0
 36 67  1  0  0  0  0
 36 72  1  0  0  0  0
 36 82  2  0  0  0  0
 37 68  1  0  0  0  0
 37 78  1  0  0  0  0
 37 83  2  0  0  0  0
 38 73  1  0  0  0  0
 38 74  1  0  0  0  0
 38 84  2  0  0  0  0
 39 42  1  0  0  0  0
 40 54  1  0  0  0  0
 41 72  1  0  0  0  0
 42 44  1  0  0  0  0
 43 45  1  0  0  0  0
 43 48  1  0  0  0  0
 44 53  1  0  0  0  0
 45 55  1  0  0  0  0
 46 49  1  0  0  0  0
 46 52  1  0  0  0  0
 47 50  1  0  0  0  0
 47 52  1  0  0  0  0
 48 73  1  0  0  0  0
 49 74  1  0  0  0  0
 50 74  1  0  0  0  0
 51 55  1  0  0  0  0
 51 73  1  0  0  0  0
 53 77  1  0  0  0  0
 54 72  1  0  0  0  0
 55 71  1  0  0  0  0
 57 66  1  0  0  0  0
 58 66  1  0  0  0  0
 59 68  1  0  0  0  0
 60 69  1  0  0  0  0
 61 69  1  0  0  0  0
 62 69  1  0  0  0  0
 63 79  1  0  0  0  0
 64 65  1  0  0  0  0
 64 86  1  0  0  0  0
 65 87  1  0  0  0  0
 67 69  1  0  0  0  0
 67 78  1  0  0  0  0
 68 79  1  0  0  0  0
 70 71  1  0  0  0  0
M  CHG  1  79   1
M  ISO  4  38 100  64 101  74 100  86 101
M  END
> <Batch ID>
0153

> <Smiles>
CNC(C)C(=O)NC(C(=O)N1Cc2cc([101O:1][101CH2:1]COc3cc(C(C)C)c(C4CC[100N:0]([100C:0](=O)N5CCCC(n6nc(-c7ccc(Oc8ccc(F)cc8F)cc7)c(C(N)=O)c6N)C5)CC4)cc3C)ccc2CC1C(=O)NC1CCCc2ccccc21)C(C)(C)C

> <Shape>
0.316

> <Color>
0.095

> <Negative vol penalty>
0.000

$$$$

  -OEChem-04052321483D

 88 97  0     1  0  0  0  0  0999 V2000
  -28.6357  -33.5546   28.2904 C   0  0  0  0  0  0  0  0  0  0  0  0
  -28.4165  -32.4375   27.4907 C   0  0  0  0  0  0  0  0  0  0  0  0
  -26.5755   -8.2190   21.9637 C   0  0  0  0  0  0  0  0  0  0  0  0
  -24.7088   -8.0049   20.4449 C   0  0  0  0  0  0  0  0  0  0  0  0
  -27.7512  -34.6311   28.2398 C   0  0  0  0  0  0  0  0  0  0  0  0
  -27.3118  -32.3959   26.6407 C   0  0  0  0  0  0  0  0  0  0  0  0
  -28.4784  -30.6795   22.0214 C   0  0  0  0  0  0  0  0  0  0  0  0
  -26.0973   -7.1378   22.7039 C   0  0  0  0  0  0  0  0  0  0  0  0
  -24.2306   -6.9237   21.1851 C   0  0  0  0  0  0  0  0  0  0  0  0
  -28.6342  -29.3019   21.8746 C   0  0  0  0  0  0  0  0  0  0  0  0
  -22.5242   -6.4344   24.0625 C   0  0  0  0  0  0  0  0  0  0  0  0
  -21.1609   -6.4018   24.3554 C   0  0  0  0  0  0  0  0  0  0  0  0
  -26.4057  -29.1531   20.9632 C   0  0  0  0  0  0  0  0  0  0  0  0
  -28.2533  -22.9274   21.9284 C   0  0  0  0  0  0  0  0  0  0  0  0
  -20.9573   -4.3037   23.1749 C   0  0  0  0  0  0  0  0  0  0  0  0
  -25.8812   -8.6526   20.8342 C   0  0  0  0  0  0  0  0  0  0  0  0
  -27.2653   -9.7273   18.9802 C   0  0  0  0  0  0  0  0  0  0  0  0
  -26.6405  -34.6067   27.3817 C   0  0  0  0  0  0  0  0  0  0  0  0
  -27.2791  -31.3038   21.6497 C   0  0  0  0  0  0  0  0  0  0  0  0
  -26.4108  -33.4726   26.5796 C   0  0  0  0  0  0  0  0  0  0  0  0
  -26.2381  -30.5392   21.1039 C   0  0  0  0  0  0  0  0  0  0  0  0
  -28.2571  -24.3000   22.1766 C   0  0  0  0  0  0  0  0  0  0  0  0
  -28.9826  -25.1564   21.3484 C   0  0  0  0  0  0  0  0  0  0  0  0
  -29.7006  -23.2677   20.0240 C   0  0  0  0  0  0  0  0  0  0  0  0
  -24.9248   -6.4901   22.3146 C   0  0  0  0  0  0  0  0  0  0  0  0
  -27.5967  -28.5380   21.3481 C   0  0  0  0  0  0  0  0  0  0  0  0
  -23.1042   -5.4016   23.3258 C   0  0  0  0  0  0  0  0  0  0  0  0
  -28.9751  -22.4112   20.8522 C   0  0  0  0  0  0  0  0  0  0  0  0
  -29.7043  -24.6403   20.2721 C   0  0  0  0  0  0  0  0  0  0  0  0
  -20.3774   -5.3365   23.9117 C   0  0  0  0  0  0  0  0  0  0  0  0
  -22.3207   -4.3363   22.8820 C   0  0  0  0  0  0  0  0  0  0  0  0
  -26.3744   -9.7698   20.0695 C   0  0  0  0  0  0  0  0  0  0  0  0
  -27.4160  -11.0409   18.6085 C   0  0  0  0  0  0  0  0  0  0  0  0
  -27.8997   -8.6011   18.3599 C   0  0  0  0  0  0  0  0  0  0  0  0
  -25.0437  -32.9621   23.1850 C   0  0  0  0  0  0  0  0  0  0  0  0
  -23.8646  -33.3971   20.1946 C   0  0  0  0  0  0  0  0  0  0  0  0
  -23.6526  -32.2879   16.9741 C   0  0  0  0  0  0  0  0  0  0  0  0
  -28.1973  -16.2468   19.6578 C   0  0  0  0  0  0  0  0  0  0  0  0
  -25.6860  -35.7744   27.3965 C   0  0  0  0  0  0  0  0  0  0  0  0
  -27.1367  -32.7947   21.7895 C   0  0  0  0  0  0  0  0  0  0  0  0
  -24.9381  -31.1641   20.6706 C   0  0  0  0  0  0  0  0  0  0  0  0
  -24.7466  -35.8084   26.1936 C   0  0  0  0  0  0  0  0  0  0  0  0
  -24.8703  -15.1786   19.9927 C   0  0  0  0  0  0  0  0  0  0  0  0
  -24.1456  -34.4284   25.9464 C   0  0  0  0  0  0  0  0  0  0  0  0
  -25.0342  -13.6593   19.9552 C   0  0  0  0  0  0  0  0  0  0  0  0
  -27.6655  -19.8513   18.9706 C   0  0  0  0  0  0  0  0  0  0  0  0
  -27.3666  -19.4318   21.4493 C   0  0  0  0  0  0  0  0  0  0  0  0
  -25.9742  -15.8540   20.8081 C   0  0  0  0  0  0  0  0  0  0  0  0
  -28.4903  -18.5686   18.8780 C   0  0  0  0  0  0  0  0  0  0  0  0
  -28.2008  -18.1615   21.3008 C   0  0  0  0  0  0  0  0  0  0  0  0
  -27.5078  -13.9695   20.3465 C   0  0  0  0  0  0  0  0  0  0  0  0
  -25.2376  -33.4003   25.6266 C   0  0  1  0  0  0  0  0  0  0  0  0
  -25.6829  -33.2524   21.8566 C   0  0  1  0  0  0  0  0  0  0  0  0
  -26.4464  -13.2673   19.4853 C   0  0  1  0  0  0  0  0  0  0  0  0
  -27.6875  -20.4671   20.3700 C   0  0  0  0  0  0  0  0  0  0  0  0
  -27.4765  -24.8277   23.3357 C   0  0  0  0  0  0  0  0  0  0  0  0
  -30.4731  -22.7127   18.8704 C   0  0  0  0  0  0  0  0  0  0  0  0
  -22.5847  -32.8322   14.7694 C   0  0  0  0  0  0  0  0  0  0  0  0
  -21.1974  -32.3339   21.2268 C   0  0  0  0  0  0  0  0  0  0  0  0
  -20.4871  -32.0061   18.8485 C   0  0  0  0  0  0  0  0  0  0  0  0
  -21.0128  -34.2959   19.6870 C   0  0  0  0  0  0  0  0  0  0  0  0
  -26.2796  -32.6120   15.6501 C   0  0  0  0  0  0  0  0  0  0  0  0
  -29.7328  -26.0126   18.3300 C   0  0  0  0  0  0  0  0  0  0  0  0
  -28.9896  -26.6286   21.6123 C   0  0  0  0  0  0  0  0  0  1  0  0
  -22.8959  -32.6519   19.3085 C   0  0  1  0  0  0  0  0  0  0  0  0
  -23.8135  -33.0087   15.6478 C   0  0  2  0  0  0  0  0  0  0  0  0
  -21.4219  -32.8096   19.7776 C   0  0  0  0  0  0  0  0  0  0  0  0
  -25.9866  -11.0120   20.3703 N   0  0  0  0  0  0  0  0  0  0  0  0
  -26.6369  -11.7623   19.4646 N   0  0  0  0  0  0  0  0  0  0  0  0
  -24.8449  -32.6244   20.8331 N   0  0  0  0  0  0  0  0  0  0  0  0
  -27.3003  -15.4191   20.3495 N   0  0  0  0  0  0  0  0  0  0  0  0
  -28.1350  -17.6229   19.9356 N   0  0  0  0  0  0  0  0  0  0  0  0
  -28.1377  -11.6378   17.6362 N   0  0  0  0  0  0  0  0  0  0  0  0
  -27.6347   -7.3218   18.8671 N   0  0  0  0  0  0  0  0  0  0  0  0
  -25.6862  -33.5486   24.2587 N   0  0  0  0  0  0  0  0  0  0  0  0
  -23.1435  -33.1196   17.9490 N   0  0  0  0  0  0  0  0  0  0  0  0
  -24.9971  -32.4811   14.9118 N   0  3  0  0  0  0  0  0  0  0  0  0
  -28.6914   -8.7271   17.3950 O   0  0  0  0  0  0  0  0  0  0  0  0
  -24.0410  -32.2592   23.2323 O   0  0  0  0  0  0  0  0  0  0  0  0
  -23.7599  -34.6208   20.3102 O   0  0  0  0  0  0  0  0  0  0  0  0
  -23.9455  -31.1043   17.1288 O   0  0  0  0  0  0  0  0  0  0  0  0
  -29.0031  -15.7877   18.8387 O   0  0  0  0  0  0  0  0  0  0  0  0
  -24.4580   -5.4349   23.0365 O   0  0  0  0  0  0  0  0  0  0  0  0
  -28.9591  -21.0605   20.6236 O   0  0  0  0  0  0  0  0  0  0  0  0
  -30.4140  -25.4778   19.4621 O   0  0  0  0  0  0  0  0  0  0  0  0
  -27.7469  -27.1831   21.2033 O   0  0  0  0  0  0  0  0  0  1  0  0
  -19.0685   -5.3047   24.1943 F   0  0  0  0  0  0  0  0  0  0  0  0
  -22.8724   -3.3406   22.1748 F   0  0  0  0  0  0  0  0  0  0  0  0
  1  2  1  0  0  0  0
  1  5  2  0  0  0  0
  2  6  2  0  0  0  0
  3  8  2  0  0  0  0
  3 16  1  0  0  0  0
  4  9  1  0  0  0  0
  4 16  2  0  0  0  0
  5 18  1  0  0  0  0
  6 20  1  0  0  0  0
  7 10  2  0  0  0  0
  7 19  1  0  0  0  0
  8 25  1  0  0  0  0
  9 25  2  0  0  0  0
 10 26  1  0  0  0  0
 11 12  2  0  0  0  0
 11 27  1  0  0  0  0
 12 30  1  0  0  0  0
 13 21  1  0  0  0  0
 13 26  2  0  0  0  0
 14 22  2  0  0  0  0
 14 28  1  0  0  0  0
 15 30  2  0  0  0  0
 15 31  1  0  0  0  0
 16 32  1  0  0  0  0
 17 32  1  0  0  0  0
 17 33  2  0  0  0  0
 17 34  1  0  0  0  0
 18 20  2  0  0  0  0
 18 39  1  0  0  0  0
 19 21  2  0  0  0  0
 19 40  1  0  0  0  0
 20 52  1  0  0  0  0
 21 41  1  0  0  0  0
 22 23  1  0  0  0  0
 22 56  1  0  0  0  0
 23 29  2  0  0  0  0
 23 64  1  0  0  0  0
 24 28  2  0  0  0  0
 24 29  1  0  0  0  0
 24 57  1  0  0  0  0
 25 83  1  0  0  0  0
 26 86  1  0  0  0  0
 27 31  2  0  0  0  0
 27 83  1  0  0  0  0
 28 84  1  0  0  0  0
 29 85  1  0  0  0  0
 30 87  1  0  0  0  0
 31 88  1  0  0  0  0
 32 68  2  0  0  0  0
 33 69  1  0  0  0  0
 33 73  1  0  0  0  0
 34 74  1  0  0  0  0
 34 78  2  0  0  0  0
 35 53  1  0  0  0  0
 35 75  1  0  0  0  0
 35 79  2  0  0  0  0
 36 65  1  0  0  0  0
 36 70  1  0  0  0  0
 36 80  2  0  0  0  0
 37 66  1  0  0  0  0
 37 76  1  0  0  0  0
 37 81  2  0  0  0  0
 38 71  1  0  0  0  0
 38 72  1  0  0  0  0
 38 82  2  0  0  0  0
 39 42  1  0  0  0  0
 40 53  1  0  0  0  0
 41 70  1  0  0  0  0
 42 44  1  0  0  0  0
 43 45  1  0  0  0  0
 43 48  1  0  0  0  0
 44 52  1  0  0  0  0
 45 54  1  0  0  0  0
 46 49  1  0  0  0  0
 46 55  1  0  0  0  0
 47 50  1  0  0  0  0
 47 55  1  0  0  0  0
 48 71  1  0  0  0  0
 49 72  1  0  0  0  0
 50 72  1  0  0  0  0
 51 54  1  0  0  0  0
 51 71  1  0  0  0  0
 52 75  1  0  0  0  0
 53 70  1  0  0  0  0
 54 69  1  0  0  0  0
 55 84  1  0  0  0  0
 58 66  1  0  0  0  0
 59 67  1  0  0  0  0
 60 67  1  0  0  0  0
 61 67  1  0  0  0  0
 62 77  1  0  0  0  0
 63 85  1  0  0  0  0
 64 86  1  0  0  0  0
 65 67  1  0  0  0  0
 65 76  1  0  0  0  0
 66 77  1  0  0  0  0
 68 69  1  0  0  0  0
M  CHG  1  77   1
M  ISO  4  38 100  64 101  72 100  86 101
M  END
> <Batch ID>
0153

> <Smiles>
CNC(C)C(=O)NC(C(=O)N1Cc2cc([101O:1][101CH2:1]c3c(C)cc(OC4CC[100N:0]([100C:0](=O)N5CCCC(n6nc(-c7ccc(Oc8ccc(F)cc8F)cc7)c(C(N)=O)c6N)C5)CC4)c(C)c3OC)ccc2CC1C(=O)NC1CCCc2ccccc21)C(C)(C)C

> <Shape>
0.244

> <Color>
0.085

> <Negative vol penalty>
0.000

$$$$

  -OEChem-04052321483D

 84 93  0     1  0  0  0  0  0999 V2000
  -17.5487  -24.2411   24.0805 C   0  0  0  0  0  0  0  0  0  0  0  0
  -18.0242  -23.5935   22.9447 C   0  0  0  0  0  0  0  0  0  0  0  0
  -26.2869  -12.7924   21.6291 C   0  0  0  0  0  0  0  0  0  0  0  0
  -25.7174  -13.7647   19.4919 C   0  0  0  0  0  0  0  0  0  0  0  0
  -17.8805  -25.5755   24.3111 C   0  0  0  0  0  0  0  0  0  0  0  0
  -18.8311  -24.2804   22.0383 C   0  0  0  0  0  0  0  0  0  0  0  0
  -24.2786  -23.2336   17.5056 C   0  0  0  0  0  0  0  0  0  0  0  0
  -28.3120  -22.2928   16.4288 C   0  0  0  0  0  0  0  0  0  0  0  0
  -25.0596  -12.1301   21.6548 C   0  0  0  0  0  0  0  0  0  0  0  0
  -24.4901  -13.1024   19.5177 C   0  0  0  0  0  0  0  0  0  0  0  0
  -24.6313  -23.4576   16.1755 C   0  0  0  0  0  0  0  0  0  0  0  0
  -22.2271   -9.8982   22.1135 C   0  0  0  0  0  0  0  0  0  0  0  0
  -22.2224   -8.5558   22.4925 C   0  0  0  0  0  0  0  0  0  0  0  0
  -28.3388  -21.3075   17.4095 C   0  0  0  0  0  0  0  0  0  0  0  0
  -25.2045  -25.7372   16.7177 C   0  0  0  0  0  0  0  0  0  0  0  0
  -23.6824   -8.0281   20.6412 C   0  0  0  0  0  0  0  0  0  0  0  0
  -26.6158  -13.6098   20.5476 C   0  0  0  0  0  0  0  0  0  0  0  0
  -29.0944  -13.8206   19.9820 C   0  0  0  0  0  0  0  0  0  0  0  0
  -18.6997  -26.2762   23.4120 C   0  0  0  0  0  0  0  0  0  0  0  0
  -24.3761  -24.2645   18.4512 C   0  0  0  0  0  0  0  0  0  0  0  0
  -19.1731  -25.6258   22.2564 C   0  0  0  0  0  0  0  0  0  0  0  0
  -28.8069  -23.5610   16.7116 C   0  0  0  0  0  0  0  0  0  0  0  0
  -24.8549  -25.5230   18.0597 C   0  0  0  0  0  0  0  0  0  0  0  0
  -24.1612  -12.2851   20.5991 C   0  0  0  0  0  0  0  0  0  0  0  0
  -25.0916  -24.7103   15.7808 C   0  0  0  0  0  0  0  0  0  0  0  0
  -22.9594  -10.3055   20.9983 C   0  0  0  0  0  0  0  0  0  0  0  0
  -22.9501   -7.6208   21.7563 C   0  0  0  0  0  0  0  0  0  0  0  0
  -23.6870   -9.3705   20.2622 C   0  0  0  0  0  0  0  0  0  0  0  0
  -27.8832  -14.2946   20.5207 C   0  0  0  0  0  0  0  0  0  0  0  0
  -29.3138  -23.7914   17.9803 C   0  0  0  0  0  0  0  0  0  0  0  0
  -28.8668  -21.6387   18.6470 C   0  0  0  0  0  0  0  0  0  0  0  0
  -29.9905  -14.8373   20.2048 C   0  0  0  0  0  0  0  0  0  0  0  0
  -29.3835  -12.5728   19.3378 C   0  0  0  0  0  0  0  0  0  0  0  0
  -22.3096  -25.8049   20.3114 C   0  0  0  0  0  0  0  0  0  0  0  0
  -24.9998  -27.1628   21.5120 C   0  0  0  0  0  0  0  0  0  0  0  0
  -28.2700  -28.0190   21.0438 C   0  0  0  0  0  0  0  0  0  0  0  0
  -29.3726  -20.7346   20.9433 C   0  0  0  0  0  0  0  0  0  0  0  0
  -18.9926  -27.7313   23.6795 C   0  0  0  0  0  0  0  0  0  0  0  0
  -24.0171  -23.9992   19.8875 C   0  0  0  0  0  0  0  0  0  0  0  0
  -24.9973  -26.6574   19.0402 C   0  0  0  0  0  0  0  0  0  0  0  0
  -20.1600  -28.2780   22.8618 C   0  0  0  0  0  0  0  0  0  0  0  0
  -30.8815  -18.4501   23.2196 C   0  0  0  0  0  0  0  0  0  0  0  0
  -20.0325  -27.8565   21.4014 C   0  0  0  0  0  0  0  0  0  0  0  0
  -30.3990  -17.0816   22.7331 C   0  0  0  0  0  0  0  0  0  0  0  0
  -30.0154  -24.8554   14.8288 C   0  0  0  0  0  0  0  0  0  0  0  0
  -29.8009  -19.5192   23.0681 C   0  0  0  0  0  0  0  0  0  0  0  0
  -28.7370  -18.2597   21.2375 C   0  0  0  0  0  0  0  0  0  0  0  0
  -28.7817  -24.6173   15.6712 C   0  0  1  0  0  0  0  0  0  0  0  0
  -20.0711  -26.3299   21.2624 C   0  0  1  0  0  0  0  0  0  0  0  0
  -23.6686  -25.2675   20.6604 C   0  0  1  0  0  0  0  0  0  0  0  0
  -29.8129  -17.1640   21.3099 C   0  0  2  0  0  0  0  0  0  0  0  0
  -28.8084  -24.2175   14.2118 C   0  0  1  0  0  0  0  0  0  0  0  0
  -29.8569  -25.1349   18.3431 C   0  0  0  0  0  0  0  0  0  0  0  0
  -30.5580  -28.8752   21.6179 C   0  0  0  0  0  0  0  0  0  0  0  0
  -23.7261  -29.8793   20.9568 C   0  0  0  0  0  0  0  0  0  0  0  0
  -25.9907  -30.9156   21.2129 C   0  0  0  0  0  0  0  0  0  0  0  0
  -24.9419  -29.7232   23.1367 C   0  0  0  0  0  0  0  0  0  0  0  0
  -29.1608  -25.3541   21.9731 C   0  0  0  0  0  0  0  0  0  0  0  0
  -26.8620  -24.3103   12.6493 C   0  0  0  0  0  0  0  0  0  0  0  0
  -25.9369  -23.8181   13.7447 C   0  0  0  0  0  0  0  0  0  1  0  0
  -25.8202  -28.3856   21.1792 C   0  0  1  0  0  0  0  0  0  0  0  0
  -29.4962  -27.8287   21.9182 C   0  0  2  0  0  0  0  0  0  0  0  0
  -25.1153  -29.7053   21.6023 C   0  0  0  0  0  0  0  0  0  0  0  0
  -27.9962  -15.5173   21.0463 N   0  0  0  0  0  0  0  0  0  0  0  0
  -29.3567  -22.8596   18.9588 N   0  0  0  0  0  0  0  0  0  0  0  0
  -29.2891  -15.8202   20.8390 N   0  0  0  0  0  0  0  0  0  0  0  0
  -24.6276  -26.3502   20.4318 N   0  0  0  0  0  0  0  0  0  0  0  0
  -29.2957  -19.5421   21.6936 N   0  0  0  0  0  0  0  0  0  0  0  0
  -31.3022  -14.9776   19.9182 N   0  0  0  0  0  0  0  0  0  0  0  0
  -28.3471  -11.6408   19.1908 N   0  0  0  0  0  0  0  0  0  0  0  0
  -28.8914  -20.6271   19.6389 N   0  0  0  0  0  0  0  0  0  0  0  0
  -21.4303  -25.8461   21.3766 N   0  0  0  0  0  0  0  0  0  0  0  0
  -27.1262  -28.1813   21.7965 N   0  0  0  0  0  0  0  0  0  0  0  0
  -28.0052  -25.0333   13.2614 N   0  3  0  0  0  0  0  0  0  0  0  0
  -30.0888  -26.4799   21.6928 N   0  3  0  0  0  0  0  0  0  0  0  0
  -30.5309  -12.2859   18.9199 O   0  0  0  0  0  0  0  0  0  0  0  0
  -22.0765  -26.1576   19.1612 O   0  0  0  0  0  0  0  0  0  0  0  0
  -24.7062  -26.9332   22.6879 O   0  0  0  0  0  0  0  0  0  0  0  0
  -28.3222  -28.0270   19.8159 O   0  0  0  0  0  0  0  0  0  0  0  0
  -29.8565  -21.7673   21.4139 O   0  0  0  0  0  0  0  0  0  0  0  0
  -22.9636  -11.6387   20.6238 O   0  0  0  0  0  0  0  0  0  0  0  0
  -25.4358  -24.9318   14.4830 O   0  0  0  0  0  0  0  0  0  1  0  0
  -22.9467   -6.3320   22.1213 F   0  0  0  0  0  0  0  0  0  0  0  0
  -24.3933   -9.7561   19.1906 F   0  0  0  0  0  0  0  0  0  0  0  0
  1  2  1  0  0  0  0
  1  5  2  0  0  0  0
  2  6  2  0  0  0  0
  3  9  2  0  0  0  0
  3 17  1  0  0  0  0
  4 10  1  0  0  0  0
  4 17  2  0  0  0  0
  5 19  1  0  0  0  0
  6 21  1  0  0  0  0
  7 11  2  0  0  0  0
  7 20  1  0  0  0  0
  8 14  2  0  0  0  0
  8 22  1  0  0  0  0
  9 24  1  0  0  0  0
 10 24  2  0  0  0  0
 11 25  1  0  0  0  0
 12 13  2  0  0  0  0
 12 26  1  0  0  0  0
 13 27  1  0  0  0  0
 14 31  1  0  0  0  0
 15 23  1  0  0  0  0
 15 25  2  0  0  0  0
 16 27  2  0  0  0  0
 16 28  1  0  0  0  0
 17 29  1  0  0  0  0
 18 29  1  0  0  0  0
 18 32  2  0  0  0  0
 18 33  1  0  0  0  0
 19 21  2  0  0  0  0
 19 38  1  0  0  0  0
 20 23  2  0  0  0  0
 20 39  1  0  0  0  0
 21 49  1  0  0  0  0
 22 30  2  0  0  0  0
 22 48  1  0  0  0  0
 23 40  1  0  0  0  0
 24 81  1  0  0  0  0
 25 82  1  0  0  0  0
 26 28  2  0  0  0  0
 26 81  1  0  0  0  0
 27 83  1  0  0  0  0
 28 84  1  0  0  0  0
 29 64  2  0  0  0  0
 30 53  1  0  0  0  0
 30 65  1  0  0  0  0
 31 65  2  0  0  0  0
 31 71  1  0  0  0  0
 32 66  1  0  0  0  0
 32 69  1  0  0  0  0
 33 70  1  0  0  0  0
 33 76  2  0  0  0  0
 34 50  1  0  0  0  0
 34 72  1  0  0  0  0
 34 77  2  0  0  0  0
 35 61  1  0  0  0  0
 35 67  1  0  0  0  0
 35 78  2  0  0  0  0
 36 62  1  0  0  0  0
 36 73  1  0  0  0  0
 36 79  2  0  0  0  0
 37 68  1  0  0  0  0
 37 71  1  0  0  0  0
 37 80  2  0  0  0  0
 38 41  1  0  0  0  0
 39 50  1  0  0  0  0
 40 67  1  0  0  0  0
 41 43  1  0  0  0  0
 42 44  1  0  0  0  0
 42 46  1  0  0  0  0
 43 49  1  0  0  0  0
 44 51  1  0  0  0  0
 45 48  1  0  0  0  0
 45 52  1  0  0  0  0
 46 68  1  0  0  0  0
 47 51  1  0  0  0  0
 47 68  1  0  0  0  0
 48 52  1  0  0  0  0
 49 72  1  0  0  0  0
 50 67  1  0  0  0  0
 51 66  1  0  0  0  0
 52 74  1  0  0  0  0
 54 62  1  0  0  0  0
 55 63  1  0  0  0  0
 56 63  1  0  0  0  0
 57 63  1  0  0  0  0
 58 75  1  0  0  0  0
 59 60  1  0  0  0  0
 59 74  1  0  0  0  0
 60 82  1  0  0  0  0
 61 63  1  0  0  0  0
 61 73  1  0  0  0  0
 62 75  1  0  0  0  0
 64 66  1  0  0  0  0
M  CHG  2  74   1  75   1
M  ISO  4  37 100  60 101  71 100  82 101
M  END
> <Batch ID>
0153

> <Smiles>
CNC(C)C(=O)NC(C(=O)N1Cc2cc([101O:1][101CH2:1]CNC3CC3c3ccc([100NH:0][100C:0](=O)N4CCCC(n5nc(-c6ccc(Oc7ccc(F)cc7F)cc6)c(C(N)=O)c5N)C4)nc3C)ccc2CC1C(=O)NC1CCCc2ccccc21)C(C)(C)C

> <Shape>
0.283

> <Color>
0.079

> <Negative vol penalty>
0.000

$$$$

  -OEChem-04052321483D

 87 96  0     1  0  0  0  0  0999 V2000
  -20.8794  -23.8746   22.2095 C   0  0  0  0  0  0  0  0  0  0  0  0
  -21.8872  -24.5193   21.4994 C   0  0  0  0  0  0  0  0  0  0  0  0
  -26.4134  -14.0171   22.1443 C   0  0  0  0  0  0  0  0  0  0  0  0
  -25.7813  -14.1079   19.8142 C   0  0  0  0  0  0  0  0  0  0  0  0
  -19.8104  -24.6085   22.7219 C   0  0  0  0  0  0  0  0  0  0  0  0
  -21.8260  -25.8981   21.3004 C   0  0  0  0  0  0  0  0  0  0  0  0
  -26.2686  -28.1807   22.1357 C   0  0  0  0  0  0  0  0  0  0  0  0
  -25.5750  -12.9178   22.3290 C   0  0  0  0  0  0  0  0  0  0  0  0
  -24.9429  -13.0085   19.9989 C   0  0  0  0  0  0  0  0  0  0  0  0
  -27.2318  -28.0859   21.1321 C   0  0  0  0  0  0  0  0  0  0  0  0
  -25.2563   -9.6526   20.2453 C   0  0  0  0  0  0  0  0  0  0  0  0
  -25.2996   -8.6386   19.2886 C   0  0  0  0  0  0  0  0  0  0  0  0
  -26.5525  -23.3263   16.7551 C   0  0  0  0  0  0  0  0  0  0  0  0
  -26.6545  -30.3031   20.3771 C   0  0  0  0  0  0  0  0  0  0  0  0
  -26.0155  -21.8522   14.4483 C   0  0  0  0  0  0  0  0  0  0  0  0
  -22.9563   -8.9862   18.8139 C   0  0  0  0  0  0  0  0  0  0  0  0
  -26.5165  -14.6122   20.8869 C   0  0  0  0  0  0  0  0  0  0  0  0
  -28.7403  -15.7294   20.3263 C   0  0  0  0  0  0  0  0  0  0  0  0
  -19.7410  -25.9984   22.5374 C   0  0  0  0  0  0  0  0  0  0  0  0
  -25.4823  -29.3350   22.2609 C   0  0  0  0  0  0  0  0  0  0  0  0
  -20.7543  -26.6510   21.8097 C   0  0  0  0  0  0  0  0  0  0  0  0
  -26.7934  -23.8837   15.4994 C   0  0  0  0  0  0  0  0  0  0  0  0
  -25.6838  -30.4110   21.3847 C   0  0  0  0  0  0  0  0  0  0  0  0
  -26.5249  -23.1467   14.3460 C   0  0  0  0  0  0  0  0  0  0  0  0
  -25.7746  -21.2947   15.7040 C   0  0  0  0  0  0  0  0  0  0  0  0
  -26.0431  -22.0317   16.8574 C   0  0  0  0  0  0  0  0  0  0  0  0
  -24.8397  -12.4134   21.2563 C   0  0  0  0  0  0  0  0  0  0  0  0
  -27.4229  -29.1460   20.2508 C   0  0  0  0  0  0  0  0  0  0  0  0
  -24.0629  -10.3335   20.4864 C   0  0  0  0  0  0  0  0  0  0  0  0
  -24.1497   -8.3053   18.5729 C   0  0  0  0  0  0  0  0  0  0  0  0
  -22.9130  -10.0003   19.7707 C   0  0  0  0  0  0  0  0  0  0  0  0
  -27.3820  -15.7482   20.6957 C   0  0  0  0  0  0  0  0  0  0  0  0
  -29.1016  -17.0537   20.2789 C   0  0  0  0  0  0  0  0  0  0  0  0
  -29.5986  -14.6146   20.0505 C   0  0  0  0  0  0  0  0  0  0  0  0
  -22.3725  -29.9630   22.0649 C   0  0  0  0  0  0  0  0  0  0  0  0
  -23.3056  -32.9179   23.0242 C   0  0  0  0  0  0  0  0  0  0  0  0
  -25.7919  -35.2465   23.2296 C   0  0  0  0  0  0  0  0  0  0  0  0
  -26.0236  -22.0951   19.3758 C   0  0  0  0  0  0  0  0  0  0  0  0
  -18.5417  -26.7423   23.0694 C   0  0  0  0  0  0  0  0  0  0  0  0
  -24.4660  -29.4322   23.3654 C   0  0  0  0  0  0  0  0  0  0  0  0
  -24.8797  -31.6802   21.4893 C   0  0  0  0  0  0  0  0  0  0  0  0
  -18.7432  -28.2539   23.1366 C   0  0  0  0  0  0  0  0  0  0  0  0
  -28.0241  -21.3007   22.2120 C   0  0  0  0  0  0  0  0  0  0  0  0
  -19.3550  -28.7692   21.8378 C   0  0  0  0  0  0  0  0  0  0  0  0
  -28.2151  -19.7858   22.1080 C   0  0  0  0  0  0  0  0  0  0  0  0
  -26.3610  -26.2689   16.0571 C   0  0  0  0  0  0  0  0  0  0  0  0
  -28.7135  -25.3466   16.0994 C   0  0  0  0  0  0  0  0  0  0  0  0
  -26.6298  -21.7289   21.7576 C   0  0  0  0  0  0  0  0  0  0  0  0
  -26.4285  -19.7376   20.3213 C   0  0  0  0  0  0  0  0  0  0  0  0
  -26.9260  -27.6836   16.0607 C   0  0  0  0  0  0  0  0  0  0  0  0
  -29.2605  -26.7684   16.1023 C   0  0  0  0  0  0  0  0  0  0  0  0
  -27.3394  -25.2725   15.4144 C   0  0  0  0  0  0  0  0  0  0  0  0
  -20.7360  -28.1488   21.5943 C   0  0  1  0  0  0  0  0  0  0  0  0
  -23.3678  -30.4516   23.0789 C   0  0  1  0  0  0  0  0  0  0  0  0
  -27.8399  -19.2653   20.7067 C   0  0  2  0  0  0  0  0  0  0  0  0
  -26.7746  -23.7227   12.9909 C   0  0  0  0  0  0  0  0  0  0  0  0
  -25.2288  -19.9059   15.7838 C   0  0  0  0  0  0  0  0  0  0  0  0
  -26.2433  -37.5807   24.0328 C   0  0  0  0  0  0  0  0  0  0  0  0
  -21.8240  -34.0352   20.6021 C   0  0  0  0  0  0  0  0  0  0  0  0
  -23.0761  -36.1808   20.9134 C   0  0  0  0  0  0  0  0  0  0  0  0
  -21.5412  -35.3636   22.7020 C   0  0  0  0  0  0  0  0  0  0  0  0
  -27.8527  -34.3154   25.1389 C   0  0  0  0  0  0  0  0  0  0  0  0
  -28.8068  -29.0839   16.9070 C   0  0  0  0  0  0  0  0  0  0  0  0
  -28.1117  -29.7752   18.0632 C   0  0  0  0  0  0  0  0  0  1  0  0
  -23.7434  -34.1810   22.3228 C   0  0  1  0  0  0  0  0  0  0  0  0
  -26.2779  -36.1019   24.3858 C   0  0  2  0  0  0  0  0  0  0  0  0
  -22.5602  -34.9156   21.6316 C   0  0  0  0  0  0  0  0  0  0  0  0
  -26.9123  -16.9863   20.8708 N   0  0  0  0  0  0  0  0  0  0  0  0
  -27.9814  -17.7577   20.6103 N   0  0  0  0  0  0  0  0  0  0  0  0
  -23.8939  -31.7245   22.5819 N   0  0  0  0  0  0  0  0  0  0  0  0
  -26.3455  -21.2032   20.4206 N   0  0  0  0  0  0  0  0  0  0  0  0
  -30.2650  -17.6729   19.9867 N   0  0  0  0  0  0  0  0  0  0  0  0
  -29.0660  -13.3217   20.1454 N   0  0  0  0  0  0  0  0  0  0  0  0
  -25.8053  -21.4829   18.1420 N   0  0  0  0  0  0  0  0  0  0  0  0
  -21.7324  -28.7921   22.4236 N   0  0  0  0  0  0  0  0  0  0  0  0
  -24.4419  -34.9818   23.3223 N   0  0  0  0  0  0  0  0  0  0  0  0
  -28.2696  -27.7072   16.7647 N   0  3  0  0  0  0  0  0  0  0  0  0
  -27.6770  -35.7376   24.7473 N   0  3  0  0  0  0  0  0  0  0  0  0
  -30.8066  -14.7600   19.7453 O   0  0  0  0  0  0  0  0  0  0  0  0
  -22.1972  -30.6018   21.0339 O   0  0  0  0  0  0  0  0  0  0  0  0
  -22.4776  -32.9883   23.9358 O   0  0  0  0  0  0  0  0  0  0  0  0
  -26.5348  -34.8557   22.3319 O   0  0  0  0  0  0  0  0  0  0  0  0
  -25.9738  -23.3145   19.5556 O   0  0  0  0  0  0  0  0  0  0  0  0
  -24.0217  -11.3406   21.4360 O   0  0  0  0  0  0  0  0  0  0  0  0
  -28.3618  -29.0559   19.2700 O   0  0  0  0  0  0  0  0  0  1  0  0
  -24.1919   -7.3325   17.6531 F   0  0  0  0  0  0  0  0  0  0  0  0
  -21.7640  -10.6516   19.9971 F   0  0  0  0  0  0  0  0  0  0  0  0
  1  2  1  0  0  0  0
  1  5  2  0  0  0  0
  2  6  2  0  0  0  0
  3  8  2  0  0  0  0
  3 17  1  0  0  0  0
  4  9  1  0  0  0  0
  4 17  2  0  0  0  0
  5 19  1  0  0  0  0
  6 21  1  0  0  0  0
  7 10  2  0  0  0  0
  7 20  1  0  0  0  0
  8 27  1  0  0  0  0
  9 27  2  0  0  0  0
 10 28  1  0  0  0  0
 11 12  2  0  0  0  0
 11 29  1  0  0  0  0
 12 30  1  0  0  0  0
 13 22  1  0  0  0  0
 13 26  2  0  0  0  0
 14 23  1  0  0  0  0
 14 28  2  0  0  0  0
 15 24  1  0  0  0  0
 15 25  2  0  0  0  0
 16 30  2  0  0  0  0
 16 31  1  0  0  0  0
 17 32  1  0  0  0  0
 18 32  1  0  0  0  0
 18 33  2  0  0  0  0
 18 34  1  0  0  0  0
 19 21  2  0  0  0  0
 19 39  1  0  0  0  0
 20 23  2  0  0  0  0
 20 40  1  0  0  0  0
 21 53  1  0  0  0  0
 22 24  2  0  0  0  0
 22 52  1  0  0  0  0
 23 41  1  0  0  0  0
 24 56  1  0  0  0  0
 25 26  1  0  0  0  0
 25 57  1  0  0  0  0
 26 74  1  0  0  0  0
 27 84  1  0  0  0  0
 28 85  1  0  0  0  0
 29 31  2  0  0  0  0
 29 84  1  0  0  0  0
 30 86  1  0  0  0  0
 31 87  1  0  0  0  0
 32 68  2  0  0  0  0
 33 69  1  0  0  0  0
 33 72  1  0  0  0  0
 34 73  1  0  0  0  0
 34 79  2  0  0  0  0
 35 54  1  0  0  0  0
 35 75  1  0  0  0  0
 35 80  2  0  0  0  0
 36 65  1  0  0  0  0
 36 70  1  0  0  0  0
 36 81  2  0  0  0  0
 37 66  1  0  0  0  0
 37 76  1  0  0  0  0
 37 82  2  0  0  0  0
 38 71  1  0  0  0  0
 38 74  1  0  0  0  0
 38 83  2  0  0  0  0
 39 42  1  0  0  0  0
 40 54  1  0  0  0  0
 41 70  1  0  0  0  0
 42 44  1  0  0  0  0
 43 45  1  0  0  0  0
 43 48  1  0  0  0  0
 44 53  1  0  0  0  0
 45 55  1  0  0  0  0
 46 50  1  0  0  0  0
 46 52  1  0  0  0  0
 47 51  1  0  0  0  0
 47 52  1  0  0  0  0
 48 71  1  0  0  0  0
 49 55  1  0  0  0  0
 49 71  1  0  0  0  0
 50 77  1  0  0  0  0
 51 77  1  0  0  0  0
 53 75  1  0  0  0  0
 54 70  1  0  0  0  0
 55 69  1  0  0  0  0
 58 66  1  0  0  0  0
 59 67  1  0  0  0  0
 60 67  1  0  0  0  0
 61 67  1  0  0  0  0
 62 78  1  0  0  0  0
 63 64  1  0  0  0  0
 63 77  1  0  0  0  0
 64 85  1  0  0  0  0
 65 67  1  0  0  0  0
 65 76  1  0  0  0  0
 66 78  1  0  0  0  0
 68 69  1  0  0  0  0
M  CHG  2  77   1  78   1
M  ISO  4  38 100  64 101  74 100  85 101
M  END
> <Batch ID>
0153

> <Smiles>
CNC(C)C(=O)NC(C(=O)N1Cc2cc([101O:1][101CH2:1]CN3CCC(c4cc([100NH:0][100C:0](=O)N5CCCC(n6nc(-c7ccc(Oc8ccc(F)cc8F)cc7)c(C(N)=O)c6N)C5)c(C)cc4C)CC3)ccc2CC1C(=O)NC1CCCc2ccccc21)C(C)(C)C

> <Shape>
0.241

> <Color>
0.088

> <Negative vol penalty>
0.000

$$$$

  -OEChem-04052321483D

 86 95  0     1  0  0  0  0  0999 V2000
  -31.9575   -9.5220   19.3772 C   0  0  0  0  0  0  0  0  0  0  0  0
  -32.0536  -10.9012   19.2223 C   0  0  0  0  0  0  0  0  0  0  0  0
  -21.6177  -25.8097   23.6909 C   0  0  0  0  0  0  0  0  0  0  0  0
  -22.0272  -25.6917   21.3128 C   0  0  0  0  0  0  0  0  0  0  0  0
  -30.7099   -8.9276   19.5616 C   0  0  0  0  0  0  0  0  0  0  0  0
  -30.9018  -11.6867   19.2507 C   0  0  0  0  0  0  0  0  0  0  0  0
  -30.3668  -17.3559   21.5045 C   0  0  0  0  0  0  0  0  0  0  0  0
  -20.3605  -26.3622   23.4470 C   0  0  0  0  0  0  0  0  0  0  0  0
  -20.7699  -26.2442   21.0689 C   0  0  0  0  0  0  0  0  0  0  0  0
  -30.3763  -18.6112   20.8980 C   0  0  0  0  0  0  0  0  0  0  0  0
  -17.1867  -28.1373   23.4577 C   0  0  0  0  0  0  0  0  0  0  0  0
  -16.8002  -29.2369   24.2239 C   0  0  0  0  0  0  0  0  0  0  0  0
  -27.9645  -18.5989   20.8487 C   0  0  0  0  0  0  0  0  0  0  0  0
  -29.7353  -25.2743   19.1734 C   0  0  0  0  0  0  0  0  0  0  0  0
  -32.2214  -24.6192   18.0905 C   0  0  0  0  0  0  0  0  0  0  0  0
  -18.6951  -30.4832   23.3914 C   0  0  0  0  0  0  0  0  0  0  0  0
  -22.4512  -25.4744   22.6238 C   0  0  0  0  0  0  0  0  0  0  0  0
  -24.0700  -23.5387   22.9977 C   0  0  0  0  0  0  0  0  0  0  0  0
  -29.5432   -9.7072   19.6020 C   0  0  0  0  0  0  0  0  0  0  0  0
  -29.1544  -16.7068   21.7783 C   0  0  0  0  0  0  0  0  0  0  0  0
  -29.6373  -11.1020   19.4345 C   0  0  0  0  0  0  0  0  0  0  0  0
  -27.9423  -17.3365   21.4611 C   0  0  0  0  0  0  0  0  0  0  0  0
  -30.7267  -26.2492   19.0633 C   0  0  0  0  0  0  0  0  0  0  0  0
  -31.9698  -25.9217   18.5219 C   0  0  0  0  0  0  0  0  0  0  0  0
  -31.2300  -23.6443   18.2006 C   0  0  0  0  0  0  0  0  0  0  0  0
  -19.9365  -26.5795   22.1360 C   0  0  0  0  0  0  0  0  0  0  0  0
  -29.1751  -19.2316   20.5673 C   0  0  0  0  0  0  0  0  0  0  0  0
  -18.3276  -28.2106   22.6584 C   0  0  0  0  0  0  0  0  0  0  0  0
  -29.9869  -23.9718   18.7421 C   0  0  0  0  0  0  0  0  0  0  0  0
  -17.5543  -30.4098   24.1908 C   0  0  0  0  0  0  0  0  0  0  0  0
  -19.0817  -29.3836   22.6252 C   0  0  0  0  0  0  0  0  0  0  0  0
  -23.7503  -24.9042   22.8751 C   0  0  0  0  0  0  0  0  0  0  0  0
  -25.4235  -23.5225   23.2307 C   0  0  0  0  0  0  0  0  0  0  0  0
  -23.2196  -22.3878   22.9088 C   0  0  0  0  0  0  0  0  0  0  0  0
  -27.8045  -13.9865   20.8394 C   0  0  0  0  0  0  0  0  0  0  0  0
  -25.5625  -14.7929   23.0407 C   0  0  0  0  0  0  0  0  0  0  0  0
  -24.0316  -17.2472   24.8517 C   0  0  0  0  0  0  0  0  0  0  0  0
  -29.8311  -27.2611   21.9337 C   0  0  0  0  0  0  0  0  0  0  0  0
  -28.2123   -9.0147   19.7564 C   0  0  0  0  0  0  0  0  0  0  0  0
  -29.1606  -15.3646   22.4573 C   0  0  0  0  0  0  0  0  0  0  0  0
  -26.6132  -16.6908   21.7525 C   0  0  0  0  0  0  0  0  0  0  0  0
  -27.0774   -9.9570   20.1491 C   0  0  0  0  0  0  0  0  0  0  0  0
  -28.9270  -29.4952   19.2243 C   0  0  0  0  0  0  0  0  0  0  0  0
  -28.9440  -26.1328   25.1226 C   0  0  0  0  0  0  0  0  0  0  0  0
  -29.8015  -28.5234   18.4423 C   0  0  0  0  0  0  0  0  0  0  0  0
  -27.1053  -11.2148   19.2866 C   0  0  0  0  0  0  0  0  0  0  0  0
  -27.5348  -25.5731   24.9388 C   0  0  0  0  0  0  0  0  0  0  0  0
  -29.1348  -27.4027   24.3028 C   0  0  0  0  0  0  0  0  0  0  0  0
  -28.3811  -28.6285   20.3484 C   0  0  0  0  0  0  0  0  0  0  0  0
  -27.4691  -26.6493   22.6322 C   0  0  0  0  0  0  0  0  0  0  0  0
  -30.4308  -27.6535   19.5386 C   0  0  1  0  0  0  0  0  0  0  0  0
  -28.4132  -11.9905   19.4843 C   0  0  1  0  0  0  0  0  0  0  0  0
  -27.8797  -14.5700   22.2219 C   0  0  1  0  0  0  0  0  0  0  0  0
  -27.2206  -25.3641   23.4481 C   0  0  2  0  0  0  0  0  0  0  0  0
  -33.0462  -26.9490   18.3937 C   0  0  0  0  0  0  0  0  0  0  0  0
  -31.5171  -22.2549   17.7351 C   0  0  0  0  0  0  0  0  0  0  0  0
  -22.2089  -17.6042   26.5392 C   0  0  0  0  0  0  0  0  0  0  0  0
  -23.4690  -14.4632   20.8456 C   0  0  0  0  0  0  0  0  0  0  0  0
  -21.8577  -15.7229   22.2896 C   0  0  0  0  0  0  0  0  0  0  0  0
  -22.7967  -13.5491   23.0742 C   0  0  0  0  0  0  0  0  0  0  0  0
  -25.9323  -18.3230   26.8489 C   0  0  0  0  0  0  0  0  0  0  0  0
  -28.0704  -21.3118   20.2383 C   0  0  0  0  0  0  0  0  0  1  0  0
  -28.5218  -22.7578   20.1688 C   0  0  0  0  0  0  0  0  0  0  0  0
  -24.2829  -15.5936   23.0195 C   0  0  1  0  0  0  0  0  0  0  0  0
  -23.6928  -17.3471   26.3281 C   0  0  2  0  0  0  0  0  0  0  0  0
  -23.1265  -14.8438   22.2998 C   0  0  0  0  0  0  0  0  0  0  0  0
  -24.8149  -25.6979   23.0185 N   0  0  0  0  0  0  0  0  0  0  0  0
  -25.8168  -24.8285   23.2337 N   0  0  0  0  0  0  0  0  0  0  0  0
  -26.6718  -15.3757   22.4117 N   0  0  0  0  0  0  0  0  0  0  0  0
  -28.8129  -27.1831   22.8922 N   0  0  0  0  0  0  0  0  0  0  0  0
  -29.4771  -27.7081   20.6573 N   0  0  0  0  0  0  0  0  0  0  0  0
  -26.3037  -22.5188   23.4313 N   0  0  0  0  0  0  0  0  0  0  0  0
  -21.8535  -22.5837   22.6646 N   0  0  0  0  0  0  0  0  0  0  0  0
  -28.3772  -12.7341   20.7254 N   0  0  0  0  0  0  0  0  0  0  0  0
  -23.9967  -15.9425   24.4068 N   0  0  0  0  0  0  0  0  0  0  0  0
  -24.4572  -18.4591   26.9608 N   0  3  0  0  0  0  0  0  0  0  0  0
  -23.6554  -21.2211   23.0583 O   0  0  0  0  0  0  0  0  0  0  0  0
  -27.2653  -14.6246   19.9428 O   0  0  0  0  0  0  0  0  0  0  0  0
  -25.5791  -13.6941   23.6010 O   0  0  0  0  0  0  0  0  0  0  0  0
  -24.2968  -18.2287   24.1612 O   0  0  0  0  0  0  0  0  0  0  0  0
  -31.0017  -26.9676   22.2085 O   0  0  0  0  0  0  0  0  0  0  0  0
  -18.7096  -27.1184   21.8976 O   0  0  0  0  0  0  0  0  0  0  0  0
  -29.1816  -20.4649   19.9706 O   0  0  0  0  0  0  0  0  0  1  0  0
  -29.0072  -23.0317   18.8561 O   0  0  0  0  0  0  0  0  0  0  0  0
  -17.1821  -31.4662   24.9254 F   0  0  0  0  0  0  0  0  0  0  0  0
  -20.1780  -29.4604   21.8584 F   0  0  0  0  0  0  0  0  0  0  0  0
  1  2  1  0  0  0  0
  1  5  2  0  0  0  0
  2  6  2  0  0  0  0
  3  8  2  0  0  0  0
  3 17  1  0  0  0  0
  4  9  1  0  0  0  0
  4 17  2  0  0  0  0
  5 19  1  0  0  0  0
  6 21  1  0  0  0  0
  7 10  2  0  0  0  0
  7 20  1  0  0  0  0
  8 26  1  0  0  0  0
  9 26  2  0  0  0  0
 10 27  1  0  0  0  0
 11 12  2  0  0  0  0
 11 28  1  0  0  0  0
 12 30  1  0  0  0  0
 13 22  1  0  0  0  0
 13 27  2  0  0  0  0
 14 23  2  0  0  0  0
 14 29  1  0  0  0  0
 15 24  2  0  0  0  0
 15 25  1  0  0  0  0
 16 30  2  0  0  0  0
 16 31  1  0  0  0  0
 17 32  1  0  0  0  0
 18 32  1  0  0  0  0
 18 33  2  0  0  0  0
 18 34  1  0  0  0  0
 19 21  2  0  0  0  0
 19 39  1  0  0  0  0
 20 22  2  0  0  0  0
 20 40  1  0  0  0  0
 21 52  1  0  0  0  0
 22 41  1  0  0  0  0
 23 24  1  0  0  0  0
 23 51  1  0  0  0  0
 24 55  1  0  0  0  0
 25 29  2  0  0  0  0
 25 56  1  0  0  0  0
 26 82  1  0  0  0  0
 27 83  1  0  0  0  0
 28 31  2  0  0  0  0
 28 82  1  0  0  0  0
 29 84  1  0  0  0  0
 30 85  1  0  0  0  0
 31 86  1  0  0  0  0
 32 67  2  0  0  0  0
 33 68  1  0  0  0  0
 33 72  1  0  0  0  0
 34 73  1  0  0  0  0
 34 77  2  0  0  0  0
 35 53  1  0  0  0  0
 35 74  1  0  0  0  0
 35 78  2  0  0  0  0
 36 64  1  0  0  0  0
 36 69  1  0  0  0  0
 36 79  2  0  0  0  0
 37 65  1  0  0  0  0
 37 75  1  0  0  0  0
 37 80  2  0  0  0  0
 38 70  1  0  0  0  0
 38 71  1  0  0  0  0
 38 81  2  0  0  0  0
 39 42  1  0  0  0  0
 40 53  1  0  0  0  0
 41 69  1  0  0  0  0
 42 46  1  0  0  0  0
 43 45  1  0  0  0  0
 43 49  1  0  0  0  0
 44 47  1  0  0  0  0
 44 48  1  0  0  0  0
 45 51  1  0  0  0  0
 46 52  1  0  0  0  0
 47 54  1  0  0  0  0
 48 70  1  0  0  0  0
 49 71  1  0  0  0  0
 50 54  1  0  0  0  0
 50 70  1  0  0  0  0
 51 71  1  0  0  0  0
 52 74  1  0  0  0  0
 53 69  1  0  0  0  0
 54 68  1  0  0  0  0
 57 65  1  0  0  0  0
 58 66  1  0  0  0  0
 59 66  1  0  0  0  0
 60 66  1  0  0  0  0
 61 76  1  0  0  0  0
 62 63  1  0  0  0  0
 62 83  1  0  0  0  0
 63 84  1  0  0  0  0
 64 66  1  0  0  0  0
 64 75  1  0  0  0  0
 65 76  1  0  0  0  0
 67 68  1  0  0  0  0
M  CHG  1  76   1
M  ISO  4  38 100  62 101  71 100  83 101
M  END
> <Batch ID>
0153

> <Smiles>
CNC(C)C(=O)NC(C(=O)N1Cc2cc([101O:1][101CH2:1]COc3cc(C4CCC[100N:0]4[100C:0](=O)N4CCCC(n5nc(-c6ccc(Oc7ccc(F)cc7F)cc6)c(C(N)=O)c5N)C4)c(C)cc3C)ccc2CC1C(=O)NC1CCCc2ccccc21)C(C)(C)C

> <Shape>
0.233

> <Color>
0.057

> <Negative vol penalty>
0.000

$$$$

  -OEChem-04052321483D

 83 91  0     1  0  0  0  0  0999 V2000
  -18.2307  -25.3562   23.5832 C   0  0  0  0  0  0  0  0  0  0  0  0
  -19.3140  -25.1988   22.7246 C   0  0  0  0  0  0  0  0  0  0  0  0
  -26.3246  -15.7320   21.7243 C   0  0  0  0  0  0  0  0  0  0  0  0
  -26.1313  -15.8508   19.3190 C   0  0  0  0  0  0  0  0  0  0  0  0
  -17.7403  -26.6321   23.8583 C   0  0  0  0  0  0  0  0  0  0  0  0
  -19.9069  -26.3172   22.1398 C   0  0  0  0  0  0  0  0  0  0  0  0
  -25.8443  -27.0850   20.8500 C   0  0  0  0  0  0  0  0  0  0  0  0
  -26.1678  -14.3471   21.6685 C   0  0  0  0  0  0  0  0  0  0  0  0
  -25.9746  -14.4659   19.2632 C   0  0  0  0  0  0  0  0  0  0  0  0
  -26.5748  -26.9381   19.6716 C   0  0  0  0  0  0  0  0  0  0  0  0
  -28.0727  -11.6522   20.9323 C   0  0  0  0  0  0  0  0  0  0  0  0
  -28.9360  -10.8707   21.6999 C   0  0  0  0  0  0  0  0  0  0  0  0
  -26.3648  -29.3046   19.2535 C   0  0  0  0  0  0  0  0  0  0  0  0
  -23.2902  -26.5210   16.2627 C   0  0  0  0  0  0  0  0  0  0  0  0
  -27.0459   -9.9578   22.8962 C   0  0  0  0  0  0  0  0  0  0  0  0
  -24.7739  -24.8775   15.3942 C   0  0  0  0  0  0  0  0  0  0  0  0
  -26.3063  -16.4839   20.5495 C   0  0  0  0  0  0  0  0  0  0  0  0
  -27.6743  -18.6371   20.5451 C   0  0  0  0  0  0  0  0  0  0  0  0
  -18.3337  -27.7674   23.2841 C   0  0  0  0  0  0  0  0  0  0  0  0
  -25.3584  -28.3431   21.2340 C   0  0  0  0  0  0  0  0  0  0  0  0
  -19.4232  -27.6094   22.4065 C   0  0  0  0  0  0  0  0  0  0  0  0
  -25.6306  -29.4652   20.4385 C   0  0  0  0  0  0  0  0  0  0  0  0
  -25.9928  -13.7141   20.4380 C   0  0  0  0  0  0  0  0  0  0  0  0
  -26.8327  -28.0475   18.8717 C   0  0  0  0  0  0  0  0  0  0  0  0
  -26.6959  -11.5867   21.1466 C   0  0  0  0  0  0  0  0  0  0  0  0
  -24.4750  -26.2143   15.6028 C   0  0  0  0  0  0  0  0  0  0  0  0
  -28.4226  -10.0234   22.6819 C   0  0  0  0  0  0  0  0  0  0  0  0
  -22.4523  -25.4960   16.6878 C   0  0  0  0  0  0  0  0  0  0  0  0
  -26.1825  -10.7395   22.1286 C   0  0  0  0  0  0  0  0  0  0  0  0
  -26.4677  -17.9145   20.6066 C   0  0  0  0  0  0  0  0  0  0  0  0
  -22.8417  -24.1914   16.4305 C   0  0  0  0  0  0  0  0  0  0  0  0
  -27.2919  -19.9528   20.6400 C   0  0  0  0  0  0  0  0  0  0  0  0
  -29.0205  -18.1614   20.4139 C   0  0  0  0  0  0  0  0  0  0  0  0
  -22.4706  -29.5812   21.7149 C   0  0  0  0  0  0  0  0  0  0  0  0
  -24.1690  -32.1478   22.7397 C   0  0  0  0  0  0  0  0  0  0  0  0
  -27.0943  -33.9038   22.6644 C   0  0  0  0  0  0  0  0  0  0  0  0
  -22.2031  -22.8243   19.3325 C   0  0  0  0  0  0  0  0  0  0  0  0
  -17.7388  -29.1226   23.5743 C   0  0  0  0  0  0  0  0  0  0  0  0
  -24.5949  -28.4894   22.5217 C   0  0  0  0  0  0  0  0  0  0  0  0
  -25.1487  -30.8412   20.8167 C   0  0  0  0  0  0  0  0  0  0  0  0
  -18.6602  -30.2833   23.2082 C   0  0  0  0  0  0  0  0  0  0  0  0
  -23.8601  -22.7312   22.4825 C   0  0  0  0  0  0  0  0  0  0  0  0
  -19.2568  -30.0740   21.8200 C   0  0  0  0  0  0  0  0  0  0  0  0
  -24.8252  -21.5514   22.3534 C   0  0  0  0  0  0  0  0  0  0  0  0
  -22.5417  -22.4636   21.7598 C   0  0  0  0  0  0  0  0  0  0  0  0
  -23.6448  -20.8910   20.2158 C   0  0  0  0  0  0  0  0  0  0  0  0
  -20.1090  -28.8000   21.7722 C   0  0  1  0  0  0  0  0  0  0  0  0
  -23.7086  -29.7306   22.5531 C   0  0  1  0  0  0  0  0  0  0  0  0
  -25.0097  -21.1364   20.8813 C   0  0  2  0  0  0  0  0  0  0  0  0
  -28.1692  -35.9806   23.5747 C   0  0  0  0  0  0  0  0  0  0  0  0
  -22.5634  -33.8386   20.7717 C   0  0  0  0  0  0  0  0  0  0  0  0
  -24.2816  -35.6416   21.0265 C   0  0  0  0  0  0  0  0  0  0  0  0
  -22.9426  -34.9095   22.9997 C   0  0  0  0  0  0  0  0  0  0  0  0
  -29.2072  -32.3492   24.0348 C   0  0  0  0  0  0  0  0  0  0  0  0
  -21.9697  -23.0643   16.8734 C   0  0  0  0  0  0  0  0  0  0  0  0
  -27.5308  -28.1491   15.3201 C   0  0  0  0  0  0  0  0  0  0  0  0
  -27.2489  -28.8129   16.6588 C   0  0  0  0  0  0  0  0  0  1  0  0
  -26.7059  -26.8864   15.1263 C   0  0  0  0  0  0  0  0  0  0  0  0
  -24.7388  -33.3832   22.0854 C   0  0  1  0  0  0  0  0  0  0  0  0
  -27.9463  -34.4898   23.7757 C   0  0  2  0  0  0  0  0  0  0  0  0
  -23.6392  -34.4171   21.7124 C   0  0  0  0  0  0  0  0  0  0  0  0
  -23.9850  -23.8545   15.7925 N   0  0  0  0  0  0  0  0  0  0  0  0
  -25.3987  -18.7057   20.7311 N   0  0  0  0  0  0  0  0  0  0  0  0
  -25.9324  -19.9389   20.7487 N   0  0  0  0  0  0  0  0  0  0  0  0
  -24.4010  -30.9317   22.0817 N   0  0  0  0  0  0  0  0  0  0  0  0
  -22.7867  -22.0764   20.3684 N   0  0  0  0  0  0  0  0  0  0  0  0
  -27.9892  -21.1087   20.6404 N   0  0  0  0  0  0  0  0  0  0  0  0
  -29.2354  -16.7790   20.3291 N   0  0  0  0  0  0  0  0  0  0  0  0
  -21.3976  -29.0304   22.3892 N   0  0  0  0  0  0  0  0  0  0  0  0
  -25.7562  -33.8955   22.9970 N   0  0  0  0  0  0  0  0  0  0  0  0
  -22.4914  -22.3935   18.0433 N   0  0  0  0  0  0  0  0  0  0  0  0
  -29.2756  -33.8174   23.8187 N   0  3  0  0  0  0  0  0  0  0  0  0
  -30.0050  -18.9384   20.3896 O   0  0  0  0  0  0  0  0  0  0  0  0
  -22.4871  -29.9405   20.5434 O   0  0  0  0  0  0  0  0  0  0  0  0
  -23.5471  -32.2570   23.7995 O   0  0  0  0  0  0  0  0  0  0  0  0
  -27.5680  -33.4978   21.6055 O   0  0  0  0  0  0  0  0  0  0  0  0
  -21.4830  -23.8066   19.5410 O   0  0  0  0  0  0  0  0  0  0  0  0
  -25.8400  -12.3627   20.3831 O   0  0  0  0  0  0  0  0  0  0  0  0
  -27.5449  -27.9067   17.7207 O   0  0  0  0  0  0  0  0  0  1  0  0
  -25.3212  -27.2030   15.1726 O   0  0  0  0  0  0  0  0  0  0  0  0
  -29.2517   -9.2718   23.4180 F   0  0  0  0  0  0  0  0  0  0  0  0
  -21.3085  -25.7724   17.3261 F   0  0  0  0  0  0  0  0  0  0  0  0
  -24.8607  -10.6713   22.3383 F   0  0  0  0  0  0  0  0  0  0  0  0
  1  2  1  0  0  0  0
  1  5  2  0  0  0  0
  2  6  2  0  0  0  0
  3  8  2  0  0  0  0
  3 17  1  0  0  0  0
  4  9  1  0  0  0  0
  4 17  2  0  0  0  0
  5 19  1  0  0  0  0
  6 21  1  0  0  0  0
  7 10  2  0  0  0  0
  7 20  1  0  0  0  0
  8 23  1  0  0  0  0
  9 23  2  0  0  0  0
 10 24  1  0  0  0  0
 11 12  2  0  0  0  0
 11 25  1  0  0  0  0
 12 27  1  0  0  0  0
 13 22  1  0  0  0  0
 13 24  2  0  0  0  0
 14 26  2  0  0  0  0
 14 28  1  0  0  0  0
 15 27  2  0  0  0  0
 15 29  1  0  0  0  0
 16 26  1  0  0  0  0
 16 62  2  0  0  0  0
 17 30  1  0  0  0  0
 18 30  1  0  0  0  0
 18 32  2  0  0  0  0
 18 33  1  0  0  0  0
 19 21  2  0  0  0  0
 19 38  1  0  0  0  0
 20 22  2  0  0  0  0
 20 39  1  0  0  0  0
 21 47  1  0  0  0  0
 22 40  1  0  0  0  0
 23 78  1  0  0  0  0
 24 79  1  0  0  0  0
 25 29  2  0  0  0  0
 25 78  1  0  0  0  0
 26 80  1  0  0  0  0
 27 81  1  0  0  0  0
 28 31  2  0  0  0  0
 28 82  1  0  0  0  0
 29 83  1  0  0  0  0
 30 63  2  0  0  0  0
 31 55  1  0  0  0  0
 31 62  1  0  0  0  0
 32 64  1  0  0  0  0
 32 67  1  0  0  0  0
 33 68  1  0  0  0  0
 33 73  2  0  0  0  0
 34 48  1  0  0  0  0
 34 69  1  0  0  0  0
 34 74  2  0  0  0  0
 35 59  1  0  0  0  0
 35 65  1  0  0  0  0
 35 75  2  0  0  0  0
 36 60  1  0  0  0  0
 36 70  1  0  0  0  0
 36 76  2  0  0  0  0
 37 66  1  0  0  0  0
 37 71  1  0  0  0  0
 37 77  2  0  0  0  0
 38 41  1  0  0  0  0
 39 48  1  0  0  0  0
 40 65  1  0  0  0  0
 41 43  1  0  0  0  0
 42 44  1  0  0  0  0
 42 45  1  0  0  0  0
 43 47  1  0  0  0  0
 44 49  1  0  0  0  0
 45 66  1  0  0  0  0
 46 49  1  0  0  0  0
 46 66  1  0  0  0  0
 47 69  1  0  0  0  0
 48 65  1  0  0  0  0
 49 64  1  0  0  0  0
 50 60  1  0  0  0  0
 51 61  1  0  0  0  0
 52 61  1  0  0  0  0
 53 61  1  0  0  0  0
 54 72  1  0  0  0  0
 55 71  1  0  0  0  0
 56 57  1  0  0  0  0
 56 58  1  0  0  0  0
 57 79  1  0  0  0  0
 58 80  1  0  0  0  0
 59 61  1  0  0  0  0
 59 70  1  0  0  0  0
 60 72  1  0  0  0  0
 63 64  1  0  0  0  0
M  CHG  1  72   1
M  ISO  4  37 100  57 101  71 100  79 101
M  END
> <Batch ID>
0153

> <Smiles>
CNC(C)C(=O)NC(C(=O)N1Cc2cc([101O:1][101CH2:1]CCOc3cnc(C[100NH:0][100C:0](=O)N4CCCC(n5nc(-c6ccc(Oc7ccc(F)cc7F)cc6)c(C(N)=O)c5N)C4)c(F)c3)ccc2CC1C(=O)NC1CCCc2ccccc21)C(C)(C)C

> <Shape>
0.211

> <Color>
0.098

> <Negative vol penalty>
0.000

$$$$

  -OEChem-04052321483D

 87 96  0     1  0  0  0  0  0999 V2000
  -25.5037  -18.3297   17.7644 C   0  0  0  0  0  0  0  0  0  0  0  0
  -24.7816  -19.5186   17.7867 C   0  0  0  0  0  0  0  0  0  0  0  0
  -24.0565  -14.9435   20.0644 C   0  0  0  0  0  0  0  0  0  0  0  0
  -25.2227  -14.1404   22.0219 C   0  0  0  0  0  0  0  0  0  0  0  0
  -26.6351  -18.1874   18.5666 C   0  0  0  0  0  0  0  0  0  0  0  0
  -25.1900  -20.5656   18.6122 C   0  0  0  0  0  0  0  0  0  0  0  0
  -25.3266  -27.7222   18.8982 C   0  0  0  0  0  0  0  0  0  0  0  0
  -24.8497  -14.1281   19.2572 C   0  0  0  0  0  0  0  0  0  0  0  0
  -26.0159  -13.3249   21.2148 C   0  0  0  0  0  0  0  0  0  0  0  0
  -24.9605  -28.7737   19.7372 C   0  0  0  0  0  0  0  0  0  0  0  0
  -28.7097  -13.6758   19.2020 C   0  0  0  0  0  0  0  0  0  0  0  0
  -30.0818  -13.6543   19.4522 C   0  0  0  0  0  0  0  0  0  0  0  0
  -26.9762  -28.4435   21.0206 C   0  0  0  0  0  0  0  0  0  0  0  0
  -22.4105  -31.1465   23.9853 C   0  0  0  0  0  0  0  0  0  0  0  0
  -20.9810  -29.2317   23.7127 C   0  0  0  0  0  0  0  0  0  0  0  0
  -29.9651  -11.2806   19.8873 C   0  0  0  0  0  0  0  0  0  0  0  0
  -24.2431  -14.9498   21.4467 C   0  0  0  0  0  0  0  0  0  0  0  0
  -22.1937  -15.4593   22.8778 C   0  0  0  0  0  0  0  0  0  0  0  0
  -27.0631  -19.2367   19.3951 C   0  0  0  0  0  0  0  0  0  0  0  0
  -26.5169  -27.0151   19.1210 C   0  0  0  0  0  0  0  0  0  0  0  0
  -26.3275  -20.4367   19.4272 C   0  0  0  0  0  0  0  0  0  0  0  0
  -27.3564  -27.3850   20.1814 C   0  0  0  0  0  0  0  0  0  0  0  0
  -21.1347  -30.5969   23.9269 C   0  0  0  0  0  0  0  0  0  0  0  0
  -25.8294  -13.3187   19.8324 C   0  0  0  0  0  0  0  0  0  0  0  0
  -25.7839  -29.1327   20.8003 C   0  0  0  0  0  0  0  0  0  0  0  0
  -27.9653  -12.4998   19.2946 C   0  0  0  0  0  0  0  0  0  0  0  0
  -30.7095  -12.4567   19.7948 C   0  0  0  0  0  0  0  0  0  0  0  0
  -28.5931  -11.3022   19.6371 C   0  0  0  0  0  0  0  0  0  0  0  0
  -23.4244  -15.7923   22.2810 C   0  0  0  0  0  0  0  0  0  0  0  0
  -23.4916  -30.2949   23.8247 C   0  0  0  0  0  0  0  0  0  0  0  0
  -22.1261  -28.4658   23.5641 C   0  0  0  0  0  0  0  0  0  0  0  0
  -21.8265  -16.5920   23.5624 C   0  0  0  0  0  0  0  0  0  0  0  0
  -21.4490  -14.2355   22.8188 C   0  0  0  0  0  0  0  0  0  0  0  0
  -27.2376  -23.9972   19.8115 C   0  0  0  0  0  0  0  0  0  0  0  0
  -30.2828  -25.0435   19.4187 C   0  0  0  0  0  0  0  0  0  0  0  0
  -32.4719  -27.6616   19.4380 C   0  0  0  0  0  0  0  0  0  0  0  0
  -21.8663  -22.1533   23.2231 C   0  0  0  0  0  0  0  0  0  0  0  0
  -28.2651  -19.0190   20.2798 C   0  0  0  0  0  0  0  0  0  0  0  0
  -26.9107  -25.9006   18.1909 C   0  0  0  0  0  0  0  0  0  0  0  0
  -28.6547  -26.6709   20.4513 C   0  0  0  0  0  0  0  0  0  0  0  0
  -28.8466  -20.3118   20.8461 C   0  0  0  0  0  0  0  0  0  0  0  0
  -24.2073  -20.5553   25.2940 C   0  0  0  0  0  0  0  0  0  0  0  0
  -27.7359  -21.2006   21.3967 C   0  0  0  0  0  0  0  0  0  0  0  0
  -24.1278  -19.1155   24.7871 C   0  0  0  0  0  0  0  0  0  0  0  0
  -21.5303  -25.3961   24.9891 C   0  0  0  0  0  0  0  0  0  0  0  0
  -23.6834  -25.4019   23.6572 C   0  0  0  0  0  0  0  0  0  0  0  0
  -24.1509  -21.5693   24.1502 C   0  0  0  0  0  0  0  0  0  0  0  0
  -20.9940  -24.2992   24.0706 C   0  0  0  0  0  0  0  0  0  0  0  0
  -23.0967  -24.3083   22.7675 C   0  0  0  0  0  0  0  0  0  0  0  0
  -22.9086  -19.9577   22.7445 C   0  0  0  0  0  0  0  0  0  0  0  0
  -26.7531  -21.6042   20.2909 C   0  0  1  0  0  0  0  0  0  0  0  0
  -27.8924  -24.9164   18.8195 C   0  0  1  0  0  0  0  0  0  0  0  0
  -22.9037  -18.9174   23.8754 C   0  0  1  0  0  0  0  0  0  0  0  0
  -22.6004  -26.2572   24.3172 C   0  0  0  0  0  0  0  0  0  0  0  0
  -19.9364  -31.4678   24.0932 C   0  0  0  0  0  0  0  0  0  0  0  0
  -25.4212  -30.8982   25.3227 C   0  0  0  0  0  0  0  0  0  0  0  0
  -34.9018  -28.2000   19.1171 C   0  0  0  0  0  0  0  0  0  0  0  0
  -30.8973  -23.9061   22.1825 C   0  0  0  0  0  0  0  0  0  0  0  0
  -32.9932  -25.2753   22.2034 C   0  0  0  0  0  0  0  0  0  0  0  0
  -32.6772  -23.5082   20.4713 C   0  0  0  0  0  0  0  0  0  0  0  0
  -31.8943  -29.4401   17.1440 C   0  0  0  0  0  0  0  0  0  0  0  0
  -25.8692  -30.0873   22.9769 C   0  0  0  0  0  0  0  0  0  1  0  0
  -24.8756  -30.8506   23.8817 C   0  0  1  0  0  0  0  0  0  0  0  0
  -31.3320  -25.6437   20.3231 C   0  0  1  0  0  0  0  0  0  0  0  0
  -33.5407  -28.0882   18.4480 C   0  0  2  0  0  0  0  0  0  0  0  0
  -31.9496  -24.5957   21.2914 C   0  0  0  0  0  0  0  0  0  0  0  0
  -23.8130  -17.0390   22.5616 N   0  0  0  0  0  0  0  0  0  0  0  0
  -23.3818  -28.9639   23.6148 N   0  0  0  0  0  0  0  0  0  0  0  0
  -22.8206  -17.4994   23.3422 N   0  0  0  0  0  0  0  0  0  0  0  0
  -28.9929  -25.5839   19.5177 N   0  0  0  0  0  0  0  0  0  0  0  0
  -22.9900  -21.3156   23.2865 N   0  0  0  0  0  0  0  0  0  0  0  0
  -22.0779  -23.5197   23.4735 N   0  0  0  0  0  0  0  0  0  0  0  0
  -20.7533  -16.8905   24.3250 N   0  0  0  0  0  0  0  0  0  0  0  0
  -21.9707  -13.1715   22.0705 N   0  0  0  0  0  0  0  0  0  0  0  0
  -27.3155  -22.6592   19.4752 N   0  0  0  0  0  0  0  0  0  0  0  0
  -32.3020  -26.2933   19.4480 N   0  0  0  0  0  0  0  0  0  0  0  0
  -33.1986  -29.4117   17.8546 N   0  3  0  0  0  0  0  0  0  0  0  0
  -20.3455  -14.0954   23.3986 O   0  0  0  0  0  0  0  0  0  0  0  0
  -26.7026  -24.4670   20.8089 O   0  0  0  0  0  0  0  0  0  0  0  0
  -30.5978  -24.1337   18.6476 O   0  0  0  0  0  0  0  0  0  0  0  0
  -31.8525  -28.4618   20.1355 O   0  0  0  0  0  0  0  0  0  0  0  0
  -20.7410  -21.7096   22.9626 O   0  0  0  0  0  0  0  0  0  0  0  0
  -26.6034  -12.5227   19.0451 O   0  0  0  0  0  0  0  0  0  0  0  0
  -25.4263  -30.1650   21.6266 O   0  0  0  0  0  0  0  0  0  1  0  0
  -22.0006  -27.1181   23.3516 O   0  0  0  0  0  0  0  0  0  0  0  0
  -32.0274  -12.4358   20.0335 F   0  0  0  0  0  0  0  0  0  0  0  0
  -27.8834  -10.1690   19.7264 F   0  0  0  0  0  0  0  0  0  0  0  0
  1  2  1  0  0  0  0
  1  5  2  0  0  0  0
  2  6  2  0  0  0  0
  3  8  2  0  0  0  0
  3 17  1  0  0  0  0
  4  9  1  0  0  0  0
  4 17  2  0  0  0  0
  5 19  1  0  0  0  0
  6 21  1  0  0  0  0
  7 10  2  0  0  0  0
  7 20  1  0  0  0  0
  8 24  1  0  0  0  0
  9 24  2  0  0  0  0
 10 25  1  0  0  0  0
 11 12  2  0  0  0  0
 11 26  1  0  0  0  0
 12 27  1  0  0  0  0
 13 22  1  0  0  0  0
 13 25  2  0  0  0  0
 14 23  2  0  0  0  0
 14 30  1  0  0  0  0
 15 23  1  0  0  0  0
 15 31  2  0  0  0  0
 16 27  2  0  0  0  0
 16 28  1  0  0  0  0
 17 29  1  0  0  0  0
 18 29  1  0  0  0  0
 18 32  2  0  0  0  0
 18 33  1  0  0  0  0
 19 21  2  0  0  0  0
 19 38  1  0  0  0  0
 20 22  2  0  0  0  0
 20 39  1  0  0  0  0
 21 51  1  0  0  0  0
 22 40  1  0  0  0  0
 23 55  1  0  0  0  0
 24 83  1  0  0  0  0
 25 84  1  0  0  0  0
 26 28  2  0  0  0  0
 26 83  1  0  0  0  0
 27 86  1  0  0  0  0
 28 87  1  0  0  0  0
 29 67  2  0  0  0  0
 30 63  1  0  0  0  0
 30 68  2  0  0  0  0
 31 68  1  0  0  0  0
 31 85  1  0  0  0  0
 32 69  1  0  0  0  0
 32 73  1  0  0  0  0
 33 74  1  0  0  0  0
 33 78  2  0  0  0  0
 34 52  1  0  0  0  0
 34 75  1  0  0  0  0
 34 79  2  0  0  0  0
 35 64  1  0  0  0  0
 35 70  1  0  0  0  0
 35 80  2  0  0  0  0
 36 65  1  0  0  0  0
 36 76  1  0  0  0  0
 36 81  2  0  0  0  0
 37 71  1  0  0  0  0
 37 72  1  0  0  0  0
 37 82  2  0  0  0  0
 38 41  1  0  0  0  0
 39 52  1  0  0  0  0
 40 70  1  0  0  0  0
 41 43  1  0  0  0  0
 42 44  1  0  0  0  0
 42 47  1  0  0  0  0
 43 51  1  0  0  0  0
 44 53  1  0  0  0  0
 45 48  1  0  0  0  0
 45 54  1  0  0  0  0
 46 49  1  0  0  0  0
 46 54  1  0  0  0  0
 47 71  1  0  0  0  0
 48 72  1  0  0  0  0
 49 72  1  0  0  0  0
 50 53  1  0  0  0  0
 50 71  1  0  0  0  0
 51 75  1  0  0  0  0
 52 70  1  0  0  0  0
 53 69  1  0  0  0  0
 54 85  1  0  0  0  0
 56 63  1  0  0  0  0
 57 65  1  0  0  0  0
 58 66  1  0  0  0  0
 59 66  1  0  0  0  0
 60 66  1  0  0  0  0
 61 77  1  0  0  0  0
 62 63  1  0  0  0  0
 62 84  1  0  0  0  0
 64 66  1  0  0  0  0
 64 76  1  0  0  0  0
 65 77  1  0  0  0  0
 67 69  1  0  0  0  0
M  CHG  1  77   1
M  ISO  4  37 100  62 101  72 100  84 101
M  END
> <Batch ID>
0153

> <Smiles>
CNC(C)C(=O)NC(C(=O)N1Cc2cc([101O:1][101CH2:1]C(C)c3cc(C)cc(OC4CC[100N:0]([100C:0](=O)N5CCCC(n6nc(-c7ccc(Oc8ccc(F)cc8F)cc7)c(C(N)=O)c6N)C5)CC4)n3)ccc2CC1C(=O)NC1CCCc2ccccc21)C(C)(C)C

> <Shape>
0.222

> <Color>
0.075

> <Negative vol penalty>
0.000

$$$$

  -OEChem-04052321483D

 89 98  0     1  0  0  0  0  0999 V2000
  -16.2292  -27.9143   20.6673 C   0  0  0  0  0  0  0  0  0  0  0  0
  -16.7220  -26.7931   20.0074 C   0  0  0  0  0  0  0  0  0  0  0  0
  -26.2206  -24.9335   18.7055 C   0  0  0  0  0  0  0  0  0  0  0  0
  -27.6548  -26.0503   20.2970 C   0  0  0  0  0  0  0  0  0  0  0  0
  -16.9297  -28.4501   21.7471 C   0  0  0  0  0  0  0  0  0  0  0  0
  -17.9163  -26.2077   20.4264 C   0  0  0  0  0  0  0  0  0  0  0  0
  -19.3161  -20.2460   20.3591 C   0  0  0  0  0  0  0  0  0  0  0  0
  -25.1551  -25.7440   19.0969 C   0  0  0  0  0  0  0  0  0  0  0  0
  -26.5893  -26.8609   20.6883 C   0  0  0  0  0  0  0  0  0  0  0  0
  -20.0483  -19.4644   19.4664 C   0  0  0  0  0  0  0  0  0  0  0  0
  -24.9906  -29.6029   19.5282 C   0  0  0  0  0  0  0  0  0  0  0  0
  -25.2364  -30.9681   19.6743 C   0  0  0  0  0  0  0  0  0  0  0  0
  -26.3426  -13.7188   21.1539 C   0  0  0  0  0  0  0  0  0  0  0  0
  -22.0042  -19.7220   20.8547 C   0  0  0  0  0  0  0  0  0  0  0  0
  -24.5868  -30.8364   21.9976 C   0  0  0  0  0  0  0  0  0  0  0  0
  -27.4705  -25.0866   19.3056 C   0  0  0  0  0  0  0  0  0  0  0  0
  -29.5052  -24.5064   17.8804 C   0  0  0  0  0  0  0  0  0  0  0  0
  -18.1282  -27.8652   22.1857 C   0  0  0  0  0  0  0  0  0  0  0  0
  -19.9263  -20.7813   21.5025 C   0  0  0  0  0  0  0  0  0  0  0  0
  -18.6341  -26.7370   21.5123 C   0  0  0  0  0  0  0  0  0  0  0  0
  -25.6821  -14.3755   20.1156 C   0  0  0  0  0  0  0  0  0  0  0  0
  -21.2769  -20.5079   21.7616 C   0  0  0  0  0  0  0  0  0  0  0  0
  -25.7500  -12.6169   21.7708 C   0  0  0  0  0  0  0  0  0  0  0  0
  -24.4970  -12.1719   21.3495 C   0  0  0  0  0  0  0  0  0  0  0  0
  -23.8365  -12.8287   20.3113 C   0  0  0  0  0  0  0  0  0  0  0  0
  -25.3394  -26.7077   20.0883 C   0  0  0  0  0  0  0  0  0  0  0  0
  -21.3933  -19.2047   19.7127 C   0  0  0  0  0  0  0  0  0  0  0  0
  -24.5428  -28.8545   20.6168 C   0  0  0  0  0  0  0  0  0  0  0  0
  -24.4291  -13.9305   19.6943 C   0  0  0  0  0  0  0  0  0  0  0  0
  -25.0346  -31.5849   20.9090 C   0  0  0  0  0  0  0  0  0  0  0  0
  -24.3409  -29.4712   21.8515 C   0  0  0  0  0  0  0  0  0  0  0  0
  -28.5715  -24.2492   18.9021 C   0  0  0  0  0  0  0  0  0  0  0  0
  -30.3396  -23.4155   17.8953 C   0  0  0  0  0  0  0  0  0  0  0  0
  -29.6091  -25.6309   16.9970 C   0  0  0  0  0  0  0  0  0  0  0  0
  -20.4772  -23.7191   22.5840 C   0  0  0  0  0  0  0  0  0  0  0  0
  -21.5227  -22.1347   25.2144 C   0  0  0  0  0  0  0  0  0  0  0  0
  -22.7755  -19.2578   26.5564 C   0  0  0  0  0  0  0  0  0  0  0  0
  -29.7734  -17.8185   19.5683 C   0  0  0  0  0  0  0  0  0  0  0  0
  -18.8744  -28.5083   23.3277 C   0  0  0  0  0  0  0  0  0  0  0  0
  -19.1158  -21.6003   22.4694 C   0  0  0  0  0  0  0  0  0  0  0  0
  -21.9736  -21.0422   22.9853 C   0  0  0  0  0  0  0  0  0  0  0  0
  -19.9386  -27.6048   23.9454 C   0  0  0  0  0  0  0  0  0  0  0  0
  -32.0849  -20.0642   20.8181 C   0  0  0  0  0  0  0  0  0  0  0  0
  -20.7785  -26.9468   22.8552 C   0  0  0  0  0  0  0  0  0  0  0  0
  -31.5478  -21.4242   20.3726 C   0  0  0  0  0  0  0  0  0  0  0  0
  -26.5549  -16.7310   20.4495 C   0  0  0  0  0  0  0  0  0  0  0  0
  -27.6681  -15.1961   18.7719 C   0  0  0  0  0  0  0  0  0  0  0  0
  -30.9526  -19.1570   21.2854 C   0  0  0  0  0  0  0  0  0  0  0  0
  -27.2511  -17.9235   19.7874 C   0  0  0  0  0  0  0  0  0  0  0  0
  -28.3148  -16.4228   18.1353 C   0  0  0  0  0  0  0  0  0  0  0  0
  -29.3346  -20.3046   19.8080 C   0  0  0  0  0  0  0  0  0  0  0  0
  -26.3425  -15.5727   19.4583 C   0  0  0  0  0  0  0  0  0  0  0  0
  -19.9133  -26.0589   21.9527 C   0  0  1  0  0  0  0  0  0  0  0  0
  -19.9702  -22.5208   23.3355 C   0  0  1  0  0  0  0  0  0  0  0  0
  -30.4394  -21.2623   19.3174 C   0  0  1  0  0  0  0  0  0  0  0  0
  -26.4791  -11.9305   22.8793 C   0  0  0  0  0  0  0  0  0  0  0  0
  -23.8632  -10.9902   22.0125 C   0  0  0  0  0  0  0  0  0  0  0  0
  -22.4929  -12.3562   19.8545 C   0  0  0  0  0  0  0  0  0  0  0  0
  -23.5666  -18.2780   28.7270 C   0  0  0  0  0  0  0  0  0  0  0  0
  -24.1277  -23.7046   24.9709 C   0  0  0  0  0  0  0  0  0  0  0  0
  -25.1894  -22.0481   26.5191 C   0  0  0  0  0  0  0  0  0  0  0  0
  -23.2804  -23.4457   27.3096 C   0  0  0  0  0  0  0  0  0  0  0  0
  -20.6879  -17.1607   26.5042 C   0  0  0  0  0  0  0  0  0  0  0  0
  -22.3287  -16.2789   17.7896 C   0  0  0  0  0  0  0  0  0  0  0  0
  -21.4020  -17.4383   18.1203 C   0  0  0  0  0  0  0  0  0  1  0  0
  -22.9221  -15.6502   19.0406 C   0  0  0  0  0  0  0  0  0  0  0  0
  -22.8486  -21.5727   25.6672 C   0  0  1  0  0  0  0  0  0  0  0  0
  -22.3825  -18.4680   27.7918 C   0  0  2  0  0  0  0  0  0  0  0  0
  -23.8492  -22.6842   26.0925 C   0  0  0  0  0  0  0  0  0  0  0  0
  -28.7914  -23.0861   19.5208 N   0  0  0  0  0  0  0  0  0  0  0  0
  -29.8729  -22.6027   18.8861 N   0  0  0  0  0  0  0  0  0  0  0  0
  -21.1402  -21.8429   23.8974 N   0  0  0  0  0  0  0  0  0  0  0  0
  -29.9192  -19.0317   20.2578 N   0  0  0  0  0  0  0  0  0  0  0  0
  -28.4856  -17.4958   19.1146 N   0  0  0  0  0  0  0  0  0  0  0  0
  -31.4196  -23.0817   17.1573 N   0  0  0  0  0  0  0  0  0  0  0  0
  -28.6698  -26.6641   17.1173 N   0  0  0  0  0  0  0  0  0  0  0  0
  -19.6206  -24.8032   22.6100 N   0  0  0  0  0  0  0  0  0  0  0  0
  -22.5453  -20.6076   26.7185 N   0  0  0  0  0  0  0  0  0  0  0  0
  -21.8684  -17.1237   27.4053 N   0  3  0  0  0  0  0  0  0  0  0  0
  -30.4984  -25.7092   16.1158 O   0  0  0  0  0  0  0  0  0  0  0  0
  -21.5655  -23.6648   22.0235 O   0  0  0  0  0  0  0  0  0  0  0  0
  -20.8478  -22.8018   26.0024 O   0  0  0  0  0  0  0  0  0  0  0  0
  -23.2437  -18.7306   25.5497 O   0  0  0  0  0  0  0  0  0  0  0  0
  -30.7366  -17.0678   19.3687 O   0  0  0  0  0  0  0  0  0  0  0  0
  -24.2999  -27.4990   20.4703 O   0  0  0  0  0  0  0  0  0  0  0  0
  -22.1157  -18.4372   18.8364 O   0  0  0  0  0  0  0  0  0  1  0  0
  -23.7844  -14.5745   18.6790 O   0  0  0  0  0  0  0  0  0  0  0  0
  -25.2722  -32.8956   21.0496 F   0  0  0  0  0  0  0  0  0  0  0  0
  -23.9120  -28.7571   22.9012 F   0  0  0  0  0  0  0  0  0  0  0  0
  1  2  1  0  0  0  0
  1  5  2  0  0  0  0
  2  6  2  0  0  0  0
  3  8  2  0  0  0  0
  3 16  1  0  0  0  0
  4  9  1  0  0  0  0
  4 16  2  0  0  0  0
  5 18  1  0  0  0  0
  6 20  1  0  0  0  0
  7 10  2  0  0  0  0
  7 19  1  0  0  0  0
  8 26  1  0  0  0  0
  9 26  2  0  0  0  0
 10 27  1  0  0  0  0
 11 12  2  0  0  0  0
 11 28  1  0  0  0  0
 12 30  1  0  0  0  0
 13 21  2  0  0  0  0
 13 23  1  0  0  0  0
 14 22  1  0  0  0  0
 14 27  2  0  0  0  0
 15 30  2  0  0  0  0
 15 31  1  0  0  0  0
 16 32  1  0  0  0  0
 17 32  1  0  0  0  0
 17 33  2  0  0  0  0
 17 34  1  0  0  0  0
 18 20  2  0  0  0  0
 18 39  1  0  0  0  0
 19 22  2  0  0  0  0
 19 40  1  0  0  0  0
 20 53  1  0  0  0  0
 21 29  1  0  0  0  0
 21 52  1  0  0  0  0
 22 41  1  0  0  0  0
 23 24  2  0  0  0  0
 23 56  1  0  0  0  0
 24 25  1  0  0  0  0
 24 57  1  0  0  0  0
 25 29  2  0  0  0  0
 25 58  1  0  0  0  0
 26 85  1  0  0  0  0
 27 86  1  0  0  0  0
 28 31  2  0  0  0  0
 28 85  1  0  0  0  0
 29 87  1  0  0  0  0
 30 88  1  0  0  0  0
 31 89  1  0  0  0  0
 32 70  2  0  0  0  0
 33 71  1  0  0  0  0
 33 75  1  0  0  0  0
 34 76  1  0  0  0  0
 34 80  2  0  0  0  0
 35 54  1  0  0  0  0
 35 77  1  0  0  0  0
 35 81  2  0  0  0  0
 36 67  1  0  0  0  0
 36 72  1  0  0  0  0
 36 82  2  0  0  0  0
 37 68  1  0  0  0  0
 37 78  1  0  0  0  0
 37 83  2  0  0  0  0
 38 73  1  0  0  0  0
 38 74  1  0  0  0  0
 38 84  2  0  0  0  0
 39 42  1  0  0  0  0
 40 54  1  0  0  0  0
 41 72  1  0  0  0  0
 42 44  1  0  0  0  0
 43 45  1  0  0  0  0
 43 48  1  0  0  0  0
 44 53  1  0  0  0  0
 45 55  1  0  0  0  0
 46 49  1  0  0  0  0
 46 52  1  0  0  0  0
 47 50  1  0  0  0  0
 47 52  1  0  0  0  0
 48 73  1  0  0  0  0
 49 74  1  0  0  0  0
 50 74  1  0  0  0  0
 51 55  1  0  0  0  0
 51 73  1  0  0  0  0
 53 77  1  0  0  0  0
 54 72  1  0  0  0  0
 55 71  1  0  0  0  0
 59 68  1  0  0  0  0
 60 69  1  0  0  0  0
 61 69  1  0  0  0  0
 62 69  1  0  0  0  0
 63 79  1  0  0  0  0
 64 65  1  0  0  0  0
 64 66  1  0  0  0  0
 65 86  1  0  0  0  0
 66 87  1  0  0  0  0
 67 69  1  0  0  0  0
 67 78  1  0  0  0  0
 68 79  1  0  0  0  0
 70 71  1  0  0  0  0
M  CHG  1  79   1
M  ISO  4  38 100  65 101  74 100  86 101
M  END
> <Batch ID>
0153

> <Smiles>
CNC(C)C(=O)NC(C(=O)N1Cc2cc([101O:1][101CH2:1]CCOc3c(C4CC[100N:0]([100C:0](=O)N5CCCC(n6nc(-c7ccc(Oc8ccc(F)cc8F)cc7)c(C(N)=O)c6N)C5)CC4)cc(C)c(C)c3C)ccc2CC1C(=O)NC1CCCc2ccccc21)C(C)(C)C

> <Shape>
0.214

> <Color>
0.068

> <Negative vol penalty>
0.000

$$$$

  -OEChem-04052321483D

 89 98  0     1  0  0  0  0  0999 V2000
  -16.7919  -29.7569   23.4291 C   0  0  0  0  0  0  0  0  0  0  0  0
  -17.7725  -29.9640   22.4642 C   0  0  0  0  0  0  0  0  0  0  0  0
  -24.0281  -10.4879   17.9600 C   0  0  0  0  0  0  0  0  0  0  0  0
  -23.1815   -9.9157   20.1493 C   0  0  0  0  0  0  0  0  0  0  0  0
  -17.0854  -29.0127   24.5710 C   0  0  0  0  0  0  0  0  0  0  0  0
  -19.0475  -29.4278   22.6412 C   0  0  0  0  0  0  0  0  0  0  0  0
  -24.5330  -26.7219   18.9124 C   0  0  0  0  0  0  0  0  0  0  0  0
  -23.3575   -9.3933   17.4146 C   0  0  0  0  0  0  0  0  0  0  0  0
  -22.5108   -8.8210   19.6038 C   0  0  0  0  0  0  0  0  0  0  0  0
  -25.9096  -26.8774   18.7556 C   0  0  0  0  0  0  0  0  0  0  0  0
  -21.5756   -6.9584   15.3869 C   0  0  0  0  0  0  0  0  0  0  0  0
  -20.8692   -7.1560   14.2005 C   0  0  0  0  0  0  0  0  0  0  0  0
  -32.3507  -22.1903   21.1724 C   0  0  0  0  0  0  0  0  0  0  0  0
  -26.2793  -25.5418   20.7301 C   0  0  0  0  0  0  0  0  0  0  0  0
  -30.5366  -21.0922   20.0378 C   0  0  0  0  0  0  0  0  0  0  0  0
  -19.4944   -8.8139   15.2952 C   0  0  0  0  0  0  0  0  0  0  0  0
  -32.5820  -20.9992   21.8415 C   0  0  0  0  0  0  0  0  0  0  0  0
  -23.9402  -10.7491   19.3275 C   0  0  0  0  0  0  0  0  0  0  0  0
  -24.1404  -13.1893   20.0437 C   0  0  0  0  0  0  0  0  0  0  0  0
  -18.3618  -28.4590   24.7575 C   0  0  0  0  0  0  0  0  0  0  0  0
  -24.0180  -25.9831   19.9873 C   0  0  0  0  0  0  0  0  0  0  0  0
  -19.3587  -28.6766   23.7873 C   0  0  0  0  0  0  0  0  0  0  0  0
  -24.8958  -25.3764   20.8969 C   0  0  0  0  0  0  0  0  0  0  0  0
  -22.5988   -8.5598   18.2364 C   0  0  0  0  0  0  0  0  0  0  0  0
  -26.7829  -26.2897   19.6661 C   0  0  0  0  0  0  0  0  0  0  0  0
  -21.2413   -7.6885   16.5275 C   0  0  0  0  0  0  0  0  0  0  0  0
  -31.3067  -22.2293   20.2550 C   0  0  0  0  0  0  0  0  0  0  0  0
  -19.8286   -8.0838   14.1546 C   0  0  0  0  0  0  0  0  0  0  0  0
  -20.2008   -8.6163   16.4817 C   0  0  0  0  0  0  0  0  0  0  0  0
  -24.6331  -11.8794   19.8916 C   0  0  0  0  0  0  0  0  0  0  0  0
  -30.8492  -19.9502   20.7575 C   0  0  0  0  0  0  0  0  0  0  0  0
  -25.1752  -13.8801   20.6254 C   0  0  0  0  0  0  0  0  0  0  0  0
  -22.8615  -13.7330   19.6907 C   0  0  0  0  0  0  0  0  0  0  0  0
  -22.1504  -26.6440   22.4731 C   0  0  0  0  0  0  0  0  0  0  0  0
  -22.3169  -23.4402   22.9534 C   0  0  0  0  0  0  0  0  0  0  0  0
  -24.0208  -20.5229   22.4706 C   0  0  0  0  0  0  0  0  0  0  0  0
  -30.7042  -15.0332   20.5786 C   0  0  0  0  0  0  0  0  0  0  0  0
  -18.6457  -27.7017   26.0305 C   0  0  0  0  0  0  0  0  0  0  0  0
  -22.5314  -25.8025   20.1273 C   0  0  0  0  0  0  0  0  0  0  0  0
  -24.3942  -24.5563   22.0564 C   0  0  0  0  0  0  0  0  0  0  0  0
  -19.9121  -26.8520   25.9643 C   0  0  0  0  0  0  0  0  0  0  0  0
  -29.5057  -12.2562   22.6664 C   0  0  0  0  0  0  0  0  0  0  0  0
  -21.0633  -27.6554   25.3675 C   0  0  0  0  0  0  0  0  0  0  0  0
  -28.1097  -11.9878   22.1029 C   0  0  0  0  0  0  0  0  0  0  0  0
  -30.4565  -12.7984   21.6019 C   0  0  0  0  0  0  0  0  0  0  0  0
  -28.9957  -16.7264   21.4066 C   0  0  0  0  0  0  0  0  0  0  0  0
  -28.5585  -13.7138   20.3192 C   0  0  0  0  0  0  0  0  0  0  0  0
  -20.7464  -28.0904   23.9316 C   0  0  1  0  0  0  0  0  0  0  0  0
  -30.0330  -18.6946   20.5469 C   0  0  2  0  0  0  0  0  0  0  0  0
  -22.1026  -25.4590   21.5505 C   0  0  1  0  0  0  0  0  0  0  0  0
  -29.3384  -18.1594   21.8154 C   0  0  1  0  0  0  0  0  0  0  0  0
  -27.5575  -13.2284   21.3770 C   0  0  1  0  0  0  0  0  0  0  0  0
  -30.8627  -17.4770   20.0758 C   0  0  2  0  0  0  0  0  0  0  0  0
  -28.1097  -18.9599   22.2225 C   0  0  0  0  0  0  0  0  0  0  0  0
  -23.9286  -18.0747   23.0139 C   0  0  0  0  0  0  0  0  0  0  0  0
  -23.2260  -24.0409   25.8034 C   0  0  0  0  0  0  0  0  0  0  0  0
  -24.0147  -21.6711   25.9771 C   0  0  0  0  0  0  0  0  0  0  0  0
  -21.5961  -22.1547   25.6041 C   0  0  0  0  0  0  0  0  0  0  0  0
  -23.8935  -19.7745   19.6101 C   0  0  0  0  0  0  0  0  0  0  0  0
  -29.7987  -17.3347   16.5523 C   0  0  0  0  0  0  0  0  0  0  0  0
  -31.0192  -17.4491   18.5573 C   0  0  0  0  0  0  0  0  0  0  0  0
  -30.4196  -25.7028   19.7203 C   0  0  0  0  0  0  0  0  0  0  0  0
  -28.9574  -25.3820   19.9878 C   0  0  0  0  0  0  0  0  0  1  0  0
  -31.3443  -24.6070   20.2268 C   0  0  0  0  0  0  0  0  0  0  0  0
  -23.2385  -22.5201   23.7170 C   0  0  1  0  0  0  0  0  0  0  0  0
  -23.5609  -19.1528   22.0063 C   0  0  2  0  0  0  0  0  0  0  0  0
  -23.0285  -22.6137   25.2548 C   0  0  0  0  0  0  0  0  0  0  0  0
  -31.8555  -19.8742   21.6571 N   0  0  0  0  0  0  0  0  0  0  0  0
  -25.8838  -11.7437   20.3404 N   0  0  0  0  0  0  0  0  0  0  0  0
  -26.1857  -12.9772   20.7800 N   0  0  0  0  0  0  0  0  0  0  0  0
  -22.9321  -24.4141   22.1541 N   0  0  0  0  0  0  0  0  0  0  0  0
  -29.8769  -13.9544   20.9177 N   0  0  0  0  0  0  0  0  0  0  0  0
  -30.1271  -16.3066   20.5775 N   0  0  0  0  0  0  0  0  0  0  0  0
  -25.3104  -15.1657   21.0144 N   0  0  0  0  0  0  0  0  0  0  0  0
  -21.9142  -12.8845   19.1018 N   0  0  0  0  0  0  0  0  0  0  0  0
  -20.9263  -26.9835   23.0168 N   0  0  0  0  0  0  0  0  0  0  0  0
  -23.0313  -21.1854   23.1658 N   0  0  0  0  0  0  0  0  0  0  0  0
  -24.1912  -18.8100   20.7001 N   0  3  0  0  0  0  0  0  0  0  0  0
  -22.5733  -14.9396   19.8767 O   0  0  0  0  0  0  0  0  0  0  0  0
  -23.2192  -27.2075   22.6778 O   0  0  0  0  0  0  0  0  0  0  0  0
  -21.0963  -23.2954   23.0566 O   0  0  0  0  0  0  0  0  0  0  0  0
  -25.1466  -20.9602   22.2428 O   0  0  0  0  0  0  0  0  0  0  0  0
  -31.9039  -14.8706   20.3220 O   0  0  0  0  0  0  0  0  0  0  0  0
  -21.9441   -7.4917   17.7044 O   0  0  0  0  0  0  0  0  0  0  0  0
  -28.1367  -26.4415   19.5147 O   0  0  0  0  0  0  0  0  0  1  0  0
  -31.0398  -23.3757   19.5728 O   0  0  0  0  0  0  0  0  0  0  0  0
  -29.7321  -17.3651   17.9736 O   0  0  0  0  0  0  0  0  0  0  0  0
  -19.1514   -8.2746   13.0149 F   0  0  0  0  0  0  0  0  0  0  0  0
  -19.8758   -9.3215   17.5739 F   0  0  0  0  0  0  0  0  0  0  0  0
  1  2  1  0  0  0  0
  1  5  2  0  0  0  0
  2  6  2  0  0  0  0
  3  8  2  0  0  0  0
  3 18  1  0  0  0  0
  4  9  1  0  0  0  0
  4 18  2  0  0  0  0
  5 20  1  0  0  0  0
  6 22  1  0  0  0  0
  7 10  2  0  0  0  0
  7 21  1  0  0  0  0
  8 24  1  0  0  0  0
  9 24  2  0  0  0  0
 10 25  1  0  0  0  0
 11 12  2  0  0  0  0
 11 26  1  0  0  0  0
 12 28  1  0  0  0  0
 13 17  2  0  0  0  0
 13 27  1  0  0  0  0
 14 23  1  0  0  0  0
 14 25  2  0  0  0  0
 15 27  2  0  0  0  0
 15 31  1  0  0  0  0
 16 28  2  0  0  0  0
 16 29  1  0  0  0  0
 17 68  1  0  0  0  0
 18 30  1  0  0  0  0
 19 30  1  0  0  0  0
 19 32  2  0  0  0  0
 19 33  1  0  0  0  0
 20 22  2  0  0  0  0
 20 38  1  0  0  0  0
 21 23  2  0  0  0  0
 21 39  1  0  0  0  0
 22 48  1  0  0  0  0
 23 40  1  0  0  0  0
 24 84  1  0  0  0  0
 25 85  1  0  0  0  0
 26 29  2  0  0  0  0
 26 84  1  0  0  0  0
 27 86  1  0  0  0  0
 28 88  1  0  0  0  0
 29 89  1  0  0  0  0
 30 69  2  0  0  0  0
 31 49  1  0  0  0  0
 31 68  2  0  0  0  0
 32 70  1  0  0  0  0
 32 74  1  0  0  0  0
 33 75  1  0  0  0  0
 33 79  2  0  0  0  0
 34 50  1  0  0  0  0
 34 76  1  0  0  0  0
 34 80  2  0  0  0  0
 35 65  1  0  0  0  0
 35 71  1  0  0  0  0
 35 81  2  0  0  0  0
 36 66  1  0  0  0  0
 36 77  1  0  0  0  0
 36 82  2  0  0  0  0
 37 72  1  0  0  0  0
 37 73  1  0  0  0  0
 37 83  2  0  0  0  0
 38 41  1  0  0  0  0
 39 50  1  0  0  0  0
 40 71  1  0  0  0  0
 41 43  1  0  0  0  0
 42 44  1  0  0  0  0
 42 45  1  0  0  0  0
 43 48  1  0  0  0  0
 44 52  1  0  0  0  0
 45 72  1  0  0  0  0
 46 51  1  0  0  0  0
 46 73  1  0  0  0  0
 47 52  1  0  0  0  0
 47 72  1  0  0  0  0
 48 76  1  0  0  0  0
 49 51  1  0  0  0  0
 49 53  1  0  0  0  0
 50 71  1  0  0  0  0
 51 54  1  0  0  0  0
 52 70  1  0  0  0  0
 53 61  1  0  0  0  0
 53 73  1  0  0  0  0
 55 66  1  0  0  0  0
 56 67  1  0  0  0  0
 57 67  1  0  0  0  0
 58 67  1  0  0  0  0
 59 78  1  0  0  0  0
 60 87  1  0  0  0  0
 61 87  1  0  0  0  0
 62 63  1  0  0  0  0
 62 64  1  0  0  0  0
 63 85  1  0  0  0  0
 64 86  1  0  0  0  0
 65 67  1  0  0  0  0
 65 77  1  0  0  0  0
 66 78  1  0  0  0  0
 69 70  1  0  0  0  0
M  CHG  1  78   1
M  ISO  4  37 100  63 101  73 100  85 101
M  END
> <Batch ID>
0153

> <Smiles>
CNC(C)C(=O)NC(C(=O)N1Cc2cc([101O:1][101CH2:1]CCOc3ccnc(C4C(C)C[100N:0]([100C:0](=O)N5CCCC(n6nc(-c7ccc(Oc8ccc(F)cc8F)cc7)c(C(N)=O)c6N)C5)C4COC)c3)ccc2CC1C(=O)NC1CCCc2ccccc21)C(C)(C)C

> <Shape>
0.197

> <Color>
0.123

> <Negative vol penalty>
0.000

$$$$

  -OEChem-04052321483D

 85 94  0     1  0  0  0  0  0999 V2000
  -16.8687  -28.5634   24.2028 C   0  0  0  0  0  0  0  0  0  0  0  0
  -17.5869  -27.7265   23.3547 C   0  0  0  0  0  0  0  0  0  0  0  0
  -27.4985  -17.0684   19.7093 C   0  0  0  0  0  0  0  0  0  0  0  0
  -28.3543  -17.4095   21.9427 C   0  0  0  0  0  0  0  0  0  0  0  0
  -17.1938  -29.9167   24.2842 C   0  0  0  0  0  0  0  0  0  0  0  0
  -18.6300  -28.2428   22.5867 C   0  0  0  0  0  0  0  0  0  0  0  0
  -22.7462  -25.2941   22.6674 C   0  0  0  0  0  0  0  0  0  0  0  0
  -27.3781  -15.7023   19.9640 C   0  0  0  0  0  0  0  0  0  0  0  0
  -28.2339  -16.0433   22.1974 C   0  0  0  0  0  0  0  0  0  0  0  0
  -22.7289  -24.1544   21.8646 C   0  0  0  0  0  0  0  0  0  0  0  0
  -25.2341  -13.6498   21.5836 C   0  0  0  0  0  0  0  0  0  0  0  0
  -24.0547  -13.0183   21.1889 C   0  0  0  0  0  0  0  0  0  0  0  0
  -24.0431  -25.3108   20.2049 C   0  0  0  0  0  0  0  0  0  0  0  0
  -28.1492  -22.4450   15.6318 C   0  0  0  0  0  0  0  0  0  0  0  0
  -25.3236  -11.5455   19.7542 C   0  0  0  0  0  0  0  0  0  0  0  0
  -26.2442  -21.9119   14.3113 C   0  0  0  0  0  0  0  0  0  0  0  0
  -27.9866  -17.9220   20.6986 C   0  0  0  0  0  0  0  0  0  0  0  0
  -27.1406  -20.3283   20.6563 C   0  0  0  0  0  0  0  0  0  0  0  0
  -18.2476  -30.4480   23.5240 C   0  0  0  0  0  0  0  0  0  0  0  0
  -23.4040  -26.4562   22.2395 C   0  0  0  0  0  0  0  0  0  0  0  0
  -18.9686  -29.6049   22.6570 C   0  0  0  0  0  0  0  0  0  0  0  0
  -24.0696  -26.4631   21.0053 C   0  0  0  0  0  0  0  0  0  0  0  0
  -28.9114  -22.4659   14.4691 C   0  0  0  0  0  0  0  0  0  0  0  0
  -27.7458  -15.1898   21.2080 C   0  0  0  0  0  0  0  0  0  0  0  0
  -23.3749  -24.1636   20.6319 C   0  0  0  0  0  0  0  0  0  0  0  0
  -26.4582  -13.2293   21.0636 C   0  0  0  0  0  0  0  0  0  0  0  0
  -26.7894  -22.1635   15.5600 C   0  0  0  0  0  0  0  0  0  0  0  0
  -24.0994  -11.9661   20.2743 C   0  0  0  0  0  0  0  0  0  0  0  0
  -26.5029  -12.1771   20.1489 C   0  0  0  0  0  0  0  0  0  0  0  0
  -28.1117  -19.3332   20.4359 C   0  0  0  0  0  0  0  0  0  0  0  0
  -28.2713  -22.2005   13.2692 C   0  0  0  0  0  0  0  0  0  0  0  0
  -27.7437  -21.4929   20.2483 C   0  0  0  0  0  0  0  0  0  0  0  0
  -25.8122  -20.2104   21.1828 C   0  0  0  0  0  0  0  0  0  0  0  0
  -22.5023  -29.4345   21.5910 C   0  0  0  0  0  0  0  0  0  0  0  0
  -25.6938  -29.9159   21.2671 C   0  0  0  0  0  0  0  0  0  0  0  0
  -28.7737  -28.5910   20.6302 C   0  0  0  0  0  0  0  0  0  0  0  0
  -32.0720  -22.6552   16.3524 C   0  0  0  0  0  0  0  0  0  0  0  0
  -18.5313  -31.9267   23.6102 C   0  0  0  0  0  0  0  0  0  0  0  0
  -23.4362  -27.6687   23.1290 C   0  0  0  0  0  0  0  0  0  0  0  0
  -24.8073  -27.6788   20.5090 C   0  0  0  0  0  0  0  0  0  0  0  0
  -19.8933  -32.3197   23.0437 C   0  0  0  0  0  0  0  0  0  0  0  0
  -32.0430  -23.5484   19.7976 C   0  0  0  0  0  0  0  0  0  0  0  0
  -20.1227  -31.6502   21.6924 C   0  0  0  0  0  0  0  0  0  0  0  0
  -30.9531  -22.6481   20.3837 C   0  0  0  0  0  0  0  0  0  0  0  0
  -32.8431  -22.8305   18.7135 C   0  0  0  0  0  0  0  0  0  0  0  0
  -31.4047  -21.7626   14.1356 C   0  0  0  0  0  0  0  0  0  0  0  0
  -30.9291  -21.3446   18.2149 C   0  0  0  0  0  0  0  0  0  0  0  0
  -30.3851  -22.7696   14.5335 C   0  0  2  0  0  0  0  0  0  0  0  0
  -20.1228  -30.1226   21.8265 C   0  0  1  0  0  0  0  0  0  0  0  0
  -23.7002  -28.9629   22.3658 C   0  0  1  0  0  0  0  0  0  0  0  0
  -30.0670  -22.0535   19.2731 C   0  0  1  0  0  0  0  0  0  0  0  0
  -31.1869  -29.2388   20.3966 C   0  0  0  0  0  0  0  0  0  0  0  0
  -25.1115  -31.0807   18.5078 C   0  0  0  0  0  0  0  0  0  0  0  0
  -27.5413  -30.8223   17.9626 C   0  0  0  0  0  0  0  0  0  0  0  0
  -26.8355  -32.3264   19.8233 C   0  0  0  0  0  0  0  0  0  0  0  0
  -29.5791  -26.8522   22.8856 C   0  0  0  0  0  0  0  0  0  0  0  0
  -28.2668  -21.9325   10.9062 C   0  0  0  0  0  0  0  0  0  0  0  0
  -23.9400  -21.8013   17.8666 C   0  0  0  0  0  0  0  0  0  0  0  0
  -24.0413  -23.1321   18.5952 C   0  0  0  0  0  0  0  0  0  1  0  0
  -24.6358  -21.8383   16.5150 C   0  0  0  0  0  0  0  0  0  0  0  0
  -26.6790  -29.8213   20.1272 C   0  0  1  0  0  0  0  0  0  0  0  0
  -30.1043  -28.7462   21.3443 C   0  0  2  0  0  0  0  0  0  0  0  0
  -26.5264  -30.9902   19.1134 C   0  0  0  0  0  0  0  0  0  0  0  0
  -26.9526  -21.9232   13.1600 N   0  0  0  0  0  0  0  0  0  0  0  0
  -29.2455  -19.8228   19.9272 N   0  0  0  0  0  0  0  0  0  0  0  0
  -28.9906  -21.1383   19.8245 N   0  0  0  0  0  0  0  0  0  0  0  0
  -24.8048  -28.8415   21.4121 N   0  0  0  0  0  0  0  0  0  0  0  0
  -31.9515  -22.2665   17.7005 N   0  0  0  0  0  0  0  0  0  0  0  0
  -31.1472  -22.0381   15.5119 N   0  0  0  0  0  0  0  0  0  0  0  0
  -27.3236  -22.7754   20.2141 N   0  0  0  0  0  0  0  0  0  0  0  0
  -25.3505  -18.9399   21.5529 N   0  0  0  0  0  0  0  0  0  0  0  0
  -21.3834  -29.6630   22.3690 N   0  0  0  0  0  0  0  0  0  0  0  0
  -28.0011  -29.7281   20.7370 N   0  0  0  0  0  0  0  0  0  0  0  0
  -30.5398  -27.4414   21.9177 N   0  3  0  0  0  0  0  0  0  0  0  0
  -25.0512  -21.2000   21.3056 O   0  0  0  0  0  0  0  0  0  0  0  0
  -22.5873  -29.5817   20.3774 O   0  0  0  0  0  0  0  0  0  0  0  0
  -25.7171  -30.9033   22.0062 O   0  0  0  0  0  0  0  0  0  0  0  0
  -28.4535  -27.5652   20.0339 O   0  0  0  0  0  0  0  0  0  0  0  0
  -32.9093  -23.4689   15.9530 O   0  0  0  0  0  0  0  0  0  0  0  0
  -27.6283  -13.8568   21.4570 O   0  0  0  0  0  0  0  0  0  0  0  0
  -23.3590  -23.0527   19.8460 O   0  0  0  0  0  0  0  0  0  1  0  0
  -26.0146  -22.1352   16.6902 O   0  0  0  0  0  0  0  0  0  0  0  0
  -28.9870  -22.2134   12.1002 O   0  0  0  0  0  0  0  0  0  0  0  0
  -22.9670  -11.3587   19.8965 F   0  0  0  0  0  0  0  0  0  0  0  0
  -27.6761  -11.7679   19.6468 F   0  0  0  0  0  0  0  0  0  0  0  0
  1  2  1  0  0  0  0
  1  5  2  0  0  0  0
  2  6  2  0  0  0  0
  3  8  2  0  0  0  0
  3 17  1  0  0  0  0
  4  9  1  0  0  0  0
  4 17  2  0  0  0  0
  5 19  1  0  0  0  0
  6 21  1  0  0  0  0
  7 10  2  0  0  0  0
  7 20  1  0  0  0  0
  8 24  1  0  0  0  0
  9 24  2  0  0  0  0
 10 25  1  0  0  0  0
 11 12  2  0  0  0  0
 11 26  1  0  0  0  0
 12 28  1  0  0  0  0
 13 22  1  0  0  0  0
 13 25  2  0  0  0  0
 14 23  1  0  0  0  0
 14 27  2  0  0  0  0
 15 28  2  0  0  0  0
 15 29  1  0  0  0  0
 16 27  1  0  0  0  0
 16 64  2  0  0  0  0
 17 30  1  0  0  0  0
 18 30  1  0  0  0  0
 18 32  2  0  0  0  0
 18 33  1  0  0  0  0
 19 21  2  0  0  0  0
 19 38  1  0  0  0  0
 20 22  2  0  0  0  0
 20 39  1  0  0  0  0
 21 49  1  0  0  0  0
 22 40  1  0  0  0  0
 23 31  2  0  0  0  0
 23 48  1  0  0  0  0
 24 80  1  0  0  0  0
 25 81  1  0  0  0  0
 26 29  2  0  0  0  0
 26 80  1  0  0  0  0
 27 82  1  0  0  0  0
 28 84  1  0  0  0  0
 29 85  1  0  0  0  0
 30 65  2  0  0  0  0
 31 64  1  0  0  0  0
 31 83  1  0  0  0  0
 32 66  1  0  0  0  0
 32 70  1  0  0  0  0
 33 71  1  0  0  0  0
 33 75  2  0  0  0  0
 34 50  1  0  0  0  0
 34 72  1  0  0  0  0
 34 76  2  0  0  0  0
 35 61  1  0  0  0  0
 35 67  1  0  0  0  0
 35 77  2  0  0  0  0
 36 62  1  0  0  0  0
 36 73  1  0  0  0  0
 36 78  2  0  0  0  0
 37 68  1  0  0  0  0
 37 69  1  0  0  0  0
 37 79  2  0  0  0  0
 38 41  1  0  0  0  0
 39 50  1  0  0  0  0
 40 67  1  0  0  0  0
 41 43  1  0  0  0  0
 42 44  1  0  0  0  0
 42 45  1  0  0  0  0
 43 49  1  0  0  0  0
 44 51  1  0  0  0  0
 45 68  1  0  0  0  0
 46 48  1  0  0  0  0
 46 69  1  0  0  0  0
 47 51  1  0  0  0  0
 47 68  1  0  0  0  0
 48 69  1  0  0  0  0
 49 72  1  0  0  0  0
 50 67  1  0  0  0  0
 51 66  1  0  0  0  0
 52 62  1  0  0  0  0
 53 63  1  0  0  0  0
 54 63  1  0  0  0  0
 55 63  1  0  0  0  0
 56 74  1  0  0  0  0
 57 83  1  0  0  0  0
 58 59  1  0  0  0  0
 58 60  1  0  0  0  0
 59 81  1  0  0  0  0
 60 82  1  0  0  0  0
 61 63  1  0  0  0  0
 61 73  1  0  0  0  0
 62 74  1  0  0  0  0
 65 66  1  0  0  0  0
M  CHG  1  74   1
M  ISO  4  37 100  59 101  69 100  81 101
M  END
> <Batch ID>
0153

> <Smiles>
CNC(C)C(=O)NC(C(=O)N1Cc2cc([101O:1][101CH2:1]CCOc3cnc(OC)c(C4C[100N:0]4[100C:0](=O)N4CCCC(n5nc(-c6ccc(Oc7ccc(F)cc7F)cc6)c(C(N)=O)c5N)C4)c3)ccc2CC1C(=O)NC1CCCc2ccccc21)C(C)(C)C

> <Shape>
0.215

> <Color>
0.077

> <Negative vol penalty>
0.000

$$$$

  -OEChem-04052321483D

 88 98  0     1  0  0  0  0  0999 V2000
  -28.8741  -33.3925   26.2631 C   0  0  0  0  0  0  0  0  0  0  0  0
  -28.6091  -32.1328   25.7354 C   0  0  0  0  0  0  0  0  0  0  0  0
  -23.7898  -10.4862   22.6965 C   0  0  0  0  0  0  0  0  0  0  0  0
  -24.2895   -8.7452   21.0976 C   0  0  0  0  0  0  0  0  0  0  0  0
  -27.8609  -34.3483   26.3249 C   0  0  0  0  0  0  0  0  0  0  0  0
  -27.3304  -31.8279   25.2703 C   0  0  0  0  0  0  0  0  0  0  0  0
  -27.4060  -29.4281   20.8115 C   0  0  0  0  0  0  0  0  0  0  0  0
  -22.6963   -9.7514   23.1549 C   0  0  0  0  0  0  0  0  0  0  0  0
  -23.1960   -8.0104   21.5560 C   0  0  0  0  0  0  0  0  0  0  0  0
  -27.7173  -28.0691   20.8251 C   0  0  0  0  0  0  0  0  0  0  0  0
  -22.4650   -6.0096   24.1796 C   0  0  0  0  0  0  0  0  0  0  0  0
  -22.6508   -4.6455   24.4035 C   0  0  0  0  0  0  0  0  0  0  0  0
  -28.2113  -21.8322   19.7099 C   0  0  0  0  0  0  0  0  0  0  0  0
  -29.1111  -23.3047   21.9019 C   0  0  0  0  0  0  0  0  0  0  0  0
  -25.3708  -27.5361   20.6537 C   0  0  0  0  0  0  0  0  0  0  0  0
  -20.9375   -4.1449   22.7752 C   0  0  0  0  0  0  0  0  0  0  0  0
  -24.5863   -9.9831   21.6678 C   0  0  0  0  0  0  0  0  0  0  0  0
  -27.0391  -10.6841   21.6698 C   0  0  0  0  0  0  0  0  0  0  0  0
  -26.5717  -34.0582   25.8514 C   0  0  0  0  0  0  0  0  0  0  0  0
  -26.0718  -29.8519   20.7298 C   0  0  0  0  0  0  0  0  0  0  0  0
  -26.2987  -32.7803   25.3271 C   0  0  0  0  0  0  0  0  0  0  0  0
  -28.8026  -21.1808   20.7923 C   0  0  0  0  0  0  0  0  0  0  0  0
  -29.2525  -21.9170   21.8884 C   0  0  0  0  0  0  0  0  0  0  0  0
  -25.0454  -28.9010   20.6367 C   0  0  0  0  0  0  0  0  0  0  0  0
  -28.0700  -23.2198   19.7234 C   0  0  0  0  0  0  0  0  0  0  0  0
  -28.5198  -23.9560   20.8195 C   0  0  0  0  0  0  0  0  0  0  0  0
  -22.3995   -8.5135   22.5847 C   0  0  0  0  0  0  0  0  0  0  0  0
  -26.6994  -27.1229   20.7491 C   0  0  0  0  0  0  0  0  0  0  0  0
  -21.5154   -6.4415   23.2536 C   0  0  0  0  0  0  0  0  0  0  0  0
  -21.8871   -3.7131   23.7012 C   0  0  0  0  0  0  0  0  0  0  0  0
  -20.7517   -5.5091   22.5513 C   0  0  0  0  0  0  0  0  0  0  0  0
  -25.7156  -10.7419   21.1935 C   0  0  0  0  0  0  0  0  0  0  0  0
  -27.7224  -11.5899   20.8958 C   0  0  0  0  0  0  0  0  0  0  0  0
  -27.6007   -9.8831   22.7181 C   0  0  0  0  0  0  0  0  0  0  0  0
  -24.1321  -31.5294   22.6079 C   0  0  0  0  0  0  0  0  0  0  0  0
  -22.1161  -31.2956   20.0774 C   0  0  0  0  0  0  0  0  0  0  0  0
  -21.1829  -29.6058   17.2631 C   0  0  0  0  0  0  0  0  0  0  0  0
  -28.2181  -16.4224   18.3616 C   0  0  0  0  0  0  0  0  0  0  0  0
  -25.4968  -35.1080   25.9826 C   0  0  0  0  0  0  0  0  0  0  0  0
  -25.7545  -31.3216   20.6894 C   0  0  0  0  0  0  0  0  0  0  0  0
  -23.5984  -29.3042   20.5270 C   0  0  0  0  0  0  0  0  0  0  0  0
  -24.2655  -34.8297   25.1243 C   0  0  0  0  0  0  0  0  0  0  0  0
  -29.9374  -20.7485   25.2226 C   0  0  0  0  0  0  0  0  0  0  0  0
  -26.3571  -14.0351   16.6925 C   0  0  0  0  0  0  0  0  0  0  0  0
  -30.2227  -22.0279   24.4134 C   0  0  0  0  0  0  0  0  0  0  0  0
  -29.0485  -20.2973   24.0476 C   0  0  0  0  0  0  0  0  0  0  0  0
  -23.8311  -33.3747   25.2699 C   0  0  0  0  0  0  0  0  0  0  0  0
  -26.1271  -12.9518   17.7459 C   0  0  0  0  0  0  0  0  0  0  0  0
  -27.5817  -18.9622   20.6988 C   0  0  0  0  0  0  0  0  0  0  0  0
  -29.8512  -19.2037   19.6030 C   0  0  0  0  0  0  0  0  0  0  0  0
  -26.2154  -15.4259   17.3001 C   0  0  0  0  0  0  0  0  0  0  0  0
  -27.7357  -17.4400   20.6315 C   0  0  0  0  0  0  0  0  0  0  0  0
  -29.9628  -17.6819   19.5856 C   0  0  0  0  0  0  0  0  0  0  0  0
  -26.9012  -14.5951   19.5266 C   0  0  0  0  0  0  0  0  0  0  0  0
  -29.9274  -21.1977   23.1277 C   0  0  0  0  0  0  0  0  0  0  0  0
  -28.9469  -19.6710   20.7579 C   0  0  0  0  0  0  0  0  0  0  0  0
  -24.9307  -32.4199   24.7896 C   0  0  1  0  0  0  0  0  0  0  0  0
  -24.3257  -31.6365   21.1217 C   0  0  1  0  0  0  0  0  0  0  0  0
  -27.0397  -13.1648   18.9666 C   0  0  1  0  0  0  0  0  0  0  0  0
  -27.4335  -23.8951   18.5533 C   0  0  0  0  0  0  0  0  0  0  0  0
  -19.4750  -29.6323   15.4247 C   0  0  0  0  0  0  0  0  0  0  0  0
  -20.0301  -30.1763   22.0024 C   0  0  0  0  0  0  0  0  0  0  0  0
  -18.7425  -29.3538   20.0190 C   0  0  0  0  0  0  0  0  0  0  0  0
  -19.1352  -31.7985   20.3225 C   0  0  0  0  0  0  0  0  0  0  0  0
  -23.2590  -29.9451   15.1814 C   0  0  0  0  0  0  0  0  0  0  0  0
  -28.3788  -25.4424   20.8567 C   0  0  0  0  0  0  0  0  0  1  0  0
  -21.0606  -30.3093   19.6389 C   0  0  1  0  0  0  0  0  0  0  0  0
  -20.8594  -30.0867   15.8600 C   0  0  2  0  0  0  0  0  0  0  0  0
  -19.7692  -30.4015   20.4997 C   0  0  0  0  0  0  0  0  0  0  0  0
  -25.5648  -11.6155   20.1945 N   0  0  0  0  0  0  0  0  0  0  0  0
  -26.8025  -12.1150   20.0367 N   0  0  0  0  0  0  0  0  0  0  0  0
  -23.3387  -30.7530   20.4977 N   0  0  0  0  0  0  0  0  0  0  0  0
  -27.0947  -15.5874   18.4578 N   0  0  0  0  0  0  0  0  0  0  0  0
  -28.6409  -17.0576   19.5390 N   0  0  0  0  0  0  0  0  0  0  0  0
  -29.0145  -11.9805   20.8731 N   0  0  0  0  0  0  0  0  0  0  0  0
  -26.7577   -9.0046   23.4123 N   0  0  0  0  0  0  0  0  0  0  0  0
  -24.9536  -32.3619   23.3438 N   0  0  0  0  0  0  0  0  0  0  0  0
  -20.8478  -30.5453   18.2150 N   0  0  0  0  0  0  0  0  0  0  0  0
  -21.8559  -29.5552   14.8877 N   0  3  0  0  0  0  0  0  0  0  0  0
  -28.8106   -9.9566   23.0408 O   0  0  0  0  0  0  0  0  0  0  0  0
  -23.2979  -30.7503   23.0539 O   0  0  0  0  0  0  0  0  0  0  0  0
  -21.8674  -32.5033   20.0413 O   0  0  0  0  0  0  0  0  0  0  0  0
  -21.6794  -28.5050   17.4920 O   0  0  0  0  0  0  0  0  0  0  0  0
  -28.8093  -16.5904   17.2877 O   0  0  0  0  0  0  0  0  0  0  0  0
  -21.3327   -7.7962   23.0319 O   0  0  0  0  0  0  0  0  0  0  0  0
  -27.0026  -25.7864   20.7628 O   0  0  0  0  0  0  0  0  0  1  0  0
  -22.0667   -2.4031   23.9152 F   0  0  0  0  0  0  0  0  0  0  0  0
  -19.8388   -5.9179   21.6596 F   0  0  0  0  0  0  0  0  0  0  0  0
  1  2  1  0  0  0  0
  1  5  2  0  0  0  0
  2  6  2  0  0  0  0
  3  8  2  0  0  0  0
  3 17  1  0  0  0  0
  4  9  1  0  0  0  0
  4 17  2  0  0  0  0
  5 19  1  0  0  0  0
  6 21  1  0  0  0  0
  7 10  2  0  0  0  0
  7 20  1  0  0  0  0
  8 27  1  0  0  0  0
  9 27  2  0  0  0  0
 10 28  1  0  0  0  0
 11 12  2  0  0  0  0
 11 29  1  0  0  0  0
 12 30  1  0  0  0  0
 13 22  2  0  0  0  0
 13 25  1  0  0  0  0
 14 23  2  0  0  0  0
 14 26  1  0  0  0  0
 15 24  1  0  0  0  0
 15 28  2  0  0  0  0
 16 30  2  0  0  0  0
 16 31  1  0  0  0  0
 17 32  1  0  0  0  0
 18 32  1  0  0  0  0
 18 33  2  0  0  0  0
 18 34  1  0  0  0  0
 19 21  2  0  0  0  0
 19 39  1  0  0  0  0
 20 24  2  0  0  0  0
 20 40  1  0  0  0  0
 21 57  1  0  0  0  0
 22 23  1  0  0  0  0
 22 56  1  0  0  0  0
 23 55  1  0  0  0  0
 24 41  1  0  0  0  0
 25 26  2  0  0  0  0
 25 60  1  0  0  0  0
 26 66  1  0  0  0  0
 27 85  1  0  0  0  0
 28 86  1  0  0  0  0
 29 31  2  0  0  0  0
 29 85  1  0  0  0  0
 30 87  1  0  0  0  0
 31 88  1  0  0  0  0
 32 70  2  0  0  0  0
 33 71  1  0  0  0  0
 33 75  1  0  0  0  0
 34 76  1  0  0  0  0
 34 80  2  0  0  0  0
 35 58  1  0  0  0  0
 35 77  1  0  0  0  0
 35 81  2  0  0  0  0
 36 67  1  0  0  0  0
 36 72  1  0  0  0  0
 36 82  2  0  0  0  0
 37 68  1  0  0  0  0
 37 78  1  0  0  0  0
 37 83  2  0  0  0  0
 38 73  1  0  0  0  0
 38 74  1  0  0  0  0
 38 84  2  0  0  0  0
 39 42  1  0  0  0  0
 40 58  1  0  0  0  0
 41 72  1  0  0  0  0
 42 47  1  0  0  0  0
 43 45  1  0  0  0  0
 43 46  1  0  0  0  0
 44 48  1  0  0  0  0
 44 51  1  0  0  0  0
 45 55  1  0  0  0  0
 46 55  1  0  0  0  0
 47 57  1  0  0  0  0
 48 59  1  0  0  0  0
 49 52  1  0  0  0  0
 49 56  1  0  0  0  0
 50 53  1  0  0  0  0
 50 56  1  0  0  0  0
 51 73  1  0  0  0  0
 52 74  1  0  0  0  0
 53 74  1  0  0  0  0
 54 59  1  0  0  0  0
 54 73  1  0  0  0  0
 57 77  1  0  0  0  0
 58 72  1  0  0  0  0
 59 71  1  0  0  0  0
 61 68  1  0  0  0  0
 62 69  1  0  0  0  0
 63 69  1  0  0  0  0
 64 69  1  0  0  0  0
 65 79  1  0  0  0  0
 66 86  1  0  0  0  0
 67 69  1  0  0  0  0
 67 78  1  0  0  0  0
 68 79  1  0  0  0  0
 70 71  1  0  0  0  0
M  CHG  1  79   1
M  ISO  4  38 100  66 101  74 100  86 101
M  END
> <Batch ID>
0153

> <Smiles>
CNC(C)C(=O)NC(C(=O)N1Cc2cc([101O:1][101CH2:1]c3cc(C4CCC4)c(C4CC[100N:0]([100C:0](=O)N5CCCC(n6nc(-c7ccc(Oc8ccc(F)cc8F)cc7)c(C(N)=O)c6N)C5)CC4)cc3C)ccc2CC1C(=O)NC1CCCc2ccccc21)C(C)(C)C

> <Shape>
0.289

> <Color>
0.074

> <Negative vol penalty>
0.000

$$$$

  -OEChem-04052321483D

 90100  0     1  0  0  0  0  0999 V2000
  -25.5398  -31.3931   20.5987 C   0  0  0  0  0  0  0  0  0  0  0  0
  -25.3868  -30.0139   20.4995 C   0  0  0  0  0  0  0  0  0  0  0  0
  -30.8910  -19.7709   19.7970 C   0  0  0  0  0  0  0  0  0  0  0  0
  -28.5183  -19.3932   20.0509 C   0  0  0  0  0  0  0  0  0  0  0  0
  -24.7607  -32.1166   21.5006 C   0  0  0  0  0  0  0  0  0  0  0  0
  -24.4553  -29.3573   21.3030 C   0  0  0  0  0  0  0  0  0  0  0  0
  -21.7181  -25.9631   18.7276 C   0  0  0  0  0  0  0  0  0  0  0  0
  -23.7121  -15.6676   18.4371 C   0  0  0  0  0  0  0  0  0  0  0  0
  -30.6328  -21.0316   19.2591 C   0  0  0  0  0  0  0  0  0  0  0  0
  -28.2600  -20.6540   19.5130 C   0  0  0  0  0  0  0  0  0  0  0  0
  -22.3241  -24.7401   18.4433 C   0  0  0  0  0  0  0  0  0  0  0  0
  -23.2542  -16.7744   17.7224 C   0  0  0  0  0  0  0  0  0  0  0  0
  -26.9882  -23.9182   18.5405 C   0  0  0  0  0  0  0  0  0  0  0  0
  -26.0401  -24.7157   19.1814 C   0  0  0  0  0  0  0  0  0  0  0  0
  -21.1485  -23.7342   20.2941 C   0  0  0  0  0  0  0  0  0  0  0  0
  -27.3641  -24.6662   21.2017 C   0  0  0  0  0  0  0  0  0  0  0  0
  -29.8338  -18.9516   20.1929 C   0  0  0  0  0  0  0  0  0  0  0  0
  -30.8419  -17.3544   21.9076 C   0  0  0  0  0  0  0  0  0  0  0  0
  -23.8124  -31.4698   22.3087 C   0  0  0  0  0  0  0  0  0  0  0  0
  -20.8296  -26.0836   19.8058 C   0  0  0  0  0  0  0  0  0  0  0  0
  -23.6637  -30.0727   22.2175 C   0  0  0  0  0  0  0  0  0  0  0  0
  -24.0052  -15.7871   19.7956 C   0  0  0  0  0  0  0  0  0  0  0  0
  -20.5306  -24.9592   20.5884 C   0  0  0  0  0  0  0  0  0  0  0  0
  -23.3825  -18.1203   19.7247 C   0  0  0  0  0  0  0  0  0  0  0  0
  -23.8404  -17.0134   20.4394 C   0  0  0  0  0  0  0  0  0  0  0  0
  -29.3173  -21.4732   19.1171 C   0  0  0  0  0  0  0  0  0  0  0  0
  -22.0416  -23.6261   19.2283 C   0  0  0  0  0  0  0  0  0  0  0  0
  -23.0894  -18.0008   18.3662 C   0  0  0  0  0  0  0  0  0  0  0  0
  -28.1242  -23.4946   19.2303 C   0  0  0  0  0  0  0  0  0  0  0  0
  -26.2281  -25.0897   20.5119 C   0  0  0  0  0  0  0  0  0  0  0  0
  -28.3122  -23.8687   20.5608 C   0  0  0  0  0  0  0  0  0  0  0  0
  -30.0999  -17.6489   20.7481 C   0  0  0  0  0  0  0  0  0  0  0  0
  -30.7998  -15.9849   22.0036 C   0  0  0  0  0  0  0  0  0  0  0  0
  -31.5094  -18.2396   22.8167 C   0  0  0  0  0  0  0  0  0  0  0  0
  -20.7854  -27.7728   22.4981 C   0  0  0  0  0  0  0  0  0  0  0  0
  -17.8094  -26.5136   22.7809 C   0  0  0  0  0  0  0  0  0  0  0  0
  -15.6319  -24.0142   21.9697 C   0  0  0  0  0  0  0  0  0  0  0  0
  -27.0503  -11.8557   20.1458 C   0  0  0  0  0  0  0  0  0  0  0  0
  -23.0266  -32.2881   23.3025 C   0  0  0  0  0  0  0  0  0  0  0  0
  -20.1636  -27.4035   20.0829 C   0  0  0  0  0  0  0  0  0  0  0  0
  -19.5683  -25.0310   21.7448 C   0  0  0  0  0  0  0  0  0  0  0  0
  -21.7985  -31.5657   23.8505 C   0  0  0  0  0  0  0  0  0  0  0  0
  -23.8864  -12.5521   21.9395 C   0  0  0  0  0  0  0  0  0  0  0  0
  -30.4154  -12.0428   19.3281 C   0  0  0  0  0  0  0  0  0  0  0  0
  -23.3532  -13.7815   21.2052 C   0  0  0  0  0  0  0  0  0  0  0  0
  -22.1557  -30.1401   24.2589 C   0  0  0  0  0  0  0  0  0  0  0  0
  -30.8034  -13.4722   19.7062 C   0  0  0  0  0  0  0  0  0  0  0  0
  -21.9352  -20.3068   20.1511 C   0  0  0  0  0  0  0  0  0  0  0  0
  -24.7531  -11.6815   21.0344 C   0  0  0  0  0  0  0  0  0  0  0  0
  -29.0381  -12.0049   18.6757 C   0  0  0  0  0  0  0  0  0  0  0  0
  -25.3366  -13.6453   19.6483 C   0  0  0  0  0  0  0  0  0  0  0  0
  -28.3312  -14.0319   19.9041 C   0  0  0  0  0  0  0  0  0  0  0  0
  -24.5016  -14.5676   20.5492 C   0  0  1  0  0  0  0  0  0  0  0  0
  -22.6465  -29.3277   23.0544 C   0  0  1  0  0  0  0  0  0  0  0  0
  -23.1967  -19.4925   20.4363 C   0  0  2  0  0  0  0  0  0  0  0  0
  -19.6698  -27.5334   21.5205 C   0  0  1  0  0  0  0  0  0  0  0  0
  -29.7156  -14.1268   20.5754 C   0  0  2  0  0  0  0  0  0  0  0  0
  -22.8892  -21.5018   20.0271 C   0  0  1  0  0  0  0  0  0  1  0  0
  -25.4897  -17.8352   22.1397 C   0  0  0  0  0  0  0  0  0  0  0  0
  -13.2816  -23.2380   22.3828 C   0  0  0  0  0  0  0  0  0  0  0  0
  -18.6220  -25.5372   25.5551 C   0  0  0  0  0  0  0  0  0  0  0  0
  -16.6448  -24.0019   25.5176 C   0  0  0  0  0  0  0  0  0  0  0  0
  -16.3063  -26.4712   25.4148 C   0  0  0  0  0  0  0  0  0  0  0  0
  -14.9393  -24.2099   19.0990 C   0  0  0  0  0  0  0  0  0  0  0  0
  -22.3660  -18.8610   16.2704 C   0  0  0  0  0  0  0  0  0  0  0  0
  -24.1533  -17.1421   21.8960 C   0  0  0  0  0  0  0  0  0  0  0  0
  -17.2322  -25.2620   23.3967 C   0  0  1  0  0  0  0  0  0  0  0  0
  -14.1961  -24.0492   21.4782 C   0  0  2  0  0  0  0  0  0  0  0  0
  -17.2210  -25.3169   24.9505 C   0  0  0  0  0  0  0  0  0  0  0  0
  -29.6216  -16.5545   20.1502 N   0  0  0  0  0  0  0  0  0  0  0  0
  -30.0641  -15.5589   20.9371 N   0  0  0  0  0  0  0  0  0  0  0  0
  -18.9475  -26.3452   21.9796 N   0  0  0  0  0  0  0  0  0  0  0  0
  -25.8067  -12.4628   20.3862 N   0  0  0  0  0  0  0  0  0  0  0  0
  -28.0327  -12.6426   19.5258 N   0  0  0  0  0  0  0  0  0  0  0  0
  -31.3208  -15.1156   22.8953 N   0  0  0  0  0  0  0  0  0  0  0  0
  -30.7940  -18.7310   23.9173 N   0  0  0  0  0  0  0  0  0  0  0  0
  -21.5276  -28.9089   22.2376 N   0  0  0  0  0  0  0  0  0  0  0  0
  -15.9152  -25.0813   22.7957 N   0  0  0  0  0  0  0  0  0  0  0  0
  -23.9675  -20.5373   19.7376 N   0  3  0  0  0  0  0  0  0  0  0  0
  -14.1071  -23.4923   20.0987 N   0  3  0  0  0  0  0  0  0  0  0  0
  -32.6998  -18.5977   22.6489 O   0  0  0  0  0  0  0  0  0  0  0  0
  -20.9591  -26.9859   23.4213 O   0  0  0  0  0  0  0  0  0  0  0  0
  -17.2661  -27.5998   22.9970 O   0  0  0  0  0  0  0  0  0  0  0  0
  -16.4221  -23.1267   21.6555 O   0  0  0  0  0  0  0  0  0  0  0  0
  -27.2696  -10.6817   20.4695 O   0  0  0  0  0  0  0  0  0  0  0  0
  -29.0650  -22.7035   18.5924 O   0  0  0  0  0  0  0  0  0  0  0  0
  -22.6395  -22.4167   18.9500 O   0  0  0  0  0  0  0  0  0  1  0  0
  -22.6412  -19.0721   17.6538 O   0  0  0  0  0  0  0  0  0  0  0  0
  -25.3183  -25.8569   21.1267 F   0  0  0  0  0  0  0  0  0  0  0  0
  -29.4022  -23.4658   21.2283 F   0  0  0  0  0  0  0  0  0  0  0  0
  1  2  1  0  0  0  0
  1  5  2  0  0  0  0
  2  6  2  0  0  0  0
  3  9  2  0  0  0  0
  3 17  1  0  0  0  0
  4 10  1  0  0  0  0
  4 17  2  0  0  0  0
  5 19  1  0  0  0  0
  6 21  1  0  0  0  0
  7 11  2  0  0  0  0
  7 20  1  0  0  0  0
  8 12  1  0  0  0  0
  8 22  2  0  0  0  0
  9 26  1  0  0  0  0
 10 26  2  0  0  0  0
 11 27  1  0  0  0  0
 12 28  2  0  0  0  0
 13 14  2  0  0  0  0
 13 29  1  0  0  0  0
 14 30  1  0  0  0  0
 15 23  1  0  0  0  0
 15 27  2  0  0  0  0
 16 30  2  0  0  0  0
 16 31  1  0  0  0  0
 17 32  1  0  0  0  0
 18 32  1  0  0  0  0
 18 33  2  0  0  0  0
 18 34  1  0  0  0  0
 19 21  2  0  0  0  0
 19 39  1  0  0  0  0
 20 23  2  0  0  0  0
 20 40  1  0  0  0  0
 21 54  1  0  0  0  0
 22 25  1  0  0  0  0
 22 53  1  0  0  0  0
 23 41  1  0  0  0  0
 24 25  2  0  0  0  0
 24 28  1  0  0  0  0
 24 55  1  0  0  0  0
 25 66  1  0  0  0  0
 26 86  1  0  0  0  0
 27 87  1  0  0  0  0
 28 88  1  0  0  0  0
 29 31  2  0  0  0  0
 29 86  1  0  0  0  0
 30 89  1  0  0  0  0
 31 90  1  0  0  0  0
 32 70  2  0  0  0  0
 33 71  1  0  0  0  0
 33 75  1  0  0  0  0
 34 76  1  0  0  0  0
 34 81  2  0  0  0  0
 35 56  1  0  0  0  0
 35 77  1  0  0  0  0
 35 82  2  0  0  0  0
 36 67  1  0  0  0  0
 36 72  1  0  0  0  0
 36 83  2  0  0  0  0
 37 68  1  0  0  0  0
 37 78  1  0  0  0  0
 37 84  2  0  0  0  0
 38 73  1  0  0  0  0
 38 74  1  0  0  0  0
 38 85  2  0  0  0  0
 39 42  1  0  0  0  0
 40 56  1  0  0  0  0
 41 72  1  0  0  0  0
 42 46  1  0  0  0  0
 43 45  1  0  0  0  0
 43 49  1  0  0  0  0
 44 47  1  0  0  0  0
 44 50  1  0  0  0  0
 45 53  1  0  0  0  0
 46 54  1  0  0  0  0
 47 57  1  0  0  0  0
 48 55  1  0  0  0  0
 48 58  1  0  0  0  0
 49 73  1  0  0  0  0
 50 74  1  0  0  0  0
 51 53  1  0  0  0  0
 51 73  1  0  0  0  0
 52 57  1  0  0  0  0
 52 74  1  0  0  0  0
 54 77  1  0  0  0  0
 55 79  1  0  0  0  0
 56 72  1  0  0  0  0
 57 71  1  0  0  0  0
 58 79  1  0  0  0  0
 58 87  1  0  0  0  0
 59 66  1  0  0  0  0
 60 68  1  0  0  0  0
 61 69  1  0  0  0  0
 62 69  1  0  0  0  0
 63 69  1  0  0  0  0
 64 80  1  0  0  0  0
 65 88  1  0  0  0  0
 67 69  1  0  0  0  0
 67 78  1  0  0  0  0
 68 80  1  0  0  0  0
 70 71  1  0  0  0  0
M  CHG  2  79   1  80   1
M  ISO  4  38 100  58 101  73 100  87 101
M  END
> <Batch ID>
0153

> <Smiles>
CCc1c(C2CCC[100N:0]([100C:0](=O)N3CCCC(n4nc(-c5ccc(Oc6ccc(F)cc6F)cc5)c(C(N)=O)c4N)C3)C2)ccc(OC)c1C1C[101CH:1]([101O:1]c2ccc3c(c2)CN(C(=O)C(NC(=O)C(C)NC)C(C)(C)C)C(C(=O)NC2CCCc4ccccc42)C3)N1

> <Shape>
0.261

> <Color>
0.068

> <Negative vol penalty>
0.000

$$$$

  -OEChem-04052321483D

 87 96  0     1  0  0  0  0  0999 V2000
  -18.9234  -27.7569   28.8378 C   0  0  0  0  0  0  0  0  0  0  0  0
  -20.1575  -27.2064   28.5069 C   0  0  0  0  0  0  0  0  0  0  0  0
  -26.5266  -12.2607   21.6541 C   0  0  0  0  0  0  0  0  0  0  0  0
  -25.7845  -13.7941   19.9409 C   0  0  0  0  0  0  0  0  0  0  0  0
  -18.3166  -28.6718   27.9784 C   0  0  0  0  0  0  0  0  0  0  0  0
  -20.7849  -27.5698   27.3158 C   0  0  0  0  0  0  0  0  0  0  0  0
  -27.3036  -28.5742   24.5203 C   0  0  0  0  0  0  0  0  0  0  0  0
  -25.3055  -11.5904   21.5832 C   0  0  0  0  0  0  0  0  0  0  0  0
  -24.5633  -13.1238   19.8699 C   0  0  0  0  0  0  0  0  0  0  0  0
  -28.0796  -28.1840   23.4297 C   0  0  0  0  0  0  0  0  0  0  0  0
  -23.8235   -9.3208   19.5619 C   0  0  0  0  0  0  0  0  0  0  0  0
  -23.8502   -7.9265   19.5319 C   0  0  0  0  0  0  0  0  0  0  0  0
  -26.9742  -29.8339   22.0604 C   0  0  0  0  0  0  0  0  0  0  0  0
  -22.5465   -7.8579   21.5648 C   0  0  0  0  0  0  0  0  0  0  0  0
  -26.7661  -13.3626   20.8330 C   0  0  0  0  0  0  0  0  0  0  0  0
  -29.1902  -13.7858   20.1605 C   0  0  0  0  0  0  0  0  0  0  0  0
  -18.9414  -29.0539   26.7808 C   0  0  0  0  0  0  0  0  0  0  0  0
  -26.3477  -29.5914   24.3860 C   0  0  0  0  0  0  0  0  0  0  0  0
  -20.1852  -28.4897   26.4389 C   0  0  0  0  0  0  0  0  0  0  0  0
  -26.1890  -30.2369   23.1514 C   0  0  0  0  0  0  0  0  0  0  0  0
  -24.3238  -12.0219   20.6911 C   0  0  0  0  0  0  0  0  0  0  0  0
  -27.9130  -28.8119   22.1988 C   0  0  0  0  0  0  0  0  0  0  0  0
  -23.1584   -9.9836   20.5934 C   0  0  0  0  0  0  0  0  0  0  0  0
  -23.2117   -7.1951   20.5333 C   0  0  0  0  0  0  0  0  0  0  0  0
  -22.5199   -9.2522   21.5949 C   0  0  0  0  0  0  0  0  0  0  0  0
  -28.0272  -14.0558   20.9063 C   0  0  0  0  0  0  0  0  0  0  0  0
  -30.1017  -14.7160   20.5970 C   0  0  0  0  0  0  0  0  0  0  0  0
  -29.4257  -12.7838   19.1624 C   0  0  0  0  0  0  0  0  0  0  0  0
  -23.1889  -29.7569   24.6997 C   0  0  0  0  0  0  0  0  0  0  0  0
  -23.7005  -32.9276   24.2448 C   0  0  0  0  0  0  0  0  0  0  0  0
  -25.7018  -35.3878   22.9843 C   0  0  0  0  0  0  0  0  0  0  0  0
  -29.5274  -20.1322   23.0843 C   0  0  0  0  0  0  0  0  0  0  0  0
  -18.2246  -30.0105   25.8611 C   0  0  0  0  0  0  0  0  0  0  0  0
  -25.5372  -30.0190   25.5788 C   0  0  0  0  0  0  0  0  0  0  0  0
  -25.1908  -31.3484   22.9601 C   0  0  0  0  0  0  0  0  0  0  0  0
  -19.1300  -30.6269   24.7978 C   0  0  0  0  0  0  0  0  0  0  0  0
  -31.2415  -17.3230   24.4435 C   0  0  0  0  0  0  0  0  0  0  0  0
  -19.9907  -29.5522   24.1413 C   0  0  0  0  0  0  0  0  0  0  0  0
  -24.8166  -21.0973   19.2967 C   0  0  0  0  0  0  0  0  0  0  0  0
  -23.9599  -20.9515   20.5233 C   0  0  0  0  0  0  0  0  0  0  0  0
  -30.7170  -16.1428   23.6238 C   0  0  0  0  0  0  0  0  0  0  0  0
  -30.1110  -22.1108   20.5643 C   0  0  0  0  0  0  0  0  0  0  0  0
  -30.1511  -18.3609   24.6999 C   0  0  0  0  0  0  0  0  0  0  0  0
  -28.9376  -17.6670   22.6702 C   0  0  0  0  0  0  0  0  0  0  0  0
  -30.0661  -23.5144   19.9791 C   0  0  0  0  0  0  0  0  0  0  0  0
  -27.5622  -23.4282   19.9307 C   0  0  0  0  0  0  0  0  0  0  0  0
  -20.9089  -28.8776   25.1677 C   0  0  1  0  0  0  0  0  0  0  0  0
  -24.2342  -30.7147   25.1975 C   0  0  1  0  0  0  0  0  0  0  0  0
  -25.0585  -21.9775   20.4915 C   0  0  0  0  0  0  0  0  0  0  0  0
  -27.5783  -22.0140   20.5220 C   0  0  1  0  0  0  0  0  0  0  0  0
  -30.0153  -16.6207   22.3383 C   0  0  2  0  0  0  0  0  0  0  0  0
  -28.8475  -21.7891   21.3664 C   0  0  1  0  0  0  0  0  0  0  0  0
  -25.8375  -37.8809   22.7322 C   0  0  0  0  0  0  0  0  0  0  0  0
  -27.8652  -24.8587   17.2276 C   0  0  0  0  0  0  0  0  0  0  0  0
  -21.6402  -32.8101   21.9973 C   0  0  0  0  0  0  0  0  0  0  0  0
  -22.5007  -35.0172   21.1872 C   0  0  0  0  0  0  0  0  0  0  0  0
  -21.4789  -34.8354   23.4556 C   0  0  0  0  0  0  0  0  0  0  0  0
  -28.1987  -35.5283   24.5669 C   0  0  0  0  0  0  0  0  0  0  0  0
  -28.6350  -27.5058   18.8996 C   0  0  0  0  0  0  0  0  0  0  0  0
  -28.3198  -26.0865   19.3902 C   0  0  0  0  0  0  0  0  0  0  0  0
  -28.0834  -28.5730   19.8388 C   0  0  0  0  0  0  0  0  0  1  0  0
  -23.7652  -33.8384   23.0426 C   0  0  1  0  0  0  0  0  0  0  0  0
  -26.2101  -36.6829   23.5917 C   0  0  2  0  0  0  0  0  0  0  0  0
  -26.3027  -21.7905   21.3395 C   0  0  1  0  0  0  0  0  0  0  0  0
  -28.7932  -24.9908   18.4281 C   0  0  1  0  0  0  0  0  0  0  0  0
  -22.3638  -34.1031   22.4235 C   0  0  0  0  0  0  0  0  0  0  0  0
  -28.1828  -15.0774   21.7525 N   0  0  0  0  0  0  0  0  0  0  0  0
  -29.4545  -15.4575   21.5412 N   0  0  0  0  0  0  0  0  0  0  0  0
  -24.4176  -31.7262   24.1547 N   0  0  0  0  0  0  0  0  0  0  0  0
  -29.5266  -18.7735   23.4406 N   0  0  0  0  0  0  0  0  0  0  0  0
  -31.3856  -14.9637   20.2616 N   0  0  0  0  0  0  0  0  0  0  0  0
  -28.3806  -11.9097   18.8337 N   0  0  0  0  0  0  0  0  0  0  0  0
  -22.0411  -29.7273   25.4685 N   0  0  0  0  0  0  0  0  0  0  0  0
  -24.4623  -35.0430   23.4802 N   0  0  0  0  0  0  0  0  0  0  0  0
  -28.9204  -20.4364   21.8720 N   0  0  0  0  0  0  0  0  0  0  0  0
  -28.8240  -23.6775   19.1304 N   0  3  1  0  0  0  0  0  0  0  0  0
  -27.6937  -36.6445   23.7266 N   0  3  0  0  0  0  0  0  0  0  0  0
  -30.5351  -12.6567   18.5910 O   0  0  0  0  0  0  0  0  0  0  0  0
  -23.4071  -29.0948   23.6918 O   0  0  0  0  0  0  0  0  0  0  0  0
  -23.0439  -33.2728   25.2303 O   0  0  0  0  0  0  0  0  0  0  0  0
  -26.3389  -34.7482   22.1503 O   0  0  0  0  0  0  0  0  0  0  0  0
  -30.0364  -21.0084   23.7914 O   0  0  0  0  0  0  0  0  0  0  0  0
  -26.2847  -22.7105   22.4222 O   0  0  0  0  0  0  0  0  0  0  0  0
  -23.1322  -11.3679   20.6214 O   0  0  0  0  0  0  0  0  0  0  0  0
  -28.6687  -28.4325   21.1326 O   0  0  0  0  0  0  0  0  0  1  0  0
  -23.2360   -5.8562   20.5035 F   0  0  0  0  0  0  0  0  0  0  0  0
  -21.8783   -9.8834   22.5877 F   0  0  0  0  0  0  0  0  0  0  0  0
  1  2  1  0  0  0  0
  1  5  2  0  0  0  0
  2  6  2  0  0  0  0
  3  8  2  0  0  0  0
  3 15  1  0  0  0  0
  4  9  1  0  0  0  0
  4 15  2  0  0  0  0
  5 17  1  0  0  0  0
  6 19  1  0  0  0  0
  7 10  2  0  0  0  0
  7 18  1  0  0  0  0
  8 21  1  0  0  0  0
  9 21  2  0  0  0  0
 10 22  1  0  0  0  0
 11 12  2  0  0  0  0
 11 23  1  0  0  0  0
 12 24  1  0  0  0  0
 13 20  1  0  0  0  0
 13 22  2  0  0  0  0
 14 24  2  0  0  0  0
 14 25  1  0  0  0  0
 15 26  1  0  0  0  0
 16 26  1  0  0  0  0
 16 27  2  0  0  0  0
 16 28  1  0  0  0  0
 17 19  2  0  0  0  0
 17 33  1  0  0  0  0
 18 20  2  0  0  0  0
 18 34  1  0  0  0  0
 19 47  1  0  0  0  0
 20 35  1  0  0  0  0
 21 84  1  0  0  0  0
 22 85  1  0  0  0  0
 23 25  2  0  0  0  0
 23 84  1  0  0  0  0
 24 86  1  0  0  0  0
 25 87  1  0  0  0  0
 26 67  2  0  0  0  0
 27 68  1  0  0  0  0
 27 71  1  0  0  0  0
 28 72  1  0  0  0  0
 28 78  2  0  0  0  0
 29 48  1  0  0  0  0
 29 73  1  0  0  0  0
 29 79  2  0  0  0  0
 30 62  1  0  0  0  0
 30 69  1  0  0  0  0
 30 80  2  0  0  0  0
 31 63  1  0  0  0  0
 31 74  1  0  0  0  0
 31 81  2  0  0  0  0
 32 70  1  0  0  0  0
 32 75  1  0  0  0  0
 32 82  2  0  0  0  0
 33 36  1  0  0  0  0
 34 48  1  0  0  0  0
 35 69  1  0  0  0  0
 36 38  1  0  0  0  0
 37 41  1  0  0  0  0
 37 43  1  0  0  0  0
 38 47  1  0  0  0  0
 39 40  1  0  0  0  0
 39 49  1  0  0  0  0
 40 49  1  0  0  0  0
 41 51  1  0  0  0  0
 42 45  1  0  0  0  0
 42 52  1  0  0  0  0
 43 70  1  0  0  0  0
 44 51  1  0  0  0  0
 44 70  1  0  0  0  0
 45 76  1  0  0  0  0
 46 50  1  0  0  0  0
 46 76  1  0  0  0  0
 47 73  1  0  0  0  0
 48 69  1  0  0  0  0
 49 64  1  0  0  0  0
 50 52  1  0  0  0  0
 50 64  1  0  0  0  0
 51 68  1  0  0  0  0
 52 75  1  0  0  0  0
 53 63  1  0  0  0  0
 54 65  1  0  0  0  0
 55 66  1  0  0  0  0
 56 66  1  0  0  0  0
 57 66  1  0  0  0  0
 58 77  1  0  0  0  0
 59 60  1  0  0  0  0
 59 61  1  0  0  0  0
 60 65  1  0  0  0  0
 61 85  1  0  0  0  0
 62 66  1  0  0  0  0
 62 74  1  0  0  0  0
 63 77  1  0  0  0  0
 64 83  1  0  0  0  0
 65 76  1  0  0  0  0
 67 68  1  0  0  0  0
M  CHG  2  76   1  77   1
M  ISO  4  32 100  61 101  75 100  85 101
M  END
> <Batch ID>
0153

> <Smiles>
CNC(C)C(=O)NC(C(=O)N1Cc2cc([101O:1][101CH2:1]CCC(C)N3CCC([100NH:0][100C:0](=O)N4CCCC(n5nc(-c6ccc(Oc7ccc(F)cc7F)cc6)c(C(N)=O)c5N)C4)C(C(O)C4CC4)C3)ccc2CC1C(=O)NC1CCCc2ccccc21)C(C)(C)C

> <Shape>
0.283

> <Color>
0.076

> <Negative vol penalty>
0.000

$$$$

  -OEChem-04052321483D

 86 95  0     1  0  0  0  0  0999 V2000
  -17.3794  -30.9457   23.4333 C   0  0  0  0  0  0  0  0  0  0  0  0
  -18.7458  -30.8061   23.2121 C   0  0  0  0  0  0  0  0  0  0  0  0
  -26.0168  -15.0541   21.0948 C   0  0  0  0  0  0  0  0  0  0  0  0
  -24.9489  -16.6799   19.6618 C   0  0  0  0  0  0  0  0  0  0  0  0
  -16.5762  -29.8135   23.5636 C   0  0  0  0  0  0  0  0  0  0  0  0
  -19.3099  -29.5340   23.1223 C   0  0  0  0  0  0  0  0  0  0  0  0
  -22.5625  -29.1195   19.2631 C   0  0  0  0  0  0  0  0  0  0  0  0
  -24.7966  -14.3989   21.2607 C   0  0  0  0  0  0  0  0  0  0  0  0
  -23.7287  -16.0247   19.8277 C   0  0  0  0  0  0  0  0  0  0  0  0
  -23.8340  -29.6631   19.4408 C   0  0  0  0  0  0  0  0  0  0  0  0
  -22.8648  -12.2491   19.5058 C   0  0  0  0  0  0  0  0  0  0  0  0
  -22.8568  -10.8581   19.4033 C   0  0  0  0  0  0  0  0  0  0  0  0
  -24.7000  -27.4639   19.9234 C   0  0  0  0  0  0  0  0  0  0  0  0
  -28.6235  -24.8608   18.4700 C   0  0  0  0  0  0  0  0  0  0  0  0
  -22.0273  -10.6961   21.6667 C   0  0  0  0  0  0  0  0  0  0  0  0
  -26.0929  -16.1946   20.2954 C   0  0  0  0  0  0  0  0  0  0  0  0
  -28.3196  -16.6309   19.1296 C   0  0  0  0  0  0  0  0  0  0  0  0
  -17.1292  -28.5270   23.4657 C   0  0  0  0  0  0  0  0  0  0  0  0
  -22.3477  -27.7433   19.4251 C   0  0  0  0  0  0  0  0  0  0  0  0
  -18.5136  -28.3836   23.2528 C   0  0  0  0  0  0  0  0  0  0  0  0
  -23.4254  -26.9050   19.7447 C   0  0  0  0  0  0  0  0  0  0  0  0
  -28.8323  -26.0026   17.7044 C   0  0  0  0  0  0  0  0  0  0  0  0
  -29.9341  -26.8116   17.9590 C   0  0  0  0  0  0  0  0  0  0  0  0
  -23.6526  -14.8841   20.6271 C   0  0  0  0  0  0  0  0  0  0  0  0
  -24.9025  -28.8356   19.7739 C   0  0  0  0  0  0  0  0  0  0  0  0
  -22.4541  -12.8637   20.6887 C   0  0  0  0  0  0  0  0  0  0  0  0
  -22.4380  -10.0816   20.4838 C   0  0  0  0  0  0  0  0  0  0  0  0
  -22.0353  -12.0872   21.7691 C   0  0  0  0  0  0  0  0  0  0  0  0
  -27.3529  -16.8722   20.1241 C   0  0  0  0  0  0  0  0  0  0  0  0
  -30.7904  -26.4380   18.9822 C   0  0  0  0  0  0  0  0  0  0  0  0
  -29.5386  -24.5744   19.4701 C   0  0  0  0  0  0  0  0  0  0  0  0
  -29.3225  -17.5295   19.4003 C   0  0  0  0  0  0  0  0  0  0  0  0
  -28.3117  -15.6796   18.0569 C   0  0  0  0  0  0  0  0  0  0  0  0
  -20.5871  -25.9631   21.3834 C   0  0  0  0  0  0  0  0  0  0  0  0
  -21.6159  -23.5458   19.4806 C   0  0  0  0  0  0  0  0  0  0  0  0
  -23.9696  -22.3710   17.3066 C   0  0  0  0  0  0  0  0  0  0  0  0
  -30.1017  -22.9302   21.2938 C   0  0  0  0  0  0  0  0  0  0  0  0
  -16.2287  -27.3330   23.6605 C   0  0  0  0  0  0  0  0  0  0  0  0
  -20.9754  -27.1688   19.2036 C   0  0  0  0  0  0  0  0  0  0  0  0
  -23.2515  -25.4181   19.9101 C   0  0  0  0  0  0  0  0  0  0  0  0
  -16.8436  -26.0213   23.1790 C   0  0  0  0  0  0  0  0  0  0  0  0
  -30.7032  -20.1139   23.3875 C   0  0  0  0  0  0  0  0  0  0  0  0
  -27.0609  -25.2320   15.9891 C   0  0  0  0  0  0  0  0  0  0  0  0
  -28.1584  -25.8893   15.2121 C   0  0  0  0  0  0  0  0  0  0  0  0
  -18.2800  -25.8911   23.6756 C   0  0  0  0  0  0  0  0  0  0  0  0
  -29.9957  -18.9662   22.6635 C   0  0  0  0  0  0  0  0  0  0  0  0
  -29.9294  -21.4252   23.2637 C   0  0  0  0  0  0  0  0  0  0  0  0
  -28.8810  -20.6699   21.1662 C   0  0  0  0  0  0  0  0  0  0  0  0
  -27.8646  -26.3385   16.6189 C   0  0  0  0  0  0  0  0  0  0  0  0
  -19.1587  -27.0206   23.1247 C   0  0  1  0  0  0  0  0  0  0  0  0
  -20.7704  -25.8262   19.8984 C   0  0  1  0  0  0  0  0  0  0  0  0
  -29.6556  -19.3425   21.2080 C   0  0  2  0  0  0  0  0  0  0  0  0
  -31.9906  -27.2678   19.3025 C   0  0  0  0  0  0  0  0  0  0  0  0
  -24.5593  -20.3458   15.9471 C   0  0  0  0  0  0  0  0  0  0  0  0
  -22.5735  -22.1307   22.0086 C   0  0  0  0  0  0  0  0  0  0  0  0
  -23.9597  -20.6311   20.5602 C   0  0  0  0  0  0  0  0  0  0  0  0
  -21.4759  -20.6374   20.3293 C   0  0  0  0  0  0  0  0  0  0  0  0
  -23.8017  -23.8829   14.7679 C   0  0  0  0  0  0  0  0  0  0  0  0
  -30.1869  -28.0507   17.1498 C   0  0  0  0  0  0  0  0  0  0  0  0
  -29.8405  -29.3448   17.8792 C   0  0  0  0  0  0  0  0  0  0  0  0
  -27.9635  -30.5878   18.9611 C   0  0  0  0  0  0  0  0  0  0  0  0
  -26.4664  -30.5304   19.1927 C   0  0  0  0  0  0  0  0  0  1  0  0
  -22.8044  -22.6150   19.4831 C   0  0  1  0  0  0  0  0  0  0  0  0
  -23.8425  -21.6870   15.9574 C   0  0  2  0  0  0  0  0  0  0  0  0
  -22.7066  -21.5318   20.5942 C   0  0  0  0  0  0  0  0  0  0  0  0
  -27.7096  -17.8476   20.9640 N   0  0  0  0  0  0  0  0  0  0  0  0
  -30.6205  -25.3363   19.7471 N   0  0  0  0  0  0  0  0  0  0  0  0
  -28.9117  -18.2270   20.4980 N   0  0  0  0  0  0  0  0  0  0  0  0
  -21.8893  -24.9050   19.6894 N   0  0  0  0  0  0  0  0  0  0  0  0
  -29.6466  -21.7193   21.8571 N   0  0  0  0  0  0  0  0  0  0  0  0
  -30.5068  -17.7831   18.8042 N   0  0  0  0  0  0  0  0  0  0  0  0
  -27.2031  -14.8326   17.9232 N   0  0  0  0  0  0  0  0  0  0  0  0
  -29.3174  -23.4088   20.2448 N   0  0  0  0  0  0  0  0  0  0  0  0
  -19.5162  -26.7569   21.7473 N   0  0  0  0  0  0  0  0  0  0  0  0
  -22.9041  -22.0767   18.1308 N   0  0  0  0  0  0  0  0  0  0  0  0
  -24.4286  -22.5413   14.8862 N   0  3  0  0  0  0  0  0  0  0  0  0
  -28.3873  -29.3884   18.1956 N   0  3  0  0  0  0  0  0  0  0  0  0
  -29.2669  -15.5725   17.2509 O   0  0  0  0  0  0  0  0  0  0  0  0
  -21.3593  -25.3897   22.1429 O   0  0  0  0  0  0  0  0  0  0  0  0
  -20.4872  -23.0848   19.2931 O   0  0  0  0  0  0  0  0  0  0  0  0
  -24.9210  -23.0911   17.6013 O   0  0  0  0  0  0  0  0  0  0  0  0
  -31.1278  -23.4865   21.6932 O   0  0  0  0  0  0  0  0  0  0  0  0
  -22.4619  -14.2449   20.7886 O   0  0  0  0  0  0  0  0  0  0  0  0
  -26.1444  -29.3637   19.9486 O   0  0  0  0  0  0  0  0  0  1  0  0
  -22.4289   -8.7458   20.3847 F   0  0  0  0  0  0  0  0  0  0  0  0
  -21.6385  -12.6720   22.9077 F   0  0  0  0  0  0  0  0  0  0  0  0
  1  2  1  0  0  0  0
  1  5  2  0  0  0  0
  2  6  2  0  0  0  0
  3  8  2  0  0  0  0
  3 16  1  0  0  0  0
  4  9  1  0  0  0  0
  4 16  2  0  0  0  0
  5 18  1  0  0  0  0
  6 20  1  0  0  0  0
  7 10  2  0  0  0  0
  7 19  1  0  0  0  0
  8 24  1  0  0  0  0
  9 24  2  0  0  0  0
 10 25  1  0  0  0  0
 11 12  2  0  0  0  0
 11 26  1  0  0  0  0
 12 27  1  0  0  0  0
 13 21  1  0  0  0  0
 13 25  2  0  0  0  0
 14 22  2  0  0  0  0
 14 31  1  0  0  0  0
 15 27  2  0  0  0  0
 15 28  1  0  0  0  0
 16 29  1  0  0  0  0
 17 29  1  0  0  0  0
 17 32  2  0  0  0  0
 17 33  1  0  0  0  0
 18 20  2  0  0  0  0
 18 38  1  0  0  0  0
 19 21  2  0  0  0  0
 19 39  1  0  0  0  0
 20 50  1  0  0  0  0
 21 40  1  0  0  0  0
 22 23  1  0  0  0  0
 22 49  1  0  0  0  0
 23 30  2  0  0  0  0
 23 59  1  0  0  0  0
 24 83  1  0  0  0  0
 25 84  1  0  0  0  0
 26 28  2  0  0  0  0
 26 83  1  0  0  0  0
 27 85  1  0  0  0  0
 28 86  1  0  0  0  0
 29 66  2  0  0  0  0
 30 53  1  0  0  0  0
 30 67  1  0  0  0  0
 31 67  2  0  0  0  0
 31 73  1  0  0  0  0
 32 68  1  0  0  0  0
 32 71  1  0  0  0  0
 33 72  1  0  0  0  0
 33 78  2  0  0  0  0
 34 51  1  0  0  0  0
 34 74  1  0  0  0  0
 34 79  2  0  0  0  0
 35 63  1  0  0  0  0
 35 69  1  0  0  0  0
 35 80  2  0  0  0  0
 36 64  1  0  0  0  0
 36 75  1  0  0  0  0
 36 81  2  0  0  0  0
 37 70  1  0  0  0  0
 37 73  1  0  0  0  0
 37 82  2  0  0  0  0
 38 41  1  0  0  0  0
 39 51  1  0  0  0  0
 40 69  1  0  0  0  0
 41 45  1  0  0  0  0
 42 46  1  0  0  0  0
 42 47  1  0  0  0  0
 43 44  1  0  0  0  0
 43 49  1  0  0  0  0
 44 49  1  0  0  0  0
 45 50  1  0  0  0  0
 46 52  1  0  0  0  0
 47 70  1  0  0  0  0
 48 52  1  0  0  0  0
 48 70  1  0  0  0  0
 50 74  1  0  0  0  0
 51 69  1  0  0  0  0
 52 68  1  0  0  0  0
 54 64  1  0  0  0  0
 55 65  1  0  0  0  0
 56 65  1  0  0  0  0
 57 65  1  0  0  0  0
 58 76  1  0  0  0  0
 59 60  1  0  0  0  0
 60 77  1  0  0  0  0
 61 62  1  0  0  0  0
 61 77  1  0  0  0  0
 62 84  1  0  0  0  0
 63 65  1  0  0  0  0
 63 75  1  0  0  0  0
 64 76  1  0  0  0  0
 66 68  1  0  0  0  0
M  CHG  2  76   1  77   1
M  ISO  4  37 100  62 101  73 100  84 101
M  END
> <Batch ID>
0153

> <Smiles>
CNC(C)C(=O)NC(C(=O)N1Cc2cc([101O:1][101CH2:1]CNCCc3c(C4CC4)cc([100NH:0][100C:0](=O)N4CCCC(n5nc(-c6ccc(Oc7ccc(F)cc7F)cc6)c(C(N)=O)c5N)C4)nc3C)ccc2CC1C(=O)NC1CCCc2ccccc21)C(C)(C)C

> <Shape>
0.240

> <Color>
0.055

> <Negative vol penalty>
0.000

$$$$

  -OEChem-04052321483D

 86 95  0     1  0  0  0  0  0999 V2000
  -16.8994  -31.1675   25.3259 C   0  0  0  0  0  0  0  0  0  0  0  0
  -17.3074  -30.0070   24.6761 C   0  0  0  0  0  0  0  0  0  0  0  0
  -22.6699  -10.3454   20.8322 C   0  0  0  0  0  0  0  0  0  0  0  0
  -24.5120   -8.9108   21.4534 C   0  0  0  0  0  0  0  0  0  0  0  0
  -17.3101  -32.4123   24.8508 C   0  0  0  0  0  0  0  0  0  0  0  0
  -18.1255  -30.0907   23.5501 C   0  0  0  0  0  0  0  0  0  0  0  0
  -21.9311  -26.7515   23.6612 C   0  0  0  0  0  0  0  0  0  0  0  0
  -21.8490   -9.6881   21.7484 C   0  0  0  0  0  0  0  0  0  0  0  0
  -23.6910   -8.2535   22.3697 C   0  0  0  0  0  0  0  0  0  0  0  0
  -21.6287  -25.4304   23.3344 C   0  0  0  0  0  0  0  0  0  0  0  0
  -21.2811   -5.8831   22.3025 C   0  0  0  0  0  0  0  0  0  0  0  0
  -21.3295   -4.4894   22.3326 C   0  0  0  0  0  0  0  0  0  0  0  0
  -22.4973  -25.7876   21.1124 C   0  0  0  0  0  0  0  0  0  0  0  0
  -22.3167  -21.3810   21.6410 C   0  0  0  0  0  0  0  0  0  0  0  0
  -22.0315   -4.5636   24.6432 C   0  0  0  0  0  0  0  0  0  0  0  0
  -24.0014   -9.9567   20.6846 C   0  0  0  0  0  0  0  0  0  0  0  0
  -24.6614  -10.7343   18.3463 C   0  0  0  0  0  0  0  0  0  0  0  0
  -18.1416  -32.5108   23.7241 C   0  0  0  0  0  0  0  0  0  0  0  0
  -22.5099  -27.6052   22.7111 C   0  0  0  0  0  0  0  0  0  0  0  0
  -18.5467  -31.3380   23.0586 C   0  0  0  0  0  0  0  0  0  0  0  0
  -22.8084  -27.1184   21.4305 C   0  0  0  0  0  0  0  0  0  0  0  0
  -23.3112  -20.4373   21.8730 C   0  0  0  0  0  0  0  0  0  0  0  0
  -24.5296  -20.8372   22.4105 C   0  0  0  0  0  0  0  0  0  0  0  0
  -22.3595   -8.6421   22.5172 C   0  0  0  0  0  0  0  0  0  0  0  0
  -21.9091  -24.9490   22.0589 C   0  0  0  0  0  0  0  0  0  0  0  0
  -21.6080   -6.6171   23.4427 C   0  0  0  0  0  0  0  0  0  0  0  0
  -21.7046   -3.8297   23.5029 C   0  0  0  0  0  0  0  0  0  0  0  0
  -21.9831   -5.9573   24.6131 C   0  0  0  0  0  0  0  0  0  0  0  0
  -24.8498  -10.6350   19.7379 C   0  0  0  0  0  0  0  0  0  0  0  0
  -24.7023  -22.1819   22.6963 C   0  0  0  0  0  0  0  0  0  0  0  0
  -22.5883  -22.7014   21.9612 C   0  0  0  0  0  0  0  0  0  1  0  0
  -25.7326  -11.4730   17.9066 C   0  0  0  0  0  0  0  0  0  0  0  0
  -23.6118  -10.2062   17.5247 C   0  0  0  0  0  0  0  0  0  0  0  0
  -21.6339  -30.3172   21.3035 C   0  0  0  0  0  0  0  0  0  0  0  0
  -24.6341  -30.1944   20.0765 C   0  0  0  0  0  0  0  0  0  0  0  0
  -26.8177  -27.6698   18.7069 C   0  0  0  0  0  0  0  0  0  0  0  0
  -29.2920  -15.4810   20.5745 C   0  0  0  0  0  0  0  0  0  0  0  0
  -18.5211  -33.8805   23.2195 C   0  0  0  0  0  0  0  0  0  0  0  0
  -22.8546  -29.0200   23.0877 C   0  0  0  0  0  0  0  0  0  0  0  0
  -23.4481  -27.9885   20.3806 C   0  0  0  0  0  0  0  0  0  0  0  0
  -19.6939  -33.8664   22.2425 C   0  0  0  0  0  0  0  0  0  0  0  0
  -30.2905  -12.4612   18.9744 C   0  0  0  0  0  0  0  0  0  0  0  0
  -19.5035  -32.7733   21.1957 C   0  0  0  0  0  0  0  0  0  0  0  0
  -26.7712  -19.7437   20.4146 C   0  0  0  0  0  0  0  0  0  0  0  0
  -28.1276  -19.5238   22.5359 C   0  0  0  0  0  0  0  0  0  0  0  0
  -28.9923  -11.6597   18.8630 C   0  0  0  0  0  0  0  0  0  0  0  0
  -26.8349  -18.2292   20.2144 C   0  0  0  0  0  0  0  0  0  0  0  0
  -28.1944  -18.0090   22.3389 C   0  0  0  0  0  0  0  0  0  0  0  0
  -30.3500  -13.2614   20.2736 C   0  0  0  0  0  0  0  0  0  0  0  0
  -27.8900  -13.3358   20.4040 C   0  0  0  0  0  0  0  0  0  0  0  0
  -19.4544  -31.3867   21.8488 C   0  0  1  0  0  0  0  0  0  0  0  0
  -22.9704  -29.9479   21.8822 C   0  0  1  0  0  0  0  0  0  0  0  0
  -26.8912  -20.1625   21.8870 C   0  0  0  0  0  0  0  0  0  0  0  0
  -27.7591  -12.5561   19.0844 C   0  0  2  0  0  0  0  0  0  0  0  0
  -28.0867  -17.6315   20.8604 C   0  0  0  0  0  0  0  0  0  0  0  0
  -23.0474  -19.0065   21.5370 C   0  0  0  0  0  0  0  0  0  0  0  0
  -25.9898  -22.6710   23.2749 C   0  0  0  0  0  0  0  0  0  0  0  0
  -29.3229  -27.5528   18.6189 C   0  0  0  0  0  0  0  0  0  0  0  0
  -24.3065  -31.4474   17.3138 C   0  0  0  0  0  0  0  0  0  0  0  0
  -26.1734  -29.9873   16.5068 C   0  0  0  0  0  0  0  0  0  0  0  0
  -26.5950  -31.6728   18.2968 C   0  0  0  0  0  0  0  0  0  0  0  0
  -26.8576  -25.0336   20.0513 C   0  0  0  0  0  0  0  0  0  0  0  0
  -25.6144  -19.8468   22.6709 C   0  0  0  0  0  0  0  0  0  0  0  0
  -25.2597  -29.5958   18.8398 C   0  0  1  0  0  0  0  0  0  0  0  0
  -28.0691  -27.1031   19.3528 C   0  0  2  0  0  0  0  0  0  0  0  0
  -25.5605  -30.6644   17.7513 C   0  0  0  0  0  0  0  0  0  0  0  0
  -25.9540  -11.2604   20.1546 N   0  0  0  0  0  0  0  0  0  0  0  0
  -23.7597  -23.1277   22.4847 N   0  0  0  0  0  0  0  0  0  0  0  0
  -26.4691  -11.7597   19.0181 N   0  0  0  0  0  0  0  0  0  0  0  0
  -23.7604  -29.3662   20.7951 N   0  0  0  0  0  0  0  0  0  0  0  0
  -29.1522  -14.0916   20.4222 N   0  0  0  0  0  0  0  0  0  0  0  0
  -26.1070  -11.8986   16.6814 N   0  0  0  0  0  0  0  0  0  0  0  0
  -23.7703   -8.9245   16.9801 N   0  0  0  0  0  0  0  0  0  0  0  0
  -20.7877  -30.9449   22.1977 N   0  0  0  0  0  0  0  0  0  0  0  0
  -26.4336  -28.8574   19.2928 N   0  0  0  0  0  0  0  0  0  0  0  0
  -28.1064  -16.1943   20.7026 N   0  0  0  0  0  0  0  0  0  0  0  0
  -28.0278  -25.6134   19.3432 N   0  3  0  0  0  0  0  0  0  0  0  0
  -22.5716  -10.8583   17.2672 O   0  0  0  0  0  0  0  0  0  0  0  0
  -21.3890  -30.0537   20.1321 O   0  0  0  0  0  0  0  0  0  0  0  0
  -24.9160  -31.3517   20.3971 O   0  0  0  0  0  0  0  0  0  0  0  0
  -26.2409  -27.1164   17.7733 O   0  0  0  0  0  0  0  0  0  0  0  0
  -30.3915  -16.0446   20.5893 O   0  0  0  0  0  0  0  0  0  0  0  0
  -21.5587   -8.0006   23.4115 O   0  0  0  0  0  0  0  0  0  0  0  0
  -21.6143  -23.6601   21.7371 O   0  0  0  0  0  0  0  0  0  1  0  0
  -21.7495   -2.4913   23.5320 F   0  0  0  0  0  0  0  0  0  0  0  0
  -22.2971   -6.6570   25.7120 F   0  0  0  0  0  0  0  0  0  0  0  0
  1  2  1  0  0  0  0
  1  5  2  0  0  0  0
  2  6  2  0  0  0  0
  3  8  2  0  0  0  0
  3 16  1  0  0  0  0
  4  9  1  0  0  0  0
  4 16  2  0  0  0  0
  5 18  1  0  0  0  0
  6 20  1  0  0  0  0
  7 10  2  0  0  0  0
  7 19  1  0  0  0  0
  8 24  1  0  0  0  0
  9 24  2  0  0  0  0
 10 25  1  0  0  0  0
 11 12  2  0  0  0  0
 11 26  1  0  0  0  0
 12 27  1  0  0  0  0
 13 21  1  0  0  0  0
 13 25  2  0  0  0  0
 14 22  2  0  0  0  0
 14 31  1  0  0  0  0
 15 27  2  0  0  0  0
 15 28  1  0  0  0  0
 16 29  1  0  0  0  0
 17 29  1  0  0  0  0
 17 32  2  0  0  0  0
 17 33  1  0  0  0  0
 18 20  2  0  0  0  0
 18 38  1  0  0  0  0
 19 21  2  0  0  0  0
 19 39  1  0  0  0  0
 20 51  1  0  0  0  0
 21 40  1  0  0  0  0
 22 23  1  0  0  0  0
 22 56  1  0  0  0  0
 23 30  2  0  0  0  0
 23 63  1  0  0  0  0
 24 83  1  0  0  0  0
 25 84  1  0  0  0  0
 26 28  2  0  0  0  0
 26 83  1  0  0  0  0
 27 85  1  0  0  0  0
 28 86  1  0  0  0  0
 29 67  2  0  0  0  0
 30 57  1  0  0  0  0
 30 68  1  0  0  0  0
 31 68  2  0  0  0  0
 31 84  1  0  0  0  0
 32 69  1  0  0  0  0
 32 72  1  0  0  0  0
 33 73  1  0  0  0  0
 33 78  2  0  0  0  0
 34 52  1  0  0  0  0
 34 74  1  0  0  0  0
 34 79  2  0  0  0  0
 35 64  1  0  0  0  0
 35 70  1  0  0  0  0
 35 80  2  0  0  0  0
 36 65  1  0  0  0  0
 36 75  1  0  0  0  0
 36 81  2  0  0  0  0
 37 71  1  0  0  0  0
 37 76  1  0  0  0  0
 37 82  2  0  0  0  0
 38 41  1  0  0  0  0
 39 52  1  0  0  0  0
 40 70  1  0  0  0  0
 41 43  1  0  0  0  0
 42 46  1  0  0  0  0
 42 49  1  0  0  0  0
 43 51  1  0  0  0  0
 44 47  1  0  0  0  0
 44 53  1  0  0  0  0
 45 48  1  0  0  0  0
 45 53  1  0  0  0  0
 46 54  1  0  0  0  0
 47 55  1  0  0  0  0
 48 55  1  0  0  0  0
 49 71  1  0  0  0  0
 50 54  1  0  0  0  0
 50 71  1  0  0  0  0
 51 74  1  0  0  0  0
 52 70  1  0  0  0  0
 53 63  1  0  0  0  0
 54 69  1  0  0  0  0
 55 76  1  0  0  0  0
 58 65  1  0  0  0  0
 59 66  1  0  0  0  0
 60 66  1  0  0  0  0
 61 66  1  0  0  0  0
 62 77  1  0  0  0  0
 64 66  1  0  0  0  0
 64 75  1  0  0  0  0
 65 77  1  0  0  0  0
 67 69  1  0  0  0  0
M  CHG  1  77   1
M  ISO  4  31 101  37 100  76 100  84 101
M  END
> <Batch ID>
0153

> <Smiles>
CNC(C)C(=O)NC(C(=O)N1Cc2cc([101O:1][101c:1]3cc(C)c(CC4CCC([100NH:0][100C:0](=O)N5CCCC(n6nc(-c7ccc(Oc8ccc(F)cc8F)cc7)c(C(N)=O)c6N)C5)CC4)c(C)n3)ccc2CC1C(=O)NC1CCCc2ccccc21)C(C)(C)C

> <Shape>
0.240

> <Color>
0.070

> <Negative vol penalty>
0.000

$$$$

  -OEChem-04052321483D

 85 94  0     1  0  0  0  0  0999 V2000
  -28.7222  -25.3355   16.1342 C   0  0  0  0  0  0  0  0  0  0  0  0
  -27.5542  -26.0022   16.4863 C   0  0  0  0  0  0  0  0  0  0  0  0
  -23.8282  -14.0133   19.7178 C   0  0  0  0  0  0  0  0  0  0  0  0
  -25.8767  -14.5411   20.8848 C   0  0  0  0  0  0  0  0  0  0  0  0
  -29.7868  -25.2814   17.0313 C   0  0  0  0  0  0  0  0  0  0  0  0
  -27.4547  -26.6252   17.7309 C   0  0  0  0  0  0  0  0  0  0  0  0
  -23.4467  -29.3587   18.5480 C   0  0  0  0  0  0  0  0  0  0  0  0
  -22.8492  -24.5912   23.8386 C   0  0  0  0  0  0  0  0  0  0  0  0
  -24.1158  -12.6529   19.8281 C   0  0  0  0  0  0  0  0  0  0  0  0
  -26.1644  -13.1807   20.9951 C   0  0  0  0  0  0  0  0  0  0  0  0
  -22.1836  -28.8034   18.7478 C   0  0  0  0  0  0  0  0  0  0  0  0
  -21.7652  -24.6873   22.9671 C   0  0  0  0  0  0  0  0  0  0  0  0
  -24.1327   -9.0295   20.1200 C   0  0  0  0  0  0  0  0  0  0  0  0
  -23.0992   -8.1776   20.5094 C   0  0  0  0  0  0  0  0  0  0  0  0
  -22.3804  -29.2228   21.1152 C   0  0  0  0  0  0  0  0  0  0  0  0
  -23.2747  -24.6031   21.0883 C   0  0  0  0  0  0  0  0  0  0  0  0
  -22.8783   -9.3943   22.5850 C   0  0  0  0  0  0  0  0  0  0  0  0
  -24.7087  -14.9574   20.2462 C   0  0  0  0  0  0  0  0  0  0  0  0
  -23.2870  -17.0384   20.6410 C   0  0  0  0  0  0  0  0  0  0  0  0
  -29.6949  -25.8936   18.2922 C   0  0  0  0  0  0  0  0  0  0  0  0
  -24.1920  -29.8411   19.6334 C   0  0  0  0  0  0  0  0  0  0  0  0
  -24.1595  -24.4910   23.3450 C   0  0  0  0  0  0  0  0  0  0  0  0
  -28.5272  -26.6022   18.6408 C   0  0  0  0  0  0  0  0  0  0  0  0
  -23.6517  -29.7861   20.9261 C   0  0  0  0  0  0  0  0  0  0  0  0
  -24.3777  -24.5057   21.9537 C   0  0  0  0  0  0  0  0  0  0  0  0
  -25.2839  -12.2366   20.4667 C   0  0  0  0  0  0  0  0  0  0  0  0
  -21.6515  -28.7328   20.0319 C   0  0  0  0  0  0  0  0  0  0  0  0
  -21.9778  -24.6932   21.5923 C   0  0  0  0  0  0  0  0  0  0  0  0
  -24.5391  -10.0638   20.9631 C   0  0  0  0  0  0  0  0  0  0  0  0
  -22.4720   -8.3600   21.7419 C   0  0  0  0  0  0  0  0  0  0  0  0
  -23.9119  -10.2462   22.1955 C   0  0  0  0  0  0  0  0  0  0  0  0
  -24.4123  -16.3629   20.1321 C   0  0  0  0  0  0  0  0  0  0  0  0
  -23.4748  -18.3472   20.2690 C   0  0  0  0  0  0  0  0  0  0  0  0
  -22.1716  -16.5286   21.3837 C   0  0  0  0  0  0  0  0  0  0  0  0
  -26.9905  -29.0933   20.9422 C   0  0  0  0  0  0  0  0  0  0  0  0
  -26.3990  -31.7131   22.7611 C   0  0  0  0  0  0  0  0  0  0  0  0
  -24.1030  -33.8665   24.0796 C   0  0  0  0  0  0  0  0  0  0  0  0
  -26.7597  -22.8240   19.7090 C   0  0  0  0  0  0  0  0  0  0  0  0
  -30.8803  -25.8108   19.2212 C   0  0  0  0  0  0  0  0  0  0  0  0
  -25.3021  -24.4412   24.3288 C   0  0  0  0  0  0  0  0  0  0  0  0
  -25.5418  -30.4615   19.3978 C   0  0  0  0  0  0  0  0  0  0  0  0
  -24.4028  -30.3085   22.1225 C   0  0  0  0  0  0  0  0  0  0  0  0
  -30.5208  -26.1137   20.6722 C   0  0  0  0  0  0  0  0  0  0  0  0
  -26.6262  -24.0021   23.7084 C   0  0  0  0  0  0  0  0  0  0  0  0
  -26.8161  -20.4177   17.0854 C   0  0  0  0  0  0  0  0  0  0  0  0
  -29.7159  -27.4024   20.7501 C   0  0  0  0  0  0  0  0  0  0  0  0
  -26.8615  -24.7264   22.3877 C   0  0  0  0  0  0  0  0  0  0  0  0
  -26.1088  -19.2026   17.6882 C   0  0  0  0  0  0  0  0  0  0  0  0
  -27.6642  -21.1495   18.1233 C   0  0  0  0  0  0  0  0  0  0  0  0
  -26.2362  -20.3214   19.9533 C   0  0  0  0  0  0  0  0  0  0  0  0
  -28.3849  -27.2611   20.0009 C   0  0  1  0  0  0  0  0  0  0  0  0
  -25.7684  -24.3810   21.3679 C   0  0  1  0  0  0  0  0  0  0  0  0
  -26.4282  -30.4533   20.6395 C   0  0  1  0  0  0  0  0  0  0  0  0
  -25.3244  -19.5834   18.9582 C   0  0  2  0  0  0  0  0  0  0  0  0
  -23.9179  -35.8865   25.5570 C   0  0  0  0  0  0  0  0  0  0  0  0
  -26.8487  -29.9565   25.2151 C   0  0  0  0  0  0  0  0  0  0  0  0
  -25.7431  -31.7264   26.5984 C   0  0  0  0  0  0  0  0  0  0  0  0
  -27.8522  -32.2420   25.3701 C   0  0  0  0  0  0  0  0  0  0  0  0
  -22.9207  -35.4911   21.9067 C   0  0  0  0  0  0  0  0  0  0  0  0
  -19.0850  -26.1899   20.0325 C   0  0  0  0  0  0  0  0  0  0  0  0
  -20.0048  -27.1705   19.3221 C   0  0  0  0  0  0  0  0  0  1  0  0
  -19.7771  -25.5045   21.2002 C   0  0  0  0  0  0  0  0  0  0  0  0
  -25.6988  -31.9670   24.0743 C   0  0  1  0  0  0  0  0  0  0  0  0
  -24.0563  -35.3830   24.1287 C   0  0  2  0  0  0  0  0  0  0  0  0
  -26.5221  -31.4613   25.2924 C   0  0  0  0  0  0  0  0  0  0  0  0
  -25.2528  -17.1753   19.4859 N   0  0  0  0  0  0  0  0  0  0  0  0
  -24.6552  -18.3748   19.5862 N   0  0  0  0  0  0  0  0  0  0  0  0
  -25.7213  -30.9003   21.8415 N   0  0  0  0  0  0  0  0  0  0  0  0
  -26.8607  -21.4834   19.3018 N   0  0  0  0  0  0  0  0  0  0  0  0
  -22.7439  -19.4655   20.4625 N   0  0  0  0  0  0  0  0  0  0  0  0
  -22.2555  -16.5036   22.7825 N   0  0  0  0  0  0  0  0  0  0  0  0
  -27.7493  -28.5577   19.9190 N   0  0  0  0  0  0  0  0  0  0  0  0
  -25.3982  -33.3943   24.1073 N   0  0  0  0  0  0  0  0  0  0  0  0
  -25.9736  -23.0541   20.8314 N   0  0  0  0  0  0  0  0  0  0  0  0
  -22.9006  -35.8915   23.3371 N   0  3  0  0  0  0  0  0  0  0  0  0
  -21.1378  -16.0923   20.8228 O   0  0  0  0  0  0  0  0  0  0  0  0
  -26.7547  -28.5692   22.0245 O   0  0  0  0  0  0  0  0  0  0  0  0
  -27.5032  -32.2232   22.5561 O   0  0  0  0  0  0  0  0  0  0  0  0
  -23.0916  -33.1703   24.0262 O   0  0  0  0  0  0  0  0  0  0  0  0
  -27.3236  -23.7480   19.1130 O   0  0  0  0  0  0  0  0  0  0  0  0
  -25.5648  -10.9092   20.5747 O   0  0  0  0  0  0  0  0  0  0  0  0
  -20.4191  -28.1907   20.2298 O   0  0  0  0  0  0  0  0  0  1  0  0
  -20.9133  -24.7887   20.7348 O   0  0  0  0  0  0  0  0  0  0  0  0
  -21.4784   -7.5428   22.1151 F   0  0  0  0  0  0  0  0  0  0  0  0
  -24.2972  -11.2388   23.0092 F   0  0  0  0  0  0  0  0  0  0  0  0
  1  2  1  0  0  0  0
  1  5  2  0  0  0  0
  2  6  2  0  0  0  0
  3  9  2  0  0  0  0
  3 18  1  0  0  0  0
  4 10  1  0  0  0  0
  4 18  2  0  0  0  0
  5 20  1  0  0  0  0
  6 23  1  0  0  0  0
  7 11  2  0  0  0  0
  7 21  1  0  0  0  0
  8 12  2  0  0  0  0
  8 22  1  0  0  0  0
  9 26  1  0  0  0  0
 10 26  2  0  0  0  0
 11 27  1  0  0  0  0
 12 28  1  0  0  0  0
 13 14  2  0  0  0  0
 13 29  1  0  0  0  0
 14 30  1  0  0  0  0
 15 24  1  0  0  0  0
 15 27  2  0  0  0  0
 16 25  1  0  0  0  0
 16 28  2  0  0  0  0
 17 30  2  0  0  0  0
 17 31  1  0  0  0  0
 18 32  1  0  0  0  0
 19 32  1  0  0  0  0
 19 33  2  0  0  0  0
 19 34  1  0  0  0  0
 20 23  2  0  0  0  0
 20 39  1  0  0  0  0
 21 24  2  0  0  0  0
 21 41  1  0  0  0  0
 22 25  2  0  0  0  0
 22 40  1  0  0  0  0
 23 51  1  0  0  0  0
 24 42  1  0  0  0  0
 25 52  1  0  0  0  0
 26 81  1  0  0  0  0
 27 82  1  0  0  0  0
 28 83  1  0  0  0  0
 29 31  2  0  0  0  0
 29 81  1  0  0  0  0
 30 84  1  0  0  0  0
 31 85  1  0  0  0  0
 32 66  2  0  0  0  0
 33 67  1  0  0  0  0
 33 70  1  0  0  0  0
 34 71  1  0  0  0  0
 34 76  2  0  0  0  0
 35 53  1  0  0  0  0
 35 72  1  0  0  0  0
 35 77  2  0  0  0  0
 36 63  1  0  0  0  0
 36 68  1  0  0  0  0
 36 78  2  0  0  0  0
 37 64  1  0  0  0  0
 37 73  1  0  0  0  0
 37 79  2  0  0  0  0
 38 69  1  0  0  0  0
 38 74  1  0  0  0  0
 38 80  2  0  0  0  0
 39 43  1  0  0  0  0
 40 44  1  0  0  0  0
 41 53  1  0  0  0  0
 42 68  1  0  0  0  0
 43 46  1  0  0  0  0
 44 47  1  0  0  0  0
 45 48  1  0  0  0  0
 45 49  1  0  0  0  0
 46 51  1  0  0  0  0
 47 52  1  0  0  0  0
 48 54  1  0  0  0  0
 49 69  1  0  0  0  0
 50 54  1  0  0  0  0
 50 69  1  0  0  0  0
 51 72  1  0  0  0  0
 52 74  1  0  0  0  0
 53 68  1  0  0  0  0
 54 67  1  0  0  0  0
 55 64  1  0  0  0  0
 56 65  1  0  0  0  0
 57 65  1  0  0  0  0
 58 65  1  0  0  0  0
 59 75  1  0  0  0  0
 60 61  1  0  0  0  0
 60 62  1  0  0  0  0
 61 82  1  0  0  0  0
 62 83  1  0  0  0  0
 63 65  1  0  0  0  0
 63 73  1  0  0  0  0
 64 75  1  0  0  0  0
 66 67  1  0  0  0  0
M  CHG  1  75   1
M  ISO  4  38 100  61 101  74 100  82 101
M  END
> <Batch ID>
0153

> <Smiles>
CNC(C)C(=O)NC(C(=O)N1Cc2cc([101O:1][101CH2:1]CCOc3ccc4c(c3)C([100NH:0][100C:0](=O)N3CCCC(n5nc(-c6ccc(Oc7ccc(F)cc7F)cc6)c(C(N)=O)c5N)C3)CCC4)ccc2CC1C(=O)NC1CCCc2ccccc21)C(C)(C)C

> <Shape>
0.261

> <Color>
0.089

> <Negative vol penalty>
0.000

$$$$

  -OEChem-04052321483D

 85 94  0     1  0  0  0  0  0999 V2000
  -24.5215   -6.8677   24.2685 C   0  0  0  0  0  0  0  0  0  0  0  0
  -25.6910   -7.3832   23.7190 C   0  0  0  0  0  0  0  0  0  0  0  0
  -21.7259  -30.3391   21.5007 C   0  0  0  0  0  0  0  0  0  0  0  0
  -22.6517  -28.1080   21.5472 C   0  0  0  0  0  0  0  0  0  0  0  0
  -23.2984   -7.0919   23.6378 C   0  0  0  0  0  0  0  0  0  0  0  0
  -25.6381   -8.1224   22.5377 C   0  0  0  0  0  0  0  0  0  0  0  0
  -28.0506  -14.9057   22.2970 C   0  0  0  0  0  0  0  0  0  0  0  0
  -20.4442  -29.8105   21.6534 C   0  0  0  0  0  0  0  0  0  0  0  0
  -21.3700  -27.5794   21.6999 C   0  0  0  0  0  0  0  0  0  0  0  0
  -28.6845  -16.1353   22.1171 C   0  0  0  0  0  0  0  0  0  0  0  0
  -18.5373  -28.5863   24.1631 C   0  0  0  0  0  0  0  0  0  0  0  0
  -17.6897  -29.1978   25.0867 C   0  0  0  0  0  0  0  0  0  0  0  0
  -27.9366  -16.1966   19.8182 C   0  0  0  0  0  0  0  0  0  0  0  0
  -16.1141  -29.6818   23.3202 C   0  0  0  0  0  0  0  0  0  0  0  0
  -22.8297  -29.4879   21.4475 C   0  0  0  0  0  0  0  0  0  0  0  0
  -24.8118  -30.9317   22.1506 C   0  0  0  0  0  0  0  0  0  0  0  0
  -23.2294   -7.8423   22.4535 C   0  0  0  0  0  0  0  0  0  0  0  0
  -27.3434  -14.3236   21.2414 C   0  0  0  0  0  0  0  0  0  0  0  0
  -24.4131   -8.3557   21.8899 C   0  0  0  0  0  0  0  0  0  0  0  0
  -27.2892  -14.9711   19.9961 C   0  0  0  0  0  0  0  0  0  0  0  0
  -20.2662  -28.4306   21.7531 C   0  0  0  0  0  0  0  0  0  0  0  0
  -28.6278  -16.7790   20.8807 C   0  0  0  0  0  0  0  0  0  0  0  0
  -18.1734  -28.5225   22.8180 C   0  0  0  0  0  0  0  0  0  0  0  0
  -16.4781  -29.7456   24.6653 C   0  0  0  0  0  0  0  0  0  0  0  0
  -16.9618  -29.0703   22.3966 C   0  0  0  0  0  0  0  0  0  0  0  0
  -24.1538  -30.0334   21.2892 C   0  0  0  0  0  0  0  0  0  0  0  0
  -26.0348  -31.1394   21.5610 C   0  0  0  0  0  0  0  0  0  0  0  0
  -24.3581  -31.5252   23.3744 C   0  0  0  0  0  0  0  0  0  0  0  0
  -31.2851  -22.1505   20.5626 C   0  0  0  0  0  0  0  0  0  0  0  0
  -25.2498  -11.4479   20.0484 C   0  0  0  0  0  0  0  0  0  0  0  0
  -24.0215  -13.9965   18.8627 C   0  0  0  0  0  0  0  0  0  0  0  0
  -22.7339  -17.0625   18.1018 C   0  0  0  0  0  0  0  0  0  0  0  0
  -29.3593  -27.8683   17.8062 C   0  0  0  0  0  0  0  0  0  0  0  0
  -21.8901   -8.0182   21.7825 C   0  0  0  0  0  0  0  0  0  0  0  0
  -26.6972  -12.9711   21.3719 C   0  0  0  0  0  0  0  0  0  0  0  0
  -26.5461  -14.2909   18.8790 C   0  0  0  0  0  0  0  0  0  0  0  0
  -21.8746   -9.1290   20.7356 C   0  0  0  0  0  0  0  0  0  0  0  0
  -28.1683  -31.1818   17.2788 C   0  0  0  0  0  0  0  0  0  0  0  0
  -23.0940   -9.0220   19.8255 C   0  0  0  0  0  0  0  0  0  0  0  0
  -29.4351  -20.7906   19.6577 C   0  0  0  0  0  0  0  0  0  0  0  0
  -31.6432  -19.7169   20.2633 C   0  0  0  0  0  0  0  0  0  0  0  0
  -27.0637  -31.3443   18.3245 C   0  0  0  0  0  0  0  0  0  0  0  0
  -29.0406  -19.5385   18.8739 C   0  0  0  0  0  0  0  0  0  0  0  0
  -31.2487  -18.4641   19.4801 C   0  0  0  0  0  0  0  0  0  0  0  0
  -30.0491  -24.6966   18.2695 C   0  0  0  0  0  0  0  0  0  0  0  0
  -30.6654  -25.6881   20.5066 C   0  0  0  0  0  0  0  0  0  0  0  0
  -28.2030  -29.7650   16.7100 C   0  0  0  0  0  0  0  0  0  0  0  0
  -31.0996  -23.6087   18.4886 C   0  0  0  0  0  0  0  0  0  0  0  0
  -31.7060  -24.5840   20.6796 C   0  0  0  0  0  0  0  0  0  0  0  0
  -27.1918  -28.8568   18.7658 C   0  0  0  0  0  0  0  0  0  0  0  0
  -24.3936   -9.1835   20.6233 C   0  0  1  0  0  0  0  0  0  0  0  0
  -30.9535  -20.9643   19.7101 C   0  0  0  0  0  0  0  0  0  0  0  0
  -25.3888  -12.8476   20.5707 C   0  0  1  0  0  0  0  0  0  0  0  0
  -27.1534  -30.2537   19.4089 C   0  0  2  0  0  0  0  0  0  0  0  0
  -30.4085  -25.9784   19.0255 C   0  0  0  0  0  0  0  0  0  0  0  0
  -29.7326  -18.2834   19.4075 C   0  0  0  0  0  0  0  0  0  1  0  0
  -20.8327  -18.1523   16.8789 C   0  0  0  0  0  0  0  0  0  0  0  0
  -25.3909  -13.3942   16.2045 C   0  0  0  0  0  0  0  0  0  0  0  0
  -24.0472  -15.2391   15.1754 C   0  0  0  0  0  0  0  0  0  0  0  0
  -22.8947  -13.2522   16.1483 C   0  0  0  0  0  0  0  0  0  0  0  0
  -21.7280  -18.3456   20.5718 C   0  0  0  0  0  0  0  0  0  0  0  0
  -23.9614  -14.9458   17.6928 C   0  0  1  0  0  0  0  0  0  0  0  0
  -21.3268  -17.6208   18.2154 C   0  0  2  0  0  0  0  0  0  0  0  0
  -24.0903  -14.2129   16.3277 C   0  0  0  0  0  0  0  0  0  0  0  0
  -24.8972  -29.6940   20.2327 N   0  0  0  0  0  0  0  0  0  0  0  0
  -26.0349  -30.3827   20.4263 N   0  0  0  0  0  0  0  0  0  0  0  0
  -31.3384  -23.3876   19.9200 N   0  0  0  0  0  0  0  0  0  0  0  0
  -25.2896  -13.7182   19.3869 N   0  0  0  0  0  0  0  0  0  0  0  0
  -28.2900  -28.7789   17.7898 N   0  0  0  0  0  0  0  0  0  0  0  0
  -27.0993  -31.8938   21.9076 N   0  0  0  0  0  0  0  0  0  0  0  0
  -24.6130  -30.8532   24.5776 N   0  0  0  0  0  0  0  0  0  0  0  0
  -24.6306  -10.5787   20.9262 N   0  0  0  0  0  0  0  0  0  0  0  0
  -22.7267  -15.7072   17.8480 N   0  0  0  0  0  0  0  0  0  0  0  0
  -29.3697  -26.9718   18.8678 N   0  0  0  0  0  0  0  0  0  0  0  0
  -21.2894  -18.7333   19.2063 N   0  3  0  0  0  0  0  0  0  0  0  0
  -23.7304  -32.6109   23.3986 O   0  0  0  0  0  0  0  0  0  0  0  0
  -31.4895  -21.9871   21.7683 O   0  0  0  0  0  0  0  0  0  0  0  0
  -25.6716  -11.1755   18.9305 O   0  0  0  0  0  0  0  0  0  0  0  0
  -22.9746  -13.5091   19.2983 O   0  0  0  0  0  0  0  0  0  0  0  0
  -23.7389  -17.7597   18.2221 O   0  0  0  0  0  0  0  0  0  0  0  0
  -30.2425  -27.8586   16.9420 O   0  0  0  0  0  0  0  0  0  0  0  0
  -19.0157  -27.9144   21.9024 O   0  0  0  0  0  0  0  0  0  0  0  0
  -29.2452  -17.9814   20.7133 O   0  0  0  0  0  0  0  0  0  1  0  0
  -15.6634  -30.3314   25.5526 F   0  0  0  0  0  0  0  0  0  0  0  0
  -16.6062  -29.0111   21.1059 F   0  0  0  0  0  0  0  0  0  0  0  0
  1  2  1  0  0  0  0
  1  5  2  0  0  0  0
  2  6  2  0  0  0  0
  3  8  2  0  0  0  0
  3 15  1  0  0  0  0
  4  9  1  0  0  0  0
  4 15  2  0  0  0  0
  5 17  1  0  0  0  0
  6 19  1  0  0  0  0
  7 10  2  0  0  0  0
  7 18  1  0  0  0  0
  8 21  1  0  0  0  0
  9 21  2  0  0  0  0
 10 22  1  0  0  0  0
 11 12  2  0  0  0  0
 11 23  1  0  0  0  0
 12 24  1  0  0  0  0
 13 20  1  0  0  0  0
 13 22  2  0  0  0  0
 14 24  2  0  0  0  0
 14 25  1  0  0  0  0
 15 26  1  0  0  0  0
 16 26  1  0  0  0  0
 16 27  2  0  0  0  0
 16 28  1  0  0  0  0
 17 19  2  0  0  0  0
 17 34  1  0  0  0  0
 18 20  2  0  0  0  0
 18 35  1  0  0  0  0
 19 51  1  0  0  0  0
 20 36  1  0  0  0  0
 21 82  1  0  0  0  0
 22 83  1  0  0  0  0
 23 25  2  0  0  0  0
 23 82  1  0  0  0  0
 24 84  1  0  0  0  0
 25 85  1  0  0  0  0
 26 65  2  0  0  0  0
 27 66  1  0  0  0  0
 27 70  1  0  0  0  0
 28 71  1  0  0  0  0
 28 76  2  0  0  0  0
 29 52  1  0  0  0  0
 29 67  1  0  0  0  0
 29 77  2  0  0  0  0
 30 53  1  0  0  0  0
 30 72  1  0  0  0  0
 30 78  2  0  0  0  0
 31 62  1  0  0  0  0
 31 68  1  0  0  0  0
 31 79  2  0  0  0  0
 32 63  1  0  0  0  0
 32 73  1  0  0  0  0
 32 80  2  0  0  0  0
 33 69  1  0  0  0  0
 33 74  1  0  0  0  0
 33 81  2  0  0  0  0
 34 37  1  0  0  0  0
 35 53  1  0  0  0  0
 36 68  1  0  0  0  0
 37 39  1  0  0  0  0
 38 42  1  0  0  0  0
 38 47  1  0  0  0  0
 39 51  1  0  0  0  0
 40 43  1  0  0  0  0
 40 52  1  0  0  0  0
 41 44  1  0  0  0  0
 41 52  1  0  0  0  0
 42 54  1  0  0  0  0
 43 56  1  0  0  0  0
 44 56  1  0  0  0  0
 45 48  1  0  0  0  0
 45 55  1  0  0  0  0
 46 49  1  0  0  0  0
 46 55  1  0  0  0  0
 47 69  1  0  0  0  0
 48 67  1  0  0  0  0
 49 67  1  0  0  0  0
 50 54  1  0  0  0  0
 50 69  1  0  0  0  0
 51 72  1  0  0  0  0
 53 68  1  0  0  0  0
 54 66  1  0  0  0  0
 55 74  1  0  0  0  0
 56 83  1  0  0  0  0
 57 63  1  0  0  0  0
 58 64  1  0  0  0  0
 59 64  1  0  0  0  0
 60 64  1  0  0  0  0
 61 75  1  0  0  0  0
 62 64  1  0  0  0  0
 62 73  1  0  0  0  0
 63 75  1  0  0  0  0
 65 66  1  0  0  0  0
M  CHG  1  75   1
M  ISO  4  33 100  56 101  74 100  83 101
M  END
> <Batch ID>
0153

> <Smiles>
CNC(C)C(=O)NC(C(=O)N1Cc2cc([101O:1][101CH:1]3CCC(C(=O)N4CCC([100NH:0][100C:0](=O)N5CCCC(n6nc(-c7ccc(Oc8ccc(F)cc8F)cc7)c(C(N)=O)c6N)C5)CC4)CC3)ccc2CC1C(=O)NC1CCCc2ccccc21)C(C)(C)C

> <Shape>
0.271

> <Color>
0.057

> <Negative vol penalty>
0.000

$$$$

  -OEChem-04052321483D

 89 98  0     1  0  0  0  0  0999 V2000
  -27.8925  -34.5928   25.3445 C   0  0  0  0  0  0  0  0  0  0  0  0
  -28.1350  -33.3498   24.7688 C   0  0  0  0  0  0  0  0  0  0  0  0
  -24.3065  -10.3892   23.4497 C   0  0  0  0  0  0  0  0  0  0  0  0
  -23.2347  -12.0226   24.8710 C   0  0  0  0  0  0  0  0  0  0  0  0
  -26.6185  -34.9040   25.8177 C   0  0  0  0  0  0  0  0  0  0  0  0
  -27.1037  -32.4167   24.6668 C   0  0  0  0  0  0  0  0  0  0  0  0
  -26.9483  -30.1814   20.1254 C   0  0  0  0  0  0  0  0  0  0  0  0
  -23.6963   -9.3622   24.1698 C   0  0  0  0  0  0  0  0  0  0  0  0
  -22.6244  -10.9957   25.5910 C   0  0  0  0  0  0  0  0  0  0  0  0
  -27.8771  -29.1708   19.8811 C   0  0  0  0  0  0  0  0  0  0  0  0
  -20.6540   -7.8947   24.3237 C   0  0  0  0  0  0  0  0  0  0  0  0
  -20.0729   -6.8528   23.6009 C   0  0  0  0  0  0  0  0  0  0  0  0
  -26.1864  -27.5134   20.3439 C   0  0  0  0  0  0  0  0  0  0  0  0
  -21.5518   -5.2778   24.6824 C   0  0  0  0  0  0  0  0  0  0  0  0
  -24.0758  -11.7194   23.8003 C   0  0  0  0  0  0  0  0  0  0  0  0
  -24.2009  -13.4389   21.9200 C   0  0  0  0  0  0  0  0  0  0  0  0
  -25.5687  -33.9779   25.7127 C   0  0  0  0  0  0  0  0  0  0  0  0
  -25.6322  -29.8652   20.4921 C   0  0  0  0  0  0  0  0  0  0  0  0
  -25.8148  -32.7154   25.1402 C   0  0  0  0  0  0  0  0  0  0  0  0
  -25.2422  -28.5219   20.5898 C   0  0  0  0  0  0  0  0  0  0  0  0
  -30.8918  -22.2738   17.6793 C   0  0  0  0  0  0  0  0  0  0  0  0
  -29.6014  -22.8582   17.6554 C   0  0  0  0  0  0  0  0  0  0  0  0
  -22.8552   -9.6654   25.2404 C   0  0  0  0  0  0  0  0  0  0  0  0
  -27.4970  -27.8366   19.9931 C   0  0  0  0  0  0  0  0  0  0  0  0
  -21.6840   -7.6282   25.2257 C   0  0  0  0  0  0  0  0  0  0  0  0
  -20.5218   -5.5443   23.7803 C   0  0  0  0  0  0  0  0  0  0  0  0
  -22.1329   -6.3197   25.4051 C   0  0  0  0  0  0  0  0  0  0  0  0
  -24.7063  -12.7807   23.0573 C   0  0  0  0  0  0  0  0  0  0  0  0
  -30.8933  -21.3207   18.6737 C   0  0  0  0  0  0  0  0  0  0  0  0
  -28.8537  -22.2445   18.6361 C   0  0  0  0  0  0  0  0  0  0  0  0
  -25.1694  -14.3574   21.5962 C   0  0  0  0  0  0  0  0  0  0  0  0
  -22.9664  -13.2380   21.2192 C   0  0  0  0  0  0  0  0  0  0  0  0
  -23.8226  -30.4123   23.0474 C   0  0  0  0  0  0  0  0  0  0  0  0
  -21.5085  -29.0695   21.2131 C   0  0  0  0  0  0  0  0  0  0  0  0
  -20.7026  -27.0102   18.6138 C   0  0  0  0  0  0  0  0  0  0  0  0
  -28.6614  -18.3874   23.5110 C   0  0  0  0  0  0  0  0  0  0  0  0
  -24.2200  -34.3419   26.2812 C   0  0  0  0  0  0  0  0  0  0  0  0
  -24.6353  -30.9669   20.7262 C   0  0  0  0  0  0  0  0  0  0  0  0
  -23.8361  -28.1294   20.9606 C   0  0  0  0  0  0  0  0  0  0  0  0
  -23.0901  -33.4374   25.7958 C   0  0  0  0  0  0  0  0  0  0  0  0
  -29.8959  -14.9194   23.2922 C   0  0  0  0  0  0  0  0  0  0  0  0
  -23.5041  -31.9719   25.8843 C   0  0  0  0  0  0  0  0  0  0  0  0
  -28.6041  -14.1099   23.1785 C   0  0  0  0  0  0  0  0  0  0  0  0
  -28.0767  -19.4555   20.0003 C   0  0  0  0  0  0  0  0  0  0  0  0
  -28.8596  -21.2188   21.6565 C   0  0  0  0  0  0  0  0  0  0  0  0
  -29.6895  -16.2137   24.0744 C   0  0  0  0  0  0  0  0  0  0  0  0
  -27.7639  -18.4708   21.1367 C   0  0  0  0  0  0  0  0  0  0  0  0
  -27.8355  -20.5031   22.5399 C   0  0  0  0  0  0  0  0  0  0  0  0
  -27.3021  -16.2556   23.4462 C   0  0  0  0  0  0  0  0  0  0  0  0
  -24.7159  -31.6859   24.9892 C   0  0  1  0  0  0  0  0  0  0  0  0
  -23.4584  -30.5331   21.5947 C   0  0  1  0  0  0  0  0  0  0  0  0
  -27.4595  -14.9728   22.6171 C   0  0  2  0  0  0  0  0  0  0  0  0
  -29.2193  -20.4102   20.3895 C   0  0  0  0  0  0  0  0  0  0  0  0
  -32.0277  -22.6197   16.8001 C   0  0  0  0  0  0  0  0  0  0  0  0
  -31.9728  -20.4171   19.1256 C   0  0  0  0  0  0  0  0  0  0  0  0
  -27.4502  -22.4678   19.0446 C   0  0  0  0  0  0  0  0  0  0  0  0
  -27.9288  -23.5367   15.8849 C   0  0  0  0  0  0  0  0  0  0  0  0
  -18.7272  -26.0802   17.3767 C   0  0  0  0  0  0  0  0  0  0  0  0
  -20.9792  -27.1381   23.5151 C   0  0  0  0  0  0  0  0  0  0  0  0
  -19.7187  -25.6842   21.9134 C   0  0  0  0  0  0  0  0  0  0  0  0
  -18.9227  -28.0011   22.3835 C   0  0  0  0  0  0  0  0  0  0  0  0
  -21.5606  -28.2581   16.0711 C   0  0  0  0  0  0  0  0  0  0  0  0
  -29.9055  -25.8382   18.1687 C   0  0  0  0  0  0  0  0  0  0  0  0
  -29.4382  -27.1264   18.8169 C   0  0  0  0  0  0  0  0  0  1  0  0
  -29.1409  -23.9305   16.7493 C   0  0  1  0  0  0  0  0  0  0  0  0
  -21.0037  -27.6648   20.9877 C   0  0  1  0  0  0  0  0  0  0  0  0
  -19.7608  -27.1941   17.4376 C   0  0  2  0  0  0  0  0  0  0  0  0
  -20.1831  -27.1291   22.1948 C   0  0  0  0  0  0  0  0  0  0  0  0
  -25.9030  -13.2418   23.4306 N   0  0  0  0  0  0  0  0  0  0  0  0
  -29.6493  -21.3119   19.2488 N   0  0  0  0  0  0  0  0  0  0  0  0
  -26.1576  -14.1995   22.5228 N   0  0  0  0  0  0  0  0  0  0  0  0
  -22.8996  -29.2428   21.1858 N   0  0  0  0  0  0  0  0  0  0  0  0
  -28.5723  -16.9876   23.5329 N   0  0  0  0  0  0  0  0  0  0  0  0
  -28.0025  -19.0553   22.4655 N   0  0  0  0  0  0  0  0  0  0  0  0
  -25.2635  -15.2766   20.6120 N   0  0  0  0  0  0  0  0  0  0  0  0
  -22.0857  -12.2527   21.6861 N   0  0  0  0  0  0  0  0  0  0  0  0
  -24.3078  -31.5799   23.6048 N   0  0  0  0  0  0  0  0  0  0  0  0
  -20.2661  -27.6932   19.7293 N   0  0  0  0  0  0  0  0  0  0  0  0
  -20.5246  -27.1969   16.1579 N   0  3  0  0  0  0  0  0  0  0  0  0
  -28.7722  -25.2113   17.4564 N   0  3  0  0  0  0  0  0  0  0  0  0
  -22.6609  -13.9010   20.1990 O   0  0  0  0  0  0  0  0  0  0  0  0
  -23.6730  -29.3395   23.6206 O   0  0  0  0  0  0  0  0  0  0  0  0
  -20.6982  -29.9808   21.3992 O   0  0  0  0  0  0  0  0  0  0  0  0
  -21.7215  -26.3258   18.5506 O   0  0  0  0  0  0  0  0  0  0  0  0
  -29.3159  -19.0040   24.3615 O   0  0  0  0  0  0  0  0  0  0  0  0
  -22.2594   -8.6635   25.9431 O   0  0  0  0  0  0  0  0  0  0  0  0
  -28.4082  -26.8411   19.7541 O   0  0  0  0  0  0  0  0  0  1  0  0
  -19.9626   -4.5437   23.0873 F   0  0  0  0  0  0  0  0  0  0  0  0
  -23.1213   -6.0574   26.2712 F   0  0  0  0  0  0  0  0  0  0  0  0
  1  2  1  0  0  0  0
  1  5  2  0  0  0  0
  2  6  2  0  0  0  0
  3  8  2  0  0  0  0
  3 15  1  0  0  0  0
  4  9  1  0  0  0  0
  4 15  2  0  0  0  0
  5 17  1  0  0  0  0
  6 19  1  0  0  0  0
  7 10  2  0  0  0  0
  7 18  1  0  0  0  0
  8 23  1  0  0  0  0
  9 23  2  0  0  0  0
 10 24  1  0  0  0  0
 11 12  2  0  0  0  0
 11 25  1  0  0  0  0
 12 26  1  0  0  0  0
 13 20  1  0  0  0  0
 13 24  2  0  0  0  0
 14 26  2  0  0  0  0
 14 27  1  0  0  0  0
 15 28  1  0  0  0  0
 16 28  1  0  0  0  0
 16 31  2  0  0  0  0
 16 32  1  0  0  0  0
 17 19  2  0  0  0  0
 17 37  1  0  0  0  0
 18 20  2  0  0  0  0
 18 38  1  0  0  0  0
 19 50  1  0  0  0  0
 20 39  1  0  0  0  0
 21 22  1  0  0  0  0
 21 29  2  0  0  0  0
 21 54  1  0  0  0  0
 22 30  2  0  0  0  0
 22 65  1  0  0  0  0
 23 86  1  0  0  0  0
 24 87  1  0  0  0  0
 25 27  2  0  0  0  0
 25 86  1  0  0  0  0
 26 88  1  0  0  0  0
 27 89  1  0  0  0  0
 28 69  2  0  0  0  0
 29 55  1  0  0  0  0
 29 70  1  0  0  0  0
 30 56  1  0  0  0  0
 30 70  1  0  0  0  0
 31 71  1  0  0  0  0
 31 75  1  0  0  0  0
 32 76  1  0  0  0  0
 32 81  2  0  0  0  0
 33 51  1  0  0  0  0
 33 77  1  0  0  0  0
 33 82  2  0  0  0  0
 34 66  1  0  0  0  0
 34 72  1  0  0  0  0
 34 83  2  0  0  0  0
 35 67  1  0  0  0  0
 35 78  1  0  0  0  0
 35 84  2  0  0  0  0
 36 73  1  0  0  0  0
 36 74  1  0  0  0  0
 36 85  2  0  0  0  0
 37 40  1  0  0  0  0
 38 51  1  0  0  0  0
 39 72  1  0  0  0  0
 40 42  1  0  0  0  0
 41 43  1  0  0  0  0
 41 46  1  0  0  0  0
 42 50  1  0  0  0  0
 43 52  1  0  0  0  0
 44 47  1  0  0  0  0
 44 53  1  0  0  0  0
 45 48  1  0  0  0  0
 45 53  1  0  0  0  0
 46 73  1  0  0  0  0
 47 74  1  0  0  0  0
 48 74  1  0  0  0  0
 49 52  1  0  0  0  0
 49 73  1  0  0  0  0
 50 77  1  0  0  0  0
 51 72  1  0  0  0  0
 52 71  1  0  0  0  0
 53 70  1  0  0  0  0
 57 65  1  0  0  0  0
 58 67  1  0  0  0  0
 59 68  1  0  0  0  0
 60 68  1  0  0  0  0
 61 68  1  0  0  0  0
 62 79  1  0  0  0  0
 63 64  1  0  0  0  0
 63 80  1  0  0  0  0
 64 87  1  0  0  0  0
 65 80  1  0  0  0  0
 66 68  1  0  0  0  0
 66 78  1  0  0  0  0
 67 79  1  0  0  0  0
 69 71  1  0  0  0  0
M  CHG  2  79   1  80   1
M  ISO  4  36 100  64 101  74 100  87 101
M  END
> <Batch ID>
0153

> <Smiles>
CNC(C)C(=O)NC(C(=O)N1Cc2cc([101O:1][101CH2:1]CNC(C)c3c(C)c(C)n(C4CC[100N:0]([100C:0](=O)N5CCCC(n6nc(-c7ccc(Oc8ccc(F)cc8F)cc7)c(C(N)=O)c6N)C5)CC4)c3C)ccc2CC1C(=O)NC1CCCc2ccccc21)C(C)(C)C

> <Shape>
0.274

> <Color>
0.115

> <Negative vol penalty>
0.000

$$$$

  -OEChem-04052321483D

 88 97  0     1  0  0  0  0  0999 V2000
  -28.3134  -29.7422   22.1303 C   0  0  0  0  0  0  0  0  0  0  0  0
  -27.7490  -28.9455   23.1213 C   0  0  0  0  0  0  0  0  0  0  0  0
  -31.7330  -21.2021   19.5930 C   0  0  0  0  0  0  0  0  0  0  0  0
  -29.4089  -20.6219   19.2777 C   0  0  0  0  0  0  0  0  0  0  0  0
  -27.5170  -30.2396   21.0997 C   0  0  0  0  0  0  0  0  0  0  0  0
  -26.3875  -28.6467   23.0829 C   0  0  0  0  0  0  0  0  0  0  0  0
  -24.0949  -21.8235   22.8012 C   0  0  0  0  0  0  0  0  0  0  0  0
  -31.5369  -22.3798   18.8718 C   0  0  0  0  0  0  0  0  0  0  0  0
  -29.2128  -21.7997   18.5565 C   0  0  0  0  0  0  0  0  0  0  0  0
  -23.5732  -20.5394   22.9593 C   0  0  0  0  0  0  0  0  0  0  0  0
  -28.0144  -24.8280   16.9406 C   0  0  0  0  0  0  0  0  0  0  0  0
  -26.8783  -25.5842   17.2286 C   0  0  0  0  0  0  0  0  0  0  0  0
  -21.3267  -21.4226   22.8140 C   0  0  0  0  0  0  0  0  0  0  0  0
  -27.6276  -25.8406   19.5111 C   0  0  0  0  0  0  0  0  0  0  0  0
  -30.6690  -20.3231   19.7959 C   0  0  0  0  0  0  0  0  0  0  0  0
  -31.3026  -18.9877   21.8750 C   0  0  0  0  0  0  0  0  0  0  0  0
  -26.1470  -29.9388   21.0433 C   0  0  0  0  0  0  0  0  0  0  0  0
  -23.2336  -22.9114   22.6333 C   0  0  0  0  0  0  0  0  0  0  0  0
  -25.5718  -29.1417   22.0513 C   0  0  0  0  0  0  0  0  0  0  0  0
  -21.8436  -22.7095   22.6427 C   0  0  0  0  0  0  0  0  0  0  0  0
  -23.8575  -13.4409   21.4481 C   0  0  0  0  0  0  0  0  0  0  0  0
  -25.1064  -13.9933   21.1278 C   0  0  0  0  0  0  0  0  0  0  0  0
  -23.6817  -12.0616   21.2546 C   0  0  0  0  0  0  0  0  0  0  0  0
  -30.2768  -22.6786   18.3536 C   0  0  0  0  0  0  0  0  0  0  0  0
  -22.1925  -20.3395   22.9659 C   0  0  0  0  0  0  0  0  0  0  0  0
  -28.9572  -24.5781   17.9378 C   0  0  0  0  0  0  0  0  0  0  0  0
  -26.6848  -26.0905   18.5139 C   0  0  0  0  0  0  0  0  0  0  0  0
  -28.7638  -25.0844   19.2231 C   0  0  0  0  0  0  0  0  0  0  0  0
  -30.8711  -19.1061   20.5403 C   0  0  0  0  0  0  0  0  0  0  0  0
  -26.0834  -13.1489   20.5999 C   0  0  0  0  0  0  0  0  0  0  0  0
  -24.7269  -11.3120   20.7362 C   0  0  0  0  0  0  0  0  0  0  0  0
  -31.3329  -17.6343   22.1073 C   0  0  0  0  0  0  0  0  0  0  0  0
  -31.6453  -20.0097   22.8204 C   0  0  0  0  0  0  0  0  0  0  0  0
  -22.8823  -26.6085   22.1003 C   0  0  0  0  0  0  0  0  0  0  0  0
  -20.7702  -25.2496   20.3388 C   0  0  0  0  0  0  0  0  0  0  0  0
  -19.1034  -24.5965   17.7507 C   0  0  0  0  0  0  0  0  0  0  0  0
  -28.4259  -13.0104   19.6836 C   0  0  0  0  0  0  0  0  0  0  0  0
  -25.3171  -30.5384   19.9358 C   0  0  0  0  0  0  0  0  0  0  0  0
  -23.7500  -24.3201   22.5214 C   0  0  0  0  0  0  0  0  0  0  0  0
  -25.3979  -15.4541   21.2903 C   0  0  0  0  0  0  0  0  0  0  0  0
  -20.9548  -23.9139   22.4934 C   0  0  0  0  0  0  0  0  0  0  0  0
  -23.9574  -29.8667   19.7615 C   0  0  0  0  0  0  0  0  0  0  0  0
  -31.9543  -13.4594   19.8449 C   0  0  0  0  0  0  0  0  0  0  0  0
  -23.2754  -29.6832   21.1135 C   0  0  0  0  0  0  0  0  0  0  0  0
  -32.1161  -14.9464   20.1690 C   0  0  0  0  0  0  0  0  0  0  0  0
  -30.7771  -13.2089   18.9041 C   0  0  0  0  0  0  0  0  0  0  0  0
  -29.6598  -15.2672   19.6685 C   0  0  0  0  0  0  0  0  0  0  0  0
  -24.5179  -16.1014   22.3428 C   0  0  0  0  0  0  0  0  0  0  0  0
  -24.1037  -28.7751   22.0305 C   0  0  1  0  0  0  0  0  0  0  0  0
  -22.9046  -25.2001   21.5832 C   0  0  1  0  0  0  0  0  0  0  0  0
  -30.7930  -15.5623   20.6646 C   0  0  2  0  0  0  0  0  0  0  0  0
  -22.7226  -14.3091   22.0135 C   0  0  0  0  0  0  0  0  0  0  0  0
  -22.4223  -11.3326   21.6051 C   0  0  0  0  0  0  0  0  0  0  0  0
  -22.4187  -13.8747   23.4615 C   0  0  0  0  0  0  0  0  0  0  0  0
  -21.4632  -14.1461   21.1320 C   0  0  0  0  0  0  0  0  0  0  0  0
  -17.5337  -24.4041   15.8023 C   0  0  0  0  0  0  0  0  0  0  0  0
  -21.0736  -18.1734   20.9684 C   0  0  0  0  0  0  0  0  0  0  0  0
  -19.0271  -24.6688   22.7736 C   0  0  0  0  0  0  0  0  0  0  0  0
  -17.0374  -24.6420   21.2543 C   0  0  0  0  0  0  0  0  0  0  0  0
  -18.3890  -26.7242   21.4997 C   0  0  0  0  0  0  0  0  0  0  0  0
  -20.5509  -26.6823   16.2298 C   0  0  0  0  0  0  0  0  0  0  0  0
  -22.1657  -16.7449   22.7880 C   0  0  0  0  0  0  0  0  0  0  0  0
  -19.3464  -24.7694   20.2136 C   0  0  1  0  0  0  0  0  0  0  0  0
  -18.4890  -25.3120   16.5611 C   0  0  2  0  0  0  0  0  0  0  0  0
  -22.0579  -18.1164   22.1294 C   0  0  2  0  0  0  0  0  0  1  0  0
  -18.4720  -25.1837   21.4306 C   0  0  0  0  0  0  0  0  0  0  0  0
  -30.6438  -17.9223   19.9649 N   0  0  0  0  0  0  0  0  0  0  0  0
  -25.9260  -11.8235   20.3980 N   0  0  0  0  0  0  0  0  0  0  0  0
  -30.9336  -17.0472   20.9428 N   0  0  0  0  0  0  0  0  0  0  0  0
  -21.4906  -24.8082   21.4553 N   0  0  0  0  0  0  0  0  0  0  0  0
  -29.5576  -13.8172   19.4404 N   0  0  0  0  0  0  0  0  0  0  0  0
  -24.5368   -9.9202   20.5464 N   0  0  0  0  0  0  0  0  0  0  0  0
  -31.6619  -16.9011   23.1920 N   0  0  0  0  0  0  0  0  0  0  0  0
  -32.9756  -20.4466   22.8791 N   0  0  0  0  0  0  0  0  0  0  0  0
  -27.3367  -13.6929   20.2242 N   0  0  0  0  0  0  0  0  0  0  0  0
  -23.9333  -27.3877   21.6556 N   0  0  0  0  0  0  0  0  0  0  0  0
  -18.8594  -25.2661   18.9312 N   0  0  0  0  0  0  0  0  0  0  0  0
  -23.0718  -15.8319   21.9957 N   0  3  1  0  0  0  0  0  0  0  0  0
  -19.5541  -25.7637   15.6218 N   0  3  0  0  0  0  0  0  0  0  0  0
  -30.8002  -20.5086   23.6017 O   0  0  0  0  0  0  0  0  0  0  0  0
  -21.9777  -26.9639   22.8467 O   0  0  0  0  0  0  0  0  0  0  0  0
  -21.2317  -26.0002   19.4747 O   0  0  0  0  0  0  0  0  0  0  0  0
  -19.7332  -23.5465   17.6440 O   0  0  0  0  0  0  0  0  0  0  0  0
  -28.4325  -11.7978   19.4564 O   0  0  0  0  0  0  0  0  0  0  0  0
  -30.0850  -23.8279   17.6501 O   0  0  0  0  0  0  0  0  0  0  0  0
  -21.6871  -19.0754   23.1170 O   0  0  0  0  0  0  0  0  0  1  0  0
  -25.5945  -26.8179   18.7899 F   0  0  0  0  0  0  0  0  0  0  0  0
  -29.6665  -24.8486   20.1849 F   0  0  0  0  0  0  0  0  0  0  0  0
  1  2  1  0  0  0  0
  1  5  2  0  0  0  0
  2  6  2  0  0  0  0
  3  8  2  0  0  0  0
  3 15  1  0  0  0  0
  4  9  1  0  0  0  0
  4 15  2  0  0  0  0
  5 17  1  0  0  0  0
  6 19  1  0  0  0  0
  7 10  2  0  0  0  0
  7 18  1  0  0  0  0
  8 24  1  0  0  0  0
  9 24  2  0  0  0  0
 10 25  1  0  0  0  0
 11 12  2  0  0  0  0
 11 26  1  0  0  0  0
 12 27  1  0  0  0  0
 13 20  1  0  0  0  0
 13 25  2  0  0  0  0
 14 27  2  0  0  0  0
 14 28  1  0  0  0  0
 15 29  1  0  0  0  0
 16 29  1  0  0  0  0
 16 32  2  0  0  0  0
 16 33  1  0  0  0  0
 17 19  2  0  0  0  0
 17 38  1  0  0  0  0
 18 20  2  0  0  0  0
 18 39  1  0  0  0  0
 19 49  1  0  0  0  0
 20 41  1  0  0  0  0
 21 22  2  0  0  0  0
 21 23  1  0  0  0  0
 21 52  1  0  0  0  0
 22 30  1  0  0  0  0
 22 40  1  0  0  0  0
 23 31  2  0  0  0  0
 23 53  1  0  0  0  0
 24 85  1  0  0  0  0
 25 86  1  0  0  0  0
 26 28  2  0  0  0  0
 26 85  1  0  0  0  0
 27 87  1  0  0  0  0
 28 88  1  0  0  0  0
 29 67  2  0  0  0  0
 30 68  2  0  0  0  0
 30 75  1  0  0  0  0
 31 68  1  0  0  0  0
 31 72  1  0  0  0  0
 32 69  1  0  0  0  0
 32 73  1  0  0  0  0
 33 74  1  0  0  0  0
 33 80  2  0  0  0  0
 34 50  1  0  0  0  0
 34 76  1  0  0  0  0
 34 81  2  0  0  0  0
 35 63  1  0  0  0  0
 35 70  1  0  0  0  0
 35 82  2  0  0  0  0
 36 64  1  0  0  0  0
 36 77  1  0  0  0  0
 36 83  2  0  0  0  0
 37 71  1  0  0  0  0
 37 75  1  0  0  0  0
 37 84  2  0  0  0  0
 38 42  1  0  0  0  0
 39 50  1  0  0  0  0
 40 48  1  0  0  0  0
 41 70  1  0  0  0  0
 42 44  1  0  0  0  0
 43 45  1  0  0  0  0
 43 46  1  0  0  0  0
 44 49  1  0  0  0  0
 45 51  1  0  0  0  0
 46 71  1  0  0  0  0
 47 51  1  0  0  0  0
 47 71  1  0  0  0  0
 48 78  1  0  0  0  0
 49 76  1  0  0  0  0
 50 70  1  0  0  0  0
 51 69  1  0  0  0  0
 52 54  1  0  0  0  0
 52 55  1  0  0  0  0
 52 78  1  0  0  0  0
 56 64  1  0  0  0  0
 57 65  1  0  0  0  0
 58 66  1  0  0  0  0
 59 66  1  0  0  0  0
 60 66  1  0  0  0  0
 61 79  1  0  0  0  0
 62 65  1  0  0  0  0
 62 78  1  0  0  0  0
 63 66  1  0  0  0  0
 63 77  1  0  0  0  0
 64 79  1  0  0  0  0
 65 86  1  0  0  0  0
 67 69  1  0  0  0  0
M  CHG  2  78   1  79   1
M  ISO  4  37 100  65 101  75 100  86 101
M  END
> <Batch ID>
0153

> <Smiles>
CNC(C)C(=O)NC(C(=O)N1Cc2cc([101O:1][101CH:1](C)CN3CCc4c([100NH:0][100C:0](=O)N5CCCC(n6nc(-c7ccc(Oc8ccc(F)cc8F)cc7)c(C(N)=O)c6N)C5)nc(N)c(C)c4C3(C)C)ccc2CC1C(=O)NC1CCCc2ccccc21)C(C)(C)C

> <Shape>
0.237

> <Color>
0.061

> <Negative vol penalty>
0.000

$$$$

  -OEChem-04052321483D

 88 97  0     1  0  0  0  0  0999 V2000
  -16.9655  -25.7937   23.7856 C   0  0  0  0  0  0  0  0  0  0  0  0
  -18.0859  -25.6994   22.9664 C   0  0  0  0  0  0  0  0  0  0  0  0
  -23.6526  -12.1378   22.6160 C   0  0  0  0  0  0  0  0  0  0  0  0
  -23.0822  -12.7935   20.3617 C   0  0  0  0  0  0  0  0  0  0  0  0
  -16.5080  -27.0445   24.1978 C   0  0  0  0  0  0  0  0  0  0  0  0
  -18.7488  -26.8562   22.5578 C   0  0  0  0  0  0  0  0  0  0  0  0
  -23.7815  -26.4524   22.9498 C   0  0  0  0  0  0  0  0  0  0  0  0
  -22.5756  -12.8778   23.1038 C   0  0  0  0  0  0  0  0  0  0  0  0
  -22.0051  -13.5336   20.8495 C   0  0  0  0  0  0  0  0  0  0  0  0
  -24.4418  -25.7316   21.9557 C   0  0  0  0  0  0  0  0  0  0  0  0
  -20.1895  -14.8871   24.9727 C   0  0  0  0  0  0  0  0  0  0  0  0
  -20.4082  -15.6951   26.0885 C   0  0  0  0  0  0  0  0  0  0  0  0
  -30.3095  -18.6206   18.2871 C   0  0  0  0  0  0  0  0  0  0  0  0
  -29.3477  -20.3086   19.7232 C   0  0  0  0  0  0  0  0  0  0  0  0
  -25.0623  -27.7985   20.8777 C   0  0  0  0  0  0  0  0  0  0  0  0
  -30.2340  -20.9238   17.5615 C   0  0  0  0  0  0  0  0  0  0  0  0
  -22.0869  -16.9295   24.8656 C   0  0  0  0  0  0  0  0  0  0  0  0
  -23.9059  -12.0956   21.2449 C   0  0  0  0  0  0  0  0  0  0  0  0
  -25.0135   -9.9798   20.3483 C   0  0  0  0  0  0  0  0  0  0  0  0
  -17.1713  -28.2167   23.8020 C   0  0  0  0  0  0  0  0  0  0  0  0
  -23.7474  -27.8537   22.9093 C   0  0  0  0  0  0  0  0  0  0  0  0
  -18.2989  -28.1240   22.9640 C   0  0  0  0  0  0  0  0  0  0  0  0
  -29.6936  -18.9782   19.4864 C   0  0  0  0  0  0  0  0  0  0  0  0
  -24.4031  -28.5348   21.8739 C   0  0  0  0  0  0  0  0  0  0  0  0
  -21.7519  -13.5757   22.2206 C   0  0  0  0  0  0  0  0  0  0  0  0
  -25.0799  -26.4046   20.9179 C   0  0  0  0  0  0  0  0  0  0  0  0
  -20.9195  -15.1003   23.8034 C   0  0  0  0  0  0  0  0  0  0  0  0
  -30.5798  -19.5934   17.3247 C   0  0  0  0  0  0  0  0  0  0  0  0
  -29.6180  -21.2814   18.7607 C   0  0  0  0  0  0  0  0  0  0  0  0
  -21.3568  -16.7163   26.0350 C   0  0  0  0  0  0  0  0  0  0  0  0
  -21.8682  -16.1215   23.7499 C   0  0  0  0  0  0  0  0  0  0  0  0
  -25.0186  -11.3318   20.7405 C   0  0  0  0  0  0  0  0  0  0  0  0
  -26.3043   -9.7332   19.9490 C   0  0  0  0  0  0  0  0  0  0  0  0
  -23.9380   -9.0316   20.3451 C   0  0  0  0  0  0  0  0  0  0  0  0
  -21.4478  -30.0356   22.6750 C   0  0  0  0  0  0  0  0  0  0  0  0
  -23.9000  -32.1054   23.1491 C   0  0  0  0  0  0  0  0  0  0  0  0
  -27.2503  -32.7228   22.9472 C   0  0  0  0  0  0  0  0  0  0  0  0
  -28.5698  -14.5051   21.4120 C   0  0  0  0  0  0  0  0  0  0  0  0
  -16.6115  -29.5488   24.2343 C   0  0  0  0  0  0  0  0  0  0  0  0
  -23.0536  -28.6174   24.0038 C   0  0  0  0  0  0  0  0  0  0  0  0
  -24.4131  -30.0389   21.7957 C   0  0  0  0  0  0  0  0  0  0  0  0
  -17.5923  -30.7060   24.0634 C   0  0  0  0  0  0  0  0  0  0  0  0
  -28.3966  -12.9963   18.0480 C   0  0  0  0  0  0  0  0  0  0  0  0
  -18.2529  -30.6476   22.6897 C   0  0  0  0  0  0  0  0  0  0  0  0
  -28.6897  -11.5332   18.3526 C   0  0  0  0  0  0  0  0  0  0  0  0
  -28.1601  -18.1939   21.3843 C   0  0  0  0  0  0  0  0  0  0  0  0
  -29.1350  -13.9391   18.9941 C   0  0  0  0  0  0  0  0  0  0  0  0
  -29.1119  -16.5316   19.9653 C   0  0  0  0  0  0  0  0  0  0  0  0
  -29.1254  -12.1875   20.7662 C   0  0  0  0  0  0  0  0  0  0  0  0
  -29.4025  -17.9267   20.5274 C   0  0  1  0  0  0  0  0  0  0  0  0
  -19.0596  -29.3546   22.5201 C   0  0  1  0  0  0  0  0  0  0  0  0
  -22.6447  -30.0257   23.5832 C   0  0  1  0  0  0  0  0  0  0  0  0
  -28.4468  -11.1764   19.8260 C   0  0  1  0  0  0  0  0  0  0  0  0
  -27.8736  -16.8243   22.0113 C   0  0  1  0  0  0  0  0  0  0  0  0
  -26.3883  -16.6233   22.2829 C   0  0  0  0  0  0  0  0  0  0  0  0
  -28.9517  -34.5180   23.3718 C   0  0  0  0  0  0  0  0  0  0  0  0
  -23.0102  -33.5457   20.6107 C   0  0  0  0  0  0  0  0  0  0  0  0
  -25.2358  -34.6915   20.5640 C   0  0  0  0  0  0  0  0  0  0  0  0
  -23.6868  -35.0570   22.4849 C   0  0  0  0  0  0  0  0  0  0  0  0
  -28.6756  -31.0624   24.9399 C   0  0  0  0  0  0  0  0  0  0  0  0
  -31.5081  -17.8679   15.9768 C   0  0  0  0  0  0  0  0  0  0  0  0
  -27.5003  -24.1414   19.4504 C   0  0  0  0  0  0  0  0  0  0  0  0
  -26.2866  -24.4461   20.3144 C   0  0  0  0  0  0  0  0  0  1  0  0
  -28.1479  -22.8178   19.8258 C   0  0  0  0  0  0  0  0  0  0  0  0
  -24.8713  -32.8354   22.2532 C   0  0  1  0  0  0  0  0  0  0  0  0
  -28.2283  -33.3108   23.9483 C   0  0  2  0  0  0  0  0  0  0  0  0
  -24.1994  -34.0040   21.4783 C   0  0  0  0  0  0  0  0  0  0  0  0
  -26.2177  -11.9040   20.6030 N   0  0  0  0  0  0  0  0  0  0  0  0
  -26.9780  -10.9066   20.1200 N   0  0  0  0  0  0  0  0  0  0  0  0
  -23.7157  -30.7406   22.8860 N   0  0  0  0  0  0  0  0  0  0  0  0
  -28.9287  -13.5950   20.4050 N   0  0  0  0  0  0  0  0  0  0  0  0
  -28.4109  -15.8465   21.0552 N   0  0  0  0  0  0  0  0  0  0  0  0
  -26.9175   -8.6291   19.4719 N   0  0  0  0  0  0  0  0  0  0  0  0
  -22.6760   -9.4512   20.7873 N   0  0  0  0  0  0  0  0  0  0  0  0
  -20.3217  -29.4506   23.2219 N   0  0  0  0  0  0  0  0  0  0  0  0
  -25.9835  -33.2441   23.1042 N   0  0  0  0  0  0  0  0  0  0  0  0
  -29.2464  -32.2941   24.3365 N   0  3  0  0  0  0  0  0  0  0  0  0
  -24.0955   -7.8428   19.9769 O   0  0  0  0  0  0  0  0  0  0  0  0
  -21.5387  -30.5382   21.5611 O   0  0  0  0  0  0  0  0  0  0  0  0
  -23.3313  -32.7218   24.0537 O   0  0  0  0  0  0  0  0  0  0  0  0
  -27.5783  -31.8875   22.1074 O   0  0  0  0  0  0  0  0  0  0  0  0
  -28.4131  -14.1388   22.5847 O   0  0  0  0  0  0  0  0  0  0  0  0
  -20.7007  -14.2978   22.6962 O   0  0  0  0  0  0  0  0  0  0  0  0
  -31.1812  -19.2452   16.1541 O   0  0  0  0  0  0  0  0  0  0  0  0
  -25.7292  -25.6984   19.9389 O   0  0  0  0  0  0  0  0  0  1  0  0
  -29.2814  -22.5798   18.9926 O   0  0  0  0  0  0  0  0  0  0  0  0
  -21.5656  -17.4930   27.1060 F   0  0  0  0  0  0  0  0  0  0  0  0
  -22.5718  -16.3318   22.6289 F   0  0  0  0  0  0  0  0  0  0  0  0
  1  2  1  0  0  0  0
  1  5  2  0  0  0  0
  2  6  2  0  0  0  0
  3  8  2  0  0  0  0
  3 18  1  0  0  0  0
  4  9  1  0  0  0  0
  4 18  2  0  0  0  0
  5 20  1  0  0  0  0
  6 22  1  0  0  0  0
  7 10  2  0  0  0  0
  7 21  1  0  0  0  0
  8 25  1  0  0  0  0
  9 25  2  0  0  0  0
 10 26  1  0  0  0  0
 11 12  2  0  0  0  0
 11 27  1  0  0  0  0
 12 30  1  0  0  0  0
 13 23  2  0  0  0  0
 13 28  1  0  0  0  0
 14 23  1  0  0  0  0
 14 29  2  0  0  0  0
 15 24  1  0  0  0  0
 15 26  2  0  0  0  0
 16 28  2  0  0  0  0
 16 29  1  0  0  0  0
 17 30  2  0  0  0  0
 17 31  1  0  0  0  0
 18 32  1  0  0  0  0
 19 32  1  0  0  0  0
 19 33  2  0  0  0  0
 19 34  1  0  0  0  0
 20 22  2  0  0  0  0
 20 39  1  0  0  0  0
 21 24  2  0  0  0  0
 21 40  1  0  0  0  0
 22 51  1  0  0  0  0
 23 50  1  0  0  0  0
 24 41  1  0  0  0  0
 25 83  1  0  0  0  0
 26 85  1  0  0  0  0
 27 31  2  0  0  0  0
 27 83  1  0  0  0  0
 28 84  1  0  0  0  0
 29 86  1  0  0  0  0
 30 87  1  0  0  0  0
 31 88  1  0  0  0  0
 32 68  2  0  0  0  0
 33 69  1  0  0  0  0
 33 73  1  0  0  0  0
 34 74  1  0  0  0  0
 34 78  2  0  0  0  0
 35 52  1  0  0  0  0
 35 75  1  0  0  0  0
 35 79  2  0  0  0  0
 36 65  1  0  0  0  0
 36 70  1  0  0  0  0
 36 80  2  0  0  0  0
 37 66  1  0  0  0  0
 37 76  1  0  0  0  0
 37 81  2  0  0  0  0
 38 71  1  0  0  0  0
 38 72  1  0  0  0  0
 38 82  2  0  0  0  0
 39 42  1  0  0  0  0
 40 52  1  0  0  0  0
 41 70  1  0  0  0  0
 42 44  1  0  0  0  0
 43 45  1  0  0  0  0
 43 47  1  0  0  0  0
 44 51  1  0  0  0  0
 45 53  1  0  0  0  0
 46 50  1  0  0  0  0
 46 54  1  0  0  0  0
 47 71  1  0  0  0  0
 48 50  1  0  0  0  0
 48 72  1  0  0  0  0
 49 53  1  0  0  0  0
 49 71  1  0  0  0  0
 51 75  1  0  0  0  0
 52 70  1  0  0  0  0
 53 69  1  0  0  0  0
 54 55  1  0  0  0  0
 54 72  1  0  0  0  0
 56 66  1  0  0  0  0
 57 67  1  0  0  0  0
 58 67  1  0  0  0  0
 59 67  1  0  0  0  0
 60 77  1  0  0  0  0
 61 84  1  0  0  0  0
 62 63  1  0  0  0  0
 62 64  1  0  0  0  0
 63 85  1  0  0  0  0
 64 86  1  0  0  0  0
 65 67  1  0  0  0  0
 65 76  1  0  0  0  0
 66 77  1  0  0  0  0
 68 69  1  0  0  0  0
M  CHG  1  77   1
M  ISO  4  38 100  63 101  72 100  85 101
M  END
> <Batch ID>
0153

> <Smiles>
CNC(C)C(=O)NC(C(=O)N1Cc2cc([101O:1][101CH2:1]CCOc3cc(OC)cc(C4CC(C)[100N:0]([100C:0](=O)N5CCCC(n6nc(-c7ccc(Oc8ccc(F)cc8F)cc7)c(C(N)=O)c6N)C5)C4)c3)ccc2CC1C(=O)NC1CCCc2ccccc21)C(C)(C)C

> <Shape>
0.277

> <Color>
0.087

> <Negative vol penalty>
0.000

$$$$

  -OEChem-04052321483D

 92102  0     1  0  0  0  0  0999 V2000
  -18.3795  -25.8406   23.1693 C   0  0  0  0  0  0  0  0  0  0  0  0
  -19.7418  -25.7272   22.9114 C   0  0  0  0  0  0  0  0  0  0  0  0
  -21.9690   -9.3309   20.8099 C   0  0  0  0  0  0  0  0  0  0  0  0
  -24.2536   -9.9176   21.3325 C   0  0  0  0  0  0  0  0  0  0  0  0
  -17.6908  -26.9890   22.7808 C   0  0  0  0  0  0  0  0  0  0  0  0
  -20.4161  -26.7618   22.2637 C   0  0  0  0  0  0  0  0  0  0  0  0
  -26.1922  -28.5583   23.2206 C   0  0  0  0  0  0  0  0  0  0  0  0
  -22.2196   -8.0134   21.1933 C   0  0  0  0  0  0  0  0  0  0  0  0
  -24.5043   -8.6001   21.7160 C   0  0  0  0  0  0  0  0  0  0  0  0
  -27.3826  -28.2870   22.5475 C   0  0  0  0  0  0  0  0  0  0  0  0
  -22.4830   -6.2652   24.0755 C   0  0  0  0  0  0  0  0  0  0  0  0
  -21.5379   -5.6346   24.8847 C   0  0  0  0  0  0  0  0  0  0  0  0
  -27.6929  -20.9901   16.9111 C   0  0  0  0  0  0  0  0  0  0  0  0
  -27.1415  -30.3410   21.3057 C   0  0  0  0  0  0  0  0  0  0  0  0
  -27.6687  -22.8379   19.0010 C   0  0  0  0  0  0  0  0  0  0  0  0
  -21.2128   -3.9452   23.1884 C   0  0  0  0  0  0  0  0  0  0  0  0
  -22.9860  -10.2830   20.8794 C   0  0  0  0  0  0  0  0  0  0  0  0
  -22.2712  -12.6954   21.3000 C   0  0  0  0  0  0  0  0  0  0  0  0
  -18.3589  -28.0422   22.1367 C   0  0  0  0  0  0  0  0  0  0  0  0
  -25.4606  -29.7196   22.9331 C   0  0  0  0  0  0  0  0  0  0  0  0
  -19.7354  -27.9247   21.8650 C   0  0  0  0  0  0  0  0  0  0  0  0
  -27.1023  -20.6567   18.1300 C   0  0  0  0  0  0  0  0  0  0  0  0
  -25.9434  -30.6260   21.9784 C   0  0  0  0  0  0  0  0  0  0  0  0
  -28.2593  -23.1713   17.7821 C   0  0  0  0  0  0  0  0  0  0  0  0
  -28.2715  -22.2474   16.7372 C   0  0  0  0  0  0  0  0  0  0  0  0
  -23.4872   -7.6480   21.6464 C   0  0  0  0  0  0  0  0  0  0  0  0
  -27.8559  -29.1769   21.5878 C   0  0  0  0  0  0  0  0  0  0  0  0
  -22.7930   -5.7358   22.8227 C   0  0  0  0  0  0  0  0  0  0  0  0
  -27.0902  -21.5806   19.1749 C   0  0  0  0  0  0  0  0  0  0  0  0
  -20.9028   -4.4746   24.4412 C   0  0  0  0  0  0  0  0  0  0  0  0
  -22.1579   -4.5758   22.3792 C   0  0  0  0  0  0  0  0  0  0  0  0
  -22.7279  -11.6440   20.4829 C   0  0  0  0  0  0  0  0  0  0  0  0
  -22.1879  -13.7753   20.4554 C   0  0  0  0  0  0  0  0  0  0  0  0
  -21.9509  -12.6959   22.6975 C   0  0  0  0  0  0  0  0  0  0  0  0
  -22.5525  -30.3148   21.7962 C   0  0  0  0  0  0  0  0  0  0  0  0
  -23.3435  -33.3882   22.4675 C   0  0  0  0  0  0  0  0  0  0  0  0
  -25.7990  -35.7083   22.9515 C   0  0  0  0  0  0  0  0  0  0  0  0
  -24.3526  -16.9136   16.3857 C   0  0  0  0  0  0  0  0  0  0  0  0
  -17.5625  -29.2438   21.6933 C   0  0  0  0  0  0  0  0  0  0  0  0
  -24.1921  -30.0109   23.6870 C   0  0  0  0  0  0  0  0  0  0  0  0
  -25.2060  -31.8969   21.6474 C   0  0  0  0  0  0  0  0  0  0  0  0
  -18.4269  -30.4534   21.3469 C   0  0  0  0  0  0  0  0  0  0  0  0
  -22.4747  -14.0768   15.4325 C   0  0  0  0  0  0  0  0  0  0  0  0
  -19.5983  -30.0369   20.4630 C   0  0  0  0  0  0  0  0  0  0  0  0
  -22.3590  -13.2544   16.7130 C   0  0  0  0  0  0  0  0  0  0  0  0
  -27.3946  -18.0758   18.0736 C   0  0  0  0  0  0  0  0  0  0  0  0
  -27.8109  -25.6179   17.8023 C   0  0  0  0  0  0  0  0  0  0  0  0
  -30.0214  -24.7109   18.6257 C   0  0  0  0  0  0  0  0  0  0  0  0
  -23.8435  -14.7369   15.3354 C   0  0  0  0  0  0  0  0  0  0  0  0
  -26.4084  -16.9265   17.9146 C   0  0  0  0  0  0  0  0  0  0  0  0
  -25.3332  -18.9849   17.3237 C   0  0  0  0  0  0  0  0  0  0  0  0
  -24.0382  -14.8286   17.8060 C   0  0  0  0  0  0  0  0  0  0  0  0
  -28.4226  -27.0108   17.7242 C   0  0  0  0  0  0  0  0  0  0  0  0
  -30.6163  -26.1108   18.5409 C   0  0  0  0  0  0  0  0  0  0  0  0
  -26.4782  -19.2892   18.3000 C   0  0  2  0  0  0  0  0  0  0  0  0
  -28.8744  -24.5224   17.6192 C   0  0  0  0  0  0  0  0  0  0  0  0
  -20.5070  -29.0360   21.1868 C   0  0  1  0  0  0  0  0  0  0  0  0
  -23.2637  -30.9688   22.9469 C   0  0  1  0  0  0  0  0  0  0  0  0
  -22.6749  -14.1197   17.9428 C   0  0  2  0  0  0  0  0  0  0  0  0
  -28.8998  -22.5805   15.4238 C   0  0  0  0  0  0  0  0  0  0  0  0
  -26.1368  -38.1451   23.4470 C   0  0  0  0  0  0  0  0  0  0  0  0
  -22.6225  -34.0723   19.5827 C   0  0  0  0  0  0  0  0  0  0  0  0
  -23.8527  -36.2350   19.8615 C   0  0  0  0  0  0  0  0  0  0  0  0
  -21.8559  -35.7468   21.2748 C   0  0  0  0  0  0  0  0  0  0  0  0
  -27.2240  -35.1163   25.4769 C   0  0  0  0  0  0  0  0  0  0  0  0
  -26.5505  -22.2743   21.3847 C   0  0  0  0  0  0  0  0  0  0  0  0
  -30.0788  -28.5311   18.8013 C   0  0  0  0  0  0  0  0  0  0  0  0
  -29.1374  -29.4124   19.5983 C   0  0  0  0  0  0  0  0  0  1  0  0
  -24.0164  -34.5084   21.7117 C   0  0  1  0  0  0  0  0  0  0  0  0
  -26.0007  -36.7501   24.0371 C   0  0  2  0  0  0  0  0  0  0  0  0
  -23.1000  -35.1158   20.6123 C   0  0  0  0  0  0  0  0  0  0  0  0
  -22.9211  -12.0217   19.2164 N   0  0  0  0  0  0  0  0  0  0  0  0
  -22.5841  -13.3226   19.2314 N   0  0  0  0  0  0  0  0  0  0  0  0
  -23.9674  -32.1340   22.4071 N   0  0  0  0  0  0  0  0  0  0  0  0
  -24.1473  -15.5364   16.5237 N   0  0  0  0  0  0  0  0  0  0  0  0
  -25.2519  -17.5293   17.2553 N   0  0  0  0  0  0  0  0  0  0  0  0
  -21.8151  -15.0584   20.6478 N   0  0  0  0  0  0  0  0  0  0  0  0
  -22.0927  -11.5008   23.4159 N   0  0  0  0  0  0  0  0  0  0  0  0
  -21.3537  -29.7200   22.1405 N   0  0  0  0  0  0  0  0  0  0  0  0
  -24.4618  -35.4685   22.7159 N   0  0  0  0  0  0  0  0  0  0  0  0
  -29.5252  -27.1337   18.7483 N   0  3  0  0  0  0  0  0  0  0  0  0
  -27.2318  -36.4493   24.8213 N   0  3  0  0  0  0  0  0  0  0  0  0
  -21.5351  -13.7215   23.2881 O   0  0  0  0  0  0  0  0  0  0  0  0
  -23.0536  -30.3485   20.6784 O   0  0  0  0  0  0  0  0  0  0  0  0
  -22.3065  -33.6191   23.0944 O   0  0  0  0  0  0  0  0  0  0  0  0
  -26.7342  -35.1647   22.3680 O   0  0  0  0  0  0  0  0  0  0  0  0
  -23.7870  -17.5617   15.4946 O   0  0  0  0  0  0  0  0  0  0  0  0
  -23.7320   -6.3626   22.0209 O   0  0  0  0  0  0  0  0  0  0  0  0
  -26.5182  -21.2707   20.3720 O   0  0  0  0  0  0  0  0  0  0  0  0
  -29.0256  -28.9123   20.9241 O   0  0  0  0  0  0  0  0  0  1  0  0
  -19.9964   -3.8683   25.2190 F   0  0  0  0  0  0  0  0  0  0  0  0
  -22.4523   -4.0619   21.1771 F   0  0  0  0  0  0  0  0  0  0  0  0
  1  2  1  0  0  0  0
  1  5  2  0  0  0  0
  2  6  2  0  0  0  0
  3  8  2  0  0  0  0
  3 17  1  0  0  0  0
  4  9  1  0  0  0  0
  4 17  2  0  0  0  0
  5 19  1  0  0  0  0
  6 21  1  0  0  0  0
  7 10  2  0  0  0  0
  7 20  1  0  0  0  0
  8 26  1  0  0  0  0
  9 26  2  0  0  0  0
 10 27  1  0  0  0  0
 11 12  2  0  0  0  0
 11 28  1  0  0  0  0
 12 30  1  0  0  0  0
 13 22  2  0  0  0  0
 13 25  1  0  0  0  0
 14 23  1  0  0  0  0
 14 27  2  0  0  0  0
 15 24  1  0  0  0  0
 15 29  2  0  0  0  0
 16 30  2  0  0  0  0
 16 31  1  0  0  0  0
 17 32  1  0  0  0  0
 18 32  1  0  0  0  0
 18 33  2  0  0  0  0
 18 34  1  0  0  0  0
 19 21  2  0  0  0  0
 19 39  1  0  0  0  0
 20 23  2  0  0  0  0
 20 40  1  0  0  0  0
 21 57  1  0  0  0  0
 22 29  1  0  0  0  0
 22 55  1  0  0  0  0
 23 41  1  0  0  0  0
 24 25  2  0  0  0  0
 24 56  1  0  0  0  0
 25 60  1  0  0  0  0
 26 88  1  0  0  0  0
 27 90  1  0  0  0  0
 28 31  2  0  0  0  0
 28 88  1  0  0  0  0
 29 89  1  0  0  0  0
 30 91  1  0  0  0  0
 31 92  1  0  0  0  0
 32 72  2  0  0  0  0
 33 73  1  0  0  0  0
 33 77  1  0  0  0  0
 34 78  1  0  0  0  0
 34 83  2  0  0  0  0
 35 58  1  0  0  0  0
 35 79  1  0  0  0  0
 35 84  2  0  0  0  0
 36 69  1  0  0  0  0
 36 74  1  0  0  0  0
 36 85  2  0  0  0  0
 37 70  1  0  0  0  0
 37 80  1  0  0  0  0
 37 86  2  0  0  0  0
 38 75  1  0  0  0  0
 38 76  1  0  0  0  0
 38 87  2  0  0  0  0
 39 42  1  0  0  0  0
 40 58  1  0  0  0  0
 41 74  1  0  0  0  0
 42 44  1  0  0  0  0
 43 45  1  0  0  0  0
 43 49  1  0  0  0  0
 44 57  1  0  0  0  0
 45 59  1  0  0  0  0
 46 50  1  0  0  0  0
 46 55  1  0  0  0  0
 47 53  1  0  0  0  0
 47 56  1  0  0  0  0
 48 54  1  0  0  0  0
 48 56  1  0  0  0  0
 49 75  1  0  0  0  0
 50 76  1  0  0  0  0
 51 55  1  0  0  0  0
 51 76  1  0  0  0  0
 52 59  1  0  0  0  0
 52 75  1  0  0  0  0
 53 81  1  0  0  0  0
 54 81  1  0  0  0  0
 57 79  1  0  0  0  0
 58 74  1  0  0  0  0
 59 73  1  0  0  0  0
 61 70  1  0  0  0  0
 62 71  1  0  0  0  0
 63 71  1  0  0  0  0
 64 71  1  0  0  0  0
 65 82  1  0  0  0  0
 66 89  1  0  0  0  0
 67 68  1  0  0  0  0
 67 81  1  0  0  0  0
 68 90  1  0  0  0  0
 69 71  1  0  0  0  0
 69 80  1  0  0  0  0
 70 82  1  0  0  0  0
 72 73  1  0  0  0  0
M  CHG  2  81   1  82   1
M  ISO  4  38 100  68 101  76 100  90 101
M  END
> <Batch ID>
0153

> <Smiles>
CNC(C)C(=O)NC(C(=O)N1Cc2cc([101O:1][101CH2:1]CN3CCC(c4cc(OC)c(C5CC[100N:0]([100C:0](=O)N6CCCC(n7nc(-c8ccc(Oc9ccc(F)cc9F)cc8)c(C(N)=O)c7N)C6)C5)cc4C)CC3)ccc2CC1C(=O)NC1CCCc2ccccc21)C(C)(C)C

> <Shape>
0.283

> <Color>
0.095

> <Negative vol penalty>
0.000

$$$$

  -OEChem-04052321483D

 86 95  0     1  0  0  0  0  0999 V2000
  -27.1215  -35.3990   22.9258 C   0  0  0  0  0  0  0  0  0  0  0  0
  -27.4651  -34.0636   22.7409 C   0  0  0  0  0  0  0  0  0  0  0  0
  -26.0637  -12.0558   21.4664 C   0  0  0  0  0  0  0  0  0  0  0  0
  -25.4105  -12.7179   23.6962 C   0  0  0  0  0  0  0  0  0  0  0  0
  -25.8687  -35.7304   23.4401 C   0  0  0  0  0  0  0  0  0  0  0  0
  -26.5564  -33.0588   23.0713 C   0  0  0  0  0  0  0  0  0  0  0  0
  -26.2584  -29.4636   19.5174 C   0  0  0  0  0  0  0  0  0  0  0  0
  -26.3016  -10.7589   21.9211 C   0  0  0  0  0  0  0  0  0  0  0  0
  -25.6483  -11.4209   24.1509 C   0  0  0  0  0  0  0  0  0  0  0  0
  -27.2813  -28.5169   19.4821 C   0  0  0  0  0  0  0  0  0  0  0  0
  -26.7353   -7.1842   22.4203 C   0  0  0  0  0  0  0  0  0  0  0  0
  -26.2559   -6.1275   21.6463 C   0  0  0  0  0  0  0  0  0  0  0  0
  -28.9464  -22.9941   19.8550 C   0  0  0  0  0  0  0  0  0  0  0  0
  -25.8675  -26.9543   20.6564 C   0  0  0  0  0  0  0  0  0  0  0  0
  -31.3540  -23.7643   20.9707 C   0  0  0  0  0  0  0  0  0  0  0  0
  -24.0019   -6.9559   21.9113 C   0  0  0  0  0  0  0  0  0  0  0  0
  -25.6182  -13.0354   22.3539 C   0  0  0  0  0  0  0  0  0  0  0  0
  -24.1650  -14.8911   21.3781 C   0  0  0  0  0  0  0  0  0  0  0  0
  -24.9406  -34.7296   23.7679 C   0  0  0  0  0  0  0  0  0  0  0  0
  -25.0342  -29.1660   20.1332 C   0  0  0  0  0  0  0  0  0  0  0  0
  -25.2905  -33.3772   23.5917 C   0  0  0  0  0  0  0  0  0  0  0  0
  -30.0633  -22.1373   19.7390 C   0  0  0  0  0  0  0  0  0  0  0  0
  -24.8298  -27.8981   20.6959 C   0  0  0  0  0  0  0  0  0  0  0  0
  -29.0284  -24.2059   20.5317 C   0  0  0  0  0  0  0  0  0  0  0  0
  -30.2324  -24.5871   21.0991 C   0  0  0  0  0  0  0  0  0  0  0  0
  -31.3169  -22.5341   20.2739 C   0  0  0  0  0  0  0  0  0  0  0  0
  -26.0938  -10.4414   23.2634 C   0  0  0  0  0  0  0  0  0  0  0  0
  -27.0870  -27.2630   20.0541 C   0  0  0  0  0  0  0  0  0  0  0  0
  -25.8480   -8.1268   22.9399 C   0  0  0  0  0  0  0  0  0  0  0  0
  -24.8892   -6.0134   21.3917 C   0  0  0  0  0  0  0  0  0  0  0  0
  -24.4813   -8.0127   22.6853 C   0  0  0  0  0  0  0  0  0  0  0  0
  -25.3729  -14.3755   21.8848 C   0  0  0  0  0  0  0  0  0  0  0  0
  -24.4508  -16.1997   21.0741 C   0  0  0  0  0  0  0  0  0  0  0  0
  -22.8978  -14.2448   21.1982 C   0  0  0  0  0  0  0  0  0  0  0  0
  -23.4196  -30.3483   22.6028 C   0  0  0  0  0  0  0  0  0  0  0  0
  -21.1327  -28.2783   21.5989 C   0  0  0  0  0  0  0  0  0  0  0  0
  -20.3539  -25.4214   19.9023 C   0  0  0  0  0  0  0  0  0  0  0  0
  -30.0461  -18.5131   20.0621 C   0  0  0  0  0  0  0  0  0  0  0  0
  -23.6164  -35.1350   24.3652 C   0  0  0  0  0  0  0  0  0  0  0  0
  -23.9314  -30.1889   20.1393 C   0  0  0  0  0  0  0  0  0  0  0  0
  -29.8187  -20.8201   19.0265 C   0  0  0  0  0  0  0  0  0  0  0  0
  -23.5269  -27.5219   21.3511 C   0  0  0  0  0  0  0  0  0  0  0  0
  -22.5704  -34.0235   24.3388 C   0  0  0  0  0  0  0  0  0  0  0  0
  -27.6309  -19.4732   22.7212 C   0  0  0  0  0  0  0  0  0  0  0  0
  -23.1745  -32.7103   24.8261 C   0  0  0  0  0  0  0  0  0  0  0  0
  -26.4216  -18.5639   22.4986 C   0  0  0  0  0  0  0  0  0  0  0  0
  -28.3435  -19.8174   21.4179 C   0  0  0  0  0  0  0  0  0  0  0  0
  -32.6746  -20.9680   18.9318 C   0  0  0  0  0  0  0  0  0  0  0  0
  -31.9931  -19.6139   19.0610 C   0  0  0  0  0  0  0  0  0  0  0  0
  -28.0525  -17.3793   20.9536 C   0  0  0  0  0  0  0  0  0  0  0  0
  -24.3228  -32.2596   23.9150 C   0  0  1  0  0  0  0  0  0  0  0  0
  -22.9071  -29.9565   21.2458 C   0  0  1  0  0  0  0  0  0  0  0  0
  -26.5753  -17.6544   21.2653 C   0  0  1  0  0  0  0  0  0  0  0  0
  -30.3541  -25.8657   21.8612 C   0  0  0  0  0  0  0  0  0  0  0  0
  -35.7918  -23.1770   21.4373 C   0  0  0  0  0  0  0  0  0  0  0  0
  -18.4052  -23.9649   19.2870 C   0  0  0  0  0  0  0  0  0  0  0  0
  -21.0746  -27.1611   24.4377 C   0  0  0  0  0  0  0  0  0  0  0  0
  -19.8642  -25.1575   23.5498 C   0  0  0  0  0  0  0  0  0  0  0  0
  -18.8269  -27.4192   23.3719 C   0  0  0  0  0  0  0  0  0  0  0  0
  -20.8010  -25.8468   17.0078 C   0  0  0  0  0  0  0  0  0  0  0  0
  -27.8177  -25.0734   20.6264 C   0  0  0  0  0  0  0  0  0  1  0  0
  -34.5894  -23.0005   20.5209 C   0  0  0  0  0  0  0  0  0  0  0  0
  -33.6121  -21.9467   21.0278 C   0  0  0  0  0  0  0  0  0  0  0  0
  -20.7923  -26.8370   21.8918 C   0  0  1  0  0  0  0  0  0  0  0  0
  -19.2892  -25.1268   18.8611 C   0  0  2  0  0  0  0  0  0  0  0  0
  -20.1648  -26.6511   23.3022 C   0  0  0  0  0  0  0  0  0  0  0  0
  -26.3532  -15.2826   21.9032 N   0  0  0  0  0  0  0  0  0  0  0  0
  -25.7616  -16.3812   21.4042 N   0  0  0  0  0  0  0  0  0  0  0  0
  -32.4753  -21.7692   20.1348 N   0  0  3  0  0  0  0  0  0  0  0  0
  -22.4814  -28.5584   21.3374 N   0  0  0  0  0  0  0  0  0  0  0  0
  -30.6103  -19.6884   19.5309 N   0  0  0  0  0  0  0  0  0  0  0  0
  -28.8042  -18.6157   20.7087 N   0  0  0  0  0  0  0  0  0  0  0  0
  -23.7062  -17.2012   20.5594 N   0  0  0  0  0  0  0  0  0  0  0  0
  -22.7775  -12.8968   21.5625 N   0  0  0  0  0  0  0  0  0  0  0  0
  -23.8023  -31.6726   22.6989 N   0  0  0  0  0  0  0  0  0  0  0  0
  -19.9413  -26.3876   20.7953 N   0  0  0  0  0  0  0  0  0  0  0  0
  -19.9218  -24.7823   17.5564 N   0  3  0  0  0  0  0  0  0  0  0  0
  -21.9061  -14.8405   20.7131 O   0  0  0  0  0  0  0  0  0  0  0  0
  -23.4631  -29.5114   23.4969 O   0  0  0  0  0  0  0  0  0  0  0  0
  -20.2340  -29.1232   21.5950 O   0  0  0  0  0  0  0  0  0  0  0  0
  -21.4412  -24.8489   19.9236 O   0  0  0  0  0  0  0  0  0  0  0  0
  -30.6277  -17.4233   19.9677 O   0  0  0  0  0  0  0  0  0  0  0  0
  -26.3255   -9.1758   23.7075 O   0  0  0  0  0  0  0  0  0  0  0  0
  -28.0910  -26.3309   20.0214 O   0  0  0  0  0  0  0  0  0  1  0  0
  -24.4292   -4.9994   20.6471 F   0  0  0  0  0  0  0  0  0  0  0  0
  -23.6241   -8.9158   23.1808 F   0  0  0  0  0  0  0  0  0  0  0  0
  1  2  1  0  0  0  0
  1  5  2  0  0  0  0
  2  6  2  0  0  0  0
  3  8  2  0  0  0  0
  3 17  1  0  0  0  0
  4  9  1  0  0  0  0
  4 17  2  0  0  0  0
  5 19  1  0  0  0  0
  6 21  1  0  0  0  0
  7 10  2  0  0  0  0
  7 20  1  0  0  0  0
  8 27  1  0  0  0  0
  9 27  2  0  0  0  0
 10 28  1  0  0  0  0
 11 12  2  0  0  0  0
 11 29  1  0  0  0  0
 12 30  1  0  0  0  0
 13 22  1  0  0  0  0
 13 24  2  0  0  0  0
 14 23  1  0  0  0  0
 14 28  2  0  0  0  0
 15 25  2  0  0  0  0
 15 26  1  0  0  0  0
 16 30  2  0  0  0  0
 16 31  1  0  0  0  0
 17 32  1  0  0  0  0
 18 32  1  0  0  0  0
 18 33  2  0  0  0  0
 18 34  1  0  0  0  0
 19 21  2  0  0  0  0
 19 39  1  0  0  0  0
 20 23  2  0  0  0  0
 20 40  1  0  0  0  0
 21 51  1  0  0  0  0
 22 26  2  0  0  0  0
 22 41  1  0  0  0  0
 23 42  1  0  0  0  0
 24 25  1  0  0  0  0
 24 61  1  0  0  0  0
 25 54  1  0  0  0  0
 26 69  1  0  0  0  0
 27 83  1  0  0  0  0
 28 84  1  0  0  0  0
 29 31  2  0  0  0  0
 29 83  1  0  0  0  0
 30 85  1  0  0  0  0
 31 86  1  0  0  0  0
 32 67  2  0  0  0  0
 33 68  1  0  0  0  0
 33 73  1  0  0  0  0
 34 74  1  0  0  0  0
 34 78  2  0  0  0  0
 35 52  1  0  0  0  0
 35 75  1  0  0  0  0
 35 79  2  0  0  0  0
 36 64  1  0  0  0  0
 36 70  1  0  0  0  0
 36 80  2  0  0  0  0
 37 65  1  0  0  0  0
 37 76  1  0  0  0  0
 37 81  2  0  0  0  0
 38 71  1  0  0  0  0
 38 72  1  0  0  0  0
 38 82  2  0  0  0  0
 39 43  1  0  0  0  0
 40 52  1  0  0  0  0
 41 71  1  0  0  0  0
 42 70  1  0  0  0  0
 43 45  1  0  0  0  0
 44 46  1  0  0  0  0
 44 47  1  0  0  0  0
 45 51  1  0  0  0  0
 46 53  1  0  0  0  0
 47 72  1  0  0  0  0
 48 49  1  0  0  0  0
 48 69  1  0  0  0  0
 49 71  1  0  0  0  0
 50 53  1  0  0  0  0
 50 72  1  0  0  0  0
 51 75  1  0  0  0  0
 52 70  1  0  0  0  0
 53 68  1  0  0  0  0
 55 62  1  0  0  0  0
 56 65  1  0  0  0  0
 57 66  1  0  0  0  0
 58 66  1  0  0  0  0
 59 66  1  0  0  0  0
 60 77  1  0  0  0  0
 61 84  1  0  0  0  0
 62 63  1  0  0  0  0
 63 69  1  0  0  0  0
 64 66  1  0  0  0  0
 64 76  1  0  0  0  0
 65 77  1  0  0  0  0
 67 68  1  0  0  0  0
M  CHG  1  77   1
M  ISO  4  38 100  61 101  71 100  84 101
M  END
> <Batch ID>
0153

> <Smiles>
CCCN1CC[100N:0]([100C:0](=O)N2CCCC(n3nc(-c4ccc(Oc5ccc(F)cc5F)cc4)c(C(N)=O)c3N)C2)Cc2cc([101CH2:1][101O:1]c3ccc4c(c3)CN(C(=O)C(NC(=O)C(C)NC)C(C)(C)C)C(C(=O)NC3CCCc5ccccc53)C4)c(C)cc21

> <Shape>
0.257

> <Color>
0.091

> <Negative vol penalty>
0.000

$$$$

  -OEChem-04052321483D

 89 99  0     1  0  0  0  0  0999 V2000
  -25.8438  -37.2705   17.8487 C   0  0  0  0  0  0  0  0  0  0  0  0
  -26.3039  -35.9803   17.6057 C   0  0  0  0  0  0  0  0  0  0  0  0
  -23.0090  -10.5096   21.4886 C   0  0  0  0  0  0  0  0  0  0  0  0
  -24.5665   -9.0356   22.6015 C   0  0  0  0  0  0  0  0  0  0  0  0
  -25.6187  -37.6941   19.1578 C   0  0  0  0  0  0  0  0  0  0  0  0
  -26.5402  -35.1132   18.6718 C   0  0  0  0  0  0  0  0  0  0  0  0
  -25.6935  -29.0482   18.7420 C   0  0  0  0  0  0  0  0  0  0  0  0
  -22.2050   -9.4164   21.1659 C   0  0  0  0  0  0  0  0  0  0  0  0
  -23.7625   -7.9424   22.2788 C   0  0  0  0  0  0  0  0  0  0  0  0
  -26.5698  -27.9768   18.5749 C   0  0  0  0  0  0  0  0  0  0  0  0
  -20.9146   -6.5243   23.4187 C   0  0  0  0  0  0  0  0  0  0  0  0
  -20.6658   -5.5866   24.4209 C   0  0  0  0  0  0  0  0  0  0  0  0
  -26.7896  -27.7909   20.9699 C   0  0  0  0  0  0  0  0  0  0  0  0
  -21.6881   -3.8673   23.0659 C   0  0  0  0  0  0  0  0  0  0  0  0
  -30.9299  -22.6280   18.2634 C   0  0  0  0  0  0  0  0  0  0  0  0
  -24.1898  -10.3192   22.2063 C   0  0  0  0  0  0  0  0  0  0  0  0
  -24.9481  -12.2450   23.6976 C   0  0  0  0  0  0  0  0  0  0  0  0
  -25.8432  -36.8286   20.2400 C   0  0  0  0  0  0  0  0  0  0  0  0
  -25.3666  -29.5068   20.0262 C   0  0  0  0  0  0  0  0  0  0  0  0
  -26.3192  -35.5260   19.9968 C   0  0  0  0  0  0  0  0  0  0  0  0
  -25.9069  -28.8667   21.1507 C   0  0  0  0  0  0  0  0  0  0  0  0
  -28.7210  -23.4437   17.9284 C   0  0  0  0  0  0  0  0  0  0  0  0
  -29.1840  -24.7244   18.2091 C   0  0  0  0  0  0  0  0  0  0  0  0
  -29.6042  -22.3701   17.9540 C   0  0  0  0  0  0  0  0  0  0  0  0
  -22.5817   -8.1328   21.5610 C   0  0  0  0  0  0  0  0  0  0  0  0
  -27.1203  -27.3498   19.6888 C   0  0  0  0  0  0  0  0  0  0  0  0
  -21.5502   -6.1336   22.2401 C   0  0  0  0  0  0  0  0  0  0  0  0
  -21.0525   -4.2581   24.2445 C   0  0  0  0  0  0  0  0  0  0  0  0
  -21.9370   -4.8051   22.0638 C   0  0  0  0  0  0  0  0  0  0  0  0
  -25.0210  -11.4480   22.5395 C   0  0  0  0  0  0  0  0  0  0  0  0
  -30.5285  -24.8769   18.5073 C   0  0  0  0  0  0  0  0  0  0  0  0
  -25.9451  -13.1759   23.5371 C   0  0  0  0  0  0  0  0  0  0  0  0
  -24.0587  -12.1520   24.8183 C   0  0  0  0  0  0  0  0  0  0  0  0
  -25.7510  -32.2439   21.5960 C   0  0  0  0  0  0  0  0  0  0  0  0
  -23.9622  -30.7501   23.8524 C   0  0  0  0  0  0  0  0  0  0  0  0
  -22.8791  -27.8150   25.2157 C   0  0  0  0  0  0  0  0  0  0  0  0
  -28.7136  -16.7666   20.6652 C   0  0  0  0  0  0  0  0  0  0  0  0
  -25.6307  -37.3469   21.6403 C   0  0  0  0  0  0  0  0  0  0  0  0
  -24.3989  -30.6466   20.1902 C   0  0  0  0  0  0  0  0  0  0  0  0
  -25.5722  -29.3076   22.5514 C   0  0  0  0  0  0  0  0  0  0  0  0
  -25.5483  -36.2438   22.6922 C   0  0  0  0  0  0  0  0  0  0  0  0
  -29.7148  -13.4356   20.1843 C   0  0  0  0  0  0  0  0  0  0  0  0
  -26.2318  -23.6979   18.5712 C   0  0  0  0  0  0  0  0  0  0  0  0
  -26.4899  -22.2323   18.4112 C   0  0  0  0  0  0  0  0  0  0  0  0
  -26.6723  -35.2318   22.4937 C   0  0  0  0  0  0  0  0  0  0  0  0
  -28.5691  -12.6751   20.8516 C   0  0  0  0  0  0  0  0  0  0  0  0
  -29.1250  -18.6458   17.7177 C   0  0  0  0  0  0  0  0  0  0  0  0
  -29.7152  -19.9650   19.7863 C   0  0  0  0  0  0  0  0  0  0  0  0
  -29.2141  -14.6386   19.3829 C   0  0  0  0  0  0  0  0  0  0  0  0
  -29.6585  -17.3795   18.3940 C   0  0  0  0  0  0  0  0  0  0  0  0
  -30.2609  -18.6827   20.4084 C   0  0  0  0  0  0  0  0  0  0  0  0
  -27.2128  -14.8028   20.8273 C   0  0  0  0  0  0  0  0  0  0  0  0
  -27.2780  -23.2239   17.6004 C   0  0  0  0  0  0  0  0  0  0  0  0
  -26.5637  -34.5480   21.1254 C   0  0  1  0  0  0  0  0  0  0  0  0
  -24.5377  -31.3600   21.5315 C   0  0  1  0  0  0  0  0  0  0  0  0
  -27.6903  -13.6225   21.6876 C   0  0  1  0  0  0  0  0  0  0  0  0
  -29.8087  -19.9033   18.2595 C   0  0  0  0  0  0  0  0  0  0  0  0
  -21.4554  -26.9136   27.0753 C   0  0  0  0  0  0  0  0  0  0  0  0
  -26.1688  -31.4044   25.8556 C   0  0  0  0  0  0  0  0  0  0  0  0
  -25.1733  -29.7051   27.4015 C   0  0  0  0  0  0  0  0  0  0  0  0
  -23.8446  -31.7061   26.7283 C   0  0  0  0  0  0  0  0  0  0  0  0
  -21.0499  -26.4682   23.3185 C   0  0  0  0  0  0  0  0  0  0  0  0
  -32.4133  -26.2062   19.0871 C   0  0  0  0  0  0  0  0  0  0  0  0
  -28.2672  -25.9013   18.1915 C   0  0  0  0  0  0  0  0  0  1  0  0
  -24.2595  -29.8689   25.0416 C   0  0  1  0  0  0  0  0  0  0  0  0
  -21.4937  -27.3411   25.6163 C   0  0  2  0  0  0  0  0  0  0  0  0
  -24.8696  -30.6638   26.2304 C   0  0  0  0  0  0  0  0  0  0  0  0
  -31.4165  -23.8582   18.5417 N   0  0  0  0  0  0  0  0  0  0  0  0
  -25.9878  -11.8386   21.7048 N   0  0  0  0  0  0  0  0  0  0  0  0
  -26.5315  -12.8912   22.3391 N   0  0  0  0  0  0  0  0  0  0  0  0
  -24.6261  -30.4305   22.6595 N   0  0  0  0  0  0  0  0  0  0  0  0
  -28.3485  -15.4909   20.2098 N   0  0  0  0  0  0  0  0  0  0  0  0
  -29.5924  -17.5035   19.8572 N   0  0  0  0  0  0  0  0  0  0  0  0
  -26.3685  -14.2021   24.3052 N   0  0  0  0  0  0  0  0  0  0  0  0
  -23.0931  -11.1362   24.8226 N   0  0  0  0  0  0  0  0  0  0  0  0
  -29.1924  -21.0775   17.6821 N   0  0  0  0  0  0  0  0  0  0  0  0
  -25.5325  -33.5328   21.1482 N   0  0  0  0  0  0  0  0  0  0  0  0
  -23.0138  -29.1796   25.3603 N   0  0  0  0  0  0  0  0  0  0  0  0
  -21.0796  -26.1821   24.7760 N   0  3  0  0  0  0  0  0  0  0  0  0
  -24.1077  -12.9564   25.7796 O   0  0  0  0  0  0  0  0  0  0  0  0
  -26.8068  -31.7906   22.0220 O   0  0  0  0  0  0  0  0  0  0  0  0
  -23.1648  -31.6832   23.9754 O   0  0  0  0  0  0  0  0  0  0  0  0
  -23.7555  -27.0505   24.8180 O   0  0  0  0  0  0  0  0  0  0  0  0
  -28.2799  -17.2210   21.7312 O   0  0  0  0  0  0  0  0  0  0  0  0
  -21.7973   -7.0659   21.2465 O   0  0  0  0  0  0  0  0  0  0  0  0
  -27.9823  -26.2970   19.5274 O   0  0  0  0  0  0  0  0  0  1  0  0
  -31.0248  -26.1231   18.7899 O   0  0  0  0  0  0  0  0  0  0  0  0
  -20.8149   -3.3580   25.2076 F   0  0  0  0  0  0  0  0  0  0  0  0
  -22.5490   -4.4239   20.9342 F   0  0  0  0  0  0  0  0  0  0  0  0
  1  2  1  0  0  0  0
  1  5  2  0  0  0  0
  2  6  2  0  0  0  0
  3  8  2  0  0  0  0
  3 16  1  0  0  0  0
  4  9  1  0  0  0  0
  4 16  2  0  0  0  0
  5 18  1  0  0  0  0
  6 20  1  0  0  0  0
  7 10  2  0  0  0  0
  7 19  1  0  0  0  0
  8 25  1  0  0  0  0
  9 25  2  0  0  0  0
 10 26  1  0  0  0  0
 11 12  2  0  0  0  0
 11 27  1  0  0  0  0
 12 28  1  0  0  0  0
 13 21  1  0  0  0  0
 13 26  2  0  0  0  0
 14 28  2  0  0  0  0
 14 29  1  0  0  0  0
 15 24  2  0  0  0  0
 15 68  1  0  0  0  0
 16 30  1  0  0  0  0
 17 30  1  0  0  0  0
 17 32  2  0  0  0  0
 17 33  1  0  0  0  0
 18 20  2  0  0  0  0
 18 38  1  0  0  0  0
 19 21  2  0  0  0  0
 19 39  1  0  0  0  0
 20 54  1  0  0  0  0
 21 40  1  0  0  0  0
 22 23  2  0  0  0  0
 22 24  1  0  0  0  0
 22 53  1  0  0  0  0
 23 31  1  0  0  0  0
 23 64  1  0  0  0  0
 24 76  1  0  0  0  0
 25 85  1  0  0  0  0
 26 86  1  0  0  0  0
 27 29  2  0  0  0  0
 27 85  1  0  0  0  0
 28 88  1  0  0  0  0
 29 89  1  0  0  0  0
 30 69  2  0  0  0  0
 31 68  2  0  0  0  0
 31 87  1  0  0  0  0
 32 70  1  0  0  0  0
 32 74  1  0  0  0  0
 33 75  1  0  0  0  0
 33 80  2  0  0  0  0
 34 55  1  0  0  0  0
 34 77  1  0  0  0  0
 34 81  2  0  0  0  0
 35 65  1  0  0  0  0
 35 71  1  0  0  0  0
 35 82  2  0  0  0  0
 36 66  1  0  0  0  0
 36 78  1  0  0  0  0
 36 83  2  0  0  0  0
 37 72  1  0  0  0  0
 37 73  1  0  0  0  0
 37 84  2  0  0  0  0
 38 41  1  0  0  0  0
 39 55  1  0  0  0  0
 40 71  1  0  0  0  0
 41 45  1  0  0  0  0
 42 46  1  0  0  0  0
 42 49  1  0  0  0  0
 43 44  1  0  0  0  0
 43 53  1  0  0  0  0
 44 53  1  0  0  0  0
 45 54  1  0  0  0  0
 46 56  1  0  0  0  0
 47 50  1  0  0  0  0
 47 57  1  0  0  0  0
 48 51  1  0  0  0  0
 48 57  1  0  0  0  0
 49 72  1  0  0  0  0
 50 73  1  0  0  0  0
 51 73  1  0  0  0  0
 52 56  1  0  0  0  0
 52 72  1  0  0  0  0
 54 77  1  0  0  0  0
 55 71  1  0  0  0  0
 56 70  1  0  0  0  0
 57 76  1  0  0  0  0
 58 66  1  0  0  0  0
 59 67  1  0  0  0  0
 60 67  1  0  0  0  0
 61 67  1  0  0  0  0
 62 79  1  0  0  0  0
 63 87  1  0  0  0  0
 64 86  1  0  0  0  0
 65 67  1  0  0  0  0
 65 78  1  0  0  0  0
 66 79  1  0  0  0  0
 69 70  1  0  0  0  0
M  CHG  1  79   1
M  ISO  4  37 100  64 101  73 100  86 101
M  END
> <Batch ID>
0153

> <Smiles>
CNC(C)C(=O)NC(C(=O)N1Cc2cc([101O:1][101CH2:1]c3c(OC)ncc(NC4CC[100N:0]([100C:0](=O)N5CCCC(n6nc(-c7ccc(Oc8ccc(F)cc8F)cc7)c(C(N)=O)c6N)C5)CC4)c3C3CC3)ccc2CC1C(=O)NC1CCCc2ccccc21)C(C)(C)C

> <Shape>
0.301

> <Color>
0.115

> <Negative vol penalty>
0.000

$$$$

  -OEChem-04052321483D

 89 98  0     1  0  0  0  0  0999 V2000
  -28.6451  -31.2607   26.7070 C   0  0  0  0  0  0  0  0  0  0  0  0
  -28.7607  -30.0550   26.0225 C   0  0  0  0  0  0  0  0  0  0  0  0
  -23.9538   -9.6626   21.5055 C   0  0  0  0  0  0  0  0  0  0  0  0
  -24.5121  -10.7541   23.5873 C   0  0  0  0  0  0  0  0  0  0  0  0
  -27.4414  -31.9637   26.6798 C   0  0  0  0  0  0  0  0  0  0  0  0
  -27.6722  -29.5512   25.3114 C   0  0  0  0  0  0  0  0  0  0  0  0
  -28.9722  -27.8362   20.7273 C   0  0  0  0  0  0  0  0  0  0  0  0
  -23.4896   -8.5529   22.2117 C   0  0  0  0  0  0  0  0  0  0  0  0
  -24.0479   -9.6444   24.2936 C   0  0  0  0  0  0  0  0  0  0  0  0
  -29.5829  -26.5843   20.6654 C   0  0  0  0  0  0  0  0  0  0  0  0
  -20.7143   -7.6790   23.9341 C   0  0  0  0  0  0  0  0  0  0  0  0
  -19.4973   -7.1227   23.5403 C   0  0  0  0  0  0  0  0  0  0  0  0
  -27.4763  -25.5948   20.0312 C   0  0  0  0  0  0  0  0  0  0  0  0
  -30.2113  -19.8217   22.3567 C   0  0  0  0  0  0  0  0  0  0  0  0
  -20.6040   -5.0238   23.0851 C   0  0  0  0  0  0  0  0  0  0  0  0
  -24.4651  -10.7632   22.1933 C   0  0  0  0  0  0  0  0  0  0  0  0
  -24.2028  -13.0392   21.0714 C   0  0  0  0  0  0  0  0  0  0  0  0
  -26.3406  -31.4730   25.9601 C   0  0  0  0  0  0  0  0  0  0  0  0
  -27.6043  -27.9752   20.4518 C   0  0  0  0  0  0  0  0  0  0  0  0
  -26.4522  -30.2477   25.2757 C   0  0  0  0  0  0  0  0  0  0  0  0
  -26.8512  -26.8498   20.0878 C   0  0  0  0  0  0  0  0  0  0  0  0
  -23.5366   -8.5438   23.6057 C   0  0  0  0  0  0  0  0  0  0  0  0
  -28.8343  -25.4630   20.3201 C   0  0  0  0  0  0  0  0  0  0  0  0
  -21.8762   -6.9077   23.9032 C   0  0  0  0  0  0  0  0  0  0  0  0
  -29.2534  -20.8554   22.5018 C   0  0  0  0  0  0  0  0  0  0  0  0
  -19.4421   -5.7951   23.1159 C   0  0  0  0  0  0  0  0  0  0  0  0
  -21.8210   -5.5802   23.4788 C   0  0  0  0  0  0  0  0  0  0  0  0
  -24.9453  -11.9095   21.4643 C   0  0  0  0  0  0  0  0  0  0  0  0
  -28.1509  -20.3104   23.1219 C   0  0  0  0  0  0  0  0  0  0  0  0
  -29.6649  -18.6764   22.8925 C   0  0  0  0  0  0  0  0  0  0  0  0
  -25.1091  -13.8337   20.4128 C   0  0  0  0  0  0  0  0  0  0  0  0
  -22.8177  -13.3432   21.2830 C   0  0  0  0  0  0  0  0  0  0  0  0
  -25.0690  -28.9397   22.1089 C   0  0  0  0  0  0  0  0  0  0  0  0
  -23.5675  -28.6233   19.2510 C   0  0  0  0  0  0  0  0  0  0  0  0
  -23.4855  -27.1638   16.1672 C   0  0  0  0  0  0  0  0  0  0  0  0
  -31.0694  -14.3247   20.7041 C   0  0  0  0  0  0  0  0  0  0  0  0
  -25.0454  -32.2448   25.9990 C   0  0  0  0  0  0  0  0  0  0  0  0
  -26.9663  -29.3366   20.4968 C   0  0  0  0  0  0  0  0  0  0  0  0
  -25.3838  -26.9488   19.7629 C   0  0  0  0  0  0  0  0  0  0  0  0
  -24.0558  -31.8290   24.9137 C   0  0  0  0  0  0  0  0  0  0  0  0
  -29.1212  -13.5796   17.8186 C   0  0  0  0  0  0  0  0  0  0  0  0
  -23.9518  -30.3089   24.8400 C   0  0  0  0  0  0  0  0  0  0  0  0
  -25.5424  -20.5221   22.9702 C   0  0  0  0  0  0  0  0  0  0  0  0
  -26.1072  -21.7832   22.3951 C   0  0  0  0  0  0  0  0  0  0  0  0
  -27.7630  -13.1690   18.3903 C   0  0  0  0  0  0  0  0  0  0  0  0
  -30.2725  -13.1034   18.7017 C   0  0  0  0  0  0  0  0  0  0  0  0
  -28.8155  -13.0934   20.6893 C   0  0  0  0  0  0  0  0  0  0  0  0
  -25.3016  -29.6808   24.4726 C   0  0  1  0  0  0  0  0  0  0  0  0
  -26.8630  -21.0540   23.4860 C   0  0  0  0  0  0  0  0  0  0  0  0
  -25.4550  -29.2819   20.6976 C   0  0  1  0  0  0  0  0  0  0  0  0
  -27.6210  -13.5996   19.8626 C   0  0  2  0  0  0  0  0  0  0  0  0
  -22.1155  -27.0727   14.0667 C   0  0  0  0  0  0  0  0  0  0  0  0
  -28.0465  -17.5238   25.3102 C   0  0  0  0  0  0  0  0  0  0  0  0
  -27.0711  -16.9349   23.0501 C   0  0  0  0  0  0  0  0  0  0  0  0
  -31.6650  -15.1344   24.2570 C   0  0  0  0  0  0  0  0  0  0  0  0
  -21.5298  -26.8424   20.6602 C   0  0  0  0  0  0  0  0  0  0  0  0
  -20.7816  -26.0374   18.4107 C   0  0  0  0  0  0  0  0  0  0  0  0
  -20.5492  -28.4472   19.0117 C   0  0  0  0  0  0  0  0  0  0  0  0
  -25.7174  -28.2082   14.5280 C   0  0  0  0  0  0  0  0  0  0  0  0
  -31.4882  -17.0094   22.5428 C   0  0  0  0  0  0  0  0  0  0  0  0
  -30.5348  -24.0113   21.1305 C   0  0  0  0  0  0  0  0  0  1  0  0
  -30.5911  -22.5376   21.4837 C   0  0  0  0  0  0  0  0  0  0  0  0
  -22.8468  -27.5034   18.5401 C   0  0  1  0  0  0  0  0  0  0  0  0
  -23.2756  -27.7477   14.7817 C   0  0  2  0  0  0  0  0  0  0  0  0
  -27.4927  -18.0653   23.9908 C   0  0  0  0  0  0  0  0  0  0  0  0
  -31.7242  -15.5153   22.7808 C   0  0  2  0  0  0  0  0  0  0  0  0
  -21.4540  -27.2051   19.1636 C   0  0  0  0  0  0  0  0  0  0  0  0
  -26.2247  -11.9765   21.0866 N   0  0  0  0  0  0  0  0  0  0  0  0
  -28.4121  -18.9852   23.3544 N   0  0  0  0  0  0  0  0  0  0  0  0
  -26.2932  -13.1578   20.4495 N   0  0  0  0  0  0  0  0  0  0  0  0
  -24.8043  -28.3007   19.8271 N   0  0  0  0  0  0  0  0  0  0  0  0
  -30.0780  -13.5462   20.0844 N   0  0  0  0  0  0  0  0  0  0  0  0
  -25.0008  -15.0375   19.8116 N   0  0  0  0  0  0  0  0  0  0  0  0
  -22.0291  -12.4170   21.9791 N   0  0  0  0  0  0  0  0  0  0  0  0
  -30.1637  -17.4261   23.0049 N   0  0  0  0  0  0  0  0  0  0  0  0
  -25.5555  -29.8217   23.0548 N   0  0  0  0  0  0  0  0  0  0  0  0
  -22.8029  -27.8762   17.1304 N   0  0  0  0  0  0  0  0  0  0  0  0
  -30.8030  -14.7074   22.0130 N   0  0  0  0  0  0  0  0  0  0  0  0
  -24.5030  -27.5730   13.9546 N   0  3  0  0  0  0  0  0  0  0  0  0
  -22.2910  -14.3972   20.8527 O   0  0  0  0  0  0  0  0  0  0  0  0
  -24.3796  -27.9496   22.3235 O   0  0  0  0  0  0  0  0  0  0  0  0
  -23.0554  -29.7450   19.2874 O   0  0  0  0  0  0  0  0  0  0  0  0
  -24.1821  -26.1726   16.3738 O   0  0  0  0  0  0  0  0  0  0  0  0
  -32.1122  -14.6587   20.1314 O   0  0  0  0  0  0  0  0  0  0  0  0
  -23.0835   -7.4613   24.2952 O   0  0  0  0  0  0  0  0  0  0  0  0
  -29.4277  -24.2398   20.2596 O   0  0  0  0  0  0  0  0  0  1  0  0
  -29.3702  -22.1630   22.1100 O   0  0  0  0  0  0  0  0  0  0  0  0
  -18.2731   -5.2606   22.7393 F   0  0  0  0  0  0  0  0  0  0  0  0
  -22.9337   -4.8340   23.4481 F   0  0  0  0  0  0  0  0  0  0  0  0
  1  2  1  0  0  0  0
  1  5  2  0  0  0  0
  2  6  2  0  0  0  0
  3  8  2  0  0  0  0
  3 16  1  0  0  0  0
  4  9  1  0  0  0  0
  4 16  2  0  0  0  0
  5 18  1  0  0  0  0
  6 20  1  0  0  0  0
  7 10  2  0  0  0  0
  7 19  1  0  0  0  0
  8 22  1  0  0  0  0
  9 22  2  0  0  0  0
 10 23  1  0  0  0  0
 11 12  2  0  0  0  0
 11 24  1  0  0  0  0
 12 26  1  0  0  0  0
 13 21  1  0  0  0  0
 13 23  2  0  0  0  0
 14 25  1  0  0  0  0
 14 30  2  0  0  0  0
 15 26  2  0  0  0  0
 15 27  1  0  0  0  0
 16 28  1  0  0  0  0
 17 28  1  0  0  0  0
 17 31  2  0  0  0  0
 17 32  1  0  0  0  0
 18 20  2  0  0  0  0
 18 37  1  0  0  0  0
 19 21  2  0  0  0  0
 19 38  1  0  0  0  0
 20 48  1  0  0  0  0
 21 39  1  0  0  0  0
 22 85  1  0  0  0  0
 23 86  1  0  0  0  0
 24 27  2  0  0  0  0
 24 85  1  0  0  0  0
 25 29  2  0  0  0  0
 25 87  1  0  0  0  0
 26 88  1  0  0  0  0
 27 89  1  0  0  0  0
 28 68  2  0  0  0  0
 29 49  1  0  0  0  0
 29 69  1  0  0  0  0
 30 69  1  0  0  0  0
 30 75  1  0  0  0  0
 31 70  1  0  0  0  0
 31 73  1  0  0  0  0
 32 74  1  0  0  0  0
 32 80  2  0  0  0  0
 33 50  1  0  0  0  0
 33 76  1  0  0  0  0
 33 81  2  0  0  0  0
 34 63  1  0  0  0  0
 34 71  1  0  0  0  0
 34 82  2  0  0  0  0
 35 64  1  0  0  0  0
 35 77  1  0  0  0  0
 35 83  2  0  0  0  0
 36 72  1  0  0  0  0
 36 78  1  0  0  0  0
 36 84  2  0  0  0  0
 37 40  1  0  0  0  0
 38 50  1  0  0  0  0
 39 71  1  0  0  0  0
 40 42  1  0  0  0  0
 41 45  1  0  0  0  0
 41 46  1  0  0  0  0
 42 48  1  0  0  0  0
 43 44  1  0  0  0  0
 43 49  1  0  0  0  0
 44 49  1  0  0  0  0
 45 51  1  0  0  0  0
 46 72  1  0  0  0  0
 47 51  1  0  0  0  0
 47 72  1  0  0  0  0
 48 76  1  0  0  0  0
 50 71  1  0  0  0  0
 51 70  1  0  0  0  0
 52 64  1  0  0  0  0
 53 65  1  0  0  0  0
 54 65  1  0  0  0  0
 55 66  1  0  0  0  0
 56 67  1  0  0  0  0
 57 67  1  0  0  0  0
 58 67  1  0  0  0  0
 59 79  1  0  0  0  0
 60 66  1  0  0  0  0
 60 75  1  0  0  0  0
 61 62  1  0  0  0  0
 61 86  1  0  0  0  0
 62 87  1  0  0  0  0
 63 67  1  0  0  0  0
 63 77  1  0  0  0  0
 64 79  1  0  0  0  0
 65 69  1  0  0  0  0
 66 78  1  0  0  0  0
 68 70  1  0  0  0  0
M  CHG  1  79   1
M  ISO  4  36 100  61 101  78 100  86 101
M  END
> <Batch ID>
0153

> <Smiles>
CNC(C)C(=O)NC(C(=O)N1Cc2cc([101O:1][101CH2:1]COc3cc(NCC(C)[100NH:0][100C:0](=O)N4CCCC(n5nc(-c6ccc(Oc7ccc(F)cc7F)cc6)c(C(N)=O)c5N)C4)n(C(C)C)c3C3CC3)ccc2CC1C(=O)NC1CCCc2ccccc21)C(C)(C)C

> <Shape>
0.303

> <Color>
0.146

> <Negative vol penalty>
0.000

$$$$

  -OEChem-04052321483D

 91101  0     1  0  0  0  0  0999 V2000
  -28.1675  -24.6177   16.8742 C   0  0  0  0  0  0  0  0  0  0  0  0
  -27.0254  -25.3246   17.2332 C   0  0  0  0  0  0  0  0  0  0  0  0
  -28.8181  -20.2037   22.6521 C   0  0  0  0  0  0  0  0  0  0  0  0
  -29.5776  -20.3365   20.3625 C   0  0  0  0  0  0  0  0  0  0  0  0
  -29.3038  -24.6822   17.6777 C   0  0  0  0  0  0  0  0  0  0  0  0
  -27.0232  -26.1056   18.3895 C   0  0  0  0  0  0  0  0  0  0  0  0
  -18.1915  -19.5076   22.5356 C   0  0  0  0  0  0  0  0  0  0  0  0
  -17.5245  -20.7064   22.2836 C   0  0  0  0  0  0  0  0  0  0  0  0
  -23.0667  -28.9216   19.1770 C   0  0  0  0  0  0  0  0  0  0  0  0
  -30.0512  -20.6873   23.0892 C   0  0  0  0  0  0  0  0  0  0  0  0
  -30.8107  -20.8202   20.7996 C   0  0  0  0  0  0  0  0  0  0  0  0
  -21.8311  -28.3970   19.5535 C   0  0  0  0  0  0  0  0  0  0  0  0
  -33.1683  -19.4767   23.5818 C   0  0  0  0  0  0  0  0  0  0  0  0
  -33.7686  -18.8345   24.6647 C   0  0  0  0  0  0  0  0  0  0  0  0
  -19.3693  -19.7215   20.4370 C   0  0  0  0  0  0  0  0  0  0  0  0
  -22.2202  -29.1236   21.8206 C   0  0  0  0  0  0  0  0  0  0  0  0
  -33.7270  -20.9020   25.9139 C   0  0  0  0  0  0  0  0  0  0  0  0
  -28.5813  -20.0283   21.2887 C   0  0  0  0  0  0  0  0  0  0  0  0
  -26.1680  -20.2837   20.5022 C   0  0  0  0  0  0  0  0  0  0  0  0
  -19.1139  -19.0151   21.6124 C   0  0  0  0  0  0  0  0  0  0  0  0
  -29.3106  -25.4546   18.8508 C   0  0  0  0  0  0  0  0  0  0  0  0
  -23.8946  -29.5425   20.1233 C   0  0  0  0  0  0  0  0  0  0  0  0
  -28.1681  -26.2026   19.2010 C   0  0  0  0  0  0  0  0  0  0  0  0
  -17.7799  -21.4128   21.1082 C   0  0  0  0  0  0  0  0  0  0  0  0
  -23.4647  -29.6575   21.4530 C   0  0  0  0  0  0  0  0  0  0  0  0
  -18.7023  -20.9204   20.1849 C   0  0  0  0  0  0  0  0  0  0  0  0
  -31.0476  -20.9956   22.1630 C   0  0  0  0  0  0  0  0  0  0  0  0
  -21.4089  -28.4954   20.8761 C   0  0  0  0  0  0  0  0  0  0  0  0
  -32.8475  -20.8317   23.6648 C   0  0  0  0  0  0  0  0  0  0  0  0
  -34.0479  -19.5471   25.8308 C   0  0  0  0  0  0  0  0  0  0  0  0
  -33.1268  -21.5443   24.8309 C   0  0  0  0  0  0  0  0  0  0  0  0
  -27.3078  -19.5282   20.8366 C   0  0  0  0  0  0  0  0  0  0  0  0
  -25.2313  -19.3482   20.1363 C   0  0  0  0  0  0  0  0  0  0  0  0
  -25.9735  -21.7041   20.5205 C   0  0  0  0  0  0  0  0  0  0  0  0
  -26.8009  -28.9737   21.2780 C   0  0  0  0  0  0  0  0  0  0  0  0
  -26.3337  -31.8096   22.7821 C   0  0  0  0  0  0  0  0  0  0  0  0
  -24.1316  -34.1167   23.9964 C   0  0  0  0  0  0  0  0  0  0  0  0
  -22.6002  -14.5974   20.7859 C   0  0  0  0  0  0  0  0  0  0  0  0
  -30.5704  -25.4949   19.6795 C   0  0  0  0  0  0  0  0  0  0  0  0
  -25.2128  -30.1270   19.6956 C   0  0  0  0  0  0  0  0  0  0  0  0
  -24.3072  -30.3327   22.5032 C   0  0  0  0  0  0  0  0  0  0  0  0
  -30.3298  -25.9855   21.1035 C   0  0  0  0  0  0  0  0  0  0  0  0
  -25.6789  -14.3998   19.2257 C   0  0  0  0  0  0  0  0  0  0  0  0
  -29.5197  -27.2731   21.0797 C   0  0  0  0  0  0  0  0  0  0  0  0
  -26.2974  -15.7762   19.4705 C   0  0  0  0  0  0  0  0  0  0  0  0
  -19.5127  -16.6370   20.8352 C   0  0  0  0  0  0  0  0  0  0  0  0
  -21.3606  -17.9115   22.0018 C   0  0  0  0  0  0  0  0  0  0  0  0
  -16.1174  -24.4861   21.6903 C   0  0  0  0  0  0  0  0  0  0  0  0
  -24.9549  -13.8968   20.4695 C   0  0  0  0  0  0  0  0  0  0  0  0
  -20.2679  -15.3382   21.1076 C   0  0  0  0  0  0  0  0  0  0  0  0
  -22.0728  -16.5849   22.2494 C   0  0  0  0  0  0  0  0  0  0  0  0
  -24.5067  -16.2090   21.2227 C   0  0  0  0  0  0  0  0  0  0  0  0
  -19.8392  -17.7111   21.8870 C   0  0  0  0  0  0  0  0  0  0  0  0
  -17.0256  -22.7461   20.8475 C   0  0  1  0  0  0  0  0  0  0  0  0
  -28.1324  -27.0343   20.4703 C   0  0  1  0  0  0  0  0  0  0  0  0
  -26.1998  -30.2821   20.8485 C   0  0  1  0  0  0  0  0  0  0  0  0
  -25.2440  -16.7702   19.9904 C   0  0  1  0  0  0  0  0  0  0  0  0
  -15.7201  -22.9979   21.6470 C   0  0  2  0  0  0  0  0  0  0  0  0
  -17.5847  -24.0296   21.5308 C   0  0  1  0  0  0  0  0  0  0  0  0
  -18.9898  -21.6612   18.9210 C   0  0  0  0  0  0  0  0  0  0  0  0
  -24.0477  -36.3132   25.2072 C   0  0  0  0  0  0  0  0  0  0  0  0
  -27.0067  -30.3905   25.3980 C   0  0  0  0  0  0  0  0  0  0  0  0
  -26.0005  -32.3263   26.6261 C   0  0  0  0  0  0  0  0  0  0  0  0
  -27.9937  -32.6768   25.1676 C   0  0  0  0  0  0  0  0  0  0  0  0
  -22.7536  -35.4417   21.7371 C   0  0  0  0  0  0  0  0  0  0  0  0
  -19.7263  -26.8531   20.5184 C   0  0  0  0  0  0  0  0  0  1  0  0
  -18.8612  -26.0000   21.4258 C   0  0  0  0  0  0  0  0  0  0  0  0
  -25.7428  -32.2335   24.1050 C   0  0  1  0  0  0  0  0  0  0  0  0
  -24.0720  -35.6266   23.8505 C   0  0  2  0  0  0  0  0  0  0  0  0
  -26.6707  -31.8923   25.3050 C   0  0  0  0  0  0  0  0  0  0  0  0
  -27.1149  -18.2140   20.6959 N   0  0  0  0  0  0  0  0  0  0  0  0
  -25.8430  -18.1365   20.2691 N   0  0  0  0  0  0  0  0  0  0  0  0
  -25.5908  -30.8828   22.0370 N   0  0  0  0  0  0  0  0  0  0  0  0
  -23.9683  -14.8712   20.9352 N   0  0  0  0  0  0  0  0  0  0  0  0
  -21.7041  -15.5756   21.2474 N   0  0  0  0  0  0  0  0  0  0  0  0
  -23.9522  -19.4522   19.7173 N   0  0  0  0  0  0  0  0  0  0  0  0
  -27.0402  -22.5194   20.9224 N   0  0  0  0  0  0  0  0  0  0  0  0
  -27.4776  -28.3087   20.2734 N   0  0  0  0  0  0  0  0  0  0  0  0
  -25.4298  -33.6526   23.9763 N   0  0  0  0  0  0  0  0  0  0  0  0
  -14.5041  -22.7411   20.8661 N   0  3  0  0  0  0  0  0  0  0  0  0
  -22.8484  -36.0264   23.0994 N   0  3  0  0  0  0  0  0  0  0  0  0
  -24.8807  -22.2336   20.2059 O   0  0  0  0  0  0  0  0  0  0  0  0
  -26.6623  -28.5962   22.4356 O   0  0  0  0  0  0  0  0  0  0  0  0
  -27.4111  -32.2886   22.4197 O   0  0  0  0  0  0  0  0  0  0  0  0
  -23.1272  -33.4193   24.1199 O   0  0  0  0  0  0  0  0  0  0  0  0
  -22.2013  -13.5472   20.2676 O   0  0  0  0  0  0  0  0  0  0  0  0
  -32.2509  -21.4677   22.5891 O   0  0  0  0  0  0  0  0  0  0  0  0
  -20.1954  -27.9801   21.2489 O   0  0  0  0  0  0  0  0  0  1  0  0
  -18.4157  -24.8655   20.7068 O   0  0  0  0  0  0  0  0  0  0  0  0
  -34.6229  -18.9298   26.8712 F   0  0  0  0  0  0  0  0  0  0  0  0
  -32.8198  -22.8459   24.9171 F   0  0  0  0  0  0  0  0  0  0  0  0
  1  2  1  0  0  0  0
  1  5  2  0  0  0  0
  2  6  2  0  0  0  0
  3 10  2  0  0  0  0
  3 18  1  0  0  0  0
  4 11  1  0  0  0  0
  4 18  2  0  0  0  0
  5 21  1  0  0  0  0
  6 23  1  0  0  0  0
  7  8  2  0  0  0  0
  7 20  1  0  0  0  0
  8 24  1  0  0  0  0
  9 12  2  0  0  0  0
  9 22  1  0  0  0  0
 10 27  1  0  0  0  0
 11 27  2  0  0  0  0
 12 28  1  0  0  0  0
 13 14  2  0  0  0  0
 13 29  1  0  0  0  0
 14 30  1  0  0  0  0
 15 20  2  0  0  0  0
 15 26  1  0  0  0  0
 16 25  1  0  0  0  0
 16 28  2  0  0  0  0
 17 30  2  0  0  0  0
 17 31  1  0  0  0  0
 18 32  1  0  0  0  0
 19 32  1  0  0  0  0
 19 33  2  0  0  0  0
 19 34  1  0  0  0  0
 20 53  1  0  0  0  0
 21 23  2  0  0  0  0
 21 39  1  0  0  0  0
 22 25  2  0  0  0  0
 22 40  1  0  0  0  0
 23 55  1  0  0  0  0
 24 26  2  0  0  0  0
 24 54  1  0  0  0  0
 25 41  1  0  0  0  0
 26 60  1  0  0  0  0
 27 87  1  0  0  0  0
 28 88  1  0  0  0  0
 29 31  2  0  0  0  0
 29 87  1  0  0  0  0
 30 90  1  0  0  0  0
 31 91  1  0  0  0  0
 32 71  2  0  0  0  0
 33 72  1  0  0  0  0
 33 76  1  0  0  0  0
 34 77  1  0  0  0  0
 34 82  2  0  0  0  0
 35 56  1  0  0  0  0
 35 78  1  0  0  0  0
 35 83  2  0  0  0  0
 36 68  1  0  0  0  0
 36 73  1  0  0  0  0
 36 84  2  0  0  0  0
 37 69  1  0  0  0  0
 37 79  1  0  0  0  0
 37 85  2  0  0  0  0
 38 74  1  0  0  0  0
 38 75  1  0  0  0  0
 38 86  2  0  0  0  0
 39 42  1  0  0  0  0
 40 56  1  0  0  0  0
 41 73  1  0  0  0  0
 42 44  1  0  0  0  0
 43 45  1  0  0  0  0
 43 49  1  0  0  0  0
 44 55  1  0  0  0  0
 45 57  1  0  0  0  0
 46 50  1  0  0  0  0
 46 53  1  0  0  0  0
 47 51  1  0  0  0  0
 47 53  1  0  0  0  0
 48 58  1  0  0  0  0
 48 59  1  0  0  0  0
 49 74  1  0  0  0  0
 50 75  1  0  0  0  0
 51 75  1  0  0  0  0
 52 57  1  0  0  0  0
 52 74  1  0  0  0  0
 54 58  1  0  0  0  0
 54 59  1  0  0  0  0
 55 78  1  0  0  0  0
 56 73  1  0  0  0  0
 57 72  1  0  0  0  0
 58 80  1  0  0  0  0
 59 89  1  0  0  0  0
 61 69  1  0  0  0  0
 62 70  1  0  0  0  0
 63 70  1  0  0  0  0
 64 70  1  0  0  0  0
 65 81  1  0  0  0  0
 66 67  1  0  0  0  0
 66 88  1  0  0  0  0
 67 89  1  0  0  0  0
 68 70  1  0  0  0  0
 68 79  1  0  0  0  0
 69 81  1  0  0  0  0
 71 72  1  0  0  0  0
M  CHG  2  80   1  81   1
M  ISO  4  38 100  66 101  75 100  88 101
M  END
> <Batch ID>
0153

> <Smiles>
CNC(C)C(=O)NC(C(=O)N1Cc2cc([101O:1][101CH2:1]COC3CC(N)C3c3ccc(C4CC[100N:0]([100C:0](=O)N5CCCC(n6nc(-c7ccc(Oc8ccc(F)cc8F)cc7)c(C(N)=O)c6N)C5)CC4)cc3C)ccc2CC1C(=O)NC1CCCc2ccccc21)C(C)(C)C

> <Shape>
0.237

> <Color>
0.055

> <Negative vol penalty>
0.000

$$$$

  -OEChem-04052321483D

 88 97  0     1  0  0  0  0  0999 V2000
  -19.3919  -14.2921   18.1814 C   0  0  0  0  0  0  0  0  0  0  0  0
  -20.2281  -15.4035   18.1506 C   0  0  0  0  0  0  0  0  0  0  0  0
  -23.0437  -28.0339   21.8416 C   0  0  0  0  0  0  0  0  0  0  0  0
  -22.0134  -30.1211   21.1943 C   0  0  0  0  0  0  0  0  0  0  0  0
  -19.7208  -13.1955   18.9771 C   0  0  0  0  0  0  0  0  0  0  0  0
  -21.3933  -15.4193   18.9165 C   0  0  0  0  0  0  0  0  0  0  0  0
  -26.7304  -18.0379   17.4453 C   0  0  0  0  0  0  0  0  0  0  0  0
  -29.2057  -25.9240   23.0295 C   0  0  0  0  0  0  0  0  0  0  0  0
  -21.7821  -27.4664   22.0199 C   0  0  0  0  0  0  0  0  0  0  0  0
  -20.7517  -29.5536   21.3725 C   0  0  0  0  0  0  0  0  0  0  0  0
  -27.3048  -19.2586   17.7971 C   0  0  0  0  0  0  0  0  0  0  0  0
  -18.6922  -28.8192   23.9513 C   0  0  0  0  0  0  0  0  0  0  0  0
  -17.7353  -29.5686   24.6356 C   0  0  0  0  0  0  0  0  0  0  0  0
  -29.1458  -24.7253   22.3275 C   0  0  0  0  0  0  0  0  0  0  0  0
  -28.5353  -18.1647   19.5601 C   0  0  0  0  0  0  0  0  0  0  0  0
  -16.3023  -29.5144   22.6912 C   0  0  0  0  0  0  0  0  0  0  0  0
  -23.1594  -29.3613   21.4288 C   0  0  0  0  0  0  0  0  0  0  0  0
  -25.2300  -29.9615   20.0650 C   0  0  0  0  0  0  0  0  0  0  0  0
  -20.8956  -13.1940   19.7457 C   0  0  0  0  0  0  0  0  0  0  0  0
  -27.0464  -16.8713   18.1565 C   0  0  0  0  0  0  0  0  0  0  0  0
  -21.7376  -14.3222   19.7243 C   0  0  0  0  0  0  0  0  0  0  0  0
  -29.5866  -25.9218   24.3668 C   0  0  0  0  0  0  0  0  0  0  0  0
  -27.9656  -16.9300   19.2138 C   0  0  0  0  0  0  0  0  0  0  0  0
  -20.6361  -28.2262   21.7854 C   0  0  0  0  0  0  0  0  0  0  0  0
  -28.2052  -19.3226   18.8564 C   0  0  0  0  0  0  0  0  0  0  0  0
  -18.4542  -28.4174   22.6369 C   0  0  0  0  0  0  0  0  0  0  0  0
  -16.5403  -29.9162   24.0056 C   0  0  0  0  0  0  0  0  0  0  0  0
  -17.2592  -28.7650   22.0069 C   0  0  0  0  0  0  0  0  0  0  0  0
  -24.4624  -29.9483   21.2450 C   0  0  0  0  0  0  0  0  0  0  0  0
  -29.4740  -23.5610   23.0031 C   0  0  0  0  0  0  0  0  0  0  0  0
  -29.8948  -24.7038   24.9511 C   0  0  0  0  0  0  0  0  0  0  0  0
  -26.3766  -30.6350   20.4088 C   0  0  0  0  0  0  0  0  0  0  0  0
  -24.9332  -29.4139   18.7736 C   0  0  0  0  0  0  0  0  0  0  0  0
  -25.3967  -14.7997   19.9144 C   0  0  0  0  0  0  0  0  0  0  0  0
  -28.2095  -13.1845   19.9487 C   0  0  0  0  0  0  0  0  0  0  0  0
  -29.0534  -22.1718   20.9470 C   0  0  0  0  0  0  0  0  0  0  0  0
  -31.6088  -13.2798   19.6617 C   0  0  0  0  0  0  0  0  0  0  0  0
  -29.2894  -31.5034   25.4206 C   0  0  0  0  0  0  0  0  0  0  0  0
  -21.1850  -12.0047   20.6269 C   0  0  0  0  0  0  0  0  0  0  0  0
  -26.4387  -15.5576   17.7475 C   0  0  0  0  0  0  0  0  0  0  0  0
  -28.3537  -15.7029   19.9961 C   0  0  0  0  0  0  0  0  0  0  0  0
  -22.6288  -11.9485   21.1193 C   0  0  0  0  0  0  0  0  0  0  0  0
  -28.0094  -33.9929   23.3918 C   0  0  0  0  0  0  0  0  0  0  0  0
  -23.0702  -13.3143   21.6358 C   0  0  0  0  0  0  0  0  0  0  0  0
  -27.0252  -33.2516   22.4870 C   0  0  0  0  0  0  0  0  0  0  0  0
  -30.6966  -28.1912   24.5580 C   0  0  0  0  0  0  0  0  0  0  0  0
  -28.2786  -27.9054   25.2453 C   0  0  0  0  0  0  0  0  0  0  0  0
  -27.9240  -33.4827   24.8260 C   0  0  0  0  0  0  0  0  0  0  0  0
  -30.7373  -29.5064   25.3325 C   0  0  0  0  0  0  0  0  0  0  0  0
  -28.3742  -29.2252   26.0052 C   0  0  0  0  0  0  0  0  0  0  0  0
  -27.1668  -31.2576   24.0580 C   0  0  0  0  0  0  0  0  0  0  0  0
  -29.6543  -27.2231   25.1439 C   0  0  0  0  0  0  0  0  0  0  0  0
  -23.0229  -14.3670   20.5218 C   0  0  1  0  0  0  0  0  0  0  0  0
  -26.4401  -14.5236   18.8691 C   0  0  1  0  0  0  0  0  0  0  0  0
  -27.2194  -31.7286   22.5908 C   0  0  1  0  0  0  0  0  0  0  0  0
  -33.6374  -11.8070   19.7758 C   0  0  0  0  0  0  0  0  0  0  0  0
  -28.0031  -13.1399   22.9926 C   0  0  0  0  0  0  0  0  0  0  0  0
  -30.4317  -12.5377   23.0789 C   0  0  0  0  0  0  0  0  0  0  0  0
  -28.8067  -11.0038   21.9702 C   0  0  0  0  0  0  0  0  0  0  0  0
  -32.3401  -13.8728   16.8559 C   0  0  0  0  0  0  0  0  0  0  0  0
  -30.5798  -23.3781   26.8029 C   0  0  0  0  0  0  0  0  0  0  0  0
  -29.1173  -20.7051   20.5631 C   0  0  0  0  0  0  0  0  0  1  0  0
  -29.4280  -13.1783   20.8399 C   0  0  1  0  0  0  0  0  0  0  0  0
  -32.5776  -12.4180   18.8723 C   0  0  2  0  0  0  0  0  0  0  0  0
  -29.1588  -12.4886   22.2071 C   0  0  0  0  0  0  0  0  0  0  0  0
  -25.0701  -30.5644   22.2624 N   0  0  0  0  0  0  0  0  0  0  0  0
  -29.8483  -23.5192   24.3014 N   0  0  0  0  0  0  0  0  0  0  0  0
  -26.2318  -30.9710   21.7227 N   0  0  0  0  0  0  0  0  0  0  0  0
  -27.7277  -14.4431   19.5620 N   0  0  0  0  0  0  0  0  0  0  0  0
  -28.1070  -32.0325   24.8812 N   0  0  0  0  0  0  0  0  0  0  0  0
  -29.4068  -30.1039   25.4392 N   0  0  0  0  0  0  0  0  0  0  0  0
  -27.4844  -30.9667   19.7123 N   0  0  0  0  0  0  0  0  0  0  0  0
  -23.7103  -28.7533   18.5930 N   0  0  0  0  0  0  0  0  0  0  0  0
  -29.4124  -22.3595   22.2871 N   0  0  0  0  0  0  0  0  0  0  0  0
  -24.1672  -14.2286   19.6467 N   0  0  0  0  0  0  0  0  0  0  0  0
  -30.4995  -12.5655   20.0622 N   0  0  0  0  0  0  0  0  0  0  0  0
  -33.2623  -13.2316   17.8282 N   0  3  0  0  0  0  0  0  0  0  0  0
  -25.7358  -29.4932   17.8129 O   0  0  0  0  0  0  0  0  0  0  0  0
  -25.6860  -15.4793   20.8922 O   0  0  0  0  0  0  0  0  0  0  0  0
  -27.7081  -12.1119   19.6025 O   0  0  0  0  0  0  0  0  0  0  0  0
  -28.7217  -23.0335   20.1395 O   0  0  0  0  0  0  0  0  0  0  0  0
  -31.8172  -14.4668   19.9025 O   0  0  0  0  0  0  0  0  0  0  0  0
  -30.1888  -32.2341   25.8543 O   0  0  0  0  0  0  0  0  0  0  0  0
  -19.4048  -27.6727   21.9591 O   0  0  0  0  0  0  0  0  0  0  0  0
  -28.7726  -20.5253   19.2059 O   0  0  0  0  0  0  0  0  0  1  0  0
  -30.2779  -24.6605   26.2665 O   0  0  0  0  0  0  0  0  0  0  0  0
  -15.6209  -30.6345   24.6634 F   0  0  0  0  0  0  0  0  0  0  0  0
  -17.0244  -28.3808   20.7447 F   0  0  0  0  0  0  0  0  0  0  0  0
  1  2  1  0  0  0  0
  1  5  2  0  0  0  0
  2  6  2  0  0  0  0
  3  9  2  0  0  0  0
  3 17  1  0  0  0  0
  4 10  1  0  0  0  0
  4 17  2  0  0  0  0
  5 19  1  0  0  0  0
  6 21  1  0  0  0  0
  7 11  2  0  0  0  0
  7 20  1  0  0  0  0
  8 14  2  0  0  0  0
  8 22  1  0  0  0  0
  9 24  1  0  0  0  0
 10 24  2  0  0  0  0
 11 25  1  0  0  0  0
 12 13  2  0  0  0  0
 12 26  1  0  0  0  0
 13 27  1  0  0  0  0
 14 30  1  0  0  0  0
 15 23  1  0  0  0  0
 15 25  2  0  0  0  0
 16 27  2  0  0  0  0
 16 28  1  0  0  0  0
 17 29  1  0  0  0  0
 18 29  1  0  0  0  0
 18 32  2  0  0  0  0
 18 33  1  0  0  0  0
 19 21  2  0  0  0  0
 19 39  1  0  0  0  0
 20 23  2  0  0  0  0
 20 40  1  0  0  0  0
 21 53  1  0  0  0  0
 22 31  2  0  0  0  0
 22 52  1  0  0  0  0
 23 41  1  0  0  0  0
 24 84  1  0  0  0  0
 25 85  1  0  0  0  0
 26 28  2  0  0  0  0
 26 84  1  0  0  0  0
 27 87  1  0  0  0  0
 28 88  1  0  0  0  0
 29 66  2  0  0  0  0
 30 67  2  0  0  0  0
 30 74  1  0  0  0  0
 31 67  1  0  0  0  0
 31 86  1  0  0  0  0
 32 68  1  0  0  0  0
 32 72  1  0  0  0  0
 33 73  1  0  0  0  0
 33 78  2  0  0  0  0
 34 54  1  0  0  0  0
 34 75  1  0  0  0  0
 34 79  2  0  0  0  0
 35 63  1  0  0  0  0
 35 69  1  0  0  0  0
 35 80  2  0  0  0  0
 36 62  1  0  0  0  0
 36 74  1  0  0  0  0
 36 81  2  0  0  0  0
 37 64  1  0  0  0  0
 37 76  1  0  0  0  0
 37 82  2  0  0  0  0
 38 70  1  0  0  0  0
 38 71  1  0  0  0  0
 38 83  2  0  0  0  0
 39 42  1  0  0  0  0
 40 54  1  0  0  0  0
 41 69  1  0  0  0  0
 42 44  1  0  0  0  0
 43 45  1  0  0  0  0
 43 48  1  0  0  0  0
 44 53  1  0  0  0  0
 45 55  1  0  0  0  0
 46 49  1  0  0  0  0
 46 52  1  0  0  0  0
 47 50  1  0  0  0  0
 47 52  1  0  0  0  0
 48 70  1  0  0  0  0
 49 71  1  0  0  0  0
 50 71  1  0  0  0  0
 51 55  1  0  0  0  0
 51 70  1  0  0  0  0
 53 75  1  0  0  0  0
 54 69  1  0  0  0  0
 55 68  1  0  0  0  0
 56 64  1  0  0  0  0
 57 65  1  0  0  0  0
 58 65  1  0  0  0  0
 59 65  1  0  0  0  0
 60 77  1  0  0  0  0
 61 86  1  0  0  0  0
 62 85  1  0  0  0  0
 63 65  1  0  0  0  0
 63 76  1  0  0  0  0
 64 77  1  0  0  0  0
 66 68  1  0  0  0  0
M  CHG  1  77   1
M  ISO  4  38 100  62 101  71 100  85 101
M  END
> <Batch ID>
0153

> <Smiles>
CNC(C)C(=O)NC(C(=O)N1Cc2cc([101O:1][101CH2:1]C(=O)Nc3ccc(C4CC[100N:0]([100C:0](=O)N5CCCC(n6nc(-c7ccc(Oc8ccc(F)cc8F)cc7)c(C(N)=O)c6N)C5)CC4)c(OC)n3)ccc2CC1C(=O)NC1CCCc2ccccc21)C(C)(C)C

> <Shape>
0.276

> <Color>
0.066

> <Negative vol penalty>
0.000

$$$$

  -OEChem-04052321483D

 88 97  0     1  0  0  0  0  0999 V2000
  -17.8147  -10.0716   17.3908 C   0  0  0  0  0  0  0  0  0  0  0  0
  -18.5810  -11.1189   17.8919 C   0  0  0  0  0  0  0  0  0  0  0  0
  -23.1977   -9.8536   19.9555 C   0  0  0  0  0  0  0  0  0  0  0  0
  -23.9055   -9.9363   22.2641 C   0  0  0  0  0  0  0  0  0  0  0  0
  -17.5022  -10.0255   16.0328 C   0  0  0  0  0  0  0  0  0  0  0  0
  -19.0363  -12.1204   17.0350 C   0  0  0  0  0  0  0  0  0  0  0  0
  -27.5297  -17.7518   22.1436 C   0  0  0  0  0  0  0  0  0  0  0  0
  -18.4196  -16.7601   18.9681 C   0  0  0  0  0  0  0  0  0  0  0  0
  -28.8306  -17.3030   21.9159 C   0  0  0  0  0  0  0  0  0  0  0  0
  -22.5043   -8.6705   20.2105 C   0  0  0  0  0  0  0  0  0  0  0  0
  -23.2120   -8.7532   22.5191 C   0  0  0  0  0  0  0  0  0  0  0  0
  -19.3383  -17.1761   19.9307 C   0  0  0  0  0  0  0  0  0  0  0  0
  -19.5660   -7.7580   21.6130 C   0  0  0  0  0  0  0  0  0  0  0  0
  -18.2739   -7.6408   21.1010 C   0  0  0  0  0  0  0  0  0  0  0  0
  -20.5213  -18.4366   18.2481 C   0  0  0  0  0  0  0  0  0  0  0  0
  -29.4224  -17.8648   24.1899 C   0  0  0  0  0  0  0  0  0  0  0  0
  -18.9547   -5.7045   19.8264 C   0  0  0  0  0  0  0  0  0  0  0  0
  -23.8983  -10.4865   20.9823 C   0  0  0  0  0  0  0  0  0  0  0  0
  -24.1219  -13.0227   20.8237 C   0  0  0  0  0  0  0  0  0  0  0  0
  -17.9457  -11.0320   15.1605 C   0  0  0  0  0  0  0  0  0  0  0  0
  -18.5513  -17.1711   17.6339 C   0  0  0  0  0  0  0  0  0  0  0  0
  -18.7306  -12.0870   15.6638 C   0  0  0  0  0  0  0  0  0  0  0  0
  -27.1751  -18.2571   23.3944 C   0  0  0  0  0  0  0  0  0  0  0  0
  -19.6014  -18.0265   17.2710 C   0  0  0  0  0  0  0  0  0  0  0  0
  -29.7769  -17.3595   22.9390 C   0  0  0  0  0  0  0  0  0  0  0  0
  -28.1215  -18.3136   24.4176 C   0  0  0  0  0  0  0  0  0  0  0  0
  -22.5114   -8.1203   21.4923 C   0  0  0  0  0  0  0  0  0  0  0  0
  -20.3910  -18.0121   19.5703 C   0  0  0  0  0  0  0  0  0  0  0  0
  -20.5525   -6.8486   21.2317 C   0  0  0  0  0  0  0  0  0  0  0  0
  -17.9682   -6.6140   20.2077 C   0  0  0  0  0  0  0  0  0  0  0  0
  -20.2469   -5.8218   20.3384 C   0  0  0  0  0  0  0  0  0  0  0  0
  -24.6152  -11.7084   20.7194 C   0  0  0  0  0  0  0  0  0  0  0  0
  -25.1849  -13.8175   20.4702 C   0  0  0  0  0  0  0  0  0  0  0  0
  -22.8193  -13.4840   21.2061 C   0  0  0  0  0  0  0  0  0  0  0  0
  -19.0165  -15.6830   14.8639 C   0  0  0  0  0  0  0  0  0  0  0  0
  -18.5792  -18.6549   13.6395 C   0  0  0  0  0  0  0  0  0  0  0  0
  -18.6870  -22.0317   14.1215 C   0  0  0  0  0  0  0  0  0  0  0  0
  -30.9481  -14.0532   20.9643 C   0  0  0  0  0  0  0  0  0  0  0  0
  -17.6225  -10.9142   13.6920 C   0  0  0  0  0  0  0  0  0  0  0  0
  -17.5365  -16.7351   16.6128 C   0  0  0  0  0  0  0  0  0  0  0  0
  -19.7756  -18.5124   15.8561 C   0  0  0  0  0  0  0  0  0  0  0  0
  -17.8282  -12.2132   12.9170 C   0  0  0  0  0  0  0  0  0  0  0  0
  -29.3607  -13.1185   17.9175 C   0  0  0  0  0  0  0  0  0  0  0  0
  -19.1680  -12.8453   13.2806 C   0  0  0  0  0  0  0  0  0  0  0  0
  -27.9293  -12.7818   18.3391 C   0  0  0  0  0  0  0  0  0  0  0  0
  -25.4518  -19.8953   22.6637 C   0  0  0  0  0  0  0  0  0  0  0  0
  -24.7830  -17.5756   23.4109 C   0  0  0  0  0  0  0  0  0  0  0  0
  -30.3758  -12.6918   18.9755 C   0  0  0  0  0  0  0  0  0  0  0  0
  -28.6786  -12.8694   20.7536 C   0  0  0  0  0  0  0  0  0  0  0  0
  -24.0043  -20.3480   22.8060 C   0  0  0  0  0  0  0  0  0  0  0  0
  -23.3406  -18.0462   23.5478 C   0  0  0  0  0  0  0  0  0  0  0  0
  -25.7751  -18.7319   23.6151 C   0  0  0  0  0  0  0  0  0  0  0  0
  -19.2221  -13.2052   14.7703 C   0  0  1  0  0  0  0  0  0  0  0  0
  -18.0627  -16.7995   15.1823 C   0  0  1  0  0  0  0  0  0  0  0  0
  -27.6144  -13.3314   19.7434 C   0  0  2  0  0  0  0  0  0  0  0  0
  -27.7651  -18.8510   25.7648 C   0  0  0  0  0  0  0  0  0  0  0  0
  -18.3113  -24.2053   12.9251 C   0  0  0  0  0  0  0  0  0  0  0  0
  -21.2382  -18.3101   12.1832 C   0  0  0  0  0  0  0  0  0  0  0  0
  -21.2699  -20.7842   11.8007 C   0  0  0  0  0  0  0  0  0  0  0  0
  -19.4395  -19.3967   10.8274 C   0  0  0  0  0  0  0  0  0  0  0  0
  -16.5368  -22.8243   15.9943 C   0  0  0  0  0  0  0  0  0  0  0  0
  -31.1678  -16.8800   22.6954 C   0  0  0  0  0  0  0  0  0  0  0  0
  -31.3690  -15.3928   23.0106 C   0  0  0  0  0  0  0  0  0  0  0  0
  -21.6403  -19.5902   22.5785 C   0  0  0  0  0  0  0  0  0  0  0  0
  -20.8166  -18.5481   21.8479 C   0  0  0  0  0  0  0  0  0  1  0  0
  -19.4809  -19.8225   13.3192 C   0  0  1  0  0  0  0  0  0  0  0  0
  -17.6876  -23.1277   13.7983 C   0  0  2  0  0  0  0  0  0  0  0  0
  -20.3552  -19.5678   12.0590 C   0  0  0  0  0  0  0  0  0  0  0  0
  -25.8922  -11.6663   20.3299 N   0  0  0  0  0  0  0  0  0  0  0  0
  -26.2102  -12.9641   20.1863 N   0  0  0  0  0  0  0  0  0  0  0  0
  -18.7612  -18.0535   14.8929 N   0  0  0  0  0  0  0  0  0  0  0  0
  -30.0206  -13.2474   20.2835 N   0  0  0  0  0  0  0  0  0  0  0  0
  -25.3331  -15.1561   20.3775 N   0  0  0  0  0  0  0  0  0  0  0  0
  -21.8447  -12.5331   21.5382 N   0  0  0  0  0  0  0  0  0  0  0  0
  -18.4783  -14.4204   15.0240 N   0  0  0  0  0  0  0  0  0  0  0  0
  -18.6143  -20.9919   13.2188 N   0  0  0  0  0  0  0  0  0  0  0  0
  -30.5291  -14.5445   22.1947 N   0  0  0  0  0  0  0  0  0  0  0  0
  -23.0666  -19.1780   22.5754 N   0  3  0  0  0  0  0  0  0  0  0  0
  -17.1949  -23.7655   15.0519 N   0  3  0  0  0  0  0  0  0  0  0  0
  -22.5235  -14.7026   21.2361 O   0  0  0  0  0  0  0  0  0  0  0  0
  -20.1559  -15.9475   14.4985 O   0  0  0  0  0  0  0  0  0  0  0  0
  -17.7393  -18.2943   12.8111 O   0  0  0  0  0  0  0  0  0  0  0  0
  -19.4577  -22.0935   15.0768 O   0  0  0  0  0  0  0  0  0  0  0  0
  -32.0646  -14.3198   20.5069 O   0  0  0  0  0  0  0  0  0  0  0  0
  -21.8347   -6.9659   21.7415 O   0  0  0  0  0  0  0  0  0  0  0  0
  -21.2896  -18.4192   20.5077 O   0  0  0  0  0  0  0  0  0  1  0  0
  -16.7269   -6.5005   19.7173 F   0  0  0  0  0  0  0  0  0  0  0  0
  -21.1901   -4.9444   19.9693 F   0  0  0  0  0  0  0  0  0  0  0  0
  1  2  1  0  0  0  0
  1  5  2  0  0  0  0
  2  6  2  0  0  0  0
  3 10  2  0  0  0  0
  3 18  1  0  0  0  0
  4 11  1  0  0  0  0
  4 18  2  0  0  0  0
  5 20  1  0  0  0  0
  6 22  1  0  0  0  0
  7  9  2  0  0  0  0
  7 23  1  0  0  0  0
  8 12  2  0  0  0  0
  8 21  1  0  0  0  0
  9 25  1  0  0  0  0
 10 27  1  0  0  0  0
 11 27  2  0  0  0  0
 12 28  1  0  0  0  0
 13 14  2  0  0  0  0
 13 29  1  0  0  0  0
 14 30  1  0  0  0  0
 15 24  1  0  0  0  0
 15 28  2  0  0  0  0
 16 25  2  0  0  0  0
 16 26  1  0  0  0  0
 17 30  2  0  0  0  0
 17 31  1  0  0  0  0
 18 32  1  0  0  0  0
 19 32  1  0  0  0  0
 19 33  2  0  0  0  0
 19 34  1  0  0  0  0
 20 22  2  0  0  0  0
 20 39  1  0  0  0  0
 21 24  2  0  0  0  0
 21 40  1  0  0  0  0
 22 53  1  0  0  0  0
 23 26  2  0  0  0  0
 23 52  1  0  0  0  0
 24 41  1  0  0  0  0
 25 62  1  0  0  0  0
 26 56  1  0  0  0  0
 27 85  1  0  0  0  0
 28 86  1  0  0  0  0
 29 31  2  0  0  0  0
 29 85  1  0  0  0  0
 30 87  1  0  0  0  0
 31 88  1  0  0  0  0
 32 69  2  0  0  0  0
 33 70  1  0  0  0  0
 33 73  1  0  0  0  0
 34 74  1  0  0  0  0
 34 80  2  0  0  0  0
 35 54  1  0  0  0  0
 35 75  1  0  0  0  0
 35 81  2  0  0  0  0
 36 66  1  0  0  0  0
 36 71  1  0  0  0  0
 36 82  2  0  0  0  0
 37 67  1  0  0  0  0
 37 76  1  0  0  0  0
 37 83  2  0  0  0  0
 38 72  1  0  0  0  0
 38 77  1  0  0  0  0
 38 84  2  0  0  0  0
 39 42  1  0  0  0  0
 40 54  1  0  0  0  0
 41 71  1  0  0  0  0
 42 44  1  0  0  0  0
 43 45  1  0  0  0  0
 43 48  1  0  0  0  0
 44 53  1  0  0  0  0
 45 55  1  0  0  0  0
 46 50  1  0  0  0  0
 46 52  1  0  0  0  0
 47 51  1  0  0  0  0
 47 52  1  0  0  0  0
 48 72  1  0  0  0  0
 49 55  1  0  0  0  0
 49 72  1  0  0  0  0
 50 78  1  0  0  0  0
 51 78  1  0  0  0  0
 53 75  1  0  0  0  0
 54 71  1  0  0  0  0
 55 70  1  0  0  0  0
 57 67  1  0  0  0  0
 58 68  1  0  0  0  0
 59 68  1  0  0  0  0
 60 68  1  0  0  0  0
 61 79  1  0  0  0  0
 62 63  1  0  0  0  0
 63 77  1  0  0  0  0
 64 65  1  0  0  0  0
 64 78  1  0  0  0  0
 65 86  1  0  0  0  0
 66 68  1  0  0  0  0
 66 76  1  0  0  0  0
 67 79  1  0  0  0  0
 69 70  1  0  0  0  0
M  CHG  2  78   1  79   1
M  ISO  4  38 100  65 101  77 100  86 101
M  END
> <Batch ID>
0153

> <Smiles>
CNC(C)C(=O)NC(C(=O)N1Cc2cc([101O:1][101CH2:1]CN3CCC(c4ccc(CC[100NH:0][100C:0](=O)N5CCCC(n6nc(-c7ccc(Oc8ccc(F)cc8F)cc7)c(C(N)=O)c6N)C5)cc4C)CC3)ccc2CC1C(=O)NC1CCCc2ccccc21)C(C)(C)C

> <Shape>
0.146

> <Color>
0.181

> <Negative vol penalty>
0.000

$$$$

  -OEChem-04052321483D

 89 99  0     1  0  0  0  0  0999 V2000
  -29.5992  -34.2551   26.9184 C   0  0  0  0  0  0  0  0  0  0  0  0
  -29.3068  -33.1927   26.0691 C   0  0  0  0  0  0  0  0  0  0  0  0
  -23.7501   -9.6580   22.3285 C   0  0  0  0  0  0  0  0  0  0  0  0
  -24.9541   -7.8981   21.1926 C   0  0  0  0  0  0  0  0  0  0  0  0
  -28.5735  -35.0770   27.3835 C   0  0  0  0  0  0  0  0  0  0  0  0
  -27.9882  -32.9510   25.6853 C   0  0  0  0  0  0  0  0  0  0  0  0
  -28.8482  -24.4725   19.3515 C   0  0  0  0  0  0  0  0  0  0  0  0
  -27.5518  -31.9894   20.7325 C   0  0  0  0  0  0  0  0  0  0  0  0
  -28.6760  -25.7742   19.8219 C   0  0  0  0  0  0  0  0  0  0  0  0
  -22.5606   -8.9473   22.1689 C   0  0  0  0  0  0  0  0  0  0  0  0
  -23.7645   -7.1873   21.0330 C   0  0  0  0  0  0  0  0  0  0  0  0
  -27.9047  -30.7124   20.2984 C   0  0  0  0  0  0  0  0  0  0  0  0
  -21.1018   -4.7424   20.6449 C   0  0  0  0  0  0  0  0  0  0  0  0
  -21.1198   -3.3757   20.9229 C   0  0  0  0  0  0  0  0  0  0  0  0
  -25.5740  -30.0922   20.2474 C   0  0  0  0  0  0  0  0  0  0  0  0
  -29.1592  -26.6350   17.6167 C   0  0  0  0  0  0  0  0  0  0  0  0
  -21.7864   -3.8471   23.1968 C   0  0  0  0  0  0  0  0  0  0  0  0
  -24.9469   -9.1334   21.8404 C   0  0  0  0  0  0  0  0  0  0  0  0
  -27.0766   -9.7868   23.0835 C   0  0  0  0  0  0  0  0  0  0  0  0
  -27.2429  -34.8511   26.9974 C   0  0  0  0  0  0  0  0  0  0  0  0
  -26.2058  -32.3246   20.9382 C   0  0  0  0  0  0  0  0  0  0  0  0
  -26.9436  -33.7699   26.1467 C   0  0  0  0  0  0  0  0  0  0  0  0
  -29.1761  -24.2519   18.0137 C   0  0  0  0  0  0  0  0  0  0  0  0
  -25.2065  -31.3750   20.6818 C   0  0  0  0  0  0  0  0  0  0  0  0
  -28.8314  -26.8555   18.9545 C   0  0  0  0  0  0  0  0  0  0  0  0
  -29.3315  -25.3332   17.1464 C   0  0  0  0  0  0  0  0  0  0  0  0
  -22.5678   -7.7120   21.5211 C   0  0  0  0  0  0  0  0  0  0  0  0
  -26.9159  -29.7627   20.0585 C   0  0  0  0  0  0  0  0  0  0  0  0
  -21.4263   -5.6615   21.6428 C   0  0  0  0  0  0  0  0  0  0  0  0
  -21.4620   -2.9280   22.1989 C   0  0  0  0  0  0  0  0  0  0  0  0
  -21.7685   -5.2138   22.9187 C   0  0  0  0  0  0  0  0  0  0  0  0
  -26.1759   -9.8673   22.0045 C   0  0  0  0  0  0  0  0  0  0  0  0
  -28.0749  -10.6745   22.7644 C   0  0  0  0  0  0  0  0  0  0  0  0
  -27.0162   -8.9814   24.2682 C   0  0  0  0  0  0  0  0  0  0  0  0
  -24.4783  -33.2323   23.4473 C   0  0  0  0  0  0  0  0  0  0  0  0
  -22.1553  -33.6182   21.2165 C   0  0  0  0  0  0  0  0  0  0  0  0
  -20.9134  -32.7763   18.1513 C   0  0  0  0  0  0  0  0  0  0  0  0
  -27.8410  -15.4583   19.0800 C   0  0  0  0  0  0  0  0  0  0  0  0
  -26.1622  -35.7378   27.5637 C   0  0  0  0  0  0  0  0  0  0  0  0
  -25.8400  -33.7147   21.3811 C   0  0  0  0  0  0  0  0  0  0  0  0
  -23.7457  -31.6910   20.8678 C   0  0  0  0  0  0  0  0  0  0  0  0
  -24.8381  -35.6410   26.8104 C   0  0  0  0  0  0  0  0  0  0  0  0
  -30.2713  -12.6577   19.0082 C   0  0  0  0  0  0  0  0  0  0  0  0
  -24.4724  -34.1817   26.5587 C   0  0  0  0  0  0  0  0  0  0  0  0
  -29.5381  -11.6028   19.8381 C   0  0  0  0  0  0  0  0  0  0  0  0
  -30.5727  -17.8868   18.6903 C   0  0  0  0  0  0  0  0  0  0  0  0
  -30.5069  -22.1689   18.2910 C   0  0  0  0  0  0  0  0  0  0  0  0
  -28.0505  -22.0550   17.7081 C   0  0  0  0  0  0  0  0  0  0  0  0
  -29.2847  -13.5481   18.2641 C   0  0  0  0  0  0  0  0  0  0  0  0
  -30.1835  -16.4121   18.6591 C   0  0  0  0  0  0  0  0  0  0  0  0
  -27.5473  -13.1760   19.9729 C   0  0  0  0  0  0  0  0  0  0  0  0
  -28.2356  -17.7573   18.2402 C   0  0  0  0  0  0  0  0  0  0  0  0
  -30.6618  -20.7097   17.8817 C   0  0  0  0  0  0  0  0  0  0  0  0
  -28.2242  -20.5968   17.3030 C   0  0  0  0  0  0  0  0  0  0  0  0
  -29.3554  -22.8482   17.5324 C   0  0  0  0  0  0  0  0  0  0  0  0
  -25.5287  -33.4905   25.6881 C   0  0  1  0  0  0  0  0  0  0  0  0
  -24.4713  -33.7875   22.0512 C   0  0  1  0  0  0  0  0  0  0  0  0
  -28.4905  -12.2504   20.7618 C   0  0  1  0  0  0  0  0  0  0  0  0
  -29.4862  -18.5121   17.8283 C   0  0  1  0  0  0  0  0  0  0  0  0
  -29.6828  -25.1216   15.7101 C   0  0  0  0  0  0  0  0  0  0  0  0
  -18.9785  -33.2269   16.6182 C   0  0  0  0  0  0  0  0  0  0  0  0
  -20.3769  -31.8373   22.9415 C   0  0  0  0  0  0  0  0  0  0  0  0
  -18.8661  -31.5512   20.9657 C   0  0  0  0  0  0  0  0  0  0  0  0
  -19.2183  -33.8177   21.9463 C   0  0  0  0  0  0  0  0  0  0  0  0
  -22.6859  -33.8597   16.0434 C   0  0  0  0  0  0  0  0  0  0  0  0
  -28.6475  -28.2473   19.4576 C   0  0  0  0  0  0  0  0  0  1  0  0
  -21.0828  -32.7350   20.6259 C   0  0  1  0  0  0  0  0  0  0  0  0
  -20.3932  -33.6272   17.0068 C   0  0  2  0  0  0  0  0  0  0  0  0
  -19.9136  -32.4784   21.6181 C   0  0  0  0  0  0  0  0  0  0  0  0
  -26.5674  -10.7376   21.0700 N   0  0  0  0  0  0  0  0  0  0  0  0
  -27.7250  -11.2121   21.5608 N   0  0  0  0  0  0  0  0  0  0  0  0
  -23.4390  -33.0619   21.3083 N   0  0  0  0  0  0  0  0  0  0  0  0
  -28.3113  -14.1443   19.1834 N   0  0  0  0  0  0  0  0  0  0  0  0
  -28.7188  -16.4207   18.5831 N   0  0  0  0  0  0  0  0  0  0  0  0
  -29.2091  -11.0399   23.3989 N   0  0  0  0  0  0  0  0  0  0  0  0
  -25.9209   -8.1236   24.4378 N   0  0  0  0  0  0  0  0  0  0  0  0
  -25.3630  -33.8647   24.2999 N   0  0  0  0  0  0  0  0  0  0  0  0
  -20.6772  -33.3664   19.3748 N   0  0  0  0  0  0  0  0  0  0  0  0
  -29.3570  -19.9548   18.0910 N   0  3  0  0  0  0  0  0  0  0  0  0
  -21.2693  -33.4778   15.8105 N   0  3  0  0  0  0  0  0  0  0  0  0
  -27.8989   -9.0334   25.1579 O   0  0  0  0  0  0  0  0  0  0  0  0
  -23.7350  -32.3001   23.7306 O   0  0  0  0  0  0  0  0  0  0  0  0
  -21.8663  -34.7622   21.5763 O   0  0  0  0  0  0  0  0  0  0  0  0
  -21.4701  -31.6944   17.9774 O   0  0  0  0  0  0  0  0  0  0  0  0
  -26.7039  -15.7677   19.4601 O   0  0  0  0  0  0  0  0  0  0  0  0
  -21.4072   -7.0181   21.3654 O   0  0  0  0  0  0  0  0  0  0  0  0
  -27.2600  -28.5067   19.6324 O   0  0  0  0  0  0  0  0  0  1  0  0
  -21.4777   -1.6156   22.4662 F   0  0  0  0  0  0  0  0  0  0  0  0
  -22.0799   -6.0921   23.8818 F   0  0  0  0  0  0  0  0  0  0  0  0
  1  2  1  0  0  0  0
  1  5  2  0  0  0  0
  2  6  2  0  0  0  0
  3 10  2  0  0  0  0
  3 18  1  0  0  0  0
  4 11  1  0  0  0  0
  4 18  2  0  0  0  0
  5 20  1  0  0  0  0
  6 22  1  0  0  0  0
  7  9  2  0  0  0  0
  7 23  1  0  0  0  0
  8 12  2  0  0  0  0
  8 21  1  0  0  0  0
  9 25  1  0  0  0  0
 10 27  1  0  0  0  0
 11 27  2  0  0  0  0
 12 28  1  0  0  0  0
 13 14  2  0  0  0  0
 13 29  1  0  0  0  0
 14 30  1  0  0  0  0
 15 24  1  0  0  0  0
 15 28  2  0  0  0  0
 16 25  2  0  0  0  0
 16 26  1  0  0  0  0
 17 30  2  0  0  0  0
 17 31  1  0  0  0  0
 18 32  1  0  0  0  0
 19 32  1  0  0  0  0
 19 33  2  0  0  0  0
 19 34  1  0  0  0  0
 20 22  2  0  0  0  0
 20 39  1  0  0  0  0
 21 24  2  0  0  0  0
 21 40  1  0  0  0  0
 22 56  1  0  0  0  0
 23 26  2  0  0  0  0
 23 55  1  0  0  0  0
 24 41  1  0  0  0  0
 25 66  1  0  0  0  0
 26 60  1  0  0  0  0
 27 86  1  0  0  0  0
 28 87  1  0  0  0  0
 29 31  2  0  0  0  0
 29 86  1  0  0  0  0
 30 88  1  0  0  0  0
 31 89  1  0  0  0  0
 32 70  2  0  0  0  0
 33 71  1  0  0  0  0
 33 75  1  0  0  0  0
 34 76  1  0  0  0  0
 34 81  2  0  0  0  0
 35 57  1  0  0  0  0
 35 77  1  0  0  0  0
 35 82  2  0  0  0  0
 36 67  1  0  0  0  0
 36 72  1  0  0  0  0
 36 83  2  0  0  0  0
 37 68  1  0  0  0  0
 37 78  1  0  0  0  0
 37 84  2  0  0  0  0
 38 73  1  0  0  0  0
 38 74  1  0  0  0  0
 38 85  2  0  0  0  0
 39 42  1  0  0  0  0
 40 57  1  0  0  0  0
 41 72  1  0  0  0  0
 42 44  1  0  0  0  0
 43 45  1  0  0  0  0
 43 49  1  0  0  0  0
 44 56  1  0  0  0  0
 45 58  1  0  0  0  0
 46 50  1  0  0  0  0
 46 59  1  0  0  0  0
 47 53  1  0  0  0  0
 47 55  1  0  0  0  0
 48 54  1  0  0  0  0
 48 55  1  0  0  0  0
 49 73  1  0  0  0  0
 50 74  1  0  0  0  0
 51 58  1  0  0  0  0
 51 73  1  0  0  0  0
 52 59  1  0  0  0  0
 52 74  1  0  0  0  0
 53 79  1  0  0  0  0
 54 79  1  0  0  0  0
 56 77  1  0  0  0  0
 57 72  1  0  0  0  0
 58 71  1  0  0  0  0
 59 79  1  0  0  0  0
 61 68  1  0  0  0  0
 62 69  1  0  0  0  0
 63 69  1  0  0  0  0
 64 69  1  0  0  0  0
 65 80  1  0  0  0  0
 66 87  1  0  0  0  0
 67 69  1  0  0  0  0
 67 78  1  0  0  0  0
 68 80  1  0  0  0  0
 70 71  1  0  0  0  0
M  CHG  2  79   1  80   1
M  ISO  4  38 100  66 101  74 100  87 101
M  END
> <Batch ID>
0153

> <Smiles>
CNC(C)C(=O)NC(C(=O)N1Cc2cc([101O:1][101CH2:1]c3ccc(C4CCN(C5CC[100N:0]([100C:0](=O)N6CCCC(n7nc(-c8ccc(Oc9ccc(F)cc9F)cc8)c(C(N)=O)c7N)C6)C5)CC4)c(C)c3)ccc2CC1C(=O)NC1CCCc2ccccc21)C(C)(C)C

> <Shape>
0.231

> <Color>
0.083

> <Negative vol penalty>
0.000

$$$$

  -OEChem-04052321483D

 88 97  0     1  0  0  0  0  0999 V2000
  -26.2861  -35.3703   22.9259 C   0  0  0  0  0  0  0  0  0  0  0  0
  -26.7890  -34.0847   22.7536 C   0  0  0  0  0  0  0  0  0  0  0  0
  -27.1287  -10.0843   20.5840 C   0  0  0  0  0  0  0  0  0  0  0  0
  -25.7169  -11.9083   19.8650 C   0  0  0  0  0  0  0  0  0  0  0  0
  -24.9885  -35.5520   23.4024 C   0  0  0  0  0  0  0  0  0  0  0  0
  -25.9948  -32.9799   23.0588 C   0  0  0  0  0  0  0  0  0  0  0  0
  -26.2247  -29.3806   19.5039 C   0  0  0  0  0  0  0  0  0  0  0  0
  -25.9969   -9.3203   20.8683 C   0  0  0  0  0  0  0  0  0  0  0  0
  -24.5851  -11.1442   20.1492 C   0  0  0  0  0  0  0  0  0  0  0  0
  -27.3520  -28.5602   19.5005 C   0  0  0  0  0  0  0  0  0  0  0  0
  -22.8464   -8.6359   18.6980 C   0  0  0  0  0  0  0  0  0  0  0  0
  -21.8195   -8.6256   17.7542 C   0  0  0  0  0  0  0  0  0  0  0  0
  -26.0967  -26.8409   20.6352 C   0  0  0  0  0  0  0  0  0  0  0  0
  -30.5514  -22.5950   18.6971 C   0  0  0  0  0  0  0  0  0  0  0  0
  -28.1823  -22.1942   18.9074 C   0  0  0  0  0  0  0  0  0  0  0  0
  -20.2992   -9.5328   19.3982 C   0  0  0  0  0  0  0  0  0  0  0  0
  -26.9888  -11.3784   20.0824 C   0  0  0  0  0  0  0  0  0  0  0  0
  -28.8579  -12.2299   18.5695 C   0  0  0  0  0  0  0  0  0  0  0  0
  -24.1746  -34.4488   23.7044 C   0  0  0  0  0  0  0  0  0  0  0  0
  -25.0261  -28.9407   20.0837 C   0  0  0  0  0  0  0  0  0  0  0  0
  -24.6855  -33.1470   23.5410 C   0  0  0  0  0  0  0  0  0  0  0  0
  -24.9550  -27.6566   20.6424 C   0  0  0  0  0  0  0  0  0  0  0  0
  -30.8234  -21.2549   19.0162 C   0  0  0  0  0  0  0  0  0  0  0  0
  -29.7561  -20.3807   19.2884 C   0  0  0  0  0  0  0  0  0  0  0  0
  -28.4389  -20.8611   19.2251 C   0  0  0  0  0  0  0  0  0  0  0  0
  -24.7251   -9.8502   20.6508 C   0  0  0  0  0  0  0  0  0  0  0  0
  -27.2889  -27.2912   20.0688 C   0  0  0  0  0  0  0  0  0  0  0  0
  -22.5997   -9.0945   19.9921 C   0  0  0  0  0  0  0  0  0  0  0  0
  -29.2383  -23.0608   18.6433 C   0  0  0  0  0  0  0  0  0  0  0  0
  -20.5459   -9.0741   18.1042 C   0  0  0  0  0  0  0  0  0  0  0  0
  -21.3262   -9.5430   20.3422 C   0  0  0  0  0  0  0  0  0  0  0  0
  -28.1575  -12.1684   19.7892 C   0  0  0  0  0  0  0  0  0  0  0  0
  -29.8808  -13.1157   18.8053 C   0  0  0  0  0  0  0  0  0  0  0  0
  -28.6063  -11.5475   17.3340 C   0  0  0  0  0  0  0  0  0  0  0  0
  -23.2119  -29.9216   22.5025 C   0  0  0  0  0  0  0  0  0  0  0  0
  -21.2137  -27.6000   21.4351 C   0  0  0  0  0  0  0  0  0  0  0  0
  -20.8251  -24.6745   19.7212 C   0  0  0  0  0  0  0  0  0  0  0  0
  -31.8618  -17.8035   20.8904 C   0  0  0  0  0  0  0  0  0  0  0  0
  -22.7950  -34.6955   24.2616 C   0  0  0  0  0  0  0  0  0  0  0  0
  -23.8115  -29.8275   20.0555 C   0  0  0  0  0  0  0  0  0  0  0  0
  -23.6862  -27.1294   21.2595 C   0  0  0  0  0  0  0  0  0  0  0  0
  -29.9811  -18.9203   19.6013 C   0  0  0  0  0  0  0  0  0  0  0  0
  -21.8875  -33.4692   24.2062 C   0  0  0  0  0  0  0  0  0  0  0  0
  -31.5689  -15.1469   23.1075 C   0  0  0  0  0  0  0  0  0  0  0  0
  -22.6265  -32.2349   24.7134 C   0  0  0  0  0  0  0  0  0  0  0  0
  -30.7077  -14.1334   22.3558 C   0  0  0  0  0  0  0  0  0  0  0  0
  -31.0626  -16.5657   22.8785 C   0  0  0  0  0  0  0  0  0  0  0  0
  -30.1451  -15.9502   20.6636 C   0  0  0  0  0  0  0  0  0  0  0  0
  -32.2606  -20.7767   19.0879 C   0  0  2  0  0  0  0  0  0  0  0  0
  -23.8460  -31.9233   23.8375 C   0  0  1  0  0  0  0  0  0  0  0  0
  -22.7891  -29.4749   21.1316 C   0  0  1  0  0  0  0  0  0  0  0  0
  -30.6116  -14.4937   20.8633 C   0  0  2  0  0  0  0  0  0  0  0  0
  -32.3673  -19.2430   18.9265 C   0  0  2  0  0  0  0  0  0  0  0  0
  -27.2690  -19.9655   19.4853 C   0  0  0  0  0  0  0  0  0  0  0  0
  -32.1983  -18.7972   17.4679 C   0  0  0  0  0  0  0  0  0  0  0  0
  -19.0793  -23.0010   19.0512 C   0  0  0  0  0  0  0  0  0  0  0  0
  -33.3534  -22.6851   20.2989 C   0  0  0  0  0  0  0  0  0  0  0  0
  -31.8995  -21.0689   21.5550 C   0  0  0  0  0  0  0  0  0  0  0  0
  -21.2029  -26.4788   24.2728 C   0  0  0  0  0  0  0  0  0  0  0  0
  -20.2620  -24.3488   23.3531 C   0  0  0  0  0  0  0  0  0  0  0  0
  -18.9729  -26.4738   23.1407 C   0  0  0  0  0  0  0  0  0  0  0  0
  -21.3047  -25.1542   16.8404 C   0  0  0  0  0  0  0  0  0  0  0  0
  -29.3067  -26.6469   18.9873 C   0  0  0  0  0  0  0  0  0  1  0  0
  -29.9817  -25.3191   18.7033 C   0  0  0  0  0  0  0  0  0  0  0  0
  -21.0358  -26.1282   21.7203 C   0  0  1  0  0  0  0  0  0  0  0  0
  -19.8334  -24.2590   18.6495 C   0  0  2  0  0  0  0  0  0  0  0  0
  -32.8909  -21.2369   20.4096 C   0  0  0  0  0  0  0  0  0  0  0  0
  -20.3930  -25.8678   23.1119 C   0  0  0  0  0  0  0  0  0  0  0  0
  -28.6905  -12.9525   20.7300 N   0  0  0  0  0  0  0  0  0  0  0  0
  -29.7367  -13.5151   20.1014 N   0  0  0  0  0  0  0  0  0  0  0  0
  -22.5275  -28.0365   21.2130 N   0  0  0  0  0  0  0  0  0  0  0  0
  -31.3954  -18.5627   19.8010 N   0  0  0  0  0  0  0  0  0  0  0  0
  -30.9730  -16.8749   21.4514 N   0  0  0  0  0  0  0  0  0  0  0  0
  -30.8804  -13.5841   18.0283 N   0  0  0  0  0  0  0  0  0  0  0  0
  -27.5133  -10.6729   17.2642 N   0  0  0  0  0  0  0  0  0  0  0  0
  -23.4341  -31.2814   22.6075 N   0  0  0  0  0  0  0  0  0  0  0  0
  -20.2760  -25.5842   20.6000 N   0  0  0  0  0  0  0  0  0  0  0  0
  -20.5403  -23.9933   17.3647 N   0  3  0  0  0  0  0  0  0  0  0  0
  -29.3390  -11.6959   16.3267 O   0  0  0  0  0  0  0  0  0  0  0  0
  -23.3266  -29.0941   23.3990 O   0  0  0  0  0  0  0  0  0  0  0  0
  -20.2228  -28.3339   21.4032 O   0  0  0  0  0  0  0  0  0  0  0  0
  -21.9708  -24.2332   19.7756 O   0  0  0  0  0  0  0  0  0  0  0  0
  -33.0012  -17.9566   21.3487 O   0  0  0  0  0  0  0  0  0  0  0  0
  -23.6205   -9.1048   20.9278 O   0  0  0  0  0  0  0  0  0  0  0  0
  -28.3954  -26.4832   20.0673 O   0  0  0  0  0  0  0  0  0  1  0  0
  -28.9904  -24.3623   18.3322 O   0  0  0  0  0  0  0  0  0  0  0  0
  -19.5603   -9.0656   17.1972 F   0  0  0  0  0  0  0  0  0  0  0  0
  -21.0834   -9.9859   21.5834 F   0  0  0  0  0  0  0  0  0  0  0  0
  1  2  1  0  0  0  0
  1  5  2  0  0  0  0
  2  6  2  0  0  0  0
  3  8  2  0  0  0  0
  3 17  1  0  0  0  0
  4  9  1  0  0  0  0
  4 17  2  0  0  0  0
  5 19  1  0  0  0  0
  6 21  1  0  0  0  0
  7 10  2  0  0  0  0
  7 20  1  0  0  0  0
  8 26  1  0  0  0  0
  9 26  2  0  0  0  0
 10 27  1  0  0  0  0
 11 12  2  0  0  0  0
 11 28  1  0  0  0  0
 12 30  1  0  0  0  0
 13 22  1  0  0  0  0
 13 27  2  0  0  0  0
 14 23  1  0  0  0  0
 14 29  2  0  0  0  0
 15 25  2  0  0  0  0
 15 29  1  0  0  0  0
 16 30  2  0  0  0  0
 16 31  1  0  0  0  0
 17 32  1  0  0  0  0
 18 32  1  0  0  0  0
 18 33  2  0  0  0  0
 18 34  1  0  0  0  0
 19 21  2  0  0  0  0
 19 39  1  0  0  0  0
 20 22  2  0  0  0  0
 20 40  1  0  0  0  0
 21 50  1  0  0  0  0
 22 41  1  0  0  0  0
 23 24  2  0  0  0  0
 23 49  1  0  0  0  0
 24 25  1  0  0  0  0
 24 42  1  0  0  0  0
 25 54  1  0  0  0  0
 26 84  1  0  0  0  0
 27 85  1  0  0  0  0
 28 31  2  0  0  0  0
 28 84  1  0  0  0  0
 29 86  1  0  0  0  0
 30 87  1  0  0  0  0
 31 88  1  0  0  0  0
 32 69  2  0  0  0  0
 33 70  1  0  0  0  0
 33 74  1  0  0  0  0
 34 75  1  0  0  0  0
 34 79  2  0  0  0  0
 35 51  1  0  0  0  0
 35 76  1  0  0  0  0
 35 80  2  0  0  0  0
 36 65  1  0  0  0  0
 36 71  1  0  0  0  0
 36 81  2  0  0  0  0
 37 66  1  0  0  0  0
 37 77  1  0  0  0  0
 37 82  2  0  0  0  0
 38 72  1  0  0  0  0
 38 73  1  0  0  0  0
 38 83  2  0  0  0  0
 39 43  1  0  0  0  0
 40 51  1  0  0  0  0
 41 71  1  0  0  0  0
 42 72  1  0  0  0  0
 43 45  1  0  0  0  0
 44 46  1  0  0  0  0
 44 47  1  0  0  0  0
 45 50  1  0  0  0  0
 46 52  1  0  0  0  0
 47 73  1  0  0  0  0
 48 52  1  0  0  0  0
 48 73  1  0  0  0  0
 49 53  1  0  0  0  0
 49 67  1  0  0  0  0
 50 76  1  0  0  0  0
 51 71  1  0  0  0  0
 52 70  1  0  0  0  0
 53 55  1  0  0  0  0
 53 72  1  0  0  0  0
 56 66  1  0  0  0  0
 57 67  1  0  0  0  0
 58 67  1  0  0  0  0
 59 68  1  0  0  0  0
 60 68  1  0  0  0  0
 61 68  1  0  0  0  0
 62 78  1  0  0  0  0
 63 64  1  0  0  0  0
 63 85  1  0  0  0  0
 64 86  1  0  0  0  0
 65 68  1  0  0  0  0
 65 77  1  0  0  0  0
 66 78  1  0  0  0  0
 69 70  1  0  0  0  0
M  CHG  1  78   1
M  ISO  4  38 100  63 101  72 100  85 101
M  END
> <Batch ID>
0153

> <Smiles>
CNC(C)C(=O)NC(C(=O)N1Cc2cc([101O:1][101CH2:1]COc3cc(C)c4c(c3)C(C(C)C)C(C)[100N:0]([100C:0](=O)N3CCCC(n5nc(-c6ccc(Oc7ccc(F)cc7F)cc6)c(C(N)=O)c5N)C3)C4)ccc2CC1C(=O)NC1CCCc2ccccc21)C(C)(C)C

> <Shape>
0.312

> <Color>
0.076

> <Negative vol penalty>
0.000

$$$$

  -OEChem-04052321483D

 87 97  0     1  0  0  0  0  0999 V2000
  -27.0719  -37.6666   24.1883 C   0  0  0  0  0  0  0  0  0  0  0  0
  -27.7704  -36.6691   23.5155 C   0  0  0  0  0  0  0  0  0  0  0  0
  -23.6445  -10.4796   22.4190 C   0  0  0  0  0  0  0  0  0  0  0  0
  -24.4810   -8.6116   21.1353 C   0  0  0  0  0  0  0  0  0  0  0  0
  -25.9422  -37.3408   24.9377 C   0  0  0  0  0  0  0  0  0  0  0  0
  -27.3402  -35.3450   23.5928 C   0  0  0  0  0  0  0  0  0  0  0  0
  -27.0624  -29.3298   19.7124 C   0  0  0  0  0  0  0  0  0  0  0  0
  -22.5035   -9.7458   22.7434 C   0  0  0  0  0  0  0  0  0  0  0  0
  -23.3401   -7.8777   21.4597 C   0  0  0  0  0  0  0  0  0  0  0  0
  -27.4065  -27.9810   19.7903 C   0  0  0  0  0  0  0  0  0  0  0  0
  -20.8150   -5.3830   22.2464 C   0  0  0  0  0  0  0  0  0  0  0  0
  -20.9871   -4.0570   22.6435 C   0  0  0  0  0  0  0  0  0  0  0  0
  -28.0856  -23.0553   18.9735 C   0  0  0  0  0  0  0  0  0  0  0  0
  -25.3957  -27.5471   21.0503 C   0  0  0  0  0  0  0  0  0  0  0  0
  -28.7004  -23.3673   21.2890 C   0  0  0  0  0  0  0  0  0  0  0  0
  -22.3503   -4.7896   24.4989 C   0  0  0  0  0  0  0  0  0  0  0  0
  -24.6332   -9.9126   21.6149 C   0  0  0  0  0  0  0  0  0  0  0  0
  -27.0229  -10.7205   21.9948 C   0  0  0  0  0  0  0  0  0  0  0  0
  -25.4924  -36.0134   25.0163 C   0  0  0  0  0  0  0  0  0  0  0  0
  -25.8859  -29.8001   20.3133 C   0  0  0  0  0  0  0  0  0  0  0  0
  -26.2042  -35.0009   24.3451 C   0  0  0  0  0  0  0  0  0  0  0  0
  -28.2568  -21.6781   19.1135 C   0  0  0  0  0  0  0  0  0  0  0  0
  -25.0377  -28.9019   20.9764 C   0  0  0  0  0  0  0  0  0  0  0  0
  -28.6498  -21.1455   20.3414 C   0  0  0  0  0  0  0  0  0  0  0  0
  -28.3075  -23.8999   20.0612 C   0  0  0  0  0  0  0  0  0  0  0  0
  -28.8716  -21.9900   21.4291 C   0  0  0  0  0  0  0  0  0  0  0  0
  -22.3513   -8.4448   22.2638 C   0  0  0  0  0  0  0  0  0  0  0  0
  -26.5746  -27.0899   20.4618 C   0  0  0  0  0  0  0  0  0  0  0  0
  -21.4106   -6.4124   22.9754 C   0  0  0  0  0  0  0  0  0  0  0  0
  -21.7547   -3.7603   23.7698 C   0  0  0  0  0  0  0  0  0  0  0  0
  -22.1782   -6.1156   24.1017 C   0  0  0  0  0  0  0  0  0  0  0  0
  -25.8118  -10.6703   21.2789 C   0  0  0  0  0  0  0  0  0  0  0  0
  -27.8163  -11.5742   21.2680 C   0  0  0  0  0  0  0  0  0  0  0  0
  -27.3973  -10.0548   23.2083 C   0  0  0  0  0  0  0  0  0  0  0  0
  -25.2237  -31.8834   22.6209 C   0  0  0  0  0  0  0  0  0  0  0  0
  -22.1591  -31.3053   21.7285 C   0  0  0  0  0  0  0  0  0  0  0  0
  -19.9189  -29.1902   20.2607 C   0  0  0  0  0  0  0  0  0  0  0  0
  -28.6561  -16.1460   18.3672 C   0  0  0  0  0  0  0  0  0  0  0  0
  -24.2936  -35.7029   25.8773 C   0  0  0  0  0  0  0  0  0  0  0  0
  -25.5155  -31.2533   20.1973 C   0  0  0  0  0  0  0  0  0  0  0  0
  -23.7533  -29.3527   21.6209 C   0  0  0  0  0  0  0  0  0  0  0  0
  -23.6859  -34.3297   25.6029 C   0  0  0  0  0  0  0  0  0  0  0  0
  -27.2049  -13.5217   16.6480 C   0  0  0  0  0  0  0  0  0  0  0  0
  -28.3621  -21.2996   16.5602 C   0  0  0  0  0  0  0  0  0  0  0  0
  -26.9263  -21.1606   16.9594 C   0  0  0  0  0  0  0  0  0  0  0  0
  -24.7780  -33.2673   25.5310 C   0  0  0  0  0  0  0  0  0  0  0  0
  -26.8085  -12.5400   17.7505 C   0  0  0  0  0  0  0  0  0  0  0  0
  -27.5258  -18.8757   20.2616 C   0  0  0  0  0  0  0  0  0  0  0  0
  -29.9541  -19.1086   19.5844 C   0  0  0  0  0  0  0  0  0  0  0  0
  -26.9155  -14.9585   17.0668 C   0  0  0  0  0  0  0  0  0  0  0  0
  -27.7287  -17.3630   20.3870 C   0  0  0  0  0  0  0  0  0  0  0  0
  -30.1060  -17.5994   19.7506 C   0  0  0  0  0  0  0  0  0  0  0  0
  -27.1907  -14.3868   19.4575 C   0  0  0  0  0  0  0  0  0  0  0  0
  -28.0131  -20.7947   17.9347 C   0  0  0  0  0  0  0  0  0  0  0  0
  -28.8366  -19.6479   20.4957 C   0  0  0  0  0  0  0  0  0  0  0  0
  -25.7544  -33.5565   24.3844 C   0  0  1  0  0  0  0  0  0  0  0  0
  -24.5525  -31.7133   21.2874 C   0  0  1  0  0  0  0  0  0  0  0  0
  -27.4690  -12.9154   19.0889 C   0  0  1  0  0  0  0  0  0  0  0  0
  -29.2932  -21.4451   22.7543 C   0  0  0  0  0  0  0  0  0  0  0  0
  -17.4793  -28.9756   19.7130 C   0  0  0  0  0  0  0  0  0  0  0  0
  -21.5628  -30.6562   24.6497 C   0  0  0  0  0  0  0  0  0  0  0  0
  -19.4404  -29.5600   23.9004 C   0  0  0  0  0  0  0  0  0  0  0  0
  -19.7938  -31.9961   23.4967 C   0  0  0  0  0  0  0  0  0  0  0  0
  -20.4649  -29.0453   17.3555 C   0  0  0  0  0  0  0  0  0  0  0  0
  -28.1248  -25.3724   19.9115 C   0  0  0  0  0  0  0  0  0  1  0  0
  -21.0969  -30.3120   22.1337 C   0  0  1  0  0  0  0  0  0  0  0  0
  -18.8434  -29.4288   19.2163 C   0  0  2  0  0  0  0  0  0  0  0  0
  -20.4986  -30.6226   23.5348 C   0  0  0  0  0  0  0  0  0  0  0  0
  -25.8295  -11.4317   20.1817 N   0  0  0  0  0  0  0  0  0  0  0  0
  -27.0614  -11.9684   20.2027 N   0  0  0  0  0  0  0  0  0  0  0  0
  -23.4380  -30.7845   21.4857 N   0  0  0  0  0  0  0  0  0  0  0  0
  -27.5565  -15.2748   18.3430 N   0  0  0  0  0  0  0  0  0  0  0  0
  -28.8331  -16.9144   19.5277 N   0  0  0  0  0  0  0  0  0  0  0  0
  -29.0790  -12.0186   21.4427 N   0  0  0  0  0  0  0  0  0  0  0  0
  -26.4615   -9.2131   23.8247 N   0  0  0  0  0  0  0  0  0  0  0  0
  -25.1726  -33.1724   23.1161 N   0  0  0  0  0  0  0  0  0  0  0  0
  -20.1157  -30.3006   21.0541 N   0  0  0  0  0  0  0  0  0  0  0  0
  -19.1603  -28.6818   17.9663 N   0  3  0  0  0  0  0  0  0  0  0  0
  -28.5224  -10.2149   23.7392 O   0  0  0  0  0  0  0  0  0  0  0  0
  -25.7478  -30.9164   23.1612 O   0  0  0  0  0  0  0  0  0  0  0  0
  -21.8632  -32.4982   21.6242 O   0  0  0  0  0  0  0  0  0  0  0  0
  -20.5214  -28.1240   20.3648 O   0  0  0  0  0  0  0  0  0  0  0  0
  -29.4346  -16.2321   17.4093 O   0  0  0  0  0  0  0  0  0  0  0  0
  -21.2382   -7.7283   22.5803 O   0  0  0  0  0  0  0  0  0  0  0  0
  -26.9106  -25.7639   20.5404 O   0  0  0  0  0  0  0  0  0  1  0  0
  -21.9186   -2.4870   24.1520 F   0  0  0  0  0  0  0  0  0  0  0  0
  -22.7519   -7.1003   24.8068 F   0  0  0  0  0  0  0  0  0  0  0  0
  1  2  1  0  0  0  0
  1  5  2  0  0  0  0
  2  6  2  0  0  0  0
  3  8  2  0  0  0  0
  3 17  1  0  0  0  0
  4  9  1  0  0  0  0
  4 17  2  0  0  0  0
  5 19  1  0  0  0  0
  6 21  1  0  0  0  0
  7 10  2  0  0  0  0
  7 20  1  0  0  0  0
  8 27  1  0  0  0  0
  9 27  2  0  0  0  0
 10 28  1  0  0  0  0
 11 12  2  0  0  0  0
 11 29  1  0  0  0  0
 12 30  1  0  0  0  0
 13 22  1  0  0  0  0
 13 25  2  0  0  0  0
 14 23  1  0  0  0  0
 14 28  2  0  0  0  0
 15 25  1  0  0  0  0
 15 26  2  0  0  0  0
 16 30  2  0  0  0  0
 16 31  1  0  0  0  0
 17 32  1  0  0  0  0
 18 32  1  0  0  0  0
 18 33  2  0  0  0  0
 18 34  1  0  0  0  0
 19 21  2  0  0  0  0
 19 39  1  0  0  0  0
 20 23  2  0  0  0  0
 20 40  1  0  0  0  0
 21 56  1  0  0  0  0
 22 24  2  0  0  0  0
 22 54  1  0  0  0  0
 23 41  1  0  0  0  0
 24 26  1  0  0  0  0
 24 55  1  0  0  0  0
 25 65  1  0  0  0  0
 26 59  1  0  0  0  0
 27 84  1  0  0  0  0
 28 85  1  0  0  0  0
 29 31  2  0  0  0  0
 29 84  1  0  0  0  0
 30 86  1  0  0  0  0
 31 87  1  0  0  0  0
 32 69  2  0  0  0  0
 33 70  1  0  0  0  0
 33 74  1  0  0  0  0
 34 75  1  0  0  0  0
 34 79  2  0  0  0  0
 35 57  1  0  0  0  0
 35 76  1  0  0  0  0
 35 80  2  0  0  0  0
 36 66  1  0  0  0  0
 36 71  1  0  0  0  0
 36 81  2  0  0  0  0
 37 67  1  0  0  0  0
 37 77  1  0  0  0  0
 37 82  2  0  0  0  0
 38 72  1  0  0  0  0
 38 73  1  0  0  0  0
 38 83  2  0  0  0  0
 39 42  1  0  0  0  0
 40 57  1  0  0  0  0
 41 71  1  0  0  0  0
 42 46  1  0  0  0  0
 43 47  1  0  0  0  0
 43 50  1  0  0  0  0
 44 45  1  0  0  0  0
 44 54  1  0  0  0  0
 45 54  1  0  0  0  0
 46 56  1  0  0  0  0
 47 58  1  0  0  0  0
 48 51  1  0  0  0  0
 48 55  1  0  0  0  0
 49 52  1  0  0  0  0
 49 55  1  0  0  0  0
 50 72  1  0  0  0  0
 51 73  1  0  0  0  0
 52 73  1  0  0  0  0
 53 58  1  0  0  0  0
 53 72  1  0  0  0  0
 56 76  1  0  0  0  0
 57 71  1  0  0  0  0
 58 70  1  0  0  0  0
 60 67  1  0  0  0  0
 61 68  1  0  0  0  0
 62 68  1  0  0  0  0
 63 68  1  0  0  0  0
 64 78  1  0  0  0  0
 65 85  1  0  0  0  0
 66 68  1  0  0  0  0
 66 77  1  0  0  0  0
 67 78  1  0  0  0  0
 69 70  1  0  0  0  0
M  CHG  1  78   1
M  ISO  4  38 100  65 101  73 100  85 101
M  END
> <Batch ID>
0153

> <Smiles>
CNC(C)C(=O)NC(C(=O)N1Cc2cc([101O:1][101CH2:1]c3cc(C)c(C4CC[100N:0]([100C:0](=O)N5CCCC(n6nc(-c7ccc(Oc8ccc(F)cc8F)cc7)c(C(N)=O)c6N)C5)CC4)c(C4CC4)c3)ccc2CC1C(=O)NC1CCCc2ccccc21)C(C)(C)C

> <Shape>
0.326

> <Color>
0.089

> <Negative vol penalty>
0.000

$$$$

  -OEChem-04052321483D

 88 97  0     1  0  0  0  0  0999 V2000
  -19.2137  -23.9878   21.9985 C   0  0  0  0  0  0  0  0  0  0  0  0
  -20.4469  -24.2691   21.4193 C   0  0  0  0  0  0  0  0  0  0  0  0
  -23.2535  -17.6797   22.0860 C   0  0  0  0  0  0  0  0  0  0  0  0
  -22.3039  -16.6072   20.1405 C   0  0  0  0  0  0  0  0  0  0  0  0
  -18.3932  -25.0295   22.4292 C   0  0  0  0  0  0  0  0  0  0  0  0
  -20.8598  -25.5926   21.2694 C   0  0  0  0  0  0  0  0  0  0  0  0
  -25.6860  -26.2885   22.6363 C   0  0  0  0  0  0  0  0  0  0  0  0
  -30.8079  -22.5804   18.0191 C   0  0  0  0  0  0  0  0  0  0  0  0
  -22.3093  -18.7012   21.9838 C   0  0  0  0  0  0  0  0  0  0  0  0
  -21.3596  -17.6287   20.0383 C   0  0  0  0  0  0  0  0  0  0  0  0
  -26.6681  -25.8872   21.7318 C   0  0  0  0  0  0  0  0  0  0  0  0
  -18.4546  -18.4920   21.5338 C   0  0  0  0  0  0  0  0  0  0  0  0
  -17.1295  -18.1263   21.2978 C   0  0  0  0  0  0  0  0  0  0  0  0
  -31.5023  -21.5718   18.6777 C   0  0  0  0  0  0  0  0  0  0  0  0
  -26.9294  -28.1742   21.0102 C   0  0  0  0  0  0  0  0  0  0  0  0
  -17.1444  -19.3978   19.2435 C   0  0  0  0  0  0  0  0  0  0  0  0
  -23.2508  -16.6327   21.1644 C   0  0  0  0  0  0  0  0  0  0  0  0
  -24.1039  -14.3752   21.9913 C   0  0  0  0  0  0  0  0  0  0  0  0
  -18.8005  -26.3660   22.2934 C   0  0  0  0  0  0  0  0  0  0  0  0
  -25.3098  -27.6363   22.7270 C   0  0  0  0  0  0  0  0  0  0  0  0
  -20.0434  -26.6532   21.6975 C   0  0  0  0  0  0  0  0  0  0  0  0
  -25.9440  -28.5903   21.9185 C   0  0  0  0  0  0  0  0  0  0  0  0
  -29.4233  -22.6479   18.1263 C   0  0  0  0  0  0  0  0  0  0  0  0
  -21.3623  -18.6758   20.9600 C   0  0  0  0  0  0  0  0  0  0  0  0
  -27.2879  -26.8296   20.9165 C   0  0  0  0  0  0  0  0  0  0  0  0
  -19.1247  -19.3107   20.6247 C   0  0  0  0  0  0  0  0  0  0  0  0
  -16.4744  -18.5792   20.1526 C   0  0  0  0  0  0  0  0  0  0  0  0
  -18.4696  -19.7636   19.4795 C   0  0  0  0  0  0  0  0  0  0  0  0
  -24.2263  -15.5774   21.2691 C   0  0  0  0  0  0  0  0  0  0  0  0
  -30.7713  -20.6624   19.4250 C   0  0  0  0  0  0  0  0  0  0  0  0
  -28.7853  -21.6902   18.8981 C   0  0  0  0  0  0  0  0  0  0  0  0
  -25.2912  -13.7204   21.7718 C   0  0  0  0  0  0  0  0  0  0  0  0
  -23.0145  -13.8935   22.7892 C   0  0  0  0  0  0  0  0  0  0  0  0
  -22.6143  -29.2502   22.2440 C   0  0  0  0  0  0  0  0  0  0  0  0
  -24.3494  -31.7317   23.4075 C   0  0  0  0  0  0  0  0  0  0  0  0
  -27.4210  -33.1153   23.9534 C   0  0  0  0  0  0  0  0  0  0  0  0
  -30.7641  -15.6412   20.3017 C   0  0  0  0  0  0  0  0  0  0  0  0
  -17.8588  -27.4599   22.7308 C   0  0  0  0  0  0  0  0  0  0  0  0
  -24.2676  -28.0568   23.7267 C   0  0  0  0  0  0  0  0  0  0  0  0
  -25.5907  -30.0526   21.9915 C   0  0  0  0  0  0  0  0  0  0  0  0
  -18.5330  -28.8216   22.8772 C   0  0  0  0  0  0  0  0  0  0  0  0
  -28.7985  -13.2713   18.5730 C   0  0  0  0  0  0  0  0  0  0  0  0
  -19.4157  -29.1130   21.6678 C   0  0  0  0  0  0  0  0  0  0  0  0
  -27.3851  -13.4941   19.1040 C   0  0  0  0  0  0  0  0  0  0  0  0
  -31.9047  -18.6012   22.2112 C   0  0  0  0  0  0  0  0  0  0  0  0
  -29.5372  -14.5952   18.4310 C   0  0  0  0  0  0  0  0  0  0  0  0
  -32.1333  -17.2103   21.6373 C   0  0  0  0  0  0  0  0  0  0  0  0
  -28.2225  -15.5938   20.2812 C   0  0  0  0  0  0  0  0  0  0  0  0
  -29.9570  -17.9843   20.9735 C   0  0  0  0  0  0  0  0  0  0  0  0
  -20.5372  -28.0750   21.5403 C   0  0  1  0  0  0  0  0  0  0  0  0
  -23.5989  -29.3812   23.3714 C   0  0  1  0  0  0  0  0  0  0  0  0
  -27.4192  -14.2842   20.4214 C   0  0  1  0  0  0  0  0  0  0  0  0
  -30.8414  -19.1850   21.2872 C   0  0  2  0  0  0  0  0  0  0  0  0
  -25.3325  -20.9215   19.8729 C   0  0  0  0  0  0  0  0  0  0  0  0
  -28.5184  -35.1690   24.8889 C   0  0  0  0  0  0  0  0  0  0  0  0
  -23.5830  -33.2831   20.8944 C   0  0  0  0  0  0  0  0  0  0  0  0
  -25.4241  -34.8981   21.4142 C   0  0  0  0  0  0  0  0  0  0  0  0
  -23.5233  -34.6221   23.0058 C   0  0  0  0  0  0  0  0  0  0  0  0
  -28.8474  -31.5519   26.0222 C   0  0  0  0  0  0  0  0  0  0  0  0
  -28.6690  -23.7239   17.4258 C   0  0  0  0  0  0  0  0  0  0  0  0
  -28.7545  -25.1024   18.1021 C   0  0  0  0  0  0  0  0  0  0  0  0
  -26.8313  -20.7114   19.8359 C   0  0  0  0  0  0  0  0  0  0  0  0
  -28.1415  -25.1226   19.4975 C   0  0  0  0  0  0  0  0  0  1  0  0
  -25.2477  -32.7842   22.8039 C   0  0  1  0  0  0  0  0  0  0  0  0
  -28.0312  -33.7592   25.1852 C   0  0  2  0  0  0  0  0  0  0  0  0
  -24.4500  -33.8691   22.0266 C   0  0  0  0  0  0  0  0  0  0  0  0
  -25.3988  -15.6828   20.6381 N   0  0  0  0  0  0  0  0  0  0  0  0
  -29.4259  -20.6957   19.5526 N   0  0  0  0  0  0  0  0  0  0  0  0
  -26.0241  -14.5385   20.9632 N   0  0  0  0  0  0  0  0  0  0  0  0
  -24.5612  -30.4132   22.9802 N   0  0  0  0  0  0  0  0  0  0  0  0
  -29.5423  -15.3518   19.6843 N   0  0  0  0  0  0  0  0  0  0  0  0
  -30.8683  -16.8350   21.0152 N   0  0  0  0  0  0  0  0  0  0  0  0
  -25.7693  -12.5305   22.1935 N   0  0  0  0  0  0  0  0  0  0  0  0
  -21.8693  -14.6926   22.9086 N   0  0  0  0  0  0  0  0  0  0  0  0
  -21.5931  -28.3525   22.4903 N   0  0  0  0  0  0  0  0  0  0  0  0
  -26.0567  -33.3075   23.8993 N   0  0  0  0  0  0  0  0  0  0  0  0
  -29.1878  -32.9547   25.6711 N   0  3  0  0  0  0  0  0  0  0  0  0
  -23.0618  -12.7945   23.3922 O   0  0  0  0  0  0  0  0  0  0  0  0
  -22.7689  -29.9155   21.2265 O   0  0  0  0  0  0  0  0  0  0  0  0
  -23.4963  -32.0661   24.2333 O   0  0  0  0  0  0  0  0  0  0  0  0
  -28.0884  -32.5061   23.1203 O   0  0  0  0  0  0  0  0  0  0  0  0
  -31.7379  -14.8848   20.1852 O   0  0  0  0  0  0  0  0  0  0  0  0
  -20.4406  -19.6723   20.8600 O   0  0  0  0  0  0  0  0  0  0  0  0
  -28.2532  -26.4378   20.0261 O   0  0  0  0  0  0  0  0  0  1  0  0
  -31.4326  -19.6595   20.0841 O   0  0  0  0  0  0  0  0  0  0  0  0
  -27.4213  -21.7238   19.0297 O   0  0  0  0  0  0  0  0  0  0  0  0
  -15.2023  -18.2266   19.9253 F   0  0  0  0  0  0  0  0  0  0  0  0
  -19.1086  -20.5493   18.6019 F   0  0  0  0  0  0  0  0  0  0  0  0
  1  2  1  0  0  0  0
  1  5  2  0  0  0  0
  2  6  2  0  0  0  0
  3  9  2  0  0  0  0
  3 17  1  0  0  0  0
  4 10  1  0  0  0  0
  4 17  2  0  0  0  0
  5 19  1  0  0  0  0
  6 21  1  0  0  0  0
  7 11  2  0  0  0  0
  7 20  1  0  0  0  0
  8 14  2  0  0  0  0
  8 23  1  0  0  0  0
  9 24  1  0  0  0  0
 10 24  2  0  0  0  0
 11 25  1  0  0  0  0
 12 13  2  0  0  0  0
 12 26  1  0  0  0  0
 13 27  1  0  0  0  0
 14 30  1  0  0  0  0
 15 22  1  0  0  0  0
 15 25  2  0  0  0  0
 16 27  2  0  0  0  0
 16 28  1  0  0  0  0
 17 29  1  0  0  0  0
 18 29  1  0  0  0  0
 18 32  2  0  0  0  0
 18 33  1  0  0  0  0
 19 21  2  0  0  0  0
 19 38  1  0  0  0  0
 20 22  2  0  0  0  0
 20 39  1  0  0  0  0
 21 50  1  0  0  0  0
 22 40  1  0  0  0  0
 23 31  2  0  0  0  0
 23 60  1  0  0  0  0
 24 83  1  0  0  0  0
 25 84  1  0  0  0  0
 26 28  2  0  0  0  0
 26 83  1  0  0  0  0
 27 87  1  0  0  0  0
 28 88  1  0  0  0  0
 29 67  2  0  0  0  0
 30 68  2  0  0  0  0
 30 85  1  0  0  0  0
 31 68  1  0  0  0  0
 31 86  1  0  0  0  0
 32 69  1  0  0  0  0
 32 73  1  0  0  0  0
 33 74  1  0  0  0  0
 33 78  2  0  0  0  0
 34 51  1  0  0  0  0
 34 75  1  0  0  0  0
 34 79  2  0  0  0  0
 35 64  1  0  0  0  0
 35 70  1  0  0  0  0
 35 80  2  0  0  0  0
 36 65  1  0  0  0  0
 36 76  1  0  0  0  0
 36 81  2  0  0  0  0
 37 71  1  0  0  0  0
 37 72  1  0  0  0  0
 37 82  2  0  0  0  0
 38 41  1  0  0  0  0
 39 51  1  0  0  0  0
 40 70  1  0  0  0  0
 41 43  1  0  0  0  0
 42 44  1  0  0  0  0
 42 46  1  0  0  0  0
 43 50  1  0  0  0  0
 44 52  1  0  0  0  0
 45 47  1  0  0  0  0
 45 53  1  0  0  0  0
 46 71  1  0  0  0  0
 47 72  1  0  0  0  0
 48 52  1  0  0  0  0
 48 71  1  0  0  0  0
 49 53  1  0  0  0  0
 49 72  1  0  0  0  0
 50 75  1  0  0  0  0
 51 70  1  0  0  0  0
 52 69  1  0  0  0  0
 53 85  1  0  0  0  0
 54 62  1  0  0  0  0
 55 65  1  0  0  0  0
 56 66  1  0  0  0  0
 57 66  1  0  0  0  0
 58 66  1  0  0  0  0
 59 77  1  0  0  0  0
 60 61  1  0  0  0  0
 61 63  1  0  0  0  0
 62 86  1  0  0  0  0
 63 84  1  0  0  0  0
 64 66  1  0  0  0  0
 64 76  1  0  0  0  0
 65 77  1  0  0  0  0
 67 69  1  0  0  0  0
M  CHG  1  77   1
M  ISO  4  37 100  63 101  72 100  84 101
M  END
> <Batch ID>
0153

> <Smiles>
CCOc1nc(OC2CC[100N:0]([100C:0](=O)N3CCCC(n4nc(-c5ccc(Oc6ccc(F)cc6F)cc5)c(C(N)=O)c4N)C3)C2)ccc1CC[101CH2:1][101O:1]c1ccc2c(c1)CN(C(=O)C(NC(=O)C(C)NC)C(C)(C)C)C(C(=O)NC1CCCc3ccccc31)C2

> <Shape>
0.258

> <Color>
0.118

> <Negative vol penalty>
0.000

$$$$

  -OEChem-04052321483D

 87 96  0     1  0  0  0  0  0999 V2000
  -28.6451  -36.5625   17.9400 C   0  0  0  0  0  0  0  0  0  0  0  0
  -28.8992  -35.1957   17.9903 C   0  0  0  0  0  0  0  0  0  0  0  0
  -23.9312  -10.3417   23.0499 C   0  0  0  0  0  0  0  0  0  0  0  0
  -23.7711  -12.6323   23.8014 C   0  0  0  0  0  0  0  0  0  0  0  0
  -27.9069  -37.1709   18.9544 C   0  0  0  0  0  0  0  0  0  0  0  0
  -28.4162  -34.4366   19.0556 C   0  0  0  0  0  0  0  0  0  0  0  0
  -26.4575  -28.6375   18.8539 C   0  0  0  0  0  0  0  0  0  0  0  0
  -31.6776  -21.2148   22.3652 C   0  0  0  0  0  0  0  0  0  0  0  0
  -23.3645   -9.9088   24.2486 C   0  0  0  0  0  0  0  0  0  0  0  0
  -23.2043  -12.1994   25.0002 C   0  0  0  0  0  0  0  0  0  0  0  0
  -27.0739  -27.4277   19.1706 C   0  0  0  0  0  0  0  0  0  0  0  0
  -30.9002  -22.3421   22.1101 C   0  0  0  0  0  0  0  0  0  0  0  0
  -20.2794   -9.7162   25.6190 C   0  0  0  0  0  0  0  0  0  0  0  0
  -19.2765   -8.7492   25.5499 C   0  0  0  0  0  0  0  0  0  0  0  0
  -26.0723  -27.4985   21.3640 C   0  0  0  0  0  0  0  0  0  0  0  0
  -29.2018  -20.9356   21.1316 C   0  0  0  0  0  0  0  0  0  0  0  0
  -20.6216   -7.2583   26.8935 C   0  0  0  0  0  0  0  0  0  0  0  0
  -24.1346  -11.7035   22.8263 C   0  0  0  0  0  0  0  0  0  0  0  0
  -24.0437  -12.4933   20.4023 C   0  0  0  0  0  0  0  0  0  0  0  0
  -27.4063  -36.4172   20.0276 C   0  0  0  0  0  0  0  0  0  0  0  0
  -25.6513  -29.2934   19.7953 C   0  0  0  0  0  0  0  0  0  0  0  0
  -31.2224  -19.9337   22.0116 C   0  0  0  0  0  0  0  0  0  0  0  0
  -27.6717  -35.0357   20.0859 C   0  0  0  0  0  0  0  0  0  0  0  0
  -25.4447  -28.7152   21.0559 C   0  0  0  0  0  0  0  0  0  0  0  0
  -29.9824  -19.7883   21.3577 C   0  0  0  0  0  0  0  0  0  0  0  0
  -23.0010  -10.8376   25.2238 C   0  0  0  0  0  0  0  0  0  0  0  0
  -26.8837  -26.8595   20.4268 C   0  0  0  0  0  0  0  0  0  0  0  0
  -29.6595  -22.2017   21.4993 C   0  0  0  0  0  0  0  0  0  0  0  0
  -21.4534   -9.4542   26.3252 C   0  0  0  0  0  0  0  0  0  0  0  0
  -19.4476   -7.5203   26.1872 C   0  0  0  0  0  0  0  0  0  0  0  0
  -21.6245   -8.2253   26.9625 C   0  0  0  0  0  0  0  0  0  0  0  0
  -24.7204  -12.1513   21.5884 C   0  0  0  0  0  0  0  0  0  0  0  0
  -25.0414  -12.8506   19.5286 C   0  0  0  0  0  0  0  0  0  0  0  0
  -22.6388  -12.4886   20.1160 C   0  0  0  0  0  0  0  0  0  0  0  0
  -25.7666  -32.1027   21.2780 C   0  0  0  0  0  0  0  0  0  0  0  0
  -22.8573  -31.1959   22.3900 C   0  0  0  0  0  0  0  0  0  0  0  0
  -20.6948  -28.6568   23.1132 C   0  0  0  0  0  0  0  0  0  0  0  0
  -30.6000  -14.9318   20.3171 C   0  0  0  0  0  0  0  0  0  0  0  0
  -26.6538  -37.1274   21.1249 C   0  0  0  0  0  0  0  0  0  0  0  0
  -32.1077  -18.7497   22.3070 C   0  0  0  0  0  0  0  0  0  0  0  0
  -24.9719  -30.5844   19.4289 C   0  0  0  0  0  0  0  0  0  0  0  0
  -24.5723  -29.3691   22.0950 C   0  0  0  0  0  0  0  0  0  0  0  0
  -25.8587  -36.1861   22.0260 C   0  0  0  0  0  0  0  0  0  0  0  0
  -31.3548  -17.4222   22.2884 C   0  0  0  0  0  0  0  0  0  0  0  0
  -29.6452  -11.9929   18.5486 C   0  0  0  0  0  0  0  0  0  0  0  0
  -26.7134  -34.9912   22.4365 C   0  0  0  0  0  0  0  0  0  0  0  0
  -28.2137  -11.7311   19.0201 C   0  0  0  0  0  0  0  0  0  0  0  0
  -30.5190  -12.5407   19.6748 C   0  0  0  0  0  0  0  0  0  0  0  0
  -28.5480  -13.4727   20.8240 C   0  0  0  0  0  0  0  0  0  0  0  0
  -27.1436  -34.1740   21.2123 C   0  0  1  0  0  0  0  0  0  0  0  0
  -29.4517  -18.4188   20.9750 C   0  0  2  0  0  0  0  0  0  0  0  0
  -24.5863  -31.4225   20.6439 C   0  0  1  0  0  0  0  0  0  0  0  0
  -27.6143  -12.9720   19.7087 C   0  0  2  0  0  0  0  0  0  0  0  0
  -30.5259  -17.3137   21.0101 C   0  0  2  0  0  0  0  0  0  0  0  0
  -18.4056  -28.2246   24.0461 C   0  0  0  0  0  0  0  0  0  0  0  0
  -23.9073  -31.7257   25.2055 C   0  0  0  0  0  0  0  0  0  0  0  0
  -21.9767  -30.4054   26.0986 C   0  0  0  0  0  0  0  0  0  0  0  0
  -21.5625  -32.4972   24.8042 C   0  0  0  0  0  0  0  0  0  0  0  0
  -19.7788  -27.4011   20.5947 C   0  0  0  0  0  0  0  0  0  0  0  0
  -29.8470  -18.3575   18.5173 C   0  0  0  0  0  0  0  0  0  0  0  0
  -27.8424  -17.2403   19.4839 C   0  0  0  0  0  0  0  0  0  0  0  0
  -28.7322  -25.3981   20.1054 C   0  0  0  0  0  0  0  0  0  1  0  0
  -29.5698  -24.5303   21.0246 C   0  0  0  0  0  0  0  0  0  0  0  0
  -22.3643  -30.4281   23.5926 C   0  0  1  0  0  0  0  0  0  0  0  0
  -19.2251  -28.4619   22.7871 C   0  0  2  0  0  0  0  0  0  0  0  0
  -22.4707  -31.2525   24.9065 C   0  0  0  0  0  0  0  0  0  0  0  0
  -26.0456  -12.2796   21.4813 N   0  0  0  0  0  0  0  0  0  0  0  0
  -26.2096  -12.7061   20.2175 N   0  0  0  0  0  0  0  0  0  0  0  0
  -23.9349  -30.6333   21.6913 N   0  0  0  0  0  0  0  0  0  0  0  0
  -29.8949  -13.7174   20.2847 N   0  0  0  0  0  0  0  0  0  0  0  0
  -25.0246  -13.2710   18.2458 N   0  0  0  0  0  0  0  0  0  0  0  0
  -21.7522  -12.0941   21.1272 N   0  0  0  0  0  0  0  0  0  0  0  0
  -26.0509  -33.3466   20.7476 N   0  0  0  0  0  0  0  0  0  0  0  0
  -21.0106  -29.9898   23.2702 N   0  0  0  0  0  0  0  0  0  0  0  0
  -29.9335  -15.9987   20.9073 N   0  0  0  0  0  0  0  0  0  0  0  0
  -19.0461  -27.2913   21.8823 N   0  3  0  0  0  0  0  0  0  0  0  0
  -28.8204  -18.3737   19.6145 N   0  3  0  0  0  0  0  0  0  0  0  0
  -22.1843  -12.8086   18.9915 O   0  0  0  0  0  0  0  0  0  0  0  0
  -26.3734  -31.5412   22.1826 O   0  0  0  0  0  0  0  0  0  0  0  0
  -22.3021  -32.2523   22.0777 O   0  0  0  0  0  0  0  0  0  0  0  0
  -21.4830  -27.7201   23.2218 O   0  0  0  0  0  0  0  0  0  0  0  0
  -31.7369  -15.0575   19.8496 O   0  0  0  0  0  0  0  0  0  0  0  0
  -22.4478  -10.4156   26.3935 O   0  0  0  0  0  0  0  0  0  0  0  0
  -27.4846  -25.6791   20.7387 O   0  0  0  0  0  0  0  0  0  1  0  0
  -28.8848  -23.3060   21.2593 O   0  0  0  0  0  0  0  0  0  0  0  0
  -18.4838   -6.5923   26.1221 F   0  0  0  0  0  0  0  0  0  0  0  0
  -22.7496   -7.9683   27.6435 F   0  0  0  0  0  0  0  0  0  0  0  0
  1  2  1  0  0  0  0
  1  5  2  0  0  0  0
  2  6  2  0  0  0  0
  3  9  2  0  0  0  0
  3 18  1  0  0  0  0
  4 10  1  0  0  0  0
  4 18  2  0  0  0  0
  5 20  1  0  0  0  0
  6 23  1  0  0  0  0
  7 11  2  0  0  0  0
  7 21  1  0  0  0  0
  8 12  2  0  0  0  0
  8 22  1  0  0  0  0
  9 26  1  0  0  0  0
 10 26  2  0  0  0  0
 11 27  1  0  0  0  0
 12 28  1  0  0  0  0
 13 14  2  0  0  0  0
 13 29  1  0  0  0  0
 14 30  1  0  0  0  0
 15 24  1  0  0  0  0
 15 27  2  0  0  0  0
 16 25  1  0  0  0  0
 16 28  2  0  0  0  0
 17 30  2  0  0  0  0
 17 31  1  0  0  0  0
 18 32  1  0  0  0  0
 19 32  1  0  0  0  0
 19 33  2  0  0  0  0
 19 34  1  0  0  0  0
 20 23  2  0  0  0  0
 20 39  1  0  0  0  0
 21 24  2  0  0  0  0
 21 41  1  0  0  0  0
 22 25  2  0  0  0  0
 22 40  1  0  0  0  0
 23 50  1  0  0  0  0
 24 42  1  0  0  0  0
 25 51  1  0  0  0  0
 26 83  1  0  0  0  0
 27 84  1  0  0  0  0
 28 85  1  0  0  0  0
 29 31  2  0  0  0  0
 29 83  1  0  0  0  0
 30 86  1  0  0  0  0
 31 87  1  0  0  0  0
 32 67  2  0  0  0  0
 33 68  1  0  0  0  0
 33 71  1  0  0  0  0
 34 72  1  0  0  0  0
 34 78  2  0  0  0  0
 35 52  1  0  0  0  0
 35 73  1  0  0  0  0
 35 79  2  0  0  0  0
 36 64  1  0  0  0  0
 36 69  1  0  0  0  0
 36 80  2  0  0  0  0
 37 65  1  0  0  0  0
 37 74  1  0  0  0  0
 37 81  2  0  0  0  0
 38 70  1  0  0  0  0
 38 75  1  0  0  0  0
 38 82  2  0  0  0  0
 39 43  1  0  0  0  0
 40 44  1  0  0  0  0
 41 52  1  0  0  0  0
 42 69  1  0  0  0  0
 43 46  1  0  0  0  0
 44 54  1  0  0  0  0
 45 47  1  0  0  0  0
 45 48  1  0  0  0  0
 46 50  1  0  0  0  0
 47 53  1  0  0  0  0
 48 70  1  0  0  0  0
 49 53  1  0  0  0  0
 49 70  1  0  0  0  0
 50 73  1  0  0  0  0
 51 54  1  0  0  0  0
 51 77  1  0  0  0  0
 52 69  1  0  0  0  0
 53 68  1  0  0  0  0
 54 75  1  0  0  0  0
 55 65  1  0  0  0  0
 56 66  1  0  0  0  0
 57 66  1  0  0  0  0
 58 66  1  0  0  0  0
 59 76  1  0  0  0  0
 60 77  1  0  0  0  0
 61 77  1  0  0  0  0
 62 63  1  0  0  0  0
 62 84  1  0  0  0  0
 63 85  1  0  0  0  0
 64 66  1  0  0  0  0
 64 74  1  0  0  0  0
 65 76  1  0  0  0  0
 67 68  1  0  0  0  0
M  CHG  2  76   1  77   1
M  ISO  4  38 100  62 101  75 100  84 101
M  END
> <Batch ID>
0153

> <Smiles>
CNC(C)C(=O)NC(C(=O)N1Cc2cc([101O:1][101CH2:1]COc3ccc4c(c3)C(N(C)C)C([100NH:0][100C:0](=O)N3CCCC(n5nc(-c6ccc(Oc7ccc(F)cc7F)cc6)c(C(N)=O)c5N)C3)CC4)ccc2CC1C(=O)NC1CCCc2ccccc21)C(C)(C)C

> <Shape>
0.279

> <Color>
0.106

> <Negative vol penalty>
0.000

$$$$

  -OEChem-04052321483D

 86 95  0     1  0  0  0  0  0999 V2000
  -27.0791  -37.7295   24.0189 C   0  0  0  0  0  0  0  0  0  0  0  0
  -27.7731  -36.7239   23.3536 C   0  0  0  0  0  0  0  0  0  0  0  0
  -23.6606  -10.4748   22.4499 C   0  0  0  0  0  0  0  0  0  0  0  0
  -24.4648   -8.6185   21.1292 C   0  0  0  0  0  0  0  0  0  0  0  0
  -25.9620  -37.4113   24.7901 C   0  0  0  0  0  0  0  0  0  0  0  0
  -27.3509  -35.3992   23.4601 C   0  0  0  0  0  0  0  0  0  0  0  0
  -28.2601  -21.6714   19.1809 C   0  0  0  0  0  0  0  0  0  0  0  0
  -27.0491  -29.3158   19.6895 C   0  0  0  0  0  0  0  0  0  0  0  0
  -28.0859  -23.0480   19.0392 C   0  0  0  0  0  0  0  0  0  0  0  0
  -22.5226   -9.7421   22.7869 C   0  0  0  0  0  0  0  0  0  0  0  0
  -23.3268   -7.8857   21.4662 C   0  0  0  0  0  0  0  0  0  0  0  0
  -27.4012  -27.9702   19.7859 C   0  0  0  0  0  0  0  0  0  0  0  0
  -20.8057   -5.3927   22.2707 C   0  0  0  0  0  0  0  0  0  0  0  0
  -20.9792   -4.0614   22.6491 C   0  0  0  0  0  0  0  0  0  0  0  0
  -25.4109  -27.5485   21.0822 C   0  0  0  0  0  0  0  0  0  0  0  0
  -22.3798   -4.7664   24.4872 C   0  0  0  0  0  0  0  0  0  0  0  0
  -24.6317   -9.9131   21.6210 C   0  0  0  0  0  0  0  0  0  0  0  0
  -27.0316  -10.7063   21.9658 C   0  0  0  0  0  0  0  0  0  0  0  0
  -25.5202  -36.0832   24.8982 C   0  0  0  0  0  0  0  0  0  0  0  0
  -25.8788  -29.7907   20.2990 C   0  0  0  0  0  0  0  0  0  0  0  0
  -26.2277  -35.0627   24.2346 C   0  0  0  0  0  0  0  0  0  0  0  0
  -28.6740  -21.1429   20.4037 C   0  0  0  0  0  0  0  0  0  0  0  0
  -25.0449  -28.9000   20.9898 C   0  0  0  0  0  0  0  0  0  0  0  0
  -28.3258  -23.8963   20.1201 C   0  0  0  0  0  0  0  0  0  0  0  0
  -28.7398  -23.3679   21.3429 C   0  0  0  0  0  0  0  0  0  0  0  0
  -22.3557   -8.4475   22.2951 C   0  0  0  0  0  0  0  0  0  0  0  0
  -26.5836  -27.0869   20.4848 C   0  0  0  0  0  0  0  0  0  0  0  0
  -21.4193   -6.4108   23.0005 C   0  0  0  0  0  0  0  0  0  0  0  0
  -28.9139  -21.9912   21.4847 C   0  0  0  0  0  0  0  0  0  0  0  0
  -21.7662   -3.7483   23.7574 C   0  0  0  0  0  0  0  0  0  0  0  0
  -22.2063   -6.0977   24.1087 C   0  0  0  0  0  0  0  0  0  0  0  0
  -25.8072  -10.6697   21.2720 C   0  0  0  0  0  0  0  0  0  0  0  0
  -27.8152  -11.5651   21.2343 C   0  0  0  0  0  0  0  0  0  0  0  0
  -27.4254  -10.0249   23.1642 C   0  0  0  0  0  0  0  0  0  0  0  0
  -25.2388  -31.9107   22.5793 C   0  0  0  0  0  0  0  0  0  0  0  0
  -22.1648  -31.3018   21.7413 C   0  0  0  0  0  0  0  0  0  0  0  0
  -19.9149  -29.1503   20.3429 C   0  0  0  0  0  0  0  0  0  0  0  0
  -28.6214  -16.1669   18.3718 C   0  0  0  0  0  0  0  0  0  0  0  0
  -24.3355  -35.7819   25.7816 C   0  0  0  0  0  0  0  0  0  0  0  0
  -25.4993  -31.2398   20.1631 C   0  0  0  0  0  0  0  0  0  0  0  0
  -23.7674  -29.3556   21.6448 C   0  0  0  0  0  0  0  0  0  0  0  0
  -23.7311  -34.4011   25.5400 C   0  0  0  0  0  0  0  0  0  0  0  0
  -27.1269  -13.5692   16.6494 C   0  0  0  0  0  0  0  0  0  0  0  0
  -24.8277  -33.3430   25.4709 C   0  0  0  0  0  0  0  0  0  0  0  0
  -26.7467  -12.5763   17.7476 C   0  0  0  0  0  0  0  0  0  0  0  0
  -27.5386  -18.8790   20.3185 C   0  0  0  0  0  0  0  0  0  0  0  0
  -29.9549  -19.1096   19.5990 C   0  0  0  0  0  0  0  0  0  0  0  0
  -26.8517  -15.0021   17.0902 C   0  0  0  0  0  0  0  0  0  0  0  0
  -27.7371  -17.3641   20.4225 C   0  0  0  0  0  0  0  0  0  0  0  0
  -30.1032  -17.5979   19.7448 C   0  0  0  0  0  0  0  0  0  0  0  0
  -27.1687  -14.4014   19.4686 C   0  0  0  0  0  0  0  0  0  0  0  0
  -28.8570  -19.6429   20.5371 C   0  0  0  0  0  0  0  0  0  0  0  0
  -25.7860  -33.6170   24.3055 C   0  0  1  0  0  0  0  0  0  0  0  0
  -24.5495  -31.7140   21.2587 C   0  0  1  0  0  0  0  0  0  0  0  0
  -27.4335  -12.9332   19.0778 C   0  0  1  0  0  0  0  0  0  0  0  0
  -28.9969  -24.2744   22.5044 C   0  0  0  0  0  0  0  0  0  0  0  0
  -17.4689  -28.9141   19.8342 C   0  0  0  0  0  0  0  0  0  0  0  0
  -21.6138  -30.7011   24.6816 C   0  0  0  0  0  0  0  0  0  0  0  0
  -19.4866  -29.5814   23.9822 C   0  0  0  0  0  0  0  0  0  0  0  0
  -19.8215  -32.0118   23.5310 C   0  0  0  0  0  0  0  0  0  0  0  0
  -20.4200  -28.9573   17.4332 C   0  0  0  0  0  0  0  0  0  0  0  0
  -28.2948  -21.1124   23.6060 C   0  0  0  0  0  0  0  0  0  0  0  0
  -28.1341  -25.3670   19.9428 C   0  0  0  0  0  0  0  0  0  1  0  0
  -21.1137  -30.3106   22.1789 C   0  0  1  0  0  0  0  0  0  0  0  0
  -18.8233  -29.3653   19.3101 C   0  0  2  0  0  0  0  0  0  0  0  0
  -20.5339  -30.6427   23.5828 C   0  0  0  0  0  0  0  0  0  0  0  0
  -25.8080  -11.4438   20.1835 N   0  0  0  0  0  0  0  0  0  0  0  0
  -27.0425  -11.9750   20.1879 N   0  0  0  0  0  0  0  0  0  0  0  0
  -23.4428  -30.7832   21.4892 N   0  0  0  0  0  0  0  0  0  0  0  0
  -27.5177  -15.3008   18.3579 N   0  0  0  0  0  0  0  0  0  0  0  0
  -28.8233  -16.9209   19.5376 N   0  0  0  0  0  0  0  0  0  0  0  0
  -29.0828  -12.0021   21.3907 N   0  0  0  0  0  0  0  0  0  0  0  0
  -26.4975   -9.1800   23.7881 N   0  0  0  0  0  0  0  0  0  0  0  0
  -25.1881  -33.2079   23.0526 N   0  0  0  0  0  0  0  0  0  0  0  0
  -20.1172  -30.2754   21.1140 N   0  0  0  0  0  0  0  0  0  0  0  0
  -19.1263  -28.5981   18.0689 N   0  3  0  0  0  0  0  0  0  0  0  0
  -28.5610  -10.1740   23.6760 O   0  0  0  0  0  0  0  0  0  0  0  0
  -25.7756  -30.9559   23.1287 O   0  0  0  0  0  0  0  0  0  0  0  0
  -21.8613  -32.4913   21.6205 O   0  0  0  0  0  0  0  0  0  0  0  0
  -20.5243  -28.0891   20.4569 O   0  0  0  0  0  0  0  0  0  0  0  0
  -29.3824  -16.2610   17.4006 O   0  0  0  0  0  0  0  0  0  0  0  0
  -21.2455   -7.7321   22.6239 O   0  0  0  0  0  0  0  0  0  0  0  0
  -29.3170  -21.4728   22.6801 O   0  0  0  0  0  0  0  0  0  0  0  0
  -26.9278  -25.7638   20.5817 O   0  0  0  0  0  0  0  0  0  1  0  0
  -21.9315   -2.4699   24.1216 F   0  0  0  0  0  0  0  0  0  0  0  0
  -22.7973   -7.0716   24.8144 F   0  0  0  0  0  0  0  0  0  0  0  0
  1  2  1  0  0  0  0
  1  5  2  0  0  0  0
  2  6  2  0  0  0  0
  3 10  2  0  0  0  0
  3 17  1  0  0  0  0
  4 11  1  0  0  0  0
  4 17  2  0  0  0  0
  5 19  1  0  0  0  0
  6 21  1  0  0  0  0
  7  9  2  0  0  0  0
  7 22  1  0  0  0  0
  8 12  2  0  0  0  0
  8 20  1  0  0  0  0
  9 24  1  0  0  0  0
 10 26  1  0  0  0  0
 11 26  2  0  0  0  0
 12 27  1  0  0  0  0
 13 14  2  0  0  0  0
 13 28  1  0  0  0  0
 14 30  1  0  0  0  0
 15 23  1  0  0  0  0
 15 27  2  0  0  0  0
 16 30  2  0  0  0  0
 16 31  1  0  0  0  0
 17 32  1  0  0  0  0
 18 32  1  0  0  0  0
 18 33  2  0  0  0  0
 18 34  1  0  0  0  0
 19 21  2  0  0  0  0
 19 39  1  0  0  0  0
 20 23  2  0  0  0  0
 20 40  1  0  0  0  0
 21 53  1  0  0  0  0
 22 29  2  0  0  0  0
 22 52  1  0  0  0  0
 23 41  1  0  0  0  0
 24 25  2  0  0  0  0
 24 63  1  0  0  0  0
 25 29  1  0  0  0  0
 25 56  1  0  0  0  0
 26 82  1  0  0  0  0
 27 84  1  0  0  0  0
 28 31  2  0  0  0  0
 28 82  1  0  0  0  0
 29 83  1  0  0  0  0
 30 85  1  0  0  0  0
 31 86  1  0  0  0  0
 32 67  2  0  0  0  0
 33 68  1  0  0  0  0
 33 72  1  0  0  0  0
 34 73  1  0  0  0  0
 34 77  2  0  0  0  0
 35 54  1  0  0  0  0
 35 74  1  0  0  0  0
 35 78  2  0  0  0  0
 36 64  1  0  0  0  0
 36 69  1  0  0  0  0
 36 79  2  0  0  0  0
 37 65  1  0  0  0  0
 37 75  1  0  0  0  0
 37 80  2  0  0  0  0
 38 70  1  0  0  0  0
 38 71  1  0  0  0  0
 38 81  2  0  0  0  0
 39 42  1  0  0  0  0
 40 54  1  0  0  0  0
 41 69  1  0  0  0  0
 42 44  1  0  0  0  0
 43 45  1  0  0  0  0
 43 48  1  0  0  0  0
 44 53  1  0  0  0  0
 45 55  1  0  0  0  0
 46 49  1  0  0  0  0
 46 52  1  0  0  0  0
 47 50  1  0  0  0  0
 47 52  1  0  0  0  0
 48 70  1  0  0  0  0
 49 71  1  0  0  0  0
 50 71  1  0  0  0  0
 51 55  1  0  0  0  0
 51 70  1  0  0  0  0
 53 74  1  0  0  0  0
 54 69  1  0  0  0  0
 55 68  1  0  0  0  0
 57 65  1  0  0  0  0
 58 66  1  0  0  0  0
 59 66  1  0  0  0  0
 60 66  1  0  0  0  0
 61 76  1  0  0  0  0
 62 83  1  0  0  0  0
 63 84  1  0  0  0  0
 64 66  1  0  0  0  0
 64 75  1  0  0  0  0
 65 76  1  0  0  0  0
 67 68  1  0  0  0  0
M  CHG  1  76   1
M  ISO  4  38 100  63 101  71 100  84 101
M  END
> <Batch ID>
0153

> <Smiles>
CNC(C)C(=O)NC(C(=O)N1Cc2cc([101O:1][101CH2:1]c3ccc(C4CC[100N:0]([100C:0](=O)N5CCCC(n6nc(-c7ccc(Oc8ccc(F)cc8F)cc7)c(C(N)=O)c6N)C5)CC4)c(OC)c3C)ccc2CC1C(=O)NC1CCCc2ccccc21)C(C)(C)C

> <Shape>
0.326

> <Color>
0.087

> <Negative vol penalty>
0.000

$$$$

  -OEChem-04052321483D

 89 98  0     1  0  0  0  0  0999 V2000
  -26.8109  -38.0955   21.1977 C   0  0  0  0  0  0  0  0  0  0  0  0
  -27.3694  -37.0470   20.4737 C   0  0  0  0  0  0  0  0  0  0  0  0
  -22.6618  -16.8621   21.5827 C   0  0  0  0  0  0  0  0  0  0  0  0
  -22.7885  -14.4525   21.7056 C   0  0  0  0  0  0  0  0  0  0  0  0
  -26.1907  -37.8440   22.4209 C   0  0  0  0  0  0  0  0  0  0  0  0
  -27.3091  -35.7465   20.9731 C   0  0  0  0  0  0  0  0  0  0  0  0
  -26.7770  -28.9457   18.7861 C   0  0  0  0  0  0  0  0  0  0  0  0
  -21.7039  -16.8635   22.5965 C   0  0  0  0  0  0  0  0  0  0  0  0
  -21.8306  -14.4539   22.7195 C   0  0  0  0  0  0  0  0  0  0  0  0
  -27.4075  -27.7120   18.9413 C   0  0  0  0  0  0  0  0  0  0  0  0
  -18.4711  -14.7385   22.9724 C   0  0  0  0  0  0  0  0  0  0  0  0
  -17.4378  -13.8054   22.8888 C   0  0  0  0  0  0  0  0  0  0  0  0
  -26.2415  -27.3853   21.0276 C   0  0  0  0  0  0  0  0  0  0  0  0
  -30.5831  -23.7937   19.6940 C   0  0  0  0  0  0  0  0  0  0  0  0
  -28.3452  -22.8838   19.6711 C   0  0  0  0  0  0  0  0  0  0  0  0
  -18.1193  -12.8611   25.0057 C   0  0  0  0  0  0  0  0  0  0  0  0
  -23.2041  -15.6566   21.1371 C   0  0  0  0  0  0  0  0  0  0  0  0
  -24.0428  -16.1416   18.7773 C   0  0  0  0  0  0  0  0  0  0  0  0
  -26.1143  -36.5383   22.9309 C   0  0  0  0  0  0  0  0  0  0  0  0
  -25.8808  -29.4142   19.7575 C   0  0  0  0  0  0  0  0  0  0  0  0
  -26.6886  -35.4774   22.2048 C   0  0  0  0  0  0  0  0  0  0  0  0
  -25.5990  -28.6242   20.8811 C   0  0  0  0  0  0  0  0  0  0  0  0
  -29.2095  -23.9690   19.5267 C   0  0  0  0  0  0  0  0  0  0  0  0
  -31.0926  -22.5331   20.0056 C   0  0  0  0  0  0  0  0  0  0  0  0
  -30.2283  -21.4479   20.1500 C   0  0  0  0  0  0  0  0  0  0  0  0
  -21.2883  -15.6594   23.1649 C   0  0  0  0  0  0  0  0  0  0  0  0
  -27.1420  -26.9329   20.0636 C   0  0  0  0  0  0  0  0  0  0  0  0
  -19.3287  -14.7328   24.0726 C   0  0  0  0  0  0  0  0  0  0  0  0
  -28.8546  -21.6231   19.9828 C   0  0  0  0  0  0  0  0  0  0  0  0
  -17.2618  -12.8667   23.9055 C   0  0  0  0  0  0  0  0  0  0  0  0
  -19.1527  -13.7942   25.0892 C   0  0  0  0  0  0  0  0  0  0  0  0
  -24.1933  -15.6545   20.0895 C   0  0  0  0  0  0  0  0  0  0  0  0
  -25.2593  -15.9095   18.1833 C   0  0  0  0  0  0  0  0  0  0  0  0
  -22.9052  -16.7496   18.1513 C   0  0  0  0  0  0  0  0  0  0  0  0
  -25.7907  -31.9290   21.6995 C   0  0  0  0  0  0  0  0  0  0  0  0
  -22.8375  -30.7875   22.4051 C   0  0  0  0  0  0  0  0  0  0  0  0
  -20.7119  -28.1197   22.5119 C   0  0  0  0  0  0  0  0  0  0  0  0
  -30.8049  -15.2893   20.3542 C   0  0  0  0  0  0  0  0  0  0  0  0
  -25.4756  -36.3222   24.2800 C   0  0  0  0  0  0  0  0  0  0  0  0
  -25.1886  -30.7353   19.5621 C   0  0  0  0  0  0  0  0  0  0  0  0
  -24.6294  -29.0727   21.9428 C   0  0  0  0  0  0  0  0  0  0  0  0
  -25.1242  -34.8634   24.5608 C   0  0  0  0  0  0  0  0  0  0  0  0
  -29.0100  -12.9447   18.3647 C   0  0  0  0  0  0  0  0  0  0  0  0
  -26.2926  -33.9531   24.1962 C   0  0  0  0  0  0  0  0  0  0  0  0
  -27.5584  -13.4173   18.4628 C   0  0  0  0  0  0  0  0  0  0  0  0
  -32.1227  -18.2544   19.7784 C   0  0  0  0  0  0  0  0  0  0  0  0
  -31.3474  -18.4879   22.1481 C   0  0  0  0  0  0  0  0  0  0  0  0
  -29.7595  -13.1472   19.6798 C   0  0  0  0  0  0  0  0  0  0  0  0
  -31.1010  -19.3042   19.3409 C   0  0  0  0  0  0  0  0  0  0  0  0
  -30.3168  -19.5276   21.7075 C   0  0  0  0  0  0  0  0  0  0  0  0
  -28.2541  -14.9917   20.3164 C   0  0  0  0  0  0  0  0  0  0  0  0
  -26.6215  -34.0495   22.7015 C   0  0  1  0  0  0  0  0  0  0  0  0
  -24.6849  -31.3446   20.8669 C   0  0  1  0  0  0  0  0  0  0  0  0
  -27.4732  -14.8594   18.9977 C   0  0  2  0  0  0  0  0  0  0  0  0
  -31.7022  -17.4995   21.0390 C   0  0  0  0  0  0  0  0  0  0  0  0
  -33.1132  -23.2136   21.3501 C   0  0  0  0  0  0  0  0  0  0  0  0
  -33.3483  -22.7009   18.8931 C   0  0  0  0  0  0  0  0  0  0  0  0
  -18.3744  -27.4885   23.1717 C   0  0  0  0  0  0  0  0  0  0  0  0
  -23.6538  -30.8467   25.3445 C   0  0  0  0  0  0  0  0  0  0  0  0
  -21.7061  -29.3548   25.8435 C   0  0  0  0  0  0  0  0  0  0  0  0
  -21.3217  -31.6291   24.8936 C   0  0  0  0  0  0  0  0  0  0  0  0
  -20.0307  -27.2971   19.7517 C   0  0  0  0  0  0  0  0  0  0  0  0
  -26.6059  -20.8509   19.9303 C   0  0  0  0  0  0  0  0  0  0  0  0
  -28.6618  -25.3250   19.1911 C   0  0  0  0  0  0  0  0  0  1  0  0
  -32.5682  -22.3753   20.1796 C   0  0  0  0  0  0  0  0  0  0  0  0
  -22.2808  -29.8150   23.4167 C   0  0  1  0  0  0  0  0  0  0  0  0
  -19.2782  -27.9546   22.0409 C   0  0  2  0  0  0  0  0  0  0  0  0
  -22.2604  -30.4036   24.8557 C   0  0  0  0  0  0  0  0  0  0  0  0
  -25.4094  -15.1508   20.3162 N   0  0  0  0  0  0  0  0  0  0  0  0
  -26.0341  -15.3201   19.1384 N   0  0  0  0  0  0  0  0  0  0  0  0
  -30.7360  -20.1800   20.4626 N   0  0  0  0  0  0  0  0  0  0  0  0
  -23.9827  -30.3746   21.7097 N   0  0  0  0  0  0  0  0  0  0  0  0
  -29.6407  -14.5356   20.1315 N   0  0  0  0  0  0  0  0  0  0  0  0
  -25.7310  -16.1540   16.9422 N   0  0  0  0  0  0  0  0  0  0  0  0
  -21.7352  -16.9125   18.9056 N   0  0  0  0  0  0  0  0  0  0  0  0
  -25.6684  -33.2870   21.9240 N   0  0  0  0  0  0  0  0  0  0  0  0
  -20.9706  -29.4119   22.9174 N   0  0  0  0  0  0  0  0  0  0  0  0
  -30.6029  -16.5981   20.7748 N   0  0  0  0  0  0  0  0  0  0  0  0
  -19.2069  -26.9534   20.9393 N   0  3  0  0  0  0  0  0  0  0  0  0
  -22.9204  -17.1221   16.9536 O   0  0  0  0  0  0  0  0  0  0  0  0
  -26.6876  -31.2015   22.1093 O   0  0  0  0  0  0  0  0  0  0  0  0
  -22.2727  -31.8706   22.2331 O   0  0  0  0  0  0  0  0  0  0  0  0
  -21.5202  -27.1940   22.5227 O   0  0  0  0  0  0  0  0  0  0  0  0
  -31.9401  -14.8315   20.1851 O   0  0  0  0  0  0  0  0  0  0  0  0
  -20.3537  -15.6604   24.1545 O   0  0  0  0  0  0  0  0  0  0  0  0
  -27.9923  -20.5764   20.1194 O   0  0  0  0  0  0  0  0  0  0  0  0
  -27.7565  -25.7285   20.2178 O   0  0  0  0  0  0  0  0  0  1  0  0
  -16.2684  -11.9717   23.8258 F   0  0  0  0  0  0  0  0  0  0  0  0
  -19.9726  -13.7846   26.1491 F   0  0  0  0  0  0  0  0  0  0  0  0
  1  2  1  0  0  0  0
  1  5  2  0  0  0  0
  2  6  2  0  0  0  0
  3  8  2  0  0  0  0
  3 17  1  0  0  0  0
  4  9  1  0  0  0  0
  4 17  2  0  0  0  0
  5 19  1  0  0  0  0
  6 21  1  0  0  0  0
  7 10  2  0  0  0  0
  7 20  1  0  0  0  0
  8 26  1  0  0  0  0
  9 26  2  0  0  0  0
 10 27  1  0  0  0  0
 11 12  2  0  0  0  0
 11 28  1  0  0  0  0
 12 30  1  0  0  0  0
 13 22  1  0  0  0  0
 13 27  2  0  0  0  0
 14 23  2  0  0  0  0
 14 24  1  0  0  0  0
 15 23  1  0  0  0  0
 15 29  2  0  0  0  0
 16 30  2  0  0  0  0
 16 31  1  0  0  0  0
 17 32  1  0  0  0  0
 18 32  1  0  0  0  0
 18 33  2  0  0  0  0
 18 34  1  0  0  0  0
 19 21  2  0  0  0  0
 19 39  1  0  0  0  0
 20 22  2  0  0  0  0
 20 40  1  0  0  0  0
 21 52  1  0  0  0  0
 22 41  1  0  0  0  0
 23 64  1  0  0  0  0
 24 25  2  0  0  0  0
 24 65  1  0  0  0  0
 25 29  1  0  0  0  0
 25 71  1  0  0  0  0
 26 85  1  0  0  0  0
 27 87  1  0  0  0  0
 28 31  2  0  0  0  0
 28 85  1  0  0  0  0
 29 86  1  0  0  0  0
 30 88  1  0  0  0  0
 31 89  1  0  0  0  0
 32 69  2  0  0  0  0
 33 70  1  0  0  0  0
 33 74  1  0  0  0  0
 34 75  1  0  0  0  0
 34 80  2  0  0  0  0
 35 53  1  0  0  0  0
 35 76  1  0  0  0  0
 35 81  2  0  0  0  0
 36 66  1  0  0  0  0
 36 72  1  0  0  0  0
 36 82  2  0  0  0  0
 37 67  1  0  0  0  0
 37 77  1  0  0  0  0
 37 83  2  0  0  0  0
 38 73  1  0  0  0  0
 38 78  1  0  0  0  0
 38 84  2  0  0  0  0
 39 42  1  0  0  0  0
 40 53  1  0  0  0  0
 41 72  1  0  0  0  0
 42 44  1  0  0  0  0
 43 45  1  0  0  0  0
 43 48  1  0  0  0  0
 44 52  1  0  0  0  0
 45 54  1  0  0  0  0
 46 49  1  0  0  0  0
 46 55  1  0  0  0  0
 47 50  1  0  0  0  0
 47 55  1  0  0  0  0
 48 73  1  0  0  0  0
 49 71  1  0  0  0  0
 50 71  1  0  0  0  0
 51 54  1  0  0  0  0
 51 73  1  0  0  0  0
 52 76  1  0  0  0  0
 53 72  1  0  0  0  0
 54 70  1  0  0  0  0
 55 78  1  0  0  0  0
 56 65  1  0  0  0  0
 57 65  1  0  0  0  0
 58 67  1  0  0  0  0
 59 68  1  0  0  0  0
 60 68  1  0  0  0  0
 61 68  1  0  0  0  0
 62 79  1  0  0  0  0
 63 86  1  0  0  0  0
 64 87  1  0  0  0  0
 66 68  1  0  0  0  0
 66 77  1  0  0  0  0
 67 79  1  0  0  0  0
 69 70  1  0  0  0  0
M  CHG  1  79   1
M  ISO  4  38 100  64 101  78 100  87 101
M  END
> <Batch ID>
0153

> <Smiles>
CNC(C)C(=O)NC(C(=O)N1Cc2cc([101O:1][101CH2:1]c3cc(OC)c(N4CCC([100NH:0][100C:0](=O)N5CCCC(n6nc(-c7ccc(Oc8ccc(F)cc8F)cc7)c(C(N)=O)c6N)C5)CC4)c(C(C)C)c3)ccc2CC1C(=O)NC1CCCc2ccccc21)C(C)(C)C

> <Shape>
0.273

> <Color>
0.091

> <Negative vol penalty>
0.000

$$$$

  -OEChem-04052321483D

 88 97  0     1  0  0  0  0  0999 V2000
  -29.6360  -34.5858   26.7531 C   0  0  0  0  0  0  0  0  0  0  0  0
  -29.3007  -33.3710   26.1637 C   0  0  0  0  0  0  0  0  0  0  0  0
  -23.1788   -9.7662   21.2792 C   0  0  0  0  0  0  0  0  0  0  0  0
  -23.8411  -10.5918   23.4510 C   0  0  0  0  0  0  0  0  0  0  0  0
  -28.6527  -35.5512   26.9653 C   0  0  0  0  0  0  0  0  0  0  0  0
  -27.9816  -33.1206   25.7871 C   0  0  0  0  0  0  0  0  0  0  0  0
  -27.6372  -31.0410   21.1826 C   0  0  0  0  0  0  0  0  0  0  0  0
  -22.4596   -8.7385   21.8892 C   0  0  0  0  0  0  0  0  0  0  0  0
  -23.1218   -9.5641   24.0611 C   0  0  0  0  0  0  0  0  0  0  0  0
  -27.9185  -29.6796   21.0761 C   0  0  0  0  0  0  0  0  0  0  0  0
  -20.7436   -5.6850   22.8668 C   0  0  0  0  0  0  0  0  0  0  0  0
  -20.8767   -4.3990   22.3434 C   0  0  0  0  0  0  0  0  0  0  0  0
  -25.5547  -29.1983   21.0651 C   0  0  0  0  0  0  0  0  0  0  0  0
  -27.4016  -22.5373   19.9820 C   0  0  0  0  0  0  0  0  0  0  0  0
  -27.7933  -22.8776   22.3416 C   0  0  0  0  0  0  0  0  0  0  0  0
  -23.2488   -4.4595   22.7982 C   0  0  0  0  0  0  0  0  0  0  0  0
  -23.8696  -10.6928   22.0601 C   0  0  0  0  0  0  0  0  0  0  0  0
  -24.1412  -13.0355   21.0877 C   0  0  0  0  0  0  0  0  0  0  0  0
  -27.3227  -35.3162   26.5823 C   0  0  0  0  0  0  0  0  0  0  0  0
  -26.3104  -31.4911   21.2422 C   0  0  0  0  0  0  0  0  0  0  0  0
  -26.9794  -34.0832   25.9956 C   0  0  0  0  0  0  0  0  0  0  0  0
  -25.2592  -30.5661   21.1698 C   0  0  0  0  0  0  0  0  0  0  0  0
  -27.2038  -21.1758   20.2111 C   0  0  0  0  0  0  0  0  0  0  0  0
  -27.5954  -21.5160   22.5708 C   0  0  0  0  0  0  0  0  0  0  0  0
  -27.3007  -20.6651   21.5055 C   0  0  0  0  0  0  0  0  0  0  0  0
  -22.4310   -8.6374   23.2801 C   0  0  0  0  0  0  0  0  0  0  0  0
  -26.8772  -28.7578   21.0203 C   0  0  0  0  0  0  0  0  0  0  0  0
  -21.8631   -6.3584   23.3557 C   0  0  0  0  0  0  0  0  0  0  0  0
  -27.6964  -23.3883   21.0472 C   0  0  0  0  0  0  0  0  0  0  0  0
  -22.1293   -3.7862   22.3092 C   0  0  0  0  0  0  0  0  0  0  0  0
  -23.1156   -5.7456   23.3215 C   0  0  0  0  0  0  0  0  0  0  0  0
  -24.6132  -11.7543   21.4306 C   0  0  0  0  0  0  0  0  0  0  0  0
  -25.2250  -13.6603   20.5206 C   0  0  0  0  0  0  0  0  0  0  0  0
  -22.8395  -13.6096   21.2659 C   0  0  0  0  0  0  0  0  0  0  0  0
  -24.5693  -33.0631   23.3872 C   0  0  0  0  0  0  0  0  0  0  0  0
  -22.3473  -33.0415   21.0241 C   0  0  0  0  0  0  0  0  0  0  0  0
  -21.1487  -31.5702   18.1877 C   0  0  0  0  0  0  0  0  0  0  0  0
  -30.5474  -14.9267   20.3217 C   0  0  0  0  0  0  0  0  0  0  0  0
  -26.2858  -36.3715   26.8752 C   0  0  0  0  0  0  0  0  0  0  0  0
  -26.0234  -32.9650   21.3301 C   0  0  0  0  0  0  0  0  0  0  0  0
  -23.8173  -30.9995   21.2095 C   0  0  0  0  0  0  0  0  0  0  0  0
  -24.9822  -36.1746   26.1056 C   0  0  0  0  0  0  0  0  0  0  0  0
  -29.6952  -11.8300   19.0420 C   0  0  0  0  0  0  0  0  0  0  0  0
  -24.5292  -34.7203   26.1862 C   0  0  0  0  0  0  0  0  0  0  0  0
  -28.2555  -11.6263   19.5134 C   0  0  0  0  0  0  0  0  0  0  0  0
  -28.7750  -18.1772   20.1811 C   0  0  0  0  0  0  0  0  0  0  0  0
  -28.2903  -17.0769   22.3954 C   0  0  0  0  0  0  0  0  0  0  0  0
  -30.5459  -12.4568   20.1407 C   0  0  0  0  0  0  0  0  0  0  0  0
  -30.0353  -17.3257   20.0549 C   0  0  0  0  0  0  0  0  0  0  0  0
  -29.5617  -16.2508   22.2303 C   0  0  0  0  0  0  0  0  0  0  0  0
  -28.5686  -13.5643   21.1304 C   0  0  0  0  0  0  0  0  0  0  0  0
  -25.5642  -33.7840   25.5509 C   0  0  1  0  0  0  0  0  0  0  0  0
  -24.6424  -33.2718   21.9011 C   0  0  1  0  0  0  0  0  0  0  0  0
  -28.3942  -18.4134   21.6484 C   0  0  0  0  0  0  0  0  0  0  0  0
  -27.6598  -12.9388   20.0532 C   0  0  2  0  0  0  0  0  0  0  0  0
  -26.8881  -20.2869   19.0529 C   0  0  0  0  0  0  0  0  0  0  0  0
  -27.7066  -20.9932   23.9656 C   0  0  0  0  0  0  0  0  0  0  0  0
  -19.2963  -31.7544   16.5048 C   0  0  0  0  0  0  0  0  0  0  0  0
  -20.4026  -31.8230   23.0349 C   0  0  0  0  0  0  0  0  0  0  0  0
  -18.9384  -31.1638   21.1140 C   0  0  0  0  0  0  0  0  0  0  0  0
  -19.4086  -33.5742   21.5517 C   0  0  0  0  0  0  0  0  0  0  0  0
  -23.0535  -32.0220   15.9681 C   0  0  0  0  0  0  0  0  0  0  0  0
  -27.0878  -19.1967   21.7521 C   0  0  0  0  0  0  0  0  0  0  0  0
  -28.3646  -26.9662   21.5037 C   0  0  0  0  0  0  0  0  0  1  0  0
  -28.1895  -25.5296   21.9567 C   0  0  0  0  0  0  0  0  0  0  0  0
  -21.2379  -32.1060   20.6083 C   0  0  1  0  0  0  0  0  0  0  0  0
  -20.7216  -32.1543   16.8532 C   0  0  2  0  0  0  0  0  0  0  0  0
  -20.0239  -32.1581   21.5784 C   0  0  0  0  0  0  0  0  0  0  0  0
  -25.8968  -11.5744   21.1081 N   0  0  0  0  0  0  0  0  0  0  0  0
  -26.2406  -12.7507   20.5566 N   0  0  0  0  0  0  0  0  0  0  0  0
  -23.5881  -32.4508   21.3022 N   0  0  0  0  0  0  0  0  0  0  0  0
  -29.9447  -13.6976   20.6294 N   0  0  0  0  0  0  0  0  0  0  0  0
  -29.9195  -16.0823   20.8155 N   0  0  0  0  0  0  0  0  0  0  0  0
  -25.3988  -14.8935   19.9996 N   0  0  0  0  0  0  0  0  0  0  0  0
  -21.8417  -12.8294   21.8659 N   0  0  0  0  0  0  0  0  0  0  0  0
  -25.4668  -33.8280   24.1076 N   0  0  0  0  0  0  0  0  0  0  0  0
  -20.9139  -32.4455   19.2269 N   0  0  0  0  0  0  0  0  0  0  0  0
  -21.6227  -31.6768   15.7665 N   0  3  0  0  0  0  0  0  0  0  0  0
  -22.5647  -14.7740   20.8889 O   0  0  0  0  0  0  0  0  0  0  0  0
  -23.7577  -32.2681   23.8465 O   0  0  0  0  0  0  0  0  0  0  0  0
  -22.1233  -34.2526   21.0924 O   0  0  0  0  0  0  0  0  0  0  0  0
  -21.6379  -30.4481   18.2977 O   0  0  0  0  0  0  0  0  0  0  0  0
  -31.5805  -14.9912   19.6439 O   0  0  0  0  0  0  0  0  0  0  0  0
  -21.7291   -7.6349   23.8757 O   0  0  0  0  0  0  0  0  0  0  0  0
  -27.1508  -27.4193   20.9163 O   0  0  0  0  0  0  0  0  0  1  0  0
  -27.8915  -24.7164   20.8229 O   0  0  0  0  0  0  0  0  0  0  0  0
  -22.2568   -2.5506   21.8080 F   0  0  0  0  0  0  0  0  0  0  0  0
  -24.1946   -6.3871   23.7909 F   0  0  0  0  0  0  0  0  0  0  0  0
  1  2  1  0  0  0  0
  1  5  2  0  0  0  0
  2  6  2  0  0  0  0
  3  8  2  0  0  0  0
  3 17  1  0  0  0  0
  4  9  1  0  0  0  0
  4 17  2  0  0  0  0
  5 19  1  0  0  0  0
  6 21  1  0  0  0  0
  7 10  2  0  0  0  0
  7 20  1  0  0  0  0
  8 26  1  0  0  0  0
  9 26  2  0  0  0  0
 10 27  1  0  0  0  0
 11 12  2  0  0  0  0
 11 28  1  0  0  0  0
 12 30  1  0  0  0  0
 13 22  1  0  0  0  0
 13 27  2  0  0  0  0
 14 23  2  0  0  0  0
 14 29  1  0  0  0  0
 15 24  1  0  0  0  0
 15 29  2  0  0  0  0
 16 30  2  0  0  0  0
 16 31  1  0  0  0  0
 17 32  1  0  0  0  0
 18 32  1  0  0  0  0
 18 33  2  0  0  0  0
 18 34  1  0  0  0  0
 19 21  2  0  0  0  0
 19 39  1  0  0  0  0
 20 22  2  0  0  0  0
 20 40  1  0  0  0  0
 21 52  1  0  0  0  0
 22 41  1  0  0  0  0
 23 25  1  0  0  0  0
 23 56  1  0  0  0  0
 24 25  2  0  0  0  0
 24 57  1  0  0  0  0
 25 63  1  0  0  0  0
 26 84  1  0  0  0  0
 27 85  1  0  0  0  0
 28 31  2  0  0  0  0
 28 84  1  0  0  0  0
 29 86  1  0  0  0  0
 30 87  1  0  0  0  0
 31 88  1  0  0  0  0
 32 69  2  0  0  0  0
 33 70  1  0  0  0  0
 33 74  1  0  0  0  0
 34 75  1  0  0  0  0
 34 79  2  0  0  0  0
 35 53  1  0  0  0  0
 35 76  1  0  0  0  0
 35 80  2  0  0  0  0
 36 66  1  0  0  0  0
 36 71  1  0  0  0  0
 36 81  2  0  0  0  0
 37 67  1  0  0  0  0
 37 77  1  0  0  0  0
 37 82  2  0  0  0  0
 38 72  1  0  0  0  0
 38 73  1  0  0  0  0
 38 83  2  0  0  0  0
 39 42  1  0  0  0  0
 40 53  1  0  0  0  0
 41 71  1  0  0  0  0
 42 44  1  0  0  0  0
 43 45  1  0  0  0  0
 43 48  1  0  0  0  0
 44 52  1  0  0  0  0
 45 55  1  0  0  0  0
 46 49  1  0  0  0  0
 46 54  1  0  0  0  0
 47 50  1  0  0  0  0
 47 54  1  0  0  0  0
 48 72  1  0  0  0  0
 49 73  1  0  0  0  0
 50 73  1  0  0  0  0
 51 55  1  0  0  0  0
 51 72  1  0  0  0  0
 52 76  1  0  0  0  0
 53 71  1  0  0  0  0
 54 63  1  0  0  0  0
 55 70  1  0  0  0  0
 58 67  1  0  0  0  0
 59 68  1  0  0  0  0
 60 68  1  0  0  0  0
 61 68  1  0  0  0  0
 62 78  1  0  0  0  0
 64 65  1  0  0  0  0
 64 85  1  0  0  0  0
 65 86  1  0  0  0  0
 66 68  1  0  0  0  0
 66 77  1  0  0  0  0
 67 78  1  0  0  0  0
 69 70  1  0  0  0  0
M  CHG  1  78   1
M  ISO  4  38 100  64 101  73 100  85 101
M  END
> <Batch ID>
0153

> <Smiles>
CNC(C)C(=O)NC(C(=O)N1Cc2cc([101O:1][101CH2:1]COc3cc(C)c(CC4CC[100N:0]([100C:0](=O)N5CCCC(n6nc(-c7ccc(Oc8ccc(F)cc8F)cc7)c(C(N)=O)c6N)C5)CC4)c(C)c3)ccc2CC1C(=O)NC1CCCc2ccccc21)C(C)(C)C

> <Shape>
0.295

> <Color>
0.199

> <Negative vol penalty>
0.000

$$$$

  -OEChem-04052321483D

 86 95  0     1  0  0  0  0  0999 V2000
  -16.0048  -26.6431   21.8445 C   0  0  0  0  0  0  0  0  0  0  0  0
  -16.6824  -25.6734   22.5765 C   0  0  0  0  0  0  0  0  0  0  0  0
  -23.8175  -13.1886   24.8744 C   0  0  0  0  0  0  0  0  0  0  0  0
  -23.6439  -15.2510   23.6280 C   0  0  0  0  0  0  0  0  0  0  0  0
  -16.7045  -27.4625   20.9596 C   0  0  0  0  0  0  0  0  0  0  0  0
  -18.0600  -25.5216   22.4233 C   0  0  0  0  0  0  0  0  0  0  0  0
  -23.9263  -23.7375   26.1272 C   0  0  0  0  0  0  0  0  0  0  0  0
  -23.0888  -13.7582   25.9184 C   0  0  0  0  0  0  0  0  0  0  0  0
  -22.9151  -15.8206   24.6720 C   0  0  0  0  0  0  0  0  0  0  0  0
  -25.0175  -22.8718   26.0652 C   0  0  0  0  0  0  0  0  0  0  0  0
  -21.3184  -17.9361   27.1590 C   0  0  0  0  0  0  0  0  0  0  0  0
  -21.6576  -19.2295   27.5562 C   0  0  0  0  0  0  0  0  0  0  0  0
  -26.1343  -24.3967   24.5663 C   0  0  0  0  0  0  0  0  0  0  0  0
  -23.8888  -18.4778   28.0982 C   0  0  0  0  0  0  0  0  0  0  0  0
  -30.4706  -18.3525   22.0598 C   0  0  0  0  0  0  0  0  0  0  0  0
  -24.0951  -13.9350   23.7291 C   0  0  0  0  0  0  0  0  0  0  0  0
  -24.3396  -12.6375   21.5464 C   0  0  0  0  0  0  0  0  0  0  0  0
  -18.0929  -27.3271   20.8026 C   0  0  0  0  0  0  0  0  0  0  0  0
  -23.9264  -24.9361   25.3994 C   0  0  0  0  0  0  0  0  0  0  0  0
  -18.7788  -26.3390   21.5345 C   0  0  0  0  0  0  0  0  0  0  0  0
  -25.0430  -25.2771   24.6228 C   0  0  0  0  0  0  0  0  0  0  0  0
  -28.7418  -20.2243   21.0161 C   0  0  0  0  0  0  0  0  0  0  0  0
  -30.5102  -18.6195   20.6987 C   0  0  0  0  0  0  0  0  0  0  0  0
  -29.6346  -19.5662   20.1756 C   0  0  0  0  0  0  0  0  0  0  0  0
  -22.6376  -15.0742   25.8173 C   0  0  0  0  0  0  0  0  0  0  0  0
  -26.1205  -23.2000   25.2823 C   0  0  0  0  0  0  0  0  0  0  0  0
  -22.2644  -16.9136   27.2314 C   0  0  0  0  0  0  0  0  0  0  0  0
  -22.9428  -19.5003   28.0259 C   0  0  0  0  0  0  0  0  0  0  0  0
  -23.5496  -17.1844   27.7010 C   0  0  0  0  0  0  0  0  0  0  0  0
  -24.8483  -13.3473   22.6505 C   0  0  0  0  0  0  0  0  0  0  0  0
  -25.4517  -12.2920   20.8182 C   0  0  0  0  0  0  0  0  0  0  0  0
  -28.7469  -19.9167   22.3692 C   0  0  0  0  0  0  0  0  0  0  0  0
  -22.9829  -12.3189   21.2091 C   0  0  0  0  0  0  0  0  0  0  0  0
  -22.1342  -26.1458   23.0695 C   0  0  0  0  0  0  0  0  0  0  0  0
  -23.9446  -28.7888   23.5789 C   0  0  0  0  0  0  0  0  0  0  0  0
  -26.8693  -30.1197   24.7284 C   0  0  0  0  0  0  0  0  0  0  0  0
  -30.9352  -14.6566   20.3806 C   0  0  0  0  0  0  0  0  0  0  0  0
  -18.7989  -28.2042   19.7990 C   0  0  0  0  0  0  0  0  0  0  0  0
  -22.7528  -25.8717   25.4981 C   0  0  0  0  0  0  0  0  0  0  0  0
  -25.1011  -26.5615   23.8385 C   0  0  0  0  0  0  0  0  0  0  0  0
  -20.3153  -28.2297   19.9727 C   0  0  0  0  0  0  0  0  0  0  0  0
  -30.1097  -11.3254   21.3282 C   0  0  0  0  0  0  0  0  0  0  0  0
  -28.3378  -22.4126   19.7039 C   0  0  0  0  0  0  0  0  0  0  0  0
  -27.7881  -22.6253   21.0797 C   0  0  0  0  0  0  0  0  0  0  0  0
  -20.8557  -26.8149   20.1541 C   0  0  0  0  0  0  0  0  0  0  0  0
  -28.6217  -11.4018   21.6749 C   0  0  0  0  0  0  0  0  0  0  0  0
  -30.8525  -12.5921   21.7472 C   0  0  0  0  0  0  0  0  0  0  0  0
  -28.7858  -13.9243   21.5807 C   0  0  0  0  0  0  0  0  0  0  0  0
  -27.7911  -21.2453   20.4800 C   0  0  0  0  0  0  0  0  0  0  0  0
  -20.2767  -26.1604   21.4142 C   0  0  1  0  0  0  0  0  0  0  0  0
  -22.6451  -26.8225   24.3100 C   0  0  1  0  0  0  0  0  0  0  0  0
  -27.9838  -12.6925   21.1269 C   0  0  2  0  0  0  0  0  0  0  0  0
  -28.0751  -32.3064   24.9771 C   0  0  0  0  0  0  0  0  0  0  0  0
  -24.5847  -28.7723   20.5956 C   0  0  0  0  0  0  0  0  0  0  0  0
  -26.4835  -30.3349   21.0653 C   0  0  0  0  0  0  0  0  0  0  0  0
  -24.1410  -31.0389   21.5548 C   0  0  0  0  0  0  0  0  0  0  0  0
  -26.9743  -29.8595   27.6747 C   0  0  0  0  0  0  0  0  0  0  0  0
  -31.4852  -17.8877   19.8394 C   0  0  0  0  0  0  0  0  0  0  0  0
  -30.8574  -16.7417   19.0370 C   0  0  0  0  0  0  0  0  0  0  0  0
  -26.9227  -20.9633   25.3790 C   0  0  0  0  0  0  0  0  0  1  0  0
  -27.9521  -20.1715   24.5961 C   0  0  0  0  0  0  0  0  0  0  0  0
  -25.2504  -29.3120   23.0310 C   0  0  1  0  0  0  0  0  0  0  0  0
  -27.1488  -31.2998   25.6415 C   0  0  2  0  0  0  0  0  0  0  0  0
  -25.1133  -29.8393   21.5748 C   0  0  0  0  0  0  0  0  0  0  0  0
  -26.1801  -13.4476   22.6298 N   0  0  0  0  0  0  0  0  0  0  0  0
  -26.5175  -12.7960   21.5039 N   0  0  0  0  0  0  0  0  0  0  0  0
  -29.6008  -19.0008   22.8465 N   0  3  0  0  0  0  0  0  0  0  0  0
  -23.9264  -27.4403   23.9625 N   0  0  0  0  0  0  0  0  0  0  0  0
  -30.1978  -13.7798   21.1934 N   0  0  0  0  0  0  0  0  0  0  0  0
  -29.6546  -19.8567   18.7919 N   0  0  0  0  0  0  0  0  0  0  0  0
  -25.6122  -11.6092   19.6648 N   0  0  0  0  0  0  0  0  0  0  0  0
  -21.9621  -12.7505   22.0670 N   0  0  0  0  0  0  0  0  0  0  0  0
  -20.9433  -26.6628   22.5964 N   0  0  0  0  0  0  0  0  0  0  0  0
  -25.7233  -30.3089   23.9855 N   0  0  0  0  0  0  0  0  0  0  0  0
  -30.2371  -15.7541   19.8917 N   0  0  0  0  0  0  0  0  0  0  0  0
  -27.7874  -30.8366   26.9059 N   0  3  0  0  0  0  0  0  0  0  0  0
  -22.6859  -11.6565   20.1861 O   0  0  0  0  0  0  0  0  0  0  0  0
  -22.7740  -25.2238   22.5772 O   0  0  0  0  0  0  0  0  0  0  0  0
  -22.9785  -29.5503   23.6699 O   0  0  0  0  0  0  0  0  0  0  0  0
  -27.5971  -29.1307   24.6765 O   0  0  0  0  0  0  0  0  0  0  0  0
  -32.1258  -14.4721   20.1064 O   0  0  0  0  0  0  0  0  0  0  0  0
  -21.9263  -15.6303   26.8358 O   0  0  0  0  0  0  0  0  0  0  0  0
  -27.1865  -22.3566   25.2195 O   0  0  0  0  0  0  0  0  0  1  0  0
  -27.8815  -20.5452   23.2255 O   0  0  0  0  0  0  0  0  0  0  0  0
  -23.2688  -20.7426   28.4059 F   0  0  0  0  0  0  0  0  0  0  0  0
  -24.4630  -16.2064   27.7717 F   0  0  0  0  0  0  0  0  0  0  0  0
  1  2  1  0  0  0  0
  1  5  2  0  0  0  0
  2  6  2  0  0  0  0
  3  8  2  0  0  0  0
  3 16  1  0  0  0  0
  4  9  1  0  0  0  0
  4 16  2  0  0  0  0
  5 18  1  0  0  0  0
  6 20  1  0  0  0  0
  7 10  2  0  0  0  0
  7 19  1  0  0  0  0
  8 25  1  0  0  0  0
  9 25  2  0  0  0  0
 10 26  1  0  0  0  0
 11 12  2  0  0  0  0
 11 27  1  0  0  0  0
 12 28  1  0  0  0  0
 13 21  1  0  0  0  0
 13 26  2  0  0  0  0
 14 28  2  0  0  0  0
 14 29  1  0  0  0  0
 15 23  1  0  0  0  0
 15 67  2  0  0  0  0
 16 30  1  0  0  0  0
 17 30  1  0  0  0  0
 17 31  2  0  0  0  0
 17 33  1  0  0  0  0
 18 20  2  0  0  0  0
 18 38  1  0  0  0  0
 19 21  2  0  0  0  0
 19 39  1  0  0  0  0
 20 50  1  0  0  0  0
 21 40  1  0  0  0  0
 22 24  1  0  0  0  0
 22 32  2  0  0  0  0
 22 49  1  0  0  0  0
 23 24  2  0  0  0  0
 23 58  1  0  0  0  0
 24 70  1  0  0  0  0
 25 82  1  0  0  0  0
 26 83  1  0  0  0  0
 27 29  2  0  0  0  0
 27 82  1  0  0  0  0
 28 85  1  0  0  0  0
 29 86  1  0  0  0  0
 30 65  2  0  0  0  0
 31 66  1  0  0  0  0
 31 71  1  0  0  0  0
 32 67  1  0  0  0  0
 32 84  1  0  0  0  0
 33 72  1  0  0  0  0
 33 77  2  0  0  0  0
 34 51  1  0  0  0  0
 34 73  1  0  0  0  0
 34 78  2  0  0  0  0
 35 62  1  0  0  0  0
 35 68  1  0  0  0  0
 35 79  2  0  0  0  0
 36 63  1  0  0  0  0
 36 74  1  0  0  0  0
 36 80  2  0  0  0  0
 37 69  1  0  0  0  0
 37 75  1  0  0  0  0
 37 81  2  0  0  0  0
 38 41  1  0  0  0  0
 39 51  1  0  0  0  0
 40 68  1  0  0  0  0
 41 45  1  0  0  0  0
 42 46  1  0  0  0  0
 42 47  1  0  0  0  0
 43 44  1  0  0  0  0
 43 49  1  0  0  0  0
 44 49  1  0  0  0  0
 45 50  1  0  0  0  0
 46 52  1  0  0  0  0
 47 69  1  0  0  0  0
 48 52  1  0  0  0  0
 48 69  1  0  0  0  0
 50 73  1  0  0  0  0
 51 68  1  0  0  0  0
 52 66  1  0  0  0  0
 53 63  1  0  0  0  0
 54 64  1  0  0  0  0
 55 64  1  0  0  0  0
 56 64  1  0  0  0  0
 57 76  1  0  0  0  0
 58 59  1  0  0  0  0
 59 75  1  0  0  0  0
 60 61  1  0  0  0  0
 60 83  1  0  0  0  0
 61 84  1  0  0  0  0
 62 64  1  0  0  0  0
 62 74  1  0  0  0  0
 63 76  1  0  0  0  0
 65 66  1  0  0  0  0
M  CHG  2  67   1  76   1
M  ISO  4  37 100  60 101  75 100  83 101
M  END
> <Batch ID>
0153

> <Smiles>
CNC(C)C(=O)NC(C(=O)N1Cc2cc([101O:1][101CH2:1]COc3ncc(CC[100NH:0][100C:0](=O)N4CCCC(n5nc(-c6ccc(Oc7ccc(F)cc7F)cc6)c(C(N)=O)c5N)C4)c(N)c3C3CC3)ccc2CC1C(=O)NC1CCCc2ccccc21)C(C)(C)C

> <Shape>
0.225

> <Color>
0.056

> <Negative vol penalty>
0.000

$$$$

  -OEChem-04052321483D

 89 98  0     1  0  0  0  0  0999 V2000
  -30.0544  -32.2143   23.3870 C   0  0  0  0  0  0  0  0  0  0  0  0
  -29.2883  -31.0988   23.7101 C   0  0  0  0  0  0  0  0  0  0  0  0
  -23.7965   -9.6094   19.8387 C   0  0  0  0  0  0  0  0  0  0  0  0
  -24.4824   -9.7727   22.1495 C   0  0  0  0  0  0  0  0  0  0  0  0
  -30.5859  -32.3459   22.1048 C   0  0  0  0  0  0  0  0  0  0  0  0
  -29.0524  -30.1148   22.7507 C   0  0  0  0  0  0  0  0  0  0  0  0
  -29.6526  -25.4320   24.5827 C   0  0  0  0  0  0  0  0  0  0  0  0
  -23.3745   -8.2979   20.0566 C   0  0  0  0  0  0  0  0  0  0  0  0
  -24.0603   -8.4612   22.3674 C   0  0  0  0  0  0  0  0  0  0  0  0
  -28.6163  -24.9141   25.3583 C   0  0  0  0  0  0  0  0  0  0  0  0
  -21.1409   -6.8389   22.8826 C   0  0  0  0  0  0  0  0  0  0  0  0
  -20.3974   -6.5819   24.0344 C   0  0  0  0  0  0  0  0  0  0  0  0
  -27.8206  -23.6679   23.4522 C   0  0  0  0  0  0  0  0  0  0  0  0
  -27.9758  -18.7324   25.4448 C   0  0  0  0  0  0  0  0  0  0  0  0
  -22.0864   -5.0219   24.7766 C   0  0  0  0  0  0  0  0  0  0  0  0
  -30.4326  -18.4249   24.2979 C   0  0  0  0  0  0  0  0  0  0  0  0
  -24.3505  -10.3468   20.8852 C   0  0  0  0  0  0  0  0  0  0  0  0
  -24.0239  -12.8755   20.8043 C   0  0  0  0  0  0  0  0  0  0  0  0
  -30.3644  -31.3582   21.1320 C   0  0  0  0  0  0  0  0  0  0  0  0
  -29.7745  -25.0797   23.2309 C   0  0  0  0  0  0  0  0  0  0  0  0
  -29.5804  -30.2339   21.4539 C   0  0  0  0  0  0  0  0  0  0  0  0
  -28.8608  -24.1808   22.6623 C   0  0  0  0  0  0  0  0  0  0  0  0
  -28.3756  -17.4714   25.0166 C   0  0  0  0  0  0  0  0  0  0  0  0
  -23.5064   -7.7238   21.3209 C   0  0  0  0  0  0  0  0  0  0  0  0
  -27.6984  -24.0341   24.7924 C   0  0  0  0  0  0  0  0  0  0  0  0
  -22.3571   -6.1874   22.6777 C   0  0  0  0  0  0  0  0  0  0  0  0
  -29.6259  -17.3062   24.4312 C   0  0  0  0  0  0  0  0  0  0  0  0
  -20.8701   -5.6734   24.9814 C   0  0  0  0  0  0  0  0  0  0  0  0
  -22.8299   -5.2789   23.6247 C   0  0  0  0  0  0  0  0  0  0  0  0
  -24.7872  -11.7014   20.6606 C   0  0  0  0  0  0  0  0  0  0  0  0
  -28.8564  -19.7872   25.2664 C   0  0  0  0  0  0  0  0  0  0  0  0
  -24.8897  -13.8902   20.4766 C   0  0  0  0  0  0  0  0  0  0  0  0
  -22.6548  -13.0347   21.1990 C   0  0  0  0  0  0  0  0  0  0  0  0
  -29.6789  -26.6708   20.4808 C   0  0  0  0  0  0  0  0  0  0  0  0
  -30.5171  -23.7947   19.2365 C   0  0  0  0  0  0  0  0  0  0  0  0
  -30.5612  -20.3980   19.5643 C   0  0  0  0  0  0  0  0  0  0  0  0
  -30.8574  -14.3596   20.6066 C   0  0  0  0  0  0  0  0  0  0  0  0
  -30.9200  -31.5674   19.7456 C   0  0  0  0  0  0  0  0  0  0  0  0
  -30.9136  -25.6263   22.4148 C   0  0  0  0  0  0  0  0  0  0  0  0
  -28.9596  -23.7551   21.2209 C   0  0  0  0  0  0  0  0  0  0  0  0
  -30.9363  -30.2978   18.8980 C   0  0  0  0  0  0  0  0  0  0  0  0
  -28.7358  -14.8069   17.7825 C   0  0  0  0  0  0  0  0  0  0  0  0
  -29.6009  -29.5682   19.0039 C   0  0  0  0  0  0  0  0  0  0  0  0
  -26.1598  -16.5252   22.9019 C   0  0  0  0  0  0  0  0  0  0  0  0
  -25.5847  -15.3298   23.6090 C   0  0  0  0  0  0  0  0  0  0  0  0
  -27.4144  -14.1676   18.2129 C   0  0  0  0  0  0  0  0  0  0  0  0
  -29.9380  -14.0398   18.3286 C   0  0  0  0  0  0  0  0  0  0  0  0
  -28.6048  -13.1884   20.2185 C   0  0  0  0  0  0  0  0  0  0  0  0
  -29.3230  -29.1331   20.4479 C   0  0  1  0  0  0  0  0  0  0  0  0
  -30.6400  -25.6002   20.9142 C   0  0  1  0  0  0  0  0  0  0  0  0
  -26.1415  -16.4776   24.4047 C   0  0  0  0  0  0  0  0  0  0  0  0
  -27.3630  -13.9589   19.7383 C   0  0  2  0  0  0  0  0  0  0  0  0
  -27.1438  -16.0247   26.6730 C   0  0  0  0  0  0  0  0  0  0  0  0
  -31.1165  -18.0129   19.0164 C   0  0  0  0  0  0  0  0  0  0  0  0
  -25.9789  -22.9804   27.7537 C   0  0  0  0  0  0  0  0  0  0  0  0
  -28.1220  -24.0478   17.3630 C   0  0  0  0  0  0  0  0  0  0  0  0
  -28.3241  -21.5982   16.8869 C   0  0  0  0  0  0  0  0  0  0  0  0
  -30.1924  -23.1407   16.2928 C   0  0  0  0  0  0  0  0  0  0  0  0
  -33.1004  -20.5194   21.0797 C   0  0  0  0  0  0  0  0  0  0  0  0
  -31.6394  -14.6177   22.9477 C   0  0  0  0  0  0  0  0  0  0  0  0
  -27.1621  -21.2889   26.3151 C   0  0  0  0  0  0  0  0  0  0  0  0
  -31.3588  -16.0358   23.4118 C   0  0  0  0  0  0  0  0  0  0  0  0
  -27.4545  -16.3103   25.1919 C   0  0  2  0  0  0  0  0  0  0  0  0
  -29.7637  -22.5914   18.7232 C   0  0  1  0  0  0  0  0  0  0  0  0
  -31.6731  -19.3821   19.3745 C   0  0  2  0  0  0  0  0  0  0  0  0
  -27.0508  -22.7635   26.6955 C   0  0  1  0  0  0  0  0  0  1  0  0
  -29.0973  -22.8539   17.3432 C   0  0  0  0  0  0  0  0  0  0  0  0
  -30.0788  -19.6655   24.7018 N   0  0  0  0  0  0  0  0  0  0  0  0
  -26.0413  -11.9461   20.2716 N   0  0  0  0  0  0  0  0  0  0  0  0
  -26.0727  -13.2857   20.1681 N   0  0  0  0  0  0  0  0  0  0  0  0
  -30.0871  -24.3217   20.4625 N   0  0  0  0  0  0  0  0  0  0  0  0
  -29.8288  -13.8774   19.7804 N   0  0  0  0  0  0  0  0  0  0  0  0
  -24.7468  -15.2316   20.4250 N   0  0  0  0  0  0  0  0  0  0  0  0
  -21.9086  -11.8873   21.5007 N   0  0  0  0  0  0  0  0  0  0  0  0
  -28.4446  -21.0369   25.6980 N   0  0  0  0  0  0  0  0  0  0  0  0
  -30.0951  -27.9544   20.7781 N   0  0  0  0  0  0  0  0  0  0  0  0
  -30.7127  -21.4834   18.7274 N   0  0  0  0  0  0  0  0  0  0  0  0
  -30.6718  -14.1706   21.9706 N   0  0  0  0  0  0  0  0  0  0  0  0
  -32.4743  -19.2516   20.6242 N   0  3  0  0  0  0  0  0  0  0  0  0
  -22.1045  -14.1600   21.2657 O   0  0  0  0  0  0  0  0  0  0  0  0
  -28.6375  -26.3556   19.9169 O   0  0  0  0  0  0  0  0  0  0  0  0
  -31.4571  -24.2460   18.5775 O   0  0  0  0  0  0  0  0  0  0  0  0
  -29.6475  -20.2425   20.3714 O   0  0  0  0  0  0  0  0  0  0  0  0
  -31.8639  -14.9219   20.1619 O   0  0  0  0  0  0  0  0  0  0  0  0
  -23.0945   -6.4442   21.5340 O   0  0  0  0  0  0  0  0  0  0  0  0
  -30.0577  -16.0943   23.9985 O   0  0  0  0  0  0  0  0  0  0  0  0
  -26.6856  -23.5276   25.5470 O   0  0  0  0  0  0  0  0  0  1  0  0
  -20.1568   -5.4279   26.0882 F   0  0  0  0  0  0  0  0  0  0  0  0
  -23.9982   -4.6508   23.4339 F   0  0  0  0  0  0  0  0  0  0  0  0
  1  2  1  0  0  0  0
  1  5  2  0  0  0  0
  2  6  2  0  0  0  0
  3  8  2  0  0  0  0
  3 17  1  0  0  0  0
  4  9  1  0  0  0  0
  4 17  2  0  0  0  0
  5 19  1  0  0  0  0
  6 21  1  0  0  0  0
  7 10  2  0  0  0  0
  7 20  1  0  0  0  0
  8 24  1  0  0  0  0
  9 24  2  0  0  0  0
 10 25  1  0  0  0  0
 11 12  2  0  0  0  0
 11 26  1  0  0  0  0
 12 28  1  0  0  0  0
 13 22  1  0  0  0  0
 13 25  2  0  0  0  0
 14 23  2  0  0  0  0
 14 31  1  0  0  0  0
 15 28  2  0  0  0  0
 15 29  1  0  0  0  0
 16 27  2  0  0  0  0
 16 68  1  0  0  0  0
 17 30  1  0  0  0  0
 18 30  1  0  0  0  0
 18 32  2  0  0  0  0
 18 33  1  0  0  0  0
 19 21  2  0  0  0  0
 19 38  1  0  0  0  0
 20 22  2  0  0  0  0
 20 39  1  0  0  0  0
 21 49  1  0  0  0  0
 22 40  1  0  0  0  0
 23 27  1  0  0  0  0
 23 63  1  0  0  0  0
 24 85  1  0  0  0  0
 25 87  1  0  0  0  0
 26 29  2  0  0  0  0
 26 85  1  0  0  0  0
 27 86  1  0  0  0  0
 28 88  1  0  0  0  0
 29 89  1  0  0  0  0
 30 69  2  0  0  0  0
 31 68  2  0  0  0  0
 31 75  1  0  0  0  0
 32 70  1  0  0  0  0
 32 73  1  0  0  0  0
 33 74  1  0  0  0  0
 33 80  2  0  0  0  0
 34 50  1  0  0  0  0
 34 76  1  0  0  0  0
 34 81  2  0  0  0  0
 35 64  1  0  0  0  0
 35 71  1  0  0  0  0
 35 82  2  0  0  0  0
 36 65  1  0  0  0  0
 36 77  1  0  0  0  0
 36 83  2  0  0  0  0
 37 72  1  0  0  0  0
 37 78  1  0  0  0  0
 37 84  2  0  0  0  0
 38 41  1  0  0  0  0
 39 50  1  0  0  0  0
 40 71  1  0  0  0  0
 41 43  1  0  0  0  0
 42 46  1  0  0  0  0
 42 47  1  0  0  0  0
 43 49  1  0  0  0  0
 44 45  1  0  0  0  0
 44 51  1  0  0  0  0
 45 51  1  0  0  0  0
 46 52  1  0  0  0  0
 47 72  1  0  0  0  0
 48 52  1  0  0  0  0
 48 72  1  0  0  0  0
 49 76  1  0  0  0  0
 50 71  1  0  0  0  0
 51 63  1  0  0  0  0
 52 70  1  0  0  0  0
 53 63  1  0  0  0  0
 54 65  1  0  0  0  0
 55 66  1  0  0  0  0
 56 67  1  0  0  0  0
 57 67  1  0  0  0  0
 58 67  1  0  0  0  0
 59 79  1  0  0  0  0
 60 62  1  0  0  0  0
 60 78  1  0  0  0  0
 61 66  1  0  0  0  0
 61 75  1  0  0  0  0
 62 86  1  0  0  0  0
 64 67  1  0  0  0  0
 64 77  1  0  0  0  0
 65 79  1  0  0  0  0
 66 87  1  0  0  0  0
 69 70  1  0  0  0  0
M  CHG  1  79   1
M  ISO  4  37 100  66 101  78 100  87 101
M  END
> <Batch ID>
0153

> <Smiles>
CNC(C)C(=O)NC(C(=O)N1Cc2cc([101O:1][101CH:1](C)CNc3cc(C(C)C4CC4)c(OCC[100NH:0][100C:0](=O)N4CCCC(n5nc(-c6ccc(Oc7ccc(F)cc7F)cc6)c(C(N)=O)c5N)C4)cn3)ccc2CC1C(=O)NC1CCCc2ccccc21)C(C)(C)C

> <Shape>
0.225

> <Color>
0.156

> <Negative vol penalty>
0.000

$$$$

  -OEChem-04052321483D

 85 93  0     1  0  0  0  0  0999 V2000
  -27.1324  -34.5846   25.0120 C   0  0  0  0  0  0  0  0  0  0  0  0
  -27.4816  -33.3390   24.5002 C   0  0  0  0  0  0  0  0  0  0  0  0
  -24.9136  -13.4739   22.2195 C   0  0  0  0  0  0  0  0  0  0  0  0
  -26.1208  -13.8530   20.1613 C   0  0  0  0  0  0  0  0  0  0  0  0
  -25.8275  -34.8188   25.4436 C   0  0  0  0  0  0  0  0  0  0  0  0
  -26.5263  -32.3263   24.4209 C   0  0  0  0  0  0  0  0  0  0  0  0
  -26.6492  -29.8828   19.9870 C   0  0  0  0  0  0  0  0  0  0  0  0
  -24.8882  -12.1051   21.9525 C   0  0  0  0  0  0  0  0  0  0  0  0
  -26.0954  -12.4841   19.8943 C   0  0  0  0  0  0  0  0  0  0  0  0
  -27.6570  -28.9360   19.8095 C   0  0  0  0  0  0  0  0  0  0  0  0
  -23.1251   -9.9804   20.0028 C   0  0  0  0  0  0  0  0  0  0  0  0
  -21.9199   -9.3053   20.1963 C   0  0  0  0  0  0  0  0  0  0  0  0
  -26.0853  -27.1771   20.3145 C   0  0  0  0  0  0  0  0  0  0  0  0
  -27.9084  -22.4863   18.3720 C   0  0  0  0  0  0  0  0  0  0  0  0
  -22.9828   -7.8754   21.8281 C   0  0  0  0  0  0  0  0  0  0  0  0
  -25.5299  -14.3479   21.3239 C   0  0  0  0  0  0  0  0  0  0  0  0
  -26.5430  -16.4720   22.3083 C   0  0  0  0  0  0  0  0  0  0  0  0
  -24.8533  -33.8115   25.3605 C   0  0  0  0  0  0  0  0  0  0  0  0
  -25.3522  -29.4840   20.3409 C   0  0  0  0  0  0  0  0  0  0  0  0
  -25.2075  -32.5468   24.8531 C   0  0  0  0  0  0  0  0  0  0  0  0
  -25.0621  -28.1206   20.4934 C   0  0  0  0  0  0  0  0  0  0  0  0
  -28.9016  -23.4152   18.6618 C   0  0  0  0  0  0  0  0  0  0  0  0
  -28.9106  -24.6420   18.0074 C   0  0  0  0  0  0  0  0  0  0  0  0
  -25.4791  -11.6102   20.7900 C   0  0  0  0  0  0  0  0  0  0  0  0
  -27.3759  -27.5831   19.9761 C   0  0  0  0  0  0  0  0  0  0  0  0
  -24.2592   -9.6029   20.7219 C   0  0  0  0  0  0  0  0  0  0  0  0
  -21.8487   -8.2529   21.1089 C   0  0  0  0  0  0  0  0  0  0  0  0
  -24.1880   -8.5504   21.6345 C   0  0  0  0  0  0  0  0  0  0  0  0
  -25.5559  -15.7620   21.5988 C   0  0  0  0  0  0  0  0  0  0  0  0
  -27.9122  -24.8892   17.0791 C   0  0  0  0  0  0  0  0  0  0  0  0
  -26.9547  -22.8301   17.4275 C   0  0  0  0  0  0  0  0  0  0  0  0
  -26.1076  -17.7746   22.2918 C   0  0  0  0  0  0  0  0  0  0  0  0
  -27.7460  -15.9967   22.9269 C   0  0  0  0  0  0  0  0  0  0  0  0
  -23.4454  -30.0062   22.8299 C   0  0  0  0  0  0  0  0  0  0  0  0
  -21.2839  -28.4093   21.0132 C   0  0  0  0  0  0  0  0  0  0  0  0
  -20.6982  -26.1791   18.4972 C   0  0  0  0  0  0  0  0  0  0  0  0
  -22.5335  -20.8325   18.5869 C   0  0  0  0  0  0  0  0  0  0  0  0
  -23.4677  -34.0968   25.8834 C   0  0  0  0  0  0  0  0  0  0  0  0
  -24.2698  -30.5158   20.5025 C   0  0  0  0  0  0  0  0  0  0  0  0
  -23.6811  -27.6391   20.8531 C   0  0  0  0  0  0  0  0  0  0  0  0
  -22.4212  -33.0877   25.4177 C   0  0  0  0  0  0  0  0  0  0  0  0
  -22.1003  -20.3809   22.0919 C   0  0  0  0  0  0  0  0  0  0  0  0
  -22.9420  -31.6636   25.5834 C   0  0  0  0  0  0  0  0  0  0  0  0
  -23.0259  -19.2100   22.4270 C   0  0  0  0  0  0  0  0  0  0  0  0
  -21.4454  -20.2088   20.7232 C   0  0  0  0  0  0  0  0  0  0  0  0
  -23.3113  -18.7978   19.9476 C   0  0  0  0  0  0  0  0  0  0  0  0
  -24.1932  -31.4307   24.7279 C   0  0  1  0  0  0  0  0  0  0  0  0
  -23.1083  -30.0331   21.3659 C   0  0  1  0  0  0  0  0  0  0  0  0
  -24.0381  -18.9534   21.2944 C   0  0  2  0  0  0  0  0  0  0  0  0
  -29.9429  -23.0736   19.6756 C   0  0  0  0  0  0  0  0  0  0  0  0
  -27.8702  -26.1888   16.3439 C   0  0  0  0  0  0  0  0  0  0  0  0
  -30.8269  -25.9681   17.0583 C   0  0  0  0  0  0  0  0  0  0  0  0
  -18.8289  -25.0462   17.2646 C   0  0  0  0  0  0  0  0  0  0  0  0
  -20.8461  -26.5491   23.3918 C   0  0  0  0  0  0  0  0  0  0  0  0
  -19.7377  -24.9323   21.8343 C   0  0  0  0  0  0  0  0  0  0  0  0
  -18.7584  -27.2006   22.1788 C   0  0  0  0  0  0  0  0  0  0  0  0
  -21.5210  -27.3728   15.9170 C   0  0  0  0  0  0  0  0  0  0  0  0
  -23.7322  -21.3382   16.4735 C   0  0  0  0  0  0  0  0  0  0  0  0
  -24.7135  -22.4707   16.7176 C   0  0  0  0  0  0  0  0  0  0  0  0
  -29.3928  -26.9727   18.8737 C   0  0  0  0  0  0  0  0  0  1  0  0
  -29.9850  -25.6766   18.3036 C   0  0  1  0  0  0  0  0  0  0  0  0
  -20.8918  -26.9614   20.8435 C   0  0  1  0  0  0  0  0  0  0  0  0
  -19.7739  -26.2374   17.2944 C   0  0  2  0  0  0  0  0  0  0  0  0
  -20.0851  -26.4197   22.0572 C   0  0  0  0  0  0  0  0  0  0  0  0
  -24.5678  -16.5483   21.1635 N   0  0  0  0  0  0  0  0  0  0  0  0
  -26.9309  -24.0118   16.7711 N   0  0  0  0  0  0  0  0  0  0  0  0
  -24.9318  -17.7659   21.6007 N   0  0  0  0  0  0  0  0  0  0  0  0
  -22.6582  -28.6868   21.0065 N   0  0  0  0  0  0  0  0  0  0  0  0
  -22.4597  -19.9704   19.6935 N   0  0  0  0  0  0  0  0  0  0  0  0
  -26.6195  -18.9151   22.8013 N   0  0  0  0  0  0  0  0  0  0  0  0
  -28.0417  -14.6289   22.8493 N   0  0  0  0  0  0  0  0  0  0  0  0
  -23.8278  -31.2314   23.3418 N   0  0  0  0  0  0  0  0  0  0  0  0
  -20.1848  -26.8765   19.5702 N   0  0  0  0  0  0  0  0  0  0  0  0
  -23.5273  -20.5392   17.6612 N   0  0  0  0  0  0  0  0  0  0  0  0
  -20.5660  -26.2407   16.0321 N   0  3  0  0  0  0  0  0  0  0  0  0
  -28.5269  -16.7596   23.5446 O   0  0  0  0  0  0  0  0  0  0  0  0
  -23.3632  -28.9522   23.4495 O   0  0  0  0  0  0  0  0  0  0  0  0
  -20.4031  -29.2635   21.1396 O   0  0  0  0  0  0  0  0  0  0  0  0
  -21.7670  -25.5724   18.4872 O   0  0  0  0  0  0  0  0  0  0  0  0
  -21.7737  -21.7955   18.4379 O   0  0  0  0  0  0  0  0  0  0  0  0
  -25.4548  -10.2745   20.5292 O   0  0  0  0  0  0  0  0  0  0  0  0
  -28.3580  -26.6569   19.8041 O   0  0  0  0  0  0  0  0  0  1  0  0
  -25.9658  -21.9315   17.1239 O   0  0  0  0  0  0  0  0  0  0  0  0
  -20.6909   -7.6057   21.2958 F   0  0  0  0  0  0  0  0  0  0  0  0
  -25.2739   -8.1840   22.3291 F   0  0  0  0  0  0  0  0  0  0  0  0
  1  2  1  0  0  0  0
  1  5  2  0  0  0  0
  2  6  2  0  0  0  0
  3  8  2  0  0  0  0
  3 16  1  0  0  0  0
  4  9  1  0  0  0  0
  4 16  2  0  0  0  0
  5 18  1  0  0  0  0
  6 20  1  0  0  0  0
  7 10  2  0  0  0  0
  7 19  1  0  0  0  0
  8 24  1  0  0  0  0
  9 24  2  0  0  0  0
 10 25  1  0  0  0  0
 11 12  2  0  0  0  0
 11 26  1  0  0  0  0
 12 27  1  0  0  0  0
 13 21  1  0  0  0  0
 13 25  2  0  0  0  0
 14 22  2  0  0  0  0
 14 31  1  0  0  0  0
 15 27  2  0  0  0  0
 15 28  1  0  0  0  0
 16 29  1  0  0  0  0
 17 29  1  0  0  0  0
 17 32  2  0  0  0  0
 17 33  1  0  0  0  0
 18 20  2  0  0  0  0
 18 38  1  0  0  0  0
 19 21  2  0  0  0  0
 19 39  1  0  0  0  0
 20 47  1  0  0  0  0
 21 40  1  0  0  0  0
 22 23  1  0  0  0  0
 22 50  1  0  0  0  0
 23 30  2  0  0  0  0
 23 61  1  0  0  0  0
 24 81  1  0  0  0  0
 25 82  1  0  0  0  0
 26 28  2  0  0  0  0
 26 81  1  0  0  0  0
 27 84  1  0  0  0  0
 28 85  1  0  0  0  0
 29 65  2  0  0  0  0
 30 51  1  0  0  0  0
 30 66  1  0  0  0  0
 31 66  2  0  0  0  0
 31 83  1  0  0  0  0
 32 67  1  0  0  0  0
 32 70  1  0  0  0  0
 33 71  1  0  0  0  0
 33 76  2  0  0  0  0
 34 48  1  0  0  0  0
 34 72  1  0  0  0  0
 34 77  2  0  0  0  0
 35 62  1  0  0  0  0
 35 68  1  0  0  0  0
 35 78  2  0  0  0  0
 36 63  1  0  0  0  0
 36 73  1  0  0  0  0
 36 79  2  0  0  0  0
 37 69  1  0  0  0  0
 37 74  1  0  0  0  0
 37 80  2  0  0  0  0
 38 41  1  0  0  0  0
 39 48  1  0  0  0  0
 40 68  1  0  0  0  0
 41 43  1  0  0  0  0
 42 44  1  0  0  0  0
 42 45  1  0  0  0  0
 43 47  1  0  0  0  0
 44 49  1  0  0  0  0
 45 69  1  0  0  0  0
 46 49  1  0  0  0  0
 46 69  1  0  0  0  0
 47 72  1  0  0  0  0
 48 68  1  0  0  0  0
 49 67  1  0  0  0  0
 52 61  1  0  0  0  0
 53 63  1  0  0  0  0
 54 64  1  0  0  0  0
 55 64  1  0  0  0  0
 56 64  1  0  0  0  0
 57 75  1  0  0  0  0
 58 59  1  0  0  0  0
 58 74  1  0  0  0  0
 59 83  1  0  0  0  0
 60 61  1  0  0  0  0
 60 82  1  0  0  0  0
 62 64  1  0  0  0  0
 62 73  1  0  0  0  0
 63 75  1  0  0  0  0
 65 67  1  0  0  0  0
M  CHG  1  75   1
M  ISO  4  37 100  60 101  74 100  82 101
M  END
> <Batch ID>
0153

> <Smiles>
CNC(C)C(=O)NC(C(=O)N1Cc2cc([101O:1][101CH2:1]C(C)c3c(C)cc(OCC[100NH:0][100C:0](=O)N4CCCC(n5nc(-c6ccc(Oc7ccc(F)cc7F)cc6)c(C(N)=O)c5N)C4)nc3C)ccc2CC1C(=O)NC1CCCc2ccccc21)C(C)(C)C

> <Shape>
0.253

> <Color>
0.089

> <Negative vol penalty>
0.000

$$$$

  -OEChem-04052321483D

 89 98  0     1  0  0  0  0  0999 V2000
  -29.2812  -24.5061   16.0461 C   0  0  0  0  0  0  0  0  0  0  0  0
  -28.0727  -24.5187   16.7352 C   0  0  0  0  0  0  0  0  0  0  0  0
  -22.7895  -10.4302   21.8585 C   0  0  0  0  0  0  0  0  0  0  0  0
  -24.2739   -9.4848   20.2033 C   0  0  0  0  0  0  0  0  0  0  0  0
  -30.4077  -25.1077   16.6055 C   0  0  0  0  0  0  0  0  0  0  0  0
  -27.9903  -25.1320   17.9848 C   0  0  0  0  0  0  0  0  0  0  0  0
  -23.8603  -28.0235   18.4613 C   0  0  0  0  0  0  0  0  0  0  0  0
  -22.1525   -9.1965   21.9921 C   0  0  0  0  0  0  0  0  0  0  0  0
  -23.6370   -8.2510   20.3369 C   0  0  0  0  0  0  0  0  0  0  0  0
  -22.6525  -27.3727   18.7091 C   0  0  0  0  0  0  0  0  0  0  0  0
  -22.7331   -6.2484   23.5427 C   0  0  0  0  0  0  0  0  0  0  0  0
  -22.4644   -5.7939   24.8337 C   0  0  0  0  0  0  0  0  0  0  0  0
  -21.3812  -22.8725   21.2043 C   0  0  0  0  0  0  0  0  0  0  0  0
  -22.8492  -27.9127   21.0519 C   0  0  0  0  0  0  0  0  0  0  0  0
  -20.4648  -24.6208   22.5974 C   0  0  0  0  0  0  0  0  0  0  0  0
  -20.1028   -5.7473   24.3258 C   0  0  0  0  0  0  0  0  0  0  0  0
  -23.8501  -10.5744   20.9641 C   0  0  0  0  0  0  0  0  0  0  0  0
  -25.6183  -12.3160   21.5539 C   0  0  0  0  0  0  0  0  0  0  0  0
  -30.3367  -25.7371   17.8583 C   0  0  0  0  0  0  0  0  0  0  0  0
  -24.5783  -28.6154   19.5104 C   0  0  0  0  0  0  0  0  0  0  0  0
  -29.1173  -25.7414   18.5622 C   0  0  0  0  0  0  0  0  0  0  0  0
  -22.0786  -22.3646   22.3003 C   0  0  0  0  0  0  0  0  0  0  0  0
  -24.0645  -28.5727   20.8144 C   0  0  0  0  0  0  0  0  0  0  0  0
  -20.5744  -24.0006   21.3528 C   0  0  0  0  0  0  0  0  0  0  0  0
  -21.1622  -24.1128   23.6935 C   0  0  0  0  0  0  0  0  0  0  0  0
  -22.5763   -8.1069   21.2313 C   0  0  0  0  0  0  0  0  0  0  0  0
  -22.1482  -27.3147   20.0050 C   0  0  0  0  0  0  0  0  0  0  0  0
  -21.6867   -6.4523   22.6431 C   0  0  0  0  0  0  0  0  0  0  0  0
  -21.9690  -22.9847   23.5449 C   0  0  0  0  0  0  0  0  0  0  0  0
  -21.1493   -5.5434   25.2253 C   0  0  0  0  0  0  0  0  0  0  0  0
  -20.3716   -6.2018   23.0347 C   0  0  0  0  0  0  0  0  0  0  0  0
  -24.5081  -11.8487   20.8253 C   0  0  0  0  0  0  0  0  0  0  0  0
  -25.8565  -13.5711   21.0493 C   0  0  0  0  0  0  0  0  0  0  0  0
  -26.3675  -11.6730   22.5936 C   0  0  0  0  0  0  0  0  0  0  0  0
  -27.4503  -28.1666   20.7965 C   0  0  0  0  0  0  0  0  0  0  0  0
  -26.6650  -30.8057   22.5114 C   0  0  0  0  0  0  0  0  0  0  0  0
  -24.2139  -32.8135   23.7793 C   0  0  0  0  0  0  0  0  0  0  0  0
  -24.2165  -18.4827   19.2585 C   0  0  0  0  0  0  0  0  0  0  0  0
  -31.5926  -26.3327   18.4437 C   0  0  0  0  0  0  0  0  0  0  0  0
  -25.8663  -29.3368   19.2224 C   0  0  0  0  0  0  0  0  0  0  0  0
  -24.7866  -29.2099   21.9725 C   0  0  0  0  0  0  0  0  0  0  0  0
  -31.3297  -27.2882   19.6048 C   0  0  0  0  0  0  0  0  0  0  0  0
  -23.9937  -15.8994   16.9726 C   0  0  0  0  0  0  0  0  0  0  0  0
  -30.3340  -26.6761   20.5849 C   0  0  0  0  0  0  0  0  0  0  0  0
  -24.1992  -14.6448   17.8210 C   0  0  0  0  0  0  0  0  0  0  0  0
  -22.1302  -19.9039   21.6967 C   0  0  0  0  0  0  0  0  0  0  0  0
  -24.1018  -21.3869   21.1282 C   0  0  0  0  0  0  0  0  0  0  0  0
  -23.1121  -16.9099   17.6973 C   0  0  0  0  0  0  0  0  0  0  0  0
  -23.0205  -18.6762   21.4839 C   0  0  0  0  0  0  0  0  0  0  0  0
  -24.9493  -20.1298   20.9552 C   0  0  0  0  0  0  0  0  0  0  0  0
  -23.8379  -16.0598   19.9038 C   0  0  0  0  0  0  0  0  0  0  0  0
  -22.9504  -21.1363   22.1188 C   0  0  0  0  0  0  0  0  0  0  0  0
  -28.9819  -26.4182   19.9089 C   0  0  1  0  0  0  0  0  0  0  0  0
  -26.7691  -29.4593   20.4461 C   0  0  1  0  0  0  0  0  0  0  0  0
  -24.7304  -15.0041   19.2200 C   0  0  1  0  0  0  0  0  0  0  0  0
  -19.5899  -24.7640   25.5530 C   0  0  0  0  0  0  0  0  0  0  0  0
  -21.5539  -26.2400   24.9880 C   0  0  0  0  0  0  0  0  0  0  0  0
  -23.8795  -34.8746   25.1712 C   0  0  0  0  0  0  0  0  0  0  0  0
  -27.3009  -29.2050   25.0301 C   0  0  0  0  0  0  0  0  0  0  0  0
  -26.0695  -30.9349   26.3564 C   0  0  0  0  0  0  0  0  0  0  0  0
  -28.1076  -31.5719   25.0668 C   0  0  0  0  0  0  0  0  0  0  0  0
  -22.8638  -34.2333   21.5611 C   0  0  0  0  0  0  0  0  0  0  0  0
  -23.9636  -22.9991   24.8401 C   0  0  0  0  0  0  0  0  0  0  0  0
  -19.8295  -24.5445   20.1809 C   0  0  0  0  0  0  0  0  0  0  0  0
  -20.6295  -25.5888   19.3961 C   0  0  0  0  0  0  0  0  0  1  0  0
  -21.0333  -24.7913   25.0176 C   0  0  0  0  0  0  0  0  0  0  0  0
  -25.9659  -31.0578   23.8255 C   0  0  1  0  0  0  0  0  0  0  0  0
  -24.0384  -34.3213   23.7636 C   0  0  2  0  0  0  0  0  0  0  0  0
  -26.8481  -30.6786   25.0484 C   0  0  0  0  0  0  0  0  0  0  0  0
  -24.0711  -12.7349   19.9266 N   0  0  0  0  0  0  0  0  0  0  0  0
  -24.9110  -13.7716   20.0870 N   0  0  0  0  0  0  0  0  0  0  0  0
  -26.0452  -29.8980   21.6409 N   0  0  0  0  0  0  0  0  0  0  0  0
  -23.6478  -17.2221   19.0222 N   0  0  0  0  0  0  0  0  0  0  0  0
  -24.1233  -18.9878   20.5641 N   0  0  0  0  0  0  0  0  0  0  0  0
  -26.7803  -14.5117   21.3395 N   0  0  0  0  0  0  0  0  0  0  0  0
  -25.9881  -10.3836   22.9909 N   0  0  0  0  0  0  0  0  0  0  0  0
  -28.2362  -27.6521   19.7831 N   0  0  0  0  0  0  0  0  0  0  0  0
  -25.5450  -32.4545   23.8025 N   0  0  0  0  0  0  0  0  0  0  0  0
  -22.8314  -34.6942   22.9730 N   0  3  0  0  0  0  0  0  0  0  0  0
  -27.3341  -12.2320   23.1651 O   0  0  0  0  0  0  0  0  0  0  0  0
  -27.2768  -27.6734   21.9048 O   0  0  0  0  0  0  0  0  0  0  0  0
  -27.7183  -31.3978   22.2634 O   0  0  0  0  0  0  0  0  0  0  0  0
  -23.2650  -32.0325   23.7754 O   0  0  0  0  0  0  0  0  0  0  0  0
  -24.7755  -19.1197   18.3568 O   0  0  0  0  0  0  0  0  0  0  0  0
  -21.9552   -6.9028   21.3615 O   0  0  0  0  0  0  0  0  0  0  0  0
  -22.6514  -22.4887   24.6165 O   0  0  0  0  0  0  0  0  0  0  0  0
  -20.9616  -26.6751   20.2514 O   0  0  0  0  0  0  0  0  0  1  0  0
  -20.8915   -5.1055   26.4646 F   0  0  0  0  0  0  0  0  0  0  0  0
  -19.3622   -6.3947   22.1746 F   0  0  0  0  0  0  0  0  0  0  0  0
  1  2  1  0  0  0  0
  1  5  2  0  0  0  0
  2  6  2  0  0  0  0
  3  8  2  0  0  0  0
  3 17  1  0  0  0  0
  4  9  1  0  0  0  0
  4 17  2  0  0  0  0
  5 19  1  0  0  0  0
  6 21  1  0  0  0  0
  7 10  2  0  0  0  0
  7 20  1  0  0  0  0
  8 26  1  0  0  0  0
  9 26  2  0  0  0  0
 10 27  1  0  0  0  0
 11 12  2  0  0  0  0
 11 28  1  0  0  0  0
 12 30  1  0  0  0  0
 13 22  1  0  0  0  0
 13 24  2  0  0  0  0
 14 23  1  0  0  0  0
 14 27  2  0  0  0  0
 15 24  1  0  0  0  0
 15 25  2  0  0  0  0
 16 30  2  0  0  0  0
 16 31  1  0  0  0  0
 17 32  1  0  0  0  0
 18 32  1  0  0  0  0
 18 33  2  0  0  0  0
 18 34  1  0  0  0  0
 19 21  2  0  0  0  0
 19 39  1  0  0  0  0
 20 23  2  0  0  0  0
 20 40  1  0  0  0  0
 21 53  1  0  0  0  0
 22 29  2  0  0  0  0
 22 52  1  0  0  0  0
 23 41  1  0  0  0  0
 24 64  1  0  0  0  0
 25 29  1  0  0  0  0
 25 66  1  0  0  0  0
 26 85  1  0  0  0  0
 27 87  1  0  0  0  0
 28 31  2  0  0  0  0
 28 85  1  0  0  0  0
 29 86  1  0  0  0  0
 30 88  1  0  0  0  0
 31 89  1  0  0  0  0
 32 70  2  0  0  0  0
 33 71  1  0  0  0  0
 33 75  1  0  0  0  0
 34 76  1  0  0  0  0
 34 80  2  0  0  0  0
 35 54  1  0  0  0  0
 35 77  1  0  0  0  0
 35 81  2  0  0  0  0
 36 67  1  0  0  0  0
 36 72  1  0  0  0  0
 36 82  2  0  0  0  0
 37 68  1  0  0  0  0
 37 78  1  0  0  0  0
 37 83  2  0  0  0  0
 38 73  1  0  0  0  0
 38 74  1  0  0  0  0
 38 84  2  0  0  0  0
 39 42  1  0  0  0  0
 40 54  1  0  0  0  0
 41 72  1  0  0  0  0
 42 44  1  0  0  0  0
 43 45  1  0  0  0  0
 43 48  1  0  0  0  0
 44 53  1  0  0  0  0
 45 55  1  0  0  0  0
 46 49  1  0  0  0  0
 46 52  1  0  0  0  0
 47 50  1  0  0  0  0
 47 52  1  0  0  0  0
 48 73  1  0  0  0  0
 49 74  1  0  0  0  0
 50 74  1  0  0  0  0
 51 55  1  0  0  0  0
 51 73  1  0  0  0  0
 53 77  1  0  0  0  0
 54 72  1  0  0  0  0
 55 71  1  0  0  0  0
 56 66  1  0  0  0  0
 57 66  1  0  0  0  0
 58 68  1  0  0  0  0
 59 69  1  0  0  0  0
 60 69  1  0  0  0  0
 61 69  1  0  0  0  0
 62 79  1  0  0  0  0
 63 86  1  0  0  0  0
 64 65  1  0  0  0  0
 65 87  1  0  0  0  0
 67 69  1  0  0  0  0
 67 78  1  0  0  0  0
 68 79  1  0  0  0  0
 70 71  1  0  0  0  0
M  CHG  1  79   1
M  ISO  4  38 100  65 101  74 100  87 101
M  END
> <Batch ID>
0153

> <Smiles>
CNC(C)C(=O)NC(C(=O)N1Cc2cc([101O:1][101CH2:1]Cc3cc(C(C)C)c(OC)c(C4CC[100N:0]([100C:0](=O)N5CCCC(n6nc(-c7ccc(Oc8ccc(F)cc8F)cc7)c(C(N)=O)c6N)C5)CC4)c3)ccc2CC1C(=O)NC1CCCc2ccccc21)C(C)(C)C

> <Shape>
0.253

> <Color>
0.103

> <Negative vol penalty>
0.000

$$$$

  -OEChem-04052321483D

 86 95  0     1  0  0  0  0  0999 V2000
  -23.2787  -37.6425   18.6702 C   0  0  0  0  0  0  0  0  0  0  0  0
  -23.1464  -36.4453   17.9740 C   0  0  0  0  0  0  0  0  0  0  0  0
  -23.1079  -10.6733   21.2733 C   0  0  0  0  0  0  0  0  0  0  0  0
  -24.7312   -9.1294   22.1780 C   0  0  0  0  0  0  0  0  0  0  0  0
  -24.1372  -37.7190   19.7661 C   0  0  0  0  0  0  0  0  0  0  0  0
  -23.8735  -35.3242   18.3726 C   0  0  0  0  0  0  0  0  0  0  0  0
  -23.4119  -28.1811   18.6541 C   0  0  0  0  0  0  0  0  0  0  0  0
  -22.2266   -9.6155   21.0495 C   0  0  0  0  0  0  0  0  0  0  0  0
  -23.8499   -8.0717   21.9543 C   0  0  0  0  0  0  0  0  0  0  0  0
  -24.1202  -27.0404   18.2786 C   0  0  0  0  0  0  0  0  0  0  0  0
  -21.1113   -6.7576   23.4355 C   0  0  0  0  0  0  0  0  0  0  0  0
  -20.9516   -5.8219   24.4575 C   0  0  0  0  0  0  0  0  0  0  0  0
  -27.9007  -21.3626   16.8240 C   0  0  0  0  0  0  0  0  0  0  0  0
  -25.5128  -27.2685   20.2351 C   0  0  0  0  0  0  0  0  0  0  0  0
  -27.0720  -23.5199   16.1195 C   0  0  0  0  0  0  0  0  0  0  0  0
  -21.7273   -4.0752   22.9796 C   0  0  0  0  0  0  0  0  0  0  0  0
  -24.3602  -10.4302   21.8375 C   0  0  0  0  0  0  0  0  0  0  0  0
  -25.3752  -12.3118   23.2294 C   0  0  0  0  0  0  0  0  0  0  0  0
  -24.8678  -36.5957   20.1844 C   0  0  0  0  0  0  0  0  0  0  0  0
  -23.7565  -28.8815   19.8191 C   0  0  0  0  0  0  0  0  0  0  0  0
  -24.7436  -35.3862   19.4744 C   0  0  0  0  0  0  0  0  0  0  0  0
  -27.1359  -21.4486   17.9872 C   0  0  0  0  0  0  0  0  0  0  0  0
  -24.8058  -28.4163   20.6245 C   0  0  0  0  0  0  0  0  0  0  0  0
  -27.8689  -22.3983   15.8901 C   0  0  0  0  0  0  0  0  0  0  0  0
  -26.3071  -23.6059   17.2828 C   0  0  0  0  0  0  0  0  0  0  0  0
  -26.3390  -22.5702   18.2166 C   0  0  0  0  0  0  0  0  0  0  0  0
  -22.5976   -8.3147   21.3900 C   0  0  0  0  0  0  0  0  0  0  0  0
  -25.1726  -26.5856   19.0676 C   0  0  0  0  0  0  0  0  0  0  0  0
  -21.5790   -6.3521   22.1854 C   0  0  0  0  0  0  0  0  0  0  0  0
  -21.2596   -4.4807   24.2296 C   0  0  0  0  0  0  0  0  0  0  0  0
  -21.8870   -5.0109   21.9575 C   0  0  0  0  0  0  0  0  0  0  0  0
  -25.2713  -11.5224   22.0684 C   0  0  0  0  0  0  0  0  0  0  0  0
  -26.3812  -13.2039   22.9490 C   0  0  0  0  0  0  0  0  0  0  0  0
  -24.6292  -12.2445   24.4519 C   0  0  0  0  0  0  0  0  0  0  0  0
  -24.7890  -31.8216   20.4463 C   0  0  0  0  0  0  0  0  0  0  0  0
  -24.4139  -30.8765   23.5266 C   0  0  0  0  0  0  0  0  0  0  0  0
  -24.2481  -28.3100   25.7699 C   0  0  0  0  0  0  0  0  0  0  0  0
  -29.0069  -16.6854   19.6316 C   0  0  0  0  0  0  0  0  0  0  0  0
  -25.8191  -36.7397   21.3458 C   0  0  0  0  0  0  0  0  0  0  0  0
  -22.9654  -30.0949   20.2245 C   0  0  0  0  0  0  0  0  0  0  0  0
  -25.2022  -29.1206   21.8954 C   0  0  0  0  0  0  0  0  0  0  0  0
  -26.2700  -35.4046   21.9329 C   0  0  0  0  0  0  0  0  0  0  0  0
  -29.7165  -13.3357   19.1583 C   0  0  0  0  0  0  0  0  0  0  0  0
  -26.6781  -34.4432   20.8213 C   0  0  0  0  0  0  0  0  0  0  0  0
  -28.6364  -12.6177   19.9671 C   0  0  0  0  0  0  0  0  0  0  0  0
  -26.6723  -18.9886   18.3816 C   0  0  0  0  0  0  0  0  0  0  0  0
  -28.6039  -20.1172   19.5669 C   0  0  0  0  0  0  0  0  0  0  0  0
  -29.1359  -14.5329   18.4147 C   0  0  0  0  0  0  0  0  0  0  0  0
  -26.7617  -17.8333   19.3827 C   0  0  0  0  0  0  0  0  0  0  0  0
  -28.6305  -18.9524   20.5523 C   0  0  0  0  0  0  0  0  0  0  0  0
  -27.3645  -14.8155   20.1177 C   0  0  0  0  0  0  0  0  0  0  0  0
  -27.1916  -20.3064   18.9842 C   0  0  0  0  0  0  0  0  0  0  0  0
  -25.4966  -34.1415   19.8914 C   0  0  1  0  0  0  0  0  0  0  0  0
  -23.7337  -31.0242   21.1591 C   0  0  1  0  0  0  0  0  0  0  0  0
  -27.8995  -13.5972   20.8976 C   0  0  1  0  0  0  0  0  0  0  0  0
  -28.6866  -22.3064   14.6463 C   0  0  0  0  0  0  0  0  0  0  0  0
  -23.9726  -27.8514   28.2217 C   0  0  0  0  0  0  0  0  0  0  0  0
  -27.3048  -31.7258   24.0079 C   0  0  0  0  0  0  0  0  0  0  0  0
  -27.2679  -30.3991   26.1308 C   0  0  0  0  0  0  0  0  0  0  0  0
  -25.7194  -32.3337   25.8441 C   0  0  0  0  0  0  0  0  0  0  0  0
  -24.2235  -22.1710   19.4779 C   0  0  0  0  0  0  0  0  0  0  0  0
  -21.7583  -26.7742   25.3212 C   0  0  0  0  0  0  0  0  0  0  0  0
  -25.4632  -24.8196   17.5014 C   0  0  0  0  0  0  0  0  0  1  0  0
  -25.2926  -30.2025   24.5526 C   0  0  1  0  0  0  0  0  0  0  0  0
  -23.2636  -28.0093   26.8856 C   0  0  2  0  0  0  0  0  0  0  0  0
  -26.3902  -31.1529   25.1089 C   0  0  0  0  0  0  0  0  0  0  0  0
  -26.1416  -11.8816   21.1210 N   0  0  0  0  0  0  0  0  0  0  0  0
  -26.8020  -12.9065   21.6862 N   0  0  0  0  0  0  0  0  0  0  0  0
  -24.4026  -30.3060   22.2459 N   0  0  0  0  0  0  0  0  0  0  0  0
  -28.4417  -15.4368   19.3316 N   0  0  0  0  0  0  0  0  0  0  0  0
  -28.1194  -17.7288   19.9350 N   0  0  0  0  0  0  0  0  0  0  0  0
  -26.9379  -14.2060   23.6620 N   0  0  0  0  0  0  0  0  0  0  0  0
  -23.6316  -11.2676   24.5730 N   0  0  0  0  0  0  0  0  0  0  0  0
  -25.5638  -22.6574   19.3961 N   0  0  0  0  0  0  0  0  0  0  0  0
  -24.5985  -33.1889   20.5081 N   0  0  0  0  0  0  0  0  0  0  0  0
  -24.3948  -29.6663   25.5699 N   0  0  0  0  0  0  0  0  0  0  0  0
  -22.5210  -26.7501   26.5958 N   0  3  0  0  0  0  0  0  0  0  0  0
  -24.8299  -13.0381   25.4024 O   0  0  0  0  0  0  0  0  0  0  0  0
  -25.7087  -31.2396   19.8832 O   0  0  0  0  0  0  0  0  0  0  0  0
  -23.7562  -31.8682   23.8515 O   0  0  0  0  0  0  0  0  0  0  0  0
  -24.8317  -27.4297   25.1414 O   0  0  0  0  0  0  0  0  0  0  0  0
  -30.2322  -16.8584   19.6294 O   0  0  0  0  0  0  0  0  0  0  0  0
  -21.7378   -7.2823   21.1720 O   0  0  0  0  0  0  0  0  0  0  0  0
  -25.8710  -25.4648   18.7004 O   0  0  0  0  0  0  0  0  0  1  0  0
  -21.1076   -3.5825   25.2116 F   0  0  0  0  0  0  0  0  0  0  0  0
  -22.3378   -4.6155   20.7591 F   0  0  0  0  0  0  0  0  0  0  0  0
  1  2  1  0  0  0  0
  1  5  2  0  0  0  0
  2  6  2  0  0  0  0
  3  8  2  0  0  0  0
  3 17  1  0  0  0  0
  4  9  1  0  0  0  0
  4 17  2  0  0  0  0
  5 19  1  0  0  0  0
  6 21  1  0  0  0  0
  7 10  2  0  0  0  0
  7 20  1  0  0  0  0
  8 27  1  0  0  0  0
  9 27  2  0  0  0  0
 10 28  1  0  0  0  0
 11 12  2  0  0  0  0
 11 29  1  0  0  0  0
 12 30  1  0  0  0  0
 13 22  2  0  0  0  0
 13 24  1  0  0  0  0
 14 23  1  0  0  0  0
 14 28  2  0  0  0  0
 15 24  2  0  0  0  0
 15 25  1  0  0  0  0
 16 30  2  0  0  0  0
 16 31  1  0  0  0  0
 17 32  1  0  0  0  0
 18 32  1  0  0  0  0
 18 33  2  0  0  0  0
 18 34  1  0  0  0  0
 19 21  2  0  0  0  0
 19 39  1  0  0  0  0
 20 23  2  0  0  0  0
 20 40  1  0  0  0  0
 21 53  1  0  0  0  0
 22 26  1  0  0  0  0
 22 52  1  0  0  0  0
 23 41  1  0  0  0  0
 24 56  1  0  0  0  0
 25 26  2  0  0  0  0
 25 63  1  0  0  0  0
 26 74  1  0  0  0  0
 27 83  1  0  0  0  0
 28 84  1  0  0  0  0
 29 31  2  0  0  0  0
 29 83  1  0  0  0  0
 30 85  1  0  0  0  0
 31 86  1  0  0  0  0
 32 67  2  0  0  0  0
 33 68  1  0  0  0  0
 33 72  1  0  0  0  0
 34 73  1  0  0  0  0
 34 78  2  0  0  0  0
 35 54  1  0  0  0  0
 35 75  1  0  0  0  0
 35 79  2  0  0  0  0
 36 64  1  0  0  0  0
 36 69  1  0  0  0  0
 36 80  2  0  0  0  0
 37 65  1  0  0  0  0
 37 76  1  0  0  0  0
 37 81  2  0  0  0  0
 38 70  1  0  0  0  0
 38 71  1  0  0  0  0
 38 82  2  0  0  0  0
 39 42  1  0  0  0  0
 40 54  1  0  0  0  0
 41 69  1  0  0  0  0
 42 44  1  0  0  0  0
 43 45  1  0  0  0  0
 43 48  1  0  0  0  0
 44 53  1  0  0  0  0
 45 55  1  0  0  0  0
 46 49  1  0  0  0  0
 46 52  1  0  0  0  0
 47 50  1  0  0  0  0
 47 52  1  0  0  0  0
 48 70  1  0  0  0  0
 49 71  1  0  0  0  0
 50 71  1  0  0  0  0
 51 55  1  0  0  0  0
 51 70  1  0  0  0  0
 53 75  1  0  0  0  0
 54 69  1  0  0  0  0
 55 68  1  0  0  0  0
 57 65  1  0  0  0  0
 58 66  1  0  0  0  0
 59 66  1  0  0  0  0
 60 66  1  0  0  0  0
 61 74  1  0  0  0  0
 62 77  1  0  0  0  0
 63 84  1  0  0  0  0
 64 66  1  0  0  0  0
 64 76  1  0  0  0  0
 65 77  1  0  0  0  0
 67 68  1  0  0  0  0
M  CHG  1  77   1
M  ISO  4  38 100  63 101  71 100  84 101
M  END
> <Batch ID>
0153

> <Smiles>
CNc1c(C2CC[100N:0]([100C:0](=O)N3CCCC(n4nc(-c5ccc(Oc6ccc(F)cc6F)cc5)c(C(N)=O)c4N)C3)CC2)cc(C)cc1[101CH2:1][101O:1]c1ccc2c(c1)CN(C(=O)C(NC(=O)C(C)NC)C(C)(C)C)C(C(=O)NC1CCCc3ccccc31)C2

> <Shape>
0.258

> <Color>
0.125

> <Negative vol penalty>
0.000

$$$$

  -OEChem-04052321483D

 90100  0     1  0  0  0  0  0999 V2000
  -23.4172  -31.0534   17.1268 C   0  0  0  0  0  0  0  0  0  0  0  0
  -23.5386  -30.0717   18.1050 C   0  0  0  0  0  0  0  0  0  0  0  0
  -22.8806  -10.0022   20.0250 C   0  0  0  0  0  0  0  0  0  0  0  0
  -24.2676   -9.4232   21.9166 C   0  0  0  0  0  0  0  0  0  0  0  0
  -22.6934  -32.2150   17.3926 C   0  0  0  0  0  0  0  0  0  0  0  0
  -22.9371  -30.2516   19.3501 C   0  0  0  0  0  0  0  0  0  0  0  0
  -20.5229  -26.1009   20.9590 C   0  0  0  0  0  0  0  0  0  0  0  0
  -22.1712   -8.8114   20.1806 C   0  0  0  0  0  0  0  0  0  0  0  0
  -23.5581   -8.2323   22.0722 C   0  0  0  0  0  0  0  0  0  0  0  0
  -21.3040  -25.0765   21.4923 C   0  0  0  0  0  0  0  0  0  0  0  0
  -20.5977   -7.2504   23.3730 C   0  0  0  0  0  0  0  0  0  0  0  0
  -20.2089   -6.8934   24.6641 C   0  0  0  0  0  0  0  0  0  0  0  0
  -27.1698  -19.8971   21.3767 C   0  0  0  0  0  0  0  0  0  0  0  0
  -25.4890  -20.0994   19.6530 C   0  0  0  0  0  0  0  0  0  0  0  0
  -20.7431  -25.8163   23.7188 C   0  0  0  0  0  0  0  0  0  0  0  0
  -21.4890   -4.8522   24.4851 C   0  0  0  0  0  0  0  0  0  0  0  0
  -23.9289  -10.3081   20.8930 C   0  0  0  0  0  0  0  0  0  0  0  0
  -24.1499  -12.8476   20.7929 C   0  0  0  0  0  0  0  0  0  0  0  0
  -22.0746  -32.4049   18.6383 C   0  0  0  0  0  0  0  0  0  0  0  0
  -19.8538  -26.9988   21.8030 C   0  0  0  0  0  0  0  0  0  0  0  0
  -22.2054  -31.4174   19.6333 C   0  0  0  0  0  0  0  0  0  0  0  0
  -25.9583  -20.4217   20.9265 C   0  0  0  0  0  0  0  0  0  0  0  0
  -19.9521  -26.8496   23.1937 C   0  0  0  0  0  0  0  0  0  0  0  0
  -27.9121  -19.0503   20.5535 C   0  0  0  0  0  0  0  0  0  0  0  0
  -27.4428  -18.7280   19.2801 C   0  0  0  0  0  0  0  0  0  0  0  0
  -22.5099   -7.9265   21.2042 C   0  0  0  0  0  0  0  0  0  0  0  0
  -21.4165  -24.9359   22.8724 C   0  0  0  0  0  0  0  0  0  0  0  0
  -21.4320   -6.4083   22.6379 C   0  0  0  0  0  0  0  0  0  0  0  0
  -26.2313  -19.2526   18.8298 C   0  0  0  0  0  0  0  0  0  0  0  0
  -20.6546   -5.6943   25.2202 C   0  0  0  0  0  0  0  0  0  0  0  0
  -21.8777   -5.2092   23.1939 C   0  0  0  0  0  0  0  0  0  0  0  0
  -24.6625  -11.5378   20.7324 C   0  0  0  0  0  0  0  0  0  0  0  0
  -25.2412  -13.6536   20.5786 C   0  0  0  0  0  0  0  0  0  0  0  0
  -22.8074  -13.2955   21.0223 C   0  0  0  0  0  0  0  0  0  0  0  0
  -19.9786  -30.1375   22.2896 C   0  0  0  0  0  0  0  0  0  0  0  0
  -17.4418  -29.5456   24.2226 C   0  0  0  0  0  0  0  0  0  0  0  0
  -15.0550  -28.2468   26.2874 C   0  0  0  0  0  0  0  0  0  0  0  0
  -29.8012  -14.7564   17.5243 C   0  0  0  0  0  0  0  0  0  0  0  0
  -21.3423  -33.6981   18.8954 C   0  0  0  0  0  0  0  0  0  0  0  0
  -18.9937  -28.0821   21.2120 C   0  0  0  0  0  0  0  0  0  0  0  0
  -19.2374  -27.7750   24.1431 C   0  0  0  0  0  0  0  0  0  0  0  0
  -20.4208  -33.6448   20.1113 C   0  0  0  0  0  0  0  0  0  0  0  0
  -30.1862  -12.5768   20.4328 C   0  0  0  0  0  0  0  0  0  0  0  0
  -23.7770  -20.7439   22.1711 C   0  0  0  0  0  0  0  0  0  0  0  0
  -25.0020  -22.7484   21.2117 C   0  0  0  0  0  0  0  0  0  0  0  0
  -21.1390  -33.0102   21.2980 C   0  0  0  0  0  0  0  0  0  0  0  0
  -28.7402  -12.1871   20.7514 C   0  0  0  0  0  0  0  0  0  0  0  0
  -22.9770  -21.6752   23.0784 C   0  0  0  0  0  0  0  0  0  0  0  0
  -24.1961  -23.6690   22.1244 C   0  0  0  0  0  0  0  0  0  0  0  0
  -30.4019  -12.8205   18.9396 C   0  0  0  0  0  0  0  0  0  0  0  0
  -28.6907  -18.2728   17.1546 C   0  0  0  0  0  0  0  0  0  0  0  0
  -29.5253  -17.0779   16.7240 C   0  0  0  0  0  0  0  0  0  0  0  0
  -28.0177  -13.3557   18.6415 C   0  0  0  0  0  0  0  0  0  0  0  0
  -28.3004  -16.4584   18.6919 C   0  0  0  0  0  0  0  0  0  0  0  0
  -25.1509  -21.3434   21.8222 C   0  0  0  0  0  0  0  0  0  0  0  0
  -21.5465  -31.5649   20.9876 C   0  0  1  0  0  0  0  0  0  0  0  0
  -18.7703  -29.2534   22.1636 C   0  0  1  0  0  0  0  0  0  0  0  0
  -27.7427  -13.1920   20.1418 C   0  0  1  0  0  0  0  0  0  0  0  0
  -22.8353  -23.0699   22.4714 C   0  0  0  0  0  0  0  0  0  1  0  0
  -29.2058  -18.5028   21.0627 C   0  0  0  0  0  0  0  0  0  0  0  0
  -13.3741  -28.9211   28.0243 C   0  0  0  0  0  0  0  0  0  0  0  0
  -19.6866  -29.8789   26.2621 C   0  0  0  0  0  0  0  0  0  0  0  0
  -17.9850  -29.5982   28.0770 C   0  0  0  0  0  0  0  0  0  0  0  0
  -17.8133  -31.5193   26.4951 C   0  0  0  0  0  0  0  0  0  0  0  0
  -12.7978  -27.2346   24.6628 C   0  0  0  0  0  0  0  0  0  0  0  0
  -24.9146  -17.8034   17.4800 C   0  0  0  0  0  0  0  0  0  0  0  0
  -17.2677  -29.1894   25.6792 C   0  0  1  0  0  0  0  0  0  0  0  0
  -13.6163  -28.6559   26.5466 C   0  0  2  0  0  0  0  0  0  0  0  0
  -18.1915  -30.0264   26.6084 C   0  0  0  0  0  0  0  0  0  0  0  0
  -25.9771  -11.5089   20.4979 N   0  0  0  0  0  0  0  0  0  0  0  0
  -26.2998  -12.8104   20.4090 N   0  0  0  0  0  0  0  0  0  0  0  0
  -28.1747  -17.8906   18.4622 N   0  0  3  0  0  0  0  0  0  0  0  0
  -18.4137  -28.8223   23.5168 N   0  0  0  0  0  0  0  0  0  0  0  0
  -29.4087  -13.7603   18.4228 N   0  0  0  0  0  0  0  0  0  0  0  0
  -29.1244  -15.9779   17.5867 N   0  0  0  0  0  0  0  0  0  0  0  0
  -25.3889  -14.9942   20.5204 N   0  0  0  0  0  0  0  0  0  0  0  0
  -22.3987  -13.5332   22.3417 N   0  0  0  0  0  0  0  0  0  0  0  0
  -20.4035  -30.6836   21.0935 N   0  0  0  0  0  0  0  0  0  0  0  0
  -15.8445  -29.3309   25.9668 N   0  0  0  0  0  0  0  0  0  0  0  0
  -12.6842  -27.5811   26.1029 N   0  3  0  0  0  0  0  0  0  0  0  0
  -21.9893  -13.4639   20.0864 O   0  0  0  0  0  0  0  0  0  0  0  0
  -20.4870  -30.3125   23.3908 O   0  0  0  0  0  0  0  0  0  0  0  0
  -16.7363  -30.4280   23.7273 O   0  0  0  0  0  0  0  0  0  0  0  0
  -15.4408  -27.0824   26.3654 O   0  0  0  0  0  0  0  0  0  0  0  0
  -30.7458  -14.5841   16.7433 O   0  0  0  0  0  0  0  0  0  0  0  0
  -21.8177   -6.7645   21.3565 O   0  0  0  0  0  0  0  0  0  0  0  0
  -22.1836  -23.9308   23.3990 O   0  0  0  0  0  0  0  0  0  1  0  0
  -25.7542  -18.9507   17.5892 O   0  0  0  0  0  0  0  0  0  0  0  0
  -20.2824   -5.3524   26.4607 F   0  0  0  0  0  0  0  0  0  0  0  0
  -22.6803   -4.3966   22.4930 F   0  0  0  0  0  0  0  0  0  0  0  0
  1  2  1  0  0  0  0
  1  5  2  0  0  0  0
  2  6  2  0  0  0  0
  3  8  2  0  0  0  0
  3 17  1  0  0  0  0
  4  9  1  0  0  0  0
  4 17  2  0  0  0  0
  5 19  1  0  0  0  0
  6 21  1  0  0  0  0
  7 10  2  0  0  0  0
  7 20  1  0  0  0  0
  8 26  1  0  0  0  0
  9 26  2  0  0  0  0
 10 27  1  0  0  0  0
 11 12  2  0  0  0  0
 11 28  1  0  0  0  0
 12 30  1  0  0  0  0
 13 22  1  0  0  0  0
 13 24  2  0  0  0  0
 14 22  2  0  0  0  0
 14 29  1  0  0  0  0
 15 23  1  0  0  0  0
 15 27  2  0  0  0  0
 16 30  2  0  0  0  0
 16 31  1  0  0  0  0
 17 32  1  0  0  0  0
 18 32  1  0  0  0  0
 18 33  2  0  0  0  0
 18 34  1  0  0  0  0
 19 21  2  0  0  0  0
 19 39  1  0  0  0  0
 20 23  2  0  0  0  0
 20 40  1  0  0  0  0
 21 56  1  0  0  0  0
 22 55  1  0  0  0  0
 23 41  1  0  0  0  0
 24 25  1  0  0  0  0
 24 60  1  0  0  0  0
 25 29  2  0  0  0  0
 25 72  1  0  0  0  0
 26 86  1  0  0  0  0
 27 87  1  0  0  0  0
 28 31  2  0  0  0  0
 28 86  1  0  0  0  0
 29 88  1  0  0  0  0
 30 89  1  0  0  0  0
 31 90  1  0  0  0  0
 32 70  2  0  0  0  0
 33 71  1  0  0  0  0
 33 76  1  0  0  0  0
 34 77  1  0  0  0  0
 34 81  2  0  0  0  0
 35 57  1  0  0  0  0
 35 78  1  0  0  0  0
 35 82  2  0  0  0  0
 36 67  1  0  0  0  0
 36 73  1  0  0  0  0
 36 83  2  0  0  0  0
 37 68  1  0  0  0  0
 37 79  1  0  0  0  0
 37 84  2  0  0  0  0
 38 74  1  0  0  0  0
 38 75  1  0  0  0  0
 38 85  2  0  0  0  0
 39 42  1  0  0  0  0
 40 57  1  0  0  0  0
 41 73  1  0  0  0  0
 42 46  1  0  0  0  0
 43 47  1  0  0  0  0
 43 50  1  0  0  0  0
 44 48  1  0  0  0  0
 44 55  1  0  0  0  0
 45 49  1  0  0  0  0
 45 55  1  0  0  0  0
 46 56  1  0  0  0  0
 47 58  1  0  0  0  0
 48 59  1  0  0  0  0
 49 59  1  0  0  0  0
 50 74  1  0  0  0  0
 51 52  1  0  0  0  0
 51 72  1  0  0  0  0
 52 75  1  0  0  0  0
 53 58  1  0  0  0  0
 53 74  1  0  0  0  0
 54 72  1  0  0  0  0
 54 75  1  0  0  0  0
 56 78  1  0  0  0  0
 57 73  1  0  0  0  0
 58 71  1  0  0  0  0
 59 87  1  0  0  0  0
 61 68  1  0  0  0  0
 62 69  1  0  0  0  0
 63 69  1  0  0  0  0
 64 69  1  0  0  0  0
 65 80  1  0  0  0  0
 66 88  1  0  0  0  0
 67 69  1  0  0  0  0
 67 79  1  0  0  0  0
 68 80  1  0  0  0  0
 70 71  1  0  0  0  0
M  CHG  1  80   1
M  ISO  4  38 100  59 101  75 100  87 101
M  END
> <Batch ID>
0153

> <Smiles>
CNC(C)C(=O)NC(C(=O)N1Cc2cc([101O:1][101CH:1]3CCC(c4cc(C)c(N5CC[100N:0]([100C:0](=O)N6CCCC(n7nc(-c8ccc(Oc9ccc(F)cc9F)cc8)c(C(N)=O)c7N)C6)C5)c(OC)c4)CC3)ccc2CC1C(=O)NC1CCCc2ccccc21)C(C)(C)C

> <Shape>
0.261

> <Color>
0.180

> <Negative vol penalty>
0.000

$$$$

  -OEChem-04052321483D

 90 99  0     1  0  0  0  0  0999 V2000
  -18.2212  -31.1682   26.3298 C   0  0  0  0  0  0  0  0  0  0  0  0
  -19.5793  -30.8998   26.4672 C   0  0  0  0  0  0  0  0  0  0  0  0
  -23.5649   -8.6671   19.3685 C   0  0  0  0  0  0  0  0  0  0  0  0
  -23.2943   -9.9321   21.4089 C   0  0  0  0  0  0  0  0  0  0  0  0
  -17.5339  -30.7204   25.2024 C   0  0  0  0  0  0  0  0  0  0  0  0
  -20.2507  -30.1823   25.4778 C   0  0  0  0  0  0  0  0  0  0  0  0
  -26.6661  -29.6749   22.3312 C   0  0  0  0  0  0  0  0  0  0  0  0
  -22.7840   -7.6412   19.9009 C   0  0  0  0  0  0  0  0  0  0  0  0
  -22.5133   -8.9063   21.9414 C   0  0  0  0  0  0  0  0  0  0  0  0
  -27.6398  -28.7277   22.0170 C   0  0  0  0  0  0  0  0  0  0  0  0
  -23.0089   -5.8759   23.3564 C   0  0  0  0  0  0  0  0  0  0  0  0
  -23.2664   -5.4798   24.6688 C   0  0  0  0  0  0  0  0  0  0  0  0
  -26.3673  -28.0726   20.0752 C   0  0  0  0  0  0  0  0  0  0  0  0
  -32.2774  -23.9451   19.9488 C   0  0  0  0  0  0  0  0  0  0  0  0
  -31.6789  -26.2583   20.3058 C   0  0  0  0  0  0  0  0  0  0  0  0
  -28.4681  -18.1333   19.7883 C   0  0  0  0  0  0  0  0  0  0  0  0
  -21.0068   -6.0677   25.2896 C   0  0  0  0  0  0  0  0  0  0  0  0
  -23.8201   -9.8125   20.1225 C   0  0  0  0  0  0  0  0  0  0  0  0
  -24.1823  -11.9803   18.8276 C   0  0  0  0  0  0  0  0  0  0  0  0
  -18.1993  -30.0055   24.1940 C   0  0  0  0  0  0  0  0  0  0  0  0
  -25.5285  -29.8208   21.5244 C   0  0  0  0  0  0  0  0  0  0  0  0
  -19.5714  -29.7234   24.3365 C   0  0  0  0  0  0  0  0  0  0  0  0
  -25.3819  -29.0241   20.3799 C   0  0  0  0  0  0  0  0  0  0  0  0
  -32.5674  -25.3026   19.8130 C   0  0  0  0  0  0  0  0  0  0  0  0
  -31.0988  -23.5431   20.5774 C   0  0  0  0  0  0  0  0  0  0  0  0
  -30.5004  -25.8564   20.9345 C   0  0  0  0  0  0  0  0  0  0  0  0
  -28.7197  -19.4930   19.6431 C   0  0  0  0  0  0  0  0  0  0  0  0
  -30.2104  -24.4988   21.0703 C   0  0  0  0  0  0  0  0  0  0  0  0
  -30.0316  -19.9471   19.5651 C   0  0  0  0  0  0  0  0  0  0  0  0
  -22.2582   -7.7608   21.1873 C   0  0  0  0  0  0  0  0  0  0  0  0
  -27.4890  -27.9244   20.8905 C   0  0  0  0  0  0  0  0  0  0  0  0
  -21.7503   -6.3680   23.0106 C   0  0  0  0  0  0  0  0  0  0  0  0
  -22.2654   -5.5757   25.6354 C   0  0  0  0  0  0  0  0  0  0  0  0
  -20.7493   -6.4639   23.9772 C   0  0  0  0  0  0  0  0  0  0  0  0
  -24.6271  -10.8723   19.5733 C   0  0  0  0  0  0  0  0  0  0  0  0
  -31.0482  -19.0083   19.6368 C   0  0  0  0  0  0  0  0  0  0  0  0
  -29.5546  -17.2757   19.8498 C   0  0  0  0  0  0  0  0  0  0  0  0
  -25.3266  -12.6848   18.5436 C   0  0  0  0  0  0  0  0  0  0  0  0
  -22.8535  -12.3407   18.4274 C   0  0  0  0  0  0  0  0  0  0  0  0
  -22.4008  -29.4743   21.9732 C   0  0  0  0  0  0  0  0  0  0  0  0
  -22.2313  -30.6630   18.9598 C   0  0  0  0  0  0  0  0  0  0  0  0
  -23.7622  -31.1574   15.9500 C   0  0  0  0  0  0  0  0  0  0  0  0
  -30.2177  -14.8564   20.0815 C   0  0  0  0  0  0  0  0  0  0  0  0
  -17.4039  -29.5011   23.0161 C   0  0  0  0  0  0  0  0  0  0  0  0
  -24.5004  -30.8655   21.8622 C   0  0  0  0  0  0  0  0  0  0  0  0
  -24.1890  -29.1554   19.4698 C   0  0  0  0  0  0  0  0  0  0  0  0
  -18.2704  -29.0714   21.8351 C   0  0  0  0  0  0  0  0  0  0  0  0
  -30.1962  -11.4286   19.1187 C   0  0  0  0  0  0  0  0  0  0  0  0
  -19.4274  -28.1989   22.3114 C   0  0  0  0  0  0  0  0  0  0  0  0
  -28.7089  -11.0695   19.0898 C   0  0  0  0  0  0  0  0  0  0  0  0
  -30.5240  -12.3965   20.2543 C   0  0  0  0  0  0  0  0  0  0  0  0
  -28.2143  -13.2534   20.2615 C   0  0  0  0  0  0  0  0  0  0  0  0
  -20.3401  -28.9696   23.2730 C   0  0  1  0  0  0  0  0  0  0  0  0
  -23.1311  -30.5742   21.2559 C   0  0  1  0  0  0  0  0  0  0  0  0
  -27.8242  -12.3315   19.0946 C   0  0  2  0  0  0  0  0  0  0  0  0
  -33.8271  -25.7324   19.1403 C   0  0  0  0  0  0  0  0  0  0  0  0
  -27.5693  -20.4422   19.5744 C   0  0  0  0  0  0  0  0  0  0  0  0
  -28.9470  -24.0675   21.7447 C   0  0  0  0  0  0  0  0  0  0  0  0
  -32.4772  -19.4376   19.5597 C   0  0  0  0  0  0  0  0  0  0  0  0
  -23.3583  -32.1243   13.6698 C   0  0  0  0  0  0  0  0  0  0  0  0
  -20.5469  -28.2264   18.2276 C   0  0  0  0  0  0  0  0  0  0  0  0
  -20.9775  -28.7406   15.8155 C   0  0  0  0  0  0  0  0  0  0  0  0
  -19.7501  -30.3809   17.2388 C   0  0  0  0  0  0  0  0  0  0  0  0
  -25.9456  -33.1292   16.2722 C   0  0  0  0  0  0  0  0  0  0  0  0
  -30.8124  -22.0831   20.7111 C   0  0  0  0  0  0  0  0  0  0  0  0
  -30.3359  -21.4168   19.4063 C   0  0  0  0  0  0  0  0  0  0  0  0
  -29.5615  -26.9041   21.4561 C   0  0  0  0  0  0  0  0  0  1  0  0
  -22.2362  -30.0660   17.5732 C   0  0  1  0  0  0  0  0  0  0  0  0
  -23.8836  -32.3898   15.0721 C   0  0  2  0  0  0  0  0  0  0  0  0
  -20.8993  -29.3494   17.2318 C   0  0  0  0  0  0  0  0  0  0  0  0
  -25.9508  -10.8686   19.7517 N   0  0  0  0  0  0  0  0  0  0  0  0
  -30.8428  -17.6796   19.7776 N   0  0  0  0  0  0  0  0  0  0  0  0
  -26.3476  -11.9830   19.1140 N   0  0  0  0  0  0  0  0  0  0  0  0
  -23.2081  -30.1868   19.8459 N   0  0  0  0  0  0  0  0  0  0  0  0
  -29.6496  -13.5697   20.1925 N   0  0  0  0  0  0  0  0  0  0  0  0
  -25.5491  -13.8299   17.8640 N   0  0  0  0  0  0  0  0  0  0  0  0
  -21.7928  -11.5054   18.8037 N   0  0  0  0  0  0  0  0  0  0  0  0
  -29.2876  -15.8921   19.9980 N   0  0  0  0  0  0  0  0  0  0  0  0
  -21.2034  -29.8694   22.5384 N   0  0  0  0  0  0  0  0  0  0  0  0
  -22.5816  -31.1521   16.6625 N   0  0  0  0  0  0  0  0  0  0  0  0
  -25.3086  -32.8132   14.9678 N   0  3  0  0  0  0  0  0  0  0  0  0
  -22.6157  -13.3640   17.7421 O   0  0  0  0  0  0  0  0  0  0  0  0
  -22.8870  -28.3500   22.0099 O   0  0  0  0  0  0  0  0  0  0  0  0
  -21.3963  -31.5253   19.2440 O   0  0  0  0  0  0  0  0  0  0  0  0
  -24.6264  -30.2847   15.9962 O   0  0  0  0  0  0  0  0  0  0  0  0
  -31.4389  -15.0248   20.0346 O   0  0  0  0  0  0  0  0  0  0  0  0
  -21.4960   -6.7601   21.7070 O   0  0  0  0  0  0  0  0  0  0  0  0
  -28.4375  -26.9987   20.5819 O   0  0  0  0  0  0  0  0  0  1  0  0
  -22.5124   -5.1938   26.8953 F   0  0  0  0  0  0  0  0  0  0  0  0
  -19.5378   -6.9347   23.6507 F   0  0  0  0  0  0  0  0  0  0  0  0
  1  2  1  0  0  0  0
  1  5  2  0  0  0  0
  2  6  2  0  0  0  0
  3  8  2  0  0  0  0
  3 18  1  0  0  0  0
  4  9  1  0  0  0  0
  4 18  2  0  0  0  0
  5 20  1  0  0  0  0
  6 22  1  0  0  0  0
  7 10  2  0  0  0  0
  7 21  1  0  0  0  0
  8 30  1  0  0  0  0
  9 30  2  0  0  0  0
 10 31  1  0  0  0  0
 11 12  2  0  0  0  0
 11 32  1  0  0  0  0
 12 33  1  0  0  0  0
 13 23  1  0  0  0  0
 13 31  2  0  0  0  0
 14 24  1  0  0  0  0
 14 25  2  0  0  0  0
 15 24  2  0  0  0  0
 15 26  1  0  0  0  0
 16 27  2  0  0  0  0
 16 37  1  0  0  0  0
 17 33  2  0  0  0  0
 17 34  1  0  0  0  0
 18 35  1  0  0  0  0
 19 35  1  0  0  0  0
 19 38  2  0  0  0  0
 19 39  1  0  0  0  0
 20 22  2  0  0  0  0
 20 44  1  0  0  0  0
 21 23  2  0  0  0  0
 21 45  1  0  0  0  0
 22 53  1  0  0  0  0
 23 46  1  0  0  0  0
 24 56  1  0  0  0  0
 25 28  1  0  0  0  0
 25 65  1  0  0  0  0
 26 28  2  0  0  0  0
 26 67  1  0  0  0  0
 27 29  1  0  0  0  0
 27 57  1  0  0  0  0
 28 58  1  0  0  0  0
 29 36  2  0  0  0  0
 29 66  1  0  0  0  0
 30 87  1  0  0  0  0
 31 88  1  0  0  0  0
 32 34  2  0  0  0  0
 32 87  1  0  0  0  0
 33 89  1  0  0  0  0
 34 90  1  0  0  0  0
 35 71  2  0  0  0  0
 36 59  1  0  0  0  0
 36 72  1  0  0  0  0
 37 72  2  0  0  0  0
 37 78  1  0  0  0  0
 38 73  1  0  0  0  0
 38 76  1  0  0  0  0
 39 77  1  0  0  0  0
 39 82  2  0  0  0  0
 40 54  1  0  0  0  0
 40 79  1  0  0  0  0
 40 83  2  0  0  0  0
 41 68  1  0  0  0  0
 41 74  1  0  0  0  0
 41 84  2  0  0  0  0
 42 69  1  0  0  0  0
 42 80  1  0  0  0  0
 42 85  2  0  0  0  0
 43 75  1  0  0  0  0
 43 78  1  0  0  0  0
 43 86  2  0  0  0  0
 44 47  1  0  0  0  0
 45 54  1  0  0  0  0
 46 74  1  0  0  0  0
 47 49  1  0  0  0  0
 48 50  1  0  0  0  0
 48 51  1  0  0  0  0
 49 53  1  0  0  0  0
 50 55  1  0  0  0  0
 51 75  1  0  0  0  0
 52 55  1  0  0  0  0
 52 75  1  0  0  0  0
 53 79  1  0  0  0  0
 54 74  1  0  0  0  0
 55 73  1  0  0  0  0
 60 69  1  0  0  0  0
 61 70  1  0  0  0  0
 62 70  1  0  0  0  0
 63 70  1  0  0  0  0
 64 81  1  0  0  0  0
 65 66  1  0  0  0  0
 67 88  1  0  0  0  0
 68 70  1  0  0  0  0
 68 80  1  0  0  0  0
 69 81  1  0  0  0  0
 71 73  1  0  0  0  0
M  CHG  1  81   1
M  ISO  4  43 100  67 101  78 100  88 101
M  END
> <Batch ID>
0153

> <Smiles>
CNC(C)C(=O)NC(C(=O)N1Cc2cc([101O:1][101CH2:1]c3cc(C)cc(CCc4c(C)cc([100NH:0][100C:0](=O)N5CCCC(n6nc(-c7ccc(Oc8ccc(F)cc8F)cc7)c(C(N)=O)c6N)C5)nc4C)c3C)ccc2CC1C(=O)NC1CCCc2ccccc21)C(C)(C)C

> <Shape>
0.307

> <Color>
0.148

> <Negative vol penalty>
0.000

$$$$

  -OEChem-04052321483D

 87 96  0     1  0  0  0  0  0999 V2000
  -28.4674  -31.9202   26.5450 C   0  0  0  0  0  0  0  0  0  0  0  0
  -28.5057  -30.8329   25.6778 C   0  0  0  0  0  0  0  0  0  0  0  0
  -23.9565  -10.5504   23.0722 C   0  0  0  0  0  0  0  0  0  0  0  0
  -24.3892  -12.4720   24.4712 C   0  0  0  0  0  0  0  0  0  0  0  0
  -27.2462  -32.3650   27.0499 C   0  0  0  0  0  0  0  0  0  0  0  0
  -27.3229  -30.1891   25.3160 C   0  0  0  0  0  0  0  0  0  0  0  0
  -27.0821  -29.2132   20.3527 C   0  0  0  0  0  0  0  0  0  0  0  0
  -23.4847   -9.8488   24.1816 C   0  0  0  0  0  0  0  0  0  0  0  0
  -23.9174  -11.7705   25.5807 C   0  0  0  0  0  0  0  0  0  0  0  0
  -27.8114  -28.1221   19.8822 C   0  0  0  0  0  0  0  0  0  0  0  0
  -20.6510   -9.7110   26.0211 C   0  0  0  0  0  0  0  0  0  0  0  0
  -19.4674   -8.9875   25.8753 C   0  0  0  0  0  0  0  0  0  0  0  0
  -25.7991  -26.7919   19.8655 C   0  0  0  0  0  0  0  0  0  0  0  0
  -28.2903  -21.5982   21.6756 C   0  0  0  0  0  0  0  0  0  0  0  0
  -20.6426   -6.9520   26.4345 C   0  0  0  0  0  0  0  0  0  0  0  0
  -30.2971  -20.4263   20.2456 C   0  0  0  0  0  0  0  0  0  0  0  0
  -24.4088  -11.8619   23.2169 C   0  0  0  0  0  0  0  0  0  0  0  0
  -24.1481  -13.3944   21.1942 C   0  0  0  0  0  0  0  0  0  0  0  0
  -26.0469  -31.7323   26.6865 C   0  0  0  0  0  0  0  0  0  0  0  0
  -25.7054  -29.0985   20.5939 C   0  0  0  0  0  0  0  0  0  0  0  0
  -26.0847  -30.6250   25.8176 C   0  0  0  0  0  0  0  0  0  0  0  0
  -25.0541  -27.8837   20.3366 C   0  0  0  0  0  0  0  0  0  0  0  0
  -28.5531  -20.2444   21.8524 C   0  0  0  0  0  0  0  0  0  0  0  0
  -23.4651  -10.4589   25.4358 C   0  0  0  0  0  0  0  0  0  0  0  0
  -27.1705  -26.9104   19.6413 C   0  0  0  0  0  0  0  0  0  0  0  0
  -21.8305   -9.0549   26.3735 C   0  0  0  0  0  0  0  0  0  0  0  0
  -29.5739  -19.6396   21.1276 C   0  0  0  0  0  0  0  0  0  0  0  0
  -19.4632   -7.6081   26.0820 C   0  0  0  0  0  0  0  0  0  0  0  0
  -21.8263   -7.6755   26.5802 C   0  0  0  0  0  0  0  0  0  0  0  0
  -24.8968  -12.5869   22.0714 C   0  0  0  0  0  0  0  0  0  0  0  0
  -29.0711  -22.2973   20.7692 C   0  0  0  0  0  0  0  0  0  0  0  0
  -25.0664  -13.8530   20.2816 C   0  0  0  0  0  0  0  0  0  0  0  0
  -22.7479  -13.7023   21.2036 C   0  0  0  0  0  0  0  0  0  0  0  0
  -23.8472  -29.3699   23.1584 C   0  0  0  0  0  0  0  0  0  0  0  0
  -21.4629  -29.0284   20.9857 C   0  0  0  0  0  0  0  0  0  0  0  0
  -20.4716  -27.8806   17.9285 C   0  0  0  0  0  0  0  0  0  0  0  0
  -30.9930  -14.6713   20.5198 C   0  0  0  0  0  0  0  0  0  0  0  0
  -24.7558  -32.2194   27.2952 C   0  0  0  0  0  0  0  0  0  0  0  0
  -24.9280  -30.2925   21.0760 C   0  0  0  0  0  0  0  0  0  0  0  0
  -23.5743  -27.7145   20.5601 C   0  0  0  0  0  0  0  0  0  0  0  0
  -23.5116  -31.7167   26.5675 C   0  0  0  0  0  0  0  0  0  0  0  0
  -29.2029  -12.6466   18.2020 C   0  0  0  0  0  0  0  0  0  0  0  0
  -23.6231  -30.2209   26.2902 C   0  0  0  0  0  0  0  0  0  0  0  0
  -26.6007  -17.5217   21.4531 C   0  0  0  0  0  0  0  0  0  0  0  0
  -25.8643  -17.6135   22.7604 C   0  0  0  0  0  0  0  0  0  0  0  0
  -27.8287  -12.4745   18.8517 C   0  0  0  0  0  0  0  0  0  0  0  0
  -30.3212  -12.6584   19.2417 C   0  0  0  0  0  0  0  0  0  0  0  0
  -28.7713  -13.4672   20.9788 C   0  0  0  0  0  0  0  0  0  0  0  0
  -24.8207  -29.9160   25.3822 C   0  0  1  0  0  0  0  0  0  0  0  0
  -23.6261  -29.9149   21.7758 C   0  0  1  0  0  0  0  0  0  0  0  0
  -26.4997  -18.8406   22.1679 C   0  0  0  0  0  0  0  0  0  0  0  0
  -27.6065  -13.5053   19.9748 C   0  0  2  0  0  0  0  0  0  0  0  0
  -18.4533  -27.7136   16.4466 C   0  0  0  0  0  0  0  0  0  0  0  0
  -20.3915  -26.7475   22.7061 C   0  0  0  0  0  0  0  0  0  0  0  0
  -18.9977  -26.0243   20.7561 C   0  0  0  0  0  0  0  0  0  0  0  0
  -18.6361  -28.2697   21.7808 C   0  0  0  0  0  0  0  0  0  0  0  0
  -21.7493  -29.5044   15.8096 C   0  0  0  0  0  0  0  0  0  0  0  0
  -27.7333  -19.4581   22.8205 C   0  0  0  0  0  0  0  0  0  0  0  0
  -31.5200  -16.6835   21.8734 C   0  0  0  0  0  0  0  0  0  0  0  0
  -31.2214  -17.9260   21.0537 C   0  0  0  0  0  0  0  0  0  0  0  0
  -29.2518  -25.7622   19.5675 C   0  0  0  0  0  0  0  0  0  1  0  0
  -29.6610  -24.3036   19.6367 C   0  0  0  0  0  0  0  0  0  0  0  0
  -20.7120  -27.8583   20.3975 C   0  0  1  0  0  0  0  0  0  0  0  0
  -19.6769  -28.5383   16.8148 C   0  0  2  0  0  0  0  0  0  0  0  0
  -19.7126  -27.2273   21.4076 C   0  0  0  0  0  0  0  0  0  0  0  0
  -30.0712  -21.7442   20.0470 N   0  0  0  0  0  0  0  0  0  0  0  0
  -26.1909  -12.5336   21.7453 N   0  0  0  0  0  0  0  0  0  0  0  0
  -26.2626  -13.3132   20.6530 N   0  0  0  0  0  0  0  0  0  0  0  0
  -22.8589  -28.9092   21.0381 N   0  0  0  0  0  0  0  0  0  0  0  0
  -30.0506  -13.6583   20.2775 N   0  0  0  0  0  0  0  0  0  0  0  0
  -24.9593  -14.6614   19.2057 N   0  0  0  0  0  0  0  0  0  0  0  0
  -21.9484  -13.1472   22.2121 N   0  0  0  0  0  0  0  0  0  0  0  0
  -24.5071  -30.2386   24.0067 N   0  0  0  0  0  0  0  0  0  0  0  0
  -20.0928  -28.3461   19.1699 N   0  0  0  0  0  0  0  0  0  0  0  0
  -30.6555  -15.5817   21.5138 N   0  0  0  0  0  0  0  0  0  0  0  0
  -20.5223  -28.6941   15.5975 N   0  3  0  0  0  0  0  0  0  0  0  0
  -22.2182  -14.4344   20.3336 O   0  0  0  0  0  0  0  0  0  0  0  0
  -23.4473  -28.2452   23.4356 O   0  0  0  0  0  0  0  0  0  0  0  0
  -20.8344  -30.0149   21.3775 O   0  0  0  0  0  0  0  0  0  0  0  0
  -21.3389  -27.0355   17.7184 O   0  0  0  0  0  0  0  0  0  0  0  0
  -32.0541  -14.7610   19.8929 O   0  0  0  0  0  0  0  0  0  0  0  0
  -23.0046   -9.7747   26.5186 O   0  0  0  0  0  0  0  0  0  0  0  0
  -27.8801  -25.8437   19.1826 O   0  0  0  0  0  0  0  0  0  1  0  0
  -29.8656  -18.3214   21.2681 O   0  0  0  0  0  0  0  0  0  0  0  0
  -28.8317  -23.6327   20.5777 O   0  0  0  0  0  0  0  0  0  0  0  0
  -18.3261   -6.9137   25.9435 F   0  0  0  0  0  0  0  0  0  0  0  0
  -22.9560   -7.0399   26.9201 F   0  0  0  0  0  0  0  0  0  0  0  0
  1  2  1  0  0  0  0
  1  5  2  0  0  0  0
  2  6  2  0  0  0  0
  3  8  2  0  0  0  0
  3 17  1  0  0  0  0
  4  9  1  0  0  0  0
  4 17  2  0  0  0  0
  5 19  1  0  0  0  0
  6 21  1  0  0  0  0
  7 10  2  0  0  0  0
  7 20  1  0  0  0  0
  8 24  1  0  0  0  0
  9 24  2  0  0  0  0
 10 25  1  0  0  0  0
 11 12  2  0  0  0  0
 11 26  1  0  0  0  0
 12 28  1  0  0  0  0
 13 22  1  0  0  0  0
 13 25  2  0  0  0  0
 14 23  2  0  0  0  0
 14 31  1  0  0  0  0
 15 28  2  0  0  0  0
 15 29  1  0  0  0  0
 16 27  2  0  0  0  0
 16 66  1  0  0  0  0
 17 30  1  0  0  0  0
 18 30  1  0  0  0  0
 18 32  2  0  0  0  0
 18 33  1  0  0  0  0
 19 21  2  0  0  0  0
 19 38  1  0  0  0  0
 20 22  2  0  0  0  0
 20 39  1  0  0  0  0
 21 49  1  0  0  0  0
 22 40  1  0  0  0  0
 23 27  1  0  0  0  0
 23 58  1  0  0  0  0
 24 82  1  0  0  0  0
 25 83  1  0  0  0  0
 26 29  2  0  0  0  0
 26 82  1  0  0  0  0
 27 84  1  0  0  0  0
 28 86  1  0  0  0  0
 29 87  1  0  0  0  0
 30 67  2  0  0  0  0
 31 66  2  0  0  0  0
 31 85  1  0  0  0  0
 32 68  1  0  0  0  0
 32 71  1  0  0  0  0
 33 72  1  0  0  0  0
 33 77  2  0  0  0  0
 34 50  1  0  0  0  0
 34 73  1  0  0  0  0
 34 78  2  0  0  0  0
 35 63  1  0  0  0  0
 35 69  1  0  0  0  0
 35 79  2  0  0  0  0
 36 64  1  0  0  0  0
 36 74  1  0  0  0  0
 36 80  2  0  0  0  0
 37 70  1  0  0  0  0
 37 75  1  0  0  0  0
 37 81  2  0  0  0  0
 38 41  1  0  0  0  0
 39 50  1  0  0  0  0
 40 69  1  0  0  0  0
 41 43  1  0  0  0  0
 42 46  1  0  0  0  0
 42 47  1  0  0  0  0
 43 49  1  0  0  0  0
 44 45  1  0  0  0  0
 44 51  1  0  0  0  0
 45 51  1  0  0  0  0
 46 52  1  0  0  0  0
 47 70  1  0  0  0  0
 48 52  1  0  0  0  0
 48 70  1  0  0  0  0
 49 73  1  0  0  0  0
 50 69  1  0  0  0  0
 51 58  1  0  0  0  0
 52 68  1  0  0  0  0
 53 64  1  0  0  0  0
 54 65  1  0  0  0  0
 55 65  1  0  0  0  0
 56 65  1  0  0  0  0
 57 76  1  0  0  0  0
 59 60  1  0  0  0  0
 59 75  1  0  0  0  0
 60 84  1  0  0  0  0
 61 62  1  0  0  0  0
 61 83  1  0  0  0  0
 62 85  1  0  0  0  0
 63 65  1  0  0  0  0
 63 74  1  0  0  0  0
 64 76  1  0  0  0  0
 67 68  1  0  0  0  0
M  CHG  1  76   1
M  ISO  4  37 100  61 101  75 100  83 101
M  END
> <Batch ID>
0153

> <Smiles>
CNC(C)C(=O)NC(C(=O)N1Cc2cc([101O:1][101CH2:1]COc3cc(CC4CC4)c(OCC[100NH:0][100C:0](=O)N4CCCC(n5nc(-c6ccc(Oc7ccc(F)cc7F)cc6)c(C(N)=O)c5N)C4)cn3)ccc2CC1C(=O)NC1CCCc2ccccc21)C(C)(C)C

> <Shape>
0.319

> <Color>
0.132

> <Negative vol penalty>
0.000

$$$$

  -OEChem-04052321483D

 87 96  0     1  0  0  0  0  0999 V2000
  -34.4150  -32.6125   19.3940 C   0  0  0  0  0  0  0  0  0  0  0  0
  -34.1712  -31.6672   20.3852 C   0  0  0  0  0  0  0  0  0  0  0  0
  -23.0757   -9.7823   19.9737 C   0  0  0  0  0  0  0  0  0  0  0  0
  -23.8207   -9.8552   22.2708 C   0  0  0  0  0  0  0  0  0  0  0  0
  -33.5315  -32.7419   18.3232 C   0  0  0  0  0  0  0  0  0  0  0  0
  -33.0430  -30.8515   20.3066 C   0  0  0  0  0  0  0  0  0  0  0  0
  -34.0759  -26.0027   21.3396 C   0  0  0  0  0  0  0  0  0  0  0  0
  -22.3382   -8.6310   20.2494 C   0  0  0  0  0  0  0  0  0  0  0  0
  -23.0831   -8.7039   22.5465 C   0  0  0  0  0  0  0  0  0  0  0  0
  -34.2248  -25.6553   22.6816 C   0  0  0  0  0  0  0  0  0  0  0  0
  -19.8566   -7.8997   23.1496 C   0  0  0  0  0  0  0  0  0  0  0  0
  -19.0924   -7.8854   24.3163 C   0  0  0  0  0  0  0  0  0  0  0  0
  -31.9712  -24.7949   22.7026 C   0  0  0  0  0  0  0  0  0  0  0  0
  -34.5674  -21.0422   25.4791 C   0  0  0  0  0  0  0  0  0  0  0  0
  -32.4511  -22.0244   26.1066 C   0  0  0  0  0  0  0  0  0  0  0  0
  -20.3422   -5.9768   25.1116 C   0  0  0  0  0  0  0  0  0  0  0  0
  -23.8171  -10.3944   20.9844 C   0  0  0  0  0  0  0  0  0  0  0  0
  -24.1424  -12.9179   20.7997 C   0  0  0  0  0  0  0  0  0  0  0  0
  -32.3971  -31.9208   18.2265 C   0  0  0  0  0  0  0  0  0  0  0  0
  -32.8678  -25.7583   20.6709 C   0  0  0  0  0  0  0  0  0  0  0  0
  -32.1428  -30.9709   19.2342 C   0  0  0  0  0  0  0  0  0  0  0  0
  -31.8105  -25.1378   21.3515 C   0  0  0  0  0  0  0  0  0  0  0  0
  -33.8338  -22.1290   25.9548 C   0  0  0  0  0  0  0  0  0  0  0  0
  -33.9183  -19.8508   25.1551 C   0  0  0  0  0  0  0  0  0  0  0  0
  -31.8021  -20.8329   25.7826 C   0  0  0  0  0  0  0  0  0  0  0  0
  -32.5357  -19.7462   25.3069 C   0  0  0  0  0  0  0  0  0  0  0  0
  -22.3418   -8.0918   21.5358 C   0  0  0  0  0  0  0  0  0  0  0  0
  -33.1714  -25.0540   23.3642 C   0  0  0  0  0  0  0  0  0  0  0  0
  -20.8636   -6.9525   22.9638 C   0  0  0  0  0  0  0  0  0  0  0  0
  -19.3352   -6.9240   25.2974 C   0  0  0  0  0  0  0  0  0  0  0  0
  -21.1064   -5.9911   23.9448 C   0  0  0  0  0  0  0  0  0  0  0  0
  -24.5796  -11.5834   20.7001 C   0  0  0  0  0  0  0  0  0  0  0  0
  -25.2317  -13.6651   20.4236 C   0  0  0  0  0  0  0  0  0  0  0  0
  -22.8657  -13.4356   21.1968 C   0  0  0  0  0  0  0  0  0  0  0  0
  -30.6798  -27.5780   19.2549 C   0  0  0  0  0  0  0  0  0  0  0  0
  -29.4180  -24.7153   18.3975 C   0  0  0  0  0  0  0  0  0  0  0  0
  -29.1134  -21.3762   19.0334 C   0  0  0  0  0  0  0  0  0  0  0  0
  -30.7070  -14.7272   20.6195 C   0  0  0  0  0  0  0  0  0  0  0  0
  -31.4457  -32.1298   17.0750 C   0  0  0  0  0  0  0  0  0  0  0  0
  -32.7324  -26.1146   19.2159 C   0  0  0  0  0  0  0  0  0  0  0  0
  -30.5000  -24.8354   20.6735 C   0  0  0  0  0  0  0  0  0  0  0  0
  -30.4730  -30.9712   16.8706 C   0  0  0  0  0  0  0  0  0  0  0  0
  -29.6013  -12.2725   18.2896 C   0  0  0  0  0  0  0  0  0  0  0  0
  -29.8625  -30.5454   18.2021 C   0  0  0  0  0  0  0  0  0  0  0  0
  -28.1631  -11.9803   18.7210 C   0  0  0  0  0  0  0  0  0  0  0  0
  -29.7653  -18.0269   22.0748 C   0  0  0  0  0  0  0  0  0  0  0  0
  -30.5091  -12.5314   19.4899 C   0  0  0  0  0  0  0  0  0  0  0  0
  -28.5934  -13.2855   20.8447 C   0  0  0  0  0  0  0  0  0  0  0  0
  -30.5968  -19.0507   22.8317 C   0  0  0  0  0  0  0  0  0  0  0  0
  -31.5132  -16.7985   23.0991 C   0  0  0  0  0  0  0  0  0  0  0  0
  -30.9430  -30.0507   19.1713 C   0  0  1  0  0  0  0  0  0  0  0  0
  -31.2820  -26.2875   18.7756 C   0  0  1  0  0  0  0  0  0  0  0  0
  -27.6281  -13.0731   19.6660 C   0  0  2  0  0  0  0  0  0  0  0  0
  -30.7446  -16.8996   21.7964 C   0  0  1  0  0  0  0  0  0  0  0  0
  -34.7272  -18.7014   24.6487 C   0  0  0  0  0  0  0  0  0  0  0  0
  -30.3206  -20.7465   25.9543 C   0  0  0  0  0  0  0  0  0  0  0  0
  -27.9850  -19.3034   18.1804 C   0  0  0  0  0  0  0  0  0  0  0  0
  -26.7787  -25.6587   19.6035 C   0  0  0  0  0  0  0  0  0  0  0  0
  -26.0012  -23.2789   19.5880 C   0  0  0  0  0  0  0  0  0  0  0  0
  -26.5548  -24.4223   17.4412 C   0  0  0  0  0  0  0  0  0  0  0  0
  -31.7027  -20.0391   18.5170 C   0  0  0  0  0  0  0  0  0  0  0  0
  -34.5360  -23.4185   26.3048 C   0  0  0  0  0  0  0  0  0  0  0  0
  -31.8402  -18.4684   24.9598 C   0  0  0  0  0  0  0  0  0  0  0  0
  -34.6260  -24.3705   25.1171 C   0  0  0  0  0  0  0  0  0  1  0  0
  -28.4233  -23.7589   19.0098 C   0  0  1  0  0  0  0  0  0  0  0  0
  -29.2384  -20.1631   18.1293 C   0  0  2  0  0  0  0  0  0  0  0  0
  -26.9634  -24.2870   18.9242 C   0  0  0  0  0  0  0  0  0  0  0  0
  -25.8478  -11.4854   20.2924 N   0  0  0  0  0  0  0  0  0  0  0  0
  -26.2168  -12.7678   20.1326 N   0  0  0  0  0  0  0  0  0  0  0  0
  -30.4143  -25.2085   19.2519 N   0  0  0  0  0  0  0  0  0  0  0  0
  -29.9458  -13.5791   20.3449 N   0  0  0  0  0  0  0  0  0  0  0  0
  -25.4335  -14.9956   20.3167 N   0  0  0  0  0  0  0  0  0  0  0  0
  -21.8579  -12.5286   21.5517 N   0  0  0  0  0  0  0  0  0  0  0  0
  -31.3533  -28.7062   18.8273 N   0  0  0  0  0  0  0  0  0  0  0  0
  -28.6335  -22.4742   18.3513 N   0  0  0  0  0  0  0  0  0  0  0  0
  -30.0961  -15.6737   21.4329 N   0  0  0  0  0  0  0  0  0  0  0  0
  -31.7085  -18.2499   23.4868 N   0  3  2  0  0  0  0  0  0  0  0  0
  -30.3997  -19.3260   18.5433 N   0  3  0  0  0  0  0  0  0  0  0  0
  -22.6207  -14.6657   21.2201 O   0  0  0  0  0  0  0  0  0  0  0  0
  -29.6774  -27.5520   19.9594 O   0  0  0  0  0  0  0  0  0  0  0  0
  -29.3190  -25.0082   17.2034 O   0  0  0  0  0  0  0  0  0  0  0  0
  -29.4082  -21.3511   20.2263 O   0  0  0  0  0  0  0  0  0  0  0  0
  -31.8447  -14.8985   20.1686 O   0  0  0  0  0  0  0  0  0  0  0  0
  -21.6220   -6.9685   21.8052 O   0  0  0  0  0  0  0  0  0  0  0  0
  -33.3138  -24.7145   24.6742 O   0  0  0  0  0  0  0  0  0  1  0  0
  -18.6022   -6.9114   26.4184 F   0  0  0  0  0  0  0  0  0  0  0  0
  -22.0732   -5.0793   23.7725 F   0  0  0  0  0  0  0  0  0  0  0  0
  1  2  1  0  0  0  0
  1  5  2  0  0  0  0
  2  6  2  0  0  0  0
  3  8  2  0  0  0  0
  3 17  1  0  0  0  0
  4  9  1  0  0  0  0
  4 17  2  0  0  0  0
  5 19  1  0  0  0  0
  6 21  1  0  0  0  0
  7 10  2  0  0  0  0
  7 20  1  0  0  0  0
  8 27  1  0  0  0  0
  9 27  2  0  0  0  0
 10 28  1  0  0  0  0
 11 12  2  0  0  0  0
 11 29  1  0  0  0  0
 12 30  1  0  0  0  0
 13 22  1  0  0  0  0
 13 28  2  0  0  0  0
 14 23  1  0  0  0  0
 14 24  2  0  0  0  0
 15 23  2  0  0  0  0
 15 25  1  0  0  0  0
 16 30  2  0  0  0  0
 16 31  1  0  0  0  0
 17 32  1  0  0  0  0
 18 32  1  0  0  0  0
 18 33  2  0  0  0  0
 18 34  1  0  0  0  0
 19 21  2  0  0  0  0
 19 39  1  0  0  0  0
 20 22  2  0  0  0  0
 20 40  1  0  0  0  0
 21 51  1  0  0  0  0
 22 41  1  0  0  0  0
 23 62  1  0  0  0  0
 24 26  1  0  0  0  0
 24 55  1  0  0  0  0
 25 26  2  0  0  0  0
 25 56  1  0  0  0  0
 26 63  1  0  0  0  0
 27 84  1  0  0  0  0
 28 85  1  0  0  0  0
 29 31  2  0  0  0  0
 29 84  1  0  0  0  0
 30 86  1  0  0  0  0
 31 87  1  0  0  0  0
 32 68  2  0  0  0  0
 33 69  1  0  0  0  0
 33 72  1  0  0  0  0
 34 73  1  0  0  0  0
 34 79  2  0  0  0  0
 35 52  1  0  0  0  0
 35 74  1  0  0  0  0
 35 80  2  0  0  0  0
 36 65  1  0  0  0  0
 36 70  1  0  0  0  0
 36 81  2  0  0  0  0
 37 66  1  0  0  0  0
 37 75  1  0  0  0  0
 37 82  2  0  0  0  0
 38 71  1  0  0  0  0
 38 76  1  0  0  0  0
 38 83  2  0  0  0  0
 39 42  1  0  0  0  0
 40 52  1  0  0  0  0
 41 70  1  0  0  0  0
 42 44  1  0  0  0  0
 43 45  1  0  0  0  0
 43 47  1  0  0  0  0
 44 51  1  0  0  0  0
 45 53  1  0  0  0  0
 46 49  1  0  0  0  0
 46 54  1  0  0  0  0
 47 71  1  0  0  0  0
 48 53  1  0  0  0  0
 48 71  1  0  0  0  0
 49 77  1  0  0  0  0
 50 54  1  0  0  0  0
 50 77  1  0  0  0  0
 51 74  1  0  0  0  0
 52 70  1  0  0  0  0
 53 69  1  0  0  0  0
 54 76  1  0  0  0  0
 57 66  1  0  0  0  0
 58 67  1  0  0  0  0
 59 67  1  0  0  0  0
 60 67  1  0  0  0  0
 61 78  1  0  0  0  0
 62 64  1  0  0  0  0
 63 77  1  0  0  0  0
 64 85  1  0  0  0  0
 65 67  1  0  0  0  0
 65 75  1  0  0  0  0
 66 78  1  0  0  0  0
 68 69  1  0  0  0  0
M  CHG  2  77   1  78   1
M  ISO  4  38 100  64 101  76 100  85 101
M  END
> <Batch ID>
0153

> <Smiles>
CNC(C)C(=O)NC(C(=O)N1Cc2cc([101O:1][101CH2:1]Cc3cc(C)c(CN4CCC([100NH:0][100C:0](=O)N5CCCC(n6nc(-c7ccc(Oc8ccc(F)cc8F)cc7)c(C(N)=O)c6N)C5)C4)c(C)c3)ccc2CC1C(=O)NC1CCCc2ccccc21)C(C)(C)C

> <Shape>
0.253

> <Color>
0.199

> <Negative vol penalty>
0.000

$$$$

  -OEChem-04052321483D

 85 94  0     1  0  0  0  0  0999 V2000
  -16.3803  -29.2836   23.7363 C   0  0  0  0  0  0  0  0  0  0  0  0
  -17.2872  -28.3068   24.1347 C   0  0  0  0  0  0  0  0  0  0  0  0
  -24.3891   -9.5629   21.3716 C   0  0  0  0  0  0  0  0  0  0  0  0
  -24.8919  -10.5748   23.5071 C   0  0  0  0  0  0  0  0  0  0  0  0
  -16.8072  -30.3471   22.9421 C   0  0  0  0  0  0  0  0  0  0  0  0
  -18.6214  -28.3923   23.7383 C   0  0  0  0  0  0  0  0  0  0  0  0
  -23.5372  -26.6769   26.9629 C   0  0  0  0  0  0  0  0  0  0  0  0
  -24.0437   -8.3749   22.0159 C   0  0  0  0  0  0  0  0  0  0  0  0
  -24.5465   -9.3869   24.1514 C   0  0  0  0  0  0  0  0  0  0  0  0
  -24.3212  -25.5243   26.9360 C   0  0  0  0  0  0  0  0  0  0  0  0
  -21.3986   -7.1473   23.7274 C   0  0  0  0  0  0  0  0  0  0  0  0
  -20.2288   -6.5057   23.3206 C   0  0  0  0  0  0  0  0  0  0  0  0
  -27.2379  -21.8567   22.0041 C   0  0  0  0  0  0  0  0  0  0  0  0
  -25.8905  -26.6330   25.4774 C   0  0  0  0  0  0  0  0  0  0  0  0
  -27.6738  -20.3844   23.8906 C   0  0  0  0  0  0  0  0  0  0  0  0
  -21.5116   -4.5488   22.7186 C   0  0  0  0  0  0  0  0  0  0  0  0
  -24.8132  -10.6628   22.1172 C   0  0  0  0  0  0  0  0  0  0  0  0
  -24.3199  -12.9679   21.1421 C   0  0  0  0  0  0  0  0  0  0  0  0
  -18.1493  -30.4509   22.5438 C   0  0  0  0  0  0  0  0  0  0  0  0
  -23.9191  -27.8145   26.2372 C   0  0  0  0  0  0  0  0  0  0  0  0
  -19.0663  -29.4575   22.9370 C   0  0  0  0  0  0  0  0  0  0  0  0
  -27.9127  -20.9593   21.1934 C   0  0  0  0  0  0  0  0  0  0  0  0
  -25.1109  -27.7996   25.4987 C   0  0  0  0  0  0  0  0  0  0  0  0
  -28.4693  -19.7844   21.7173 C   0  0  0  0  0  0  0  0  0  0  0  0
  -24.1224   -8.2869   23.4057 C   0  0  0  0  0  0  0  0  0  0  0  0
  -25.4965  -25.5013   26.1909 C   0  0  0  0  0  0  0  0  0  0  0  0
  -22.6249   -6.4898   23.6297 C   0  0  0  0  0  0  0  0  0  0  0  0
  -27.1142  -21.5582   23.3624 C   0  0  0  0  0  0  0  0  0  0  0  0
  -28.3641  -19.4911   23.0680 C   0  0  0  0  0  0  0  0  0  0  0  0
  -20.2853   -5.2064   22.8162 C   0  0  0  0  0  0  0  0  0  0  0  0
  -22.6814   -5.1905   23.1254 C   0  0  0  0  0  0  0  0  0  0  0  0
  -25.1707  -11.8901   21.4522 C   0  0  0  0  0  0  0  0  0  0  0  0
  -25.1352  -13.8805   20.5185 C   0  0  0  0  0  0  0  0  0  0  0  0
  -22.9179  -13.1297   21.3950 C   0  0  0  0  0  0  0  0  0  0  0  0
  -22.6465  -29.4842   23.8505 C   0  0  0  0  0  0  0  0  0  0  0  0
  -25.1466  -31.4699   24.4237 C   0  0  0  0  0  0  0  0  0  0  0  0
  -28.2968  -31.8761   25.6722 C   0  0  0  0  0  0  0  0  0  0  0  0
  -29.9425  -16.6980   20.2083 C   0  0  0  0  0  0  0  0  0  0  0  0
  -18.5538  -31.5934   21.6461 C   0  0  0  0  0  0  0  0  0  0  0  0
  -23.0762  -29.0588   26.2980 C   0  0  0  0  0  0  0  0  0  0  0  0
  -28.2044  -21.0848   19.7305 C   0  0  0  0  0  0  0  0  0  0  0  0
  -25.5756  -29.0012   24.7186 C   0  0  0  0  0  0  0  0  0  0  0  0
  -20.0633  -31.8113   21.5803 C   0  0  0  0  0  0  0  0  0  0  0  0
  -28.5672  -19.6346   19.3750 C   0  0  0  0  0  0  0  0  0  0  0  0
  -29.8706  -13.4295   18.7983 C   0  0  0  0  0  0  0  0  0  0  0  0
  -20.7859  -30.4835   21.3762 C   0  0  0  0  0  0  0  0  0  0  0  0
  -28.5750  -12.8249   19.3423 C   0  0  0  0  0  0  0  0  0  0  0  0
  -30.5512  -14.3269   19.8295 C   0  0  0  0  0  0  0  0  0  0  0  0
  -28.3966  -14.7807   20.9366 C   0  0  0  0  0  0  0  0  0  0  0  0
  -20.5270  -29.5287   22.5479 C   0  0  1  0  0  0  0  0  0  0  0  0
  -29.1881  -19.0219   20.6435 C   0  0  2  0  0  0  0  0  0  0  0  0
  -23.2959  -29.9881   25.1082 C   0  0  1  0  0  0  0  0  0  0  0  0
  -27.6451  -13.9124   19.9131 C   0  0  2  0  0  0  0  0  0  0  0  0
  -30.0923  -33.6048   25.9640 C   0  0  0  0  0  0  0  0  0  0  0  0
  -25.8485  -31.2372   21.4634 C   0  0  0  0  0  0  0  0  0  0  0  0
  -28.1114  -32.1652   21.9985 C   0  0  0  0  0  0  0  0  0  0  0  0
  -26.0718  -33.5411   22.4105 C   0  0  0  0  0  0  0  0  0  0  0  0
  -28.2240  -31.6218   28.6199 C   0  0  0  0  0  0  0  0  0  0  0  0
  -28.7559  -18.1674   25.0045 C   0  0  0  0  0  0  0  0  0  0  0  0
  -25.5900  -23.1279   26.3111 C   0  0  0  0  0  0  0  0  0  1  0  0
  -26.3605  -22.0580   25.5619 C   0  0  0  0  0  0  0  0  0  0  0  0
  -26.5661  -31.5744   23.9205 C   0  0  1  0  0  0  0  0  0  0  0  0
  -28.8865  -32.9267   26.5957 C   0  0  2  0  0  0  0  0  0  0  0  0
  -26.6400  -32.1060   22.4613 C   0  0  0  0  0  0  0  0  0  0  0  0
  -26.4300  -12.0972   21.0581 N   0  0  0  0  0  0  0  0  0  0  0  0
  -26.3764  -13.3157   20.4938 N   0  0  0  0  0  0  0  0  0  0  0  0
  -24.7139  -30.1918   24.8046 N   0  0  0  0  0  0  0  0  0  0  0  0
  -29.6160  -15.3373   20.3298 N   0  0  0  0  0  0  0  0  0  0  0  0
  -24.9043  -15.1030   19.9944 N   0  0  0  0  0  0  0  0  0  0  0  0
  -22.2326  -12.0948   22.0460 N   0  0  0  0  0  0  0  0  0  0  0  0
  -21.3378  -29.8971   23.6887 N   0  0  0  0  0  0  0  0  0  0  0  0
  -27.2842  -32.3927   24.8916 N   0  0  0  0  0  0  0  0  0  0  0  0
  -28.9983  -17.5897   20.7022 N   0  0  0  0  0  0  0  0  0  0  0  0
  -29.3164  -32.3048   27.8800 N   0  3  0  0  0  0  0  0  0  0  0  0
  -22.2879  -14.1544   21.0393 O   0  0  0  0  0  0  0  0  0  0  0  0
  -23.2860  -28.7747   23.0828 O   0  0  0  0  0  0  0  0  0  0  0  0
  -24.4499  -32.4861   24.4836 O   0  0  0  0  0  0  0  0  0  0  0  0
  -28.6969  -30.7144   25.6432 O   0  0  0  0  0  0  0  0  0  0  0  0
  -30.9951  -17.0895   19.6926 O   0  0  0  0  0  0  0  0  0  0  0  0
  -23.7853   -7.1279   24.0348 O   0  0  0  0  0  0  0  0  0  0  0  0
  -28.9237  -18.3747   23.6014 O   0  0  0  0  0  0  0  0  0  0  0  0
  -26.2632  -24.3773   26.1625 O   0  0  0  0  0  0  0  0  0  1  0  0
  -26.4491  -22.4239   24.1902 O   0  0  0  0  0  0  0  0  0  0  0  0
  -19.1617   -4.5898   22.4271 F   0  0  0  0  0  0  0  0  0  0  0  0
  -23.8564   -4.5533   23.0303 F   0  0  0  0  0  0  0  0  0  0  0  0
  1  2  1  0  0  0  0
  1  5  2  0  0  0  0
  2  6  2  0  0  0  0
  3  8  2  0  0  0  0
  3 17  1  0  0  0  0
  4  9  1  0  0  0  0
  4 17  2  0  0  0  0
  5 19  1  0  0  0  0
  6 21  1  0  0  0  0
  7 10  2  0  0  0  0
  7 20  1  0  0  0  0
  8 25  1  0  0  0  0
  9 25  2  0  0  0  0
 10 26  1  0  0  0  0
 11 12  2  0  0  0  0
 11 27  1  0  0  0  0
 12 30  1  0  0  0  0
 13 22  2  0  0  0  0
 13 28  1  0  0  0  0
 14 23  1  0  0  0  0
 14 26  2  0  0  0  0
 15 28  2  0  0  0  0
 15 29  1  0  0  0  0
 16 30  2  0  0  0  0
 16 31  1  0  0  0  0
 17 32  1  0  0  0  0
 18 32  1  0  0  0  0
 18 33  2  0  0  0  0
 18 34  1  0  0  0  0
 19 21  2  0  0  0  0
 19 39  1  0  0  0  0
 20 23  2  0  0  0  0
 20 40  1  0  0  0  0
 21 50  1  0  0  0  0
 22 24  1  0  0  0  0
 22 41  1  0  0  0  0
 23 42  1  0  0  0  0
 24 29  2  0  0  0  0
 24 51  1  0  0  0  0
 25 80  1  0  0  0  0
 26 82  1  0  0  0  0
 27 31  2  0  0  0  0
 27 80  1  0  0  0  0
 28 83  1  0  0  0  0
 29 81  1  0  0  0  0
 30 84  1  0  0  0  0
 31 85  1  0  0  0  0
 32 65  2  0  0  0  0
 33 66  1  0  0  0  0
 33 69  1  0  0  0  0
 34 70  1  0  0  0  0
 34 75  2  0  0  0  0
 35 52  1  0  0  0  0
 35 71  1  0  0  0  0
 35 76  2  0  0  0  0
 36 62  1  0  0  0  0
 36 67  1  0  0  0  0
 36 77  2  0  0  0  0
 37 63  1  0  0  0  0
 37 72  1  0  0  0  0
 37 78  2  0  0  0  0
 38 68  1  0  0  0  0
 38 73  1  0  0  0  0
 38 79  2  0  0  0  0
 39 43  1  0  0  0  0
 40 52  1  0  0  0  0
 41 44  1  0  0  0  0
 42 67  1  0  0  0  0
 43 46  1  0  0  0  0
 44 51  1  0  0  0  0
 45 47  1  0  0  0  0
 45 48  1  0  0  0  0
 46 50  1  0  0  0  0
 47 53  1  0  0  0  0
 48 68  1  0  0  0  0
 49 53  1  0  0  0  0
 49 68  1  0  0  0  0
 50 71  1  0  0  0  0
 51 73  1  0  0  0  0
 52 67  1  0  0  0  0
 53 66  1  0  0  0  0
 54 63  1  0  0  0  0
 55 64  1  0  0  0  0
 56 64  1  0  0  0  0
 57 64  1  0  0  0  0
 58 74  1  0  0  0  0
 59 81  1  0  0  0  0
 60 61  1  0  0  0  0
 60 82  1  0  0  0  0
 61 83  1  0  0  0  0
 62 64  1  0  0  0  0
 62 72  1  0  0  0  0
 63 74  1  0  0  0  0
 65 66  1  0  0  0  0
M  CHG  1  74   1
M  ISO  4  38 100  60 101  73 100  82 101
M  END
> <Batch ID>
0153

> <Smiles>
CNC(C)C(=O)NC(C(=O)N1Cc2cc([101O:1][101CH2:1]COc3cc4c(c(OC)c3)C([100NH:0][100C:0](=O)N3CCCC(n5nc(-c6ccc(Oc7ccc(F)cc7F)cc6)c(C(N)=O)c5N)C3)CC4)ccc2CC1C(=O)NC1CCCc2ccccc21)C(C)(C)C

> <Shape>
0.292

> <Color>
0.149

> <Negative vol penalty>
0.000

$$$$

  -OEChem-04052321483D

 86 95  0     1  0  0  0  0  0999 V2000
  -28.7954  -13.3457   18.5950 C   0  0  0  0  0  0  0  0  0  0  0  0
  -28.0273  -14.5024   18.5078 C   0  0  0  0  0  0  0  0  0  0  0  0
  -30.8661  -20.6488   21.0271 C   0  0  0  0  0  0  0  0  0  0  0  0
  -29.2636  -20.5914   19.2199 C   0  0  0  0  0  0  0  0  0  0  0  0
  -28.2498  -12.1881   19.1483 C   0  0  0  0  0  0  0  0  0  0  0  0
  -26.7127  -14.5017   18.9730 C   0  0  0  0  0  0  0  0  0  0  0  0
  -23.7500  -19.1493   21.6428 C   0  0  0  0  0  0  0  0  0  0  0  0
  -31.0006  -19.2625   20.9519 C   0  0  0  0  0  0  0  0  0  0  0  0
  -29.3981  -19.2051   19.1447 C   0  0  0  0  0  0  0  0  0  0  0  0
  -22.8472  -20.0916   21.1522 C   0  0  0  0  0  0  0  0  0  0  0  0
  -29.2812  -16.5349   21.9660 C   0  0  0  0  0  0  0  0  0  0  0  0
  -29.2738  -15.8179   23.1625 C   0  0  0  0  0  0  0  0  0  0  0  0
  -21.0132  -18.7229   21.9151 C   0  0  0  0  0  0  0  0  0  0  0  0
  -20.4220  -27.2188   21.7525 C   0  0  0  0  0  0  0  0  0  0  0  0
  -31.4871  -14.9810   22.6748 C   0  0  0  0  0  0  0  0  0  0  0  0
  -18.1653  -27.0892   22.4921 C   0  0  0  0  0  0  0  0  0  0  0  0
  -29.9975  -21.3133   20.1612 C   0  0  0  0  0  0  0  0  0  0  0  0
  -30.6081  -23.7116   19.5425 C   0  0  0  0  0  0  0  0  0  0  0  0
  -26.9310  -12.1760   19.6293 C   0  0  0  0  0  0  0  0  0  0  0  0
  -23.2902  -17.9795   22.2646 C   0  0  0  0  0  0  0  0  0  0  0  0
  -26.1486  -13.3424   19.5320 C   0  0  0  0  0  0  0  0  0  0  0  0
  -21.9122  -17.7685   22.4151 C   0  0  0  0  0  0  0  0  0  0  0  0
  -20.5494  -28.4158   22.4484 C   0  0  0  0  0  0  0  0  0  0  0  0
  -30.2667  -18.5406   20.0107 C   0  0  0  0  0  0  0  0  0  0  0  0
  -21.4785  -19.8772   21.2857 C   0  0  0  0  0  0  0  0  0  0  0  0
  -30.3916  -16.4749   21.1239 C   0  0  0  0  0  0  0  0  0  0  0  0
  -19.2106  -26.5366   21.7697 C   0  0  0  0  0  0  0  0  0  0  0  0
  -30.3767  -15.0410   23.5168 C   0  0  0  0  0  0  0  0  0  0  0  0
  -31.4945  -15.6979   21.4783 C   0  0  0  0  0  0  0  0  0  0  0  0
  -29.8577  -22.7452   20.2388 C   0  0  0  0  0  0  0  0  0  0  0  0
  -19.4441  -28.8844   23.1402 C   0  0  0  0  0  0  0  0  0  0  0  0
  -30.0921  -24.9138   19.9607 C   0  0  0  0  0  0  0  0  0  0  0  0
  -31.6760  -23.5381   18.6016 C   0  0  0  0  0  0  0  0  0  0  0  0
  -23.5399  -14.8695   21.6571 C   0  0  0  0  0  0  0  0  0  0  0  0
  -22.0633  -14.5863   24.5314 C   0  0  0  0  0  0  0  0  0  0  0  0
  -20.0567  -15.9898   26.9085 C   0  0  0  0  0  0  0  0  0  0  0  0
  -24.9397  -27.1061   21.2717 C   0  0  0  0  0  0  0  0  0  0  0  0
  -26.3695  -10.8874   20.1759 C   0  0  0  0  0  0  0  0  0  0  0  0
  -24.2773  -16.9855   22.8124 C   0  0  0  0  0  0  0  0  0  0  0  0
  -21.3676  -16.5387   23.0928 C   0  0  0  0  0  0  0  0  0  0  0  0
  -25.0907  -11.0762   20.9880 C   0  0  0  0  0  0  0  0  0  0  0  0
  -27.5002  -26.4435   23.8569 C   0  0  0  0  0  0  0  0  0  0  0  0
  -21.9882  -30.5781   21.7034 C   0  0  0  0  0  0  0  0  0  0  0  0
  -24.1209  -11.9943   20.2508 C   0  0  0  0  0  0  0  0  0  0  0  0
  -28.4068  -25.4601   23.1236 C   0  0  0  0  0  0  0  0  0  0  0  0
  -23.4445  -30.2429   21.3316 C   0  0  0  0  0  0  0  0  0  0  0  0
  -26.0363  -26.2947   23.4439 C   0  0  0  0  0  0  0  0  0  0  0  0
  -26.7327  -25.4030   21.2360 C   0  0  0  0  0  0  0  0  0  0  0  0
  -21.9276  -29.2023   22.4342 C   0  0  2  0  0  0  0  0  0  0  0  0
  -24.7268  -13.3883   20.0483 C   0  0  1  0  0  0  0  0  0  0  0  0
  -23.6912  -15.5858   22.9692 C   0  0  1  0  0  0  0  0  0  0  0  0
  -28.2138  -25.5766   21.6044 C   0  0  2  0  0  0  0  0  0  0  0  0
  -23.0512  -28.7536   21.4440 C   0  0  2  0  0  0  0  0  0  0  0  0
  -19.5257  -30.1653   23.9035 C   0  0  0  0  0  0  0  0  0  0  0  0
  -18.9961  -15.5013   29.1297 C   0  0  0  0  0  0  0  0  0  0  0  0
  -19.9857  -12.8295   23.1503 C   0  0  0  0  0  0  0  0  0  0  0  0
  -18.4907  -13.1609   25.1311 C   0  0  0  0  0  0  0  0  0  0  0  0
  -20.6947  -12.0264   25.4101 C   0  0  0  0  0  0  0  0  0  0  0  0
  -21.4980  -18.2187   28.2175 C   0  0  0  0  0  0  0  0  0  0  0  0
  -19.8133  -23.0738   20.9395 C   0  0  0  0  0  0  0  0  0  0  0  0
  -21.0182  -22.1578   20.7931 C   0  0  0  0  0  0  0  0  0  1  0  0
  -20.2122  -24.5412   20.9507 C   0  0  0  0  0  0  0  0  0  0  0  0
  -20.6278  -14.5192   24.9939 C   0  0  1  0  0  0  0  0  0  0  0  0
  -20.2016  -16.0930   28.4161 C   0  0  2  0  0  0  0  0  0  0  0  0
  -19.9596  -13.1564   24.6568 C   0  0  0  0  0  0  0  0  0  0  0  0
  -18.2511  -28.2496   23.1802 N   0  0  0  0  0  0  0  0  0  0  0  0
  -28.9353  -23.2867   21.0388 N   0  0  0  0  0  0  0  0  0  0  0  0
  -29.1028  -24.6064   20.8479 N   0  0  0  0  0  0  0  0  0  0  0  0
  -22.3727  -15.5932   23.6061 N   0  0  0  0  0  0  0  0  0  0  0  0
  -25.8760  -26.3333   21.9816 N   0  0  0  0  0  0  0  0  0  0  0  0
  -30.3927  -26.1933   19.6526 N   0  0  0  0  0  0  0  0  0  0  0  0
  -32.0816  -22.2346   18.2843 N   0  0  0  0  0  0  0  0  0  0  0  0
  -24.6578  -14.1525   21.2753 N   0  0  0  0  0  0  0  0  0  0  0  0
  -20.6418  -14.8422   26.4165 N   0  0  0  0  0  0  0  0  0  0  0  0
  -24.0917  -27.8938   22.0441 N   0  0  0  0  0  0  0  0  0  0  0  0
  -20.3378  -17.5190   28.8269 N   0  3  0  0  0  0  0  0  0  0  0  0
  -32.2643  -24.5105   18.0709 O   0  0  0  0  0  0  0  0  0  0  0  0
  -22.4864  -14.9594   21.0376 O   0  0  0  0  0  0  0  0  0  0  0  0
  -22.8815  -13.7796   24.9802 O   0  0  0  0  0  0  0  0  0  0  0  0
  -19.4787  -16.8401   26.2351 O   0  0  0  0  0  0  0  0  0  0  0  0
  -24.8551  -27.0942   20.0389 O   0  0  0  0  0  0  0  0  0  0  0  0
  -30.3979  -17.1879   19.9368 O   0  0  0  0  0  0  0  0  0  0  0  0
  -20.5952  -20.7950   20.8071 O   0  0  0  0  0  0  0  0  0  1  0  0
  -19.0555  -25.3544   21.0936 O   0  0  0  0  0  0  0  0  0  0  0  0
  -30.3699  -14.3537   24.6666 F   0  0  0  0  0  0  0  0  0  0  0  0
  -32.5646  -15.6373   20.6739 F   0  0  0  0  0  0  0  0  0  0  0  0
  1  2  1  0  0  0  0
  1  5  2  0  0  0  0
  2  6  2  0  0  0  0
  3  8  2  0  0  0  0
  3 17  1  0  0  0  0
  4  9  1  0  0  0  0
  4 17  2  0  0  0  0
  5 19  1  0  0  0  0
  6 21  1  0  0  0  0
  7 10  2  0  0  0  0
  7 20  1  0  0  0  0
  8 24  1  0  0  0  0
  9 24  2  0  0  0  0
 10 25  1  0  0  0  0
 11 12  2  0  0  0  0
 11 26  1  0  0  0  0
 12 28  1  0  0  0  0
 13 22  1  0  0  0  0
 13 25  2  0  0  0  0
 14 23  1  0  0  0  0
 14 27  2  0  0  0  0
 15 28  2  0  0  0  0
 15 29  1  0  0  0  0
 16 27  1  0  0  0  0
 16 66  2  0  0  0  0
 17 30  1  0  0  0  0
 18 30  1  0  0  0  0
 18 32  2  0  0  0  0
 18 33  1  0  0  0  0
 19 21  2  0  0  0  0
 19 38  1  0  0  0  0
 20 22  2  0  0  0  0
 20 39  1  0  0  0  0
 21 50  1  0  0  0  0
 22 40  1  0  0  0  0
 23 31  2  0  0  0  0
 23 49  1  0  0  0  0
 24 82  1  0  0  0  0
 25 83  1  0  0  0  0
 26 29  2  0  0  0  0
 26 82  1  0  0  0  0
 27 84  1  0  0  0  0
 28 85  1  0  0  0  0
 29 86  1  0  0  0  0
 30 67  2  0  0  0  0
 31 54  1  0  0  0  0
 31 66  1  0  0  0  0
 32 68  1  0  0  0  0
 32 71  1  0  0  0  0
 33 72  1  0  0  0  0
 33 77  2  0  0  0  0
 34 51  1  0  0  0  0
 34 73  1  0  0  0  0
 34 78  2  0  0  0  0
 35 63  1  0  0  0  0
 35 69  1  0  0  0  0
 35 79  2  0  0  0  0
 36 64  1  0  0  0  0
 36 74  1  0  0  0  0
 36 80  2  0  0  0  0
 37 70  1  0  0  0  0
 37 75  1  0  0  0  0
 37 81  2  0  0  0  0
 38 41  1  0  0  0  0
 39 51  1  0  0  0  0
 40 69  1  0  0  0  0
 41 44  1  0  0  0  0
 42 45  1  0  0  0  0
 42 47  1  0  0  0  0
 43 46  1  0  0  0  0
 43 49  1  0  0  0  0
 44 50  1  0  0  0  0
 45 52  1  0  0  0  0
 46 53  1  0  0  0  0
 47 70  1  0  0  0  0
 48 52  1  0  0  0  0
 48 70  1  0  0  0  0
 49 53  1  0  0  0  0
 50 73  1  0  0  0  0
 51 69  1  0  0  0  0
 52 68  1  0  0  0  0
 53 75  1  0  0  0  0
 55 64  1  0  0  0  0
 56 65  1  0  0  0  0
 57 65  1  0  0  0  0
 58 65  1  0  0  0  0
 59 76  1  0  0  0  0
 60 61  1  0  0  0  0
 60 62  1  0  0  0  0
 61 83  1  0  0  0  0
 62 84  1  0  0  0  0
 63 65  1  0  0  0  0
 63 74  1  0  0  0  0
 64 76  1  0  0  0  0
 67 68  1  0  0  0  0
M  CHG  1  76   1
M  ISO  4  37 100  61 101  75 100  83 101
M  END
> <Batch ID>
0153

> <Smiles>
CNC(C)C(=O)NC(C(=O)N1Cc2cc([101O:1][101CH2:1]CCOc3cnc(C)c(C4CCC4[100NH:0][100C:0](=O)N4CCCC(n5nc(-c6ccc(Oc7ccc(F)cc7F)cc6)c(C(N)=O)c5N)C4)c3)ccc2CC1C(=O)NC1CCCc2ccccc21)C(C)(C)C

> <Shape>
0.233

> <Color>
0.067

> <Negative vol penalty>
0.000

$$$$

  -OEChem-04052321483D

 88 97  0     1  0  0  0  0  0999 V2000
  -28.4118  -25.3854   16.7114 C   0  0  0  0  0  0  0  0  0  0  0  0
  -27.2577  -25.4606   17.4845 C   0  0  0  0  0  0  0  0  0  0  0  0
  -28.7965  -12.1262   20.6906 C   0  0  0  0  0  0  0  0  0  0  0  0
  -27.8995  -12.1192   18.4473 C   0  0  0  0  0  0  0  0  0  0  0  0
  -29.5690  -26.0456   17.1224 C   0  0  0  0  0  0  0  0  0  0  0  0
  -27.2604  -26.1952   18.6697 C   0  0  0  0  0  0  0  0  0  0  0  0
  -23.1412  -29.0989   19.1653 C   0  0  0  0  0  0  0  0  0  0  0  0
  -30.0878  -12.0172   20.1746 C   0  0  0  0  0  0  0  0  0  0  0  0
  -29.1908  -12.0103   17.9313 C   0  0  0  0  0  0  0  0  0  0  0  0
  -21.9633  -28.4700   19.5663 C   0  0  0  0  0  0  0  0  0  0  0  0
  -31.8208  -14.0523   17.3533 C   0  0  0  0  0  0  0  0  0  0  0  0
  -32.1576  -14.8712   16.2756 C   0  0  0  0  0  0  0  0  0  0  0  0
  -22.3262  -29.2422   21.8226 C   0  0  0  0  0  0  0  0  0  0  0  0
  -18.7056  -25.9464   23.3374 C   0  0  0  0  0  0  0  0  0  0  0  0
  -32.6133  -12.9156   14.9320 C   0  0  0  0  0  0  0  0  0  0  0  0
  -27.7023  -12.1771   19.8270 C   0  0  0  0  0  0  0  0  0  0  0  0
  -25.7199  -11.3878   21.2250 C   0  0  0  0  0  0  0  0  0  0  0  0
  -29.5832  -26.7966   18.3083 C   0  0  0  0  0  0  0  0  0  0  0  0
  -23.9274  -29.7962   20.0938 C   0  0  0  0  0  0  0  0  0  0  0  0
  -28.4193  -26.8649   19.0977 C   0  0  0  0  0  0  0  0  0  0  0  0
  -23.5123  -29.8813   21.4304 C   0  0  0  0  0  0  0  0  0  0  0  0
  -19.0602  -25.0592   24.3537 C   0  0  0  0  0  0  0  0  0  0  0  0
  -18.8492  -25.5704   22.0018 C   0  0  0  0  0  0  0  0  0  0  0  0
  -19.5583  -23.7961   24.0344 C   0  0  0  0  0  0  0  0  0  0  0  0
  -19.3473  -24.3073   21.6826 C   0  0  0  0  0  0  0  0  0  0  0  0
  -19.7019  -23.4201   22.6988 C   0  0  0  0  0  0  0  0  0  0  0  0
  -30.2850  -11.9593   18.7950 C   0  0  0  0  0  0  0  0  0  0  0  0
  -21.5572  -28.5391   20.8957 C   0  0  0  0  0  0  0  0  0  0  0  0
  -31.8803  -12.6650   17.2204 C   0  0  0  0  0  0  0  0  0  0  0  0
  -32.5539  -14.3029   15.0650 C   0  0  0  0  0  0  0  0  0  0  0  0
  -32.2766  -12.0967   16.0098 C   0  0  0  0  0  0  0  0  0  0  0  0
  -26.3681  -12.2891   20.3594 C   0  0  0  0  0  0  0  0  0  0  0  0
  -24.4809  -11.9427   21.4333 C   0  0  0  0  0  0  0  0  0  0  0  0
  -26.1953  -10.1589   21.7904 C   0  0  0  0  0  0  0  0  0  0  0  0
  -26.8922  -29.4927   21.1991 C   0  0  0  0  0  0  0  0  0  0  0  0
  -26.2032  -32.2857   22.6978 C   0  0  0  0  0  0  0  0  0  0  0  0
  -24.7838  -35.0005   24.2019 C   0  0  0  0  0  0  0  0  0  0  0  0
  -22.5833  -17.5285   21.2016 C   0  0  0  0  0  0  0  0  0  0  0  0
  -30.8715  -27.4540   18.7359 C   0  0  0  0  0  0  0  0  0  0  0  0
  -25.1815  -30.4918   19.6399 C   0  0  0  0  0  0  0  0  0  0  0  0
  -24.3101  -30.6346   22.4621 C   0  0  0  0  0  0  0  0  0  0  0  0
  -30.6834  -28.5193   19.8130 C   0  0  0  0  0  0  0  0  0  0  0  0
  -21.2312  -14.7492   19.3189 C   0  0  0  0  0  0  0  0  0  0  0  0
  -29.7708  -28.0031   20.9208 C   0  0  0  0  0  0  0  0  0  0  0  0
  -22.3481  -13.7136   19.4608 C   0  0  0  0  0  0  0  0  0  0  0  0
  -21.9442  -20.7473   21.3428 C   0  0  0  0  0  0  0  0  0  0  0  0
  -19.7307  -19.7641   21.9767 C   0  0  0  0  0  0  0  0  0  0  0  0
  -21.7986  -16.1584   19.1768 C   0  0  0  0  0  0  0  0  0  0  0  0
  -21.6475  -21.9712   22.2094 C   0  0  0  0  0  0  0  0  0  0  0  0
  -19.4404  -20.9864   22.8465 C   0  0  0  0  0  0  0  0  0  0  0  0
  -23.8316  -15.5343   20.4223 C   0  0  0  0  0  0  0  0  0  0  0  0
  -28.3757  -27.6721   20.3770 C   0  0  1  0  0  0  0  0  0  0  0  0
  -26.1708  -30.7404   20.7742 C   0  0  1  0  0  0  0  0  0  0  0  0
  -23.3222  -14.0915   20.5925 C   0  0  2  0  0  0  0  0  0  0  0  0
  -21.2314  -19.5010   21.8639 C   0  0  0  0  0  0  0  0  0  0  0  0
  -18.8964  -25.4869   25.7755 C   0  0  0  0  0  0  0  0  0  0  0  0
  -19.9369  -22.8488   25.1297 C   0  0  0  0  0  0  0  0  0  0  0  0
  -19.4989  -23.9100   20.2475 C   0  0  0  0  0  0  0  0  0  0  0  0
  -25.2846  -36.8258   25.8496 C   0  0  0  0  0  0  0  0  0  0  0  0
  -25.9268  -30.2899   24.9892 C   0  0  0  0  0  0  0  0  0  0  0  0
  -25.4816  -32.2182   26.5227 C   0  0  0  0  0  0  0  0  0  0  0  0
  -27.6716  -32.0468   25.3407 C   0  0  0  0  0  0  0  0  0  0  0  0
  -24.3204  -37.1115   22.1802 C   0  0  0  0  0  0  0  0  0  0  0  0
  -18.4580  -26.5496   20.9218 C   0  0  0  0  0  0  0  0  0  0  0  0
  -19.6678  -27.2285   20.2888 C   0  0  0  0  0  0  0  0  0  1  0  0
  -25.6003  -32.6643   24.0291 C   0  0  1  0  0  0  0  0  0  0  0  0
  -25.2773  -36.4246   24.3827 C   0  0  2  0  0  0  0  0  0  0  0  0
  -26.1539  -31.8006   25.1974 C   0  0  0  0  0  0  0  0  0  0  0  0
  -25.6040  -13.3369   20.0396 N   0  0  0  0  0  0  0  0  0  0  0  0
  -24.4629  -13.0974   20.7077 N   0  0  0  0  0  0  0  0  0  0  0  0
  -20.2021  -22.1517   22.3783 N   0  0  0  0  0  0  0  0  0  0  0  0
  -25.5320  -31.2926   21.9705 N   0  0  0  0  0  0  0  0  0  0  0  0
  -22.7029  -16.4622   20.2950 N   0  0  0  0  0  0  0  0  0  0  0  0
  -23.4159  -11.5506   22.1644 N   0  0  0  0  0  0  0  0  0  0  0  0
  -25.9772   -8.9693   21.0822 N   0  0  0  0  0  0  0  0  0  0  0  0
  -27.6073  -28.8835   20.1856 N   0  0  0  0  0  0  0  0  0  0  0  0
  -25.8254  -34.0971   24.1865 N   0  0  0  0  0  0  0  0  0  0  0  0
  -21.4908  -18.3649   21.0078 N   0  0  0  0  0  0  0  0  0  0  0  0
  -24.4015  -37.3745   23.6400 N   0  3  0  0  0  0  0  0  0  0  0  0
  -26.7811  -10.1151   22.8987 O   0  0  0  0  0  0  0  0  0  0  0  0
  -26.8076  -29.1117   22.3607 O   0  0  0  0  0  0  0  0  0  0  0  0
  -27.2277  -32.8555   22.3140 O   0  0  0  0  0  0  0  0  0  0  0  0
  -23.5931  -34.7173   24.0897 O   0  0  0  0  0  0  0  0  0  0  0  0
  -23.3881  -17.7183   22.1200 O   0  0  0  0  0  0  0  0  0  0  0  0
  -31.5449  -11.8533   18.2911 O   0  0  0  0  0  0  0  0  0  0  0  0
  -20.4082  -27.9256   21.2899 O   0  0  0  0  0  0  0  0  0  1  0  0
  -32.8758  -15.0895   14.0296 F   0  0  0  0  0  0  0  0  0  0  0  0
  -32.3345  -10.7646   15.8757 F   0  0  0  0  0  0  0  0  0  0  0  0
  1  2  1  0  0  0  0
  1  5  2  0  0  0  0
  2  6  2  0  0  0  0
  3  8  2  0  0  0  0
  3 16  1  0  0  0  0
  4  9  1  0  0  0  0
  4 16  2  0  0  0  0
  5 18  1  0  0  0  0
  6 20  1  0  0  0  0
  7 10  2  0  0  0  0
  7 19  1  0  0  0  0
  8 27  1  0  0  0  0
  9 27  2  0  0  0  0
 10 28  1  0  0  0  0
 11 12  2  0  0  0  0
 11 29  1  0  0  0  0
 12 30  1  0  0  0  0
 13 21  1  0  0  0  0
 13 28  2  0  0  0  0
 14 22  2  0  0  0  0
 14 23  1  0  0  0  0
 15 30  2  0  0  0  0
 15 31  1  0  0  0  0
 16 32  1  0  0  0  0
 17 32  1  0  0  0  0
 17 33  2  0  0  0  0
 17 34  1  0  0  0  0
 18 20  2  0  0  0  0
 18 39  1  0  0  0  0
 19 21  2  0  0  0  0
 19 40  1  0  0  0  0
 20 52  1  0  0  0  0
 21 41  1  0  0  0  0
 22 24  1  0  0  0  0
 22 56  1  0  0  0  0
 23 25  2  0  0  0  0
 23 64  1  0  0  0  0
 24 26  2  0  0  0  0
 24 57  1  0  0  0  0
 25 26  1  0  0  0  0
 25 58  1  0  0  0  0
 26 71  1  0  0  0  0
 27 85  1  0  0  0  0
 28 86  1  0  0  0  0
 29 31  2  0  0  0  0
 29 85  1  0  0  0  0
 30 87  1  0  0  0  0
 31 88  1  0  0  0  0
 32 69  2  0  0  0  0
 33 70  1  0  0  0  0
 33 74  1  0  0  0  0
 34 75  1  0  0  0  0
 34 80  2  0  0  0  0
 35 53  1  0  0  0  0
 35 76  1  0  0  0  0
 35 81  2  0  0  0  0
 36 66  1  0  0  0  0
 36 72  1  0  0  0  0
 36 82  2  0  0  0  0
 37 67  1  0  0  0  0
 37 77  1  0  0  0  0
 37 83  2  0  0  0  0
 38 73  1  0  0  0  0
 38 78  1  0  0  0  0
 38 84  2  0  0  0  0
 39 42  1  0  0  0  0
 40 53  1  0  0  0  0
 41 72  1  0  0  0  0
 42 44  1  0  0  0  0
 43 45  1  0  0  0  0
 43 48  1  0  0  0  0
 44 52  1  0  0  0  0
 45 54  1  0  0  0  0
 46 49  1  0  0  0  0
 46 55  1  0  0  0  0
 47 50  1  0  0  0  0
 47 55  1  0  0  0  0
 48 73  1  0  0  0  0
 49 71  1  0  0  0  0
 50 71  1  0  0  0  0
 51 54  1  0  0  0  0
 51 73  1  0  0  0  0
 52 76  1  0  0  0  0
 53 72  1  0  0  0  0
 54 70  1  0  0  0  0
 55 78  1  0  0  0  0
 59 67  1  0  0  0  0
 60 68  1  0  0  0  0
 61 68  1  0  0  0  0
 62 68  1  0  0  0  0
 63 79  1  0  0  0  0
 64 65  1  0  0  0  0
 65 86  1  0  0  0  0
 66 68  1  0  0  0  0
 66 77  1  0  0  0  0
 67 79  1  0  0  0  0
 69 70  1  0  0  0  0
M  CHG  1  79   1
M  ISO  4  38 100  65 101  78 100  86 101
M  END
> <Batch ID>
0153

> <Smiles>
CNC(C)C(=O)NC(C(=O)N1Cc2cc([101O:1][101CH2:1]Cc3cc(C)c(C)c(N4CCC([100NH:0][100C:0](=O)N5CCCC(n6nc(-c7ccc(Oc8ccc(F)cc8F)cc7)c(C(N)=O)c6N)C5)CC4)c3C)ccc2CC1C(=O)NC1CCCc2ccccc21)C(C)(C)C

> <Shape>
0.301

> <Color>
0.085

> <Negative vol penalty>
0.000

$$$$

  -OEChem-04052321483D

 83 91  0     1  0  0  0  0  0999 V2000
  -39.5231  -27.5185   24.6787 C   0  0  0  0  0  0  0  0  0  0  0  0
  -39.0190  -26.3359   24.1469 C   0  0  0  0  0  0  0  0  0  0  0  0
  -23.0005   -9.8922   19.9808 C   0  0  0  0  0  0  0  0  0  0  0  0
  -23.7267   -9.9437   22.2845 C   0  0  0  0  0  0  0  0  0  0  0  0
  -38.8620  -28.7238   24.4458 C   0  0  0  0  0  0  0  0  0  0  0  0
  -37.8528  -26.3578   23.3828 C   0  0  0  0  0  0  0  0  0  0  0  0
  -38.2311  -23.5576   19.1803 C   0  0  0  0  0  0  0  0  0  0  0  0
  -22.2348   -8.7572   20.2475 C   0  0  0  0  0  0  0  0  0  0  0  0
  -22.9610   -8.8087   22.5513 C   0  0  0  0  0  0  0  0  0  0  0  0
  -38.1039  -22.1765   19.3218 C   0  0  0  0  0  0  0  0  0  0  0  0
  -23.2072   -5.4699   22.0793 C   0  0  0  0  0  0  0  0  0  0  0  0
  -23.7958   -4.4531   22.8311 C   0  0  0  0  0  0  0  0  0  0  0  0
  -35.8135  -22.3173   18.5779 C   0  0  0  0  0  0  0  0  0  0  0  0
  -31.5635  -19.3240   22.6687 C   0  0  0  0  0  0  0  0  0  0  0  0
  -22.0725   -4.6949   24.5071 C   0  0  0  0  0  0  0  0  0  0  0  0
  -23.7465  -10.4854   20.9993 C   0  0  0  0  0  0  0  0  0  0  0  0
  -24.1301  -13.0012   20.8231 C   0  0  0  0  0  0  0  0  0  0  0  0
  -37.6924  -28.7618   23.6704 C   0  0  0  0  0  0  0  0  0  0  0  0
  -37.1453  -24.3317   18.7462 C   0  0  0  0  0  0  0  0  0  0  0  0
  -37.1747  -27.5645   23.1404 C   0  0  0  0  0  0  0  0  0  0  0  0
  -35.9303  -23.7078   18.4292 C   0  0  0  0  0  0  0  0  0  0  0  0
  -30.2857  -18.9459   23.0656 C   0  0  0  0  0  0  0  0  0  0  0  0
  -29.7772  -17.7136   22.6705 C   0  0  0  0  0  0  0  0  0  0  0  0
  -22.2150   -8.2155   21.5327 C   0  0  0  0  0  0  0  0  0  0  0  0
  -36.8941  -21.5565   19.0234 C   0  0  0  0  0  0  0  0  0  0  0  0
  -22.0513   -6.0993   22.5414 C   0  0  0  0  0  0  0  0  0  0  0  0
  -23.2284   -4.0656   24.0450 C   0  0  0  0  0  0  0  0  0  0  0  0
  -21.4840   -5.7118   23.7553 C   0  0  0  0  0  0  0  0  0  0  0  0
  -24.5381  -11.6575   20.7243 C   0  0  0  0  0  0  0  0  0  0  0  0
  -30.5800  -16.9024   21.8849 C   0  0  0  0  0  0  0  0  0  0  0  0
  -32.2865  -18.4406   21.8833 C   0  0  0  0  0  0  0  0  0  0  0  0
  -25.2393  -13.7245   20.4582 C   0  0  0  0  0  0  0  0  0  0  0  0
  -22.8620  -13.5469   21.2102 C   0  0  0  0  0  0  0  0  0  0  0  0
  -35.4247  -26.6886   20.0062 C   0  0  0  0  0  0  0  0  0  0  0  0
  -34.0783  -26.7594   17.0559 C   0  0  0  0  0  0  0  0  0  0  0  0
  -33.3573  -25.1042   14.1598 C   0  0  0  0  0  0  0  0  0  0  0  0
  -30.7182  -14.6891   20.6896 C   0  0  0  0  0  0  0  0  0  0  0  0
  -36.9867  -30.0817   23.4854 C   0  0  0  0  0  0  0  0  0  0  0  0
  -37.3068  -25.8170   18.5731 C   0  0  0  0  0  0  0  0  0  0  0  0
  -34.7405  -24.4911   17.9400 C   0  0  0  0  0  0  0  0  0  0  0  0
  -35.9636  -30.0719   22.3524 C   0  0  0  0  0  0  0  0  0  0  0  0
  -29.6004  -12.2355   18.3642 C   0  0  0  0  0  0  0  0  0  0  0  0
  -35.0874  -28.8260   22.4352 C   0  0  0  0  0  0  0  0  0  0  0  0
  -28.1502  -11.9769   18.7791 C   0  0  0  0  0  0  0  0  0  0  0  0
  -30.5014  -12.4795   19.5736 C   0  0  0  0  0  0  0  0  0  0  0  0
  -28.5861  -13.2671   20.9080 C   0  0  0  0  0  0  0  0  0  0  0  0
  -35.9259  -27.5509   22.2857 C   0  0  1  0  0  0  0  0  0  0  0  0
  -35.9813  -26.5711   18.6155 C   0  0  1  0  0  0  0  0  0  0  0  0
  -27.6280  -13.0802   19.7202 C   0  0  2  0  0  0  0  0  0  0  0  0
  -29.4834  -19.8777   23.9125 C   0  0  0  0  0  0  0  0  0  0  0  0
  -28.4070  -17.2902   23.0867 C   0  0  0  0  0  0  0  0  0  0  0  0
  -32.2138  -25.4119   11.9473 C   0  0  0  0  0  0  0  0  0  0  0  0
  -31.3641  -26.4997   18.4254 C   0  0  0  0  0  0  0  0  0  0  0  0
  -30.3855  -25.8632   16.2105 C   0  0  0  0  0  0  0  0  0  0  0  0
  -31.4187  -28.1132   16.5153 C   0  0  0  0  0  0  0  0  0  0  0  0
  -35.8625  -24.6065   12.6647 C   0  0  0  0  0  0  0  0  0  0  0  0
  -35.6033  -18.4156   20.2806 C   0  0  0  0  0  0  0  0  0  0  0  0
  -35.4718  -19.7088   19.4914 C   0  0  0  0  0  0  0  0  0  1  0  0
  -34.2482  -17.8500   20.6757 C   0  0  0  0  0  0  0  0  0  0  0  0
  -32.9058  -26.0718   16.3990 C   0  0  1  0  0  0  0  0  0  0  0  0
  -33.5300  -25.4990   12.7042 C   0  0  2  0  0  0  0  0  0  0  0  0
  -31.5401  -26.6222   16.8986 C   0  0  0  0  0  0  0  0  0  0  0  0
  -25.8073  -11.5318   20.3276 N   0  0  0  0  0  0  0  0  0  0  0  0
  -31.8261  -17.2353   21.4797 N   0  0  0  0  0  0  0  0  0  0  0  0
  -26.2064  -12.8059   20.1737 N   0  0  0  0  0  0  0  0  0  0  0  0
  -34.9462  -25.9415   17.7931 N   0  0  0  0  0  0  0  0  0  0  0  0
  -29.9460  -13.5401   20.4171 N   0  0  0  0  0  0  0  0  0  0  0  0
  -25.4719  -15.0504   20.3560 N   0  0  0  0  0  0  0  0  0  0  0  0
  -21.8309  -12.6621   21.5542 N   0  0  0  0  0  0  0  0  0  0  0  0
  -30.0737  -15.6439   21.4755 N   0  0  0  0  0  0  0  0  0  0  0  0
  -36.2654  -27.3291   20.8964 N   0  0  0  0  0  0  0  0  0  0  0  0
  -33.1113  -26.1996   14.9603 N   0  0  0  0  0  0  0  0  0  0  0  0
  -34.5158  -24.6019   12.0376 N   0  3  0  0  0  0  0  0  0  0  0  0
  -22.6445  -14.7820   21.2341 O   0  0  0  0  0  0  0  0  0  0  0  0
  -34.3141  -26.2333   20.2530 O   0  0  0  0  0  0  0  0  0  0  0  0
  -34.2228  -27.9762   16.9140 O   0  0  0  0  0  0  0  0  0  0  0  0
  -33.4296  -23.9401   14.5473 O   0  0  0  0  0  0  0  0  0  0  0  0
  -31.8566  -14.8287   20.2351 O   0  0  0  0  0  0  0  0  0  0  0  0
  -21.4678   -7.1081   21.7934 O   0  0  0  0  0  0  0  0  0  0  0  0
  -36.7670  -20.2086   19.1613 O   0  0  0  0  0  0  0  0  0  1  0  0
  -33.5487  -18.7904   21.4794 O   0  0  0  0  0  0  0  0  0  0  0  0
  -23.7928   -3.0881   24.7662 F   0  0  0  0  0  0  0  0  0  0  0  0
  -20.3729   -6.3120   24.2038 F   0  0  0  0  0  0  0  0  0  0  0  0
  1  2  1  0  0  0  0
  1  5  2  0  0  0  0
  2  6  2  0  0  0  0
  3  8  2  0  0  0  0
  3 16  1  0  0  0  0
  4  9  1  0  0  0  0
  4 16  2  0  0  0  0
  5 18  1  0  0  0  0
  6 20  1  0  0  0  0
  7 10  2  0  0  0  0
  7 19  1  0  0  0  0
  8 24  1  0  0  0  0
  9 24  2  0  0  0  0
 10 25  1  0  0  0  0
 11 12  2  0  0  0  0
 11 26  1  0  0  0  0
 12 27  1  0  0  0  0
 13 21  1  0  0  0  0
 13 25  2  0  0  0  0
 14 22  2  0  0  0  0
 14 31  1  0  0  0  0
 15 27  2  0  0  0  0
 15 28  1  0  0  0  0
 16 29  1  0  0  0  0
 17 29  1  0  0  0  0
 17 32  2  0  0  0  0
 17 33  1  0  0  0  0
 18 20  2  0  0  0  0
 18 38  1  0  0  0  0
 19 21  2  0  0  0  0
 19 39  1  0  0  0  0
 20 47  1  0  0  0  0
 21 40  1  0  0  0  0
 22 23  1  0  0  0  0
 22 50  1  0  0  0  0
 23 30  2  0  0  0  0
 23 51  1  0  0  0  0
 24 79  1  0  0  0  0
 25 80  1  0  0  0  0
 26 28  2  0  0  0  0
 26 79  1  0  0  0  0
 27 82  1  0  0  0  0
 28 83  1  0  0  0  0
 29 63  2  0  0  0  0
 30 64  1  0  0  0  0
 30 70  1  0  0  0  0
 31 64  2  0  0  0  0
 31 81  1  0  0  0  0
 32 65  1  0  0  0  0
 32 68  1  0  0  0  0
 33 69  1  0  0  0  0
 33 74  2  0  0  0  0
 34 48  1  0  0  0  0
 34 71  1  0  0  0  0
 34 75  2  0  0  0  0
 35 60  1  0  0  0  0
 35 66  1  0  0  0  0
 35 76  2  0  0  0  0
 36 61  1  0  0  0  0
 36 72  1  0  0  0  0
 36 77  2  0  0  0  0
 37 67  1  0  0  0  0
 37 70  1  0  0  0  0
 37 78  2  0  0  0  0
 38 41  1  0  0  0  0
 39 48  1  0  0  0  0
 40 66  1  0  0  0  0
 41 43  1  0  0  0  0
 42 44  1  0  0  0  0
 42 45  1  0  0  0  0
 43 47  1  0  0  0  0
 44 49  1  0  0  0  0
 45 67  1  0  0  0  0
 46 49  1  0  0  0  0
 46 67  1  0  0  0  0
 47 71  1  0  0  0  0
 48 66  1  0  0  0  0
 49 65  1  0  0  0  0
 52 61  1  0  0  0  0
 53 62  1  0  0  0  0
 54 62  1  0  0  0  0
 55 62  1  0  0  0  0
 56 73  1  0  0  0  0
 57 58  1  0  0  0  0
 57 59  1  0  0  0  0
 58 80  1  0  0  0  0
 59 81  1  0  0  0  0
 60 62  1  0  0  0  0
 60 72  1  0  0  0  0
 61 73  1  0  0  0  0
 63 65  1  0  0  0  0
M  CHG  1  73   1
M  ISO  4  37 100  58 101  70 100  80 101
M  END
> <Batch ID>
0153

> <Smiles>
CNC(C)C(=O)NC(C(=O)N1Cc2cc([101O:1][101CH2:1]CCOc3cc(C)c(C)c([100NH:0][100C:0](=O)N4CCCC(n5nc(-c6ccc(Oc7ccc(F)cc7F)cc6)c(C(N)=O)c5N)C4)n3)ccc2CC1C(=O)NC1CCCc2ccccc21)C(C)(C)C

> <Shape>
0.187

> <Color>
0.198

> <Negative vol penalty>
0.000

$$$$

  -OEChem-04052321483D

 89 99  0     1  0  0  0  0  0999 V2000
  -29.0395  -33.9630   25.9041 C   0  0  0  0  0  0  0  0  0  0  0  0
  -28.9413  -32.6926   25.3457 C   0  0  0  0  0  0  0  0  0  0  0  0
  -24.8712  -10.0523   23.1285 C   0  0  0  0  0  0  0  0  0  0  0  0
  -24.1981   -8.8249   21.1594 C   0  0  0  0  0  0  0  0  0  0  0  0
  -27.8851  -34.7011   26.1618 C   0  0  0  0  0  0  0  0  0  0  0  0
  -27.6883  -32.1591   25.0456 C   0  0  0  0  0  0  0  0  0  0  0  0
  -27.5553  -29.9576   20.4871 C   0  0  0  0  0  0  0  0  0  0  0  0
  -23.8545   -9.4377   23.8592 C   0  0  0  0  0  0  0  0  0  0  0  0
  -23.1813   -8.2102   21.8901 C   0  0  0  0  0  0  0  0  0  0  0  0
  -28.1151  -28.6854   20.3778 C   0  0  0  0  0  0  0  0  0  0  0  0
  -22.8929   -5.6806   24.1123 C   0  0  0  0  0  0  0  0  0  0  0  0
  -22.7252   -4.3048   23.9558 C   0  0  0  0  0  0  0  0  0  0  0  0
  -30.0590  -24.3406   18.7668 C   0  0  0  0  0  0  0  0  0  0  0  0
  -25.9117  -27.7116   20.5031 C   0  0  0  0  0  0  0  0  0  0  0  0
  -20.4699   -4.6691   23.1698 C   0  0  0  0  0  0  0  0  0  0  0  0
  -25.0430   -9.7460   21.7785 C   0  0  0  0  0  0  0  0  0  0  0  0
  -27.4142   -9.9255   20.8550 C   0  0  0  0  0  0  0  0  0  0  0  0
  -26.6179  -34.1803   25.8558 C   0  0  0  0  0  0  0  0  0  0  0  0
  -26.1680  -30.1160   20.6164 C   0  0  0  0  0  0  0  0  0  0  0  0
  -26.5158  -32.8905   25.3007 C   0  0  0  0  0  0  0  0  0  0  0  0
  -30.4471  -23.0102   18.6088 C   0  0  0  0  0  0  0  0  0  0  0  0
  -25.3365  -28.9870   20.6113 C   0  0  0  0  0  0  0  0  0  0  0  0
  -29.6667  -24.8084   20.0210 C   0  0  0  0  0  0  0  0  0  0  0  0
  -29.6623  -23.9457   21.1171 C   0  0  0  0  0  0  0  0  0  0  0  0
  -30.0504  -22.6153   20.9590 C   0  0  0  0  0  0  0  0  0  0  0  0
  -30.4428  -22.1475   19.7048 C   0  0  0  0  0  0  0  0  0  0  0  0
  -23.0095   -8.5166   23.2401 C   0  0  0  0  0  0  0  0  0  0  0  0
  -27.2936  -27.5620   20.3888 C   0  0  0  0  0  0  0  0  0  0  0  0
  -21.8491   -6.5508   23.7977 C   0  0  0  0  0  0  0  0  0  0  0  0
  -21.5137   -3.7990   23.4845 C   0  0  0  0  0  0  0  0  0  0  0  0
  -20.6376   -6.0450   23.3263 C   0  0  0  0  0  0  0  0  0  0  0  0
  -26.0928  -10.3810   21.0230 C   0  0  0  0  0  0  0  0  0  0  0  0
  -28.0063  -10.8757   20.0593 C   0  0  0  0  0  0  0  0  0  0  0  0
  -28.0496   -8.7488   21.3718 C   0  0  0  0  0  0  0  0  0  0  0  0
  -24.2461  -31.3258   22.8404 C   0  0  0  0  0  0  0  0  0  0  0  0
  -21.9592  -30.7819   20.6051 C   0  0  0  0  0  0  0  0  0  0  0  0
  -20.9557  -29.0298   17.8538 C   0  0  0  0  0  0  0  0  0  0  0  0
  -29.0714  -15.9454   18.6561 C   0  0  0  0  0  0  0  0  0  0  0  0
  -25.3962  -34.9965   26.1962 C   0  0  0  0  0  0  0  0  0  0  0  0
  -25.5776  -31.4965   20.7064 C   0  0  0  0  0  0  0  0  0  0  0  0
  -23.8395  -29.1041   20.7273 C   0  0  0  0  0  0  0  0  0  0  0  0
  -24.1263  -34.5104   25.5024 C   0  0  0  0  0  0  0  0  0  0  0  0
  -26.0092  -14.7164   17.4555 C   0  0  0  0  0  0  0  0  0  0  0  0
  -32.2137  -21.8944   17.0896 C   0  0  0  0  0  0  0  0  0  0  0  0
  -31.9676  -23.2624   16.5345 C   0  0  0  0  0  0  0  0  0  0  0  0
  -23.9995  -32.9950   25.6216 C   0  0  0  0  0  0  0  0  0  0  0  0
  -25.8587  -13.4307   18.2682 C   0  0  0  0  0  0  0  0  0  0  0  0
  -28.8728  -19.3962   19.3202 C   0  0  0  0  0  0  0  0  0  0  0  0
  -31.0951  -18.7380   18.3223 C   0  0  0  0  0  0  0  0  0  0  0  0
  -26.5635  -15.8660   18.2989 C   0  0  0  0  0  0  0  0  0  0  0  0
  -28.1923  -18.3163   18.4738 C   0  0  0  0  0  0  0  0  0  0  0  0
  -30.3696  -17.6941   17.4779 C   0  0  0  0  0  0  0  0  0  0  0  0
  -27.6764  -14.2560   19.8115 C   0  0  0  0  0  0  0  0  0  0  0  0
  -30.8629  -22.5369   17.2540 C   0  0  0  0  0  0  0  0  0  0  0  0
  -25.1760  -32.2875   24.9384 C   0  0  1  0  0  0  0  0  0  0  0  0
  -24.1948  -31.5141   21.3505 C   0  0  1  0  0  0  0  0  0  0  0  0
  -27.1761  -13.0674   18.9762 C   0  0  1  0  0  0  0  0  0  0  0  0
  -30.1584  -19.9007   18.6605 C   0  0  0  0  0  0  0  0  0  0  0  0
  -29.2411  -24.4506   22.4609 C   0  0  0  0  0  0  0  0  0  0  0  0
  -30.0450  -21.6931   22.1382 C   0  0  0  0  0  0  0  0  0  0  0  0
  -19.0211  -28.7799   16.2751 C   0  0  0  0  0  0  0  0  0  0  0  0
  -20.4282  -29.2198   22.7324 C   0  0  0  0  0  0  0  0  0  0  0  0
  -19.0401  -28.2237   20.9024 C   0  0  0  0  0  0  0  0  0  0  0  0
  -19.0064  -30.6875   21.2907 C   0  0  0  0  0  0  0  0  0  0  0  0
  -22.6008  -29.8301   15.5273 C   0  0  0  0  0  0  0  0  0  0  0  0
  -29.2560  -26.2376   20.1638 C   0  0  0  0  0  0  0  0  0  1  0  0
  -21.0552  -29.6231   20.2605 C   0  0  1  0  0  0  0  0  0  0  0  0
  -20.3442  -29.4814   16.5398 C   0  0  2  0  0  0  0  0  0  0  0  0
  -19.9108  -29.4359   21.2963 C   0  0  0  0  0  0  0  0  0  0  0  0
  -25.8589  -11.5312   20.3855 N   0  0  0  0  0  0  0  0  0  0  0  0
  -27.0413  -11.8064   19.8091 N   0  0  0  0  0  0  0  0  0  0  0  0
  -23.3104  -30.4750   20.8191 N   0  0  0  0  0  0  0  0  0  0  0  0
  -27.7973  -15.4594   18.9859 N   0  0  0  0  0  0  0  0  0  0  0  0
  -29.1412  -17.2459   18.1348 N   0  0  0  0  0  0  0  0  0  0  0  0
  -29.2531  -10.9975   19.5563 N   0  0  0  0  0  0  0  0  0  0  0  0
  -27.2960   -7.8794   22.1723 N   0  0  0  0  0  0  0  0  0  0  0  0
  -30.8268  -20.8277   19.5469 N   0  0  0  0  0  0  0  0  0  0  0  0
  -24.9959  -32.2793   23.5024 N   0  0  0  0  0  0  0  0  0  0  0  0
  -20.5941  -29.8567   18.8963 N   0  0  0  0  0  0  0  0  0  0  0  0
  -21.2683  -29.1840   15.4090 N   0  3  0  0  0  0  0  0  0  0  0  0
  -29.2546   -8.4847   21.1445 O   0  0  0  0  0  0  0  0  0  0  0  0
  -23.6485  -30.3861   23.3516 O   0  0  0  0  0  0  0  0  0  0  0  0
  -21.4854  -31.9187   20.6745 O   0  0  0  0  0  0  0  0  0  0  0  0
  -21.6786  -28.0402   17.9468 O   0  0  0  0  0  0  0  0  0  0  0  0
  -30.0873  -15.2579   18.8181 O   0  0  0  0  0  0  0  0  0  0  0  0
  -22.0174   -7.9165   23.9529 O   0  0  0  0  0  0  0  0  0  0  0  0
  -27.8413  -26.3102   20.2822 O   0  0  0  0  0  0  0  0  0  1  0  0
  -21.3533   -2.4779   23.3328 F   0  0  0  0  0  0  0  0  0  0  0  0
  -19.6316   -6.8761   23.0212 F   0  0  0  0  0  0  0  0  0  0  0  0
  1  2  1  0  0  0  0
  1  5  2  0  0  0  0
  2  6  2  0  0  0  0
  3  8  2  0  0  0  0
  3 16  1  0  0  0  0
  4  9  1  0  0  0  0
  4 16  2  0  0  0  0
  5 18  1  0  0  0  0
  6 20  1  0  0  0  0
  7 10  2  0  0  0  0
  7 19  1  0  0  0  0
  8 27  1  0  0  0  0
  9 27  2  0  0  0  0
 10 28  1  0  0  0  0
 11 12  2  0  0  0  0
 11 29  1  0  0  0  0
 12 30  1  0  0  0  0
 13 21  2  0  0  0  0
 13 23  1  0  0  0  0
 14 22  1  0  0  0  0
 14 28  2  0  0  0  0
 15 30  2  0  0  0  0
 15 31  1  0  0  0  0
 16 32  1  0  0  0  0
 17 32  1  0  0  0  0
 17 33  2  0  0  0  0
 17 34  1  0  0  0  0
 18 20  2  0  0  0  0
 18 39  1  0  0  0  0
 19 22  2  0  0  0  0
 19 40  1  0  0  0  0
 20 55  1  0  0  0  0
 21 26  1  0  0  0  0
 21 54  1  0  0  0  0
 22 41  1  0  0  0  0
 23 24  2  0  0  0  0
 23 66  1  0  0  0  0
 24 25  1  0  0  0  0
 24 59  1  0  0  0  0
 25 26  2  0  0  0  0
 25 60  1  0  0  0  0
 26 77  1  0  0  0  0
 27 86  1  0  0  0  0
 28 87  1  0  0  0  0
 29 31  2  0  0  0  0
 29 86  1  0  0  0  0
 30 88  1  0  0  0  0
 31 89  1  0  0  0  0
 32 70  2  0  0  0  0
 33 71  1  0  0  0  0
 33 75  1  0  0  0  0
 34 76  1  0  0  0  0
 34 81  2  0  0  0  0
 35 56  1  0  0  0  0
 35 78  1  0  0  0  0
 35 82  2  0  0  0  0
 36 67  1  0  0  0  0
 36 72  1  0  0  0  0
 36 83  2  0  0  0  0
 37 68  1  0  0  0  0
 37 79  1  0  0  0  0
 37 84  2  0  0  0  0
 38 73  1  0  0  0  0
 38 74  1  0  0  0  0
 38 85  2  0  0  0  0
 39 42  1  0  0  0  0
 40 56  1  0  0  0  0
 41 72  1  0  0  0  0
 42 46  1  0  0  0  0
 43 47  1  0  0  0  0
 43 50  1  0  0  0  0
 44 45  1  0  0  0  0
 44 54  1  0  0  0  0
 45 54  1  0  0  0  0
 46 55  1  0  0  0  0
 47 57  1  0  0  0  0
 48 51  1  0  0  0  0
 48 58  1  0  0  0  0
 49 52  1  0  0  0  0
 49 58  1  0  0  0  0
 50 73  1  0  0  0  0
 51 74  1  0  0  0  0
 52 74  1  0  0  0  0
 53 57  1  0  0  0  0
 53 73  1  0  0  0  0
 55 78  1  0  0  0  0
 56 72  1  0  0  0  0
 57 71  1  0  0  0  0
 58 77  1  0  0  0  0
 61 68  1  0  0  0  0
 62 69  1  0  0  0  0
 63 69  1  0  0  0  0
 64 69  1  0  0  0  0
 65 80  1  0  0  0  0
 66 87  1  0  0  0  0
 67 69  1  0  0  0  0
 67 79  1  0  0  0  0
 68 80  1  0  0  0  0
 70 71  1  0  0  0  0
M  CHG  1  80   1
M  ISO  4  38 100  66 101  74 100  87 101
M  END
> <Batch ID>
0153

> <Smiles>
CNC(C)C(=O)NC(C(=O)N1Cc2cc([101O:1][101CH2:1]c3cc(C4CC4)c(NC4CC[100N:0]([100C:0](=O)N5CCCC(n6nc(-c7ccc(Oc8ccc(F)cc8F)cc7)c(C(N)=O)c6N)C5)CC4)c(C)c3C)ccc2CC1C(=O)NC1CCCc2ccccc21)C(C)(C)C

> <Shape>
0.303

> <Color>
0.080

> <Negative vol penalty>
0.000

$$$$

  -OEChem-04052321483D

 87 96  0     1  0  0  0  0  0999 V2000
  -33.8091  -27.4030   20.8892 C   0  0  0  0  0  0  0  0  0  0  0  0
  -33.3832  -26.1573   21.3390 C   0  0  0  0  0  0  0  0  0  0  0  0
  -21.5135  -25.7254   22.9169 C   0  0  0  0  0  0  0  0  0  0  0  0
  -21.3208  -26.7784   20.7510 C   0  0  0  0  0  0  0  0  0  0  0  0
  -33.0592  -28.0931   19.9378 C   0  0  0  0  0  0  0  0  0  0  0  0
  -32.2064  -25.6015   20.8384 C   0  0  0  0  0  0  0  0  0  0  0  0
  -31.0761  -19.6678   19.8287 C   0  0  0  0  0  0  0  0  0  0  0  0
  -28.9977  -13.2081   18.5401 C   0  0  0  0  0  0  0  0  0  0  0  0
  -29.1691  -13.8886   19.7456 C   0  0  0  0  0  0  0  0  0  0  0  0
  -22.2495  -26.8154   23.3814 C   0  0  0  0  0  0  0  0  0  0  0  0
  -22.0568  -27.8684   21.2155 C   0  0  0  0  0  0  0  0  0  0  0  0
  -30.4016  -18.7015   20.5736 C   0  0  0  0  0  0  0  0  0  0  0  0
  -25.3027  -28.6196   21.7907 C   0  0  0  0  0  0  0  0  0  0  0  0
  -26.3147  -29.1157   20.9689 C   0  0  0  0  0  0  0  0  0  0  0  0
  -28.4028  -19.1141   19.2877 C   0  0  0  0  0  0  0  0  0  0  0  0
  -26.6180  -13.6102   18.6514 C   0  0  0  0  0  0  0  0  0  0  0  0
  -25.2070  -31.2618   20.9003 C   0  0  0  0  0  0  0  0  0  0  0  0
  -21.0492  -25.7068   21.6017 C   0  0  0  0  0  0  0  0  0  0  0  0
  -18.8918  -24.4172   21.1657 C   0  0  0  0  0  0  0  0  0  0  0  0
  -31.8777  -27.5412   19.4181 C   0  0  0  0  0  0  0  0  0  0  0  0
  -30.4148  -20.3735   18.8132 C   0  0  0  0  0  0  0  0  0  0  0  0
  -31.4392  -26.2855   19.8801 C   0  0  0  0  0  0  0  0  0  0  0  0
  -29.0718  -20.0871   18.5296 C   0  0  0  0  0  0  0  0  0  0  0  0
  -27.7222  -13.0690   17.9930 C   0  0  0  0  0  0  0  0  0  0  0  0
  -28.0650  -14.4299   20.4040 C   0  0  0  0  0  0  0  0  0  0  0  0
  -26.7894  -14.2907   19.8569 C   0  0  0  0  0  0  0  0  0  0  0  0
  -22.5212  -27.8869   22.5307 C   0  0  0  0  0  0  0  0  0  0  0  0
  -29.0639  -18.4265   20.3051 C   0  0  0  0  0  0  0  0  0  0  0  0
  -24.2427  -29.4446   22.1672 C   0  0  0  0  0  0  0  0  0  0  0  0
  -26.2669  -30.4368   20.5237 C   0  0  0  0  0  0  0  0  0  0  0  0
  -24.1949  -30.7656   21.7220 C   0  0  0  0  0  0  0  0  0  0  0  0
  -20.2893  -24.5809   21.1211 C   0  0  0  0  0  0  0  0  0  0  0  0
  -18.6712  -23.1907   20.5881 C   0  0  0  0  0  0  0  0  0  0  0  0
  -17.8832  -25.2952   21.6828 C   0  0  0  0  0  0  0  0  0  0  0  0
  -29.7070  -23.4296   18.3002 C   0  0  0  0  0  0  0  0  0  0  0  0
  -28.6692  -22.3053   15.4400 C   0  0  0  0  0  0  0  0  0  0  0  0
  -27.5135  -19.6659   13.6111 C   0  0  0  0  0  0  0  0  0  0  0  0
  -21.8088  -18.3624   20.1062 C   0  0  0  0  0  0  0  0  0  0  0  0
  -31.0757  -28.3457   18.4261 C   0  0  0  0  0  0  0  0  0  0  0  0
  -31.1640  -21.3940   18.0009 C   0  0  0  0  0  0  0  0  0  0  0  0
  -28.3222  -20.8023   17.4365 C   0  0  0  0  0  0  0  0  0  0  0  0
  -30.0381  -27.5203   17.6695 C   0  0  0  0  0  0  0  0  0  0  0  0
  -20.5198  -20.1651   17.3827 C   0  0  0  0  0  0  0  0  0  0  0  0
  -29.2554  -26.6338   18.6330 C   0  0  0  0  0  0  0  0  0  0  0  0
  -20.1734  -21.5010   18.0398 C   0  0  0  0  0  0  0  0  0  0  0  0
  -24.7648  -16.6723   19.2152 C   0  0  0  0  0  0  0  0  0  0  0  0
  -23.3106  -15.3098   20.7633 C   0  0  0  0  0  0  0  0  0  0  0  0
  -21.8461  -19.6011   17.8955 C   0  0  0  0  0  0  0  0  0  0  0  0
  -23.5035  -17.2607   18.5762 C   0  0  0  0  0  0  0  0  0  0  0  0
  -22.0825  -15.9016   20.0772 C   0  0  0  0  0  0  0  0  0  0  0  0
  -21.5751  -20.8270   20.0267 C   0  0  0  0  0  0  0  0  0  0  0  0
  -30.1812  -25.6385   19.3427 C   0  0  1  0  0  0  0  0  0  0  0  0
  -30.2484  -22.4152   17.3330 C   0  0  1  0  0  0  0  0  0  0  0  0
  -20.2189  -21.3900   19.5742 C   0  0  1  0  0  0  0  0  0  0  0  0
  -24.5022  -15.2836   19.8026 C   0  0  0  0  0  0  0  0  0  0  0  0
  -27.5395  -12.3414   16.7042 C   0  0  0  0  0  0  0  0  0  0  0  0
  -28.8527  -14.2279   22.7853 C   0  0  0  0  0  0  0  0  0  0  0  0
  -26.7140  -19.0633   11.3100 C   0  0  0  0  0  0  0  0  0  0  0  0
  -26.0034  -23.6761   16.0098 C   0  0  0  0  0  0  0  0  0  0  0  0
  -24.9791  -22.2819   14.2000 C   0  0  0  0  0  0  0  0  0  0  0  0
  -26.8038  -23.8914   13.6503 C   0  0  0  0  0  0  0  0  0  0  0  0
  -29.6933  -17.6982   13.2430 C   0  0  0  0  0  0  0  0  0  0  0  0
  -29.1761  -16.3997   21.5443 C   0  0  0  0  0  0  0  0  0  1  0  0
  -28.2775  -15.1521   21.6946 C   0  0  1  0  0  0  0  0  0  0  0  0
  -27.3589  -21.7723   14.9125 C   0  0  1  0  0  0  0  0  0  0  0  0
  -27.9110  -19.1358   12.2453 C   0  0  2  0  0  0  0  0  0  0  0  0
  -26.2996  -22.8931   14.7151 C   0  0  0  0  0  0  0  0  0  0  0  0
  -20.9126  -23.5415   20.5598 N   0  0  0  0  0  0  0  0  0  0  0  0
  -19.9021  -22.7128   20.2463 N   0  0  0  0  0  0  0  0  0  0  0  0
  -29.0964  -21.7959   16.6744 N   0  0  0  0  0  0  0  0  0  0  0  0
  -21.8576  -19.5519   19.3642 N   0  0  0  0  0  0  0  0  0  0  0  0
  -22.3759  -17.2218   19.5184 N   0  0  0  0  0  0  0  0  0  0  0  0
  -17.5464  -22.4852   20.3444 N   0  0  0  0  0  0  0  0  0  0  0  0
  -18.2834  -26.5166   22.2419 N   0  0  0  0  0  0  0  0  0  0  0  0
  -25.6829  -14.8198   20.4974 N   0  0  0  0  0  0  0  0  0  0  0  0
  -30.5135  -24.5402   18.4608 N   0  0  0  0  0  0  0  0  0  0  0  0
  -27.6792  -21.0320   13.6968 N   0  0  0  0  0  0  0  0  0  0  0  0
  -28.4939  -17.7698   12.3694 N   0  3  0  0  0  0  0  0  0  0  0  0
  -16.6646  -24.9982   21.6650 O   0  0  0  0  0  0  0  0  0  0  0  0
  -28.6362  -23.2209   18.8583 O   0  0  0  0  0  0  0  0  0  0  0  0
  -29.2941  -23.1374   14.7777 O   0  0  0  0  0  0  0  0  0  0  0  0
  -27.0941  -18.9410   14.5107 O   0  0  0  0  0  0  0  0  0  0  0  0
  -21.2893  -18.3215   21.2285 O   0  0  0  0  0  0  0  0  0  0  0  0
  -23.2391  -28.9508   22.9837 O   0  0  0  0  0  0  0  0  0  0  0  0
  -28.3987  -17.4780   21.0359 O   0  0  0  0  0  0  0  0  0  1  0  0
  -27.2396  -30.9135   19.7359 F   0  0  0  0  0  0  0  0  0  0  0  0
  -23.1798  -31.5633   22.0813 F   0  0  0  0  0  0  0  0  0  0  0  0
  1  2  1  0  0  0  0
  1  5  2  0  0  0  0
  2  6  2  0  0  0  0
  3 10  2  0  0  0  0
  3 18  1  0  0  0  0
  4 11  1  0  0  0  0
  4 18  2  0  0  0  0
  5 20  1  0  0  0  0
  6 22  1  0  0  0  0
  7 12  2  0  0  0  0
  7 21  1  0  0  0  0
  8  9  2  0  0  0  0
  8 24  1  0  0  0  0
  9 25  1  0  0  0  0
 10 27  1  0  0  0  0
 11 27  2  0  0  0  0
 12 28  1  0  0  0  0
 13 14  2  0  0  0  0
 13 29  1  0  0  0  0
 14 30  1  0  0  0  0
 15 23  1  0  0  0  0
 15 28  2  0  0  0  0
 16 24  2  0  0  0  0
 16 26  1  0  0  0  0
 17 30  2  0  0  0  0
 17 31  1  0  0  0  0
 18 32  1  0  0  0  0
 19 32  1  0  0  0  0
 19 33  2  0  0  0  0
 19 34  1  0  0  0  0
 20 22  2  0  0  0  0
 20 39  1  0  0  0  0
 21 23  2  0  0  0  0
 21 40  1  0  0  0  0
 22 52  1  0  0  0  0
 23 41  1  0  0  0  0
 24 56  1  0  0  0  0
 25 26  2  0  0  0  0
 25 64  1  0  0  0  0
 26 75  1  0  0  0  0
 27 84  1  0  0  0  0
 28 85  1  0  0  0  0
 29 31  2  0  0  0  0
 29 84  1  0  0  0  0
 30 86  1  0  0  0  0
 31 87  1  0  0  0  0
 32 68  2  0  0  0  0
 33 69  1  0  0  0  0
 33 73  1  0  0  0  0
 34 74  1  0  0  0  0
 34 79  2  0  0  0  0
 35 53  1  0  0  0  0
 35 76  1  0  0  0  0
 35 80  2  0  0  0  0
 36 65  1  0  0  0  0
 36 70  1  0  0  0  0
 36 81  2  0  0  0  0
 37 66  1  0  0  0  0
 37 77  1  0  0  0  0
 37 82  2  0  0  0  0
 38 71  1  0  0  0  0
 38 72  1  0  0  0  0
 38 83  2  0  0  0  0
 39 42  1  0  0  0  0
 40 53  1  0  0  0  0
 41 70  1  0  0  0  0
 42 44  1  0  0  0  0
 43 45  1  0  0  0  0
 43 48  1  0  0  0  0
 44 52  1  0  0  0  0
 45 54  1  0  0  0  0
 46 49  1  0  0  0  0
 46 55  1  0  0  0  0
 47 50  1  0  0  0  0
 47 55  1  0  0  0  0
 48 71  1  0  0  0  0
 49 72  1  0  0  0  0
 50 72  1  0  0  0  0
 51 54  1  0  0  0  0
 51 71  1  0  0  0  0
 52 76  1  0  0  0  0
 53 70  1  0  0  0  0
 54 69  1  0  0  0  0
 55 75  1  0  0  0  0
 57 64  1  0  0  0  0
 58 66  1  0  0  0  0
 59 67  1  0  0  0  0
 60 67  1  0  0  0  0
 61 67  1  0  0  0  0
 62 78  1  0  0  0  0
 63 64  1  0  0  0  0
 63 85  1  0  0  0  0
 65 67  1  0  0  0  0
 65 77  1  0  0  0  0
 66 78  1  0  0  0  0
 68 69  1  0  0  0  0
M  CHG  1  78   1
M  ISO  4  38 100  63 101  72 100  85 101
M  END
> <Batch ID>
0153

> <Smiles>
CNC(C)C(=O)NC(C(=O)N1Cc2cc([101O:1][101CH2:1]C(C)c3ccc(C)cc3NC3CC[100N:0]([100C:0](=O)N4CCCC(n5nc(-c6ccc(Oc7ccc(F)cc7F)cc6)c(C(N)=O)c5N)C4)CC3)ccc2CC1C(=O)NC1CCCc2ccccc21)C(C)(C)C

> <Shape>
0.208

> <Color>
0.062

> <Negative vol penalty>
0.000

$$$$

  -OEChem-04052321483D

 97107  0     1  0  0  0  0  0999 V2000
  -17.8631  -30.9568   16.8977 C   0  0  0  0  0  0  0  0  0  0  0  0
  -19.0337  -30.2111   16.8017 C   0  0  0  0  0  0  0  0  0  0  0  0
  -23.4194   -8.6410   25.2132 C   0  0  0  0  0  0  0  0  0  0  0  0
  -21.7174  -10.2109   24.5235 C   0  0  0  0  0  0  0  0  0  0  0  0
  -17.9005  -32.2457   17.4280 C   0  0  0  0  0  0  0  0  0  0  0  0
  -20.2426  -30.7544   17.2350 C   0  0  0  0  0  0  0  0  0  0  0  0
  -24.8895  -27.7608   19.8714 C   0  0  0  0  0  0  0  0  0  0  0  0
  -30.2346  -22.1376   19.0871 C   0  0  0  0  0  0  0  0  0  0  0  0
  -23.0230   -8.7947   26.5416 C   0  0  0  0  0  0  0  0  0  0  0  0
  -21.3209  -10.3646   25.8520 C   0  0  0  0  0  0  0  0  0  0  0  0
  -26.0883  -27.2587   19.3670 C   0  0  0  0  0  0  0  0  0  0  0  0
  -29.7818  -23.3477   19.6124 C   0  0  0  0  0  0  0  0  0  0  0  0
  -20.5412   -7.6742   28.5462 C   0  0  0  0  0  0  0  0  0  0  0  0
  -20.4022   -6.5213   29.3188 C   0  0  0  0  0  0  0  0  0  0  0  0
  -27.2204  -29.2681   20.0741 C   0  0  0  0  0  0  0  0  0  0  0  0
  -31.8795  -24.3898   19.0199 C   0  0  0  0  0  0  0  0  0  0  0  0
  -22.0810   -7.3442   30.8489 C   0  0  0  0  0  0  0  0  0  0  0  0
  -22.7666   -9.3491   24.2041 C   0  0  0  0  0  0  0  0  0  0  0  0
  -22.6881   -8.2538   21.9015 C   0  0  0  0  0  0  0  0  0  0  0  0
  -19.1089  -32.8015   17.8769 C   0  0  0  0  0  0  0  0  0  0  0  0
  -24.8449  -29.0271   20.4721 C   0  0  0  0  0  0  0  0  0  0  0  0
  -20.2964  -32.0525   17.7706 C   0  0  0  0  0  0  0  0  0  0  0  0
  -26.0203  -29.7829   20.5876 C   0  0  0  0  0  0  0  0  0  0  0  0
  -31.5099  -22.0534   18.5282 C   0  0  0  0  0  0  0  0  0  0  0  0
  -32.3323  -23.1795   18.4946 C   0  0  0  0  0  0  0  0  0  0  0  0
  -31.3870  -19.5385   18.6492 C   0  0  0  0  0  0  0  0  0  0  0  0
  -31.8367  -19.1651   19.9108 C   0  0  0  0  0  0  0  0  0  0  0  0
  -30.3849  -18.8013   18.0282 C   0  0  0  0  0  0  0  0  0  0  0  0
  -21.9737   -9.6565   26.8610 C   0  0  0  0  0  0  0  0  0  0  0  0
  -27.2535  -28.0135   19.4657 C   0  0  0  0  0  0  0  0  0  0  0  0
  -30.6043  -24.4739   19.5788 C   0  0  0  0  0  0  0  0  0  0  0  0
  -21.4502   -8.6622   28.9249 C   0  0  0  0  0  0  0  0  0  0  0  0
  -21.1721   -6.3563   30.4702 C   0  0  0  0  0  0  0  0  0  0  0  0
  -22.2201   -8.4972   30.0763 C   0  0  0  0  0  0  0  0  0  0  0  0
  -23.1760   -9.1911   22.8317 C   0  0  0  0  0  0  0  0  0  0  0  0
  -31.2564  -18.0556   20.5040 C   0  0  0  0  0  0  0  0  0  0  0  0
  -29.8697  -17.7079   18.7056 C   0  0  0  0  0  0  0  0  0  0  0  0
  -23.3922   -8.5132   20.7511 C   0  0  0  0  0  0  0  0  0  0  0  0
  -21.6877   -7.2395   22.0629 C   0  0  0  0  0  0  0  0  0  0  0  0
  -23.3398  -31.7557   19.8448 C   0  0  0  0  0  0  0  0  0  0  0  0
  -24.6266  -32.6650   22.6803 C   0  0  0  0  0  0  0  0  0  0  0  0
  -27.0746  -32.2406   25.0199 C   0  0  0  0  0  0  0  0  0  0  0  0
  -25.9652  -13.4967   18.8409 C   0  0  0  0  0  0  0  0  0  0  0  0
  -19.1075  -34.2164   18.3991 C   0  0  0  0  0  0  0  0  0  0  0  0
  -23.5491  -29.5431   21.0352 C   0  0  0  0  0  0  0  0  0  0  0  0
  -26.0297  -31.1395   21.2417 C   0  0  0  0  0  0  0  0  0  0  0  0
  -20.3673  -34.5781   19.1817 C   0  0  0  0  0  0  0  0  0  0  0  0
  -27.5630  -10.2180   19.2031 C   0  0  0  0  0  0  0  0  0  0  0  0
  -21.6129  -34.1211   18.4290 C   0  0  0  0  0  0  0  0  0  0  0  0
  -26.5879   -9.5200   20.1454 C   0  0  0  0  0  0  0  0  0  0  0  0
  -27.6752  -11.7163   19.4877 C   0  0  0  0  0  0  0  0  0  0  0  0
  -25.3894  -11.7143   20.4501 C   0  0  0  0  0  0  0  0  0  0  0  0
  -26.7563  -15.7112   17.8429 C   0  0  0  0  0  0  0  0  0  0  0  0
  -28.2232  -14.8018   19.0873 C   0  0  0  0  0  0  0  0  0  0  0  0
  -21.6232  -32.5978   18.2528 C   0  0  1  0  0  0  0  0  0  0  0  0
  -23.5176  -31.0628   21.1662 C   0  0  1  0  0  0  0  0  0  0  0  0
  -25.2227  -10.2234   20.1246 C   0  0  2  0  0  0  0  0  0  0  0  0
  -27.8421  -16.2557   18.7778 C   0  0  0  0  0  0  0  0  0  0  0  0
  -33.7017  -23.1130   17.9024 C   0  0  0  0  0  0  0  0  0  0  0  0
  -32.9101  -19.9364   20.6031 C   0  0  0  0  0  0  0  0  0  0  0  0
  -29.8878  -19.1844   16.6732 C   0  0  0  0  0  0  0  0  0  0  0  0
  -32.3083  -16.1927   21.8370 C   0  0  0  0  0  0  0  0  0  0  0  0
  -30.5642  -17.6721   22.8973 C   0  0  0  0  0  0  0  0  0  0  0  0
  -27.8857  -33.1568   27.2108 C   0  0  0  0  0  0  0  0  0  0  0  0
  -25.7833  -35.0905   21.2349 C   0  0  0  0  0  0  0  0  0  0  0  0
  -27.3203  -35.4303   23.1818 C   0  0  0  0  0  0  0  0  0  0  0  0
  -24.8510  -35.5751   23.5043 C   0  0  0  0  0  0  0  0  0  0  0  0
  -26.6898  -29.6413   26.3818 C   0  0  0  0  0  0  0  0  0  0  0  0
  -31.9788  -20.7290   17.9644 C   0  0  0  0  0  0  0  0  0  0  0  0
  -29.6255  -27.9435   19.6214 C   0  0  0  0  0  0  0  0  0  1  0  0
  -30.6688  -26.8498   19.4991 C   0  0  0  0  0  0  0  0  0  0  0  0
  -31.6983  -17.6060   21.8583 C   0  0  0  0  0  0  0  0  0  0  0  0
  -25.9189  -33.3181   23.1074 C   0  0  1  0  0  0  0  0  0  0  0  0
  -27.0123  -32.1136   26.5314 C   0  0  2  0  0  0  0  0  0  0  0  0
  -25.9681  -34.8288   22.7430 C   0  0  0  0  0  0  0  0  0  0  0  0
  -24.1175   -9.9864   22.3168 N   0  0  0  0  0  0  0  0  0  0  0  0
  -30.2810  -17.3147   19.9320 N   0  0  0  0  0  0  0  0  0  0  0  0
  -24.2269   -9.5494   21.0506 N   0  0  0  0  0  0  0  0  0  0  0  0
  -24.7366  -31.6033   21.7712 N   0  0  0  0  0  0  0  0  0  0  0  0
  -26.3582  -12.3608   19.5571 N   0  0  0  0  0  0  0  0  0  0  0  0
  -26.9216  -14.4395   18.5430 N   0  0  0  0  0  0  0  0  0  0  0  0
  -23.3727   -7.9535   19.5228 N   0  0  0  0  0  0  0  0  0  0  0  0
  -21.0632   -7.1095   23.3109 N   0  0  0  0  0  0  0  0  0  0  0  0
  -28.8630  -16.9597   18.0860 N   0  0  0  0  0  0  0  0  0  0  0  0
  -22.0200  -31.9493   19.4842 N   0  0  0  0  0  0  0  0  0  0  0  0
  -26.0640  -33.0422   24.5327 N   0  0  0  0  0  0  0  0  0  0  0  0
  -27.4759  -30.7629   26.9573 N   0  3  0  0  0  0  0  0  0  0  0  0
  -21.3691   -6.4604   21.1329 O   0  0  0  0  0  0  0  0  0  0  0  0
  -24.3270  -32.0912   19.2010 O   0  0  0  0  0  0  0  0  0  0  0  0
  -23.5594  -33.0769   23.1419 O   0  0  0  0  0  0  0  0  0  0  0  0
  -27.9359  -31.6872   24.3400 O   0  0  0  0  0  0  0  0  0  0  0  0
  -24.7885  -13.6814   18.5031 O   0  0  0  0  0  0  0  0  0  0  0  0
  -21.5865   -9.8067   28.1572 O   0  0  0  0  0  0  0  0  0  0  0  0
  -28.4328  -27.5227   18.9703 O   0  0  0  0  0  0  0  0  0  1  0  0
  -30.1628  -25.6547   20.0918 O   0  0  0  0  0  0  0  0  0  0  0  0
  -21.0374   -5.2497   31.2128 F   0  0  0  0  0  0  0  0  0  0  0  0
  -23.0941   -9.4434   30.4458 F   0  0  0  0  0  0  0  0  0  0  0  0
  1  2  1  0  0  0  0
  1  5  2  0  0  0  0
  2  6  2  0  0  0  0
  3  9  2  0  0  0  0
  3 18  1  0  0  0  0
  4 10  1  0  0  0  0
  4 18  2  0  0  0  0
  5 20  1  0  0  0  0
  6 22  1  0  0  0  0
  7 11  2  0  0  0  0
  7 21  1  0  0  0  0
  8 12  2  0  0  0  0
  8 24  1  0  0  0  0
  9 29  1  0  0  0  0
 10 29  2  0  0  0  0
 11 30  1  0  0  0  0
 12 31  1  0  0  0  0
 13 14  2  0  0  0  0
 13 32  1  0  0  0  0
 14 33  1  0  0  0  0
 15 23  1  0  0  0  0
 15 30  2  0  0  0  0
 16 25  1  0  0  0  0
 16 31  2  0  0  0  0
 17 33  2  0  0  0  0
 17 34  1  0  0  0  0
 18 35  1  0  0  0  0
 19 35  1  0  0  0  0
 19 38  2  0  0  0  0
 19 39  1  0  0  0  0
 20 22  2  0  0  0  0
 20 44  1  0  0  0  0
 21 23  2  0  0  0  0
 21 45  1  0  0  0  0
 22 55  1  0  0  0  0
 23 46  1  0  0  0  0
 24 25  2  0  0  0  0
 24 69  1  0  0  0  0
 25 59  1  0  0  0  0
 26 27  2  0  0  0  0
 26 28  1  0  0  0  0
 26 69  1  0  0  0  0
 27 36  1  0  0  0  0
 27 60  1  0  0  0  0
 28 37  2  0  0  0  0
 28 61  1  0  0  0  0
 29 93  1  0  0  0  0
 30 94  1  0  0  0  0
 31 95  1  0  0  0  0
 32 34  2  0  0  0  0
 32 93  1  0  0  0  0
 33 96  1  0  0  0  0
 34 97  1  0  0  0  0
 35 76  2  0  0  0  0
 36 72  1  0  0  0  0
 36 77  2  0  0  0  0
 37 77  1  0  0  0  0
 37 84  1  0  0  0  0
 38 78  1  0  0  0  0
 38 82  1  0  0  0  0
 39 83  1  0  0  0  0
 39 88  2  0  0  0  0
 40 56  1  0  0  0  0
 40 85  1  0  0  0  0
 40 89  2  0  0  0  0
 41 73  1  0  0  0  0
 41 79  1  0  0  0  0
 41 90  2  0  0  0  0
 42 74  1  0  0  0  0
 42 86  1  0  0  0  0
 42 91  2  0  0  0  0
 43 80  1  0  0  0  0
 43 81  1  0  0  0  0
 43 92  2  0  0  0  0
 44 47  1  0  0  0  0
 45 56  1  0  0  0  0
 46 79  1  0  0  0  0
 47 49  1  0  0  0  0
 48 50  1  0  0  0  0
 48 51  1  0  0  0  0
 49 55  1  0  0  0  0
 50 57  1  0  0  0  0
 51 80  1  0  0  0  0
 52 57  1  0  0  0  0
 52 80  1  0  0  0  0
 53 58  1  0  0  0  0
 53 81  1  0  0  0  0
 54 58  1  0  0  0  0
 54 81  1  0  0  0  0
 55 85  1  0  0  0  0
 56 79  1  0  0  0  0
 57 78  1  0  0  0  0
 58 84  1  0  0  0  0
 62 72  1  0  0  0  0
 63 72  1  0  0  0  0
 64 74  1  0  0  0  0
 65 75  1  0  0  0  0
 66 75  1  0  0  0  0
 67 75  1  0  0  0  0
 68 87  1  0  0  0  0
 70 71  1  0  0  0  0
 70 94  1  0  0  0  0
 71 95  1  0  0  0  0
 73 75  1  0  0  0  0
 73 86  1  0  0  0  0
 74 87  1  0  0  0  0
 76 78  1  0  0  0  0
M  CHG  1  87   1
M  ISO  4  43 100  70 101  81 100  94 101
M  END
> <Batch ID>
0153

> <Smiles>
CNC(C)C(=O)NC(C(=O)N1Cc2cc([101O:1][101CH2:1]COc3ccc(Cc4c(C)c(NC5C[100N:0]([100C:0](=O)N6CCCC(n7nc(-c8ccc(Oc9ccc(F)cc9F)cc8)c(C(N)=O)c7N)C6)C5)nc(C(C)C)c4C)c(C)c3)ccc2CC1C(=O)NC1CCCc2ccccc21)C(C)(C)C

> <Shape>
0.265

> <Color>
0.098

> <Negative vol penalty>
0.000

$$$$

  -OEChem-04052321483D

 92102  0     1  0  0  0  0  0999 V2000
  -31.8821  -12.6450   21.7911 C   0  0  0  0  0  0  0  0  0  0  0  0
  -31.1628  -13.6747   22.3890 C   0  0  0  0  0  0  0  0  0  0  0  0
  -22.8419  -27.7241   20.4783 C   0  0  0  0  0  0  0  0  0  0  0  0
  -24.0106  -26.6355   22.2911 C   0  0  0  0  0  0  0  0  0  0  0  0
  -31.3913  -12.0303   20.6399 C   0  0  0  0  0  0  0  0  0  0  0  0
  -29.9527  -14.0912   21.8355 C   0  0  0  0  0  0  0  0  0  0  0  0
  -25.0166  -16.0920   24.8585 C   0  0  0  0  0  0  0  0  0  0  0  0
  -21.6220  -27.3312   21.0287 C   0  0  0  0  0  0  0  0  0  0  0  0
  -22.7906  -26.2426   22.8416 C   0  0  0  0  0  0  0  0  0  0  0  0
  -24.5404  -17.3733   25.1331 C   0  0  0  0  0  0  0  0  0  0  0  0
  -18.1880  -26.9238   22.1499 C   0  0  0  0  0  0  0  0  0  0  0  0
  -17.1687  -27.8739   22.2123 C   0  0  0  0  0  0  0  0  0  0  0  0
  -23.0851  -17.2371   23.2140 C   0  0  0  0  0  0  0  0  0  0  0  0
  -27.3532  -22.3097   22.2847 C   0  0  0  0  0  0  0  0  0  0  0  0
  -18.5630  -29.2787   23.5979 C   0  0  0  0  0  0  0  0  0  0  0  0
  -25.4221  -20.4029   22.0007 C   0  0  0  0  0  0  0  0  0  0  0  0
  -24.0362  -27.3762   21.1094 C   0  0  0  0  0  0  0  0  0  0  0  0
  -26.0031  -28.9710   20.8003 C   0  0  0  0  0  0  0  0  0  0  0  0
  -30.1697  -12.4330   20.0775 C   0  0  0  0  0  0  0  0  0  0  0  0
  -24.5378  -15.3768   23.7514 C   0  0  0  0  0  0  0  0  0  0  0  0
  -29.4456  -13.4823   20.6750 C   0  0  0  0  0  0  0  0  0  0  0  0
  -23.5551  -15.9460   22.9290 C   0  0  0  0  0  0  0  0  0  0  0  0
  -25.1067  -21.5574   22.6989 C   0  0  0  0  0  0  0  0  0  0  0  0
  -21.5963  -26.5905   22.2104 C   0  0  0  0  0  0  0  0  0  0  0  0
  -23.5766  -17.9472   24.3091 C   0  0  0  0  0  0  0  0  0  0  0  0
  -19.3948  -27.1511   22.8115 C   0  0  0  0  0  0  0  0  0  0  0  0
  -26.0962  -22.5241   22.8391 C   0  0  0  0  0  0  0  0  0  0  0  0
  -17.3562  -29.0513   22.9362 C   0  0  0  0  0  0  0  0  0  0  0  0
  -19.5823  -28.3285   23.5355 C   0  0  0  0  0  0  0  0  0  0  0  0
  -25.2967  -27.7812   20.5410 C   0  0  0  0  0  0  0  0  0  0  0  0
  -27.5681  -21.1215   21.6052 C   0  0  0  0  0  0  0  0  0  0  0  0
  -27.1295  -28.8786   20.0198 C   0  0  0  0  0  0  0  0  0  0  0  0
  -25.6708  -30.0620   21.6691 C   0  0  0  0  0  0  0  0  0  0  0  0
  -25.8465  -14.1999   21.1045 C   0  0  0  0  0  0  0  0  0  0  0  0
  -22.8942  -12.9254   20.6778 C   0  0  0  0  0  0  0  0  0  0  0  0
  -19.5500  -13.0760   21.3413 C   0  0  0  0  0  0  0  0  0  0  0  0
  -30.2021  -24.4052   17.7840 C   0  0  0  0  0  0  0  0  0  0  0  0
  -29.7028  -11.7707   18.8055 C   0  0  0  0  0  0  0  0  0  0  0  0
  -25.0423  -13.9852   23.4842 C   0  0  0  0  0  0  0  0  0  0  0  0
  -22.9937  -15.2119   21.7397 C   0  0  0  0  0  0  0  0  0  0  0  0
  -28.2287  -12.0181   18.4955 C   0  0  0  0  0  0  0  0  0  0  0  0
  -28.7398  -26.9528   15.9609 C   0  0  0  0  0  0  0  0  0  0  0  0
  -27.8868  -13.4943   18.6711 C   0  0  0  0  0  0  0  0  0  0  0  0
  -27.7462  -27.5748   16.9400 C   0  0  0  0  0  0  0  0  0  0  0  0
  -30.2806  -18.9632   21.9574 C   0  0  0  0  0  0  0  0  0  0  0  0
  -28.8827  -18.4422   21.7995 C   0  0  0  0  0  0  0  0  0  0  0  0
  -30.9774  -21.5541   20.0108 C   0  0  0  0  0  0  0  0  0  0  0  0
  -28.7383  -25.4341   16.0799 C   0  0  0  0  0  0  0  0  0  0  0  0
  -31.4147  -22.7414   19.1640 C   0  0  0  0  0  0  0  0  0  0  0  0
  -28.0707  -25.5589   18.4633 C   0  0  0  0  0  0  0  0  0  0  0  0
  -28.1167  -13.9455   20.1185 C   0  0  1  0  0  0  0  0  0  0  0  0
  -24.8591  -13.5516   22.0331 C   0  0  1  0  0  0  0  0  0  0  0  0
  -28.0226  -27.0985   18.3760 C   0  0  2  0  0  0  0  0  0  0  0  0
  -29.3706  -19.5590   20.9198 C   0  0  0  0  0  0  0  0  0  0  0  0
  -29.6453  -22.0212   20.5874 C   0  0  1  0  0  0  0  0  0  0  0  0
  -29.0120  -22.8112   19.4337 C   0  0  2  0  0  0  0  0  0  0  0  0
  -28.2510  -21.9562   18.4146 C   0  0  0  0  0  0  0  0  0  0  0  0
  -26.4462  -25.0523   25.3838 C   0  0  0  0  0  0  0  0  0  0  0  0
  -17.3844  -11.9201   20.8205 C   0  0  0  0  0  0  0  0  0  0  0  0
  -22.8756  -14.2122   17.9112 C   0  0  0  0  0  0  0  0  0  0  0  0
  -20.3999  -13.8470   17.8346 C   0  0  0  0  0  0  0  0  0  0  0  0
  -21.9429  -11.8931   17.9894 C   0  0  0  0  0  0  0  0  0  0  0  0
  -19.0841  -12.4152   24.1883 C   0  0  0  0  0  0  0  0  0  0  0  0
  -23.7447  -21.7423   23.2715 C   0  0  0  0  0  0  0  0  0  0  0  0
  -23.6606  -21.5270   24.7919 C   0  0  0  0  0  0  0  0  0  0  0  0
  -26.9552  -24.2922   24.1777 C   0  0  0  0  0  0  0  0  0  0  0  0
  -24.0072  -20.1039   25.2141 C   0  0  0  0  0  0  0  0  0  1  0  0
  -21.6200  -13.3803   20.0082 C   0  0  1  0  0  0  0  0  0  0  0  0
  -18.5611  -12.0109   21.7796 C   0  0  2  0  0  0  0  0  0  0  0  0
  -21.7214  -13.3480   18.4571 C   0  0  0  0  0  0  0  0  0  0  0  0
  -26.6316  -20.1592   21.4483 N   0  0  0  0  0  0  0  0  0  0  0  0
  -25.9219  -26.9911   19.6641 N   0  0  0  0  0  0  0  0  0  0  0  0
  -27.0330  -27.6858   19.3656 N   0  0  0  0  0  0  0  0  0  0  0  0
  -23.5233  -13.8565   21.5164 N   0  0  0  0  0  0  0  0  0  0  0  0
  -28.9817  -25.0030   17.4555 N   0  0  0  0  0  0  0  0  0  0  0  0
  -30.1867  -23.4409   18.7929 N   0  0  0  0  0  0  0  0  0  0  0  0
  -28.1832  -29.7023   19.8361 N   0  0  0  0  0  0  0  0  0  0  0  0
  -24.4759  -29.9954   22.3984 N   0  0  0  0  0  0  0  0  0  0  0  0
  -27.0304  -13.5010   20.9651 N   0  0  0  0  0  0  0  0  0  0  0  0
  -20.5526  -12.5494   20.5547 N   0  0  0  0  0  0  0  0  0  0  0  0
  -28.8417  -20.9198   21.0497 N   0  0  3  0  0  0  0  0  0  0  0  0
  -18.0361  -12.3198   23.1397 N   0  3  0  0  0  0  0  0  0  0  0  0
  -26.4036  -31.0738   21.7825 O   0  0  0  0  0  0  0  0  0  0  0  0
  -25.5553  -15.2553   20.5540 O   0  0  0  0  0  0  0  0  0  0  0  0
  -23.3121  -11.7836   20.4701 O   0  0  0  0  0  0  0  0  0  0  0  0
  -19.4417  -14.2577   21.6614 O   0  0  0  0  0  0  0  0  0  0  0  0
  -31.2438  -24.6926   17.1813 O   0  0  0  0  0  0  0  0  0  0  0  0
  -20.4061  -26.2072   22.7480 O   0  0  0  0  0  0  0  0  0  0  0  0
  -23.1072  -19.2067   24.5764 O   0  0  0  0  0  0  0  0  0  1  0  0
  -25.8506  -23.6817   23.5130 O   0  0  0  0  0  0  0  0  0  0  0  0
  -16.3778  -29.9643   22.9948 F   0  0  0  0  0  0  0  0  0  0  0  0
  -20.7399  -28.5530   24.1722 F   0  0  0  0  0  0  0  0  0  0  0  0
  1  2  1  0  0  0  0
  1  5  2  0  0  0  0
  2  6  2  0  0  0  0
  3  8  2  0  0  0  0
  3 17  1  0  0  0  0
  4  9  1  0  0  0  0
  4 17  2  0  0  0  0
  5 19  1  0  0  0  0
  6 21  1  0  0  0  0
  7 10  2  0  0  0  0
  7 20  1  0  0  0  0
  8 24  1  0  0  0  0
  9 24  2  0  0  0  0
 10 25  1  0  0  0  0
 11 12  2  0  0  0  0
 11 26  1  0  0  0  0
 12 28  1  0  0  0  0
 13 22  1  0  0  0  0
 13 25  2  0  0  0  0
 14 27  1  0  0  0  0
 14 31  2  0  0  0  0
 15 28  2  0  0  0  0
 15 29  1  0  0  0  0
 16 23  1  0  0  0  0
 16 71  2  0  0  0  0
 17 30  1  0  0  0  0
 18 30  1  0  0  0  0
 18 32  2  0  0  0  0
 18 33  1  0  0  0  0
 19 21  2  0  0  0  0
 19 38  1  0  0  0  0
 20 22  2  0  0  0  0
 20 39  1  0  0  0  0
 21 51  1  0  0  0  0
 22 40  1  0  0  0  0
 23 27  2  0  0  0  0
 23 64  1  0  0  0  0
 24 88  1  0  0  0  0
 25 89  1  0  0  0  0
 26 29  2  0  0  0  0
 26 88  1  0  0  0  0
 27 90  1  0  0  0  0
 28 91  1  0  0  0  0
 29 92  1  0  0  0  0
 30 72  2  0  0  0  0
 31 71  1  0  0  0  0
 31 81  1  0  0  0  0
 32 73  1  0  0  0  0
 32 77  1  0  0  0  0
 33 78  1  0  0  0  0
 33 83  2  0  0  0  0
 34 52  1  0  0  0  0
 34 79  1  0  0  0  0
 34 84  2  0  0  0  0
 35 68  1  0  0  0  0
 35 74  1  0  0  0  0
 35 85  2  0  0  0  0
 36 69  1  0  0  0  0
 36 80  1  0  0  0  0
 36 86  2  0  0  0  0
 37 75  1  0  0  0  0
 37 76  1  0  0  0  0
 37 87  2  0  0  0  0
 38 41  1  0  0  0  0
 39 52  1  0  0  0  0
 40 74  1  0  0  0  0
 41 43  1  0  0  0  0
 42 44  1  0  0  0  0
 42 48  1  0  0  0  0
 43 51  1  0  0  0  0
 44 53  1  0  0  0  0
 45 46  1  0  0  0  0
 45 54  1  0  0  0  0
 46 54  1  0  0  0  0
 47 49  1  0  0  0  0
 47 55  1  0  0  0  0
 48 75  1  0  0  0  0
 49 76  1  0  0  0  0
 50 53  1  0  0  0  0
 50 75  1  0  0  0  0
 51 79  1  0  0  0  0
 52 74  1  0  0  0  0
 53 73  1  0  0  0  0
 54 81  1  0  0  0  0
 55 56  1  0  0  0  0
 55 81  1  0  0  0  0
 56 57  1  0  0  0  0
 56 76  1  0  0  0  0
 58 66  1  0  0  0  0
 59 69  1  0  0  0  0
 60 70  1  0  0  0  0
 61 70  1  0  0  0  0
 62 70  1  0  0  0  0
 63 82  1  0  0  0  0
 64 65  1  0  0  0  0
 65 67  1  0  0  0  0
 66 90  1  0  0  0  0
 67 89  1  0  0  0  0
 68 70  1  0  0  0  0
 68 80  1  0  0  0  0
 69 82  1  0  0  0  0
 72 73  1  0  0  0  0
M  CHG  1  82   1
M  ISO  4  37 100  67 101  76 100  89 101
M  END
> <Batch ID>
0153

> <Smiles>
CCOc1cc(N(C2CC2)C2CC[100N:0]([100C:0](=O)N3CCCC(n4nc(-c5ccc(Oc6ccc(F)cc6F)cc5)c(C(N)=O)c4N)C3)C2C)ncc1CC[101CH2:1][101O:1]c1ccc2c(c1)CN(C(=O)C(NC(=O)C(C)NC)C(C)(C)C)C(C(=O)NC1CCCc3ccccc31)C2

> <Shape>
0.272

> <Color>
0.061

> <Negative vol penalty>
0.000

$$$$

  -OEChem-04052321483D

 85 94  0     1  0  0  0  0  0999 V2000
  -17.2521  -32.0944   20.7492 C   0  0  0  0  0  0  0  0  0  0  0  0
  -18.5606  -31.6577   20.5688 C   0  0  0  0  0  0  0  0  0  0  0  0
  -25.5449  -15.4841   21.6419 C   0  0  0  0  0  0  0  0  0  0  0  0
  -24.8708  -16.5076   19.5597 C   0  0  0  0  0  0  0  0  0  0  0  0
  -16.4715  -31.5513   21.7688 C   0  0  0  0  0  0  0  0  0  0  0  0
  -19.0896  -30.6783   21.4086 C   0  0  0  0  0  0  0  0  0  0  0  0
  -21.6441  -27.1169   18.8717 C   0  0  0  0  0  0  0  0  0  0  0  0
  -30.9346  -30.0021   17.5569 C   0  0  0  0  0  0  0  0  0  0  0  0
  -24.3153  -14.8300   21.7184 C   0  0  0  0  0  0  0  0  0  0  0  0
  -23.6412  -15.8535   19.6363 C   0  0  0  0  0  0  0  0  0  0  0  0
  -22.9325  -27.4383   18.4469 C   0  0  0  0  0  0  0  0  0  0  0  0
  -29.6020  -29.6318   17.4028 C   0  0  0  0  0  0  0  0  0  0  0  0
  -22.8484  -12.1140   20.3383 C   0  0  0  0  0  0  0  0  0  0  0  0
  -22.8534  -10.7627   20.6840 C   0  0  0  0  0  0  0  0  0  0  0  0
  -23.8463  -26.2318   20.3254 C   0  0  0  0  0  0  0  0  0  0  0  0
  -21.4980  -11.2538   22.6228 C   0  0  0  0  0  0  0  0  0  0  0  0
  -25.8226  -16.3229   20.5625 C   0  0  0  0  0  0  0  0  0  0  0  0
  -28.2694  -16.5289   19.8707 C   0  0  0  0  0  0  0  0  0  0  0  0
  -16.9880  -30.5577   22.6154 C   0  0  0  0  0  0  0  0  0  0  0  0
  -21.4465  -26.3585   20.0345 C   0  0  0  0  0  0  0  0  0  0  0  0
  -18.3156  -30.1223   22.4413 C   0  0  0  0  0  0  0  0  0  0  0  0
  -22.5545  -25.8999   20.7614 C   0  0  0  0  0  0  0  0  0  0  0  0
  -31.3275  -28.0419   18.9393 C   0  0  0  0  0  0  0  0  0  0  0  0
  -29.9856  -27.6564   18.7662 C   0  0  0  0  0  0  0  0  0  0  0  0
  -31.7937  -29.2107   18.3185 C   0  0  0  0  0  0  0  0  0  0  0  0
  -23.3635  -15.0147   20.7156 C   0  0  0  0  0  0  0  0  0  0  0  0
  -24.0338  -26.9982   19.1754 C   0  0  0  0  0  0  0  0  0  0  0  0
  -29.1287  -28.4671   18.0059 C   0  0  0  0  0  0  0  0  0  0  0  0
  -22.1683  -13.0352   21.1349 C   0  0  0  0  0  0  0  0  0  0  0  0
  -22.1782  -10.3326   21.8263 C   0  0  0  0  0  0  0  0  0  0  0  0
  -21.4931  -12.6051   22.2771 C   0  0  0  0  0  0  0  0  0  0  0  0
  -27.0924  -16.9993   20.4832 C   0  0  0  0  0  0  0  0  0  0  0  0
  -29.1844  -17.5341   20.0677 C   0  0  0  0  0  0  0  0  0  0  0  0
  -28.5137  -15.2937   19.1849 C   0  0  0  0  0  0  0  0  0  0  0  0
  -20.0228  -26.8685   22.8304 C   0  0  0  0  0  0  0  0  0  0  0  0
  -20.6945  -23.7305   23.3035 C   0  0  0  0  0  0  0  0  0  0  0  0
  -22.6386  -21.0349   22.5283 C   0  0  0  0  0  0  0  0  0  0  0  0
  -29.4370  -23.2209   20.1567 C   0  0  0  0  0  0  0  0  0  0  0  0
  -16.1216  -30.0344   23.7335 C   0  0  0  0  0  0  0  0  0  0  0  0
  -20.0511  -25.9976   20.4646 C   0  0  0  0  0  0  0  0  0  0  0  0
  -32.2961  -27.1957   19.7265 C   0  0  0  0  0  0  0  0  0  0  0  0
  -29.4260  -26.4218   19.4312 C   0  0  0  0  0  0  0  0  0  0  0  0
  -22.3967  -25.0657   22.0054 C   0  0  0  0  0  0  0  0  0  0  0  0
  -16.6344  -28.7321   24.3429 C   0  0  0  0  0  0  0  0  0  0  0  0
  -31.6101  -26.1851   20.6458 C   0  0  0  0  0  0  0  0  0  0  0  0
  -29.5818  -21.3151   23.2299 C   0  0  0  0  0  0  0  0  0  0  0  0
  -18.1325  -28.8238   24.6153 C   0  0  0  0  0  0  0  0  0  0  0  0
  -29.0648  -19.9518   22.7670 C   0  0  0  0  0  0  0  0  0  0  0  0
  -28.8412  -22.4528   22.5332 C   0  0  0  0  0  0  0  0  0  0  0  0
  -28.3603  -21.0291   20.5799 C   0  0  0  0  0  0  0  0  0  0  0  0
  -18.9170  -29.0438   23.3162 C   0  0  1  0  0  0  0  0  0  0  0  0
  -19.9529  -25.6545   21.9478 C   0  0  1  0  0  0  0  0  0  0  0  0
  -29.0848  -19.8370   21.2312 C   0  0  2  0  0  0  0  0  0  0  0  0
  -30.5108  -25.4418   19.8887 C   0  0  1  0  0  0  0  0  0  0  0  0
  -33.2199  -29.6456   18.4389 C   0  0  0  0  0  0  0  0  0  0  0  0
  -22.9725  -18.6157   23.1056 C   0  0  0  0  0  0  0  0  0  0  0  0
  -22.0493  -24.5429   25.9139 C   0  0  0  0  0  0  0  0  0  0  0  0
  -23.1585  -22.2987   25.9556 C   0  0  0  0  0  0  0  0  0  0  0  0
  -20.6713  -22.4609   26.0577 C   0  0  0  0  0  0  0  0  0  0  0  0
  -22.0614  -20.1738   19.7563 C   0  0  0  0  0  0  0  0  0  0  0  0
  -25.4580  -28.5397   18.0568 C   0  0  0  0  0  0  0  0  0  1  0  0
  -26.8515  -29.0775   18.3183 C   0  0  0  0  0  0  0  0  0  0  0  0
  -21.8577  -22.9616   23.8820 C   0  0  1  0  0  0  0  0  0  0  0  0
  -22.2803  -19.6020   22.1778 C   0  0  2  0  0  0  0  0  0  0  0  0
  -21.9375  -23.0834   25.4300 C   0  0  0  0  0  0  0  0  0  0  0  0
  -27.2431  -18.2092   21.0286 N   0  0  0  0  0  0  0  0  0  0  0  0
  -28.5256  -18.5075   20.7595 N   0  0  0  0  0  0  0  0  0  0  0  0
  -21.0120  -24.7445   22.3888 N   0  0  0  0  0  0  0  0  0  0  0  0
  -28.9141  -22.2942   21.0739 N   0  0  0  0  0  0  0  0  0  0  0  0
  -30.4802  -17.6714   19.7149 N   0  0  0  0  0  0  0  0  0  0  0  0
  -27.4634  -14.3725   19.0730 N   0  0  0  0  0  0  0  0  0  0  0  0
  -19.0357  -27.8029   22.5811 N   0  0  0  0  0  0  0  0  0  0  0  0
  -21.7239  -21.5924   23.3965 N   0  0  0  0  0  0  0  0  0  0  0  0
  -29.9352  -24.3964   20.7053 N   0  0  0  0  0  0  0  0  0  0  0  0
  -22.6865  -19.2942   20.7774 N   0  3  0  0  0  0  0  0  0  0  0  0
  -29.6350  -15.0081   18.7005 O   0  0  0  0  0  0  0  0  0  0  0  0
  -20.9060  -26.9508   23.6759 O   0  0  0  0  0  0  0  0  0  0  0  0
  -19.5460  -23.4373   23.6450 O   0  0  0  0  0  0  0  0  0  0  0  0
  -23.6328  -21.6017   22.0800 O   0  0  0  0  0  0  0  0  0  0  0  0
  -29.4631  -23.0139   18.9387 O   0  0  0  0  0  0  0  0  0  0  0  0
  -22.1636  -14.3764   20.7899 O   0  0  0  0  0  0  0  0  0  0  0  0
  -25.2925  -27.3110   18.7633 O   0  0  0  0  0  0  0  0  0  1  0  0
  -27.8086  -28.1387   17.8429 O   0  0  0  0  0  0  0  0  0  0  0  0
  -22.1818   -9.0347   22.1573 F   0  0  0  0  0  0  0  0  0  0  0  0
  -20.8369  -13.4853   23.0456 F   0  0  0  0  0  0  0  0  0  0  0  0
  1  2  1  0  0  0  0
  1  5  2  0  0  0  0
  2  6  2  0  0  0  0
  3  9  2  0  0  0  0
  3 17  1  0  0  0  0
  4 10  1  0  0  0  0
  4 17  2  0  0  0  0
  5 19  1  0  0  0  0
  6 21  1  0  0  0  0
  7 11  2  0  0  0  0
  7 20  1  0  0  0  0
  8 12  2  0  0  0  0
  8 25  1  0  0  0  0
  9 26  1  0  0  0  0
 10 26  2  0  0  0  0
 11 27  1  0  0  0  0
 12 28  1  0  0  0  0
 13 14  2  0  0  0  0
 13 29  1  0  0  0  0
 14 30  1  0  0  0  0
 15 22  1  0  0  0  0
 15 27  2  0  0  0  0
 16 30  2  0  0  0  0
 16 31  1  0  0  0  0
 17 32  1  0  0  0  0
 18 32  1  0  0  0  0
 18 33  2  0  0  0  0
 18 34  1  0  0  0  0
 19 21  2  0  0  0  0
 19 39  1  0  0  0  0
 20 22  2  0  0  0  0
 20 40  1  0  0  0  0
 21 51  1  0  0  0  0
 22 43  1  0  0  0  0
 23 24  1  0  0  0  0
 23 25  2  0  0  0  0
 23 41  1  0  0  0  0
 24 28  2  0  0  0  0
 24 42  1  0  0  0  0
 25 55  1  0  0  0  0
 26 81  1  0  0  0  0
 27 82  1  0  0  0  0
 28 83  1  0  0  0  0
 29 31  2  0  0  0  0
 29 81  1  0  0  0  0
 30 84  1  0  0  0  0
 31 85  1  0  0  0  0
 32 66  2  0  0  0  0
 33 67  1  0  0  0  0
 33 70  1  0  0  0  0
 34 71  1  0  0  0  0
 34 76  2  0  0  0  0
 35 52  1  0  0  0  0
 35 72  1  0  0  0  0
 35 77  2  0  0  0  0
 36 63  1  0  0  0  0
 36 68  1  0  0  0  0
 36 78  2  0  0  0  0
 37 64  1  0  0  0  0
 37 73  1  0  0  0  0
 37 79  2  0  0  0  0
 38 69  1  0  0  0  0
 38 74  1  0  0  0  0
 38 80  2  0  0  0  0
 39 44  1  0  0  0  0
 40 52  1  0  0  0  0
 41 45  1  0  0  0  0
 42 54  1  0  0  0  0
 43 68  1  0  0  0  0
 44 47  1  0  0  0  0
 45 54  1  0  0  0  0
 46 48  1  0  0  0  0
 46 49  1  0  0  0  0
 47 51  1  0  0  0  0
 48 53  1  0  0  0  0
 49 69  1  0  0  0  0
 50 53  1  0  0  0  0
 50 69  1  0  0  0  0
 51 72  1  0  0  0  0
 52 68  1  0  0  0  0
 53 67  1  0  0  0  0
 54 74  1  0  0  0  0
 56 64  1  0  0  0  0
 57 65  1  0  0  0  0
 58 65  1  0  0  0  0
 59 65  1  0  0  0  0
 60 75  1  0  0  0  0
 61 62  1  0  0  0  0
 61 82  1  0  0  0  0
 62 83  1  0  0  0  0
 63 65  1  0  0  0  0
 63 73  1  0  0  0  0
 64 75  1  0  0  0  0
 66 67  1  0  0  0  0
M  CHG  1  75   1
M  ISO  4  38 100  61 101  74 100  82 101
M  END
> <Batch ID>
0153

> <Smiles>
CNC(C)C(=O)NC(C(=O)N1Cc2cc([101O:1][101CH2:1]COc3ccc(C)c4c3CC([100NH:0][100C:0](=O)N3CCCC(n5nc(-c6ccc(Oc7ccc(F)cc7F)cc6)c(C(N)=O)c5N)C3)CC4)ccc2CC1C(=O)NC1CCCc2ccccc21)C(C)(C)C

> <Shape>
0.215

> <Color>
0.067

> <Negative vol penalty>
0.000

$$$$

  -OEChem-04052321483D

 86 95  0     1  0  0  0  0  0999 V2000
  -19.4189  -28.4240   22.9324 C   0  0  0  0  0  0  0  0  0  0  0  0
  -20.7095  -27.9051   22.9559 C   0  0  0  0  0  0  0  0  0  0  0  0
  -23.3288   -9.7853   19.9522 C   0  0  0  0  0  0  0  0  0  0  0  0
  -23.6717  -10.0452   22.3295 C   0  0  0  0  0  0  0  0  0  0  0  0
  -18.3403  -27.5937   22.6307 C   0  0  0  0  0  0  0  0  0  0  0  0
  -20.9221  -26.5552   22.6787 C   0  0  0  0  0  0  0  0  0  0  0  0
  -25.7367  -24.1027   19.7959 C   0  0  0  0  0  0  0  0  0  0  0  0
  -22.6065   -8.6149   20.1843 C   0  0  0  0  0  0  0  0  0  0  0  0
  -22.9493   -8.8748   22.5617 C   0  0  0  0  0  0  0  0  0  0  0  0
  -26.8924  -23.4789   20.2640 C   0  0  0  0  0  0  0  0  0  0  0  0
  -30.3058  -18.8515   23.9438 C   0  0  0  0  0  0  0  0  0  0  0  0
  -30.6881  -17.5538   24.2834 C   0  0  0  0  0  0  0  0  0  0  0  0
  -20.3648   -5.7531   20.1740 C   0  0  0  0  0  0  0  0  0  0  0  0
  -19.1691   -5.5799   19.4768 C   0  0  0  0  0  0  0  0  0  0  0  0
  -25.8458  -21.3266   19.9623 C   0  0  0  0  0  0  0  0  0  0  0  0
  -28.0176  -18.1145   23.7032 C   0  0  0  0  0  0  0  0  0  0  0  0
  -18.2914   -7.5940   20.4819 C   0  0  0  0  0  0  0  0  0  0  0  0
  -23.8615  -10.5005   21.0248 C   0  0  0  0  0  0  0  0  0  0  0  0
  -24.1024  -13.0212   20.7153 C   0  0  0  0  0  0  0  0  0  0  0  0
  -18.5409  -26.2350   22.3402 C   0  0  0  0  0  0  0  0  0  0  0  0
  -24.6211  -23.3422   19.4171 C   0  0  0  0  0  0  0  0  0  0  0  0
  -19.8451  -25.7055   22.3741 C   0  0  0  0  0  0  0  0  0  0  0  0
  -24.6780  -21.9430   19.4873 C   0  0  0  0  0  0  0  0  0  0  0  0
  -28.3999  -16.8167   24.0427 C   0  0  0  0  0  0  0  0  0  0  0  0
  -22.4167   -8.1597   21.4890 C   0  0  0  0  0  0  0  0  0  0  0  0
  -26.9460  -22.0908   20.3500 C   0  0  0  0  0  0  0  0  0  0  0  0
  -28.9705  -19.1319   23.6537 C   0  0  0  0  0  0  0  0  0  0  0  0
  -29.7352  -16.5364   24.3328 C   0  0  0  0  0  0  0  0  0  0  0  0
  -20.5237   -6.8467   21.0251 C   0  0  0  0  0  0  0  0  0  0  0  0
  -18.1324   -6.5004   19.6308 C   0  0  0  0  0  0  0  0  0  0  0  0
  -19.4870   -7.7672   21.1790 C   0  0  0  0  0  0  0  0  0  0  0  0
  -24.6083  -11.7093   20.7856 C   0  0  0  0  0  0  0  0  0  0  0  0
  -25.2058  -13.8020   20.4717 C   0  0  0  0  0  0  0  0  0  0  0  0
  -22.7557  -13.4919   20.8577 C   0  0  0  0  0  0  0  0  0  0  0  0
  -21.6156  -23.1127   20.4260 C   0  0  0  0  0  0  0  0  0  0  0  0
  -21.3102  -21.1652   17.8498 C   0  0  0  0  0  0  0  0  0  0  0  0
  -22.8096  -19.0929   15.5906 C   0  0  0  0  0  0  0  0  0  0  0  0
  -31.0430  -13.0747   21.5894 C   0  0  0  0  0  0  0  0  0  0  0  0
  -17.3389  -25.3662   22.0660 C   0  0  0  0  0  0  0  0  0  0  0  0
  -23.3915  -24.0290   18.8890 C   0  0  0  0  0  0  0  0  0  0  0  0
  -23.5148  -21.0802   19.0738 C   0  0  0  0  0  0  0  0  0  0  0  0
  -17.6888  -24.0297   21.4166 C   0  0  0  0  0  0  0  0  0  0  0  0
  -29.5250  -13.6448   18.4196 C   0  0  0  0  0  0  0  0  0  0  0  0
  -26.1561  -15.9289   24.9653 C   0  0  0  0  0  0  0  0  0  0  0  0
  -27.2071  -14.9372   25.3553 C   0  0  0  0  0  0  0  0  0  0  0  0
  -18.8627  -23.3763   22.1390 C   0  0  0  0  0  0  0  0  0  0  0  0
  -28.0471  -13.3318   18.6602 C   0  0  0  0  0  0  0  0  0  0  0  0
  -30.4361  -12.7126   19.2151 C   0  0  0  0  0  0  0  0  0  0  0  0
  -28.6779  -12.3459   20.9027 C   0  0  0  0  0  0  0  0  0  0  0  0
  -27.3677  -15.7400   24.0916 C   0  0  0  0  0  0  0  0  0  0  0  0
  -20.1188  -24.2519   22.0547 C   0  0  1  0  0  0  0  0  0  0  0  0
  -22.1311  -23.1790   19.0162 C   0  0  1  0  0  0  0  0  0  0  0  0
  -27.7193  -13.2962   20.1650 C   0  0  2  0  0  0  0  0  0  0  0  0
  -22.2952  -17.6166   13.6277 C   0  0  0  0  0  0  0  0  0  0  0  0
  -20.1812  -19.0514   19.7386 C   0  0  0  0  0  0  0  0  0  0  0  0
  -20.5797  -17.3428   17.9525 C   0  0  0  0  0  0  0  0  0  0  0  0
  -18.9975  -19.2274   17.5426 C   0  0  0  0  0  0  0  0  0  0  0  0
  -24.5351  -20.6877   13.7911 C   0  0  0  0  0  0  0  0  0  0  0  0
  -31.4944  -13.4109   24.0065 C   0  0  0  0  0  0  0  0  0  0  0  0
  -31.4576  -14.8966   24.3169 C   0  0  0  0  0  0  0  0  0  0  0  0
  -28.8627  -22.1977   21.7540 C   0  0  0  0  0  0  0  0  0  1  0  0
  -29.5684  -21.2089   22.6615 C   0  0  0  0  0  0  0  0  0  0  0  0
  -21.4831  -19.6863   17.6012 C   0  0  1  0  0  0  0  0  0  0  0  0
  -22.7079  -19.0092   14.0783 C   0  0  2  0  0  0  0  0  0  0  0  0
  -20.3318  -18.8430   18.2184 C   0  0  0  0  0  0  0  0  0  0  0  0
  -25.9301  -11.6558   20.6013 N   0  0  0  0  0  0  0  0  0  0  0  0
  -26.2642  -12.9438   20.4127 N   0  0  0  0  0  0  0  0  0  0  0  0
  -22.3328  -21.7989   18.5700 N   0  0  0  0  0  0  0  0  0  0  0  0
  -30.0737  -12.7262   20.6344 N   0  0  0  0  0  0  0  0  0  0  0  0
  -25.3642  -15.1321   20.3041 N   0  0  0  0  0  0  0  0  0  0  0  0
  -21.7431  -12.5550   21.1054 N   0  0  0  0  0  0  0  0  0  0  0  0
  -20.7354  -24.1270   20.7514 N   0  0  0  0  0  0  0  0  0  0  0  0
  -21.6314  -19.5295   16.1584 N   0  0  0  0  0  0  0  0  0  0  0  0
  -30.6146  -13.0687   22.9112 N   0  0  0  0  0  0  0  0  0  0  0  0
  -24.0201  -19.3362   13.4520 N   0  3  0  0  0  0  0  0  0  0  0  0
  -22.4566  -14.7055   20.7516 O   0  0  0  0  0  0  0  0  0  0  0  0
  -21.9875  -22.2074   21.1634 O   0  0  0  0  0  0  0  0  0  0  0  0
  -20.3084  -21.7385   17.4147 O   0  0  0  0  0  0  0  0  0  0  0  0
  -23.8309  -18.7968   16.2069 O   0  0  0  0  0  0  0  0  0  0  0  0
  -32.2028  -13.3745   21.2860 O   0  0  0  0  0  0  0  0  0  0  0  0
  -21.7117   -7.0177   21.7160 O   0  0  0  0  0  0  0  0  0  0  0  0
  -28.0726  -21.4795   20.8072 O   0  0  0  0  0  0  0  0  0  1  0  0
  -28.5958  -20.4069   23.3204 O   0  0  0  0  0  0  0  0  0  0  0  0
  -30.1276  -15.2747   24.6660 O   0  0  0  0  0  0  0  0  0  0  0  0
  -16.9849   -6.3348   18.9600 F   0  0  0  0  0  0  0  0  0  0  0  0
  -19.6343   -8.8204   21.9944 F   0  0  0  0  0  0  0  0  0  0  0  0
  1  2  1  0  0  0  0
  1  5  2  0  0  0  0
  2  6  2  0  0  0  0
  3  8  2  0  0  0  0
  3 18  1  0  0  0  0
  4  9  1  0  0  0  0
  4 18  2  0  0  0  0
  5 20  1  0  0  0  0
  6 22  1  0  0  0  0
  7 10  2  0  0  0  0
  7 21  1  0  0  0  0
  8 25  1  0  0  0  0
  9 25  2  0  0  0  0
 10 26  1  0  0  0  0
 11 12  2  0  0  0  0
 11 27  1  0  0  0  0
 12 28  1  0  0  0  0
 13 14  2  0  0  0  0
 13 29  1  0  0  0  0
 14 30  1  0  0  0  0
 15 23  1  0  0  0  0
 15 26  2  0  0  0  0
 16 24  1  0  0  0  0
 16 27  2  0  0  0  0
 17 30  2  0  0  0  0
 17 31  1  0  0  0  0
 18 32  1  0  0  0  0
 19 32  1  0  0  0  0
 19 33  2  0  0  0  0
 19 34  1  0  0  0  0
 20 22  2  0  0  0  0
 20 39  1  0  0  0  0
 21 23  2  0  0  0  0
 21 40  1  0  0  0  0
 22 51  1  0  0  0  0
 23 41  1  0  0  0  0
 24 28  2  0  0  0  0
 24 50  1  0  0  0  0
 25 81  1  0  0  0  0
 26 82  1  0  0  0  0
 27 83  1  0  0  0  0
 28 84  1  0  0  0  0
 29 31  2  0  0  0  0
 29 81  1  0  0  0  0
 30 85  1  0  0  0  0
 31 86  1  0  0  0  0
 32 66  2  0  0  0  0
 33 67  1  0  0  0  0
 33 70  1  0  0  0  0
 34 71  1  0  0  0  0
 34 76  2  0  0  0  0
 35 52  1  0  0  0  0
 35 72  1  0  0  0  0
 35 77  2  0  0  0  0
 36 63  1  0  0  0  0
 36 68  1  0  0  0  0
 36 78  2  0  0  0  0
 37 64  1  0  0  0  0
 37 73  1  0  0  0  0
 37 79  2  0  0  0  0
 38 69  1  0  0  0  0
 38 74  1  0  0  0  0
 38 80  2  0  0  0  0
 39 42  1  0  0  0  0
 40 52  1  0  0  0  0
 41 68  1  0  0  0  0
 42 46  1  0  0  0  0
 43 47  1  0  0  0  0
 43 48  1  0  0  0  0
 44 45  1  0  0  0  0
 44 50  1  0  0  0  0
 45 50  1  0  0  0  0
 46 51  1  0  0  0  0
 47 53  1  0  0  0  0
 48 69  1  0  0  0  0
 49 53  1  0  0  0  0
 49 69  1  0  0  0  0
 51 72  1  0  0  0  0
 52 68  1  0  0  0  0
 53 67  1  0  0  0  0
 54 64  1  0  0  0  0
 55 65  1  0  0  0  0
 56 65  1  0  0  0  0
 57 65  1  0  0  0  0
 58 75  1  0  0  0  0
 59 60  1  0  0  0  0
 59 74  1  0  0  0  0
 60 84  1  0  0  0  0
 61 62  1  0  0  0  0
 61 82  1  0  0  0  0
 62 83  1  0  0  0  0
 63 65  1  0  0  0  0
 63 73  1  0  0  0  0
 64 75  1  0  0  0  0
 66 67  1  0  0  0  0
M  CHG  1  75   1
M  ISO  4  38 100  61 101  74 100  82 101
M  END
> <Batch ID>
0153

> <Smiles>
CNC(C)C(=O)NC(C(=O)N1Cc2cc([101O:1][101CH2:1]COc3ccc(OCC[100NH:0][100C:0](=O)N4CCCC(n5nc(-c6ccc(Oc7ccc(F)cc7F)cc6)c(C(N)=O)c5N)C4)c(C4CC4)c3)ccc2CC1C(=O)NC1CCCc2ccccc21)C(C)(C)C

> <Shape>
0.183

> <Color>
0.188

> <Negative vol penalty>
0.000

$$$$

  -OEChem-04052321483D

 87 96  0     1  0  0  0  0  0999 V2000
  -30.8176  -11.2029   18.3855 C   0  0  0  0  0  0  0  0  0  0  0  0
  -30.7328  -12.3919   19.1029 C   0  0  0  0  0  0  0  0  0  0  0  0
  -22.8391  -28.6528   20.4431 C   0  0  0  0  0  0  0  0  0  0  0  0
  -23.6708  -26.4302   20.8965 C   0  0  0  0  0  0  0  0  0  0  0  0
  -29.6676  -10.6391   17.8345 C   0  0  0  0  0  0  0  0  0  0  0  0
  -29.4981  -13.0183   19.2688 C   0  0  0  0  0  0  0  0  0  0  0  0
  -27.5962  -16.1685   24.1642 C   0  0  0  0  0  0  0  0  0  0  0  0
  -21.5367  -28.2140   20.6811 C   0  0  0  0  0  0  0  0  0  0  0  0
  -22.3683  -25.9914   21.1346 C   0  0  0  0  0  0  0  0  0  0  0  0
  -27.5503  -17.5341   24.4410 C   0  0  0  0  0  0  0  0  0  0  0  0
  -18.0287  -27.7644   21.5220 C   0  0  0  0  0  0  0  0  0  0  0  0
  -17.2076  -28.5688   22.3121 C   0  0  0  0  0  0  0  0  0  0  0  0
  -25.2449  -17.5940   23.7334 C   0  0  0  0  0  0  0  0  0  0  0  0
  -18.7612  -28.3498   24.1494 C   0  0  0  0  0  0  0  0  0  0  0  0
  -23.9062  -27.7609   20.5507 C   0  0  0  0  0  0  0  0  0  0  0  0
  -25.9483  -29.2242   20.9934 C   0  0  0  0  0  0  0  0  0  0  0  0
  -28.4167  -11.2538   18.0019 C   0  0  0  0  0  0  0  0  0  0  0  0
  -26.4681  -15.5064   23.6587 C   0  0  0  0  0  0  0  0  0  0  0  0
  -28.3305  -12.4628   18.7183 C   0  0  0  0  0  0  0  0  0  0  0  0
  -25.2783  -16.2194   23.4534 C   0  0  0  0  0  0  0  0  0  0  0  0
  -21.3012  -26.8833   21.0269 C   0  0  0  0  0  0  0  0  0  0  0  0
  -26.3755  -18.2477   24.2229 C   0  0  0  0  0  0  0  0  0  0  0  0
  -19.2160  -27.2526   22.0455 C   0  0  0  0  0  0  0  0  0  0  0  0
  -17.5739  -28.8615   23.6259 C   0  0  0  0  0  0  0  0  0  0  0  0
  -19.5823  -27.5454   23.3592 C   0  0  0  0  0  0  0  0  0  0  0  0
  -25.2518  -28.2134   20.3043 C   0  0  0  0  0  0  0  0  0  0  0  0
  -27.1778  -29.2712   20.3832 C   0  0  0  0  0  0  0  0  0  0  0  0
  -25.5219  -30.0471   22.0874 C   0  0  0  0  0  0  0  0  0  0  0  0
  -25.8036  -13.9349   20.9768 C   0  0  0  0  0  0  0  0  0  0  0  0
  -23.0218  -13.2787   22.5107 C   0  0  0  0  0  0  0  0  0  0  0  0
  -20.7587  -14.1575   24.9093 C   0  0  0  0  0  0  0  0  0  0  0  0
  -30.4420  -25.4121   17.4059 C   0  0  0  0  0  0  0  0  0  0  0  0
  -27.2087  -10.6316   17.3476 C   0  0  0  0  0  0  0  0  0  0  0  0
  -26.5258  -14.0275   23.3905 C   0  0  0  0  0  0  0  0  0  0  0  0
  -24.0335  -15.5513   22.9313 C   0  0  0  0  0  0  0  0  0  0  0  0
  -25.8828  -11.1615   17.8876 C   0  0  0  0  0  0  0  0  0  0  0  0
  -29.3234  -28.4502   16.1925 C   0  0  0  0  0  0  0  0  0  0  0  0
  -25.9127  -12.6840   17.9759 C   0  0  0  0  0  0  0  0  0  0  0  0
  -28.2181  -28.8469   17.1710 C   0  0  0  0  0  0  0  0  0  0  0  0
  -31.4499  -24.3907   20.8217 C   0  0  0  0  0  0  0  0  0  0  0  0
  -29.0653  -23.6793   20.4258 C   0  0  0  0  0  0  0  0  0  0  0  0
  -28.0516  -20.1942   22.9167 C   0  0  0  0  0  0  0  0  0  0  0  0
  -27.2913  -21.7728   24.7232 C   0  0  0  0  0  0  0  0  0  0  0  0
  -29.2624  -26.9604   15.8748 C   0  0  0  0  0  0  0  0  0  0  0  0
  -31.6677  -24.4354   19.3118 C   0  0  0  0  0  0  0  0  0  0  0  0
  -29.3295  -23.7319   18.9246 C   0  0  0  0  0  0  0  0  0  0  0  0
  -28.2350  -26.4677   18.0696 C   0  0  0  0  0  0  0  0  0  0  0  0
  -29.2751  -21.0642   22.6752 C   0  0  0  0  0  0  0  0  0  0  0  0
  -28.5167  -22.6392   24.4784 C   0  0  0  0  0  0  0  0  0  0  0  0
  -27.0056  -13.1593   18.9410 C   0  0  1  0  0  0  0  0  0  0  0  0
  -25.4706  -13.5595   22.3931 C   0  0  1  0  0  0  0  0  0  0  0  0
  -30.3536  -23.3891   21.2076 C   0  0  0  0  0  0  0  0  0  0  0  0
  -28.2547  -27.9662   18.4326 C   0  0  2  0  0  0  0  0  0  0  0  0
  -27.5438  -20.3152   24.3508 C   0  0  0  0  0  0  0  0  0  1  0  0
  -18.5663  -13.4484   25.9033 C   0  0  0  0  0  0  0  0  0  0  0  0
  -31.4603  -24.9881   25.0493 C   0  0  0  0  0  0  0  0  0  0  0  0
  -32.7420  -22.9016   25.5646 C   0  0  0  0  0  0  0  0  0  0  0  0
  -21.5609  -14.3818   20.0696 C   0  0  0  0  0  0  0  0  0  0  0  0
  -19.4883  -14.5346   21.4658 C   0  0  0  0  0  0  0  0  0  0  0  0
  -20.5468  -12.3150   21.0465 C   0  0  0  0  0  0  0  0  0  0  0  0
  -21.9644  -13.7707   27.5843 C   0  0  0  0  0  0  0  0  0  0  0  0
  -31.3553  -22.9840   23.4708 C   0  0  0  0  0  0  0  0  0  0  0  0
  -21.6731  -13.9493   22.6125 C   0  0  1  0  0  0  0  0  0  0  0  0
  -20.0807  -13.3475   25.9995 C   0  0  2  0  0  0  0  0  0  0  0  0
  -30.0946  -23.4189   22.7119 C   0  0  2  0  0  0  0  0  0  0  0  0
  -31.4650  -23.4637   24.9326 C   0  0  0  0  0  0  0  0  0  0  0  0
  -20.8411  -13.8084   21.3066 C   0  0  0  0  0  0  0  0  0  0  0  0
  -25.9784  -27.6584   19.3307 N   0  0  0  0  0  0  0  0  0  0  0  0
  -27.1443  -28.3229   19.4036 N   0  0  0  0  0  0  0  0  0  0  0  0
  -24.1420  -14.1050   22.6783 N   0  0  0  0  0  0  0  0  0  0  0  0
  -29.2949  -26.1591   17.0981 N   0  0  0  0  0  0  0  0  0  0  0  0
  -30.4135  -24.6675   18.5967 N   0  0  0  0  0  0  0  0  0  0  0  0
  -28.2736  -30.0309   20.5943 N   0  0  0  0  0  0  0  0  0  0  0  0
  -24.2273  -29.8677   22.5935 N   0  0  0  0  0  0  0  0  0  0  0  0
  -26.5731  -12.9988   20.3128 N   0  0  0  0  0  0  0  0  0  0  0  0
  -21.0276  -13.3904   23.7955 N   0  0  0  0  0  0  0  0  0  0  0  0
  -28.9543  -22.4946   23.0398 N   0  3  0  0  0  0  0  0  0  0  0  0
  -20.4998  -13.8354   27.3439 N   0  3  0  0  0  0  0  0  0  0  0  0
  -26.2612  -30.9270   22.5903 O   0  0  0  0  0  0  0  0  0  0  0  0
  -25.3917  -14.9947   20.5199 O   0  0  0  0  0  0  0  0  0  0  0  0
  -23.0791  -12.0650   22.2977 O   0  0  0  0  0  0  0  0  0  0  0  0
  -21.0200  -15.3521   25.0318 O   0  0  0  0  0  0  0  0  0  0  0  0
  -31.4341  -25.4121   16.6664 O   0  0  0  0  0  0  0  0  0  0  0  0
  -20.0305  -26.4549   21.2595 O   0  0  0  0  0  0  0  0  0  0  0  0
  -26.3279  -19.5898   24.4934 O   0  0  0  0  0  0  0  0  0  1  0  0
  -16.7861  -29.6352   24.3841 F   0  0  0  0  0  0  0  0  0  0  0  0
  -20.7223  -27.0576   23.8673 F   0  0  0  0  0  0  0  0  0  0  0  0
  1  2  1  0  0  0  0
  1  5  2  0  0  0  0
  2  6  2  0  0  0  0
  3  8  2  0  0  0  0
  3 15  1  0  0  0  0
  4  9  1  0  0  0  0
  4 15  2  0  0  0  0
  5 17  1  0  0  0  0
  6 19  1  0  0  0  0
  7 10  2  0  0  0  0
  7 18  1  0  0  0  0
  8 21  1  0  0  0  0
  9 21  2  0  0  0  0
 10 22  1  0  0  0  0
 11 12  2  0  0  0  0
 11 23  1  0  0  0  0
 12 24  1  0  0  0  0
 13 20  1  0  0  0  0
 13 22  2  0  0  0  0
 14 24  2  0  0  0  0
 14 25  1  0  0  0  0
 15 26  1  0  0  0  0
 16 26  1  0  0  0  0
 16 27  2  0  0  0  0
 16 28  1  0  0  0  0
 17 19  2  0  0  0  0
 17 33  1  0  0  0  0
 18 20  2  0  0  0  0
 18 34  1  0  0  0  0
 19 50  1  0  0  0  0
 20 35  1  0  0  0  0
 21 84  1  0  0  0  0
 22 85  1  0  0  0  0
 23 25  2  0  0  0  0
 23 84  1  0  0  0  0
 24 86  1  0  0  0  0
 25 87  1  0  0  0  0
 26 68  2  0  0  0  0
 27 69  1  0  0  0  0
 27 73  1  0  0  0  0
 28 74  1  0  0  0  0
 28 79  2  0  0  0  0
 29 51  1  0  0  0  0
 29 75  1  0  0  0  0
 29 80  2  0  0  0  0
 30 63  1  0  0  0  0
 30 70  1  0  0  0  0
 30 81  2  0  0  0  0
 31 64  1  0  0  0  0
 31 76  1  0  0  0  0
 31 82  2  0  0  0  0
 32 71  1  0  0  0  0
 32 72  1  0  0  0  0
 32 83  2  0  0  0  0
 33 36  1  0  0  0  0
 34 51  1  0  0  0  0
 35 70  1  0  0  0  0
 36 38  1  0  0  0  0
 37 39  1  0  0  0  0
 37 44  1  0  0  0  0
 38 50  1  0  0  0  0
 39 53  1  0  0  0  0
 40 45  1  0  0  0  0
 40 52  1  0  0  0  0
 41 46  1  0  0  0  0
 41 52  1  0  0  0  0
 42 48  1  0  0  0  0
 42 54  1  0  0  0  0
 43 49  1  0  0  0  0
 43 54  1  0  0  0  0
 44 71  1  0  0  0  0
 45 72  1  0  0  0  0
 46 72  1  0  0  0  0
 47 53  1  0  0  0  0
 47 71  1  0  0  0  0
 48 77  1  0  0  0  0
 49 77  1  0  0  0  0
 50 75  1  0  0  0  0
 51 70  1  0  0  0  0
 52 65  1  0  0  0  0
 53 69  1  0  0  0  0
 54 85  1  0  0  0  0
 55 64  1  0  0  0  0
 56 66  1  0  0  0  0
 57 66  1  0  0  0  0
 58 67  1  0  0  0  0
 59 67  1  0  0  0  0
 60 67  1  0  0  0  0
 61 78  1  0  0  0  0
 62 65  1  0  0  0  0
 62 66  1  0  0  0  0
 63 67  1  0  0  0  0
 63 76  1  0  0  0  0
 64 78  1  0  0  0  0
 65 77  1  0  0  0  0
 68 69  1  0  0  0  0
M  CHG  2  77   1  78   1
M  ISO  4  32 100  54 101  72 100  85 101
M  END
> <Batch ID>
0153

> <Smiles>
CNC(C)C(=O)NC(C(=O)N1Cc2cc([101O:1][101CH:1]3CCN(C(CC(C)C)C4CC[100N:0]([100C:0](=O)N5CCCC(n6nc(-c7ccc(Oc8ccc(F)cc8F)cc7)c(C(N)=O)c6N)C5)CC4)CC3)ccc2CC1C(=O)NC1CCCc2ccccc21)C(C)(C)C

> <Shape>
0.231

> <Color>
0.043

> <Negative vol penalty>
0.000

$$$$

  -OEChem-04052321483D

 86 95  0     1  0  0  0  0  0999 V2000
  -22.9664  -11.2783   18.9400 C   0  0  0  0  0  0  0  0  0  0  0  0
  -22.2694  -12.4615   19.1631 C   0  0  0  0  0  0  0  0  0  0  0  0
  -29.7855  -25.3361   23.0299 C   0  0  0  0  0  0  0  0  0  0  0  0
  -28.9568  -26.2436   25.1099 C   0  0  0  0  0  0  0  0  0  0  0  0
  -24.2608  -11.1290   19.4359 C   0  0  0  0  0  0  0  0  0  0  0  0
  -22.8662  -13.4957   19.8832 C   0  0  0  0  0  0  0  0  0  0  0  0
  -22.1403  -19.5089   18.9774 C   0  0  0  0  0  0  0  0  0  0  0  0
  -17.5787  -26.6990   23.5031 C   0  0  0  0  0  0  0  0  0  0  0  0
  -31.0514  -25.1915   23.5973 C   0  0  0  0  0  0  0  0  0  0  0  0
  -30.2227  -26.0990   25.6774 C   0  0  0  0  0  0  0  0  0  0  0  0
  -21.3382  -20.4618   19.6039 C   0  0  0  0  0  0  0  0  0  0  0  0
  -18.0954  -25.5805   22.8503 C   0  0  0  0  0  0  0  0  0  0  0  0
  -33.1481  -25.6334   27.7854 C   0  0  0  0  0  0  0  0  0  0  0  0
  -33.2266  -25.0911   29.0681 C   0  0  0  0  0  0  0  0  0  0  0  0
  -23.1912  -21.0830   21.0180 C   0  0  0  0  0  0  0  0  0  0  0  0
  -19.8123  -26.9565   21.8701 C   0  0  0  0  0  0  0  0  0  0  0  0
  -32.1723  -23.0664   28.2766 C   0  0  0  0  0  0  0  0  0  0  0  0
  -28.7381  -25.8622   23.7862 C   0  0  0  0  0  0  0  0  0  0  0  0
  -26.3867  -25.0675   23.1971 C   0  0  0  0  0  0  0  0  0  0  0  0
  -24.8774  -12.1656   20.1542 C   0  0  0  0  0  0  0  0  0  0  0  0
  -23.4730  -19.3281   19.3746 C   0  0  0  0  0  0  0  0  0  0  0  0
  -24.1697  -13.3597   20.3904 C   0  0  0  0  0  0  0  0  0  0  0  0
  -18.1601  -27.9684   23.3370 C   0  0  0  0  0  0  0  0  0  0  0  0
  -24.0089  -20.1289   20.3932 C   0  0  0  0  0  0  0  0  0  0  0  0
  -19.3229  -28.0914   22.5433 C   0  0  0  0  0  0  0  0  0  0  0  0
  -31.2701  -25.5729   24.9211 C   0  0  0  0  0  0  0  0  0  0  0  0
  -21.8628  -21.2470   20.6264 C   0  0  0  0  0  0  0  0  0  0  0  0
  -19.2053  -25.7112   22.0254 C   0  0  0  0  0  0  0  0  0  0  0  0
  -32.5817  -24.8922   26.7482 C   0  0  0  0  0  0  0  0  0  0  0  0
  -32.7387  -23.8076   29.3137 C   0  0  0  0  0  0  0  0  0  0  0  0
  -32.0938  -23.6088   26.9939 C   0  0  0  0  0  0  0  0  0  0  0  0
  -27.4303  -26.0124   23.2004 C   0  0  0  0  0  0  0  0  0  0  0  0
  -25.3646  -25.6872   22.5205 C   0  0  0  0  0  0  0  0  0  0  0  0
  -26.3450  -23.7477   23.7557 C   0  0  0  0  0  0  0  0  0  0  0  0
  -25.1384  -16.9187   20.6093 C   0  0  0  0  0  0  0  0  0  0  0  0
  -27.6385  -18.9413   20.1846 C   0  0  0  0  0  0  0  0  0  0  0  0
  -28.7425  -22.1536   19.8534 C   0  0  0  0  0  0  0  0  0  0  0  0
  -22.2142  -30.1834   21.5182 C   0  0  0  0  0  0  0  0  0  0  0  0
  -26.2607  -11.9399   20.7112 C   0  0  0  0  0  0  0  0  0  0  0  0
  -24.3328  -18.3144   18.6706 C   0  0  0  0  0  0  0  0  0  0  0  0
  -25.4394  -19.9881   20.8430 C   0  0  0  0  0  0  0  0  0  0  0  0
  -26.9610  -13.2260   21.1425 C   0  0  0  0  0  0  0  0  0  0  0  0
  -25.3259  -29.9535   19.8031 C   0  0  0  0  0  0  0  0  0  0  0  0
  -26.0181  -14.0965   21.9671 C   0  0  0  0  0  0  0  0  0  0  0  0
  -26.0665  -28.8346   20.5376 C   0  0  0  0  0  0  0  0  0  0  0  0
  -24.4905  -30.8006   20.7606 C   0  0  0  0  0  0  0  0  0  0  0  0
  -24.2932  -28.9186   22.3395 C   0  0  0  0  0  0  0  0  0  0  0  0
  -19.6373  -30.4430   23.4456 C   0  0  0  0  0  0  0  0  0  0  0  0
  -24.7923  -14.5138   21.1456 C   0  0  1  0  0  0  0  0  0  0  0  0
  -20.0002  -29.4384   22.3562 C   0  0  1  0  0  0  0  0  0  0  0  0
  -17.5762  -29.1720   24.0529 C   0  0  2  0  0  0  0  0  0  0  0  0
  -25.5266  -17.8609   19.5051 C   0  0  1  0  0  0  0  0  0  0  0  0
  -25.1051  -28.0027   21.4077 C   0  0  2  0  0  0  0  0  0  0  0  0
  -15.6376  -29.3985   22.4914 C   0  0  0  0  0  0  0  0  0  0  0  0
  -30.3569  -24.0301   19.4414 C   0  0  0  0  0  0  0  0  0  0  0  0
  -28.3182  -18.5196   23.1291 C   0  0  0  0  0  0  0  0  0  0  0  0
  -29.7780  -20.5503   23.0111 C   0  0  0  0  0  0  0  0  0  0  0  0
  -30.2950  -18.5608   21.5977 C   0  0  0  0  0  0  0  0  0  0  0  0
  -28.2653  -22.0777   16.9336 C   0  0  0  0  0  0  0  0  0  0  0  0
  -16.0573  -29.3050   23.9203 C   0  0  0  0  0  0  0  0  0  0  0  0
  -19.7342  -22.2956   20.7860 C   0  0  0  0  0  0  0  0  0  1  0  0
  -19.0365  -23.3806   21.5833 C   0  0  0  0  0  0  0  0  0  0  0  0
  -28.3043  -20.0083   21.0197 C   0  0  1  0  0  0  0  0  0  0  0  0
  -29.6897  -22.7953   18.8557 C   0  0  2  0  0  0  0  0  0  0  0  0
  -29.1463  -19.4113   22.1825 C   0  0  0  0  0  0  0  0  0  0  0  0
  -27.1014  -27.1461   22.5754 N   0  0  0  0  0  0  0  0  0  0  0  0
  -25.8397  -26.9175   22.1729 N   0  0  0  0  0  0  0  0  0  0  0  0
  -26.2381  -18.9788   20.1282 N   0  0  0  0  0  0  0  0  0  0  0  0
  -23.5992  -29.9518   21.5549 N   0  0  0  0  0  0  0  0  0  0  0  0
  -24.1148  -25.2943   22.1948 N   0  0  0  0  0  0  0  0  0  0  0  0
  -27.4824  -23.2663   24.4181 N   0  0  0  0  0  0  0  0  0  0  0  0
  -25.1341  -15.5877   20.2377 N   0  0  0  0  0  0  0  0  0  0  0  0
  -29.0684  -20.8352   20.0919 N   0  0  0  0  0  0  0  0  0  0  0  0
  -21.4407  -29.3297   22.2951 N   0  0  0  0  0  0  0  0  0  0  0  0
  -18.1549  -30.4808   23.5743 N   0  3  0  0  0  0  0  0  0  0  0  0
  -28.9510  -23.1990   17.6259 N   0  3  0  0  0  0  0  0  0  0  0  0
  -25.3348  -23.0108   23.6558 O   0  0  0  0  0  0  0  0  0  0  0  0
  -24.8646  -17.3659   21.7169 O   0  0  0  0  0  0  0  0  0  0  0  0
  -28.3357  -18.1098   19.5980 O   0  0  0  0  0  0  0  0  0  0  0  0
  -27.8092  -22.7621   20.3723 O   0  0  0  0  0  0  0  0  0  0  0  0
  -21.7043  -31.0810   20.8390 O   0  0  0  0  0  0  0  0  0  0  0  0
  -32.5052  -25.4317   25.4752 O   0  0  0  0  0  0  0  0  0  0  0  0
  -21.0819  -22.1773   21.2400 O   0  0  0  0  0  0  0  0  0  1  0  0
  -19.7061  -24.6173   21.3700 O   0  0  0  0  0  0  0  0  0  0  0  0
  -32.8155  -23.2864   30.5452 F   0  0  0  0  0  0  0  0  0  0  0  0
  -31.5496  -22.8915   26.0013 F   0  0  0  0  0  0  0  0  0  0  0  0
  1  2  1  0  0  0  0
  1  5  2  0  0  0  0
  2  6  2  0  0  0  0
  3  9  2  0  0  0  0
  3 18  1  0  0  0  0
  4 10  1  0  0  0  0
  4 18  2  0  0  0  0
  5 20  1  0  0  0  0
  6 22  1  0  0  0  0
  7 11  2  0  0  0  0
  7 21  1  0  0  0  0
  8 12  2  0  0  0  0
  8 23  1  0  0  0  0
  9 26  1  0  0  0  0
 10 26  2  0  0  0  0
 11 27  1  0  0  0  0
 12 28  1  0  0  0  0
 13 14  2  0  0  0  0
 13 29  1  0  0  0  0
 14 30  1  0  0  0  0
 15 24  1  0  0  0  0
 15 27  2  0  0  0  0
 16 25  1  0  0  0  0
 16 28  2  0  0  0  0
 17 30  2  0  0  0  0
 17 31  1  0  0  0  0
 18 32  1  0  0  0  0
 19 32  1  0  0  0  0
 19 33  2  0  0  0  0
 19 34  1  0  0  0  0
 20 22  2  0  0  0  0
 20 39  1  0  0  0  0
 21 24  2  0  0  0  0
 21 40  1  0  0  0  0
 22 49  1  0  0  0  0
 23 25  2  0  0  0  0
 23 51  1  0  0  0  0
 24 41  1  0  0  0  0
 25 50  1  0  0  0  0
 26 82  1  0  0  0  0
 27 83  1  0  0  0  0
 28 84  1  0  0  0  0
 29 31  2  0  0  0  0
 29 82  1  0  0  0  0
 30 85  1  0  0  0  0
 31 86  1  0  0  0  0
 32 66  2  0  0  0  0
 33 67  1  0  0  0  0
 33 70  1  0  0  0  0
 34 71  1  0  0  0  0
 34 77  2  0  0  0  0
 35 52  1  0  0  0  0
 35 72  1  0  0  0  0
 35 78  2  0  0  0  0
 36 63  1  0  0  0  0
 36 68  1  0  0  0  0
 36 79  2  0  0  0  0
 37 64  1  0  0  0  0
 37 73  1  0  0  0  0
 37 80  2  0  0  0  0
 38 69  1  0  0  0  0
 38 74  1  0  0  0  0
 38 81  2  0  0  0  0
 39 42  1  0  0  0  0
 40 52  1  0  0  0  0
 41 68  1  0  0  0  0
 42 44  1  0  0  0  0
 43 45  1  0  0  0  0
 43 46  1  0  0  0  0
 44 49  1  0  0  0  0
 45 53  1  0  0  0  0
 46 69  1  0  0  0  0
 47 53  1  0  0  0  0
 47 69  1  0  0  0  0
 48 50  1  0  0  0  0
 48 75  1  0  0  0  0
 49 72  1  0  0  0  0
 50 74  1  0  0  0  0
 51 60  1  0  0  0  0
 51 75  1  0  0  0  0
 52 68  1  0  0  0  0
 53 67  1  0  0  0  0
 54 60  1  0  0  0  0
 55 64  1  0  0  0  0
 56 65  1  0  0  0  0
 57 65  1  0  0  0  0
 58 65  1  0  0  0  0
 59 76  1  0  0  0  0
 61 62  1  0  0  0  0
 61 83  1  0  0  0  0
 62 84  1  0  0  0  0
 63 65  1  0  0  0  0
 63 73  1  0  0  0  0
 64 76  1  0  0  0  0
 66 67  1  0  0  0  0
M  CHG  2  75   1  76   1
M  ISO  4  38 100  61 101  74 100  83 101
M  END
> <Batch ID>
0153

> <Smiles>
CCC1NCC([100NH:0][100C:0](=O)N2CCCC(n3nc(-c4ccc(Oc5ccc(F)cc5F)cc4)c(C(N)=O)c3N)C2)c2cc(OC[101CH2:1][101O:1]c3ccc4c(c3)CN(C(=O)C(NC(=O)C(C)NC)C(C)(C)C)C(C(=O)NC3CCCc5ccccc53)C4)ccc21

> <Shape>
0.208

> <Color>
0.069

> <Negative vol penalty>
0.000

$$$$

  -OEChem-04052321483D

 87 96  0     1  0  0  0  0  0999 V2000
  -17.0574  -29.6120   24.6156 C   0  0  0  0  0  0  0  0  0  0  0  0
  -17.6717  -28.3682   24.5107 C   0  0  0  0  0  0  0  0  0  0  0  0
  -30.4322  -17.5780   20.2100 C   0  0  0  0  0  0  0  0  0  0  0  0
  -29.2908  -17.2060   22.3067 C   0  0  0  0  0  0  0  0  0  0  0  0
  -17.3664  -30.6200   23.7034 C   0  0  0  0  0  0  0  0  0  0  0  0
  -18.5947  -28.1314   23.4926 C   0  0  0  0  0  0  0  0  0  0  0  0
  -23.5964  -24.6111   23.8036 C   0  0  0  0  0  0  0  0  0  0  0  0
  -29.9386  -18.8820   20.1727 C   0  0  0  0  0  0  0  0  0  0  0  0
  -28.7972  -18.5101   22.2694 C   0  0  0  0  0  0  0  0  0  0  0  0
  -23.8488  -23.3020   23.3960 C   0  0  0  0  0  0  0  0  0  0  0  0
  -30.6553  -21.8588   21.6072 C   0  0  0  0  0  0  0  0  0  0  0  0
  -31.5439  -22.8788   21.2673 C   0  0  0  0  0  0  0  0  0  0  0  0
  -24.7825  -24.1311   21.3320 C   0  0  0  0  0  0  0  0  0  0  0  0
  -30.1643  -23.4476   19.3673 C   0  0  0  0  0  0  0  0  0  0  0  0
  -25.7032  -17.9632   21.2388 C   0  0  0  0  0  0  0  0  0  0  0  0
  -30.1083  -16.7399   21.2770 C   0  0  0  0  0  0  0  0  0  0  0  0
  -31.8238  -14.9561   21.8954 C   0  0  0  0  0  0  0  0  0  0  0  0
  -18.3009  -30.3985   22.6795 C   0  0  0  0  0  0  0  0  0  0  0  0
  -23.9257  -25.6914   22.9724 C   0  0  0  0  0  0  0  0  0  0  0  0
  -18.9156  -29.1370   22.5650 C   0  0  0  0  0  0  0  0  0  0  0  0
  -24.5355  -25.4531   21.7325 C   0  0  0  0  0  0  0  0  0  0  0  0
  -25.3801  -19.5065   18.9815 C   0  0  0  0  0  0  0  0  0  0  0  0
  -25.5064  -18.1259   18.8604 C   0  0  0  0  0  0  0  0  0  0  0  0
  -29.1211  -19.3481   21.2023 C   0  0  0  0  0  0  0  0  0  0  0  0
  -24.4393  -23.0616   22.1588 C   0  0  0  0  0  0  0  0  0  0  0  0
  -29.5212  -21.6331   20.8271 C   0  0  0  0  0  0  0  0  0  0  0  0
  -25.6699  -17.3419   19.9985 C   0  0  0  0  0  0  0  0  0  0  0  0
  -31.2984  -23.6732   20.1474 C   0  0  0  0  0  0  0  0  0  0  0  0
  -29.2756  -22.4276   19.7072 C   0  0  0  0  0  0  0  0  0  0  0  0
  -30.6174  -15.3926   21.3159 C   0  0  0  0  0  0  0  0  0  0  0  0
  -25.4206  -20.0729   20.2476 C   0  0  0  0  0  0  0  0  0  0  0  0
  -31.8441  -13.6018   21.6672 C   0  0  0  0  0  0  0  0  0  0  0  0
  -32.8356  -15.7075   22.5790 C   0  0  0  0  0  0  0  0  0  0  0  0
  -22.2797  -28.0031   21.5404 C   0  0  0  0  0  0  0  0  0  0  0  0
  -25.2343  -29.0823   20.7481 C   0  0  0  0  0  0  0  0  0  0  0  0
  -28.5324  -28.3777   20.2260 C   0  0  0  0  0  0  0  0  0  0  0  0
  -26.8847  -13.0755   19.3035 C   0  0  0  0  0  0  0  0  0  0  0  0
  -18.5674  -31.5037   21.6884 C   0  0  0  0  0  0  0  0  0  0  0  0
  -23.6714  -27.0988   23.4382 C   0  0  0  0  0  0  0  0  0  0  0  0
  -24.9268  -26.5789   20.8117 C   0  0  0  0  0  0  0  0  0  0  0  0
  -19.8353  -31.2911   20.8653 C   0  0  0  0  0  0  0  0  0  0  0  0
  -30.0911  -12.2381   17.9676 C   0  0  0  0  0  0  0  0  0  0  0  0
  -24.1696  -11.7013   21.2755 C   0  0  0  0  0  0  0  0  0  0  0  0
  -19.8957  -29.8611   20.3377 C   0  0  0  0  0  0  0  0  0  0  0  0
  -30.8485  -11.6115   19.1331 C   0  0  0  0  0  0  0  0  0  0  0  0
  -23.9007  -13.1826   21.5000 C   0  0  0  0  0  0  0  0  0  0  0  0
  -28.6172  -11.8678   18.0252 C   0  0  0  0  0  0  0  0  0  0  0  0
  -25.6722  -11.6677   21.0433 C   0  0  0  0  0  0  0  0  0  0  0  0
  -28.6938  -11.7454   20.5082 C   0  0  0  0  0  0  0  0  0  0  0  0
  -19.9405  -28.8496   21.4894 C   0  0  1  0  0  0  0  0  0  0  0  0
  -23.5777  -28.1001   22.2910 C   0  0  1  0  0  0  0  0  0  0  0  0
  -30.2253  -11.9574   20.4949 C   0  0  2  0  0  0  0  0  0  0  0  0
  -24.8503  -13.8658   20.5120 C   0  0  1  0  0  0  0  0  0  0  0  0
  -25.2035  -20.3707   17.7760 C   0  0  0  0  0  0  0  0  0  0  0  0
  -30.6945  -29.4576   19.5504 C   0  0  0  0  0  0  0  0  0  0  0  0
  -24.3039  -29.1218   17.8425 C   0  0  0  0  0  0  0  0  0  0  0  0
  -26.7046  -29.2736   17.1487 C   0  0  0  0  0  0  0  0  0  0  0  0
  -25.6877  -31.0911   18.5216 C   0  0  0  0  0  0  0  0  0  0  0  0
  -24.4905  -16.5406   17.2232 C   0  0  0  0  0  0  0  0  0  0  0  0
  -29.8115  -27.7005   22.8076 C   0  0  0  0  0  0  0  0  0  0  0  0
  -25.2949  -21.5357   20.4830 C   0  0  0  0  0  0  0  0  0  1  0  0
  -25.3198  -15.2230   21.0199 C   0  0  0  0  0  0  0  0  0  0  0  0
  -26.1814  -28.8558   19.5946 C   0  0  1  0  0  0  0  0  0  0  0  0
  -29.7977  -29.0608   20.7127 C   0  0  2  0  0  0  0  0  0  0  0  0
  -25.7104  -29.5641   18.2931 C   0  0  0  0  0  0  0  0  0  0  0  0
  -29.9218  -14.3964   20.7611 N   0  0  0  0  0  0  0  0  0  0  0  0
  -30.6936  -13.3205   20.9909 N   0  0  0  0  0  0  0  0  0  0  0  0
  -25.5791  -19.2946   21.3268 N   0  3  0  0  0  0  0  0  0  0  0  0
  -24.6518  -27.9370   21.3093 N   0  0  0  0  0  0  0  0  0  0  0  0
  -28.0096  -12.2375   19.3037 N   0  0  0  0  0  0  0  0  0  0  0  0
  -25.9557  -12.9165   20.3342 N   0  0  0  0  0  0  0  0  0  0  0  0
  -32.7337  -12.6361   21.9810 N   0  0  0  0  0  0  0  0  0  0  0  0
  -32.6565  -17.0898   22.7259 N   0  0  0  0  0  0  0  0  0  0  0  0
  -25.4695  -17.5155   17.5859 N   0  0  0  0  0  0  0  0  0  0  0  0
  -21.2696  -28.7907   22.0589 N   0  0  0  0  0  0  0  0  0  0  0  0
  -27.4990  -29.2753   20.0599 N   0  0  0  0  0  0  0  0  0  0  0  0
  -30.5654  -28.1510   21.6094 N   0  3  0  0  0  0  0  0  0  0  0  0
  -33.8757  -15.1718   23.0314 O   0  0  0  0  0  0  0  0  0  0  0  0
  -22.2008  -27.2690   20.5623 O   0  0  0  0  0  0  0  0  0  0  0  0
  -25.0247  -30.2325   21.1415 O   0  0  0  0  0  0  0  0  0  0  0  0
  -28.4684  -27.1693   20.0109 O   0  0  0  0  0  0  0  0  0  0  0  0
  -26.7123  -13.9218   18.4162 O   0  0  0  0  0  0  0  0  0  0  0  0
  -28.6395  -20.6206   21.1663 O   0  0  0  0  0  0  0  0  0  0  0  0
  -24.6902  -21.7639   21.7517 O   0  0  0  0  0  0  0  0  0  1  0  0
  -25.7981  -15.9775   19.9204 O   0  0  0  0  0  0  0  0  0  0  0  0
  -32.1510  -24.6537   19.8220 F   0  0  0  0  0  0  0  0  0  0  0  0
  -28.1872  -22.2163   18.9546 F   0  0  0  0  0  0  0  0  0  0  0  0
  1  2  1  0  0  0  0
  1  5  2  0  0  0  0
  2  6  2  0  0  0  0
  3  8  2  0  0  0  0
  3 16  1  0  0  0  0
  4  9  1  0  0  0  0
  4 16  2  0  0  0  0
  5 18  1  0  0  0  0
  6 20  1  0  0  0  0
  7 10  2  0  0  0  0
  7 19  1  0  0  0  0
  8 24  1  0  0  0  0
  9 24  2  0  0  0  0
 10 25  1  0  0  0  0
 11 12  2  0  0  0  0
 11 26  1  0  0  0  0
 12 28  1  0  0  0  0
 13 21  1  0  0  0  0
 13 25  2  0  0  0  0
 14 28  2  0  0  0  0
 14 29  1  0  0  0  0
 15 27  2  0  0  0  0
 15 68  1  0  0  0  0
 16 30  1  0  0  0  0
 17 30  1  0  0  0  0
 17 32  2  0  0  0  0
 17 33  1  0  0  0  0
 18 20  2  0  0  0  0
 18 38  1  0  0  0  0
 19 21  2  0  0  0  0
 19 39  1  0  0  0  0
 20 50  1  0  0  0  0
 21 40  1  0  0  0  0
 22 23  2  0  0  0  0
 22 31  1  0  0  0  0
 22 54  1  0  0  0  0
 23 27  1  0  0  0  0
 23 74  1  0  0  0  0
 24 83  1  0  0  0  0
 25 84  1  0  0  0  0
 26 29  2  0  0  0  0
 26 83  1  0  0  0  0
 27 85  1  0  0  0  0
 28 86  1  0  0  0  0
 29 87  1  0  0  0  0
 30 66  2  0  0  0  0
 31 61  1  0  0  0  0
 31 68  2  0  0  0  0
 32 67  1  0  0  0  0
 32 72  1  0  0  0  0
 33 73  1  0  0  0  0
 33 78  2  0  0  0  0
 34 51  1  0  0  0  0
 34 75  1  0  0  0  0
 34 79  2  0  0  0  0
 35 63  1  0  0  0  0
 35 69  1  0  0  0  0
 35 80  2  0  0  0  0
 36 64  1  0  0  0  0
 36 76  1  0  0  0  0
 36 81  2  0  0  0  0
 37 70  1  0  0  0  0
 37 71  1  0  0  0  0
 37 82  2  0  0  0  0
 38 41  1  0  0  0  0
 39 51  1  0  0  0  0
 40 69  1  0  0  0  0
 41 44  1  0  0  0  0
 42 45  1  0  0  0  0
 42 47  1  0  0  0  0
 43 46  1  0  0  0  0
 43 48  1  0  0  0  0
 44 50  1  0  0  0  0
 45 52  1  0  0  0  0
 46 53  1  0  0  0  0
 47 70  1  0  0  0  0
 48 71  1  0  0  0  0
 49 52  1  0  0  0  0
 49 70  1  0  0  0  0
 50 75  1  0  0  0  0
 51 69  1  0  0  0  0
 52 67  1  0  0  0  0
 53 62  1  0  0  0  0
 53 71  1  0  0  0  0
 55 64  1  0  0  0  0
 56 65  1  0  0  0  0
 57 65  1  0  0  0  0
 58 65  1  0  0  0  0
 59 74  1  0  0  0  0
 60 77  1  0  0  0  0
 61 84  1  0  0  0  0
 62 85  1  0  0  0  0
 63 65  1  0  0  0  0
 63 76  1  0  0  0  0
 64 77  1  0  0  0  0
 66 67  1  0  0  0  0
M  CHG  2  68   1  77   1
M  ISO  4  37 100  61 101  71 100  84 101
M  END
> <Batch ID>
0153

> <Smiles>
CNc1c(OCC2CCC[100N:0]2[100C:0](=O)N2CCCC(n3nc(-c4ccc(Oc5ccc(F)cc5F)cc4)c(C(N)=O)c3N)C2)cnc([101CH2:1][101O:1]c2ccc3c(c2)CN(C(=O)C(NC(=O)C(C)NC)C(C)(C)C)C(C(=O)NC2CCCc4ccccc42)C3)c1C

> <Shape>
0.270

> <Color>
0.079

> <Negative vol penalty>
0.000

$$$$

  -OEChem-04052321483D

 84 93  0     1  0  0  0  0  0999 V2000
  -27.8145  -27.6206   12.5742 C   0  0  0  0  0  0  0  0  0  0  0  0
  -28.0839  -26.6216   13.5041 C   0  0  0  0  0  0  0  0  0  0  0  0
  -22.9808   -9.9210   19.9461 C   0  0  0  0  0  0  0  0  0  0  0  0
  -23.7533   -9.8715   22.2347 C   0  0  0  0  0  0  0  0  0  0  0  0
  -27.7431  -28.9515   12.9835 C   0  0  0  0  0  0  0  0  0  0  0  0
  -28.2832  -26.9531   14.8438 C   0  0  0  0  0  0  0  0  0  0  0  0
  -26.6630  -23.6437   19.7355 C   0  0  0  0  0  0  0  0  0  0  0  0
  -22.2118   -8.7813   20.1810 C   0  0  0  0  0  0  0  0  0  0  0  0
  -22.9843   -8.7318   22.4697 C   0  0  0  0  0  0  0  0  0  0  0  0
  -27.3780  -22.7752   20.5591 C   0  0  0  0  0  0  0  0  0  0  0  0
  -23.1949   -5.4139   21.8548 C   0  0  0  0  0  0  0  0  0  0  0  0
  -23.7905   -4.3626   22.5518 C   0  0  0  0  0  0  0  0  0  0  0  0
  -30.2141  -16.5713   24.4913 C   0  0  0  0  0  0  0  0  0  0  0  0
  -27.7472  -24.5731   22.1245 C   0  0  0  0  0  0  0  0  0  0  0  0
  -29.7859  -18.6986   25.5925 C   0  0  0  0  0  0  0  0  0  0  0  0
  -22.1030   -4.5466   24.2710 C   0  0  0  0  0  0  0  0  0  0  0  0
  -23.7516  -10.4661   20.9729 C   0  0  0  0  0  0  0  0  0  0  0  0
  -24.1513  -12.9844   20.8934 C   0  0  0  0  0  0  0  0  0  0  0  0
  -27.9321  -29.2985   14.3306 C   0  0  0  0  0  0  0  0  0  0  0  0
  -26.4938  -24.9884   20.0956 C   0  0  0  0  0  0  0  0  0  0  0  0
  -28.2157  -28.2900   15.2713 C   0  0  0  0  0  0  0  0  0  0  0  0
  -30.4599  -17.2650   23.3167 C   0  0  0  0  0  0  0  0  0  0  0  0
  -27.0274  -25.4560   21.3050 C   0  0  0  0  0  0  0  0  0  0  0  0
  -30.3812  -18.6639   23.2805 C   0  0  0  0  0  0  0  0  0  0  0  0
  -29.8675  -17.2980   25.6327 C   0  0  0  0  0  0  0  0  0  0  0  0
  -22.2135   -8.1867   21.4428 C   0  0  0  0  0  0  0  0  0  0  0  0
  -27.9227  -23.2406   21.7524 C   0  0  0  0  0  0  0  0  0  0  0  0
  -22.0535   -6.0316   22.3660 C   0  0  0  0  0  0  0  0  0  0  0  0
  -30.0510  -19.3930   24.4107 C   0  0  0  0  0  0  0  0  0  0  0  0
  -23.2445   -3.9289   23.7598 C   0  0  0  0  0  0  0  0  0  0  0  0
  -21.5075   -5.5979   23.5741 C   0  0  0  0  0  0  0  0  0  0  0  0
  -24.5467  -11.6431   20.7307 C   0  0  0  0  0  0  0  0  0  0  0  0
  -25.2585  -13.7145   20.5363 C   0  0  0  0  0  0  0  0  0  0  0  0
  -22.8955  -13.5222   21.3285 C   0  0  0  0  0  0  0  0  0  0  0  0
  -27.3448  -27.7750   18.8251 C   0  0  0  0  0  0  0  0  0  0  0  0
  -25.5477  -28.9823   21.2407 C   0  0  0  0  0  0  0  0  0  0  0  0
  -24.1955  -28.5456   24.3435 C   0  0  0  0  0  0  0  0  0  0  0  0
  -30.7654  -14.6032   20.7092 C   0  0  0  0  0  0  0  0  0  0  0  0
  -27.8922  -30.7557   14.7174 C   0  0  0  0  0  0  0  0  0  0  0  0
  -25.6970  -25.9060   19.2092 C   0  0  0  0  0  0  0  0  0  0  0  0
  -30.7433  -19.1864   21.9253 C   0  0  0  0  0  0  0  0  0  0  0  0
  -26.8566  -26.8857   21.7469 C   0  0  0  0  0  0  0  0  0  0  0  0
  -27.7447  -30.9833   16.2196 C   0  0  0  0  0  0  0  0  0  0  0  0
  -30.5693  -17.9253   21.0649 C   0  0  0  0  0  0  0  0  0  0  0  0
  -29.5595  -12.2864   18.2895 C   0  0  0  0  0  0  0  0  0  0  0  0
  -28.7100  -30.0900   16.9922 C   0  0  0  0  0  0  0  0  0  0  0  0
  -28.1181  -12.0187   18.7259 C   0  0  0  0  0  0  0  0  0  0  0  0
  -30.4882  -12.4656   19.4884 C   0  0  0  0  0  0  0  0  0  0  0  0
  -28.6116  -13.2168   20.8984 C   0  0  0  0  0  0  0  0  0  0  0  0
  -28.4132  -28.6072   16.7378 C   0  0  1  0  0  0  0  0  0  0  0  0
  -30.8880  -16.7304   21.9817 C   0  0  2  0  0  0  0  0  0  0  0  0
  -26.0255  -27.3799   19.4259 C   0  0  1  0  0  0  0  0  0  0  0  0
  -27.6272  -13.0848   19.7238 C   0  0  2  0  0  0  0  0  0  0  0  0
  -29.5894  -16.5791   26.9107 C   0  0  0  0  0  0  0  0  0  0  0  0
  -22.8072  -29.7230   26.0709 C   0  0  0  0  0  0  0  0  0  0  0  0
  -27.9617  -30.6770   22.0222 C   0  0  0  0  0  0  0  0  0  0  0  0
  -26.8702  -31.0850   24.2381 C   0  0  0  0  0  0  0  0  0  0  0  0
  -25.7668  -31.8696   22.1429 C   0  0  0  0  0  0  0  0  0  0  0  0
  -22.0724  -26.4881   24.2076 C   0  0  0  0  0  0  0  0  0  0  0  0
  -28.5896  -22.6589   23.9598 C   0  0  0  0  0  0  0  0  0  1  0  0
  -28.7354  -21.3509   24.7132 C   0  0  0  0  0  0  0  0  0  0  0  0
  -25.8144  -29.3968   22.6676 C   0  0  1  0  0  0  0  0  0  0  0  0
  -22.7934  -28.7848   24.8740 C   0  0  2  0  0  0  0  0  0  0  0  0
  -26.6083  -30.7306   22.7587 C   0  0  0  0  0  0  0  0  0  0  0  0
  -25.8067  -11.5252   20.3034 N   0  0  0  0  0  0  0  0  0  0  0  0
  -26.2125  -12.8017   20.1944 N   0  0  0  0  0  0  0  0  0  0  0  0
  -26.0750  -27.7456   20.8429 N   0  0  0  0  0  0  0  0  0  0  0  0
  -29.9666  -13.4914   20.3948 N   0  0  0  0  0  0  0  0  0  0  0  0
  -25.4993  -15.0418   20.4844 N   0  0  0  0  0  0  0  0  0  0  0  0
  -21.8646  -12.6311   21.6564 N   0  0  0  0  0  0  0  0  0  0  0  0
  -27.2634  -28.1826   17.5072 N   0  0  0  0  0  0  0  0  0  0  0  0
  -24.5166  -29.4273   23.3332 N   0  0  0  0  0  0  0  0  0  0  0  0
  -30.1926  -15.5312   21.5703 N   0  0  0  0  0  0  0  0  0  0  0  0
  -22.1716  -27.4971   25.2935 N   0  3  0  0  0  0  0  0  0  0  0  0
  -22.6881  -14.7568   21.4079 O   0  0  0  0  0  0  0  0  0  0  0  0
  -28.3612  -27.7159   19.5071 O   0  0  0  0  0  0  0  0  0  0  0  0
  -24.8895  -29.7251   20.5081 O   0  0  0  0  0  0  0  0  0  0  0  0
  -24.9335  -27.6670   24.7840 O   0  0  0  0  0  0  0  0  0  0  0  0
  -31.9026  -14.7601   20.2519 O   0  0  0  0  0  0  0  0  0  0  0  0
  -21.4630   -7.0747   21.6725 O   0  0  0  0  0  0  0  0  0  0  0  0
  -28.6216  -22.3951   22.5578 O   0  0  0  0  0  0  0  0  0  1  0  0
  -29.9869  -20.7613   24.3825 O   0  0  0  0  0  0  0  0  0  0  0  0
  -23.8156   -2.9183   24.4282 F   0  0  0  0  0  0  0  0  0  0  0  0
  -20.4104   -6.1866   24.0696 F   0  0  0  0  0  0  0  0  0  0  0  0
  1  2  1  0  0  0  0
  1  5  2  0  0  0  0
  2  6  2  0  0  0  0
  3  8  2  0  0  0  0
  3 17  1  0  0  0  0
  4  9  1  0  0  0  0
  4 17  2  0  0  0  0
  5 19  1  0  0  0  0
  6 21  1  0  0  0  0
  7 10  2  0  0  0  0
  7 20  1  0  0  0  0
  8 26  1  0  0  0  0
  9 26  2  0  0  0  0
 10 27  1  0  0  0  0
 11 12  2  0  0  0  0
 11 28  1  0  0  0  0
 12 30  1  0  0  0  0
 13 22  2  0  0  0  0
 13 25  1  0  0  0  0
 14 23  1  0  0  0  0
 14 27  2  0  0  0  0
 15 25  2  0  0  0  0
 15 29  1  0  0  0  0
 16 30  2  0  0  0  0
 16 31  1  0  0  0  0
 17 32  1  0  0  0  0
 18 32  1  0  0  0  0
 18 33  2  0  0  0  0
 18 34  1  0  0  0  0
 19 21  2  0  0  0  0
 19 39  1  0  0  0  0
 20 23  2  0  0  0  0
 20 40  1  0  0  0  0
 21 50  1  0  0  0  0
 22 24  1  0  0  0  0
 22 51  1  0  0  0  0
 23 42  1  0  0  0  0
 24 29  2  0  0  0  0
 24 41  1  0  0  0  0
 25 54  1  0  0  0  0
 26 80  1  0  0  0  0
 27 81  1  0  0  0  0
 28 31  2  0  0  0  0
 28 80  1  0  0  0  0
 29 82  1  0  0  0  0
 30 83  1  0  0  0  0
 31 84  1  0  0  0  0
 32 65  2  0  0  0  0
 33 66  1  0  0  0  0
 33 69  1  0  0  0  0
 34 70  1  0  0  0  0
 34 75  2  0  0  0  0
 35 52  1  0  0  0  0
 35 71  1  0  0  0  0
 35 76  2  0  0  0  0
 36 62  1  0  0  0  0
 36 67  1  0  0  0  0
 36 77  2  0  0  0  0
 37 63  1  0  0  0  0
 37 72  1  0  0  0  0
 37 78  2  0  0  0  0
 38 68  1  0  0  0  0
 38 73  1  0  0  0  0
 38 79  2  0  0  0  0
 39 43  1  0  0  0  0
 40 52  1  0  0  0  0
 41 44  1  0  0  0  0
 42 67  1  0  0  0  0
 43 46  1  0  0  0  0
 44 51  1  0  0  0  0
 45 47  1  0  0  0  0
 45 48  1  0  0  0  0
 46 50  1  0  0  0  0
 47 53  1  0  0  0  0
 48 68  1  0  0  0  0
 49 53  1  0  0  0  0
 49 68  1  0  0  0  0
 50 71  1  0  0  0  0
 51 73  1  0  0  0  0
 52 67  1  0  0  0  0
 53 66  1  0  0  0  0
 55 63  1  0  0  0  0
 56 64  1  0  0  0  0
 57 64  1  0  0  0  0
 58 64  1  0  0  0  0
 59 74  1  0  0  0  0
 60 61  1  0  0  0  0
 60 81  1  0  0  0  0
 61 82  1  0  0  0  0
 62 64  1  0  0  0  0
 62 72  1  0  0  0  0
 63 74  1  0  0  0  0
 65 66  1  0  0  0  0
M  CHG  1  74   1
M  ISO  4  38 100  60 101  73 100  81 101
M  END
> <Batch ID>
0153

> <Smiles>
CNC(C)C(=O)NC(C(=O)N1Cc2cc([101O:1][101CH2:1]COc3cc(C)cc4c3CCC4[100NH:0][100C:0](=O)N3CCCC(n4nc(-c5ccc(Oc6ccc(F)cc6F)cc5)c(C(N)=O)c4N)C3)ccc2CC1C(=O)NC1CCCc2ccccc21)C(C)(C)C

> <Shape>
0.275

> <Color>
0.204

> <Negative vol penalty>
0.000

$$$$

  -OEChem-04052321483D

 85 94  0     1  0  0  0  0  0999 V2000
  -25.8431   -5.5706   22.0676 C   0  0  0  0  0  0  0  0  0  0  0  0
  -25.3038   -6.8480   22.1809 C   0  0  0  0  0  0  0  0  0  0  0  0
  -22.7375  -29.0849   20.8281 C   0  0  0  0  0  0  0  0  0  0  0  0
  -24.1242  -29.1465   22.8055 C   0  0  0  0  0  0  0  0  0  0  0  0
  -27.2174   -5.3807   22.2057 C   0  0  0  0  0  0  0  0  0  0  0  0
  -26.1384   -7.9361   22.4334 C   0  0  0  0  0  0  0  0  0  0  0  0
  -25.0583  -11.9315   19.5153 C   0  0  0  0  0  0  0  0  0  0  0  0
  -21.6537  -29.5488   21.5736 C   0  0  0  0  0  0  0  0  0  0  0  0
  -23.0404  -29.6105   23.5510 C   0  0  0  0  0  0  0  0  0  0  0  0
  -23.9548  -12.7035   19.8758 C   0  0  0  0  0  0  0  0  0  0  0  0
  -19.3955  -28.2756   23.7425 C   0  0  0  0  0  0  0  0  0  0  0  0
  -18.1654  -27.6444   23.5583 C   0  0  0  0  0  0  0  0  0  0  0  0
  -25.4261  -14.3170   20.9010 C   0  0  0  0  0  0  0  0  0  0  0  0
  -21.9490  -17.5144   18.4194 C   0  0  0  0  0  0  0  0  0  0  0  0
  -17.1959  -29.7407   22.8492 C   0  0  0  0  0  0  0  0  0  0  0  0
  -22.6925  -17.8034   20.6600 C   0  0  0  0  0  0  0  0  0  0  0  0
  -23.9727  -28.8837   21.4440 C   0  0  0  0  0  0  0  0  0  0  0  0
  -25.6827  -29.0223   19.5561 C   0  0  0  0  0  0  0  0  0  0  0  0
  -28.0705   -6.4684   22.4505 C   0  0  0  0  0  0  0  0  0  0  0  0
  -26.3555  -12.3417   19.8551 C   0  0  0  0  0  0  0  0  0  0  0  0
  -27.5253   -7.7604   22.5763 C   0  0  0  0  0  0  0  0  0  0  0  0
  -26.5445  -13.5497   20.5414 C   0  0  0  0  0  0  0  0  0  0  0  0
  -21.9371  -17.0899   19.7434 C   0  0  0  0  0  0  0  0  0  0  0  0
  -22.7052  -18.6237   18.0575 C   0  0  0  0  0  0  0  0  0  0  0  0
  -21.8052  -29.8116   22.9351 C   0  0  0  0  0  0  0  0  0  0  0  0
  -24.1383  -13.8950   20.5713 C   0  0  0  0  0  0  0  0  0  0  0  0
  -19.5258  -29.6395   23.4802 C   0  0  0  0  0  0  0  0  0  0  0  0
  -17.0656  -28.3769   23.1116 C   0  0  0  0  0  0  0  0  0  0  0  0
  -18.4260  -30.3719   23.0335 C   0  0  0  0  0  0  0  0  0  0  0  0
  -25.0925  -28.4039   20.6745 C   0  0  0  0  0  0  0  0  0  0  0  0
  -23.4261  -19.2686   19.0496 C   0  0  0  0  0  0  0  0  0  0  0  0
  -26.7009  -28.1751   19.1928 C   0  0  0  0  0  0  0  0  0  0  0  0
  -25.3412  -30.2527   18.9039 C   0  0  0  0  0  0  0  0  0  0  0  0
  -28.6908  -11.1412   21.6465 C   0  0  0  0  0  0  0  0  0  0  0  0
  -30.3669  -13.6488   20.4529 C   0  0  0  0  0  0  0  0  0  0  0  0
  -30.7100  -17.0903   19.4253 C   0  0  0  0  0  0  0  0  0  0  0  0
  -27.7039  -22.4279   19.8321 C   0  0  0  0  0  0  0  0  0  0  0  0
  -29.5438   -6.2072   22.6393 C   0  0  0  0  0  0  0  0  0  0  0  0
  -27.5372  -11.5110   19.4355 C   0  0  0  0  0  0  0  0  0  0  0  0
  -27.9179  -14.0446   20.9121 C   0  0  0  0  0  0  0  0  0  0  0  0
  -30.4037   -7.4641   22.5335 C   0  0  0  0  0  0  0  0  0  0  0  0
  -29.7389  -24.9643   21.0041 C   0  0  0  0  0  0  0  0  0  0  0  0
  -29.7933   -8.5988   23.3501 C   0  0  0  0  0  0  0  0  0  0  0  0
  -28.8454  -26.2031   20.9462 C   0  0  0  0  0  0  0  0  0  0  0  0
  -24.3225  -21.4887   19.8799 C   0  0  0  0  0  0  0  0  0  0  0  0
  -25.6893  -20.0972   18.2658 C   0  0  0  0  0  0  0  0  0  0  0  0
  -28.9604  -23.7529   21.5042 C   0  0  0  0  0  0  0  0  0  0  0  0
  -25.2006  -22.6982   19.5465 C   0  0  0  0  0  0  0  0  0  0  0  0
  -26.5154  -21.3412   17.9518 C   0  0  0  0  0  0  0  0  0  0  0  0
  -26.8375  -24.6735   20.6302 C   0  0  0  0  0  0  0  0  0  0  0  0
  -28.4009   -8.9692   22.8252 C   0  0  1  0  0  0  0  0  0  0  0  0
  -24.2685  -20.4849   18.7142 C   0  0  0  0  0  0  0  0  0  0  0  0
  -28.7791  -11.7674   20.2835 C   0  0  1  0  0  0  0  0  0  0  0  0
  -27.5741  -25.9300   20.1230 C   0  0  1  0  0  0  0  0  0  0  0  0
  -22.7239  -19.0827   16.6404 C   0  0  0  0  0  0  0  0  0  0  0  0
  -32.6557  -18.3016   18.4034 C   0  0  0  0  0  0  0  0  0  0  0  0
  -31.0294  -14.4147   23.3312 C   0  0  0  0  0  0  0  0  0  0  0  0
  -31.7132  -16.6748   22.4989 C   0  0  0  0  0  0  0  0  0  0  0  0
  -32.9343  -14.6412   21.7267 C   0  0  0  0  0  0  0  0  0  0  0  0
  -29.0888  -17.9868   17.1172 C   0  0  0  0  0  0  0  0  0  0  0  0
  -21.1381  -15.9078   20.1629 C   0  0  0  0  0  0  0  0  0  0  0  0
  -21.9192  -14.5912   20.0749 C   0  0  0  0  0  0  0  0  0  1  0  0
  -30.5947  -15.0803   20.8748 C   0  0  1  0  0  0  0  0  0  0  0  0
  -31.3349  -17.5962   18.1376 C   0  0  2  0  0  0  0  0  0  0  0  0
  -31.5418  -15.1927   22.1027 C   0  0  0  0  0  0  0  0  0  0  0  0
  -23.4394  -18.8857   20.3461 N   0  0  0  0  0  0  0  0  0  0  0  0
  -25.6861  -27.2526   21.0003 N   0  0  0  0  0  0  0  0  0  0  0  0
  -26.6600  -27.1408   20.0809 N   0  0  0  0  0  0  0  0  0  0  0  0
  -29.0411  -13.1939   20.4852 N   0  0  0  0  0  0  0  0  0  0  0  0
  -27.7595  -23.5292   20.6995 N   0  0  0  0  0  0  0  0  0  0  0  0
  -26.5271  -22.2653   19.0855 N   0  0  0  0  0  0  0  0  0  0  0  0
  -27.6183  -28.2214   18.2035 N   0  0  0  0  0  0  0  0  0  0  0  0
  -25.9536  -31.4343   19.3435 N   0  0  0  0  0  0  0  0  0  0  0  0
  -28.5100   -9.7714   21.6256 N   0  0  0  0  0  0  0  0  0  0  0  0
  -31.0683  -15.7851   19.6884 N   0  0  0  0  0  0  0  0  0  0  0  0
  -30.4182  -18.5553   17.4589 N   0  3  0  0  0  0  0  0  0  0  0  0
  -24.5052  -30.3051   17.9702 O   0  0  0  0  0  0  0  0  0  0  0  0
  -28.7814  -11.8482   22.6433 O   0  0  0  0  0  0  0  0  0  0  0  0
  -31.3290  -12.9618   20.1007 O   0  0  0  0  0  0  0  0  0  0  0  0
  -29.9802  -17.7848   20.1292 O   0  0  0  0  0  0  0  0  0  0  0  0
  -28.6496  -21.6365   19.7295 O   0  0  0  0  0  0  0  0  0  0  0  0
  -20.7479  -30.2645   23.6628 O   0  0  0  0  0  0  0  0  0  0  0  0
  -23.0553  -14.6554   20.9274 O   0  0  0  0  0  0  0  0  0  1  0  0
  -15.8848  -27.7702   22.9333 F   0  0  0  0  0  0  0  0  0  0  0  0
  -18.5453  -31.6821   22.7787 F   0  0  0  0  0  0  0  0  0  0  0  0
  1  2  1  0  0  0  0
  1  5  2  0  0  0  0
  2  6  2  0  0  0  0
  3  8  2  0  0  0  0
  3 17  1  0  0  0  0
  4  9  1  0  0  0  0
  4 17  2  0  0  0  0
  5 19  1  0  0  0  0
  6 21  1  0  0  0  0
  7 10  2  0  0  0  0
  7 20  1  0  0  0  0
  8 25  1  0  0  0  0
  9 25  2  0  0  0  0
 10 26  1  0  0  0  0
 11 12  2  0  0  0  0
 11 27  1  0  0  0  0
 12 28  1  0  0  0  0
 13 22  1  0  0  0  0
 13 26  2  0  0  0  0
 14 23  2  0  0  0  0
 14 24  1  0  0  0  0
 15 28  2  0  0  0  0
 15 29  1  0  0  0  0
 16 23  1  0  0  0  0
 16 66  2  0  0  0  0
 17 30  1  0  0  0  0
 18 30  1  0  0  0  0
 18 32  2  0  0  0  0
 18 33  1  0  0  0  0
 19 21  2  0  0  0  0
 19 38  1  0  0  0  0
 20 22  2  0  0  0  0
 20 39  1  0  0  0  0
 21 51  1  0  0  0  0
 22 40  1  0  0  0  0
 23 61  1  0  0  0  0
 24 31  2  0  0  0  0
 24 55  1  0  0  0  0
 25 82  1  0  0  0  0
 26 83  1  0  0  0  0
 27 29  2  0  0  0  0
 27 82  1  0  0  0  0
 28 84  1  0  0  0  0
 29 85  1  0  0  0  0
 30 67  2  0  0  0  0
 31 52  1  0  0  0  0
 31 66  1  0  0  0  0
 32 68  1  0  0  0  0
 32 72  1  0  0  0  0
 33 73  1  0  0  0  0
 33 77  2  0  0  0  0
 34 53  1  0  0  0  0
 34 74  1  0  0  0  0
 34 78  2  0  0  0  0
 35 63  1  0  0  0  0
 35 69  1  0  0  0  0
 35 79  2  0  0  0  0
 36 64  1  0  0  0  0
 36 75  1  0  0  0  0
 36 80  2  0  0  0  0
 37 70  1  0  0  0  0
 37 71  1  0  0  0  0
 37 81  2  0  0  0  0
 38 41  1  0  0  0  0
 39 53  1  0  0  0  0
 40 69  1  0  0  0  0
 41 43  1  0  0  0  0
 42 44  1  0  0  0  0
 42 47  1  0  0  0  0
 43 51  1  0  0  0  0
 44 54  1  0  0  0  0
 45 48  1  0  0  0  0
 45 52  1  0  0  0  0
 46 49  1  0  0  0  0
 46 52  1  0  0  0  0
 47 70  1  0  0  0  0
 48 71  1  0  0  0  0
 49 71  1  0  0  0  0
 50 54  1  0  0  0  0
 50 70  1  0  0  0  0
 51 74  1  0  0  0  0
 53 69  1  0  0  0  0
 54 68  1  0  0  0  0
 56 64  1  0  0  0  0
 57 65  1  0  0  0  0
 58 65  1  0  0  0  0
 59 65  1  0  0  0  0
 60 76  1  0  0  0  0
 61 62  1  0  0  0  0
 62 83  1  0  0  0  0
 63 65  1  0  0  0  0
 63 75  1  0  0  0  0
 64 76  1  0  0  0  0
 67 68  1  0  0  0  0
M  CHG  1  76   1
M  ISO  4  37 100  62 101  71 100  83 101
M  END
> <Batch ID>
0153

> <Smiles>
CNC(C)C(=O)NC(C(=O)N1Cc2cc([101O:1][101CH2:1]Cc3cnc(C4CC[100N:0]([100C:0](=O)N5CCCC(n6nc(-c7ccc(Oc8ccc(F)cc8F)cc7)c(C(N)=O)c6N)C5)CC4)c(C)c3)ccc2CC1C(=O)NC1CCCc2ccccc21)C(C)(C)C

> <Shape>
0.235

> <Color>
0.080

> <Negative vol penalty>
0.000

$$$$

  -OEChem-04052321483D

 93103  0     1  0  0  0  0  0999 V2000
  -32.2156  -29.4088   14.7103 C   0  0  0  0  0  0  0  0  0  0  0  0
  -31.5425  -28.2710   15.1436 C   0  0  0  0  0  0  0  0  0  0  0  0
  -23.8357   -9.9034   22.1104 C   0  0  0  0  0  0  0  0  0  0  0  0
  -24.3618  -11.3387   23.9813 C   0  0  0  0  0  0  0  0  0  0  0  0
  -32.4129  -30.4762   15.5853 C   0  0  0  0  0  0  0  0  0  0  0  0
  -31.0672  -28.1995   16.4525 C   0  0  0  0  0  0  0  0  0  0  0  0
  -27.7900  -18.1124   21.9430 C   0  0  0  0  0  0  0  0  0  0  0  0
  -25.9469  -25.4366   18.3642 C   0  0  0  0  0  0  0  0  0  0  0  0
  -28.6911  -17.3460   22.6821 C   0  0  0  0  0  0  0  0  0  0  0  0
  -23.3192   -8.9496   22.9874 C   0  0  0  0  0  0  0  0  0  0  0  0
  -23.8453  -10.3849   24.8583 C   0  0  0  0  0  0  0  0  0  0  0  0
  -25.7139  -24.1900   18.9434 C   0  0  0  0  0  0  0  0  0  0  0  0
  -20.4697   -8.4623   24.7412 C   0  0  0  0  0  0  0  0  0  0  0  0
  -19.2499   -7.8717   24.4115 C   0  0  0  0  0  0  0  0  0  0  0  0
  -25.7675  -25.2034   21.1318 C   0  0  0  0  0  0  0  0  0  0  0  0
  -20.3099   -5.7009   24.3780 C   0  0  0  0  0  0  0  0  0  0  0  0
  -24.3570  -11.0980   22.6074 C   0  0  0  0  0  0  0  0  0  0  0  0
  -24.1931  -13.1404   21.0878 C   0  0  0  0  0  0  0  0  0  0  0  0
  -31.9313  -30.4217   16.9028 C   0  0  0  0  0  0  0  0  0  0  0  0
  -26.1030  -26.5761   19.1664 C   0  0  0  0  0  0  0  0  0  0  0  0
  -31.2594  -29.2667   17.3464 C   0  0  0  0  0  0  0  0  0  0  0  0
  -28.2554  -19.1496   21.1348 C   0  0  0  0  0  0  0  0  0  0  0  0
  -25.9998  -26.4638   20.5603 C   0  0  0  0  0  0  0  0  0  0  0  0
  -30.0576  -17.6169   22.6131 C   0  0  0  0  0  0  0  0  0  0  0  0
  -30.5231  -18.6542   21.8049 C   0  0  0  0  0  0  0  0  0  0  0  0
  -29.6219  -19.4206   21.0658 C   0  0  0  0  0  0  0  0  0  0  0  0
  -23.3240   -9.1903   24.3613 C   0  0  0  0  0  0  0  0  0  0  0  0
  -25.6270  -24.0728   20.3275 C   0  0  0  0  0  0  0  0  0  0  0  0
  -21.6097   -7.6722   24.8892 C   0  0  0  0  0  0  0  0  0  0  0  0
  -19.1699   -6.4910   24.2299 C   0  0  0  0  0  0  0  0  0  0  0  0
  -21.5298   -6.2915   24.7077 C   0  0  0  0  0  0  0  0  0  0  0  0
  -24.8912  -12.0835   21.7021 C   0  0  0  0  0  0  0  0  0  0  0  0
  -25.1410  -13.7829   20.3294 C   0  0  0  0  0  0  0  0  0  0  0  0
  -22.8115  -13.5086   21.1933 C   0  0  0  0  0  0  0  0  0  0  0  0
  -28.4479  -28.6630   19.6667 C   0  0  0  0  0  0  0  0  0  0  0  0
  -26.1923  -30.1821   21.4351 C   0  0  0  0  0  0  0  0  0  0  0  0
  -23.2982  -29.9794   23.2323 C   0  0  0  0  0  0  0  0  0  0  0  0
  -31.1013  -14.1844   20.7345 C   0  0  0  0  0  0  0  0  0  0  0  0
  -32.2101  -31.5811   17.8262 C   0  0  0  0  0  0  0  0  0  0  0  0
  -26.3272  -27.9180   18.5249 C   0  0  0  0  0  0  0  0  0  0  0  0
  -26.1399  -27.6599   21.4648 C   0  0  0  0  0  0  0  0  0  0  0  0
  -31.3470  -31.5782   19.0853 C   0  0  0  0  0  0  0  0  0  0  0  0
  -29.2205  -12.9763   17.9633 C   0  0  0  0  0  0  0  0  0  0  0  0
  -31.3212  -30.1876   19.7115 C   0  0  0  0  0  0  0  0  0  0  0  0
  -30.8291  -21.4816   16.7287 C   0  0  0  0  0  0  0  0  0  0  0  0
  -27.8347  -12.7059   18.5518 C   0  0  0  0  0  0  0  0  0  0  0  0
  -31.3698  -22.7514   16.0732 C   0  0  0  0  0  0  0  0  0  0  0  0
  -25.8450  -20.3656   20.9618 C   0  0  0  0  0  0  0  0  0  0  0  0
  -27.4302  -21.5381   20.1687 C   0  0  0  0  0  0  0  0  0  0  0  0
  -30.3307  -12.6410   18.9567 C   0  0  0  0  0  0  0  0  0  0  0  0
  -28.8149  -13.0215   20.8623 C   0  0  0  0  0  0  0  0  0  0  0  0
  -32.3344  -21.8849   18.7129 C   0  0  0  0  0  0  0  0  0  0  0  0
  -27.2094  -20.0044   20.3074 C   0  0  0  0  0  0  0  0  0  0  0  0
  -30.7072  -29.1615   18.7514 C   0  0  1  0  0  0  0  0  0  0  0  0
  -26.9827  -28.9267   19.4631 C   0  0  1  0  0  0  0  0  0  0  0  0
  -30.9125  -21.5583   18.2589 C   0  0  2  0  0  0  0  0  0  0  0  0
  -27.6607  -13.3974   19.9174 C   0  0  2  0  0  0  0  0  0  0  0  0
  -25.8952  -21.7048   20.1937 C   0  0  0  0  0  0  0  0  0  1  0  0
  -32.7884  -23.0693   16.5433 C   0  0  1  0  0  0  0  0  0  0  0  0
  -31.9903  -18.9422   21.7369 C   0  0  0  0  0  0  0  0  0  0  0  0
  -33.2885  -24.3991   15.9983 C   0  0  0  0  0  0  0  0  0  0  0  0
  -21.7207  -31.3807   24.5906 C   0  0  0  0  0  0  0  0  0  0  0  0
  -28.1778  -30.1672   23.7518 C   0  0  0  0  0  0  0  0  0  0  0  0
  -26.2752  -30.6859   25.2943 C   0  0  0  0  0  0  0  0  0  0  0  0
  -26.8929  -32.2970   23.4929 C   0  0  0  0  0  0  0  0  0  0  0  0
  -21.0421  -29.4235   21.3993 C   0  0  0  0  0  0  0  0  0  0  0  0
  -31.0010  -16.7802   23.4137 C   0  0  0  0  0  0  0  0  0  0  0  0
  -30.4503  -20.2821   18.8756 C   0  0  0  0  0  0  0  0  0  0  0  0
  -31.7268  -15.7141   22.5860 C   0  0  0  0  0  0  0  0  0  0  0  0
  -25.7490  -30.1281   22.8771 C   0  0  1  0  0  0  0  0  0  0  0  0
  -22.0379  -30.8253   23.2109 C   0  0  2  0  0  0  0  0  0  0  0  0
  -26.7730  -30.7965   23.8374 C   0  0  0  0  0  0  0  0  0  0  0  0
  -26.1828  -12.0527   21.3631 N   0  0  0  0  0  0  0  0  0  0  0  0
  -26.3038  -13.0983   20.5275 N   0  0  0  0  0  0  0  0  0  0  0  0
  -26.3644  -28.9491   20.7902 N   0  0  0  0  0  0  0  0  0  0  0  0
  -30.1073  -13.3296   20.2302 N   0  0  0  0  0  0  0  0  0  0  0  0
  -25.0849  -14.8611   19.5189 N   0  0  0  0  0  0  0  0  0  0  0  0
  -21.9764  -12.7406   22.0163 N   0  0  0  0  0  0  0  0  0  0  0  0
  -30.0894  -20.4722   20.2444 N   0  0  0  0  0  0  0  0  0  0  0  0
  -29.2650  -29.2806   18.7392 N   0  0  0  0  0  0  0  0  0  0  0  0
  -24.4168  -30.7215   22.9171 N   0  0  0  0  0  0  0  0  0  0  0  0
  -30.8066  -14.8022   21.9437 N   0  0  0  0  0  0  0  0  0  0  0  0
  -32.7923  -23.1396   18.0422 N   0  3  0  0  0  0  0  0  0  0  0  0
  -20.8760  -30.0122   22.7531 N   0  3  0  0  0  0  0  0  0  0  0  0
  -22.3280  -14.4795   20.5632 O   0  0  0  0  0  0  0  0  0  0  0  0
  -28.8103  -27.9530   20.5974 O   0  0  0  0  0  0  0  0  0  0  0  0
  -26.3722  -31.2781   20.8983 O   0  0  0  0  0  0  0  0  0  0  0  0
  -23.2916  -28.7811   23.5052 O   0  0  0  0  0  0  0  0  0  0  0  0
  -32.1699  -14.3864   20.1478 O   0  0  0  0  0  0  0  0  0  0  0  0
  -22.8199   -8.2599   25.2173 O   0  0  0  0  0  0  0  0  0  0  0  0
  -25.4004  -22.8571   20.8955 O   0  0  0  0  0  0  0  0  0  1  0  0
  -17.9981   -5.9238   23.9148 F   0  0  0  0  0  0  0  0  0  0  0  0
  -22.6213   -5.5271   24.8497 F   0  0  0  0  0  0  0  0  0  0  0  0
  1  2  1  0  0  0  0
  1  5  2  0  0  0  0
  2  6  2  0  0  0  0
  3 10  2  0  0  0  0
  3 17  1  0  0  0  0
  4 11  1  0  0  0  0
  4 17  2  0  0  0  0
  5 19  1  0  0  0  0
  6 21  1  0  0  0  0
  7  9  2  0  0  0  0
  7 22  1  0  0  0  0
  8 12  2  0  0  0  0
  8 20  1  0  0  0  0
  9 24  1  0  0  0  0
 10 27  1  0  0  0  0
 11 27  2  0  0  0  0
 12 28  1  0  0  0  0
 13 14  2  0  0  0  0
 13 29  1  0  0  0  0
 14 30  1  0  0  0  0
 15 23  1  0  0  0  0
 15 28  2  0  0  0  0
 16 30  2  0  0  0  0
 16 31  1  0  0  0  0
 17 32  1  0  0  0  0
 18 32  1  0  0  0  0
 18 33  2  0  0  0  0
 18 34  1  0  0  0  0
 19 21  2  0  0  0  0
 19 39  1  0  0  0  0
 20 23  2  0  0  0  0
 20 40  1  0  0  0  0
 21 54  1  0  0  0  0
 22 26  2  0  0  0  0
 22 53  1  0  0  0  0
 23 41  1  0  0  0  0
 24 25  2  0  0  0  0
 24 67  1  0  0  0  0
 25 26  1  0  0  0  0
 25 60  1  0  0  0  0
 26 79  1  0  0  0  0
 27 90  1  0  0  0  0
 28 91  1  0  0  0  0
 29 31  2  0  0  0  0
 29 90  1  0  0  0  0
 30 92  1  0  0  0  0
 31 93  1  0  0  0  0
 32 73  2  0  0  0  0
 33 74  1  0  0  0  0
 33 77  1  0  0  0  0
 34 78  1  0  0  0  0
 34 85  2  0  0  0  0
 35 55  1  0  0  0  0
 35 80  1  0  0  0  0
 35 86  2  0  0  0  0
 36 70  1  0  0  0  0
 36 75  1  0  0  0  0
 36 87  2  0  0  0  0
 37 71  1  0  0  0  0
 37 81  1  0  0  0  0
 37 88  2  0  0  0  0
 38 76  1  0  0  0  0
 38 82  1  0  0  0  0
 38 89  2  0  0  0  0
 39 42  1  0  0  0  0
 40 55  1  0  0  0  0
 41 75  1  0  0  0  0
 42 44  1  0  0  0  0
 43 46  1  0  0  0  0
 43 50  1  0  0  0  0
 44 54  1  0  0  0  0
 45 47  1  0  0  0  0
 45 56  1  0  0  0  0
 46 57  1  0  0  0  0
 47 59  1  0  0  0  0
 48 53  1  0  0  0  0
 48 58  1  0  0  0  0
 49 53  1  0  0  0  0
 49 58  1  0  0  0  0
 50 76  1  0  0  0  0
 51 57  1  0  0  0  0
 51 76  1  0  0  0  0
 52 56  1  0  0  0  0
 52 83  1  0  0  0  0
 54 80  1  0  0  0  0
 55 75  1  0  0  0  0
 56 68  1  0  0  0  0
 57 74  1  0  0  0  0
 58 91  1  0  0  0  0
 59 61  1  0  0  0  0
 59 83  1  0  0  0  0
 62 71  1  0  0  0  0
 63 72  1  0  0  0  0
 64 72  1  0  0  0  0
 65 72  1  0  0  0  0
 66 84  1  0  0  0  0
 67 69  1  0  0  0  0
 68 79  1  0  0  0  0
 69 82  1  0  0  0  0
 70 72  1  0  0  0  0
 70 81  1  0  0  0  0
 71 84  1  0  0  0  0
 73 74  1  0  0  0  0
M  CHG  2  83   1  84   1
M  ISO  4  38 100  58 101  82 100  91 101
M  END
> <Batch ID>
0153

> <Smiles>
CNC(C)C(=O)NC(C(=O)N1Cc2cc([101O:1][101CH:1]3CC(c4ccc(CC[100NH:0][100C:0](=O)N5CCCC(n6nc(-c7ccc(Oc8ccc(F)cc8F)cc7)c(C(N)=O)c6N)C5)c(C)c4NCC4CCC(C)NC4)C3)ccc2CC1C(=O)NC1CCCc2ccccc21)C(C)(C)C

> <Shape>
0.286

> <Color>
0.158

> <Negative vol penalty>
0.000

$$$$

  -OEChem-04052321483D

 87 97  0     1  0  0  0  0  0999 V2000
  -28.9513  -22.9806   17.5963 C   0  0  0  0  0  0  0  0  0  0  0  0
  -27.7761  -23.1731   18.3154 C   0  0  0  0  0  0  0  0  0  0  0  0
  -28.3495  -14.1108   19.1636 C   0  0  0  0  0  0  0  0  0  0  0  0
  -28.3975  -14.2433   21.5755 C   0  0  0  0  0  0  0  0  0  0  0  0
  -30.1070  -23.6743   17.9530 C   0  0  0  0  0  0  0  0  0  0  0  0
  -27.7561  -24.0585   19.3924 C   0  0  0  0  0  0  0  0  0  0  0  0
  -23.6747  -27.0563   19.3673 C   0  0  0  0  0  0  0  0  0  0  0  0
  -29.6825  -14.5184   19.1146 C   0  0  0  0  0  0  0  0  0  0  0  0
  -29.7306  -14.6508   21.5266 C   0  0  0  0  0  0  0  0  0  0  0  0
  -22.4747  -26.5018   19.8102 C   0  0  0  0  0  0  0  0  0  0  0  0
  -33.0387  -16.0727   22.0213 C   0  0  0  0  0  0  0  0  0  0  0  0
  -21.4697  -23.9144   21.7430 C   0  0  0  0  0  0  0  0  0  0  0  0
  -33.4198  -17.1425   22.8312 C   0  0  0  0  0  0  0  0  0  0  0  0
  -21.2217  -22.5767   21.4555 C   0  0  0  0  0  0  0  0  0  0  0  0
  -22.7832  -27.5622   21.9549 C   0  0  0  0  0  0  0  0  0  0  0  0
  -31.8270  -18.5651   21.7013 C   0  0  0  0  0  0  0  0  0  0  0  0
  -27.7069  -13.9733   20.3940 C   0  0  0  0  0  0  0  0  0  0  0  0
  -25.8461  -12.2334   20.5275 C   0  0  0  0  0  0  0  0  0  0  0  0
  -30.0987  -24.5759   19.0289 C   0  0  0  0  0  0  0  0  0  0  0  0
  -24.4447  -27.8604   20.2199 C   0  0  0  0  0  0  0  0  0  0  0  0
  -28.9131  -24.7639   19.7647 C   0  0  0  0  0  0  0  0  0  0  0  0
  -23.9914  -28.1279   21.5195 C   0  0  0  0  0  0  0  0  0  0  0  0
  -30.3732  -14.7883   20.2961 C   0  0  0  0  0  0  0  0  0  0  0  0
  -22.0302  -26.7524   21.1051 C   0  0  0  0  0  0  0  0  0  0  0  0
  -32.0518  -16.2490   21.0514 C   0  0  0  0  0  0  0  0  0  0  0  0
  -20.6021  -24.8935   21.2717 C   0  0  0  0  0  0  0  0  0  1  0  0
  -32.8140  -18.3887   22.6712 C   0  0  0  0  0  0  0  0  0  0  0  0
  -31.4460  -17.4952   20.8914 C   0  0  0  0  0  0  0  0  0  0  0  0
  -26.3297  -13.5530   20.4452 C   0  0  0  0  0  0  0  0  0  0  0  0
  -19.5096  -24.4860   20.5232 C   0  0  0  0  0  0  0  0  0  0  0  0
  -20.1016  -22.2730   20.6987 C   0  0  0  0  0  0  0  0  0  0  0  0
  -24.4795  -12.3692   20.5481 C   0  0  0  0  0  0  0  0  0  0  0  0
  -26.5678  -10.9956   20.5806 C   0  0  0  0  0  0  0  0  0  0  0  0
  -27.3694  -27.6675   21.4498 C   0  0  0  0  0  0  0  0  0  0  0  0
  -26.6842  -30.6438   22.5427 C   0  0  0  0  0  0  0  0  0  0  0  0
  -24.3096  -32.9333   23.4181 C   0  0  0  0  0  0  0  0  0  0  0  0
  -20.8101  -16.3287   18.4811 C   0  0  0  0  0  0  0  0  0  0  0  0
  -31.3847  -25.2674   19.4066 C   0  0  0  0  0  0  0  0  0  0  0  0
  -25.7236  -28.4729   19.7182 C   0  0  0  0  0  0  0  0  0  0  0  0
  -24.7709  -29.0010   22.4674 C   0  0  0  0  0  0  0  0  0  0  0  0
  -31.1830  -26.4688   20.3265 C   0  0  0  0  0  0  0  0  0  0  0  0
  -17.2523  -17.3464   18.3015 C   0  0  0  0  0  0  0  0  0  0  0  0
  -21.0292  -15.4032   21.8615 C   0  0  0  0  0  0  0  0  0  0  0  0
  -30.2288  -26.1164   21.4633 C   0  0  0  0  0  0  0  0  0  0  0  0
  -17.9067  -26.4634   20.9645 C   0  0  0  0  0  0  0  0  0  0  0  0
  -17.0920  -25.3788   20.3319 C   0  0  0  0  0  0  0  0  0  0  0  0
  -17.3257  -18.8439   18.5886 C   0  0  0  0  0  0  0  0  0  0  0  0
  -22.3794  -14.6877   21.8937 C   0  0  0  0  0  0  0  0  0  0  0  0
  -18.5369  -16.8297   17.6628 C   0  0  0  0  0  0  0  0  0  0  0  0
  -21.0643  -16.6535   20.9811 C   0  0  0  0  0  0  0  0  0  0  0  0
  -19.8324  -18.6429   18.7371 C   0  0  0  0  0  0  0  0  0  0  0  0
  -22.9054  -15.6913   19.6389 C   0  0  0  0  0  0  0  0  0  0  0  0
  -28.8452  -25.7345   20.9238 C   0  0  1  0  0  0  0  0  0  0  0  0
  -18.5539  -25.5078   19.9988 C   0  0  0  0  0  0  0  0  0  0  0  0
  -26.6828  -28.8571   20.8406 C   0  0  1  0  0  0  0  0  0  0  0  0
  -18.5712  -19.1875   19.4163 C   0  0  1  0  0  0  0  0  0  0  0  0
  -22.8853  -14.3984   20.4691 C   0  0  1  0  0  0  0  0  0  0  0  0
  -24.0556  -35.2648   24.3107 C   0  0  0  0  0  0  0  0  0  0  0  0
  -27.4233  -29.6537   25.3325 C   0  0  0  0  0  0  0  0  0  0  0  0
  -26.2676  -31.6641   26.2763 C   0  0  0  0  0  0  0  0  0  0  0  0
  -28.2490  -31.9507   24.7881 C   0  0  0  0  0  0  0  0  0  0  0  0
  -22.8696  -33.8293   20.9928 C   0  0  0  0  0  0  0  0  0  0  0  0
  -18.6809  -20.6962   19.6258 C   0  0  0  0  0  0  0  0  0  0  0  0
  -26.0485  -31.2038   23.7921 C   0  0  1  0  0  0  0  0  0  0  0  0
  -24.1452  -34.4000   23.0630 C   0  0  2  0  0  0  0  0  0  0  0  0
  -26.9831  -31.1000   25.0303 C   0  0  0  0  0  0  0  0  0  0  0  0
  -25.3499  -14.4603   20.4154 N   0  0  0  0  0  0  0  0  0  0  0  0
  -19.2361  -23.1965   20.2236 N   0  0  0  0  0  0  0  0  0  0  0  0
  -24.2370  -13.7096   20.4793 N   0  0  0  0  0  0  0  0  0  0  0  0
  -26.0181  -29.5717   21.9323 N   0  0  0  0  0  0  0  0  0  0  0  0
  -19.7138  -17.2066   18.4452 N   0  0  0  0  0  0  0  0  0  0  0  0
  -21.5907  -16.3362   19.6469 N   0  0  0  0  0  0  0  0  0  0  0  0
  -23.4736  -11.4716   20.6182 N   0  0  0  0  0  0  0  0  0  0  0  0
  -27.9684  -11.0369   20.5497 N   0  0  0  0  0  0  0  0  0  0  0  0
  -28.1039  -26.9197   20.5493 N   0  0  0  0  0  0  0  0  0  0  0  0
  -25.6376  -32.5652   23.4661 N   0  0  0  0  0  0  0  0  0  0  0  0
  -22.9059  -34.6029   22.2605 N   0  3  0  0  0  0  0  0  0  0  0  0
  -25.9874   -9.8850   20.6368 O   0  0  0  0  0  0  0  0  0  0  0  0
  -27.2435  -27.4454   22.6483 O   0  0  0  0  0  0  0  0  0  0  0  0
  -27.7295  -31.1440   22.1197 O   0  0  0  0  0  0  0  0  0  0  0  0
  -23.3556  -32.1894   23.6352 O   0  0  0  0  0  0  0  0  0  0  0  0
  -21.0724  -15.5818   17.5301 O   0  0  0  0  0  0  0  0  0  0  0  0
  -31.6741  -15.1857   20.2487 O   0  0  0  0  0  0  0  0  0  0  0  0
  -20.8376  -26.2017   21.5484 O   0  0  0  0  0  0  0  0  0  1  0  0
  -19.8355  -20.9590   20.4011 O   0  0  0  0  0  0  0  0  0  0  0  0
  -33.1789  -19.4155   23.4500 F   0  0  0  0  0  0  0  0  0  0  0  0
  -30.4965  -17.6705   19.9622 F   0  0  0  0  0  0  0  0  0  0  0  0
  1  2  1  0  0  0  0
  1  5  2  0  0  0  0
  2  6  2  0  0  0  0
  3  8  2  0  0  0  0
  3 17  1  0  0  0  0
  4  9  1  0  0  0  0
  4 17  2  0  0  0  0
  5 19  1  0  0  0  0
  6 21  1  0  0  0  0
  7 10  2  0  0  0  0
  7 20  1  0  0  0  0
  8 23  1  0  0  0  0
  9 23  2  0  0  0  0
 10 24  1  0  0  0  0
 11 13  2  0  0  0  0
 11 25  1  0  0  0  0
 12 14  2  0  0  0  0
 12 26  1  0  0  0  0
 13 27  1  0  0  0  0
 14 31  1  0  0  0  0
 15 22  1  0  0  0  0
 15 24  2  0  0  0  0
 16 27  2  0  0  0  0
 16 28  1  0  0  0  0
 17 29  1  0  0  0  0
 18 29  1  0  0  0  0
 18 32  2  0  0  0  0
 18 33  1  0  0  0  0
 19 21  2  0  0  0  0
 19 38  1  0  0  0  0
 20 22  2  0  0  0  0
 20 39  1  0  0  0  0
 21 53  1  0  0  0  0
 22 40  1  0  0  0  0
 23 83  1  0  0  0  0
 24 84  1  0  0  0  0
 25 28  2  0  0  0  0
 25 83  1  0  0  0  0
 26 30  2  0  0  0  0
 26 84  1  0  0  0  0
 27 86  1  0  0  0  0
 28 87  1  0  0  0  0
 29 67  2  0  0  0  0
 30 54  1  0  0  0  0
 30 68  1  0  0  0  0
 31 68  2  0  0  0  0
 31 85  1  0  0  0  0
 32 69  1  0  0  0  0
 32 73  1  0  0  0  0
 33 74  1  0  0  0  0
 33 78  2  0  0  0  0
 34 55  1  0  0  0  0
 34 75  1  0  0  0  0
 34 79  2  0  0  0  0
 35 64  1  0  0  0  0
 35 70  1  0  0  0  0
 35 80  2  0  0  0  0
 36 65  1  0  0  0  0
 36 76  1  0  0  0  0
 36 81  2  0  0  0  0
 37 71  1  0  0  0  0
 37 72  1  0  0  0  0
 37 82  2  0  0  0  0
 38 41  1  0  0  0  0
 39 55  1  0  0  0  0
 40 70  1  0  0  0  0
 41 44  1  0  0  0  0
 42 47  1  0  0  0  0
 42 49  1  0  0  0  0
 43 48  1  0  0  0  0
 43 50  1  0  0  0  0
 44 53  1  0  0  0  0
 45 46  1  0  0  0  0
 45 54  1  0  0  0  0
 46 54  1  0  0  0  0
 47 56  1  0  0  0  0
 48 57  1  0  0  0  0
 49 71  1  0  0  0  0
 50 72  1  0  0  0  0
 51 56  1  0  0  0  0
 51 71  1  0  0  0  0
 52 57  1  0  0  0  0
 52 72  1  0  0  0  0
 53 75  1  0  0  0  0
 55 70  1  0  0  0  0
 56 63  1  0  0  0  0
 57 69  1  0  0  0  0
 58 65  1  0  0  0  0
 59 66  1  0  0  0  0
 60 66  1  0  0  0  0
 61 66  1  0  0  0  0
 62 77  1  0  0  0  0
 63 85  1  0  0  0  0
 64 66  1  0  0  0  0
 64 76  1  0  0  0  0
 65 77  1  0  0  0  0
 67 69  1  0  0  0  0
M  CHG  1  77   1
M  ISO  4  26 101  37 100  71 100  84 101
M  END
> <Batch ID>
0153

> <Smiles>
CNC(C)C(=O)NC(C(=O)N1Cc2cc([101O:1][101c:1]3ccc(OCC4CCC[100N:0]([100C:0](=O)N5CCCC(n6nc(-c7ccc(Oc8ccc(F)cc8F)cc7)c(C(N)=O)c6N)C5)C4)nc3C3CC3)ccc2CC1C(=O)NC1CCCc2ccccc21)C(C)(C)C

> <Shape>
0.269

> <Color>
0.077

> <Negative vol penalty>
0.000

$$$$

  -OEChem-04052321483D

 90 99  0     1  0  0  0  0  0999 V2000
  -25.9346  -30.6855   17.7873 C   0  0  0  0  0  0  0  0  0  0  0  0
  -25.9082  -29.3382   18.1330 C   0  0  0  0  0  0  0  0  0  0  0  0
  -22.6052  -10.3200   20.2533 C   0  0  0  0  0  0  0  0  0  0  0  0
  -24.3228   -9.3607   21.6557 C   0  0  0  0  0  0  0  0  0  0  0  0
  -25.2322  -31.6145   18.5538 C   0  0  0  0  0  0  0  0  0  0  0  0
  -25.1802  -28.9193   19.2461 C   0  0  0  0  0  0  0  0  0  0  0  0
  -22.4409  -24.7612   18.3232 C   0  0  0  0  0  0  0  0  0  0  0  0
  -21.8387   -9.1641   20.4013 C   0  0  0  0  0  0  0  0  0  0  0  0
  -23.5563   -8.2048   21.8038 C   0  0  0  0  0  0  0  0  0  0  0  0
  -23.1171  -23.5420   18.3156 C   0  0  0  0  0  0  0  0  0  0  0  0
  -21.8922   -5.1447   22.8454 C   0  0  0  0  0  0  0  0  0  0  0  0
  -21.7738   -4.6037   24.1256 C   0  0  0  0  0  0  0  0  0  0  0  0
  -22.3430  -23.1055   20.5583 C   0  0  0  0  0  0  0  0  0  0  0  0
  -20.7689   -6.6593   24.9014 C   0  0  0  0  0  0  0  0  0  0  0  0
  -25.7213  -22.6234   20.3264 C   0  0  0  0  0  0  0  0  0  0  0  0
  -23.8473  -10.4183   20.8804 C   0  0  0  0  0  0  0  0  0  0  0  0
  -24.2823  -12.9227   21.0958 C   0  0  0  0  0  0  0  0  0  0  0  0
  -24.4874  -31.2055   19.6712 C   0  0  0  0  0  0  0  0  0  0  0  0
  -21.7185  -25.1673   19.4544 C   0  0  0  0  0  0  0  0  0  0  0  0
  -24.4683  -29.8439   20.0290 C   0  0  0  0  0  0  0  0  0  0  0  0
  -21.6564  -24.3292   20.5768 C   0  0  0  0  0  0  0  0  0  0  0  0
  -25.9253  -20.4100   19.9661 C   0  0  0  0  0  0  0  0  0  0  0  0
  -22.3142   -8.1065   21.1766 C   0  0  0  0  0  0  0  0  0  0  0  0
  -23.0706  -22.7152   19.4343 C   0  0  0  0  0  0  0  0  0  0  0  0
  -21.4490   -6.4431   22.5932 C   0  0  0  0  0  0  0  0  0  0  0  0
  -25.0410  -21.5134   19.8768 C   0  0  0  0  0  0  0  0  0  1  0  0
  -21.2122   -5.3610   25.1536 C   0  0  0  0  0  0  0  0  0  0  0  0
  -20.8873   -7.2004   23.6211 C   0  0  0  0  0  0  0  0  0  0  0  0
  -24.6398  -11.6119   20.7274 C   0  0  0  0  0  0  0  0  0  0  0  0
  -27.1194  -20.8795   20.4671 C   0  0  0  0  0  0  0  0  0  0  0  0
  -25.3687  -13.6864   20.7449 C   0  0  0  0  0  0  0  0  0  0  0  0
  -23.0760  -13.4068   21.7010 C   0  0  0  0  0  0  0  0  0  0  0  0
  -21.9126  -27.6065   21.4834 C   0  0  0  0  0  0  0  0  0  0  0  0
  -19.1561  -26.3526   22.6461 C   0  0  0  0  0  0  0  0  0  0  0  0
  -17.8528  -23.0642   23.3568 C   0  0  0  0  0  0  0  0  0  0  0  0
  -30.8855  -14.5103   20.5689 C   0  0  0  0  0  0  0  0  0  0  0  0
  -23.7827  -32.2526   20.4968 C   0  0  0  0  0  0  0  0  0  0  0  0
  -20.9725  -26.4733   19.4369 C   0  0  0  0  0  0  0  0  0  0  0  0
  -20.8781  -24.7098   21.8087 C   0  0  0  0  0  0  0  0  0  0  0  0
  -22.7311  -31.6771   21.4418 C   0  0  0  0  0  0  0  0  0  0  0  0
  -29.4447  -12.5381   17.9783 C   0  0  0  0  0  0  0  0  0  0  0  0
  -23.2880  -30.4689   22.1881 C   0  0  0  0  0  0  0  0  0  0  0  0
  -28.0397  -12.2245   18.4957 C   0  0  0  0  0  0  0  0  0  0  0  0
  -29.0350  -19.4588   19.5567 C   0  0  0  0  0  0  0  0  0  0  0  0
  -30.4719  -12.5528   19.1081 C   0  0  0  0  0  0  0  0  0  0  0  0
  -28.7312  -13.1246   20.7564 C   0  0  0  0  0  0  0  0  0  0  0  0
  -30.0516  -18.5380   20.1985 C   0  0  0  0  0  0  0  0  0  0  0  0
  -28.2640  -19.0254   21.7969 C   0  0  0  0  0  0  0  0  0  0  0  0
  -23.6700  -29.3472   21.2148 C   0  0  1  0  0  0  0  0  0  0  0  0
  -28.4048  -20.1475   20.7655 C   0  0  2  0  0  0  0  0  0  0  0  0
  -20.6916  -27.0198   20.8332 C   0  0  1  0  0  0  0  0  0  0  0  0
  -27.6511  -13.1537   19.6614 C   0  0  2  0  0  0  0  0  0  0  0  0
  -25.6214  -19.0141   19.5909 C   0  0  0  0  0  0  0  0  0  0  0  0
  -15.4890  -22.2238   23.4162 C   0  0  0  0  0  0  0  0  0  0  0  0
  -28.3993  -24.1648   20.1668 C   0  0  0  0  0  0  0  0  0  0  0  0
  -32.1143  -16.0110   23.1888 C   0  0  0  0  0  0  0  0  0  0  0  0
  -27.1683  -22.8076   23.6172 C   0  0  0  0  0  0  0  0  0  0  0  0
  -19.3211  -26.9613   25.6315 C   0  0  0  0  0  0  0  0  0  0  0  0
  -17.9892  -24.8845   26.0575 C   0  0  0  0  0  0  0  0  0  0  0  0
  -16.9952  -26.7525   24.7363 C   0  0  0  0  0  0  0  0  0  0  0  0
  -18.4441  -20.9179   21.4067 C   0  0  0  0  0  0  0  0  0  0  0  0
  -30.2160  -17.5825   22.5234 C   0  0  0  0  0  0  0  0  0  0  0  0
  -18.8081  -25.3280   23.6988 C   0  0  1  0  0  0  0  0  0  0  0  0
  -16.7630  -22.3340   22.5930 C   0  0  2  0  0  0  0  0  0  0  0  0
  -28.0036  -23.1082   21.2061 C   0  0  1  0  0  0  0  0  0  0  0  0
  -31.1491  -16.4516   22.0924 C   0  0  2  0  0  0  0  0  0  0  0  0
  -27.6136  -23.7806   22.5371 C   0  0  1  0  0  0  0  0  0  0  0  0
  -18.3029  -25.9804   25.0166 C   0  0  0  0  0  0  0  0  0  0  0  0
  -25.8580  -11.5431   20.1841 N   0  0  0  0  0  0  0  0  0  0  0  0
  -26.9836  -22.2261   20.6828 N   0  0  0  0  0  0  0  0  0  0  0  0
  -26.2754  -12.8203   20.2084 N   0  0  0  0  0  0  0  0  0  0  0  0
  -20.1707  -25.9994   21.7453 N   0  0  0  0  0  0  0  0  0  0  0  0
  -30.0445  -13.4543   20.1808 N   0  0  0  0  0  0  0  0  0  0  0  0
  -25.6272  -15.0075   20.8461 N   0  0  0  0  0  0  0  0  0  0  0  0
  -22.0605  -12.4868   21.9956 N   0  0  0  0  0  0  0  0  0  0  0  0
  -22.4883  -28.6402   20.7696 N   0  0  0  0  0  0  0  0  0  0  0  0
  -17.8533  -24.4149   23.0798 N   0  0  0  0  0  0  0  0  0  0  0  0
  -30.4017  -15.3210   21.5884 N   0  0  0  0  0  0  0  0  0  0  0  0
  -29.3170  -18.0014   21.4054 N   0  3  2  0  0  0  0  0  0  0  0  0
  -17.2127  -20.9586   22.2367 N   0  3  0  0  0  0  0  0  0  0  0  0
  -22.8972  -14.6216   21.9574 O   0  0  0  0  0  0  0  0  0  0  0  0
  -22.3025  -27.1557   22.5541 O   0  0  0  0  0  0  0  0  0  0  0  0
  -18.5451  -27.4239   22.6196 O   0  0  0  0  0  0  0  0  0  0  0  0
  -18.6240  -22.4940   24.1254 O   0  0  0  0  0  0  0  0  0  0  0  0
  -31.9837  -14.7186   20.0420 O   0  0  0  0  0  0  0  0  0  0  0  0
  -21.5665   -6.9785   21.3215 O   0  0  0  0  0  0  0  0  0  0  0  0
  -23.7303  -21.5250   19.4297 O   0  0  0  0  0  0  0  0  0  1  0  0
  -21.0972   -4.8408   26.3825 F   0  0  0  0  0  0  0  0  0  0  0  0
  -20.4587   -8.4478   23.3846 F   0  0  0  0  0  0  0  0  0  0  0  0
  -26.6075  -24.6732   22.3264 F   0  0  0  0  0  0  0  0  0  0  0  0
  1  2  1  0  0  0  0
  1  5  2  0  0  0  0
  2  6  2  0  0  0  0
  3  8  2  0  0  0  0
  3 16  1  0  0  0  0
  4  9  1  0  0  0  0
  4 16  2  0  0  0  0
  5 18  1  0  0  0  0
  6 20  1  0  0  0  0
  7 10  2  0  0  0  0
  7 19  1  0  0  0  0
  8 23  1  0  0  0  0
  9 23  2  0  0  0  0
 10 24  1  0  0  0  0
 11 12  2  0  0  0  0
 11 25  1  0  0  0  0
 12 27  1  0  0  0  0
 13 21  1  0  0  0  0
 13 24  2  0  0  0  0
 14 27  2  0  0  0  0
 14 28  1  0  0  0  0
 15 26  2  0  0  0  0
 15 70  1  0  0  0  0
 16 29  1  0  0  0  0
 17 29  1  0  0  0  0
 17 31  2  0  0  0  0
 17 32  1  0  0  0  0
 18 20  2  0  0  0  0
 18 37  1  0  0  0  0
 19 21  2  0  0  0  0
 19 38  1  0  0  0  0
 20 49  1  0  0  0  0
 21 39  1  0  0  0  0
 22 26  1  0  0  0  0
 22 30  2  0  0  0  0
 22 53  1  0  0  0  0
 23 86  1  0  0  0  0
 24 87  1  0  0  0  0
 25 28  2  0  0  0  0
 25 86  1  0  0  0  0
 26 87  1  0  0  0  0
 27 88  1  0  0  0  0
 28 89  1  0  0  0  0
 29 69  2  0  0  0  0
 30 50  1  0  0  0  0
 30 70  1  0  0  0  0
 31 71  1  0  0  0  0
 31 74  1  0  0  0  0
 32 75  1  0  0  0  0
 32 81  2  0  0  0  0
 33 51  1  0  0  0  0
 33 76  1  0  0  0  0
 33 82  2  0  0  0  0
 34 63  1  0  0  0  0
 34 72  1  0  0  0  0
 34 83  2  0  0  0  0
 35 64  1  0  0  0  0
 35 77  1  0  0  0  0
 35 84  2  0  0  0  0
 36 73  1  0  0  0  0
 36 78  1  0  0  0  0
 36 85  2  0  0  0  0
 37 40  1  0  0  0  0
 38 51  1  0  0  0  0
 39 72  1  0  0  0  0
 40 42  1  0  0  0  0
 41 43  1  0  0  0  0
 41 45  1  0  0  0  0
 42 49  1  0  0  0  0
 43 52  1  0  0  0  0
 44 47  1  0  0  0  0
 44 50  1  0  0  0  0
 45 73  1  0  0  0  0
 46 52  1  0  0  0  0
 46 73  1  0  0  0  0
 47 79  1  0  0  0  0
 48 50  1  0  0  0  0
 48 79  1  0  0  0  0
 49 76  1  0  0  0  0
 51 72  1  0  0  0  0
 52 71  1  0  0  0  0
 54 64  1  0  0  0  0
 55 65  1  0  0  0  0
 56 66  1  0  0  0  0
 57 67  1  0  0  0  0
 58 68  1  0  0  0  0
 59 68  1  0  0  0  0
 60 68  1  0  0  0  0
 61 80  1  0  0  0  0
 62 66  1  0  0  0  0
 62 79  1  0  0  0  0
 63 68  1  0  0  0  0
 63 77  1  0  0  0  0
 64 80  1  0  0  0  0
 65 67  1  0  0  0  0
 65 70  1  0  0  0  0
 66 78  1  0  0  0  0
 67 90  1  0  0  0  0
 69 71  1  0  0  0  0
M  CHG  2  79   1  80   1
M  ISO  4  26 101  36 100  78 100  87 101
M  END
> <Batch ID>
0153

> <Smiles>
CNC(C)C(=O)NC(C(=O)N1Cc2cc([101O:1][101c:1]3cn(C(C)C(C)F)c(C4CCN(CC(C)[100NH:0][100C:0](=O)N5CCCC(n6nc(-c7ccc(Oc8ccc(F)cc8F)cc7)c(C(N)=O)c6N)C5)C4)c3C)ccc2CC1C(=O)NC1CCCc2ccccc21)C(C)(C)C

> <Shape>
0.320

> <Color>
0.188

> <Negative vol penalty>
0.000

$$$$

  -OEChem-04052321483D

 89 98  0     1  0  0  0  0  0999 V2000
  -29.7242  -12.3991   15.7600 C   0  0  0  0  0  0  0  0  0  0  0  0
  -28.4416  -12.9346   15.6999 C   0  0  0  0  0  0  0  0  0  0  0  0
  -29.4623  -28.5088   19.1567 C   0  0  0  0  0  0  0  0  0  0  0  0
  -27.7583  -26.8816   19.6912 C   0  0  0  0  0  0  0  0  0  0  0  0
  -30.3349  -12.1926   16.9963 C   0  0  0  0  0  0  0  0  0  0  0  0
  -27.7685  -13.2630   16.8761 C   0  0  0  0  0  0  0  0  0  0  0  0
  -25.4898  -19.9877   18.0911 C   0  0  0  0  0  0  0  0  0  0  0  0
  -30.4236  -27.4983   19.1447 C   0  0  0  0  0  0  0  0  0  0  0  0
  -28.7197  -25.8710   19.6792 C   0  0  0  0  0  0  0  0  0  0  0  0
  -24.8377  -21.2025   18.3037 C   0  0  0  0  0  0  0  0  0  0  0  0
  -30.3772  -24.0394   17.3730 C   0  0  0  0  0  0  0  0  0  0  0  0
  -30.0616  -22.8548   16.7078 C   0  0  0  0  0  0  0  0  0  0  0  0
  -18.5833  -26.9946   21.5550 C   0  0  0  0  0  0  0  0  0  0  0  0
  -24.0869  -20.4326   20.4698 C   0  0  0  0  0  0  0  0  0  0  0  0
  -19.1683  -29.0426   23.3567 C   0  0  0  0  0  0  0  0  0  0  0  0
  -30.3470  -21.6228   18.7664 C   0  0  0  0  0  0  0  0  0  0  0  0
  -28.1296  -28.2005   19.4300 C   0  0  0  0  0  0  0  0  0  0  0  0
  -26.7841  -30.0960   18.3790 C   0  0  0  0  0  0  0  0  0  0  0  0
  -29.6727  -12.5276   18.1879 C   0  0  0  0  0  0  0  0  0  0  0  0
  -25.4558  -18.9954   19.0747 C   0  0  0  0  0  0  0  0  0  0  0  0
  -28.3704  -13.0595   18.1295 C   0  0  0  0  0  0  0  0  0  0  0  0
  -19.8561  -27.5648   21.5734 C   0  0  0  0  0  0  0  0  0  0  0  0
  -24.7487  -19.2185   20.2676 C   0  0  0  0  0  0  0  0  0  0  0  0
  -17.6029  -27.4485   22.4374 C   0  0  0  0  0  0  0  0  0  0  0  0
  -20.1486  -28.5888   22.4742 C   0  0  0  0  0  0  0  0  0  0  0  0
  -30.0523  -26.1793   19.4059 C   0  0  0  0  0  0  0  0  0  0  0  0
  -24.1378  -21.4243   19.4900 C   0  0  0  0  0  0  0  0  0  0  0  0
  -30.6777  -24.0158   18.7349 C   0  0  0  0  0  0  0  0  0  0  0  0
  -17.8954  -28.4724   23.3382 C   0  0  0  0  0  0  0  0  0  0  0  0
  -30.0465  -21.6465   17.4045 C   0  0  0  0  0  0  0  0  0  0  0  0
  -30.6626  -22.8075   19.4316 C   0  0  0  0  0  0  0  0  0  0  0  0
  -27.1362  -29.2441   19.4430 C   0  0  0  0  0  0  0  0  0  0  0  0
  -25.7998  -30.9024   18.8961 C   0  0  0  0  0  0  0  0  0  0  0  0
  -27.3006  -30.1532   17.0427 C   0  0  0  0  0  0  0  0  0  0  0  0
  -26.5246  -15.5576   20.1309 C   0  0  0  0  0  0  0  0  0  0  0  0
  -26.7484  -17.3594   22.6036 C   0  0  0  0  0  0  0  0  0  0  0  0
  -27.6137  -18.8269   25.5590 C   0  0  0  0  0  0  0  0  0  0  0  0
  -21.8713  -30.2078   23.3446 C   0  0  0  0  0  0  0  0  0  0  0  0
  -30.3548  -12.2422   19.5024 C   0  0  0  0  0  0  0  0  0  0  0  0
  -26.0922  -17.6486   18.8629 C   0  0  0  0  0  0  0  0  0  0  0  0
  -24.7102  -18.1093   21.2831 C   0  0  0  0  0  0  0  0  0  0  0  0
  -29.7203  -12.9655   20.6876 C   0  0  0  0  0  0  0  0  0  0  0  0
  -24.2969  -32.7952   23.0304 C   0  0  0  0  0  0  0  0  0  0  0  0
  -28.2023  -12.8197   20.6514 C   0  0  0  0  0  0  0  0  0  0  0  0
  -25.2649  -32.2584   21.9735 C   0  0  0  0  0  0  0  0  0  0  0  0
  -20.3989  -26.4609   19.2863 C   0  0  0  0  0  0  0  0  0  0  0  0
  -23.7790  -31.6840   23.9418 C   0  0  0  0  0  0  0  0  0  0  0  0
  -24.1589  -29.9961   22.1880 C   0  0  0  0  0  0  0  0  0  0  0  0
  -21.6303  -25.7729   18.7366 C   0  0  0  0  0  0  0  0  0  0  0  0
  -21.7570  -25.9137   21.1717 C   0  0  0  0  0  0  0  0  0  0  0  0
  -20.9000  -27.0523   20.6047 C   0  0  2  0  0  0  0  0  0  0  0  0
  -27.6175  -13.4514   19.3824 C   0  0  1  0  0  0  0  0  0  0  0  0
  -26.6811  -17.0498   20.1528 C   0  0  1  0  0  0  0  0  0  0  0  0
  -24.6571  -31.0684   21.2053 C   0  0  2  0  0  0  0  0  0  0  0  0
  -16.1313  -25.5950   23.3023 C   0  0  0  0  0  0  0  0  0  0  0  0
  -27.9038  -18.3198   27.9995 C   0  0  0  0  0  0  0  0  0  0  0  0
  -23.7189  -17.3502   22.9580 C   0  0  0  0  0  0  0  0  0  0  0  0
  -24.0738  -17.7994   25.3953 C   0  0  0  0  0  0  0  0  0  0  0  0
  -24.9406  -15.6932   24.3778 C   0  0  0  0  0  0  0  0  0  0  0  0
  -30.4803  -19.5595   25.4894 C   0  0  0  0  0  0  0  0  0  0  0  0
  -17.3347  -29.9773   25.0923 C   0  0  0  0  0  0  0  0  0  0  0  0
  -23.7352  -25.0007   19.8802 C   0  0  0  0  0  0  0  0  0  0  0  0
  -24.0782  -23.7650   19.0718 C   0  0  0  0  0  0  0  0  0  1  0  0
  -16.2455  -26.8273   22.4045 C   0  0  2  0  0  0  0  0  0  0  0  0
  -26.0820  -17.8864   23.8492 C   0  0  1  0  0  0  0  0  0  0  0  0
  -28.5886  -18.4080   26.6446 C   0  0  2  0  0  0  0  0  0  0  0  0
  -24.7146  -17.1998   24.1254 C   0  0  0  0  0  0  0  0  0  0  0  0
  -26.4329  -29.4868   20.5523 N   0  0  0  0  0  0  0  0  0  0  0  0
  -25.6291  -30.5004   20.1881 N   0  0  0  0  0  0  0  0  0  0  0  0
  -26.0402  -17.4917   21.4030 N   0  0  0  0  0  0  0  0  0  0  0  0
  -23.2139  -30.5930   23.1448 N   0  0  0  0  0  0  0  0  0  0  0  0
  -25.0724  -31.9091   18.3670 N   0  0  0  0  0  0  0  0  0  0  0  0
  -28.3098  -29.2519   16.6773 N   0  0  0  0  0  0  0  0  0  0  0  0
  -21.4351  -29.1818   22.5070 N   0  0  0  0  0  0  0  0  0  0  0  0
  -27.5657  -14.8918   19.5126 N   0  0  0  0  0  0  0  0  0  0  0  0
  -27.0541  -17.7369   24.9267 N   0  0  0  0  0  0  0  0  0  0  0  0
  -22.2487  -25.1410   19.9605 N   0  3  2  0  0  0  0  0  0  0  0  0
  -29.7050  -19.3901   26.7453 N   0  3  0  0  0  0  0  0  0  0  0  0
  -26.8911  -30.9899   16.2026 O   0  0  0  0  0  0  0  0  0  0  0  0
  -25.5334  -15.0466   20.6387 O   0  0  0  0  0  0  0  0  0  0  0  0
  -27.8641  -16.8389   22.6906 O   0  0  0  0  0  0  0  0  0  0  0  0
  -27.3699  -20.0035   25.3006 O   0  0  0  0  0  0  0  0  0  0  0  0
  -21.1529  -30.7667   24.1773 O   0  0  0  0  0  0  0  0  0  0  0  0
  -15.9456  -26.4329   21.0613 O   0  0  0  0  0  0  0  0  0  0  0  0
  -30.9901  -25.1929   19.3941 O   0  0  0  0  0  0  0  0  0  0  0  0
  -16.9495  -28.9281   24.2064 O   0  0  0  0  0  0  0  0  0  0  0  0
  -23.5072  -22.6142   19.6930 O   0  0  0  0  0  0  0  0  0  1  0  0
  -29.7419  -20.5091   16.7658 F   0  0  0  0  0  0  0  0  0  0  0  0
  -30.9494  -22.7787   20.7403 F   0  0  0  0  0  0  0  0  0  0  0  0
  1  2  1  0  0  0  0
  1  5  2  0  0  0  0
  2  6  2  0  0  0  0
  3  8  2  0  0  0  0
  3 17  1  0  0  0  0
  4  9  1  0  0  0  0
  4 17  2  0  0  0  0
  5 19  1  0  0  0  0
  6 21  1  0  0  0  0
  7 10  2  0  0  0  0
  7 20  1  0  0  0  0
  8 26  1  0  0  0  0
  9 26  2  0  0  0  0
 10 27  1  0  0  0  0
 11 12  2  0  0  0  0
 11 28  1  0  0  0  0
 12 30  1  0  0  0  0
 13 22  1  0  0  0  0
 13 24  2  0  0  0  0
 14 23  1  0  0  0  0
 14 27  2  0  0  0  0
 15 25  1  0  0  0  0
 15 29  2  0  0  0  0
 16 30  2  0  0  0  0
 16 31  1  0  0  0  0
 17 32  1  0  0  0  0
 18 32  1  0  0  0  0
 18 33  2  0  0  0  0
 18 34  1  0  0  0  0
 19 21  2  0  0  0  0
 19 39  1  0  0  0  0
 20 23  2  0  0  0  0
 20 40  1  0  0  0  0
 21 52  1  0  0  0  0
 22 25  2  0  0  0  0
 22 51  1  0  0  0  0
 23 41  1  0  0  0  0
 24 29  1  0  0  0  0
 24 64  1  0  0  0  0
 25 74  1  0  0  0  0
 26 85  1  0  0  0  0
 27 87  1  0  0  0  0
 28 31  2  0  0  0  0
 28 85  1  0  0  0  0
 29 86  1  0  0  0  0
 30 88  1  0  0  0  0
 31 89  1  0  0  0  0
 32 68  2  0  0  0  0
 33 69  1  0  0  0  0
 33 72  1  0  0  0  0
 34 73  1  0  0  0  0
 34 79  2  0  0  0  0
 35 53  1  0  0  0  0
 35 75  1  0  0  0  0
 35 80  2  0  0  0  0
 36 65  1  0  0  0  0
 36 70  1  0  0  0  0
 36 81  2  0  0  0  0
 37 66  1  0  0  0  0
 37 76  1  0  0  0  0
 37 82  2  0  0  0  0
 38 71  1  0  0  0  0
 38 74  1  0  0  0  0
 38 83  2  0  0  0  0
 39 42  1  0  0  0  0
 40 53  1  0  0  0  0
 41 70  1  0  0  0  0
 42 44  1  0  0  0  0
 43 45  1  0  0  0  0
 43 47  1  0  0  0  0
 44 52  1  0  0  0  0
 45 54  1  0  0  0  0
 46 49  1  0  0  0  0
 46 51  1  0  0  0  0
 47 71  1  0  0  0  0
 48 54  1  0  0  0  0
 48 71  1  0  0  0  0
 49 77  1  0  0  0  0
 50 51  1  0  0  0  0
 50 77  1  0  0  0  0
 52 75  1  0  0  0  0
 53 70  1  0  0  0  0
 54 69  1  0  0  0  0
 55 64  1  0  0  0  0
 56 66  1  0  0  0  0
 57 67  1  0  0  0  0
 58 67  1  0  0  0  0
 59 67  1  0  0  0  0
 60 78  1  0  0  0  0
 61 86  1  0  0  0  0
 62 63  1  0  0  0  0
 62 77  1  0  0  0  0
 63 87  1  0  0  0  0
 64 84  1  0  0  0  0
 65 67  1  0  0  0  0
 65 76  1  0  0  0  0
 66 78  1  0  0  0  0
 68 69  1  0  0  0  0
M  CHG  2  77   1  78   1
M  ISO  4  38 100  63 101  74 100  87 101
M  END
> <Batch ID>
0153

> <Smiles>
CNC(C)C(=O)NC(C(=O)N1Cc2cc([101O:1][101CH2:1]CN3CCC(c4cc(C(C)O)c(OC)cc4[100NH:0][100C:0](=O)N4CCCC(n5nc(-c6ccc(Oc7ccc(F)cc7F)cc6)c(C(N)=O)c5N)C4)C3)ccc2CC1C(=O)NC1CCCc2ccccc21)C(C)(C)C

> <Shape>
0.236

> <Color>
0.081

> <Negative vol penalty>
0.000

$$$$

  -OEChem-04052321483D

 88 97  0     1  0  0  0  0  0999 V2000
  -25.8299  -23.3752   30.1849 C   0  0  0  0  0  0  0  0  0  0  0  0
  -26.4162  -23.1648   28.9410 C   0  0  0  0  0  0  0  0  0  0  0  0
  -22.9393  -10.0273   20.7032 C   0  0  0  0  0  0  0  0  0  0  0  0
  -24.5154   -8.9000   22.1462 C   0  0  0  0  0  0  0  0  0  0  0  0
  -24.5945  -24.0155   30.2727 C   0  0  0  0  0  0  0  0  0  0  0  0
  -25.7668  -23.5936   27.7839 C   0  0  0  0  0  0  0  0  0  0  0  0
  -28.8909  -25.9308   24.5555 C   0  0  0  0  0  0  0  0  0  0  0  0
  -22.1935   -8.8531   20.6004 C   0  0  0  0  0  0  0  0  0  0  0  0
  -23.7696   -7.7257   22.0434 C   0  0  0  0  0  0  0  0  0  0  0  0
  -29.7246  -25.1257   23.7806 C   0  0  0  0  0  0  0  0  0  0  0  0
  -20.9438   -6.4463   23.3843 C   0  0  0  0  0  0  0  0  0  0  0  0
  -20.6980   -5.7318   24.5567 C   0  0  0  0  0  0  0  0  0  0  0  0
  -28.2140  -25.3670   21.9155 C   0  0  0  0  0  0  0  0  0  0  0  0
  -27.7369  -19.8262   24.5426 C   0  0  0  0  0  0  0  0  0  0  0  0
  -21.8391   -3.8154   23.6280 C   0  0  0  0  0  0  0  0  0  0  0  0
  -24.1003  -10.0508   21.4761 C   0  0  0  0  0  0  0  0  0  0  0  0
  -24.7237  -12.2835   22.5409 C   0  0  0  0  0  0  0  0  0  0  0  0
  -23.9342  -24.4610   29.1167 C   0  0  0  0  0  0  0  0  0  0  0  0
  -27.7050  -26.4520   24.0187 C   0  0  0  0  0  0  0  0  0  0  0  0
  -24.5208  -24.2392   27.8561 C   0  0  0  0  0  0  0  0  0  0  0  0
  -27.3682  -26.1805   22.6849 C   0  0  0  0  0  0  0  0  0  0  0  0
  -28.0539  -20.8586   23.6668 C   0  0  0  0  0  0  0  0  0  0  0  0
  -28.3948  -18.6058   24.4370 C   0  0  0  0  0  0  0  0  0  0  0  0
  -22.6087   -7.7023   21.2705 C   0  0  0  0  0  0  0  0  0  0  0  0
  -29.3848  -24.8413   22.4613 C   0  0  0  0  0  0  0  0  0  0  0  0
  -21.6371   -5.8454   22.3337 C   0  0  0  0  0  0  0  0  0  0  0  0
  -21.1456   -4.4163   24.6786 C   0  0  0  0  0  0  0  0  0  0  0  0
  -22.0848   -4.5299   22.4555 C   0  0  0  0  0  0  0  0  0  0  0  0
  -24.8714  -11.2633   21.5822 C   0  0  0  0  0  0  0  0  0  0  0  0
  -29.0283  -20.6218   22.7107 C   0  0  0  0  0  0  0  0  0  0  0  0
  -29.3538  -18.4698   23.4463 C   0  0  0  0  0  0  0  0  0  0  0  0
  -25.6864  -13.2061   22.2116 C   0  0  0  0  0  0  0  0  0  0  0  0
  -23.7990  -12.3878   23.6317 C   0  0  0  0  0  0  0  0  0  0  0  0
  -24.6138  -26.1501   24.6950 C   0  0  0  0  0  0  0  0  0  0  0  0
  -24.2913  -28.4363   22.4165 C   0  0  0  0  0  0  0  0  0  0  0  0
  -25.5783  -29.9797   19.6582 C   0  0  0  0  0  0  0  0  0  0  0  0
  -30.9052  -14.4600   20.6828 C   0  0  0  0  0  0  0  0  0  0  0  0
  -22.5782  -25.1060   29.2583 C   0  0  0  0  0  0  0  0  0  0  0  0
  -26.8300  -27.3407   24.8595 C   0  0  0  0  0  0  0  0  0  0  0  0
  -26.1164  -26.7323   22.0549 C   0  0  0  0  0  0  0  0  0  0  0  0
  -22.1312  -25.8641   28.0111 C   0  0  0  0  0  0  0  0  0  0  0  0
  -28.6117  -13.5882   18.1027 C   0  0  0  0  0  0  0  0  0  0  0  0
  -22.3684  -25.0226   26.7611 C   0  0  0  0  0  0  0  0  0  0  0  0
  -27.4255  -12.9845   18.8565 C   0  0  0  0  0  0  0  0  0  0  0  0
  -29.9414  -13.2283   18.7618 C   0  0  0  0  0  0  0  0  0  0  0  0
  -28.8436  -12.9519   20.9509 C   0  0  0  0  0  0  0  0  0  0  0  0
  -23.8591  -24.7120   26.5799 C   0  0  1  0  0  0  0  0  0  0  0  0
  -29.3982  -21.6948   21.7559 C   0  0  2  0  0  0  0  0  0  0  0  0
  -25.3869  -27.3963   24.3678 C   0  0  1  0  0  0  0  0  0  0  0  0
  -30.7808  -21.6875   21.1375 C   0  0  2  0  0  0  0  0  0  0  0  0
  -27.4774  -13.3338   20.3560 C   0  0  2  0  0  0  0  0  0  0  0  0
  -30.4308  -22.7259   22.1662 C   0  0  1  0  0  0  0  0  0  1  0  0
  -27.3505  -22.1675   23.7777 C   0  0  0  0  0  0  0  0  0  0  0  0
  -28.0524  -17.5011   25.3778 C   0  0  0  0  0  0  0  0  0  0  0  0
  -25.0685  -31.7885   17.9952 C   0  0  0  0  0  0  0  0  0  0  0  0
  -32.4009  -22.4886   19.3947 C   0  0  0  0  0  0  0  0  0  0  0  0
  -30.5840  -20.8718   18.7713 C   0  0  0  0  0  0  0  0  0  0  0  0
  -22.2962  -26.5929   21.0268 C   0  0  0  0  0  0  0  0  0  0  0  0
  -22.5519  -27.9870   18.9629 C   0  0  0  0  0  0  0  0  0  0  0  0
  -21.6443  -29.0072   21.0505 C   0  0  0  0  0  0  0  0  0  0  0  0
  -27.9796  -31.5274   20.4311 C   0  0  0  0  0  0  0  0  0  0  0  0
  -31.2797  -17.0878   22.6674 C   0  0  0  0  0  0  0  0  0  0  0  0
  -31.7457  -15.6402   22.6978 C   0  0  0  0  0  0  0  0  0  0  0  0
  -24.1031  -28.4339   20.9187 C   0  0  1  0  0  0  0  0  0  0  0  0
  -25.7477  -31.4481   19.3126 C   0  0  2  0  0  0  0  0  0  0  0  0
  -30.9590  -22.0415   19.7003 C   0  0  0  0  0  0  0  0  0  0  0  0
  -22.6715  -27.9931   20.5019 C   0  0  0  0  0  0  0  0  0  0  0  0
  -25.8507  -11.5140   20.7092 N   0  0  0  0  0  0  0  0  0  0  0  0
  -29.6888  -19.4498   22.5774 N   0  0  0  0  0  0  0  0  0  0  0  0
  -26.3270  -12.7023   21.1180 N   0  0  0  0  0  0  0  0  0  0  0  0
  -25.2902  -27.5909   22.9197 N   0  0  0  0  0  0  0  0  0  0  0  0
  -29.9257  -13.5866   20.1821 N   0  0  0  0  0  0  0  0  0  0  0  0
  -26.0389  -14.3912   22.7536 N   0  0  0  0  0  0  0  0  0  0  0  0
  -22.8769  -11.3506   23.8274 N   0  0  0  0  0  0  0  0  0  0  0  0
  -30.0266  -17.2273   23.3345 N   0  0  0  0  0  0  0  0  0  0  0  0
  -24.5540  -25.8634   26.0454 N   0  0  0  0  0  0  0  0  0  0  0  0
  -24.4756  -29.7672   20.4583 N   0  0  0  0  0  0  0  0  0  0  0  0
  -30.8141  -14.7525   22.0381 N   0  0  0  0  0  0  0  0  0  0  0  0
  -27.1937  -31.7898   19.1980 N   0  3  0  0  0  0  0  0  0  0  0  0
  -23.7799  -13.3793   24.3999 O   0  0  0  0  0  0  0  0  0  0  0  0
  -24.1078  -25.4977   23.7894 O   0  0  0  0  0  0  0  0  0  0  0  0
  -23.5829  -29.1669   23.1138 O   0  0  0  0  0  0  0  0  0  0  0  0
  -26.3452  -29.1078   19.2554 O   0  0  0  0  0  0  0  0  0  0  0  0
  -31.7918  -14.9476   19.9734 O   0  0  0  0  0  0  0  0  0  0  0  0
  -21.8810   -6.5564   21.1706 O   0  0  0  0  0  0  0  0  0  0  0  0
  -30.1964  -24.0551   21.7029 O   0  0  0  0  0  0  0  0  0  1  0  0
  -20.9109   -3.7308   25.8051 F   0  0  0  0  0  0  0  0  0  0  0  0
  -22.7525   -3.9477   21.4500 F   0  0  0  0  0  0  0  0  0  0  0  0
  1  2  1  0  0  0  0
  1  5  2  0  0  0  0
  2  6  2  0  0  0  0
  3  8  2  0  0  0  0
  3 16  1  0  0  0  0
  4  9  1  0  0  0  0
  4 16  2  0  0  0  0
  5 18  1  0  0  0  0
  6 20  1  0  0  0  0
  7 10  2  0  0  0  0
  7 19  1  0  0  0  0
  8 24  1  0  0  0  0
  9 24  2  0  0  0  0
 10 25  1  0  0  0  0
 11 12  2  0  0  0  0
 11 26  1  0  0  0  0
 12 27  1  0  0  0  0
 13 21  1  0  0  0  0
 13 25  2  0  0  0  0
 14 22  1  0  0  0  0
 14 23  2  0  0  0  0
 15 27  2  0  0  0  0
 15 28  1  0  0  0  0
 16 29  1  0  0  0  0
 17 29  1  0  0  0  0
 17 32  2  0  0  0  0
 17 33  1  0  0  0  0
 18 20  2  0  0  0  0
 18 38  1  0  0  0  0
 19 21  2  0  0  0  0
 19 39  1  0  0  0  0
 20 47  1  0  0  0  0
 21 40  1  0  0  0  0
 22 30  2  0  0  0  0
 22 53  1  0  0  0  0
 23 31  1  0  0  0  0
 23 54  1  0  0  0  0
 24 85  1  0  0  0  0
 25 86  1  0  0  0  0
 26 28  2  0  0  0  0
 26 85  1  0  0  0  0
 27 87  1  0  0  0  0
 28 88  1  0  0  0  0
 29 68  2  0  0  0  0
 30 48  1  0  0  0  0
 30 69  1  0  0  0  0
 31 69  2  0  0  0  0
 31 75  1  0  0  0  0
 32 70  1  0  0  0  0
 32 73  1  0  0  0  0
 33 74  1  0  0  0  0
 33 80  2  0  0  0  0
 34 49  1  0  0  0  0
 34 76  1  0  0  0  0
 34 81  2  0  0  0  0
 35 64  1  0  0  0  0
 35 71  1  0  0  0  0
 35 82  2  0  0  0  0
 36 65  1  0  0  0  0
 36 77  1  0  0  0  0
 36 83  2  0  0  0  0
 37 72  1  0  0  0  0
 37 78  1  0  0  0  0
 37 84  2  0  0  0  0
 38 41  1  0  0  0  0
 39 49  1  0  0  0  0
 40 71  1  0  0  0  0
 41 43  1  0  0  0  0
 42 44  1  0  0  0  0
 42 45  1  0  0  0  0
 43 47  1  0  0  0  0
 44 51  1  0  0  0  0
 45 72  1  0  0  0  0
 46 51  1  0  0  0  0
 46 72  1  0  0  0  0
 47 76  1  0  0  0  0
 48 50  1  0  0  0  0
 48 52  1  0  0  0  0
 49 71  1  0  0  0  0
 50 52  1  0  0  0  0
 50 66  1  0  0  0  0
 51 70  1  0  0  0  0
 52 86  1  0  0  0  0
 55 65  1  0  0  0  0
 56 66  1  0  0  0  0
 57 66  1  0  0  0  0
 58 67  1  0  0  0  0
 59 67  1  0  0  0  0
 60 67  1  0  0  0  0
 61 79  1  0  0  0  0
 62 63  1  0  0  0  0
 62 75  1  0  0  0  0
 63 78  1  0  0  0  0
 64 67  1  0  0  0  0
 64 77  1  0  0  0  0
 65 79  1  0  0  0  0
 68 70  1  0  0  0  0
M  CHG  1  79   1
M  ISO  4  37 100  52 101  78 100  86 101
M  END
> <Batch ID>
0153

> <Smiles>
CNC(C)C(=O)NC(C(=O)N1Cc2cc([101O:1][101CH:1]3C(c4nc(NCC[100NH:0][100C:0](=O)N5CCCC(n6nc(-c7ccc(Oc8ccc(F)cc8F)cc7)c(C(N)=O)c6N)C5)c(C)cc4C)C3C(C)C)ccc2CC1C(=O)NC1CCCc2ccccc21)C(C)(C)C

> <Shape>
0.216

> <Color>
0.123

> <Negative vol penalty>
0.000

$$$$

  -OEChem-04052321483D

 87 96  0     1  0  0  0  0  0999 V2000
  -28.2048  -37.4774   23.1941 C   0  0  0  0  0  0  0  0  0  0  0  0
  -28.6408  -36.2331   22.7502 C   0  0  0  0  0  0  0  0  0  0  0  0
  -25.7132  -13.8534   20.9099 C   0  0  0  0  0  0  0  0  0  0  0  0
  -25.6707  -13.8477   18.4943 C   0  0  0  0  0  0  0  0  0  0  0  0
  -27.0828  -37.5688   24.0168 C   0  0  0  0  0  0  0  0  0  0  0  0
  -27.9557  -35.0794   23.1296 C   0  0  0  0  0  0  0  0  0  0  0  0
  -27.1241  -30.0216   19.7780 C   0  0  0  0  0  0  0  0  0  0  0  0
  -24.6791  -12.9175   20.9303 C   0  0  0  0  0  0  0  0  0  0  0  0
  -24.6366  -12.9118   18.5147 C   0  0  0  0  0  0  0  0  0  0  0  0
  -27.7824  -28.7928   19.7550 C   0  0  0  0  0  0  0  0  0  0  0  0
  -24.3288   -9.5826   20.4962 C   0  0  0  0  0  0  0  0  0  0  0  0
  -24.4505   -8.5010   21.3685 C   0  0  0  0  0  0  0  0  0  0  0  0
  -26.1060  -27.8741   21.2264 C   0  0  0  0  0  0  0  0  0  0  0  0
  -22.4181   -9.1749   22.4876 C   0  0  0  0  0  0  0  0  0  0  0  0
  -32.3617  -23.8390   18.6144 C   0  0  0  0  0  0  0  0  0  0  0  0
  -26.2089  -14.3185   19.6919 C   0  0  0  0  0  0  0  0  0  0  0  0
  -28.6598  -15.0246   19.6463 C   0  0  0  0  0  0  0  0  0  0  0  0
  -26.3779  -36.4165   24.3985 C   0  0  0  0  0  0  0  0  0  0  0  0
  -25.9559  -30.1892   20.5353 C   0  0  0  0  0  0  0  0  0  0  0  0
  -26.8240  -35.1554   23.9592 C   0  0  0  0  0  0  0  0  0  0  0  0
  -25.4334  -29.1053   21.2552 C   0  0  0  0  0  0  0  0  0  0  0  0
  -32.1978  -21.8746   19.8838 C   0  0  0  0  0  0  0  0  0  0  0  0
  -32.4537  -22.4563   18.6599 C   0  0  0  0  0  0  0  0  0  0  0  0
  -31.8614  -22.6420   20.9937 C   0  0  0  0  0  0  0  0  0  0  0  0
  -24.1408  -12.4467   19.7327 C   0  0  0  0  0  0  0  0  0  0  0  0
  -27.2750  -27.7197   20.4816 C   0  0  0  0  0  0  0  0  0  0  0  0
  -23.2518  -10.4604   20.6196 C   0  0  0  0  0  0  0  0  0  0  0  0
  -23.4951   -8.2971   22.3642 C   0  0  0  0  0  0  0  0  0  0  0  0
  -22.2964  -10.2565   21.6152 C   0  0  0  0  0  0  0  0  0  0  0  0
  -27.2767  -15.2857   19.6702 C   0  0  0  0  0  0  0  0  0  0  0  0
  -31.8203  -24.0085   20.8591 C   0  0  0  0  0  0  0  0  0  0  0  0
  -29.2437  -16.2677   19.6323 C   0  0  0  0  0  0  0  0  0  0  0  0
  -29.3547  -13.7705   19.6374 C   0  0  0  0  0  0  0  0  0  0  0  0
  -25.1205  -32.0217   22.9946 C   0  0  0  0  0  0  0  0  0  0  0  0
  -22.1898  -30.7418   22.4508 C   0  0  0  0  0  0  0  0  0  0  0  0
  -20.3419  -28.1743   21.1704 C   0  0  0  0  0  0  0  0  0  0  0  0
  -29.5061  -21.5000   17.7086 C   0  0  0  0  0  0  0  0  0  0  0  0
  -25.1987  -36.5613   25.3276 C   0  0  0  0  0  0  0  0  0  0  0  0
  -25.2429  -31.5136   20.5282 C   0  0  0  0  0  0  0  0  0  0  0  0
  -32.2584  -20.4350   20.2786 C   0  0  0  0  0  0  0  0  0  0  0  0
  -24.1712  -29.2276   22.0679 C   0  0  0  0  0  0  0  0  0  0  0  0
  -24.3076  -35.3229   25.3784 C   0  0  0  0  0  0  0  0  0  0  0  0
  -27.2437  -20.8532   20.3807 C   0  0  0  0  0  0  0  0  0  0  0  0
  -25.1534  -34.0623   25.5277 C   0  0  0  0  0  0  0  0  0  0  0  0
  -27.1601  -19.3265   20.4277 C   0  0  0  0  0  0  0  0  0  0  0  0
  -31.6978  -20.4835   21.7189 C   0  0  0  0  0  0  0  0  0  0  0  0
  -27.3653  -21.3678   18.9481 C   0  0  0  0  0  0  0  0  0  0  0  0
  -28.3829  -19.2464   18.2148 C   0  0  0  0  0  0  0  0  0  0  0  0
  -26.0928  -33.8831   24.3289 C   0  0  1  0  0  0  0  0  0  0  0  0
  -24.3447  -31.7152   21.7448 C   0  0  1  0  0  0  0  0  0  0  0  0
  -28.3154  -18.6772   19.6423 C   0  0  2  0  0  0  0  0  0  0  0  0
  -32.6220  -25.8934   22.3414 C   0  0  0  0  0  0  0  0  0  0  0  0
  -17.9718  -27.3918   20.9096 C   0  0  0  0  0  0  0  0  0  0  0  0
  -22.1375  -29.9282   25.3911 C   0  0  0  0  0  0  0  0  0  0  0  0
  -20.2547  -28.3680   24.8539 C   0  0  0  0  0  0  0  0  0  0  0  0
  -19.9719  -30.8235   24.5178 C   0  0  0  0  0  0  0  0  0  0  0  0
  -20.5343  -28.2047   18.2172 C   0  0  0  0  0  0  0  0  0  0  0  0
  -32.8153  -21.6617   17.4594 C   0  0  0  0  0  0  0  0  0  0  0  0
  -31.6562  -21.4691   16.4697 C   0  0  0  0  0  0  0  0  0  0  0  0
  -29.0266  -24.8140   21.7423 C   0  0  0  0  0  0  0  0  0  0  0  0
  -27.8049  -25.7042   21.6274 C   0  0  0  0  0  0  0  0  0  1  0  0
  -31.5051  -24.8972   22.0401 C   0  0  1  0  0  0  0  0  0  0  0  0
  -21.4508  -29.5183   22.9363 C   0  0  1  0  0  0  0  0  0  0  0  0
  -19.1171  -28.1642   20.2736 C   0  0  2  0  0  0  0  0  0  0  0  0
  -20.9786  -29.6574   24.4111 C   0  0  0  0  0  0  0  0  0  0  0  0
  -32.0551  -24.6291   19.6790 N   0  0  0  0  0  0  0  0  0  0  0  0
  -26.9985  -16.5921   19.6715 N   0  0  0  0  0  0  0  0  0  0  0  0
  -28.2149  -17.1630   19.6484 N   0  0  0  0  0  0  0  0  0  0  0  0
  -31.7029  -21.8790   22.1399 N   0  0  0  0  0  0  0  0  0  0  0  0
  -23.5140  -30.5446   22.0342 N   0  0  0  0  0  0  0  0  0  0  0  0
  -28.4804  -20.7138   18.2591 N   0  0  0  0  0  0  0  0  0  0  0  0
  -30.5317  -16.6714   19.6080 N   0  0  0  0  0  0  0  0  0  0  0  0
  -28.6011  -12.5890   19.6542 N   0  0  0  0  0  0  0  0  0  0  0  0
  -25.3649  -33.3677   23.1891 N   0  0  0  0  0  0  0  0  0  0  0  0
  -20.3711  -29.2883   21.9824 N   0  0  0  0  0  0  0  0  0  0  0  0
  -30.5280  -20.8004   17.0787 N   0  0  0  0  0  0  0  0  0  0  0  0
  -19.4397  -27.5320   18.9632 N   0  3  0  0  0  0  0  0  0  0  0  0
  -30.2402  -25.6606   21.8629 N   0  3  0  0  0  0  0  0  0  0  0  0
  -30.6071  -13.6998   19.6319 O   0  0  0  0  0  0  0  0  0  0  0  0
  -25.4700  -31.1049   23.7288 O   0  0  0  0  0  0  0  0  0  0  0  0
  -21.6112  -31.8311   22.4350 O   0  0  0  0  0  0  0  0  0  0  0  0
  -21.1861  -27.2813   21.1549 O   0  0  0  0  0  0  0  0  0  0  0  0
  -29.5134  -22.7337   17.7785 O   0  0  0  0  0  0  0  0  0  0  0  0
  -23.1319  -11.5333   19.7523 O   0  0  0  0  0  0  0  0  0  0  0  0
  -27.9159  -26.5194   20.4615 O   0  0  0  0  0  0  0  0  0  1  0  0
  -23.6113   -7.2575   23.2008 F   0  0  0  0  0  0  0  0  0  0  0  0
  -21.2589  -11.0957   21.7379 F   0  0  0  0  0  0  0  0  0  0  0  0
  1  2  1  0  0  0  0
  1  5  2  0  0  0  0
  2  6  2  0  0  0  0
  3  8  2  0  0  0  0
  3 16  1  0  0  0  0
  4  9  1  0  0  0  0
  4 16  2  0  0  0  0
  5 18  1  0  0  0  0
  6 20  1  0  0  0  0
  7 10  2  0  0  0  0
  7 19  1  0  0  0  0
  8 25  1  0  0  0  0
  9 25  2  0  0  0  0
 10 26  1  0  0  0  0
 11 12  2  0  0  0  0
 11 27  1  0  0  0  0
 12 28  1  0  0  0  0
 13 21  1  0  0  0  0
 13 26  2  0  0  0  0
 14 28  2  0  0  0  0
 14 29  1  0  0  0  0
 15 23  1  0  0  0  0
 15 66  2  0  0  0  0
 16 30  1  0  0  0  0
 17 30  1  0  0  0  0
 17 32  2  0  0  0  0
 17 33  1  0  0  0  0
 18 20  2  0  0  0  0
 18 38  1  0  0  0  0
 19 21  2  0  0  0  0
 19 39  1  0  0  0  0
 20 49  1  0  0  0  0
 21 41  1  0  0  0  0
 22 23  2  0  0  0  0
 22 24  1  0  0  0  0
 22 40  1  0  0  0  0
 23 58  1  0  0  0  0
 24 31  2  0  0  0  0
 24 69  1  0  0  0  0
 25 84  1  0  0  0  0
 26 85  1  0  0  0  0
 27 29  2  0  0  0  0
 27 84  1  0  0  0  0
 28 86  1  0  0  0  0
 29 87  1  0  0  0  0
 30 67  2  0  0  0  0
 31 62  1  0  0  0  0
 31 66  1  0  0  0  0
 32 68  1  0  0  0  0
 32 72  1  0  0  0  0
 33 73  1  0  0  0  0
 33 79  2  0  0  0  0
 34 50  1  0  0  0  0
 34 74  1  0  0  0  0
 34 80  2  0  0  0  0
 35 63  1  0  0  0  0
 35 70  1  0  0  0  0
 35 81  2  0  0  0  0
 36 64  1  0  0  0  0
 36 75  1  0  0  0  0
 36 82  2  0  0  0  0
 37 71  1  0  0  0  0
 37 76  1  0  0  0  0
 37 83  2  0  0  0  0
 38 42  1  0  0  0  0
 39 50  1  0  0  0  0
 40 46  1  0  0  0  0
 41 70  1  0  0  0  0
 42 44  1  0  0  0  0
 43 45  1  0  0  0  0
 43 47  1  0  0  0  0
 44 49  1  0  0  0  0
 45 51  1  0  0  0  0
 46 69  1  0  0  0  0
 47 71  1  0  0  0  0
 48 51  1  0  0  0  0
 48 71  1  0  0  0  0
 49 74  1  0  0  0  0
 50 70  1  0  0  0  0
 51 68  1  0  0  0  0
 52 62  1  0  0  0  0
 53 64  1  0  0  0  0
 54 65  1  0  0  0  0
 55 65  1  0  0  0  0
 56 65  1  0  0  0  0
 57 77  1  0  0  0  0
 58 59  1  0  0  0  0
 59 76  1  0  0  0  0
 60 61  1  0  0  0  0
 60 78  1  0  0  0  0
 61 85  1  0  0  0  0
 62 78  1  0  0  0  0
 63 65  1  0  0  0  0
 63 75  1  0  0  0  0
 64 77  1  0  0  0  0
 67 68  1  0  0  0  0
M  CHG  2  77   1  78   1
M  ISO  4  37 100  61 101  76 100  85 101
M  END
> <Batch ID>
0153

> <Smiles>
CNC(C)C(=O)NC(C(=O)N1Cc2cc([101O:1][101CH2:1]CNC(C)c3ncc(CC[100NH:0][100C:0](=O)N4CCCC(n5nc(-c6ccc(Oc7ccc(F)cc7F)cc6)c(C(N)=O)c5N)C4)c4c3NCC4)ccc2CC1C(=O)NC1CCCc2ccccc21)C(C)(C)C

> <Shape>
0.305

> <Color>
0.077

> <Negative vol penalty>
0.000

$$$$

  -OEChem-04052321483D

 87 97  0     1  0  0  0  0  0999 V2000
  -24.0565  -37.7209   23.4327 C   0  0  0  0  0  0  0  0  0  0  0  0
  -24.7764  -37.0442   22.4534 C   0  0  0  0  0  0  0  0  0  0  0  0
  -23.3724  -13.0853   20.0011 C   0  0  0  0  0  0  0  0  0  0  0  0
  -25.1945  -12.4780   21.4668 C   0  0  0  0  0  0  0  0  0  0  0  0
  -23.7136  -37.0715   24.6179 C   0  0  0  0  0  0  0  0  0  0  0  0
  -25.1549  -35.7180   22.6591 C   0  0  0  0  0  0  0  0  0  0  0  0
  -26.2404  -29.6038   19.0878 C   0  0  0  0  0  0  0  0  0  0  0  0
  -23.0822  -11.7355   19.8025 C   0  0  0  0  0  0  0  0  0  0  0  0
  -24.9043  -11.1281   21.2682 C   0  0  0  0  0  0  0  0  0  0  0  0
  -27.2066  -28.6133   18.9168 C   0  0  0  0  0  0  0  0  0  0  0  0
  -24.4167   -7.5290   21.4323 C   0  0  0  0  0  0  0  0  0  0  0  0
  -24.3974   -6.6975   22.5520 C   0  0  0  0  0  0  0  0  0  0  0  0
  -30.3588  -22.8510   19.0429 C   0  0  0  0  0  0  0  0  0  0  0  0
  -26.4903  -27.5685   20.9697 C   0  0  0  0  0  0  0  0  0  0  0  0
  -30.6556  -24.7408   21.0734 C   0  0  0  0  0  0  0  0  0  0  0  0
  -22.6352   -8.0389   23.5178 C   0  0  0  0  0  0  0  0  0  0  0  0
  -24.4286  -13.4565   20.8332 C   0  0  0  0  0  0  0  0  0  0  0  0
  -24.2076  -15.6948   22.0369 C   0  0  0  0  0  0  0  0  0  0  0  0
  -24.0798  -35.7337   24.8343 C   0  0  0  0  0  0  0  0  0  0  0  0
  -25.3978  -29.5901   20.2086 C   0  0  0  0  0  0  0  0  0  0  0  0
  -24.8178  -35.0505   23.8489 C   0  0  0  0  0  0  0  0  0  0  0  0
  -29.3128  -23.7242   19.3412 C   0  0  0  0  0  0  0  0  0  0  0  0
  -25.5126  -28.5585   21.1513 C   0  0  0  0  0  0  0  0  0  0  0  0
  -29.4612  -24.6691   20.3565 C   0  0  0  0  0  0  0  0  0  0  0  0
  -31.7016  -23.8676   20.7751 C   0  0  0  0  0  0  0  0  0  0  0  0
  -31.5532  -22.9227   19.7598 C   0  0  0  0  0  0  0  0  0  0  0  0
  -23.8481  -10.7569   20.4360 C   0  0  0  0  0  0  0  0  0  0  0  0
  -27.3336  -27.5971   19.8592 C   0  0  0  0  0  0  0  0  0  0  0  0
  -23.5453   -8.6156   21.3553 C   0  0  0  0  0  0  0  0  0  0  0  0
  -23.5067   -6.9524   23.5947 C   0  0  0  0  0  0  0  0  0  0  0  0
  -22.6546   -8.8705   22.3980 C   0  0  0  0  0  0  0  0  0  0  0  0
  -24.7292  -14.8507   21.0383 C   0  0  0  0  0  0  0  0  0  0  0  0
  -24.8019  -16.9109   21.8034 C   0  0  0  0  0  0  0  0  0  0  0  0
  -23.2698  -15.4056   23.0821 C   0  0  0  0  0  0  0  0  0  0  0  0
  -24.8865  -31.5545   22.6547 C   0  0  0  0  0  0  0  0  0  0  0  0
  -22.5040  -29.4606   23.3338 C   0  0  0  0  0  0  0  0  0  0  0  0
  -21.2486  -26.3018   23.0285 C   0  0  0  0  0  0  0  0  0  0  0  0
  -29.9156  -18.3627   19.2519 C   0  0  0  0  0  0  0  0  0  0  0  0
  -23.7274  -35.0885   26.1512 C   0  0  0  0  0  0  0  0  0  0  0  0
  -24.3428  -30.6508   20.3648 C   0  0  0  0  0  0  0  0  0  0  0  0
  -24.6189  -28.4872   22.3616 C   0  0  0  0  0  0  0  0  0  0  0  0
  -23.8425  -33.5664   26.1338 C   0  0  0  0  0  0  0  0  0  0  0  0
  -26.6457  -19.5608   18.2705 C   0  0  0  0  0  0  0  0  0  0  0  0
  -28.0812  -23.0572   17.1705 C   0  0  0  0  0  0  0  0  0  0  0  0
  -27.8493  -24.5228   17.3668 C   0  0  0  0  0  0  0  0  0  0  0  0
  -25.1542  -33.1376   25.4839 C   0  0  0  0  0  0  0  0  0  0  0  0
  -25.7320  -18.5565   18.9749 C   0  0  0  0  0  0  0  0  0  0  0  0
  -33.8497  -20.3731   18.1102 C   0  0  0  0  0  0  0  0  0  0  0  0
  -33.0703  -19.0446   18.0052 C   0  0  0  0  0  0  0  0  0  0  0  0
  -27.9054  -18.8842   17.7371 C   0  0  0  0  0  0  0  0  0  0  0  0
  -27.7754  -17.1365   19.4683 C   0  0  0  0  0  0  0  0  0  0  0  0
  -28.0427  -23.6289   18.5626 C   0  0  0  0  0  0  0  0  0  0  0  0
  -25.2252  -33.6037   24.0247 C   0  0  1  0  0  0  0  0  0  0  0  0
  -23.8811  -30.8264   21.8082 C   0  0  1  0  0  0  0  0  0  0  0  0
  -26.4962  -17.7636   20.0514 C   0  0  2  0  0  0  0  0  0  0  0  0
  -32.4979  -21.0520   18.4204 C   0  0  1  0  0  0  0  0  0  0  0  0
  -32.0097  -19.6766   18.9390 C   0  0  1  0  0  0  0  0  0  0  0  0
  -32.9699  -23.9649   21.5591 C   0  0  0  0  0  0  0  0  0  0  0  0
  -19.3011  -24.8803   23.7242 C   0  0  0  0  0  0  0  0  0  0  0  0
  -23.6838  -29.2207   26.1375 C   0  0  0  0  0  0  0  0  0  0  0  0
  -22.3242  -27.1427   26.4563 C   0  0  0  0  0  0  0  0  0  0  0  0
  -21.1863  -29.3273   26.0622 C   0  0  0  0  0  0  0  0  0  0  0  0
  -20.4366  -25.8361   20.2209 C   0  0  0  0  0  0  0  0  0  0  0  0
  -28.3510  -25.6184   20.6993 C   0  0  0  0  0  0  0  0  0  1  0  0
  -22.3929  -28.1956   24.1503 C   0  0  1  0  0  0  0  0  0  0  0  0
  -19.8664  -25.7993   22.6524 C   0  0  2  0  0  0  0  0  0  0  0  0
  -22.4151  -28.4737   25.6799 C   0  0  0  0  0  0  0  0  0  0  0  0
  -25.5886  -15.4775   20.2305 N   0  0  0  0  0  0  0  0  0  0  0  0
  -25.6115  -16.7284   20.7211 N   0  0  0  0  0  0  0  0  0  0  0  0
  -23.6071  -29.5508   22.4730 N   0  0  0  0  0  0  0  0  0  0  0  0
  -28.5960  -18.1629   18.8159 N   0  0  0  0  0  0  0  0  0  0  0  0
  -24.7056  -18.1078   22.4202 N   0  0  0  0  0  0  0  0  0  0  0  0
  -22.7574  -14.1047   23.1789 N   0  0  0  0  0  0  0  0  0  0  0  0
  -32.6015  -22.0304   19.4445 N   0  0  0  0  0  0  0  0  0  0  0  0
  -24.4224  -32.7452   23.1803 N   0  0  0  0  0  0  0  0  0  0  0  0
  -21.1905  -27.5133   23.6844 N   0  0  0  0  0  0  0  0  0  0  0  0
  -30.6338  -19.3536   18.5911 N   0  0  0  0  0  0  0  0  0  0  0  0
  -19.9211  -25.0454   21.3681 N   0  3  0  0  0  0  0  0  0  0  0  0
  -22.8848  -16.2791   23.8959 O   0  0  0  0  0  0  0  0  0  0  0  0
  -26.0004  -31.0711   22.8200 O   0  0  0  0  0  0  0  0  0  0  0  0
  -21.6400  -30.3332   23.4501 O   0  0  0  0  0  0  0  0  0  0  0  0
  -22.2767  -25.6800   22.7699 O   0  0  0  0  0  0  0  0  0  0  0  0
  -30.4240  -17.7108   20.1706 O   0  0  0  0  0  0  0  0  0  0  0  0
  -23.5651   -9.4397   20.2426 O   0  0  0  0  0  0  0  0  0  0  0  0
  -28.2762  -26.6295   19.6950 O   0  0  0  0  0  0  0  0  0  1  0  0
  -23.4872   -6.1529   24.6693 F   0  0  0  0  0  0  0  0  0  0  0  0
  -21.8142   -9.9120   22.3293 F   0  0  0  0  0  0  0  0  0  0  0  0
  1  2  1  0  0  0  0
  1  5  2  0  0  0  0
  2  6  2  0  0  0  0
  3  8  2  0  0  0  0
  3 17  1  0  0  0  0
  4  9  1  0  0  0  0
  4 17  2  0  0  0  0
  5 19  1  0  0  0  0
  6 21  1  0  0  0  0
  7 10  2  0  0  0  0
  7 20  1  0  0  0  0
  8 27  1  0  0  0  0
  9 27  2  0  0  0  0
 10 28  1  0  0  0  0
 11 12  2  0  0  0  0
 11 29  1  0  0  0  0
 12 30  1  0  0  0  0
 13 22  1  0  0  0  0
 13 26  2  0  0  0  0
 14 23  1  0  0  0  0
 14 28  2  0  0  0  0
 15 24  1  0  0  0  0
 15 25  2  0  0  0  0
 16 30  2  0  0  0  0
 16 31  1  0  0  0  0
 17 32  1  0  0  0  0
 18 32  1  0  0  0  0
 18 33  2  0  0  0  0
 18 34  1  0  0  0  0
 19 21  2  0  0  0  0
 19 39  1  0  0  0  0
 20 23  2  0  0  0  0
 20 40  1  0  0  0  0
 21 53  1  0  0  0  0
 22 24  2  0  0  0  0
 22 52  1  0  0  0  0
 23 41  1  0  0  0  0
 24 64  1  0  0  0  0
 25 26  1  0  0  0  0
 25 58  1  0  0  0  0
 26 74  1  0  0  0  0
 27 84  1  0  0  0  0
 28 85  1  0  0  0  0
 29 31  2  0  0  0  0
 29 84  1  0  0  0  0
 30 86  1  0  0  0  0
 31 87  1  0  0  0  0
 32 68  2  0  0  0  0
 33 69  1  0  0  0  0
 33 72  1  0  0  0  0
 34 73  1  0  0  0  0
 34 79  2  0  0  0  0
 35 54  1  0  0  0  0
 35 75  1  0  0  0  0
 35 80  2  0  0  0  0
 36 65  1  0  0  0  0
 36 70  1  0  0  0  0
 36 81  2  0  0  0  0
 37 66  1  0  0  0  0
 37 76  1  0  0  0  0
 37 82  2  0  0  0  0
 38 71  1  0  0  0  0
 38 77  1  0  0  0  0
 38 83  2  0  0  0  0
 39 42  1  0  0  0  0
 40 54  1  0  0  0  0
 41 70  1  0  0  0  0
 42 46  1  0  0  0  0
 43 47  1  0  0  0  0
 43 50  1  0  0  0  0
 44 45  1  0  0  0  0
 44 52  1  0  0  0  0
 45 52  1  0  0  0  0
 46 53  1  0  0  0  0
 47 55  1  0  0  0  0
 48 49  1  0  0  0  0
 48 56  1  0  0  0  0
 49 57  1  0  0  0  0
 50 71  1  0  0  0  0
 51 55  1  0  0  0  0
 51 71  1  0  0  0  0
 53 75  1  0  0  0  0
 54 70  1  0  0  0  0
 55 69  1  0  0  0  0
 56 57  1  0  0  0  0
 56 74  1  0  0  0  0
 57 77  1  0  0  0  0
 59 66  1  0  0  0  0
 60 67  1  0  0  0  0
 61 67  1  0  0  0  0
 62 67  1  0  0  0  0
 63 78  1  0  0  0  0
 64 85  1  0  0  0  0
 65 67  1  0  0  0  0
 65 76  1  0  0  0  0
 66 78  1  0  0  0  0
 68 69  1  0  0  0  0
M  CHG  1  78   1
M  ISO  4  38 100  64 101  77 100  85 101
M  END
> <Batch ID>
0153

> <Smiles>
CNC(C)C(=O)NC(C(=O)N1Cc2cc([101O:1][101CH2:1]c3cc(C)c(NC4CCC4[100NH:0][100C:0](=O)N4CCCC(n5nc(-c6ccc(Oc7ccc(F)cc7F)cc6)c(C(N)=O)c5N)C4)cc3C3CC3)ccc2CC1C(=O)NC1CCCc2ccccc21)C(C)(C)C

> <Shape>
0.284

> <Color>
0.086

> <Negative vol penalty>
0.000

$$$$

  -OEChem-04052321483D

 89 98  0     1  0  0  0  0  0999 V2000
  -19.4342  -24.5649   24.0611 C   0  0  0  0  0  0  0  0  0  0  0  0
  -20.7311  -24.7370   23.5881 C   0  0  0  0  0  0  0  0  0  0  0  0
  -24.8035   -8.7179   21.4798 C   0  0  0  0  0  0  0  0  0  0  0  0
  -23.2004  -10.4305   20.9018 C   0  0  0  0  0  0  0  0  0  0  0  0
  -18.4729  -25.5480   23.8302 C   0  0  0  0  0  0  0  0  0  0  0  0
  -21.0673  -25.8921   22.8829 C   0  0  0  0  0  0  0  0  0  0  0  0
  -25.4815  -27.8689   24.3834 C   0  0  0  0  0  0  0  0  0  0  0  0
  -23.9006   -8.1827   22.3984 C   0  0  0  0  0  0  0  0  0  0  0  0
  -22.2974   -9.8953   21.8204 C   0  0  0  0  0  0  0  0  0  0  0  0
  -26.6444  -27.2557   23.9192 C   0  0  0  0  0  0  0  0  0  0  0  0
  -21.1498   -6.2175   22.3320 C   0  0  0  0  0  0  0  0  0  0  0  0
  -20.9806   -4.8330   22.3433 C   0  0  0  0  0  0  0  0  0  0  0  0
  -26.8704  -28.9709   22.2380 C   0  0  0  0  0  0  0  0  0  0  0  0
  -26.1511  -20.4054   18.3723 C   0  0  0  0  0  0  0  0  0  0  0  0
  -21.7101   -4.7626   24.6455 C   0  0  0  0  0  0  0  0  0  0  0  0
  -24.4534   -9.8419   20.7315 C   0  0  0  0  0  0  0  0  0  0  0  0
  -25.5157  -10.0581   18.4223 C   0  0  0  0  0  0  0  0  0  0  0  0
  -18.7999  -26.7200   23.1301 C   0  0  0  0  0  0  0  0  0  0  0  0
  -24.9976  -29.0336   23.7704 C   0  0  0  0  0  0  0  0  0  0  0  0
  -20.1091  -26.8912   22.6412 C   0  0  0  0  0  0  0  0  0  0  0  0
  -25.7026  -29.5983   22.6980 C   0  0  0  0  0  0  0  0  0  0  0  0
  -26.0053  -19.3567   17.4643 C   0  0  0  0  0  0  0  0  0  0  0  0
  -26.4243  -18.0718   17.8096 C   0  0  0  0  0  0  0  0  0  0  0  0
  -27.1350  -18.8844   19.9710 C   0  0  0  0  0  0  0  0  0  0  0  0
  -26.9891  -17.8357   19.0629 C   0  0  0  0  0  0  0  0  0  0  0  0
  -22.6475   -8.7714   22.5687 C   0  0  0  0  0  0  0  0  0  0  0  0
  -27.3374  -27.8051   22.8445 C   0  0  0  0  0  0  0  0  0  0  0  0
  -21.5993   -6.8746   23.4774 C   0  0  0  0  0  0  0  0  0  0  0  0
  -26.7160  -20.1693   19.6257 C   0  0  0  0  0  0  0  0  0  0  0  0
  -21.2607   -4.1056   23.5000 C   0  0  0  0  0  0  0  0  0  0  0  0
  -21.8794   -6.1472   24.6341 C   0  0  0  0  0  0  0  0  0  0  0  0
  -25.3859  -10.3955   19.7828 C   0  0  0  0  0  0  0  0  0  0  0  0
  -26.5342  -10.8585   17.9656 C   0  0  0  0  0  0  0  0  0  0  0  0
  -24.7812   -9.1063   17.6411 C   0  0  0  0  0  0  0  0  0  0  0  0
  -22.3327  -29.8125   22.2227 C   0  0  0  0  0  0  0  0  0  0  0  0
  -23.6289  -32.7854   22.2842 C   0  0  0  0  0  0  0  0  0  0  0  0
  -26.4313  -34.7200   22.5096 C   0  0  0  0  0  0  0  0  0  0  0  0
  -28.7038  -16.1280   19.7629 C   0  0  0  0  0  0  0  0  0  0  0  0
  -17.7149  -27.7333   22.8640 C   0  0  0  0  0  0  0  0  0  0  0  0
  -23.7564  -29.6978   24.3002 C   0  0  0  0  0  0  0  0  0  0  0  0
  -25.2361  -30.8588   22.0182 C   0  0  0  0  0  0  0  0  0  0  0  0
  -18.2478  -29.0973   22.4330 C   0  0  0  0  0  0  0  0  0  0  0  0
  -30.5098  -13.0750   19.4543 C   0  0  0  0  0  0  0  0  0  0  0  0
  -19.3207  -28.9367   21.3606 C   0  0  0  0  0  0  0  0  0  0  0  0
  -29.4125  -12.0113   19.3736 C   0  0  0  0  0  0  0  0  0  0  0  0
  -28.8313  -22.4529   21.0352 C   0  0  0  0  0  0  0  0  0  0  0  0
  -26.8100  -23.5820   20.0512 C   0  0  0  0  0  0  0  0  0  0  0  0
  -30.1358  -14.2040   20.4131 C   0  0  0  0  0  0  0  0  0  0  0  0
  -27.7350  -13.7661   20.0763 C   0  0  0  0  0  0  0  0  0  0  0  0
  -29.6699  -23.6802   20.7142 C   0  0  0  0  0  0  0  0  0  0  0  0
  -27.6532  -24.8068   19.7326 C   0  0  0  0  0  0  0  0  0  0  0  0
  -20.5187  -28.1415   21.8935 C   0  0  1  0  0  0  0  0  0  0  0  0
  -23.0726  -30.5934   23.2717 C   0  0  1  0  0  0  0  0  0  0  0  0
  -28.0381  -12.6410   19.0732 C   0  0  2  0  0  0  0  0  0  0  0  0
  -27.6512  -22.3084   20.0789 C   0  0  0  0  0  0  0  0  0  0  0  0
  -25.3978  -19.6370   16.1285 C   0  0  0  0  0  0  0  0  0  0  0  0
  -26.2663  -16.9514   16.8297 C   0  0  0  0  0  0  0  0  0  0  0  0
  -27.7391  -18.6446   21.3189 C   0  0  0  0  0  0  0  0  0  0  0  0
  -27.1778  -37.1158   22.4915 C   0  0  0  0  0  0  0  0  0  0  0  0
  -23.2433  -32.8801   19.2590 C   0  0  0  0  0  0  0  0  0  0  0  0
  -24.8290  -34.8162   19.1874 C   0  0  0  0  0  0  0  0  0  0  0  0
  -22.6855  -35.0079   20.4488 C   0  0  0  0  0  0  0  0  0  0  0  0
  -27.5485  -34.5137   25.2424 C   0  0  0  0  0  0  0  0  0  0  0  0
  -29.5863  -26.1660   20.5300 C   0  0  0  0  0  0  0  0  0  0  0  0
  -28.7708  -27.3539   21.0011 C   0  0  0  0  0  0  0  0  0  1  0  0
  -24.5463  -33.5706   21.3782 C   0  0  1  0  0  0  0  0  0  0  0  0
  -26.7474  -35.9404   23.3553 C   0  0  2  0  0  0  0  0  0  0  0  0
  -23.8340  -34.0439   20.0797 C   0  0  0  0  0  0  0  0  0  0  0  0
  -26.2528  -11.3369   20.1656 N   0  0  0  0  0  0  0  0  0  0  0  0
  -26.9371  -11.5977   19.0387 N   0  0  0  0  0  0  0  0  0  0  0  0
  -24.0138  -31.4675   22.5687 N   0  0  0  0  0  0  0  0  0  0  0  0
  -28.8243  -14.7550   20.0648 N   0  0  0  0  0  0  0  0  0  0  0  0
  -27.1155  -10.9950   16.7549 N   0  0  0  0  0  0  0  0  0  0  0  0
  -23.7678   -8.3679   18.2673 N   0  0  0  0  0  0  0  0  0  0  0  0
  -27.4151  -16.5308   19.4145 N   0  0  0  0  0  0  0  0  0  0  0  0
  -21.3515  -28.9809   22.7280 N   0  0  0  0  0  0  0  0  0  0  0  0
  -25.0918  -34.6537   22.1892 N   0  0  0  0  0  0  0  0  0  0  0  0
  -28.7876  -24.9066   20.7256 N   0  3  0  0  0  0  0  0  0  0  0  0
  -27.8461  -35.6353   24.3148 N   0  3  0  0  0  0  0  0  0  0  0  0
  -25.0276   -8.9044   16.4278 O   0  0  0  0  0  0  0  0  0  0  0  0
  -22.6289  -29.9550   21.0422 O   0  0  0  0  0  0  0  0  0  0  0  0
  -22.6122  -33.3238   22.7291 O   0  0  0  0  0  0  0  0  0  0  0  0
  -27.2876  -33.9088   22.1645 O   0  0  0  0  0  0  0  0  0  0  0  0
  -29.6779  -16.8849   19.7834 O   0  0  0  0  0  0  0  0  0  0  0  0
  -21.7661   -8.2492   23.4648 O   0  0  0  0  0  0  0  0  0  0  0  0
  -26.8501  -21.2119   20.5040 O   0  0  0  0  0  0  0  0  0  0  0  0
  -28.4724  -27.2082   22.3890 O   0  0  0  0  0  0  0  0  0  1  0  0
  -21.0966   -2.7763   23.5112 F   0  0  0  0  0  0  0  0  0  0  0  0
  -22.3103   -6.7730   25.7380 F   0  0  0  0  0  0  0  0  0  0  0  0
  1  2  1  0  0  0  0
  1  5  2  0  0  0  0
  2  6  2  0  0  0  0
  3  8  2  0  0  0  0
  3 16  1  0  0  0  0
  4  9  1  0  0  0  0
  4 16  2  0  0  0  0
  5 18  1  0  0  0  0
  6 20  1  0  0  0  0
  7 10  2  0  0  0  0
  7 19  1  0  0  0  0
  8 26  1  0  0  0  0
  9 26  2  0  0  0  0
 10 27  1  0  0  0  0
 11 12  2  0  0  0  0
 11 28  1  0  0  0  0
 12 30  1  0  0  0  0
 13 21  1  0  0  0  0
 13 27  2  0  0  0  0
 14 22  2  0  0  0  0
 14 29  1  0  0  0  0
 15 30  2  0  0  0  0
 15 31  1  0  0  0  0
 16 32  1  0  0  0  0
 17 32  1  0  0  0  0
 17 33  2  0  0  0  0
 17 34  1  0  0  0  0
 18 20  2  0  0  0  0
 18 39  1  0  0  0  0
 19 21  2  0  0  0  0
 19 40  1  0  0  0  0
 20 52  1  0  0  0  0
 21 41  1  0  0  0  0
 22 23  1  0  0  0  0
 22 56  1  0  0  0  0
 23 25  2  0  0  0  0
 23 57  1  0  0  0  0
 24 25  1  0  0  0  0
 24 29  2  0  0  0  0
 24 58  1  0  0  0  0
 25 75  1  0  0  0  0
 26 85  1  0  0  0  0
 27 87  1  0  0  0  0
 28 31  2  0  0  0  0
 28 85  1  0  0  0  0
 29 86  1  0  0  0  0
 30 88  1  0  0  0  0
 31 89  1  0  0  0  0
 32 69  2  0  0  0  0
 33 70  1  0  0  0  0
 33 73  1  0  0  0  0
 34 74  1  0  0  0  0
 34 80  2  0  0  0  0
 35 53  1  0  0  0  0
 35 76  1  0  0  0  0
 35 81  2  0  0  0  0
 36 66  1  0  0  0  0
 36 71  1  0  0  0  0
 36 82  2  0  0  0  0
 37 67  1  0  0  0  0
 37 77  1  0  0  0  0
 37 83  2  0  0  0  0
 38 72  1  0  0  0  0
 38 75  1  0  0  0  0
 38 84  2  0  0  0  0
 39 42  1  0  0  0  0
 40 53  1  0  0  0  0
 41 71  1  0  0  0  0
 42 44  1  0  0  0  0
 43 45  1  0  0  0  0
 43 48  1  0  0  0  0
 44 52  1  0  0  0  0
 45 54  1  0  0  0  0
 46 50  1  0  0  0  0
 46 55  1  0  0  0  0
 47 51  1  0  0  0  0
 47 55  1  0  0  0  0
 48 72  1  0  0  0  0
 49 54  1  0  0  0  0
 49 72  1  0  0  0  0
 50 78  1  0  0  0  0
 51 78  1  0  0  0  0
 52 76  1  0  0  0  0
 53 71  1  0  0  0  0
 54 70  1  0  0  0  0
 55 86  1  0  0  0  0
 59 67  1  0  0  0  0
 60 68  1  0  0  0  0
 61 68  1  0  0  0  0
 62 68  1  0  0  0  0
 63 79  1  0  0  0  0
 64 65  1  0  0  0  0
 64 78  1  0  0  0  0
 65 87  1  0  0  0  0
 66 68  1  0  0  0  0
 66 77  1  0  0  0  0
 67 79  1  0  0  0  0
 69 70  1  0  0  0  0
M  CHG  2  78   1  79   1
M  ISO  4  38 100  65 101  75 100  87 101
M  END
> <Batch ID>
0153

> <Smiles>
CNC(C)C(=O)NC(C(=O)N1Cc2cc([101O:1][101CH2:1]CN3CCC(Oc4cc(C)c(C)c([100NH:0][100C:0](=O)N5CCCC(n6nc(-c7ccc(Oc8ccc(F)cc8F)cc7)c(C(N)=O)c6N)C5)c4C)CC3)ccc2CC1C(=O)NC1CCCc2ccccc21)C(C)(C)C

> <Shape>
0.299

> <Color>
0.097

> <Negative vol penalty>
0.000

$$$$

  -OEChem-04052321483D

 87 95  0     1  0  0  0  0  0999 V2000
  -32.2900  -13.7108   20.6867 C   0  0  0  0  0  0  0  0  0  0  0  0
  -31.6008  -14.7870   21.2364 C   0  0  0  0  0  0  0  0  0  0  0  0
  -28.8637  -26.2141   19.6831 C   0  0  0  0  0  0  0  0  0  0  0  0
  -26.8750  -25.0965   18.8873 C   0  0  0  0  0  0  0  0  0  0  0  0
  -31.6295  -12.8198   19.8419 C   0  0  0  0  0  0  0  0  0  0  0  0
  -30.2509  -14.9735   20.9406 C   0  0  0  0  0  0  0  0  0  0  0  0
  -25.9366  -17.1960   24.6760 C   0  0  0  0  0  0  0  0  0  0  0  0
  -29.5590  -25.0057   19.6427 C   0  0  0  0  0  0  0  0  0  0  0  0
  -27.5704  -23.8880   18.8469 C   0  0  0  0  0  0  0  0  0  0  0  0
  -25.3731  -18.4644   24.8083 C   0  0  0  0  0  0  0  0  0  0  0  0
  -28.5707  -21.5149   21.0374 C   0  0  0  0  0  0  0  0  0  0  0  0
  -27.9381  -20.3855   21.5568 C   0  0  0  0  0  0  0  0  0  0  0  0
  -23.5415  -17.7921   23.3898 C   0  0  0  0  0  0  0  0  0  0  0  0
  -19.4252  -25.1755   25.1268 C   0  0  0  0  0  0  0  0  0  0  0  0
  -28.0879  -19.3092   19.3990 C   0  0  0  0  0  0  0  0  0  0  0  0
  -27.5216  -26.2596   19.3055 C   0  0  0  0  0  0  0  0  0  0  0  0
  -26.6836  -28.4553   18.3134 C   0  0  0  0  0  0  0  0  0  0  0  0
  -30.2685  -12.9899   19.5433 C   0  0  0  0  0  0  0  0  0  0  0  0
  -25.3113  -16.2179   23.8893 C   0  0  0  0  0  0  0  0  0  0  0  0
  -29.5720  -14.0846   20.0899 C   0  0  0  0  0  0  0  0  0  0  0  0
  -24.0978  -16.5113   23.2511 C   0  0  0  0  0  0  0  0  0  0  0  0
  -21.2636  -24.3283   23.8279 C   0  0  0  0  0  0  0  0  0  0  0  0
  -28.9124  -23.8426   19.2246 C   0  0  0  0  0  0  0  0  0  0  0  0
  -24.1769  -18.7635   24.1629 C   0  0  0  0  0  0  0  0  0  0  0  0
  -28.9619  -21.5415   19.6988 C   0  0  0  0  0  0  0  0  0  0  0  0
  -20.2102  -25.2231   23.9802 C   0  0  0  0  0  0  0  0  0  0  0  0
  -27.6966  -19.2827   20.7376 C   0  0  0  0  0  0  0  0  0  0  0  0
  -28.7205  -20.4387   18.8796 C   0  0  0  0  0  0  0  0  0  0  0  0
  -26.8027  -27.5076   19.3475 C   0  0  0  0  0  0  0  0  0  0  0  0
  -19.7324  -24.2219   26.0840 C   0  0  0  0  0  0  0  0  0  0  0  0
  -21.4886  -23.4128   24.8433 C   0  0  0  0  0  0  0  0  0  0  0  0
  -25.9071  -29.4532   18.8499 C   0  0  0  0  0  0  0  0  0  0  0  0
  -27.2263  -28.4354   16.9864 C   0  0  0  0  0  0  0  0  0  0  0  0
  -26.1100  -14.5920   21.2774 C   0  0  0  0  0  0  0  0  0  0  0  0
  -23.3338  -13.0248   21.8766 C   0  0  0  0  0  0  0  0  0  0  0  0
  -20.2465  -13.0530   23.3309 C   0  0  0  0  0  0  0  0  0  0  0  0
  -21.8488  -29.5410   23.2515 C   0  0  0  0  0  0  0  0  0  0  0  0
  -29.6092  -12.0276   18.5872 C   0  0  0  0  0  0  0  0  0  0  0  0
  -25.9182  -14.8461   23.7784 C   0  0  0  0  0  0  0  0  0  0  0  0
  -23.3762  -15.4900   22.4115 C   0  0  0  0  0  0  0  0  0  0  0  0
  -28.0841  -12.0828   18.6225 C   0  0  0  0  0  0  0  0  0  0  0  0
  -24.8098  -31.5058   23.0300 C   0  0  0  0  0  0  0  0  0  0  0  0
  -27.6013  -13.5293   18.5888 C   0  0  0  0  0  0  0  0  0  0  0  0
  -25.6456  -30.7894   21.9678 C   0  0  0  0  0  0  0  0  0  0  0  0
  -24.0318  -30.5181   23.8968 C   0  0  0  0  0  0  0  0  0  0  0  0
  -24.0294  -28.8470   22.0854 C   0  0  0  0  0  0  0  0  0  0  0  0
  -28.1009  -14.3064   19.8127 C   0  0  1  0  0  0  0  0  0  0  0  0
  -25.4605  -14.0890   22.5355 C   0  0  1  0  0  0  0  0  0  0  0  0
  -24.7886  -29.8041   21.1505 C   0  0  2  0  0  0  0  0  0  0  0  0
  -18.9109  -24.1420   27.3272 C   0  0  0  0  0  0  0  0  0  0  0  0
  -22.0417  -23.0469   21.8015 C   0  0  0  0  0  0  0  0  0  0  0  0
  -23.5931  -24.6813   22.9318 C   0  0  0  0  0  0  0  0  0  0  0  0
  -18.1907  -11.6426   23.6167 C   0  0  0  0  0  0  0  0  0  0  0  0
  -22.5014  -13.6619   19.0111 C   0  0  0  0  0  0  0  0  0  0  0  0
  -20.1463  -13.0938   19.6428 C   0  0  0  0  0  0  0  0  0  0  0  0
  -21.9262  -11.3511   19.7752 C   0  0  0  0  0  0  0  0  0  0  0  0
  -20.5484  -13.0037   26.2746 C   0  0  0  0  0  0  0  0  0  0  0  0
  -19.7388  -28.4837   22.4840 C   0  0  0  0  0  0  0  0  0  0  0  0
  -19.3558  -27.3788   23.4522 C   0  0  0  0  0  0  0  0  0  0  0  0
  -23.8720  -20.7002   25.5090 C   0  0  0  0  0  0  0  0  0  1  0  0
  -22.6914  -21.6032   25.8098 C   0  0  0  0  0  0  0  0  0  0  0  0
  -22.1221  -24.3564   22.6091 C   0  0  0  0  0  0  0  0  0  0  0  0
  -21.8900  -13.2178   21.4799 C   0  0  1  0  0  0  0  0  0  0  0  0
  -19.5361  -12.0364   24.2062 C   0  0  2  0  0  0  0  0  0  0  0  0
  -21.6303  -12.8512   19.9914 C   0  0  0  0  0  0  0  0  0  0  0  0
  -26.1539  -27.8708   20.4571 N   0  0  0  0  0  0  0  0  0  0  0  0
  -20.7475  -23.3362   25.9714 N   0  0  0  0  0  0  0  0  0  0  0  0
  -25.6198  -29.0580   20.1233 N   0  0  0  0  0  0  0  0  0  0  0  0
  -24.0128  -14.1652   22.3285 N   0  0  0  0  0  0  0  0  0  0  0  0
  -23.2386  -29.6135   23.0610 N   0  0  0  0  0  0  0  0  0  0  0  0
  -25.4490  -30.6213   18.3520 N   0  0  0  0  0  0  0  0  0  0  0  0
  -28.0014  -27.3342   16.5980 N   0  0  0  0  0  0  0  0  0  0  0  0
  -27.3101  -13.9756   20.9787 N   0  0  0  0  0  0  0  0  0  0  0  0
  -21.0984  -12.4465   22.4322 N   0  0  0  0  0  0  0  0  0  0  0  0
  -21.1718  -28.6637   22.4132 N   0  0  0  0  0  0  0  0  0  0  0  0
  -19.3067  -12.5959   25.5683 N   0  3  0  0  0  0  0  0  0  0  0  0
  -27.0433  -29.3742   16.1748 O   0  0  0  0  0  0  0  0  0  0  0  0
  -25.5621  -15.4729   20.6252 O   0  0  0  0  0  0  0  0  0  0  0  0
  -23.8383  -11.9021   21.7954 O   0  0  0  0  0  0  0  0  0  0  0  0
  -20.0613  -14.2638   23.4316 O   0  0  0  0  0  0  0  0  0  0  0  0
  -21.2547  -30.2126   24.1017 O   0  0  0  0  0  0  0  0  0  0  0  0
  -29.5907  -22.6632   19.1848 O   0  0  0  0  0  0  0  0  0  0  0  0
  -23.6251  -20.0009   24.2898 O   0  0  0  0  0  0  0  0  0  1  0  0
  -19.9344  -26.1486   23.0200 O   0  0  0  0  0  0  0  0  0  0  0  0
  -22.5168  -22.5143   24.7315 O   0  0  0  0  0  0  0  0  0  0  0  0
  -27.0904  -18.1976   21.2369 F   0  0  0  0  0  0  0  0  0  0  0  0
  -29.0951  -20.4579   17.5931 F   0  0  0  0  0  0  0  0  0  0  0  0
  1  2  1  0  0  0  0
  1  5  2  0  0  0  0
  2  6  2  0  0  0  0
  3  8  2  0  0  0  0
  3 16  1  0  0  0  0
  4  9  1  0  0  0  0
  4 16  2  0  0  0  0
  5 18  1  0  0  0  0
  6 20  1  0  0  0  0
  7 10  2  0  0  0  0
  7 19  1  0  0  0  0
  8 23  1  0  0  0  0
  9 23  2  0  0  0  0
 10 24  1  0  0  0  0
 11 12  2  0  0  0  0
 11 25  1  0  0  0  0
 12 27  1  0  0  0  0
 13 21  1  0  0  0  0
 13 24  2  0  0  0  0
 14 26  2  0  0  0  0
 14 30  1  0  0  0  0
 15 27  2  0  0  0  0
 15 28  1  0  0  0  0
 16 29  1  0  0  0  0
 17 29  1  0  0  0  0
 17 32  2  0  0  0  0
 17 33  1  0  0  0  0
 18 20  2  0  0  0  0
 18 38  1  0  0  0  0
 19 21  2  0  0  0  0
 19 39  1  0  0  0  0
 20 47  1  0  0  0  0
 21 40  1  0  0  0  0
 22 26  1  0  0  0  0
 22 31  2  0  0  0  0
 22 62  1  0  0  0  0
 23 82  1  0  0  0  0
 24 83  1  0  0  0  0
 25 28  2  0  0  0  0
 25 82  1  0  0  0  0
 26 84  1  0  0  0  0
 27 86  1  0  0  0  0
 28 87  1  0  0  0  0
 29 66  2  0  0  0  0
 30 50  1  0  0  0  0
 30 67  2  0  0  0  0
 31 67  1  0  0  0  0
 31 85  1  0  0  0  0
 32 68  1  0  0  0  0
 32 71  1  0  0  0  0
 33 72  1  0  0  0  0
 33 77  2  0  0  0  0
 34 48  1  0  0  0  0
 34 73  1  0  0  0  0
 34 78  2  0  0  0  0
 35 63  1  0  0  0  0
 35 69  1  0  0  0  0
 35 79  2  0  0  0  0
 36 64  1  0  0  0  0
 36 74  1  0  0  0  0
 36 80  2  0  0  0  0
 37 70  1  0  0  0  0
 37 75  1  0  0  0  0
 37 81  2  0  0  0  0
 38 41  1  0  0  0  0
 39 48  1  0  0  0  0
 40 69  1  0  0  0  0
 41 43  1  0  0  0  0
 42 44  1  0  0  0  0
 42 45  1  0  0  0  0
 43 47  1  0  0  0  0
 44 49  1  0  0  0  0
 45 70  1  0  0  0  0
 46 49  1  0  0  0  0
 46 70  1  0  0  0  0
 47 73  1  0  0  0  0
 48 69  1  0  0  0  0
 49 68  1  0  0  0  0
 51 62  1  0  0  0  0
 52 62  1  0  0  0  0
 53 64  1  0  0  0  0
 54 65  1  0  0  0  0
 55 65  1  0  0  0  0
 56 65  1  0  0  0  0
 57 76  1  0  0  0  0
 58 59  1  0  0  0  0
 58 75  1  0  0  0  0
 59 84  1  0  0  0  0
 60 61  1  0  0  0  0
 60 83  1  0  0  0  0
 61 85  1  0  0  0  0
 63 65  1  0  0  0  0
 63 74  1  0  0  0  0
 64 76  1  0  0  0  0
 66 68  1  0  0  0  0
M  CHG  1  76   1
M  ISO  4  37 100  60 101  75 100  83 101
M  END
> <Batch ID>
0153

> <Smiles>
CNC(C)C(=O)NC(C(=O)N1Cc2cc([101O:1][101CH2:1]COc3nc(C)cc(OCC[100NH:0][100C:0](=O)N4CCCC(n5nc(-c6ccc(Oc7ccc(F)cc7F)cc6)c(C(N)=O)c5N)C4)c3C(C)C)ccc2CC1C(=O)NC1CCCc2ccccc21)C(C)(C)C

> <Shape>
0.246

> <Color>
0.067

> <Negative vol penalty>
0.000

$$$$

  -OEChem-04052321483D

 91101  0     1  0  0  0  0  0999 V2000
  -29.3309  -32.2914   22.0703 C   0  0  0  0  0  0  0  0  0  0  0  0
  -28.8235  -31.2606   21.2860 C   0  0  0  0  0  0  0  0  0  0  0  0
  -23.6397  -10.3311   22.2457 C   0  0  0  0  0  0  0  0  0  0  0  0
  -24.5144   -8.7126   20.6796 C   0  0  0  0  0  0  0  0  0  0  0  0
  -28.7628  -32.5639   23.3141 C   0  0  0  0  0  0  0  0  0  0  0  0
  -27.7482  -30.5009   21.7455 C   0  0  0  0  0  0  0  0  0  0  0  0
  -24.2341  -29.7505   18.1771 C   0  0  0  0  0  0  0  0  0  0  0  0
  -22.5057   -9.5402   22.4298 C   0  0  0  0  0  0  0  0  0  0  0  0
  -23.3803   -7.9216   20.8637 C   0  0  0  0  0  0  0  0  0  0  0  0
  -24.5012  -28.7774   17.2151 C   0  0  0  0  0  0  0  0  0  0  0  0
  -20.8817   -5.3014   21.1943 C   0  0  0  0  0  0  0  0  0  0  0  0
  -21.0678   -3.9299   21.3676 C   0  0  0  0  0  0  0  0  0  0  0  0
  -23.0931  -27.2223   18.4059 C   0  0  0  0  0  0  0  0  0  0  0  0
  -27.5243  -23.2854   17.9884 C   0  0  0  0  0  0  0  0  0  0  0  0
  -22.4023   -4.3597   23.3353 C   0  0  0  0  0  0  0  0  0  0  0  0
  -24.6441   -9.9174   21.3705 C   0  0  0  0  0  0  0  0  0  0  0  0
  -27.0186  -10.6788   21.9084 C   0  0  0  0  0  0  0  0  0  0  0  0
  -27.6739  -31.8135   23.7848 C   0  0  0  0  0  0  0  0  0  0  0  0
  -23.4018  -29.4629   19.2685 C   0  0  0  0  0  0  0  0  0  0  0  0
  -27.1659  -30.7627   22.9973 C   0  0  0  0  0  0  0  0  0  0  0  0
  -22.8150  -28.1943   19.3790 C   0  0  0  0  0  0  0  0  0  0  0  0
  -27.0361  -24.6136   18.0567 C   0  0  0  0  0  0  0  0  0  0  0  0
  -22.3760   -8.3355   21.7389 C   0  0  0  0  0  0  0  0  0  0  0  0
  -23.9330  -27.5122   17.3309 C   0  0  0  0  0  0  0  0  0  0  0  0
  -21.4559   -6.2020   22.0914 C   0  0  0  0  0  0  0  0  0  0  0  0
  -21.8281   -3.4591   22.4381 C   0  0  0  0  0  0  0  0  0  0  0  0
  -22.2162   -5.7312   23.1619 C   0  0  0  0  0  0  0  0  0  0  0  0
  -25.8155  -10.7343   21.1795 C   0  0  0  0  0  0  0  0  0  0  0  0
  -27.3060  -25.0865   19.3219 C   0  0  0  0  0  0  0  0  0  0  0  0
  -28.0775  -22.9871   19.2141 C   0  0  0  0  0  0  0  0  0  0  0  0
  -27.8076  -11.6508   21.3432 C   0  0  0  0  0  0  0  0  0  0  0  0
  -27.3899   -9.8251   22.9987 C   0  0  0  0  0  0  0  0  0  0  0  0
  -23.7851  -29.3866   22.4230 C   0  0  0  0  0  0  0  0  0  0  0  0
  -20.5819  -28.8751   22.4086 C   0  0  0  0  0  0  0  0  0  0  0  0
  -17.8318  -27.7716   20.7158 C   0  0  0  0  0  0  0  0  0  0  0  0
  -28.6613  -16.5782   19.3946 C   0  0  0  0  0  0  0  0  0  0  0  0
  -27.1235  -32.1146   25.1564 C   0  0  0  0  0  0  0  0  0  0  0  0
  -23.1022  -30.5319   20.2834 C   0  0  0  0  0  0  0  0  0  0  0  0
  -21.8983  -27.8414   20.5208 C   0  0  0  0  0  0  0  0  0  0  0  0
  -25.7462  -31.5058   25.4071 C   0  0  0  0  0  0  0  0  0  0  0  0
  -27.2128  -14.3407   17.1088 C   0  0  0  0  0  0  0  0  0  0  0  0
  -25.7162  -30.0490   24.9556 C   0  0  0  0  0  0  0  0  0  0  0  0
  -26.8114  -13.1866   18.0270 C   0  0  0  0  0  0  0  0  0  0  0  0
  -27.5404  -19.8657   18.8252 C   0  0  0  0  0  0  0  0  0  0  0  0
  -29.9812  -19.7812   19.4602 C   0  0  0  0  0  0  0  0  0  0  0  0
  -25.6166  -24.5884   15.8533 C   0  0  0  0  0  0  0  0  0  0  0  0
  -26.9431  -15.7034   17.7497 C   0  0  0  0  0  0  0  0  0  0  0  0
  -27.7026  -18.5306   18.0924 C   0  0  0  0  0  0  0  0  0  0  0  0
  -30.1012  -18.4669   18.6938 C   0  0  0  0  0  0  0  0  0  0  0  0
  -27.1505  -14.7134   20.0070 C   0  0  0  0  0  0  0  0  0  0  0  0
  -26.3411  -25.3710   16.9350 C   0  0  1  0  0  0  0  0  0  0  0  0
  -25.9846  -29.9324   23.4503 C   0  0  1  0  0  0  0  0  0  0  0  0
  -22.6513  -29.9696   21.6280 C   0  0  1  0  0  0  0  0  0  0  0  0
  -27.4637  -13.3312   19.4135 C   0  0  1  0  0  0  0  0  0  0  0  0
  -28.8581  -20.6425   18.8768 C   0  0  0  0  0  0  0  0  0  0  0  0
  -24.8216  -25.3560   16.8648 C   0  0  1  0  0  0  0  0  0  1  0  0
  -15.3579  -27.4421   20.9783 C   0  0  0  0  0  0  0  0  0  0  0  0
  -29.9093  -24.0639   21.5052 C   0  0  0  0  0  0  0  0  0  0  0  0
  -27.6689  -23.1988   22.3044 C   0  0  0  0  0  0  0  0  0  0  0  0
  -21.0954  -26.4017   24.1198 C   0  0  0  0  0  0  0  0  0  0  0  0
  -18.7860  -25.6170   23.5550 C   0  0  0  0  0  0  0  0  0  0  0  0
  -19.1050  -27.7508   24.8071 C   0  0  0  0  0  0  0  0  0  0  0  0
  -17.2307  -29.6374   18.4985 C   0  0  0  0  0  0  0  0  0  0  0  0
  -28.8879  -27.6390   19.2363 C   0  0  0  0  0  0  0  0  0  0  0  0
  -27.0130  -26.4027   19.9284 C   0  0  0  0  0  0  0  0  0  0  0  0
  -19.6943  -27.6554   22.3504 C   0  0  1  0  0  0  0  0  0  0  0  0
  -16.4578  -28.3857   20.5170 C   0  0  2  0  0  0  0  0  0  0  0  0
  -28.3890  -24.1918   21.3902 C   0  0  0  0  0  0  0  0  0  0  0  0
  -19.6890  -26.8620   23.6875 C   0  0  0  0  0  0  0  0  0  0  0  0
  -25.8339  -11.6677   20.2243 N   0  0  0  0  0  0  0  0  0  0  0  0
  -27.9389  -24.0891   20.0168 N   0  0  0  0  0  0  0  0  0  0  0  0
  -27.0581  -12.2078   20.3491 N   0  0  0  0  0  0  0  0  0  0  0  0
  -21.6411  -28.9185   21.4909 N   0  0  0  0  0  0  0  0  0  0  0  0
  -27.5502  -15.7793   19.0858 N   0  0  0  0  0  0  0  0  0  0  0  0
  -28.8205  -17.7601   18.6557 N   0  0  0  0  0  0  0  0  0  0  0  0
  -29.0623  -12.0748   21.6046 N   0  0  0  0  0  0  0  0  0  0  0  0
  -26.4595   -8.8816   23.4553 N   0  0  0  0  0  0  0  0  0  0  0  0
  -28.6872  -21.8347   19.6776 N   0  0  0  0  0  0  0  0  0  0  0  0
  -24.7998  -30.2837   22.6970 N   0  0  0  0  0  0  0  0  0  0  0  0
  -18.3793  -28.1272   21.9303 N   0  0  0  0  0  0  0  0  0  0  0  0
  -16.2342  -28.7000   19.0775 N   0  3  0  0  0  0  0  0  0  0  0  0
  -28.5074   -9.9078   23.5625 O   0  0  0  0  0  0  0  0  0  0  0  0
  -23.7419  -28.2103   22.7639 O   0  0  0  0  0  0  0  0  0  0  0  0
  -20.3401  -29.7602   23.2331 O   0  0  0  0  0  0  0  0  0  0  0  0
  -18.3644  -27.0458   19.8791 O   0  0  0  0  0  0  0  0  0  0  0  0
  -29.4643  -16.2548   20.2787 O   0  0  0  0  0  0  0  0  0  0  0  0
  -21.2696   -7.5633   21.9184 O   0  0  0  0  0  0  0  0  0  0  0  0
  -24.1931  -26.5583   16.3916 O   0  0  0  0  0  0  0  0  0  1  0  0
  -28.2277  -27.0306   20.3354 O   0  0  0  0  0  0  0  0  0  0  0  0
  -22.0054   -2.1420   22.6053 F   0  0  0  0  0  0  0  0  0  0  0  0
  -22.7694   -6.5915   24.0277 F   0  0  0  0  0  0  0  0  0  0  0  0
  1  2  1  0  0  0  0
  1  5  2  0  0  0  0
  2  6  2  0  0  0  0
  3  8  2  0  0  0  0
  3 16  1  0  0  0  0
  4  9  1  0  0  0  0
  4 16  2  0  0  0  0
  5 18  1  0  0  0  0
  6 20  1  0  0  0  0
  7 10  2  0  0  0  0
  7 19  1  0  0  0  0
  8 23  1  0  0  0  0
  9 23  2  0  0  0  0
 10 24  1  0  0  0  0
 11 12  2  0  0  0  0
 11 25  1  0  0  0  0
 12 26  1  0  0  0  0
 13 21  1  0  0  0  0
 13 24  2  0  0  0  0
 14 22  1  0  0  0  0
 14 30  2  0  0  0  0
 15 26  2  0  0  0  0
 15 27  1  0  0  0  0
 16 28  1  0  0  0  0
 17 28  1  0  0  0  0
 17 31  2  0  0  0  0
 17 32  1  0  0  0  0
 18 20  2  0  0  0  0
 18 37  1  0  0  0  0
 19 21  2  0  0  0  0
 19 38  1  0  0  0  0
 20 52  1  0  0  0  0
 21 39  1  0  0  0  0
 22 29  2  0  0  0  0
 22 51  1  0  0  0  0
 23 87  1  0  0  0  0
 24 88  1  0  0  0  0
 25 27  2  0  0  0  0
 25 87  1  0  0  0  0
 26 90  1  0  0  0  0
 27 91  1  0  0  0  0
 28 70  2  0  0  0  0
 29 65  1  0  0  0  0
 29 71  1  0  0  0  0
 30 71  1  0  0  0  0
 30 78  1  0  0  0  0
 31 72  1  0  0  0  0
 31 76  1  0  0  0  0
 32 77  1  0  0  0  0
 32 82  2  0  0  0  0
 33 53  1  0  0  0  0
 33 79  1  0  0  0  0
 33 83  2  0  0  0  0
 34 66  1  0  0  0  0
 34 73  1  0  0  0  0
 34 84  2  0  0  0  0
 35 67  1  0  0  0  0
 35 80  1  0  0  0  0
 35 85  2  0  0  0  0
 36 74  1  0  0  0  0
 36 75  1  0  0  0  0
 36 86  2  0  0  0  0
 37 40  1  0  0  0  0
 38 53  1  0  0  0  0
 39 73  1  0  0  0  0
 40 42  1  0  0  0  0
 41 43  1  0  0  0  0
 41 47  1  0  0  0  0
 42 52  1  0  0  0  0
 43 54  1  0  0  0  0
 44 48  1  0  0  0  0
 44 55  1  0  0  0  0
 45 49  1  0  0  0  0
 45 55  1  0  0  0  0
 46 51  1  0  0  0  0
 46 56  1  0  0  0  0
 47 74  1  0  0  0  0
 48 75  1  0  0  0  0
 49 75  1  0  0  0  0
 50 54  1  0  0  0  0
 50 74  1  0  0  0  0
 51 56  1  0  0  0  0
 52 79  1  0  0  0  0
 53 73  1  0  0  0  0
 54 72  1  0  0  0  0
 55 78  1  0  0  0  0
 56 88  1  0  0  0  0
 57 67  1  0  0  0  0
 58 68  1  0  0  0  0
 59 68  1  0  0  0  0
 60 69  1  0  0  0  0
 61 69  1  0  0  0  0
 62 69  1  0  0  0  0
 63 81  1  0  0  0  0
 64 89  1  0  0  0  0
 65 89  1  0  0  0  0
 66 69  1  0  0  0  0
 66 80  1  0  0  0  0
 67 81  1  0  0  0  0
 68 71  1  0  0  0  0
 70 72  1  0  0  0  0
M  CHG  1  81   1
M  ISO  4  36 100  56 101  75 100  88 101
M  END
> <Batch ID>
0153

> <Smiles>
CNC(C)C(=O)NC(C(=O)N1Cc2cc([101O:1][101CH:1]3CC3c3cc(NC4CC[100N:0]([100C:0](=O)N5CCCC(n6nc(-c7ccc(Oc8ccc(F)cc8F)cc7)c(C(N)=O)c6N)C5)CC4)n(C(C)C)c3COC)ccc2CC1C(=O)NC1CCCc2ccccc21)C(C)(C)C

> <Shape>
0.306

> <Color>
0.067

> <Negative vol penalty>
0.000

$$$$

  -OEChem-04052321483D

 82 90  0     1  0  0  0  0  0999 V2000
  -27.7229  -25.3698   23.1715 C   0  0  0  0  0  0  0  0  0  0  0  0
  -26.7944  -24.4818   22.6378 C   0  0  0  0  0  0  0  0  0  0  0  0
  -26.7844  -31.7055   20.8425 C   0  0  0  0  0  0  0  0  0  0  0  0
  -26.4068  -30.5135   22.9098 C   0  0  0  0  0  0  0  0  0  0  0  0
  -29.0620  -25.2880   22.7918 C   0  0  0  0  0  0  0  0  0  0  0  0
  -27.2042  -23.5122   21.7233 C   0  0  0  0  0  0  0  0  0  0  0  0
  -25.2290  -18.9544   22.7084 C   0  0  0  0  0  0  0  0  0  0  0  0
  -19.9170  -19.8981   20.8232 C   0  0  0  0  0  0  0  0  0  0  0  0
  -20.5679  -20.6628   18.6258 C   0  0  0  0  0  0  0  0  0  0  0  0
  -27.2131  -32.8200   21.5634 C   0  0  0  0  0  0  0  0  0  0  0  0
  -26.8356  -31.6280   23.6307 C   0  0  0  0  0  0  0  0  0  0  0  0
  -23.9041  -18.7397   22.3313 C   0  0  0  0  0  0  0  0  0  0  0  0
  -19.6770  -21.2163   21.2108 C   0  0  0  0  0  0  0  0  0  0  0  0
  -20.3278  -21.9811   19.0134 C   0  0  0  0  0  0  0  0  0  0  0  0
  -28.0662  -36.1043   22.8707 C   0  0  0  0  0  0  0  0  0  0  0  0
  -27.5841  -37.3543   22.4826 C   0  0  0  0  0  0  0  0  0  0  0  0
  -24.6605  -17.5761   20.3582 C   0  0  0  0  0  0  0  0  0  0  0  0
  -25.3235  -36.6134   22.9044 C   0  0  0  0  0  0  0  0  0  0  0  0
  -26.3812  -30.5523   21.5157 C   0  0  0  0  0  0  0  0  0  0  0  0
  -26.7291  -28.3356   20.3021 C   0  0  0  0  0  0  0  0  0  0  0  0
  -29.4902  -24.3107   21.8796 C   0  0  0  0  0  0  0  0  0  0  0  0
  -26.2815  -18.4903   21.9063 C   0  0  0  0  0  0  0  0  0  0  0  0
  -28.5500  -23.4181   21.3301 C   0  0  0  0  0  0  0  0  0  0  0  0
  -25.9979  -17.7840   20.7286 C   0  0  0  0  0  0  0  0  0  0  0  0
  -20.3626  -19.6214   19.5306 C   0  0  0  0  0  0  0  0  0  0  0  0
  -27.2387  -32.7812   22.9575 C   0  0  0  0  0  0  0  0  0  0  0  0
  -19.8823  -22.2578   20.3060 C   0  0  0  0  0  0  0  0  0  0  0  0
  -23.6197  -18.0529   21.1546 C   0  0  0  0  0  0  0  0  0  0  0  0
  -27.1770  -35.1088   23.2755 C   0  0  0  0  0  0  0  0  0  0  0  0
  -26.2128  -37.6089   22.4995 C   0  0  0  0  0  0  0  0  0  0  0  0
  -25.8057  -35.3633   23.2924 C   0  0  0  0  0  0  0  0  0  0  0  0
  -25.9376  -29.4009   20.7716 C   0  0  0  0  0  0  0  0  0  0  0  0
  -25.8421  -27.5048   19.6621 C   0  0  0  0  0  0  0  0  0  0  0  0
  -28.1400  -28.1164   20.4329 C   0  0  0  0  0  0  0  0  0  0  0  0
  -28.6673  -19.8661   20.3192 C   0  0  0  0  0  0  0  0  0  0  0  0
  -29.5733  -16.7954   19.7970 C   0  0  0  0  0  0  0  0  0  0  0  0
  -28.6818  -13.5082   19.5831 C   0  0  0  0  0  0  0  0  0  0  0  0
  -19.9488  -26.6147   20.2349 C   0  0  0  0  0  0  0  0  0  0  0  0
  -30.9397  -24.2915   21.4634 C   0  0  0  0  0  0  0  0  0  0  0  0
  -27.7052  -18.7068   22.3406 C   0  0  0  0  0  0  0  0  0  0  0  0
  -27.0916  -17.2476   19.8428 C   0  0  0  0  0  0  0  0  0  0  0  0
  -31.3584  -22.9954   20.7743 C   0  0  0  0  0  0  0  0  0  0  0  0
  -21.6916  -27.5783   17.2834 C   0  0  0  0  0  0  0  0  0  0  0  0
  -30.3318  -22.5958   19.7192 C   0  0  0  0  0  0  0  0  0  0  0  0
  -23.0488  -28.0586   17.8003 C   0  0  0  0  0  0  0  0  0  0  0  0
  -20.5601  -27.9494   18.2395 C   0  0  0  0  0  0  0  0  0  0  0  0
  -22.1157  -27.9911   20.1505 C   0  0  0  0  0  0  0  0  0  0  0  0
  -28.9603  -22.3367   20.3543 C   0  0  1  0  0  0  0  0  0  0  0  0
  -28.6992  -18.6388   21.1854 C   0  0  1  0  0  0  0  0  0  0  0  0
  -23.2950  -27.5911   19.2475 C   0  0  2  0  0  0  0  0  0  0  0  0
  -29.6335  -11.2361   19.1044 C   0  0  0  0  0  0  0  0  0  0  0  0
  -29.6370  -17.4525   16.8180 C   0  0  0  0  0  0  0  0  0  0  0  0
  -29.6487  -14.9936   16.3470 C   0  0  0  0  0  0  0  0  0  0  0  0
  -31.5328  -16.0282   17.6130 C   0  0  0  0  0  0  0  0  0  0  0  0
  -27.9590  -12.5107   22.2742 C   0  0  0  0  0  0  0  0  0  0  0  0
  -20.6218  -18.1949   19.1108 C   0  0  0  0  0  0  0  0  0  0  0  0
  -19.4813  -25.3177   22.2984 C   0  0  0  0  0  0  0  0  0  0  0  0
  -22.0579  -17.7617   19.3849 C   0  0  0  0  0  0  0  0  0  1  0  0
  -19.8392  -23.8613   22.0617 C   0  0  0  0  0  0  0  0  0  0  0  0
  -29.2837  -15.7610   18.7364 C   0  0  1  0  0  0  0  0  0  0  0  0
  -29.2981  -12.2564   20.1811 C   0  0  2  0  0  0  0  0  0  0  0  0
  -30.0047  -16.0705   17.3941 C   0  0  0  0  0  0  0  0  0  0  0  0
  -24.6471  -29.2622   20.4566 N   0  0  0  0  0  0  0  0  0  0  0  0
  -24.6209  -28.1001   19.7822 N   0  0  0  0  0  0  0  0  0  0  0  0
  -28.4675  -17.4902   20.3072 N   0  0  0  0  0  0  0  0  0  0  0  0
  -20.8547  -27.4761   19.5941 N   0  0  0  0  0  0  0  0  0  0  0  0
  -25.9955  -26.3306   19.0139 N   0  0  0  0  0  0  0  0  0  0  0  0
  -28.9032  -29.0695   21.1210 N   0  0  0  0  0  0  0  0  0  0  0  0
  -28.9376  -21.0399   20.9964 N   0  0  0  0  0  0  0  0  0  0  0  0
  -29.6337  -14.4700   19.3189 N   0  0  0  0  0  0  0  0  0  0  0  0
  -20.3074  -26.2085   21.5144 N   0  0  0  0  0  0  0  0  0  0  0  0
  -28.3556  -11.6262   21.1484 N   0  3  0  0  0  0  0  0  0  0  0  0
  -28.7097  -27.1136   19.9396 O   0  0  0  0  0  0  0  0  0  0  0  0
  -28.4175  -19.7561   19.1245 O   0  0  0  0  0  0  0  0  0  0  0  0
  -30.7370  -16.9753   20.1646 O   0  0  0  0  0  0  0  0  0  0  0  0
  -27.4768  -13.6200   19.3682 O   0  0  0  0  0  0  0  0  0  0  0  0
  -18.9009  -26.2316   19.7038 O   0  0  0  0  0  0  0  0  0  0  0  0
  -27.6573  -33.8685   23.6612 O   0  0  0  0  0  0  0  0  0  0  0  0
  -19.6468  -23.5439   20.6841 O   0  0  0  0  0  0  0  0  0  0  0  0
  -22.3273  -17.8425   20.7839 O   0  0  0  0  0  0  0  0  0  1  0  0
  -25.7501  -38.8098   22.1284 F   0  0  0  0  0  0  0  0  0  0  0  0
  -24.9466  -34.4113   23.6815 F   0  0  0  0  0  0  0  0  0  0  0  0
  1  2  1  0  0  0  0
  1  5  2  0  0  0  0
  2  6  2  0  0  0  0
  3 10  2  0  0  0  0
  3 19  1  0  0  0  0
  4 11  1  0  0  0  0
  4 19  2  0  0  0  0
  5 21  1  0  0  0  0
  6 23  1  0  0  0  0
  7 12  2  0  0  0  0
  7 22  1  0  0  0  0
  8 13  2  0  0  0  0
  8 25  1  0  0  0  0
  9 14  1  0  0  0  0
  9 25  2  0  0  0  0
 10 26  1  0  0  0  0
 11 26  2  0  0  0  0
 12 28  1  0  0  0  0
 13 27  1  0  0  0  0
 14 27  2  0  0  0  0
 15 16  2  0  0  0  0
 15 29  1  0  0  0  0
 16 30  1  0  0  0  0
 17 24  1  0  0  0  0
 17 28  2  0  0  0  0
 18 30  2  0  0  0  0
 18 31  1  0  0  0  0
 19 32  1  0  0  0  0
 20 32  1  0  0  0  0
 20 33  2  0  0  0  0
 20 34  1  0  0  0  0
 21 23  2  0  0  0  0
 21 39  1  0  0  0  0
 22 24  2  0  0  0  0
 22 40  1  0  0  0  0
 23 48  1  0  0  0  0
 24 41  1  0  0  0  0
 25 56  1  0  0  0  0
 26 78  1  0  0  0  0
 27 79  1  0  0  0  0
 28 80  1  0  0  0  0
 29 31  2  0  0  0  0
 29 78  1  0  0  0  0
 30 81  1  0  0  0  0
 31 82  1  0  0  0  0
 32 63  2  0  0  0  0
 33 64  1  0  0  0  0
 33 67  1  0  0  0  0
 34 68  1  0  0  0  0
 34 73  2  0  0  0  0
 35 49  1  0  0  0  0
 35 69  1  0  0  0  0
 35 74  2  0  0  0  0
 36 60  1  0  0  0  0
 36 65  1  0  0  0  0
 36 75  2  0  0  0  0
 37 61  1  0  0  0  0
 37 70  1  0  0  0  0
 37 76  2  0  0  0  0
 38 66  1  0  0  0  0
 38 71  1  0  0  0  0
 38 77  2  0  0  0  0
 39 42  1  0  0  0  0
 40 49  1  0  0  0  0
 41 65  1  0  0  0  0
 42 44  1  0  0  0  0
 43 45  1  0  0  0  0
 43 46  1  0  0  0  0
 44 48  1  0  0  0  0
 45 50  1  0  0  0  0
 46 66  1  0  0  0  0
 47 50  1  0  0  0  0
 47 66  1  0  0  0  0
 48 69  1  0  0  0  0
 49 65  1  0  0  0  0
 50 64  1  0  0  0  0
 51 61  1  0  0  0  0
 52 62  1  0  0  0  0
 53 62  1  0  0  0  0
 54 62  1  0  0  0  0
 55 72  1  0  0  0  0
 56 58  1  0  0  0  0
 57 59  1  0  0  0  0
 57 71  1  0  0  0  0
 58 80  1  0  0  0  0
 59 79  1  0  0  0  0
 60 62  1  0  0  0  0
 60 70  1  0  0  0  0
 61 72  1  0  0  0  0
 63 64  1  0  0  0  0
M  CHG  1  72   1
M  ISO  4  38 100  58 101  71 100  80 101
M  END
> <Batch ID>
0153

> <Smiles>
CNC(C)C(=O)NC(C(=O)N1Cc2cc([101O:1][101CH2:1]Cc3ccc(OCC[100NH:0][100C:0](=O)N4CCCC(n5nc(-c6ccc(Oc7ccc(F)cc7F)cc6)c(C(N)=O)c5N)C4)cc3)ccc2CC1C(=O)NC1CCCc2ccccc21)C(C)(C)C

> <Shape>
0.241

> <Color>
0.041

> <Negative vol penalty>
0.000

$$$$

  -OEChem-04052321483D

 95105  0     1  0  0  0  0  0999 V2000
  -34.6776  -28.0198   19.0976 C   0  0  0  0  0  0  0  0  0  0  0  0
  -33.6324  -28.0618   18.1805 C   0  0  0  0  0  0  0  0  0  0  0  0
  -22.5991  -11.7684   22.0964 C   0  0  0  0  0  0  0  0  0  0  0  0
  -23.6541   -9.7386   21.3191 C   0  0  0  0  0  0  0  0  0  0  0  0
  -34.4782  -27.4502   20.3545 C   0  0  0  0  0  0  0  0  0  0  0  0
  -32.3873  -27.5332   18.5193 C   0  0  0  0  0  0  0  0  0  0  0  0
  -25.3906  -28.5449   17.3626 C   0  0  0  0  0  0  0  0  0  0  0  0
  -21.6318  -11.0123   22.7582 C   0  0  0  0  0  0  0  0  0  0  0  0
  -22.6868   -8.9824   21.9810 C   0  0  0  0  0  0  0  0  0  0  0  0
  -24.2547  -27.8478   16.9533 C   0  0  0  0  0  0  0  0  0  0  0  0
  -19.4793   -8.0431   21.4705 C   0  0  0  0  0  0  0  0  0  0  0  0
  -18.9095   -6.9730   20.7808 C   0  0  0  0  0  0  0  0  0  0  0  0
  -24.0038  -26.9600   19.1822 C   0  0  0  0  0  0  0  0  0  0  0  0
  -19.7160   -5.4515   22.4754 C   0  0  0  0  0  0  0  0  0  0  0  0
  -23.6103  -11.1316   21.3768 C   0  0  0  0  0  0  0  0  0  0  0  0
  -24.3970  -12.8594   19.6728 C   0  0  0  0  0  0  0  0  0  0  0  0
  -33.2273  -26.9230   20.7124 C   0  0  0  0  0  0  0  0  0  0  0  0
  -25.8486  -28.4460   18.6843 C   0  0  0  0  0  0  0  0  0  0  0  0
  -32.1713  -26.9548   19.7817 C   0  0  0  0  0  0  0  0  0  0  0  0
  -25.1443  -27.6589   19.6064 C   0  0  0  0  0  0  0  0  0  0  0  0
  -26.5204  -21.2513   19.7120 C   0  0  0  0  0  0  0  0  0  0  0  0
  -27.1103  -22.1016   20.6796 C   0  0  0  0  0  0  0  0  0  0  0  0
  -21.6756   -9.6193   22.7006 C   0  0  0  0  0  0  0  0  0  0  0  0
  -23.5628  -27.0529   17.8624 C   0  0  0  0  0  0  0  0  0  0  0  0
  -20.1675   -7.8175   22.6626 C   0  0  0  0  0  0  0  0  0  0  0  0
  -19.0278   -5.6772   21.2832 C   0  0  0  0  0  0  0  0  0  0  0  0
  -20.2858   -6.5216   23.1650 C   0  0  0  0  0  0  0  0  0  0  0  0
  -24.6095  -11.9122   20.6924 C   0  0  0  0  0  0  0  0  0  0  0  0
  -27.1733  -20.0402   19.7761 C   0  0  0  0  0  0  0  0  0  0  0  0
  -28.1059  -21.3842   21.3053 C   0  0  0  0  0  0  0  0  0  0  0  0
  -25.6542  -13.3165   19.3614 C   0  0  0  0  0  0  0  0  0  0  0  0
  -23.1727  -13.2877   19.0618 C   0  0  0  0  0  0  0  0  0  0  0  0
  -28.5134  -27.3950   20.0620 C   0  0  0  0  0  0  0  0  0  0  0  0
  -27.1261  -28.5723   22.7475 C   0  0  0  0  0  0  0  0  0  0  0  0
  -24.2627  -29.4564   24.3803 C   0  0  0  0  0  0  0  0  0  0  0  0
  -30.6667  -15.0397   20.7095 C   0  0  0  0  0  0  0  0  0  0  0  0
  -33.0729  -26.2749   22.0655 C   0  0  0  0  0  0  0  0  0  0  0  0
  -27.0601  -29.2255   19.1168 C   0  0  0  0  0  0  0  0  0  0  0  0
  -25.5831  -27.5352   21.0419 C   0  0  0  0  0  0  0  0  0  0  0  0
  -31.6182  -26.0742   22.4823 C   0  0  0  0  0  0  0  0  0  0  0  0
  -30.2189  -11.6110   20.6927 C   0  0  0  0  0  0  0  0  0  0  0  0
  -30.8115  -25.4761   21.3341 C   0  0  0  0  0  0  0  0  0  0  0  0
  -28.7017  -11.4444   20.6079 C   0  0  0  0  0  0  0  0  0  0  0  0
  -30.0084  -18.6075   19.9827 C   0  0  0  0  0  0  0  0  0  0  0  0
  -28.3435  -17.7972   21.7067 C   0  0  0  0  0  0  0  0  0  0  0  0
  -24.1337  -21.9485   19.5891 C   0  0  0  0  0  0  0  0  0  0  0  0
  -25.7959  -22.7554   17.8650 C   0  0  0  0  0  0  0  0  0  0  0  0
  -30.5919  -12.7457   21.6402 C   0  0  0  0  0  0  0  0  0  0  0  0
  -30.9446  -17.4710   20.3862 C   0  0  0  0  0  0  0  0  0  0  0  0
  -29.3175  -16.6811   22.0727 C   0  0  0  0  0  0  0  0  0  0  0  0
  -28.4533  -13.9053   21.1970 C   0  0  0  0  0  0  0  0  0  0  0  0
  -22.9928  -22.3522   18.6640 C   0  0  0  0  0  0  0  0  0  0  0  0
  -24.6423  -23.1526   16.9529 C   0  0  0  0  0  0  0  0  0  0  0  0
  -25.4090  -21.5967   18.8019 C   0  0  0  0  0  0  0  0  0  0  0  0
  -30.7992  -26.4141   20.1211 C   0  0  1  0  0  0  0  0  0  0  0  0
  -27.7330  -28.6447   20.3567 C   0  0  1  0  0  0  0  0  0  0  0  0
  -28.0204  -12.7750   20.2420 C   0  0  2  0  0  0  0  0  0  0  0  0
  -29.0884  -19.0208   21.1445 C   0  0  0  0  0  0  0  0  0  0  0  0
  -26.7320  -23.5011   20.9646 C   0  0  0  0  0  0  0  0  0  0  0  0
  -29.0340  -21.7837   22.3849 C   0  0  0  0  0  0  0  0  0  0  0  0
  -27.2183  -18.9941   17.4832 C   0  0  0  0  0  0  0  0  0  0  0  0
  -25.5595  -18.1905   19.2030 C   0  0  0  0  0  0  0  0  0  0  0  0
  -22.8178  -30.4054   26.1994 C   0  0  0  0  0  0  0  0  0  0  0  0
  -21.7819  -25.8292   15.2106 C   0  0  0  0  0  0  0  0  0  0  0  0
  -27.5580  -25.8332   24.0208 C   0  0  0  0  0  0  0  0  0  0  0  0
  -25.9152  -26.4772   25.7970 C   0  0  0  0  0  0  0  0  0  0  0  0
  -28.0310  -27.7711   25.5292 C   0  0  0  0  0  0  0  0  0  0  0  0
  -24.3596  -32.1693   23.2015 C   0  0  0  0  0  0  0  0  0  0  0  0
  -22.3069  -24.0255   16.9470 C   0  0  0  0  0  0  0  0  0  0  0  0
  -26.9634  -18.8023   18.9954 C   0  0  0  0  0  0  0  0  0  0  0  0
  -26.2001  -28.0184   23.8033 C   0  0  1  0  0  0  0  0  0  0  0  0
  -23.8957  -30.7010   25.1681 C   0  0  2  0  0  0  0  0  0  0  0  0
  -22.6223  -25.4188   16.4128 C   0  0  2  0  0  0  0  0  0  1  0  0
  -26.9187  -27.0255   24.7601 C   0  0  0  0  0  0  0  0  0  0  0  0
  -25.9001  -11.7747   21.0076 N   0  0  0  0  0  0  0  0  0  0  0  0
  -28.1353  -20.1326   20.7479 N   0  0  0  0  0  0  0  0  0  0  0  0
  -26.5100  -12.6414   20.1813 N   0  0  0  0  0  0  0  0  0  0  0  0
  -26.7771  -28.3117   21.4148 N   0  0  0  0  0  0  0  0  0  0  0  0
  -29.9198  -13.9893   21.2640 N   0  0  0  0  0  0  0  0  0  0  0  0
  -30.2028  -16.3436   20.9496 N   0  0  0  0  0  0  0  0  0  0  0  0
  -26.1002  -14.2260   18.4690 N   0  0  0  0  0  0  0  0  0  0  0  0
  -22.7148  -12.6003   17.9296 N   0  0  0  0  0  0  0  0  0  0  0  0
  -29.8648  -27.4992   20.3308 N   0  0  0  0  0  0  0  0  0  0  0  0
  -25.6086  -29.1715   24.4732 N   0  0  0  0  0  0  0  0  0  0  0  0
  -23.4362  -23.5019   17.7915 N   0  3  0  0  0  0  0  0  0  0  0  0
  -23.3915  -31.7635   24.2528 N   0  3  0  0  0  0  0  0  0  0  0  0
  -22.5132  -14.2620   19.4970 O   0  0  0  0  0  0  0  0  0  0  0  0
  -27.9322  -26.4088   19.6247 O   0  0  0  0  0  0  0  0  0  0  0  0
  -28.1185  -29.2186   23.0924 O   0  0  0  0  0  0  0  0  0  0  0  0
  -23.4372  -28.8002   23.7489 O   0  0  0  0  0  0  0  0  0  0  0  0
  -31.6828  -14.8283   20.0359 O   0  0  0  0  0  0  0  0  0  0  0  0
  -20.7320   -8.8811   23.3465 O   0  0  0  0  0  0  0  0  0  0  0  0
  -22.4477  -26.3669   17.4631 O   0  0  0  0  0  0  0  0  0  1  0  0
  -18.4792   -4.6498   20.6217 F   0  0  0  0  0  0  0  0  0  0  0  0
  -20.9448   -6.2988   24.3104 F   0  0  0  0  0  0  0  0  0  0  0  0
  1  2  1  0  0  0  0
  1  5  2  0  0  0  0
  2  6  2  0  0  0  0
  3  8  2  0  0  0  0
  3 15  1  0  0  0  0
  4  9  1  0  0  0  0
  4 15  2  0  0  0  0
  5 17  1  0  0  0  0
  6 19  1  0  0  0  0
  7 10  2  0  0  0  0
  7 18  1  0  0  0  0
  8 23  1  0  0  0  0
  9 23  2  0  0  0  0
 10 24  1  0  0  0  0
 11 12  2  0  0  0  0
 11 25  1  0  0  0  0
 12 26  1  0  0  0  0
 13 20  1  0  0  0  0
 13 24  2  0  0  0  0
 14 26  2  0  0  0  0
 14 27  1  0  0  0  0
 15 28  1  0  0  0  0
 16 28  1  0  0  0  0
 16 31  2  0  0  0  0
 16 32  1  0  0  0  0
 17 19  2  0  0  0  0
 17 37  1  0  0  0  0
 18 20  2  0  0  0  0
 18 38  1  0  0  0  0
 19 55  1  0  0  0  0
 20 39  1  0  0  0  0
 21 22  1  0  0  0  0
 21 29  2  0  0  0  0
 21 54  1  0  0  0  0
 22 30  2  0  0  0  0
 22 59  1  0  0  0  0
 23 92  1  0  0  0  0
 24 93  1  0  0  0  0
 25 27  2  0  0  0  0
 25 92  1  0  0  0  0
 26 94  1  0  0  0  0
 27 95  1  0  0  0  0
 28 75  2  0  0  0  0
 29 70  1  0  0  0  0
 29 76  1  0  0  0  0
 30 60  1  0  0  0  0
 30 76  1  0  0  0  0
 31 77  1  0  0  0  0
 31 81  1  0  0  0  0
 32 82  1  0  0  0  0
 32 87  2  0  0  0  0
 33 56  1  0  0  0  0
 33 83  1  0  0  0  0
 33 88  2  0  0  0  0
 34 71  1  0  0  0  0
 34 78  1  0  0  0  0
 34 89  2  0  0  0  0
 35 72  1  0  0  0  0
 35 84  1  0  0  0  0
 35 90  2  0  0  0  0
 36 79  1  0  0  0  0
 36 80  1  0  0  0  0
 36 91  2  0  0  0  0
 37 40  1  0  0  0  0
 38 56  1  0  0  0  0
 39 78  1  0  0  0  0
 40 42  1  0  0  0  0
 41 43  1  0  0  0  0
 41 48  1  0  0  0  0
 42 55  1  0  0  0  0
 43 57  1  0  0  0  0
 44 49  1  0  0  0  0
 44 58  1  0  0  0  0
 45 50  1  0  0  0  0
 45 58  1  0  0  0  0
 46 52  1  0  0  0  0
 46 54  1  0  0  0  0
 47 53  1  0  0  0  0
 47 54  1  0  0  0  0
 48 79  1  0  0  0  0
 49 80  1  0  0  0  0
 50 80  1  0  0  0  0
 51 57  1  0  0  0  0
 51 79  1  0  0  0  0
 52 85  1  0  0  0  0
 53 85  1  0  0  0  0
 55 83  1  0  0  0  0
 56 78  1  0  0  0  0
 57 77  1  0  0  0  0
 58 76  1  0  0  0  0
 61 70  1  0  0  0  0
 62 70  1  0  0  0  0
 63 72  1  0  0  0  0
 64 73  1  0  0  0  0
 65 74  1  0  0  0  0
 66 74  1  0  0  0  0
 67 74  1  0  0  0  0
 68 86  1  0  0  0  0
 69 73  1  0  0  0  0
 69 85  1  0  0  0  0
 71 74  1  0  0  0  0
 71 84  1  0  0  0  0
 72 86  1  0  0  0  0
 73 93  1  0  0  0  0
 75 77  1  0  0  0  0
M  CHG  2  85   1  86   1
M  ISO  4  36 100  73 101  80 100  93 101
M  END
> <Batch ID>
0153

> <Smiles>
CNC(C)C(=O)NC(C(=O)N1Cc2cc([101O:1][101CH:1](C)CN3CCC(c4c(C)c(C)n(C5CC[100N:0]([100C:0](=O)N6CCCC(n7nc(-c8ccc(Oc9ccc(F)cc9F)cc8)c(C(N)=O)c7N)C6)CC5)c4C(C)C)CC3)ccc2CC1C(=O)NC1CCCc2ccccc21)C(C)(C)C

> <Shape>
0.243

> <Color>
0.102

> <Negative vol penalty>
0.000

$$$$

  -OEChem-04052321483D

 85 93  0     1  0  0  0  0  0999 V2000
  -18.0659  -23.9589   13.7056 C   0  0  0  0  0  0  0  0  0  0  0  0
  -19.2745  -23.7857   14.3724 C   0  0  0  0  0  0  0  0  0  0  0  0
  -23.0003   -9.9146   19.9628 C   0  0  0  0  0  0  0  0  0  0  0  0
  -23.7414   -9.9191   22.2624 C   0  0  0  0  0  0  0  0  0  0  0  0
  -17.2117  -24.9982   14.0717 C   0  0  0  0  0  0  0  0  0  0  0  0
  -19.6301  -24.6526   15.4052 C   0  0  0  0  0  0  0  0  0  0  0  0
  -21.4880  -22.2136   19.4356 C   0  0  0  0  0  0  0  0  0  0  0  0
  -22.2341   -8.7760   20.2120 C   0  0  0  0  0  0  0  0  0  0  0  0
  -22.9751   -8.7805   22.5115 C   0  0  0  0  0  0  0  0  0  0  0  0
  -22.8087  -21.7731   19.3603 C   0  0  0  0  0  0  0  0  0  0  0  0
  -23.2115   -5.4512   21.9720 C   0  0  0  0  0  0  0  0  0  0  0  0
  -23.8028   -4.4186   22.6998 C   0  0  0  0  0  0  0  0  0  0  0  0
  -23.5131  -23.6832   20.6543 C   0  0  0  0  0  0  0  0  0  0  0  0
  -22.0908   -4.6305   24.3913 C   0  0  0  0  0  0  0  0  0  0  0  0
  -29.4982  -20.0295   19.2991 C   0  0  0  0  0  0  0  0  0  0  0  0
  -23.7540  -10.4861   20.9880 C   0  0  0  0  0  0  0  0  0  0  0  0
  -24.1416  -13.0042   20.8592 C   0  0  0  0  0  0  0  0  0  0  0  0
  -17.5526  -25.8723   15.1159 C   0  0  0  0  0  0  0  0  0  0  0  0
  -21.1709  -23.3999   20.1127 C   0  0  0  0  0  0  0  0  0  0  0  0
  -18.7802  -25.7054   15.7848 C   0  0  0  0  0  0  0  0  0  0  0  0
  -22.1874  -24.1352   20.7390 C   0  0  0  0  0  0  0  0  0  0  0  0
  -26.8213  -20.5552   19.2385 C   0  0  0  0  0  0  0  0  0  0  0  0
  -28.6625  -19.2733   20.1051 C   0  0  0  0  0  0  0  0  0  0  0  0
  -22.2214   -8.2090   21.4863 C   0  0  0  0  0  0  0  0  0  0  0  0
  -23.8218  -22.5095   19.9672 C   0  0  0  0  0  0  0  0  0  0  0  0
  -22.0599   -6.0736   22.4539 C   0  0  0  0  0  0  0  0  0  0  0  0
  -27.2999  -19.5475   20.0684 C   0  0  0  0  0  0  0  0  0  0  0  0
  -23.2425   -4.0082   23.9094 C   0  0  0  0  0  0  0  0  0  0  0  0
  -21.4996   -5.6632   23.6635 C   0  0  0  0  0  0  0  0  0  0  0  0
  -24.5462  -11.6619   20.7312 C   0  0  0  0  0  0  0  0  0  0  0  0
  -27.7394  -21.2541   18.4714 C   0  0  0  0  0  0  0  0  0  0  0  0
  -25.2498  -13.7325   20.5015 C   0  0  0  0  0  0  0  0  0  0  0  0
  -22.8771  -13.5444   21.2652 C   0  0  0  0  0  0  0  0  0  0  0  0
  -19.8881  -26.1855   19.2769 C   0  0  0  0  0  0  0  0  0  0  0  0
  -19.9982  -26.7510   22.4691 C   0  0  0  0  0  0  0  0  0  0  0  0
  -21.4264  -26.0494   25.4882 C   0  0  0  0  0  0  0  0  0  0  0  0
  -30.7490  -14.6551   20.7306 C   0  0  0  0  0  0  0  0  0  0  0  0
  -16.6184  -27.0099   15.4445 C   0  0  0  0  0  0  0  0  0  0  0  0
  -19.7380  -23.8473   20.2077 C   0  0  0  0  0  0  0  0  0  0  0  0
  -21.8969  -25.4048   21.4954 C   0  0  0  0  0  0  0  0  0  0  0  0
  -16.8986  -27.6564   16.7987 C   0  0  0  0  0  0  0  0  0  0  0  0
  -29.5889  -12.2798   18.3455 C   0  0  0  0  0  0  0  0  0  0  0  0
  -18.3919  -27.9188   16.9662 C   0  0  0  0  0  0  0  0  0  0  0  0
  -28.1430  -12.0136   18.7679 C   0  0  0  0  0  0  0  0  0  0  0  0
  -30.4999  -12.4901   19.5529 C   0  0  0  0  0  0  0  0  0  0  0  0
  -28.6002  -13.2613   20.9203 C   0  0  0  0  0  0  0  0  0  0  0  0
  -19.1899  -26.6099   16.9267 C   0  0  1  0  0  0  0  0  0  0  0  0
  -19.5955  -25.3408   20.4845 C   0  0  1  0  0  0  0  0  0  0  0  0
  -27.6327  -13.0984   19.7355 C   0  0  2  0  0  0  0  0  0  0  0  0
  -27.2839  -22.3468   17.5602 C   0  0  0  0  0  0  0  0  0  0  0  0
  -25.1833  -18.4184   22.8410 C   0  0  0  0  0  0  0  0  0  0  0  0
  -21.3324  -26.6987   27.9103 C   0  0  0  0  0  0  0  0  0  0  0  0
  -21.5016  -29.3291   21.8339 C   0  0  0  0  0  0  0  0  0  0  0  0
  -22.1962  -29.4340   24.2370 C   0  0  0  0  0  0  0  0  0  0  0  0
  -19.7782  -29.5428   23.6335 C   0  0  0  0  0  0  0  0  0  0  0  0
  -20.6780  -23.3077   26.3139 C   0  0  0  0  0  0  0  0  0  0  0  0
  -25.3556  -20.8709   19.1808 C   0  0  0  0  0  0  0  0  0  1  0  0
  -30.5874  -17.9552   20.9900 C   0  0  0  0  0  0  0  0  0  0  0  0
  -30.8429  -16.8101   21.9580 C   0  0  0  0  0  0  0  0  0  0  0  0
  -26.1696  -19.3357   22.1500 C   0  0  0  0  0  0  0  0  0  0  0  0
  -21.0126  -27.3473   23.4149 C   0  0  1  0  0  0  0  0  0  0  0  0
  -20.8166  -25.7445   26.8445 C   0  0  2  0  0  0  0  0  0  0  0  0
  -21.1282  -28.8904   23.2640 C   0  0  0  0  0  0  0  0  0  0  0  0
  -29.0702  -21.0163   18.4802 N   0  0  0  0  0  0  0  0  0  0  0  0
  -25.8125  -11.5417   20.3238 N   0  0  0  0  0  0  0  0  0  0  0  0
  -26.2132  -12.8178   20.1927 N   0  0  0  0  0  0  0  0  0  0  0  0
  -20.4811  -25.8043   21.5546 N   0  0  0  0  0  0  0  0  0  0  0  0
  -29.9605  -13.5324   20.4295 N   0  0  0  0  0  0  0  0  0  0  0  0
  -25.4844  -15.0597   20.4241 N   0  0  0  0  0  0  0  0  0  0  0  0
  -21.8464  -12.6550   21.5982 N   0  0  0  0  0  0  0  0  0  0  0  0
  -29.1897  -18.2633   20.9290 N   0  0  0  0  0  0  0  0  0  0  0  0
  -19.0797  -25.9125   18.1900 N   0  0  0  0  0  0  0  0  0  0  0  0
  -20.6336  -26.9044   24.7522 N   0  0  0  0  0  0  0  0  0  0  0  0
  -30.1596  -15.5984   21.5633 N   0  0  0  0  0  0  0  0  0  0  0  0
  -21.1477  -24.3522   27.2601 N   0  3  0  0  0  0  0  0  0  0  0  0
  -22.6622  -14.7793   21.3148 O   0  0  0  0  0  0  0  0  0  0  0  0
  -20.7803  -27.0240   19.3279 O   0  0  0  0  0  0  0  0  0  0  0  0
  -18.8195  -27.1068   22.5439 O   0  0  0  0  0  0  0  0  0  0  0  0
  -22.5007  -25.5793   25.1200 O   0  0  0  0  0  0  0  0  0  0  0  0
  -31.8916  -14.8083   20.2856 O   0  0  0  0  0  0  0  0  0  0  0  0
  -21.4736   -7.0981   21.7298 O   0  0  0  0  0  0  0  0  0  0  0  0
  -25.1118  -22.0822   19.8947 O   0  0  0  0  0  0  0  0  0  1  0  0
  -26.4349  -18.8322   20.8430 O   0  0  0  0  0  0  0  0  0  0  0  0
  -23.8095   -3.0155   24.6074 F   0  0  0  0  0  0  0  0  0  0  0  0
  -20.3926   -6.2564   24.1310 F   0  0  0  0  0  0  0  0  0  0  0  0
  1  2  1  0  0  0  0
  1  5  2  0  0  0  0
  2  6  2  0  0  0  0
  3  8  2  0  0  0  0
  3 16  1  0  0  0  0
  4  9  1  0  0  0  0
  4 16  2  0  0  0  0
  5 18  1  0  0  0  0
  6 20  1  0  0  0  0
  7 10  2  0  0  0  0
  7 19  1  0  0  0  0
  8 24  1  0  0  0  0
  9 24  2  0  0  0  0
 10 25  1  0  0  0  0
 11 12  2  0  0  0  0
 11 26  1  0  0  0  0
 12 28  1  0  0  0  0
 13 21  1  0  0  0  0
 13 25  2  0  0  0  0
 14 28  2  0  0  0  0
 14 29  1  0  0  0  0
 15 23  2  0  0  0  0
 15 64  1  0  0  0  0
 16 30  1  0  0  0  0
 17 30  1  0  0  0  0
 17 32  2  0  0  0  0
 17 33  1  0  0  0  0
 18 20  2  0  0  0  0
 18 38  1  0  0  0  0
 19 21  2  0  0  0  0
 19 39  1  0  0  0  0
 20 47  1  0  0  0  0
 21 40  1  0  0  0  0
 22 27  2  0  0  0  0
 22 31  1  0  0  0  0
 22 57  1  0  0  0  0
 23 27  1  0  0  0  0
 23 71  1  0  0  0  0
 24 81  1  0  0  0  0
 25 82  1  0  0  0  0
 26 29  2  0  0  0  0
 26 81  1  0  0  0  0
 27 83  1  0  0  0  0
 28 84  1  0  0  0  0
 29 85  1  0  0  0  0
 30 65  2  0  0  0  0
 31 50  1  0  0  0  0
 31 64  2  0  0  0  0
 32 66  1  0  0  0  0
 32 69  1  0  0  0  0
 33 70  1  0  0  0  0
 33 76  2  0  0  0  0
 34 48  1  0  0  0  0
 34 72  1  0  0  0  0
 34 77  2  0  0  0  0
 35 61  1  0  0  0  0
 35 67  1  0  0  0  0
 35 78  2  0  0  0  0
 36 62  1  0  0  0  0
 36 73  1  0  0  0  0
 36 79  2  0  0  0  0
 37 68  1  0  0  0  0
 37 74  1  0  0  0  0
 37 80  2  0  0  0  0
 38 41  1  0  0  0  0
 39 48  1  0  0  0  0
 40 67  1  0  0  0  0
 41 43  1  0  0  0  0
 42 44  1  0  0  0  0
 42 45  1  0  0  0  0
 43 47  1  0  0  0  0
 44 49  1  0  0  0  0
 45 68  1  0  0  0  0
 46 49  1  0  0  0  0
 46 68  1  0  0  0  0
 47 72  1  0  0  0  0
 48 67  1  0  0  0  0
 49 66  1  0  0  0  0
 51 60  1  0  0  0  0
 52 62  1  0  0  0  0
 53 63  1  0  0  0  0
 54 63  1  0  0  0  0
 55 63  1  0  0  0  0
 56 75  1  0  0  0  0
 57 82  1  0  0  0  0
 58 59  1  0  0  0  0
 58 71  1  0  0  0  0
 59 74  1  0  0  0  0
 60 83  1  0  0  0  0
 61 63  1  0  0  0  0
 61 73  1  0  0  0  0
 62 75  1  0  0  0  0
 65 66  1  0  0  0  0
M  CHG  1  75   1
M  ISO  4  37 100  57 101  74 100  82 101
M  END
> <Batch ID>
0153

> <Smiles>
CCOc1c(NCC[100NH:0][100C:0](=O)N2CCCC(n3nc(-c4ccc(Oc5ccc(F)cc5F)cc4)c(C(N)=O)c3N)C2)cnc(C)c1[101CH2:1][101O:1]c1ccc2c(c1)CN(C(=O)C(NC(=O)C(C)NC)C(C)(C)C)C(C(=O)NC1CCCc3ccccc31)C2

> <Shape>
0.272

> <Color>
0.195

> <Negative vol penalty>
0.000

$$$$

  -OEChem-04052321482D

  0  0  0     0  0  0  0  0  0999 V2000
M  END
$$$$

  -OEChem-04052321483D

 90100  0     1  0  0  0  0  0999 V2000
  -16.5453  -26.3536   23.1635 C   0  0  0  0  0  0  0  0  0  0  0  0
  -17.6760  -26.3917   22.3540 C   0  0  0  0  0  0  0  0  0  0  0  0
  -22.9300   -9.9158   20.2093 C   0  0  0  0  0  0  0  0  0  0  0  0
  -23.1797  -11.8468   21.6397 C   0  0  0  0  0  0  0  0  0  0  0  0
  -16.1098  -27.5119   23.8058 C   0  0  0  0  0  0  0  0  0  0  0  0
  -18.3714  -27.5885   22.1854 C   0  0  0  0  0  0  0  0  0  0  0  0
  -23.3868  -26.9888   22.5471 C   0  0  0  0  0  0  0  0  0  0  0  0
  -21.5526  -10.1305   20.1599 C   0  0  0  0  0  0  0  0  0  0  0  0
  -21.8023  -12.0615   21.5902 C   0  0  0  0  0  0  0  0  0  0  0  0
  -24.0462  -26.4580   21.4392 C   0  0  0  0  0  0  0  0  0  0  0  0
  -19.5661  -13.3909   19.4332 C   0  0  0  0  0  0  0  0  0  0  0  0
  -19.1224  -14.6964   19.2231 C   0  0  0  0  0  0  0  0  0  0  0  0
  -28.1753  -21.1711   19.8780 C   0  0  0  0  0  0  0  0  0  0  0  0
  -30.2998  -22.2255   19.4181 C   0  0  0  0  0  0  0  0  0  0  0  0
  -24.7305  -28.6783   20.7903 C   0  0  0  0  0  0  0  0  0  0  0  0
  -17.9524  -14.6387   21.3361 C   0  0  0  0  0  0  0  0  0  0  0  0
  -23.7435  -10.7739   20.9492 C   0  0  0  0  0  0  0  0  0  0  0  0
  -25.8315   -9.4087   21.4822 C   0  0  0  0  0  0  0  0  0  0  0  0
  -16.8058  -28.7214   23.6527 C   0  0  0  0  0  0  0  0  0  0  0  0
  -23.3852  -28.3717   22.7793 C   0  0  0  0  0  0  0  0  0  0  0  0
  -17.9441  -28.7644   22.8252 C   0  0  0  0  0  0  0  0  0  0  0  0
  -28.9208  -22.3182   19.6062 C   0  0  0  0  0  0  0  0  0  0  0  0
  -24.0725  -29.2239   21.9032 C   0  0  0  0  0  0  0  0  0  0  0  0
  -28.8088  -19.9312   19.9619 C   0  0  0  0  0  0  0  0  0  0  0  0
  -30.9334  -20.9856   19.5020 C   0  0  0  0  0  0  0  0  0  0  0  0
  -30.1878  -19.8384   19.7738 C   0  0  0  0  0  0  0  0  0  0  0  0
  -20.9888  -11.2033   20.8503 C   0  0  0  0  0  0  0  0  0  0  0  0
  -24.7157  -27.3031   20.5590 C   0  0  0  0  0  0  0  0  0  0  0  0
  -19.2029  -12.7091   20.5947 C   0  0  0  0  0  0  0  0  0  0  0  0
  -18.3156  -15.3204   20.1746 C   0  0  0  0  0  0  0  0  0  0  0  0
  -18.3961  -13.3331   21.5462 C   0  0  0  0  0  0  0  0  0  0  0  0
  -25.1663  -10.5523   21.0011 C   0  0  0  0  0  0  0  0  0  0  0  0
  -27.1652   -9.6916   21.3152 C   0  0  0  0  0  0  0  0  0  0  0  0
  -25.2922   -8.1989   22.0308 C   0  0  0  0  0  0  0  0  0  0  0  0
  -21.1398  -30.6153   22.9479 C   0  0  0  0  0  0  0  0  0  0  0  0
  -23.6307  -32.4909   23.8422 C   0  0  0  0  0  0  0  0  0  0  0  0
  -26.9969  -33.0505   23.8013 C   0  0  0  0  0  0  0  0  0  0  0  0
  -29.9794  -14.9373   21.0666 C   0  0  0  0  0  0  0  0  0  0  0  0
  -16.2697  -29.9581   24.3293 C   0  0  0  0  0  0  0  0  0  0  0  0
  -22.6918  -28.9259   23.9935 C   0  0  0  0  0  0  0  0  0  0  0  0
  -24.1180  -30.7138   22.1189 C   0  0  0  0  0  0  0  0  0  0  0  0
  -17.2792  -31.1012   24.3974 C   0  0  0  0  0  0  0  0  0  0  0  0
  -30.1562  -12.2104   18.5876 C   0  0  0  0  0  0  0  0  0  0  0  0
  -27.5757  -24.0662   20.8496 C   0  0  0  0  0  0  0  0  0  0  0  0
  -27.2124  -23.7131   18.3632 C   0  0  0  0  0  0  0  0  0  0  0  0
  -17.9598  -31.2936   23.0459 C   0  0  0  0  0  0  0  0  0  0  0  0
  -28.9130  -11.4034   18.9500 C   0  0  0  0  0  0  0  0  0  0  0  0
  -26.8927  -25.4278   20.7495 C   0  0  0  0  0  0  0  0  0  0  0  0
  -26.5318  -25.0766   18.2760 C   0  0  0  0  0  0  0  0  0  0  0  0
  -32.3156  -16.2887   22.7313 C   0  0  0  0  0  0  0  0  0  0  0  0
  -33.2048  -16.6426   21.5779 C   0  0  0  0  0  0  0  0  0  0  0  0
  -29.9540  -13.7080   18.8142 C   0  0  0  0  0  0  0  0  0  0  0  0
  -28.2557  -13.2365   20.5571 C   0  0  0  0  0  0  0  0  0  0  0  0
  -28.2315  -23.6675   19.5156 C   0  0  0  0  0  0  0  0  0  0  0  0
  -18.7395  -30.0381   22.6372 C   0  0  1  0  0  0  0  0  0  0  0  0
  -22.3217  -30.3990   23.8500 C   0  0  1  0  0  0  0  0  0  0  0  0
  -28.4569  -11.7235   20.3818 C   0  0  1  0  0  0  0  0  0  0  0  0
  -25.8853  -25.4708   19.6018 C   0  0  0  0  0  0  0  0  0  1  0  0
  -31.7017  -16.6839   21.4055 C   0  0  0  0  0  0  0  0  0  0  0  0
  -27.9874  -18.7178   20.2530 C   0  0  0  0  0  0  0  0  0  0  0  0
  -32.4113  -20.9132   19.2966 C   0  0  0  0  0  0  0  0  0  0  0  0
  -28.7318  -34.6854   24.5853 C   0  0  0  0  0  0  0  0  0  0  0  0
  -22.8140  -34.4184   21.6223 C   0  0  0  0  0  0  0  0  0  0  0  0
  -25.0656  -35.4945   21.8238 C   0  0  0  0  0  0  0  0  0  0  0  0
  -23.4952  -35.5197   23.7619 C   0  0  0  0  0  0  0  0  0  0  0  0
  -28.3524  -30.9995   25.4489 C   0  0  0  0  0  0  0  0  0  0  0  0
  -30.8667  -18.5088   19.8634 C   0  0  0  0  0  0  0  0  0  0  0  0
  -31.0414  -18.0507   21.3177 C   0  0  0  0  0  0  0  0  0  0  0  0
  -24.6323  -33.3559   23.1160 C   0  0  1  0  0  0  0  0  0  0  0  0
  -27.9722  -33.4082   24.9083 C   0  0  2  0  0  0  0  0  0  0  0  0
  -23.9995  -34.6693   22.5756 C   0  0  0  0  0  0  0  0  0  0  0  0
  -26.0079  -11.4918   20.5617 N   0  0  0  0  0  0  0  0  0  0  0  0
  -27.2157  -10.9390   20.7660 N   0  0  0  0  0  0  0  0  0  0  0  0
  -23.4195  -31.2082   23.3169 N   0  0  0  0  0  0  0  0  0  0  0  0
  -29.4562  -13.9878   20.1703 N   0  0  0  0  0  0  0  0  0  0  0  0
  -28.2878   -8.9926   21.5861 N   0  0  0  0  0  0  0  0  0  0  0  0
  -25.0769   -8.1303   23.4140 N   0  0  0  0  0  0  0  0  0  0  0  0
  -19.9922  -29.9640   23.3582 N   0  0  0  0  0  0  0  0  0  0  0  0
  -25.7400  -33.5635   24.0425 N   0  0  0  0  0  0  0  0  0  0  0  0
  -31.0648  -15.6730   20.6044 N   0  0  0  0  0  0  0  0  0  0  0  0
  -28.9606  -32.3099   25.1027 N   0  3  0  0  0  0  0  0  0  0  0  0
  -25.0249   -7.2020   21.3178 O   0  0  0  0  0  0  0  0  0  0  0  0
  -21.2597  -31.3219   21.9539 O   0  0  0  0  0  0  0  0  0  0  0  0
  -23.0620  -32.9343   24.8431 O   0  0  0  0  0  0  0  0  0  0  0  0
  -27.3190  -32.3860   22.8188 O   0  0  0  0  0  0  0  0  0  0  0  0
  -29.5112  -15.1219   22.1955 O   0  0  0  0  0  0  0  0  0  0  0  0
  -19.6449  -11.4133   20.8021 O   0  0  0  0  0  0  0  0  0  0  0  0
  -25.3595  -26.7877   19.4766 O   0  0  0  0  0  0  0  0  0  1  0  0
  -17.8908  -16.5747   19.9735 F   0  0  0  0  0  0  0  0  0  0  0  0
  -18.0448  -12.6837   22.6645 F   0  0  0  0  0  0  0  0  0  0  0  0
  1  2  1  0  0  0  0
  1  5  2  0  0  0  0
  2  6  2  0  0  0  0
  3  8  2  0  0  0  0
  3 17  1  0  0  0  0
  4  9  1  0  0  0  0
  4 17  2  0  0  0  0
  5 19  1  0  0  0  0
  6 21  1  0  0  0  0
  7 10  2  0  0  0  0
  7 20  1  0  0  0  0
  8 27  1  0  0  0  0
  9 27  2  0  0  0  0
 10 28  1  0  0  0  0
 11 12  2  0  0  0  0
 11 29  1  0  0  0  0
 12 30  1  0  0  0  0
 13 22  1  0  0  0  0
 13 24  2  0  0  0  0
 14 22  2  0  0  0  0
 14 25  1  0  0  0  0
 15 23  1  0  0  0  0
 15 28  2  0  0  0  0
 16 30  2  0  0  0  0
 16 31  1  0  0  0  0
 17 32  1  0  0  0  0
 18 32  1  0  0  0  0
 18 33  2  0  0  0  0
 18 34  1  0  0  0  0
 19 21  2  0  0  0  0
 19 39  1  0  0  0  0
 20 23  2  0  0  0  0
 20 40  1  0  0  0  0
 21 55  1  0  0  0  0
 22 54  1  0  0  0  0
 23 41  1  0  0  0  0
 24 26  1  0  0  0  0
 24 60  1  0  0  0  0
 25 26  2  0  0  0  0
 25 61  1  0  0  0  0
 26 67  1  0  0  0  0
 27 87  1  0  0  0  0
 28 88  1  0  0  0  0
 29 31  2  0  0  0  0
 29 87  1  0  0  0  0
 30 89  1  0  0  0  0
 31 90  1  0  0  0  0
 32 72  2  0  0  0  0
 33 73  1  0  0  0  0
 33 76  1  0  0  0  0
 34 77  1  0  0  0  0
 34 82  2  0  0  0  0
 35 56  1  0  0  0  0
 35 78  1  0  0  0  0
 35 83  2  0  0  0  0
 36 69  1  0  0  0  0
 36 74  1  0  0  0  0
 36 84  2  0  0  0  0
 37 70  1  0  0  0  0
 37 79  1  0  0  0  0
 37 85  2  0  0  0  0
 38 75  1  0  0  0  0
 38 80  1  0  0  0  0
 38 86  2  0  0  0  0
 39 42  1  0  0  0  0
 40 56  1  0  0  0  0
 41 74  1  0  0  0  0
 42 46  1  0  0  0  0
 43 47  1  0  0  0  0
 43 52  1  0  0  0  0
 44 48  1  0  0  0  0
 44 54  1  0  0  0  0
 45 49  1  0  0  0  0
 45 54  1  0  0  0  0
 46 55  1  0  0  0  0
 47 57  1  0  0  0  0
 48 58  1  0  0  0  0
 49 58  1  0  0  0  0
 50 51  1  0  0  0  0
 50 59  1  0  0  0  0
 51 59  1  0  0  0  0
 52 75  1  0  0  0  0
 53 57  1  0  0  0  0
 53 75  1  0  0  0  0
 55 78  1  0  0  0  0
 56 74  1  0  0  0  0
 57 73  1  0  0  0  0
 58 88  1  0  0  0  0
 59 68  1  0  0  0  0
 59 80  1  0  0  0  0
 62 70  1  0  0  0  0
 63 71  1  0  0  0  0
 64 71  1  0  0  0  0
 65 71  1  0  0  0  0
 66 81  1  0  0  0  0
 67 68  1  0  0  0  0
 69 71  1  0  0  0  0
 69 79  1  0  0  0  0
 70 81  1  0  0  0  0
 72 73  1  0  0  0  0
M  CHG  1  81   1
M  ISO  4  38 100  58 101  80 100  88 101
M  END
> <Batch ID>
0153

> <Smiles>
CNC(C)C(=O)NC(C(=O)N1Cc2cc([101O:1][101CH:1]3CCC(c4cc(C)c(CCC5([100NH:0][100C:0](=O)N6CCCC(n7nc(-c8ccc(Oc9ccc(F)cc9F)cc8)c(C(N)=O)c7N)C6)CC5)c(C)c4)CC3)ccc2CC1C(=O)NC1CCCc2ccccc21)C(C)(C)C

> <Shape>
0.315

> <Color>
0.071

> <Negative vol penalty>
0.000

$$$$

  -OEChem-04052321483D

 90 99  0     1  0  0  0  0  0999 V2000
  -28.4704  -38.2731   21.6370 C   0  0  0  0  0  0  0  0  0  0  0  0
  -28.5145  -37.2818   20.6618 C   0  0  0  0  0  0  0  0  0  0  0  0
  -23.9395  -12.8707   23.6618 C   0  0  0  0  0  0  0  0  0  0  0  0
  -24.8870  -10.6484   23.6908 C   0  0  0  0  0  0  0  0  0  0  0  0
  -28.3244  -37.9234   22.9787 C   0  0  0  0  0  0  0  0  0  0  0  0
  -28.4137  -35.9401   21.0281 C   0  0  0  0  0  0  0  0  0  0  0  0
  -25.8755  -29.6787   18.6471 C   0  0  0  0  0  0  0  0  0  0  0  0
  -23.5352  -12.7156   24.9877 C   0  0  0  0  0  0  0  0  0  0  0  0
  -24.4827  -10.4934   25.0168 C   0  0  0  0  0  0  0  0  0  0  0  0
  -26.2839  -28.3635   18.4301 C   0  0  0  0  0  0  0  0  0  0  0  0
  -21.0318  -11.1847   26.6651 C   0  0  0  0  0  0  0  0  0  0  0  0
  -19.7384  -11.5867   26.9987 C   0  0  0  0  0  0  0  0  0  0  0  0
  -25.9550  -27.8816   20.7708 C   0  0  0  0  0  0  0  0  0  0  0  0
  -29.0999  -22.6462   17.4824 C   0  0  0  0  0  0  0  0  0  0  0  0
  -20.6398  -13.1695   28.5859 C   0  0  0  0  0  0  0  0  0  0  0  0
  -24.6154  -11.8371   23.0133 C   0  0  0  0  0  0  0  0  0  0  0  0
  -24.2106  -12.2406   20.5272 C   0  0  0  0  0  0  0  0  0  0  0  0
  -28.2121  -36.5772   23.3607 C   0  0  0  0  0  0  0  0  0  0  0  0
  -25.5136  -30.1089   19.9318 C   0  0  0  0  0  0  0  0  0  0  0  0
  -28.2674  -35.5720   22.3763 C   0  0  0  0  0  0  0  0  0  0  0  0
  -25.5399  -29.2021   21.0010 C   0  0  0  0  0  0  0  0  0  0  0  0
  -28.7449  -23.9948   17.5114 C   0  0  0  0  0  0  0  0  0  0  0  0
  -28.1755  -21.6733   17.8627 C   0  0  0  0  0  0  0  0  0  0  0  0
  -26.8960  -22.0490   18.2719 C   0  0  0  0  0  0  0  0  0  0  0  0
  -26.5410  -23.3976   18.3009 C   0  0  0  0  0  0  0  0  0  0  0  0
  -27.4655  -24.3705   17.9206 C   0  0  0  0  0  0  0  0  0  0  0  0
  -23.8068  -11.5270   25.6652 C   0  0  0  0  0  0  0  0  0  0  0  0
  -26.3264  -27.4654   19.4926 C   0  0  0  0  0  0  0  0  0  0  0  0
  -22.1292  -11.7751   27.2920 C   0  0  0  0  0  0  0  0  0  0  0  0
  -19.5424  -12.5791   27.9591 C   0  0  0  0  0  0  0  0  0  0  0  0
  -21.9332  -12.7675   28.2524 C   0  0  0  0  0  0  0  0  0  0  0  0
  -25.0328  -11.9964   21.6435 C   0  0  0  0  0  0  0  0  0  0  0  0
  -25.0819  -12.3101   19.4676 C   0  0  0  0  0  0  0  0  0  0  0  0
  -22.7866  -12.3913   20.4545 C   0  0  0  0  0  0  0  0  0  0  0  0
  -26.6202  -32.2906   21.9614 C   0  0  0  0  0  0  0  0  0  0  0  0
  -28.8922  -19.6686   19.1837 C   0  0  0  0  0  0  0  0  0  0  0  0
  -23.9994  -31.4550   23.6805 C   0  0  0  0  0  0  0  0  0  0  0  0
  -21.6280  -29.1055   24.3900 C   0  0  0  0  0  0  0  0  0  0  0  0
  -30.8970  -13.6752   19.0533 C   0  0  0  0  0  0  0  0  0  0  0  0
  -28.1032  -36.2456   24.8279 C   0  0  0  0  0  0  0  0  0  0  0  0
  -25.0498  -31.5239   20.1443 C   0  0  0  0  0  0  0  0  0  0  0  0
  -25.1420  -29.6087   22.3956 C   0  0  0  0  0  0  0  0  0  0  0  0
  -27.6268  -34.8204   25.0965 C   0  0  0  0  0  0  0  0  0  0  0  0
  -29.3248  -10.6613   17.9945 C   0  0  0  0  0  0  0  0  0  0  0  0
  -28.3855  -33.8297   24.2192 C   0  0  0  0  0  0  0  0  0  0  0  0
  -27.9723  -10.6837   18.7089 C   0  0  0  0  0  0  0  0  0  0  0  0
  -31.0433  -17.0898   20.4888 C   0  0  0  0  0  0  0  0  0  0  0  0
  -30.8140  -16.7903   17.9961 C   0  0  0  0  0  0  0  0  0  0  0  0
  -30.4329  -11.2491   18.8655 C   0  0  0  0  0  0  0  0  0  0  0  0
  -29.6579  -17.7314   20.5140 C   0  0  0  0  0  0  0  0  0  0  0  0
  -29.4387  -17.4544   18.0627 C   0  0  0  0  0  0  0  0  0  0  0  0
  -28.8044  -12.6216   20.1057 C   0  0  0  0  0  0  0  0  0  0  0  0
  -28.1364  -34.1069   22.7317 C   0  0  1  0  0  0  0  0  0  0  0  0
  -25.1958  -31.9899   21.5896 C   0  0  1  0  0  0  0  0  0  0  0  0
  -27.6450  -12.0901   19.2457 C   0  0  2  0  0  0  0  0  0  0  0  0
  -31.2168  -16.1223   19.3147 C   0  0  0  0  0  0  0  0  0  0  0  0
  -29.7537  -25.0166   17.0997 C   0  0  0  0  0  0  0  0  0  0  0  0
  -25.9069  -21.0035   18.6800 C   0  0  0  0  0  0  0  0  0  0  0  0
  -25.1684  -23.8007   18.7394 C   0  0  0  0  0  0  0  0  0  0  0  0
  -19.6411  -28.6956   25.8670 C   0  0  0  0  0  0  0  0  0  0  0  0
  -25.8627  -30.9607   26.0457 C   0  0  0  0  0  0  0  0  0  0  0  0
  -24.0135  -29.6805   27.1454 C   0  0  0  0  0  0  0  0  0  0  0  0
  -23.7160  -32.1029   26.6298 C   0  0  0  0  0  0  0  0  0  0  0  0
  -19.8174  -28.8071   22.0680 C   0  0  0  0  0  0  0  0  0  0  0  0
  -28.5806  -20.2361   17.8217 C   0  0  0  0  0  0  0  0  0  0  0  0
  -27.0861  -25.8219   17.9507 C   0  0  0  0  0  0  0  0  0  1  0  0
  -23.7008  -30.4226   24.7408 C   0  0  1  0  0  0  0  0  0  0  0  0
  -20.1184  -29.2041   24.5156 C   0  0  2  0  0  0  0  0  0  0  0  0
  -24.3327  -30.7842   26.1146 C   0  0  0  0  0  0  0  0  0  0  0  0
  -26.3269  -11.9159   21.3229 N   0  0  0  0  0  0  0  0  0  0  0  0
  -26.3245  -12.1106   19.9932 N   0  0  0  0  0  0  0  0  0  0  0  0
  -24.7018  -31.0047   22.5537 N   0  0  0  0  0  0  0  0  0  0  0  0
  -29.3339  -18.3453   19.2247 N   0  0  0  0  0  0  0  0  0  0  0  0
  -30.0607  -12.5839   19.3408 N   0  0  0  0  0  0  0  0  0  0  0  0
  -24.8986  -12.5216   18.1470 N   0  0  0  0  0  0  0  0  0  0  0  0
  -22.0429  -12.2913   21.6382 N   0  0  0  0  0  0  0  0  0  0  0  0
  -26.8393  -33.6032   22.3339 N   0  0  0  0  0  0  0  0  0  0  0  0
  -22.2496  -30.2760   24.7705 N   0  0  0  0  0  0  0  0  0  0  0  0
  -30.4673  -14.9056   19.5352 N   0  0  0  0  0  0  0  0  0  0  0  0
  -19.4563  -28.3993   23.4501 N   0  3  0  0  0  0  0  0  0  0  0  0
  -22.1898  -12.5920   19.3695 O   0  0  0  0  0  0  0  0  0  0  0  0
  -27.4582  -31.3977   21.9152 O   0  0  0  0  0  0  0  0  0  0  0  0
  -28.7495  -20.3823   20.1799 O   0  0  0  0  0  0  0  0  0  0  0  0
  -23.6171  -32.6165   23.8428 O   0  0  0  0  0  0  0  0  0  0  0  0
  -22.1989  -28.0904   23.9974 O   0  0  0  0  0  0  0  0  0  0  0  0
  -31.9460  -13.5623   18.4100 O   0  0  0  0  0  0  0  0  0  0  0  0
  -23.4126  -11.3754   26.9591 O   0  0  0  0  0  0  0  0  0  0  0  0
  -26.7253  -26.1812   19.2837 O   0  0  0  0  0  0  0  0  0  1  0  0
  -18.3004  -12.9661   28.2782 F   0  0  0  0  0  0  0  0  0  0  0  0
  -22.9835  -13.3391   28.8571 F   0  0  0  0  0  0  0  0  0  0  0  0
  1  2  1  0  0  0  0
  1  5  2  0  0  0  0
  2  6  2  0  0  0  0
  3  8  2  0  0  0  0
  3 16  1  0  0  0  0
  4  9  1  0  0  0  0
  4 16  2  0  0  0  0
  5 18  1  0  0  0  0
  6 20  1  0  0  0  0
  7 10  2  0  0  0  0
  7 19  1  0  0  0  0
  8 27  1  0  0  0  0
  9 27  2  0  0  0  0
 10 28  1  0  0  0  0
 11 12  2  0  0  0  0
 11 29  1  0  0  0  0
 12 30  1  0  0  0  0
 13 21  1  0  0  0  0
 13 28  2  0  0  0  0
 14 22  2  0  0  0  0
 14 23  1  0  0  0  0
 15 30  2  0  0  0  0
 15 31  1  0  0  0  0
 16 32  1  0  0  0  0
 17 32  1  0  0  0  0
 17 33  2  0  0  0  0
 17 34  1  0  0  0  0
 18 20  2  0  0  0  0
 18 40  1  0  0  0  0
 19 21  2  0  0  0  0
 19 41  1  0  0  0  0
 20 53  1  0  0  0  0
 21 42  1  0  0  0  0
 22 26  1  0  0  0  0
 22 57  1  0  0  0  0
 23 24  2  0  0  0  0
 23 65  1  0  0  0  0
 24 25  1  0  0  0  0
 24 58  1  0  0  0  0
 25 26  2  0  0  0  0
 25 59  1  0  0  0  0
 26 66  1  0  0  0  0
 27 87  1  0  0  0  0
 28 88  1  0  0  0  0
 29 31  2  0  0  0  0
 29 87  1  0  0  0  0
 30 89  1  0  0  0  0
 31 90  1  0  0  0  0
 32 70  2  0  0  0  0
 33 71  1  0  0  0  0
 33 75  1  0  0  0  0
 34 76  1  0  0  0  0
 34 81  2  0  0  0  0
 35 54  1  0  0  0  0
 35 77  1  0  0  0  0
 35 82  2  0  0  0  0
 36 65  1  0  0  0  0
 36 73  1  0  0  0  0
 36 83  2  0  0  0  0
 37 67  1  0  0  0  0
 37 72  1  0  0  0  0
 37 84  2  0  0  0  0
 38 68  1  0  0  0  0
 38 78  1  0  0  0  0
 38 85  2  0  0  0  0
 39 74  1  0  0  0  0
 39 79  1  0  0  0  0
 39 86  2  0  0  0  0
 40 43  1  0  0  0  0
 41 54  1  0  0  0  0
 42 72  1  0  0  0  0
 43 45  1  0  0  0  0
 44 46  1  0  0  0  0
 44 49  1  0  0  0  0
 45 53  1  0  0  0  0
 46 55  1  0  0  0  0
 47 50  1  0  0  0  0
 47 56  1  0  0  0  0
 48 51  1  0  0  0  0
 48 56  1  0  0  0  0
 49 74  1  0  0  0  0
 50 73  1  0  0  0  0
 51 73  1  0  0  0  0
 52 55  1  0  0  0  0
 52 74  1  0  0  0  0
 53 77  1  0  0  0  0
 54 72  1  0  0  0  0
 55 71  1  0  0  0  0
 56 79  1  0  0  0  0
 60 68  1  0  0  0  0
 61 69  1  0  0  0  0
 62 69  1  0  0  0  0
 63 69  1  0  0  0  0
 64 80  1  0  0  0  0
 66 88  1  0  0  0  0
 67 69  1  0  0  0  0
 67 78  1  0  0  0  0
 68 80  1  0  0  0  0
 70 71  1  0  0  0  0
M  CHG  1  80   1
M  ISO  4  39 100  66 101  79 100  88 101
M  END
> <Batch ID>
0153

> <Smiles>
CNC(C)C(=O)NC(C(=O)N1Cc2cc([101O:1][101CH2:1]c3c(C)cc(CC(=O)N4CCC([100NH:0][100C:0](=O)N5CCCC(n6nc(-c7ccc(Oc8ccc(F)cc8F)cc7)c(C(N)=O)c6N)C5)CC4)c(C)c3C)ccc2CC1C(=O)NC1CCCc2ccccc21)C(C)(C)C

> <Shape>
0.260

> <Color>
0.096

> <Negative vol penalty>
0.000

$$$$

  -OEChem-04052321483D

 85 94  0     1  0  0  0  0  0999 V2000
  -20.0997  -30.9849   21.6442 C   0  0  0  0  0  0  0  0  0  0  0  0
  -21.3921  -30.4702   21.6642 C   0  0  0  0  0  0  0  0  0  0  0  0
  -25.9918  -13.4122   21.5171 C   0  0  0  0  0  0  0  0  0  0  0  0
  -26.1845  -13.6827   19.1240 C   0  0  0  0  0  0  0  0  0  0  0  0
  -19.0176  -30.1608   21.9500 C   0  0  0  0  0  0  0  0  0  0  0  0
  -21.6030  -29.1312   21.9912 C   0  0  0  0  0  0  0  0  0  0  0  0
  -24.8934  -26.8664   18.8784 C   0  0  0  0  0  0  0  0  0  0  0  0
  -24.8483  -12.6341   21.3370 C   0  0  0  0  0  0  0  0  0  0  0  0
  -25.0410  -12.9045   18.9440 C   0  0  0  0  0  0  0  0  0  0  0  0
  -26.2477  -27.1233   19.0872 C   0  0  0  0  0  0  0  0  0  0  0  0
  -24.1133   -9.4508   20.4657 C   0  0  0  0  0  0  0  0  0  0  0  0
  -24.0083   -8.2722   21.2042 C   0  0  0  0  0  0  0  0  0  0  0  0
  -26.4621  -25.0184   20.2459 C   0  0  0  0  0  0  0  0  0  0  0  0
  -31.8979  -23.9321   21.8551 C   0  0  0  0  0  0  0  0  0  0  0  0
  -31.0187  -25.9781   22.8320 C   0  0  0  0  0  0  0  0  0  0  0  0
  -21.9810   -9.0947   22.2290 C   0  0  0  0  0  0  0  0  0  0  0  0
  -26.6599  -13.9366   20.4105 C   0  0  0  0  0  0  0  0  0  0  0  0
  -29.1743  -14.2931   20.6525 C   0  0  0  0  0  0  0  0  0  0  0  0
  -19.2146  -28.8085   22.2715 C   0  0  0  0  0  0  0  0  0  0  0  0
  -24.3099  -25.6866   19.3621 C   0  0  0  0  0  0  0  0  0  0  0  0
  -20.5226  -28.2885   22.3029 C   0  0  0  0  0  0  0  0  0  0  0  0
  -25.1007  -24.7477   20.0397 C   0  0  0  0  0  0  0  0  0  0  0  0
  -31.3326  -25.7710   20.4406 C   0  0  0  0  0  0  0  0  0  0  0  0
  -31.5030  -24.6772   22.9781 C   0  0  0  0  0  0  0  0  0  0  0  0
  -31.8167  -24.4809   20.5728 C   0  0  0  0  0  0  0  0  0  0  0  0
  -30.9380  -26.4965   21.5538 C   0  0  0  0  0  0  0  0  0  0  0  0
  -24.3729  -12.3802   20.0505 C   0  0  0  0  0  0  0  0  0  0  0  0
  -27.0316  -26.2006   19.7736 C   0  0  0  0  0  0  0  0  0  0  0  0
  -23.1521  -10.4515   20.6089 C   0  0  0  0  0  0  0  0  0  0  0  0
  -22.9422   -8.0941   22.0858 C   0  0  0  0  0  0  0  0  0  0  0  0
  -22.0859  -10.2734   21.4905 C   0  0  0  0  0  0  0  0  0  0  0  0
  -27.8409  -14.7410   20.5959 C   0  0  0  0  0  0  0  0  0  0  0  0
  -29.9127  -15.4358   20.8403 C   0  0  0  0  0  0  0  0  0  0  0  0
  -29.6985  -12.9629   20.5448 C   0  0  0  0  0  0  0  0  0  0  0  0
  -22.0057  -25.0145   21.4460 C   0  0  0  0  0  0  0  0  0  0  0  0
  -22.4874  -21.9794   20.4076 C   0  0  0  0  0  0  0  0  0  0  0  0
  -24.5924  -19.7075   18.9742 C   0  0  0  0  0  0  0  0  0  0  0  0
  -29.9879  -20.8804   19.1782 C   0  0  0  0  0  0  0  0  0  0  0  0
  -18.0178  -27.9684   22.6411 C   0  0  0  0  0  0  0  0  0  0  0  0
  -22.8535  -25.4121   19.1053 C   0  0  0  0  0  0  0  0  0  0  0  0
  -24.5269  -23.4566   20.5614 C   0  0  0  0  0  0  0  0  0  0  0  0
  -18.2947  -26.4675   22.6117 C   0  0  0  0  0  0  0  0  0  0  0  0
  -28.9328  -19.9819   22.5214 C   0  0  0  0  0  0  0  0  0  0  0  0
  -19.6060  -26.1526   23.3244 C   0  0  0  0  0  0  0  0  0  0  0  0
  -28.6730  -18.4825   22.3656 C   0  0  0  0  0  0  0  0  0  0  0  0
  -28.5084  -20.7492   21.2726 C   0  0  0  0  0  0  0  0  0  0  0  0
  -28.8787  -18.7692   19.8526 C   0  0  0  0  0  0  0  0  0  0  0  0
  -31.1794  -26.6033   19.2188 C   0  0  1  0  0  0  0  0  0  0  0  0
  -20.7899  -26.8350   22.6286 C   0  0  1  0  0  0  0  0  0  0  0  0
  -22.2506  -24.4151   20.0901 C   0  0  1  0  0  0  0  0  0  0  0  0
  -29.3075  -17.9351   21.0734 C   0  0  2  0  0  0  0  0  0  0  0  0
  -30.3574  -27.7719   19.8107 C   0  0  1  0  0  0  0  0  0  0  0  0
  -31.5974  -24.0705   24.3381 C   0  0  0  0  0  0  0  0  0  0  0  0
  -32.5308  -27.0649   18.6823 C   0  0  0  0  0  0  0  0  0  0  0  0
  -24.7177  -17.2965   18.2895 C   0  0  0  0  0  0  0  0  0  0  0  0
  -22.8534  -21.1718   23.3271 C   0  0  0  0  0  0  0  0  0  0  0  0
  -23.8904  -19.0356   22.5337 C   0  0  0  0  0  0  0  0  0  0  0  0
  -21.5203  -19.5587   21.9577 C   0  0  0  0  0  0  0  0  0  0  0  0
  -25.0122  -20.4163   16.1316 C   0  0  0  0  0  0  0  0  0  0  0  0
  -32.2182  -23.6521   19.4032 C   0  0  0  0  0  0  0  0  0  0  0  0
  -28.8718  -27.6752   19.4648 C   0  0  0  0  0  0  0  0  0  1  0  0
  -31.0319  -23.0633   18.6284 C   0  0  0  0  0  0  0  0  0  0  0  0
  -23.3829  -20.8370   20.8224 C   0  0  1  0  0  0  0  0  0  0  0  0
  -24.3839  -18.7126   17.8467 C   0  0  2  0  0  0  0  0  0  0  0  0
  -22.9224  -20.1759   22.1522 C   0  0  0  0  0  0  0  0  0  0  0  0
  -27.7353  -16.0650   20.7366 N   0  0  0  0  0  0  0  0  0  0  0  0
  -29.0118  -16.4589   20.8834 N   0  0  0  0  0  0  0  0  0  0  0  0
  -23.0966  -23.2368   20.2907 N   0  0  0  0  0  0  0  0  0  0  0  0
  -29.1618  -20.1902   20.0807 N   0  0  0  0  0  0  0  0  0  0  0  0
  -31.2383  -15.6553   20.9711 N   0  0  0  0  0  0  0  0  0  0  0  0
  -28.8002  -11.9042   20.3535 N   0  0  0  0  0  0  0  0  0  0  0  0
  -21.1611  -26.1081   21.4335 N   0  0  0  0  0  0  0  0  0  0  0  0
  -23.4314  -19.9231   19.6862 N   0  0  0  0  0  0  0  0  0  0  0  0
  -30.2003  -22.2240   19.4620 N   0  0  0  0  0  0  0  0  0  0  0  0
  -25.2503  -19.0580   16.6844 N   0  3  0  0  0  0  0  0  0  0  0  0
  -30.9257  -12.7185   20.6325 O   0  0  0  0  0  0  0  0  0  0  0  0
  -22.5420  -24.5204   22.4309 O   0  0  0  0  0  0  0  0  0  0  0  0
  -21.2931  -21.7627   20.1881 O   0  0  0  0  0  0  0  0  0  0  0  0
  -25.6775  -20.2373   19.2029 O   0  0  0  0  0  0  0  0  0  0  0  0
  -30.5030  -20.3380   18.1945 O   0  0  0  0  0  0  0  0  0  0  0  0
  -30.4837  -27.7552   21.2582 O   0  0  0  0  0  0  0  0  0  0  0  0
  -23.2572  -11.6207   19.8744 O   0  0  0  0  0  0  0  0  0  0  0  0
  -28.3537  -26.4491   19.9793 O   0  0  0  0  0  0  0  0  0  1  0  0
  -22.8407   -6.9615   22.7938 F   0  0  0  0  0  0  0  0  0  0  0  0
  -21.1588  -11.2307   21.6315 F   0  0  0  0  0  0  0  0  0  0  0  0
  1  2  1  0  0  0  0
  1  5  2  0  0  0  0
  2  6  2  0  0  0  0
  3  8  2  0  0  0  0
  3 17  1  0  0  0  0
  4  9  1  0  0  0  0
  4 17  2  0  0  0  0
  5 19  1  0  0  0  0
  6 21  1  0  0  0  0
  7 10  2  0  0  0  0
  7 20  1  0  0  0  0
  8 27  1  0  0  0  0
  9 27  2  0  0  0  0
 10 28  1  0  0  0  0
 11 12  2  0  0  0  0
 11 29  1  0  0  0  0
 12 30  1  0  0  0  0
 13 22  1  0  0  0  0
 13 28  2  0  0  0  0
 14 24  1  0  0  0  0
 14 25  2  0  0  0  0
 15 24  2  0  0  0  0
 15 26  1  0  0  0  0
 16 30  2  0  0  0  0
 16 31  1  0  0  0  0
 17 32  1  0  0  0  0
 18 32  1  0  0  0  0
 18 33  2  0  0  0  0
 18 34  1  0  0  0  0
 19 21  2  0  0  0  0
 19 39  1  0  0  0  0
 20 22  2  0  0  0  0
 20 40  1  0  0  0  0
 21 49  1  0  0  0  0
 22 41  1  0  0  0  0
 23 25  1  0  0  0  0
 23 26  2  0  0  0  0
 23 48  1  0  0  0  0
 24 53  1  0  0  0  0
 25 60  1  0  0  0  0
 26 81  1  0  0  0  0
 27 82  1  0  0  0  0
 28 83  1  0  0  0  0
 29 31  2  0  0  0  0
 29 82  1  0  0  0  0
 30 84  1  0  0  0  0
 31 85  1  0  0  0  0
 32 66  2  0  0  0  0
 33 67  1  0  0  0  0
 33 70  1  0  0  0  0
 34 71  1  0  0  0  0
 34 76  2  0  0  0  0
 35 50  1  0  0  0  0
 35 72  1  0  0  0  0
 35 77  2  0  0  0  0
 36 63  1  0  0  0  0
 36 68  1  0  0  0  0
 36 78  2  0  0  0  0
 37 64  1  0  0  0  0
 37 73  1  0  0  0  0
 37 79  2  0  0  0  0
 38 69  1  0  0  0  0
 38 74  1  0  0  0  0
 38 80  2  0  0  0  0
 39 42  1  0  0  0  0
 40 50  1  0  0  0  0
 41 68  1  0  0  0  0
 42 44  1  0  0  0  0
 43 45  1  0  0  0  0
 43 46  1  0  0  0  0
 44 49  1  0  0  0  0
 45 51  1  0  0  0  0
 46 69  1  0  0  0  0
 47 51  1  0  0  0  0
 47 69  1  0  0  0  0
 48 52  1  0  0  0  0
 48 54  1  0  0  0  0
 49 72  1  0  0  0  0
 50 68  1  0  0  0  0
 51 67  1  0  0  0  0
 52 61  1  0  0  0  0
 52 81  1  0  0  0  0
 55 64  1  0  0  0  0
 56 65  1  0  0  0  0
 57 65  1  0  0  0  0
 58 65  1  0  0  0  0
 59 75  1  0  0  0  0
 60 62  1  0  0  0  0
 61 83  1  0  0  0  0
 62 74  1  0  0  0  0
 63 65  1  0  0  0  0
 63 73  1  0  0  0  0
 64 75  1  0  0  0  0
 66 67  1  0  0  0  0
M  CHG  1  75   1
M  ISO  4  38 100  61 101  74 100  83 101
M  END
> <Batch ID>
0153

> <Smiles>
CNC(C)C(=O)NC(C(=O)N1Cc2cc([101O:1][101CH2:1]C3Oc4cc(C)cc(CC[100NH:0][100C:0](=O)N5CCCC(n6nc(-c7ccc(Oc8ccc(F)cc8F)cc7)c(C(N)=O)c6N)C5)c4C3C)ccc2CC1C(=O)NC1CCCc2ccccc21)C(C)(C)C

> <Shape>
0.263

> <Color>
0.068

> <Negative vol penalty>
0.000

$$$$

  -OEChem-04052321483D

 90 99  0     1  0  0  0  0  0999 V2000
  -17.1159  -32.2471   22.9252 C   0  0  0  0  0  0  0  0  0  0  0  0
  -18.0012  -31.8572   21.9254 C   0  0  0  0  0  0  0  0  0  0  0  0
  -22.8123  -10.1299   20.1084 C   0  0  0  0  0  0  0  0  0  0  0  0
  -23.6320  -10.1179   22.3811 C   0  0  0  0  0  0  0  0  0  0  0  0
  -17.4483  -32.0496   24.2648 C   0  0  0  0  0  0  0  0  0  0  0  0
  -19.2199  -31.2706   22.2647 C   0  0  0  0  0  0  0  0  0  0  0  0
  -22.1831  -26.8899   19.1768 C   0  0  0  0  0  0  0  0  0  0  0  0
  -21.9666   -9.0619   20.4077 C   0  0  0  0  0  0  0  0  0  0  0  0
  -22.7862   -9.0498   22.6804 C   0  0  0  0  0  0  0  0  0  0  0  0
  -23.2422  -26.9334   18.2712 C   0  0  0  0  0  0  0  0  0  0  0  0
  -22.7361   -5.7028   22.2054 C   0  0  0  0  0  0  0  0  0  0  0  0
  -23.2680   -4.6397   22.9350 C   0  0  0  0  0  0  0  0  0  0  0  0
  -28.3694  -21.0845   19.3789 C   0  0  0  0  0  0  0  0  0  0  0  0
  -24.7862  -26.4612   20.0635 C   0  0  0  0  0  0  0  0  0  0  0  0
  -29.5073  -18.7119   18.4524 C   0  0  0  0  0  0  0  0  0  0  0  0
  -21.6392   -5.0210   24.6782 C   0  0  0  0  0  0  0  0  0  0  0  0
  -23.6451  -10.6579   21.0951 C   0  0  0  0  0  0  0  0  0  0  0  0
  -24.2283  -13.1336   20.8988 C   0  0  0  0  0  0  0  0  0  0  0  0
  -18.6674  -31.4515   24.6204 C   0  0  0  0  0  0  0  0  0  0  0  0
  -22.4192  -26.6422   20.5367 C   0  0  0  0  0  0  0  0  0  0  0  0
  -19.5694  -31.0662   23.6103 C   0  0  0  0  0  0  0  0  0  0  0  0
  -28.5723  -20.8957   18.0119 C   0  0  0  0  0  0  0  0  0  0  0  0
  -23.7282  -26.4126   20.9839 C   0  0  0  0  0  0  0  0  0  0  0  0
  -28.7354  -20.0871   20.2827 C   0  0  0  0  0  0  0  0  0  0  0  0
  -29.1413  -19.7093   17.5486 C   0  0  0  0  0  0  0  0  0  0  0  0
  -21.9535   -8.5218   21.6937 C   0  0  0  0  0  0  0  0  0  0  0  0
  -24.5443  -26.7219   18.7149 C   0  0  0  0  0  0  0  0  0  0  0  0
  -21.6557   -6.4251   22.7122 C   0  0  0  0  0  0  0  0  0  0  0  0
  -29.3044  -18.9008   19.8194 C   0  0  0  0  0  0  0  0  0  0  0  0
  -22.7196   -4.2988   24.1714 C   0  0  0  0  0  0  0  0  0  0  0  0
  -21.1073   -6.0842   23.9485 C   0  0  0  0  0  0  0  0  0  0  0  0
  -24.5194  -11.7608   20.7863 C   0  0  0  0  0  0  0  0  0  0  0  0
  -25.3780  -13.7630   20.4884 C   0  0  0  0  0  0  0  0  0  0  0  0
  -23.0262  -13.7818   21.3353 C   0  0  0  0  0  0  0  0  0  0  0  0
  -21.9543  -28.2700   23.2270 C   0  0  0  0  0  0  0  0  0  0  0  0
  -22.9266  -25.5021   24.6111 C   0  0  0  0  0  0  0  0  0  0  0  0
  -24.6680  -22.5802   24.3346 C   0  0  0  0  0  0  0  0  0  0  0  0
  -30.9381  -14.2425   20.5124 C   0  0  0  0  0  0  0  0  0  0  0  0
  -19.0032  -31.3018   26.0831 C   0  0  0  0  0  0  0  0  0  0  0  0
  -21.2631  -26.5720   21.4964 C   0  0  0  0  0  0  0  0  0  0  0  0
  -24.0327  -26.1226   22.4301 C   0  0  0  0  0  0  0  0  0  0  0  0
  -20.1516  -30.3316   26.3482 C   0  0  0  0  0  0  0  0  0  0  0  0
  -29.5081  -11.9241   18.2197 C   0  0  0  0  0  0  0  0  0  0  0  0
  -21.3127  -30.6063   25.3978 C   0  0  0  0  0  0  0  0  0  0  0  0
  -28.0613  -11.7836   18.6960 C   0  0  0  0  0  0  0  0  0  0  0  0
  -26.6621  -22.2405   17.1578 C   0  0  0  0  0  0  0  0  0  0  0  0
  -28.9642  -23.2635   17.3586 C   0  0  0  0  0  0  0  0  0  0  0  0
  -30.4751  -12.0828   19.3909 C   0  0  0  0  0  0  0  0  0  0  0  0
  -28.6925  -13.0307   20.8044 C   0  0  0  0  0  0  0  0  0  0  0  0
  -26.2371  -23.3966   16.2614 C   0  0  0  0  0  0  0  0  0  0  0  0
  -28.5217  -24.4116   16.4604 C   0  0  0  0  0  0  0  0  0  0  0  0
  -28.1739  -21.9788   17.0621 C   0  0  0  0  0  0  0  0  0  0  0  0
  -20.8902  -30.4039   23.9377 C   0  0  1  0  0  0  0  0  0  0  0  0
  -21.6728  -26.8214   22.9446 C   0  0  1  0  0  0  0  0  0  0  0  0
  -27.6740  -12.9241   19.6566 C   0  0  2  0  0  0  0  0  0  0  0  0
  -28.5101  -20.3057   21.7425 C   0  0  0  0  0  0  0  0  0  0  0  0
  -29.3684  -19.4841   16.0898 C   0  0  0  0  0  0  0  0  0  0  0  0
  -25.3130  -20.5398   25.6453 C   0  0  0  0  0  0  0  0  0  0  0  0
  -25.0062  -27.1384   26.1303 C   0  0  0  0  0  0  0  0  0  0  0  0
  -26.1985  -25.0016   26.6601 C   0  0  0  0  0  0  0  0  0  0  0  0
  -23.8747  -25.3697   27.4889 C   0  0  0  0  0  0  0  0  0  0  0  0
  -23.2726  -20.7819   22.4431 C   0  0  0  0  0  0  0  0  0  0  0  0
  -31.2475  -16.4055   21.6891 C   0  0  0  0  0  0  0  0  0  0  0  0
  -26.5672  -25.8328   15.8482 C   0  0  0  0  0  0  0  0  0  0  0  0
  -31.0446  -17.5414   20.7024 C   0  0  0  0  0  0  0  0  0  0  0  0
  -25.3044  -26.3747   16.4883 C   0  0  0  0  0  0  0  0  0  1  0  0
  -24.2577  -24.9261   25.0296 C   0  0  1  0  0  0  0  0  0  0  0  0
  -24.3001  -21.1508   24.6896 C   0  0  2  0  0  0  0  0  0  0  0  0
  -24.8291  -25.6163   26.3002 C   0  0  0  0  0  0  0  0  0  0  0  0
  -25.7569  -11.5310   20.3393 N   0  0  0  0  0  0  0  0  0  0  0  0
  -26.2536  -12.7678   20.1672 N   0  0  0  0  0  0  0  0  0  0  0  0
  -22.8693  -26.0707   23.3308 N   0  0  0  0  0  0  0  0  0  0  0  0
  -30.0521  -13.1816   20.2624 N   0  0  0  0  0  0  0  0  0  0  0  0
  -25.7153  -15.0652   20.3744 N   0  0  0  0  0  0  0  0  0  0  0  0
  -21.9401  -12.9849   21.7220 N   0  0  0  0  0  0  0  0  0  0  0  0
  -20.8432  -28.9937   23.6159 N   0  0  0  0  0  0  0  0  0  0  0  0
  -24.0541  -23.4884   25.1709 N   0  0  0  0  0  0  0  0  0  0  0  0
  -30.4559  -15.2458   21.3439 N   0  0  0  0  0  0  0  0  0  0  0  0
  -27.0295  -24.6433   16.6069 N   0  3  0  0  0  0  0  0  0  0  0  0
  -24.2463  -20.3094   23.4608 N   0  3  0  0  0  0  0  0  0  0  0  0
  -22.9129  -15.0307   21.3654 O   0  0  0  0  0  0  0  0  0  0  0  0
  -23.0954  -28.6992   23.1027 O   0  0  0  0  0  0  0  0  0  0  0  0
  -21.9708  -25.4432   25.3888 O   0  0  0  0  0  0  0  0  0  0  0  0
  -25.4272  -22.8626   23.4103 O   0  0  0  0  0  0  0  0  0  0  0  0
  -32.0729  -14.2944   20.0260 O   0  0  0  0  0  0  0  0  0  0  0  0
  -21.1282   -7.4798   21.9862 O   0  0  0  0  0  0  0  0  0  0  0  0
  -25.5800  -26.7644   17.8332 O   0  0  0  0  0  0  0  0  0  1  0  0
  -29.6689  -17.9170   20.6888 O   0  0  0  0  0  0  0  0  0  0  0  0
  -23.2296   -3.2768   24.8713 F   0  0  0  0  0  0  0  0  0  0  0  0
  -20.0686   -6.7736   24.4400 F   0  0  0  0  0  0  0  0  0  0  0  0
  1  2  1  0  0  0  0
  1  5  2  0  0  0  0
  2  6  2  0  0  0  0
  3  8  2  0  0  0  0
  3 17  1  0  0  0  0
  4  9  1  0  0  0  0
  4 17  2  0  0  0  0
  5 19  1  0  0  0  0
  6 21  1  0  0  0  0
  7 10  2  0  0  0  0
  7 20  1  0  0  0  0
  8 26  1  0  0  0  0
  9 26  2  0  0  0  0
 10 27  1  0  0  0  0
 11 12  2  0  0  0  0
 11 28  1  0  0  0  0
 12 30  1  0  0  0  0
 13 22  1  0  0  0  0
 13 24  2  0  0  0  0
 14 23  1  0  0  0  0
 14 27  2  0  0  0  0
 15 25  1  0  0  0  0
 15 29  2  0  0  0  0
 16 30  2  0  0  0  0
 16 31  1  0  0  0  0
 17 32  1  0  0  0  0
 18 32  1  0  0  0  0
 18 33  2  0  0  0  0
 18 34  1  0  0  0  0
 19 21  2  0  0  0  0
 19 39  1  0  0  0  0
 20 23  2  0  0  0  0
 20 40  1  0  0  0  0
 21 53  1  0  0  0  0
 22 25  2  0  0  0  0
 22 52  1  0  0  0  0
 23 41  1  0  0  0  0
 24 29  1  0  0  0  0
 24 56  1  0  0  0  0
 25 57  1  0  0  0  0
 26 86  1  0  0  0  0
 27 87  1  0  0  0  0
 28 31  2  0  0  0  0
 28 86  1  0  0  0  0
 29 88  1  0  0  0  0
 30 89  1  0  0  0  0
 31 90  1  0  0  0  0
 32 70  2  0  0  0  0
 33 71  1  0  0  0  0
 33 74  1  0  0  0  0
 34 75  1  0  0  0  0
 34 81  2  0  0  0  0
 35 54  1  0  0  0  0
 35 76  1  0  0  0  0
 35 82  2  0  0  0  0
 36 67  1  0  0  0  0
 36 72  1  0  0  0  0
 36 83  2  0  0  0  0
 37 68  1  0  0  0  0
 37 77  1  0  0  0  0
 37 84  2  0  0  0  0
 38 73  1  0  0  0  0
 38 78  1  0  0  0  0
 38 85  2  0  0  0  0
 39 42  1  0  0  0  0
 40 54  1  0  0  0  0
 41 72  1  0  0  0  0
 42 44  1  0  0  0  0
 43 45  1  0  0  0  0
 43 48  1  0  0  0  0
 44 53  1  0  0  0  0
 45 55  1  0  0  0  0
 46 50  1  0  0  0  0
 46 52  1  0  0  0  0
 47 51  1  0  0  0  0
 47 52  1  0  0  0  0
 48 73  1  0  0  0  0
 49 55  1  0  0  0  0
 49 73  1  0  0  0  0
 50 79  1  0  0  0  0
 51 79  1  0  0  0  0
 53 76  1  0  0  0  0
 54 72  1  0  0  0  0
 55 71  1  0  0  0  0
 58 68  1  0  0  0  0
 59 69  1  0  0  0  0
 60 69  1  0  0  0  0
 61 69  1  0  0  0  0
 62 80  1  0  0  0  0
 63 65  1  0  0  0  0
 63 78  1  0  0  0  0
 64 66  1  0  0  0  0
 64 79  1  0  0  0  0
 65 88  1  0  0  0  0
 66 87  1  0  0  0  0
 67 69  1  0  0  0  0
 67 77  1  0  0  0  0
 68 80  1  0  0  0  0
 70 71  1  0  0  0  0
M  CHG  2  79   1  80   1
M  ISO  4  38 100  66 101  78 100  87 101
M  END
> <Batch ID>
0153

> <Smiles>
CNC(C)C(=O)NC(C(=O)N1Cc2cc([101O:1][101CH2:1]CN3CCC(c4cc(C)c(OCC[100NH:0][100C:0](=O)N5CCCC(n6nc(-c7ccc(Oc8ccc(F)cc8F)cc7)c(C(N)=O)c6N)C5)cc4C)CC3)ccc2CC1C(=O)NC1CCCc2ccccc21)C(C)(C)C

> <Shape>
0.286

> <Color>
0.203

> <Negative vol penalty>
0.000

$$$$

  -OEChem-04052321483D

 90100  0     1  0  0  0  0  0999 V2000
  -26.7548  -32.1874   21.8313 C   0  0  0  0  0  0  0  0  0  0  0  0
  -26.9753  -31.3562   22.9250 C   0  0  0  0  0  0  0  0  0  0  0  0
  -26.5247  -12.9955   19.2561 C   0  0  0  0  0  0  0  0  0  0  0  0
  -26.4782  -12.4552   21.6105 C   0  0  0  0  0  0  0  0  0  0  0  0
  -26.4187  -31.6367   20.5953 C   0  0  0  0  0  0  0  0  0  0  0  0
  -26.8588  -29.9739   22.7834 C   0  0  0  0  0  0  0  0  0  0  0  0
  -29.6307  -23.8541   25.2696 C   0  0  0  0  0  0  0  0  0  0  0  0
  -25.2393  -12.4738   19.1110 C   0  0  0  0  0  0  0  0  0  0  0  0
  -25.1927  -11.9335   21.4654 C   0  0  0  0  0  0  0  0  0  0  0  0
  -29.2332  -22.6409   25.8298 C   0  0  0  0  0  0  0  0  0  0  0  0
  -23.7745   -9.0843   20.3247 C   0  0  0  0  0  0  0  0  0  0  0  0
  -23.4996   -7.8597   20.9332 C   0  0  0  0  0  0  0  0  0  0  0  0
  -28.7251  -21.7974   23.6276 C   0  0  0  0  0  0  0  0  0  0  0  0
  -29.3695  -16.5148   32.8764 C   0  0  0  0  0  0  0  0  0  0  0  0
  -28.6507  -18.5132   31.7247 C   0  0  0  0  0  0  0  0  0  0  0  0
  -21.7660   -8.9044   22.2524 C   0  0  0  0  0  0  0  0  0  0  0  0
  -27.1442  -12.9861   20.5059 C   0  0  0  0  0  0  0  0  0  0  0  0
  -29.6433  -13.0925   20.0052 C   0  0  0  0  0  0  0  0  0  0  0  0
  -26.3075  -30.2464   20.4362 C   0  0  0  0  0  0  0  0  0  0  0  0
  -29.5680  -24.0522   23.8827 C   0  0  0  0  0  0  0  0  0  0  0  0
  -26.5196  -29.4042   21.5444 C   0  0  0  0  0  0  0  0  0  0  0  0
  -29.1248  -23.0131   23.0521 C   0  0  0  0  0  0  0  0  0  0  0  0
  -29.5533  -16.6553   30.4715 C   0  0  0  0  0  0  0  0  0  0  0  0
  -28.8291  -17.8002   32.9103 C   0  0  0  0  0  0  0  0  0  0  0  0
  -29.7317  -15.9423   31.6571 C   0  0  0  0  0  0  0  0  0  0  0  0
  -29.0128  -17.9408   30.5054 C   0  0  0  0  0  0  0  0  0  0  0  0
  -24.5733  -11.9428   20.2156 C   0  0  0  0  0  0  0  0  0  0  0  0
  -28.7776  -21.6133   25.0091 C   0  0  0  0  0  0  0  0  0  0  0  0
  -23.0452  -10.2190   20.6801 C   0  0  0  0  0  0  0  0  0  0  0  0
  -22.4953   -7.7697   21.8971 C   0  0  0  0  0  0  0  0  0  0  0  0
  -22.0409  -10.1291   21.6439 C   0  0  0  0  0  0  0  0  0  0  0  0
  -28.4723  -13.5244   20.6563 C   0  0  0  0  0  0  0  0  0  0  0  0
  -30.6287  -13.9196   20.4864 C   0  0  0  0  0  0  0  0  0  0  0  0
  -29.8243  -12.0382   19.0506 C   0  0  0  0  0  0  0  0  0  0  0  0
  -27.9907  -26.0415   21.9700 C   0  0  0  0  0  0  0  0  0  0  0  0
  -29.8216  -24.6647   19.6734 C   0  0  0  0  0  0  0  0  0  0  0  0
  -31.6574  -21.9726   18.6587 C   0  0  0  0  0  0  0  0  0  0  0  0
  -31.3713  -17.0024   25.4251 C   0  0  0  0  0  0  0  0  0  0  0  0
  -25.8956  -29.7002   19.0921 C   0  0  0  0  0  0  0  0  0  0  0  0
  -30.0257  -25.3574   23.2917 C   0  0  0  0  0  0  0  0  0  0  0  0
  -29.0576  -23.1682   21.5554 C   0  0  0  0  0  0  0  0  0  0  0  0
  -26.1593  -28.2048   18.9356 C   0  0  0  0  0  0  0  0  0  0  0  0
  -31.3226  -18.3136   22.2272 C   0  0  0  0  0  0  0  0  0  0  0  0
  -25.6756  -27.4456   20.1670 C   0  0  0  0  0  0  0  0  0  0  0  0
  -30.7027  -17.1978   21.3863 C   0  0  0  0  0  0  0  0  0  0  0  0
  -29.0378  -16.4897   27.9960 C   0  0  0  0  0  0  0  0  0  0  0  0
  -31.4279  -16.2883   28.8060 C   0  0  0  0  0  0  0  0  0  0  0  0
  -27.3766  -19.3660   27.4575 C   0  0  0  0  0  0  0  0  0  0  0  0
  -29.8424  -19.7635   27.3636 C   0  0  0  0  0  0  0  0  0  0  0  0
  -30.6075  -18.4491   23.5665 C   0  0  0  0  0  0  0  0  0  0  0  0
  -29.4632  -15.8794   26.6574 C   0  0  0  0  0  0  0  0  0  0  0  0
  -31.7904  -15.6609   27.4630 C   0  0  0  0  0  0  0  0  0  0  0  0
  -27.4728  -19.1078   28.9587 C   0  0  0  0  0  0  0  0  0  0  0  0
  -29.9406  -19.5108   28.8649 C   0  0  0  0  0  0  0  0  0  0  0  0
  -29.9622  -16.0614   23.5383 C   0  0  0  0  0  0  0  0  0  0  0  0
  -29.9494  -16.0292   29.1476 C   0  0  0  0  0  0  0  0  0  0  0  0
  -26.4270  -27.8985   21.4247 C   0  0  1  0  0  0  0  0  0  0  0  0
  -29.4342  -25.6285   21.9118 C   0  0  1  0  0  0  0  0  0  0  0  0
  -30.6533  -15.8755   22.1722 C   0  0  1  0  0  0  0  0  0  0  0  0
  -28.4727  -20.3061   26.9724 C   0  0  0  0  0  0  0  0  0  1  0  0
  -28.4438  -18.4127   34.2143 C   0  0  0  0  0  0  0  0  0  0  0  0
  -30.3084  -14.5644   31.6487 C   0  0  0  0  0  0  0  0  0  0  0  0
  -33.0018  -21.1240   16.7171 C   0  0  0  0  0  0  0  0  0  0  0  0
  -27.2445  -24.0671   18.1532 C   0  0  0  0  0  0  0  0  0  0  0  0
  -28.5289  -22.4329   16.7575 C   0  0  0  0  0  0  0  0  0  0  0  0
  -29.1410  -24.8510   16.7238 C   0  0  0  0  0  0  0  0  0  0  0  0
  -34.1183  -21.7914   20.2926 C   0  0  0  0  0  0  0  0  0  0  0  0
  -29.6785  -23.4647   18.7687 C   0  0  1  0  0  0  0  0  0  0  0  0
  -33.0403  -21.8716   18.0409 C   0  0  2  0  0  0  0  0  0  0  0  0
  -28.6475  -23.7014   17.6291 C   0  0  0  0  0  0  0  0  0  0  0  0
  -28.6917  -14.5463   21.4879 N   0  0  0  0  0  0  0  0  0  0  0  0
  -30.0120  -14.7634   21.3627 N   0  0  0  0  0  0  0  0  0  0  0  0
  -28.8250  -18.6722   29.3256 N   0  0  0  0  0  0  0  0  0  0  0  0
  -29.5101  -24.4652   21.0258 N   0  0  0  0  0  0  0  0  0  0  0  0
  -30.5785  -17.1725   24.2800 N   0  0  0  0  0  0  0  0  0  0  0  0
  -30.8905  -16.1224   26.4063 N   0  0  0  0  0  0  0  0  0  0  0  0
  -31.9538  -14.0000   20.2414 N   0  0  0  0  0  0  0  0  0  0  0  0
  -30.1262  -10.7537   19.5231 N   0  0  0  0  0  0  0  0  0  0  0  0
  -27.7462  -27.3049   21.4665 N   0  0  0  0  0  0  0  0  0  0  0  0
  -31.0226  -23.1433   18.3012 N   0  0  0  0  0  0  0  0  0  0  0  0
  -33.9670  -21.1523   18.9601 N   0  3  0  0  0  0  0  0  0  0  0  0
  -29.7375  -12.2329   17.8144 O   0  0  0  0  0  0  0  0  0  0  0  0
  -27.1600  -25.2704   22.4359 O   0  0  0  0  0  0  0  0  0  0  0  0
  -30.2029  -25.7377   19.1991 O   0  0  0  0  0  0  0  0  0  0  0  0
  -31.1858  -21.0986   19.3827 O   0  0  0  0  0  0  0  0  0  0  0  0
  -32.4457  -17.6005   25.5629 O   0  0  0  0  0  0  0  0  0  0  0  0
  -23.3188  -11.4339   20.0745 O   0  0  0  0  0  0  0  0  0  0  0  0
  -28.3857  -20.4202   25.5571 O   0  0  0  0  0  0  0  0  0  1  0  0
  -22.2304   -6.5933   22.4802 F   0  0  0  0  0  0  0  0  0  0  0  0
  -21.3362  -11.2155   21.9886 F   0  0  0  0  0  0  0  0  0  0  0  0
  1  2  1  0  0  0  0
  1  5  2  0  0  0  0
  2  6  2  0  0  0  0
  3  8  2  0  0  0  0
  3 17  1  0  0  0  0
  4  9  1  0  0  0  0
  4 17  2  0  0  0  0
  5 19  1  0  0  0  0
  6 21  1  0  0  0  0
  7 10  2  0  0  0  0
  7 20  1  0  0  0  0
  8 27  1  0  0  0  0
  9 27  2  0  0  0  0
 10 28  1  0  0  0  0
 11 12  2  0  0  0  0
 11 29  1  0  0  0  0
 12 30  1  0  0  0  0
 13 22  1  0  0  0  0
 13 28  2  0  0  0  0
 14 24  1  0  0  0  0
 14 25  2  0  0  0  0
 15 24  2  0  0  0  0
 15 26  1  0  0  0  0
 16 30  2  0  0  0  0
 16 31  1  0  0  0  0
 17 32  1  0  0  0  0
 18 32  1  0  0  0  0
 18 33  2  0  0  0  0
 18 34  1  0  0  0  0
 19 21  2  0  0  0  0
 19 39  1  0  0  0  0
 20 22  2  0  0  0  0
 20 40  1  0  0  0  0
 21 57  1  0  0  0  0
 22 41  1  0  0  0  0
 23 25  1  0  0  0  0
 23 26  2  0  0  0  0
 23 56  1  0  0  0  0
 24 61  1  0  0  0  0
 25 62  1  0  0  0  0
 26 73  1  0  0  0  0
 27 87  1  0  0  0  0
 28 88  1  0  0  0  0
 29 31  2  0  0  0  0
 29 87  1  0  0  0  0
 30 89  1  0  0  0  0
 31 90  1  0  0  0  0
 32 71  2  0  0  0  0
 33 72  1  0  0  0  0
 33 77  1  0  0  0  0
 34 78  1  0  0  0  0
 34 82  2  0  0  0  0
 35 58  1  0  0  0  0
 35 79  1  0  0  0  0
 35 83  2  0  0  0  0
 36 68  1  0  0  0  0
 36 74  1  0  0  0  0
 36 84  2  0  0  0  0
 37 69  1  0  0  0  0
 37 80  1  0  0  0  0
 37 85  2  0  0  0  0
 38 75  1  0  0  0  0
 38 76  1  0  0  0  0
 38 86  2  0  0  0  0
 39 42  1  0  0  0  0
 40 58  1  0  0  0  0
 41 74  1  0  0  0  0
 42 44  1  0  0  0  0
 43 45  1  0  0  0  0
 43 50  1  0  0  0  0
 44 57  1  0  0  0  0
 45 59  1  0  0  0  0
 46 51  1  0  0  0  0
 46 56  1  0  0  0  0
 47 52  1  0  0  0  0
 47 56  1  0  0  0  0
 48 53  1  0  0  0  0
 48 60  1  0  0  0  0
 49 54  1  0  0  0  0
 49 60  1  0  0  0  0
 50 75  1  0  0  0  0
 51 76  1  0  0  0  0
 52 76  1  0  0  0  0
 53 73  1  0  0  0  0
 54 73  1  0  0  0  0
 55 59  1  0  0  0  0
 55 75  1  0  0  0  0
 57 79  1  0  0  0  0
 58 74  1  0  0  0  0
 59 72  1  0  0  0  0
 60 88  1  0  0  0  0
 63 69  1  0  0  0  0
 64 70  1  0  0  0  0
 65 70  1  0  0  0  0
 66 70  1  0  0  0  0
 67 81  1  0  0  0  0
 68 70  1  0  0  0  0
 68 80  1  0  0  0  0
 69 81  1  0  0  0  0
 71 72  1  0  0  0  0
M  CHG  1  81   1
M  ISO  4  38 100  60 101  76 100  88 101
M  END
> <Batch ID>
0153

> <Smiles>
CNC(C)C(=O)NC(C(=O)N1Cc2cc([101O:1][101CH:1]3CCN(c4cc(C)cc(C)c4C4CC[100N:0]([100C:0](=O)N5CCCC(n6nc(-c7ccc(Oc8ccc(F)cc8F)cc7)c(C(N)=O)c6N)C5)CC4)CC3)ccc2CC1C(=O)NC1CCCc2ccccc21)C(C)(C)C

> <Shape>
0.222

> <Color>
0.065

> <Negative vol penalty>
0.000

$$$$

  -OEChem-04052321483D

 89 98  0     1  0  0  0  0  0999 V2000
  -23.9619  -38.8210   21.3510 C   0  0  0  0  0  0  0  0  0  0  0  0
  -24.8240  -38.0140   20.6155 C   0  0  0  0  0  0  0  0  0  0  0  0
  -23.5946   -9.7719   22.1933 C   0  0  0  0  0  0  0  0  0  0  0  0
  -24.5909   -8.2398   20.6131 C   0  0  0  0  0  0  0  0  0  0  0  0
  -23.4335  -38.3586   22.5555 C   0  0  0  0  0  0  0  0  0  0  0  0
  -25.1591  -36.7444   21.0848 C   0  0  0  0  0  0  0  0  0  0  0  0
  -26.7648  -30.1693   18.7382 C   0  0  0  0  0  0  0  0  0  0  0  0
  -22.4283   -9.0068   22.1998 C   0  0  0  0  0  0  0  0  0  0  0  0
  -23.4247   -7.4747   20.6196 C   0  0  0  0  0  0  0  0  0  0  0  0
  -27.7412  -29.1841   18.8789 C   0  0  0  0  0  0  0  0  0  0  0  0
  -21.9705   -5.1702   22.6184 C   0  0  0  0  0  0  0  0  0  0  0  0
  -22.1064   -3.7852   22.7118 C   0  0  0  0  0  0  0  0  0  0  0  0
  -26.7054  -28.4596   20.9336 C   0  0  0  0  0  0  0  0  0  0  0  0
  -30.4899  -22.9566   18.7633 C   0  0  0  0  0  0  0  0  0  0  0  0
  -20.9794   -3.5315   20.5899 C   0  0  0  0  0  0  0  0  0  0  0  0
  -29.3679  -23.6778   16.7941 C   0  0  0  0  0  0  0  0  0  0  0  0
  -24.6759   -9.3885   21.3999 C   0  0  0  0  0  0  0  0  0  0  0  0
  -26.9977  -10.0338   22.2369 C   0  0  0  0  0  0  0  0  0  0  0  0
  -23.7547  -37.0789   23.0350 C   0  0  0  0  0  0  0  0  0  0  0  0
  -25.7560  -30.3144   19.7014 C   0  0  0  0  0  0  0  0  0  0  0  0
  -24.6356  -36.2649   22.2975 C   0  0  0  0  0  0  0  0  0  0  0  0
  -25.7160  -29.4458   20.8015 C   0  0  0  0  0  0  0  0  0  0  0  0
  -31.1288  -21.9815   18.0054 C   0  0  0  0  0  0  0  0  0  0  0  0
  -29.5911  -23.8249   18.1537 C   0  0  0  0  0  0  0  0  0  0  0  0
  -22.3433   -7.8582   21.4129 C   0  0  0  0  0  0  0  0  0  0  0  0
  -27.7133  -28.3309   19.9782 C   0  0  0  0  0  0  0  0  0  0  0  0
  -21.3390   -5.7359   21.5108 C   0  0  0  0  0  0  0  0  0  0  0  0
  -21.6109   -2.9658   21.6976 C   0  0  0  0  0  0  0  0  0  0  0  0
  -20.8435   -4.9166   20.4965 C   0  0  0  0  0  0  0  0  0  0  0  0
  -25.8807  -10.1787   21.3924 C   0  0  0  0  0  0  0  0  0  0  0  0
  -30.8366  -21.9168   16.6526 C   0  0  0  0  0  0  0  0  0  0  0  0
  -27.8658  -11.0171   21.8297 C   0  0  0  0  0  0  0  0  0  0  0  0
  -27.2297   -9.0943   23.2948 C   0  0  0  0  0  0  0  0  0  0  0  0
  -24.8750  -32.6271   21.6961 C   0  0  0  0  0  0  0  0  0  0  0  0
  -22.4054  -30.6175   22.3166 C   0  0  0  0  0  0  0  0  0  0  0  0
  -21.1989  -27.4252   22.3216 C   0  0  0  0  0  0  0  0  0  0  0  0
  -28.4905  -16.4137   20.4959 C   0  0  0  0  0  0  0  0  0  0  0  0
  -23.1962  -36.6411   24.3658 C   0  0  0  0  0  0  0  0  0  0  0  0
  -24.6947  -31.3648   19.5212 C   0  0  0  0  0  0  0  0  0  0  0  0
  -24.6424  -29.5469   21.8530 C   0  0  0  0  0  0  0  0  0  0  0  0
  -23.3054  -35.1377   24.6073 C   0  0  0  0  0  0  0  0  0  0  0  0
  -27.7844  -14.0128   17.7587 C   0  0  0  0  0  0  0  0  0  0  0  0
  -24.7011  -34.6391   24.2464 C   0  0  0  0  0  0  0  0  0  0  0  0
  -27.2774  -12.8026   18.5444 C   0  0  0  0  0  0  0  0  0  0  0  0
  -31.0741  -18.0420   18.4501 C   0  0  0  0  0  0  0  0  0  0  0  0
  -27.4398  -15.3115   18.4760 C   0  0  0  0  0  0  0  0  0  0  0  0
  -29.9310  -17.0320   18.4669 C   0  0  0  0  0  0  0  0  0  0  0  0
  -27.4413  -14.1862   20.6693 C   0  0  0  0  0  0  0  0  0  0  0  0
  -29.6299  -18.6030   20.2615 C   0  0  0  0  0  0  0  0  0  0  0  0
  -25.0033  -34.8721   22.7612 C   0  0  1  0  0  0  0  0  0  0  0  0
  -24.0121  -31.7550   20.8286 C   0  0  1  0  0  0  0  0  0  0  0  0
  -27.7707  -12.8389   20.0024 C   0  0  1  0  0  0  0  0  0  0  0  0
  -30.4413  -19.2374   19.1468 C   0  0  1  0  0  0  0  0  0  0  0  0
  -33.2753  -21.7563   19.3225 C   0  0  0  0  0  0  0  0  0  0  0  0
  -19.1594  -26.0911   22.9200 C   0  0  0  0  0  0  0  0  0  0  0  0
  -23.1275  -30.8440   25.2725 C   0  0  0  0  0  0  0  0  0  0  0  0
  -21.7249  -28.8145   25.6990 C   0  0  0  0  0  0  0  0  0  0  0  0
  -20.6736  -30.8868   24.7918 C   0  0  0  0  0  0  0  0  0  0  0  0
  -20.8372  -26.5089   19.5308 C   0  0  0  0  0  0  0  0  0  0  0  0
  -31.1005  -20.9586   14.4921 C   0  0  0  0  0  0  0  0  0  0  0  0
  -29.1286  -25.0105   20.2998 C   0  0  0  0  0  0  0  0  0  0  0  0
  -28.2869  -26.1734   20.7980 C   0  0  0  0  0  0  0  0  0  1  0  0
  -32.1078  -21.0322   18.6569 C   0  0  1  0  0  0  0  0  0  0  0  0
  -22.1611  -29.4942   23.2951 C   0  0  1  0  0  0  0  0  0  0  0  0
  -19.8909  -26.8420   21.8182 C   0  0  2  0  0  0  0  0  0  0  0  0
  -21.9433  -30.0090   24.7460 C   0  0  0  0  0  0  0  0  0  0  0  0
  -29.9696  -22.7428   16.0251 N   0  0  0  0  0  0  0  0  0  0  0  0
  -26.0234  -11.1756   20.5151 N   0  0  0  0  0  0  0  0  0  0  0  0
  -27.2403  -11.6662   20.8061 N   0  0  0  0  0  0  0  0  0  0  0  0
  -23.6307  -30.5941   21.6355 N   0  0  0  0  0  0  0  0  0  0  0  0
  -27.9320  -15.3012   19.8564 N   0  0  0  0  0  0  0  0  0  0  0  0
  -29.2095  -17.3150   19.7121 N   0  0  0  0  0  0  0  0  0  0  0  0
  -29.0956  -11.3813   22.2509 N   0  0  0  0  0  0  0  0  0  0  0  0
  -26.2332   -8.1515   23.5816 N   0  0  0  0  0  0  0  0  0  0  0  0
  -28.9306  -24.8196   18.8930 N   0  0  0  0  0  0  0  0  0  0  0  0
  -24.3395  -33.8758   21.9480 N   0  0  0  0  0  0  0  0  0  0  0  0
  -21.0439  -28.7231   22.7606 N   0  0  0  0  0  0  0  0  0  0  0  0
  -31.4649  -20.1525   19.6778 N   0  3  0  0  0  0  0  0  0  0  0  0
  -20.1437  -25.8974   20.6936 N   0  3  0  0  0  0  0  0  0  0  0  0
  -28.2826   -9.1015   23.9767 O   0  0  0  0  0  0  0  0  0  0  0  0
  -25.9466  -32.1982   22.1078 O   0  0  0  0  0  0  0  0  0  0  0  0
  -21.5380  -31.4800   22.1571 O   0  0  0  0  0  0  0  0  0  0  0  0
  -22.2519  -26.7915   22.3284 O   0  0  0  0  0  0  0  0  0  0  0  0
  -28.3930  -16.5696   21.7203 O   0  0  0  0  0  0  0  0  0  0  0  0
  -21.2055   -7.1112   21.4192 O   0  0  0  0  0  0  0  0  0  0  0  0
  -28.6721  -27.3621   20.1193 O   0  0  0  0  0  0  0  0  0  1  0  0
  -31.4459  -20.9691   15.8718 O   0  0  0  0  0  0  0  0  0  0  0  0
  -21.7428   -1.6358   21.7866 F   0  0  0  0  0  0  0  0  0  0  0  0
  -20.2369   -5.4543   19.4295 F   0  0  0  0  0  0  0  0  0  0  0  0
  1  2  1  0  0  0  0
  1  5  2  0  0  0  0
  2  6  2  0  0  0  0
  3  8  2  0  0  0  0
  3 17  1  0  0  0  0
  4  9  1  0  0  0  0
  4 17  2  0  0  0  0
  5 19  1  0  0  0  0
  6 21  1  0  0  0  0
  7 10  2  0  0  0  0
  7 20  1  0  0  0  0
  8 25  1  0  0  0  0
  9 25  2  0  0  0  0
 10 26  1  0  0  0  0
 11 12  2  0  0  0  0
 11 27  1  0  0  0  0
 12 28  1  0  0  0  0
 13 22  1  0  0  0  0
 13 26  2  0  0  0  0
 14 23  1  0  0  0  0
 14 24  2  0  0  0  0
 15 28  2  0  0  0  0
 15 29  1  0  0  0  0
 16 24  1  0  0  0  0
 16 67  2  0  0  0  0
 17 30  1  0  0  0  0
 18 30  1  0  0  0  0
 18 32  2  0  0  0  0
 18 33  1  0  0  0  0
 19 21  2  0  0  0  0
 19 38  1  0  0  0  0
 20 22  2  0  0  0  0
 20 39  1  0  0  0  0
 21 50  1  0  0  0  0
 22 40  1  0  0  0  0
 23 31  2  0  0  0  0
 23 63  1  0  0  0  0
 24 75  1  0  0  0  0
 25 85  1  0  0  0  0
 26 86  1  0  0  0  0
 27 29  2  0  0  0  0
 27 85  1  0  0  0  0
 28 88  1  0  0  0  0
 29 89  1  0  0  0  0
 30 68  2  0  0  0  0
 31 67  1  0  0  0  0
 31 87  1  0  0  0  0
 32 69  1  0  0  0  0
 32 73  1  0  0  0  0
 33 74  1  0  0  0  0
 33 80  2  0  0  0  0
 34 51  1  0  0  0  0
 34 76  1  0  0  0  0
 34 81  2  0  0  0  0
 35 64  1  0  0  0  0
 35 70  1  0  0  0  0
 35 82  2  0  0  0  0
 36 65  1  0  0  0  0
 36 77  1  0  0  0  0
 36 83  2  0  0  0  0
 37 71  1  0  0  0  0
 37 72  1  0  0  0  0
 37 84  2  0  0  0  0
 38 41  1  0  0  0  0
 39 51  1  0  0  0  0
 40 70  1  0  0  0  0
 41 43  1  0  0  0  0
 42 44  1  0  0  0  0
 42 46  1  0  0  0  0
 43 50  1  0  0  0  0
 44 52  1  0  0  0  0
 45 47  1  0  0  0  0
 45 53  1  0  0  0  0
 46 71  1  0  0  0  0
 47 72  1  0  0  0  0
 48 52  1  0  0  0  0
 48 71  1  0  0  0  0
 49 53  1  0  0  0  0
 49 72  1  0  0  0  0
 50 76  1  0  0  0  0
 51 70  1  0  0  0  0
 52 69  1  0  0  0  0
 53 78  1  0  0  0  0
 54 63  1  0  0  0  0
 55 65  1  0  0  0  0
 56 66  1  0  0  0  0
 57 66  1  0  0  0  0
 58 66  1  0  0  0  0
 59 79  1  0  0  0  0
 60 87  1  0  0  0  0
 61 62  1  0  0  0  0
 61 75  1  0  0  0  0
 62 86  1  0  0  0  0
 63 78  1  0  0  0  0
 64 66  1  0  0  0  0
 64 77  1  0  0  0  0
 65 79  1  0  0  0  0
 68 69  1  0  0  0  0
M  CHG  2  78   1  79   1
M  ISO  4  37 100  62 101  72 100  86 101
M  END
> <Batch ID>
0153

> <Smiles>
CNC(C)C(=O)NC(C(=O)N1Cc2cc([101O:1][101CH2:1]CNc3cnc(OC)c(C(C)NC4CC[100N:0]([100C:0](=O)N5CCCC(n6nc(-c7ccc(Oc8ccc(F)cc8F)cc7)c(C(N)=O)c6N)C5)C4)c3)ccc2CC1C(=O)NC1CCCc2ccccc21)C(C)(C)C

> <Shape>
0.298

> <Color>
0.078

> <Negative vol penalty>
0.000

$$$$

  -OEChem-04052321483D

 89 98  0     1  0  0  0  0  0999 V2000
  -22.3101   -7.4195   24.4925 C   0  0  0  0  0  0  0  0  0  0  0  0
  -23.2850   -8.3483   24.8420 C   0  0  0  0  0  0  0  0  0  0  0  0
  -23.5765  -30.9775   21.0671 C   0  0  0  0  0  0  0  0  0  0  0  0
  -23.7815  -29.3840   22.8715 C   0  0  0  0  0  0  0  0  0  0  0  0
  -21.9457   -7.2624   23.1559 C   0  0  0  0  0  0  0  0  0  0  0  0
  -23.8970   -9.1200   23.8549 C   0  0  0  0  0  0  0  0  0  0  0  0
  -25.7980  -14.9192   24.3660 C   0  0  0  0  0  0  0  0  0  0  0  0
  -22.1942  -31.0080   21.2510 C   0  0  0  0  0  0  0  0  0  0  0  0
  -22.3991  -29.4145   23.0554 C   0  0  0  0  0  0  0  0  0  0  0  0
  -27.0523  -15.4771   24.6093 C   0  0  0  0  0  0  0  0  0  0  0  0
  -19.6606  -28.0799   21.5890 C   0  0  0  0  0  0  0  0  0  0  0  0
  -19.0020  -26.8617   21.7558 C   0  0  0  0  0  0  0  0  0  0  0  0
  -27.3747  -15.7718   22.2369 C   0  0  0  0  0  0  0  0  0  0  0  0
  -30.3511  -19.0561   22.4726 C   0  0  0  0  0  0  0  0  0  0  0  0
  -18.2277  -27.5779   23.9294 C   0  0  0  0  0  0  0  0  0  0  0  0
  -29.2701  -20.3857   24.1219 C   0  0  0  0  0  0  0  0  0  0  0  0
  -24.3702  -30.1654   21.8773 C   0  0  0  0  0  0  0  0  0  0  0  0
  -26.7569  -30.9571   22.3066 C   0  0  0  0  0  0  0  0  0  0  0  0
  -22.5467   -8.0393   22.1530 C   0  0  0  0  0  0  0  0  0  0  0  0
  -25.3264  -14.7731   23.0535 C   0  0  0  0  0  0  0  0  0  0  0  0
  -23.5414   -8.9722   22.5034 C   0  0  0  0  0  0  0  0  0  0  0  0
  -26.1130  -15.2141   21.9798 C   0  0  0  0  0  0  0  0  0  0  0  0
  -29.9740  -19.2369   23.7986 C   0  0  0  0  0  0  0  0  0  0  0  0
  -21.6055  -30.2266   22.2452 C   0  0  0  0  0  0  0  0  0  0  0  0
  -27.8421  -15.9009   23.5446 C   0  0  0  0  0  0  0  0  0  0  0  0
  -19.6029  -29.0471   22.5925 C   0  0  0  0  0  0  0  0  0  0  0  0
  -30.0174  -20.0161   21.5237 C   0  0  0  0  0  0  0  0  0  0  0  0
  -18.2855  -26.6107   22.9259 C   0  0  0  0  0  0  0  0  0  0  0  0
  -18.8864  -28.7961   23.7626 C   0  0  0  0  0  0  0  0  0  0  0  0
  -25.7981  -30.1330   21.6874 C   0  0  0  0  0  0  0  0  0  0  0  0
  -29.3114  -21.1299   21.9487 C   0  0  0  0  0  0  0  0  0  0  0  0
  -27.9581  -30.5308   21.7947 C   0  0  0  0  0  0  0  0  0  0  0  0
  -26.5779  -32.0135   23.2593 C   0  0  0  0  0  0  0  0  0  0  0  0
  -24.4996  -12.3053   21.2287 C   0  0  0  0  0  0  0  0  0  0  0  0
  -23.5885  -14.6365   19.1652 C   0  0  0  0  0  0  0  0  0  0  0  0
  -23.9276  -17.8630   18.1062 C   0  0  0  0  0  0  0  0  0  0  0  0
  -29.8529  -25.4379   19.5257 C   0  0  0  0  0  0  0  0  0  0  0  0
  -22.1538   -7.8006   20.7166 C   0  0  0  0  0  0  0  0  0  0  0  0
  -23.9600  -14.1938   22.8093 C   0  0  0  0  0  0  0  0  0  0  0  0
  -25.6442  -15.0981   20.5531 C   0  0  0  0  0  0  0  0  0  0  0  0
  -22.5827   -8.9216   19.7734 C   0  0  0  0  0  0  0  0  0  0  0  0
  -29.8919  -28.5161   17.9261 C   0  0  0  0  0  0  0  0  0  0  0  0
  -24.0329   -9.3149   20.0363 C   0  0  0  0  0  0  0  0  0  0  0  0
  -28.9295  -29.3685   18.7505 C   0  0  0  0  0  0  0  0  0  0  0  0
  -29.3560  -27.0995   17.7646 C   0  0  0  0  0  0  0  0  0  0  0  0
  -29.9696  -23.3082   20.8003 C   0  0  0  0  0  0  0  0  0  0  0  0
  -27.7831  -24.2425   20.4351 C   0  0  0  0  0  0  0  0  0  0  0  0
  -28.1423  -27.2468   19.9214 C   0  0  0  0  0  0  0  0  0  0  0  0
  -24.2104   -9.8453   21.4641 C   0  0  1  0  0  0  0  0  0  0  0  0
  -28.9219  -22.2011   20.9585 C   0  0  2  0  0  0  0  0  0  0  0  0
  -23.7960  -13.6213   21.4048 C   0  0  1  0  0  0  0  0  0  0  0  0
  -27.6497  -22.9941   21.3110 C   0  0  2  0  0  0  0  0  0  0  0  0
  -28.6293  -28.6996   20.1021 C   0  0  2  0  0  0  0  0  0  0  0  0
  -29.7208  -19.0125   18.0817 C   0  0  0  0  0  0  0  0  0  0  0  0
  -23.4435  -19.9455   16.7923 C   0  0  0  0  0  0  0  0  0  0  0  0
  -25.1314  -23.0916   21.2749 C   0  0  0  0  0  0  0  0  0  0  0  0
  -25.3203  -13.2725   17.0556 C   0  0  0  0  0  0  0  0  0  0  0  0
  -25.1994  -15.3731   15.6986 C   0  0  0  0  0  0  0  0  0  0  0  0
  -23.1156  -14.1036   16.2172 C   0  0  0  0  0  0  0  0  0  0  0  0
  -21.9245  -18.7827   20.0812 C   0  0  0  0  0  0  0  0  0  0  0  0
  -30.3163  -18.2299   24.8383 C   0  0  0  0  0  0  0  0  0  0  0  0
  -29.8874  -18.6928   19.5519 C   0  0  0  0  0  0  0  0  0  0  0  0
  -29.2412  -17.1497   25.0071 C   0  0  0  0  0  0  0  0  0  1  0  0
  -24.2636  -15.4056   18.0554 C   0  0  1  0  0  0  0  0  0  0  0  0
  -22.8980  -18.9315   17.7858 C   0  0  2  0  0  0  0  0  0  0  0  0
  -26.3622  -22.2282   21.0445 C   0  0  1  0  0  0  0  0  0  0  0  0
  -24.4846  -14.5393   16.7834 C   0  0  0  0  0  0  0  0  0  0  0  0
  -28.9278  -21.3403   23.2279 N   0  0  0  0  0  0  0  0  0  0  0  0
  -26.3431  -29.2501   20.8464 N   0  0  0  0  0  0  0  0  0  0  0  0
  -27.6573  -29.5169   20.9334 N   0  0  0  0  0  0  0  0  0  0  0  0
  -24.3036  -14.5193   20.3655 N   0  0  0  0  0  0  0  0  0  0  0  0
  -29.0549  -26.4875   19.0580 N   0  0  0  0  0  0  0  0  0  0  0  0
  -29.2268  -24.4656   20.3086 N   0  0  0  0  0  0  0  0  0  0  0  0
  -29.2315  -30.9280   22.0019 N   0  0  0  0  0  0  0  0  0  0  0  0
  -25.2765  -32.3218   23.6784 N   0  0  0  0  0  0  0  0  0  0  0  0
  -23.7298  -11.2069   21.5609 N   0  0  0  0  0  0  0  0  0  0  0  0
  -23.4526  -16.5977   17.8329 N   0  0  0  0  0  0  0  0  0  0  0  0
  -22.4999  -19.6558   19.0259 N   0  3  0  0  0  0  0  0  0  0  0  0
  -27.5419  -32.6757   23.7128 O   0  0  0  0  0  0  0  0  0  0  0  0
  -25.6547  -12.2877   20.8201 O   0  0  0  0  0  0  0  0  0  0  0  0
  -22.4650  -14.1636   18.9766 O   0  0  0  0  0  0  0  0  0  0  0  0
  -25.0431  -18.1249   18.5506 O   0  0  0  0  0  0  0  0  0  0  0  0
  -31.0496  -25.3549   19.2226 O   0  0  0  0  0  0  0  0  0  0  0  0
  -26.3638  -21.7632   19.6983 O   0  0  0  0  0  0  0  0  0  0  0  0
  -20.2567  -30.2563   22.4251 O   0  0  0  0  0  0  0  0  0  0  0  0
  -29.0756  -16.4491   23.7809 O   0  0  0  0  0  0  0  0  0  1  0  0
  -30.3821  -19.8506   20.2267 O   0  0  0  0  0  0  0  0  0  0  0  0
  -17.6518  -25.4414   23.0853 F   0  0  0  0  0  0  0  0  0  0  0  0
  -18.8263  -29.7218   24.7297 F   0  0  0  0  0  0  0  0  0  0  0  0
  1  2  1  0  0  0  0
  1  5  2  0  0  0  0
  2  6  2  0  0  0  0
  3  8  2  0  0  0  0
  3 17  1  0  0  0  0
  4  9  1  0  0  0  0
  4 17  2  0  0  0  0
  5 19  1  0  0  0  0
  6 21  1  0  0  0  0
  7 10  2  0  0  0  0
  7 20  1  0  0  0  0
  8 24  1  0  0  0  0
  9 24  2  0  0  0  0
 10 25  1  0  0  0  0
 11 12  2  0  0  0  0
 11 26  1  0  0  0  0
 12 28  1  0  0  0  0
 13 22  1  0  0  0  0
 13 25  2  0  0  0  0
 14 23  2  0  0  0  0
 14 27  1  0  0  0  0
 15 28  2  0  0  0  0
 15 29  1  0  0  0  0
 16 23  1  0  0  0  0
 16 68  2  0  0  0  0
 17 30  1  0  0  0  0
 18 30  1  0  0  0  0
 18 32  2  0  0  0  0
 18 33  1  0  0  0  0
 19 21  2  0  0  0  0
 19 38  1  0  0  0  0
 20 22  2  0  0  0  0
 20 39  1  0  0  0  0
 21 49  1  0  0  0  0
 22 40  1  0  0  0  0
 23 61  1  0  0  0  0
 24 85  1  0  0  0  0
 25 86  1  0  0  0  0
 26 29  2  0  0  0  0
 26 85  1  0  0  0  0
 27 31  2  0  0  0  0
 27 87  1  0  0  0  0
 28 88  1  0  0  0  0
 29 89  1  0  0  0  0
 30 69  2  0  0  0  0
 31 50  1  0  0  0  0
 31 68  1  0  0  0  0
 32 70  1  0  0  0  0
 32 74  1  0  0  0  0
 33 75  1  0  0  0  0
 33 79  2  0  0  0  0
 34 51  1  0  0  0  0
 34 76  1  0  0  0  0
 34 80  2  0  0  0  0
 35 64  1  0  0  0  0
 35 71  1  0  0  0  0
 35 81  2  0  0  0  0
 36 65  1  0  0  0  0
 36 77  1  0  0  0  0
 36 82  2  0  0  0  0
 37 72  1  0  0  0  0
 37 73  1  0  0  0  0
 37 83  2  0  0  0  0
 38 41  1  0  0  0  0
 39 51  1  0  0  0  0
 40 71  1  0  0  0  0
 41 43  1  0  0  0  0
 42 44  1  0  0  0  0
 42 45  1  0  0  0  0
 43 49  1  0  0  0  0
 44 53  1  0  0  0  0
 45 72  1  0  0  0  0
 46 50  1  0  0  0  0
 46 73  1  0  0  0  0
 47 52  1  0  0  0  0
 47 73  1  0  0  0  0
 48 53  1  0  0  0  0
 48 72  1  0  0  0  0
 49 76  1  0  0  0  0
 50 52  1  0  0  0  0
 51 71  1  0  0  0  0
 52 66  1  0  0  0  0
 53 70  1  0  0  0  0
 54 62  1  0  0  0  0
 55 65  1  0  0  0  0
 56 66  1  0  0  0  0
 57 67  1  0  0  0  0
 58 67  1  0  0  0  0
 59 67  1  0  0  0  0
 60 78  1  0  0  0  0
 61 63  1  0  0  0  0
 62 87  1  0  0  0  0
 63 86  1  0  0  0  0
 64 67  1  0  0  0  0
 64 77  1  0  0  0  0
 65 78  1  0  0  0  0
 66 84  1  0  0  0  0
 69 70  1  0  0  0  0
M  CHG  1  78   1
M  ISO  4  37 100  63 101  73 100  86 101
M  END
> <Batch ID>
0153

> <Smiles>
CCOc1cc(C[101CH2:1][101O:1]c2ccc3c(c2)CN(C(=O)C(NC(=O)C(C)NC)C(C)(C)C)C(C(=O)NC2CCCc4ccccc42)C3)cnc1C1C[100N:0]([100C:0](=O)N2CCCC(n3nc(-c4ccc(Oc5ccc(F)cc5F)cc4)c(C(N)=O)c3N)C2)CC1C(C)O

> <Shape>
0.277

> <Color>
0.065

> <Negative vol penalty>
0.000

$$$$

  -OEChem-04052321483D

 90100  0     1  0  0  0  0  0999 V2000
  -28.1925  -35.8722   24.9606 C   0  0  0  0  0  0  0  0  0  0  0  0
  -28.4762  -34.7604   25.7473 C   0  0  0  0  0  0  0  0  0  0  0  0
  -22.9914   -9.8898   19.9968 C   0  0  0  0  0  0  0  0  0  0  0  0
  -23.7507   -9.9468   22.2896 C   0  0  0  0  0  0  0  0  0  0  0  0
  -27.3605  -35.7443   23.8491 C   0  0  0  0  0  0  0  0  0  0  0  0
  -27.9272  -33.5202   25.4235 C   0  0  0  0  0  0  0  0  0  0  0  0
  -30.5448  -28.0319   26.1532 C   0  0  0  0  0  0  0  0  0  0  0  0
  -22.2307   -8.7546   20.2768 C   0  0  0  0  0  0  0  0  0  0  0  0
  -22.9900   -8.8116   22.5697 C   0  0  0  0  0  0  0  0  0  0  0  0
  -30.4194  -27.0569   27.1418 C   0  0  0  0  0  0  0  0  0  0  0  0
  -23.2327   -5.4721   22.1012 C   0  0  0  0  0  0  0  0  0  0  0  0
  -23.8330   -4.4574   22.8466 C   0  0  0  0  0  0  0  0  0  0  0  0
  -31.6928  -18.0277   25.0793 C   0  0  0  0  0  0  0  0  0  0  0  0
  -30.2890  -19.7661   24.1606 C   0  0  0  0  0  0  0  0  0  0  0  0
  -28.7944  -25.8994   25.7859 C   0  0  0  0  0  0  0  0  0  0  0  0
  -22.1339   -4.7012   24.5468 C   0  0  0  0  0  0  0  0  0  0  0  0
  -23.7514  -10.4858   21.0031 C   0  0  0  0  0  0  0  0  0  0  0  0
  -24.1300  -13.0016   20.8161 C   0  0  0  0  0  0  0  0  0  0  0  0
  -26.8087  -34.4999   23.5060 C   0  0  0  0  0  0  0  0  0  0  0  0
  -29.7865  -27.9537   24.9762 C   0  0  0  0  0  0  0  0  0  0  0  0
  -27.0860  -33.3758   24.3072 C   0  0  0  0  0  0  0  0  0  0  0  0
  -31.0505  -19.2585   25.2133 C   0  0  0  0  0  0  0  0  0  0  0  0
  -28.9138  -26.8733   24.7827 C   0  0  0  0  0  0  0  0  0  0  0  0
  -30.8124  -17.8120   22.8398 C   0  0  0  0  0  0  0  0  0  0  0  0
  -31.5739  -17.3044   23.8925 C   0  0  0  0  0  0  0  0  0  0  0  0
  -22.2300   -8.2156   21.5633 C   0  0  0  0  0  0  0  0  0  0  0  0
  -29.5420  -25.9920   26.9595 C   0  0  0  0  0  0  0  0  0  0  0  0
  -22.0830   -6.1014   22.5787 C   0  0  0  0  0  0  0  0  0  0  0  0
  -30.1700  -19.0428   22.9738 C   0  0  0  0  0  0  0  0  0  0  0  0
  -23.2836   -4.0719   24.0694 C   0  0  0  0  0  0  0  0  0  0  0  0
  -21.5336   -5.7159   23.8014 C   0  0  0  0  0  0  0  0  0  0  0  0
  -24.5378  -11.6581   20.7143 C   0  0  0  0  0  0  0  0  0  0  0  0
  -25.2330  -13.7252   20.4337 C   0  0  0  0  0  0  0  0  0  0  0  0
  -22.8671  -13.5469   21.2204 C   0  0  0  0  0  0  0  0  0  0  0  0
  -30.7531  -14.6011   20.7113 C   0  0  0  0  0  0  0  0  0  0  0  0
  -27.5751  -29.7809   23.6070 C   0  0  0  0  0  0  0  0  0  0  0  0
  -27.8646  -27.6415   21.1859 C   0  0  0  0  0  0  0  0  0  0  0  0
  -28.7390  -24.4977   20.1867 C   0  0  0  0  0  0  0  0  0  0  0  0
  -25.8770  -34.4203   22.3227 C   0  0  0  0  0  0  0  0  0  0  0  0
  -29.9530  -28.9992   23.9077 C   0  0  0  0  0  0  0  0  0  0  0  0
  -28.0921  -26.7324   23.5283 C   0  0  0  0  0  0  0  0  0  0  0  0
  -25.6366  -32.9952   21.8314 C   0  0  0  0  0  0  0  0  0  0  0  0
  -29.5545  -12.2617   18.2673 C   0  0  0  0  0  0  0  0  0  0  0  0
  -25.3414  -32.0682   23.0063 C   0  0  0  0  0  0  0  0  0  0  0  0
  -28.1199  -11.9818   18.7134 C   0  0  0  0  0  0  0  0  0  0  0  0
  -31.8423  -21.3935   26.2143 C   0  0  0  0  0  0  0  0  0  0  0  0
  -29.7968  -20.2265   27.1312 C   0  0  0  0  0  0  0  0  0  0  0  0
  -29.3096  -16.7195   21.0446 C   0  0  0  0  0  0  0  0  0  0  0  0
  -30.4776  -12.4823   19.4616 C   0  0  0  0  0  0  0  0  0  0  0  0
  -28.5823  -13.2816   20.8400 C   0  0  0  0  0  0  0  0  0  0  0  0
  -31.9120  -22.2426   27.4771 C   0  0  0  0  0  0  0  0  0  0  0  0
  -29.8824  -21.0843   28.3872 C   0  0  0  0  0  0  0  0  0  0  0  0
  -31.1781  -20.0338   26.4848 C   0  0  0  0  0  0  0  0  0  0  0  0
  -30.6826  -17.0403   21.5655 C   0  0  2  0  0  0  0  0  0  0  0  0
  -26.5294  -32.0085   23.9741 C   0  0  1  0  0  0  0  0  0  0  0  0
  -30.1579  -15.6249   21.6232 C   0  0  2  0  0  0  0  0  0  0  0  0
  -28.7515  -29.0944   22.9725 C   0  0  1  0  0  0  0  0  0  0  0  0
  -27.6119  -13.0816   19.6626 C   0  0  2  0  0  0  0  0  0  0  0  0
  -32.2719  -15.9885   23.7763 C   0  0  0  0  0  0  0  0  0  0  0  0
  -28.8297  -23.0310   18.1524 C   0  0  0  0  0  0  0  0  0  0  0  0
  -24.8412  -27.2568   21.3313 C   0  0  0  0  0  0  0  0  0  0  0  0
  -25.1140  -25.1579   19.9940 C   0  0  0  0  0  0  0  0  0  0  0  0
  -25.7699  -27.3549   19.0113 C   0  0  0  0  0  0  0  0  0  0  0  0
  -31.6734  -24.1799   20.4041 C   0  0  0  0  0  0  0  0  0  0  0  0
  -28.8013  -20.8199   22.1836 C   0  0  0  0  0  0  0  0  0  0  0  0
  -30.5182  -23.3442   29.2260 C   0  0  0  0  0  0  0  0  0  0  0  0
  -30.5658  -24.7752   28.7279 C   0  0  0  0  0  0  0  0  0  1  0  0
  -27.1997  -26.3339   20.8294 C   0  0  1  0  0  0  0  0  0  0  0  0
  -29.5938  -24.0092   19.0312 C   0  0  2  0  0  0  0  0  0  0  0  0
  -25.7451  -26.5293   20.3161 C   0  0  0  0  0  0  0  0  0  0  0  0
  -25.8013  -11.5328   20.2995 N   0  0  0  0  0  0  0  0  0  0  0  0
  -26.1968  -12.8069   20.1373 N   0  0  0  0  0  0  0  0  0  0  0  0
  -29.9484  -13.5145   20.3534 N   0  0  0  0  0  0  0  0  0  0  0  0
  -28.2855  -27.7835   22.5157 N   0  0  0  0  0  0  0  0  0  0  0  0
  -25.4628  -15.0511   20.3254 N   0  0  0  0  0  0  0  0  0  0  0  0
  -21.8419  -12.6618   21.5811 N   0  0  0  0  0  0  0  0  0  0  0  0
  -27.5699  -31.1531   23.4449 N   0  0  0  0  0  0  0  0  0  0  0  0
  -28.0853  -25.6717   19.8778 N   0  0  0  0  0  0  0  0  0  0  0  0
  -30.5243  -22.4204   28.0637 N   0  3  0  0  0  0  0  0  0  0  0  0
  -30.8152  -23.3259   19.5431 N   0  3  0  0  0  0  0  0  0  0  0  0
  -22.6487  -14.7819   21.2448 O   0  0  0  0  0  0  0  0  0  0  0  0
  -31.9078  -14.7733   20.3298 O   0  0  0  0  0  0  0  0  0  0  0  0
  -26.7336  -29.1147   24.1984 O   0  0  0  0  0  0  0  0  0  0  0  0
  -28.0117  -28.5024   20.3147 O   0  0  0  0  0  0  0  0  0  0  0  0
  -28.6563  -23.8958   21.2551 O   0  0  0  0  0  0  0  0  0  0  0  0
  -21.4877   -7.1081   21.8371 O   0  0  0  0  0  0  0  0  0  0  0  0
  -29.4213  -19.5558   21.9573 O   0  0  0  0  0  0  0  0  0  0  0  0
  -29.4173  -25.0393   27.9232 O   0  0  0  0  0  0  0  0  0  1  0  0
  -23.8593   -3.0964   24.7844 F   0  0  0  0  0  0  0  0  0  0  0  0
  -20.4285   -6.3159   24.2647 F   0  0  0  0  0  0  0  0  0  0  0  0
  1  2  1  0  0  0  0
  1  5  2  0  0  0  0
  2  6  2  0  0  0  0
  3  8  2  0  0  0  0
  3 17  1  0  0  0  0
  4  9  1  0  0  0  0
  4 17  2  0  0  0  0
  5 19  1  0  0  0  0
  6 21  1  0  0  0  0
  7 10  2  0  0  0  0
  7 20  1  0  0  0  0
  8 26  1  0  0  0  0
  9 26  2  0  0  0  0
 10 27  1  0  0  0  0
 11 12  2  0  0  0  0
 11 28  1  0  0  0  0
 12 30  1  0  0  0  0
 13 22  1  0  0  0  0
 13 25  2  0  0  0  0
 14 22  2  0  0  0  0
 14 29  1  0  0  0  0
 15 23  1  0  0  0  0
 15 27  2  0  0  0  0
 16 30  2  0  0  0  0
 16 31  1  0  0  0  0
 17 32  1  0  0  0  0
 18 32  1  0  0  0  0
 18 33  2  0  0  0  0
 18 34  1  0  0  0  0
 19 21  2  0  0  0  0
 19 39  1  0  0  0  0
 20 23  2  0  0  0  0
 20 40  1  0  0  0  0
 21 55  1  0  0  0  0
 22 53  1  0  0  0  0
 23 41  1  0  0  0  0
 24 25  1  0  0  0  0
 24 29  2  0  0  0  0
 24 54  1  0  0  0  0
 25 59  1  0  0  0  0
 26 86  1  0  0  0  0
 27 88  1  0  0  0  0
 28 31  2  0  0  0  0
 28 86  1  0  0  0  0
 29 87  1  0  0  0  0
 30 89  1  0  0  0  0
 31 90  1  0  0  0  0
 32 71  2  0  0  0  0
 33 72  1  0  0  0  0
 33 75  1  0  0  0  0
 34 76  1  0  0  0  0
 34 81  2  0  0  0  0
 35 56  1  0  0  0  0
 35 73  1  0  0  0  0
 35 82  2  0  0  0  0
 36 57  1  0  0  0  0
 36 77  1  0  0  0  0
 36 83  2  0  0  0  0
 37 68  1  0  0  0  0
 37 74  1  0  0  0  0
 37 84  2  0  0  0  0
 38 69  1  0  0  0  0
 38 78  1  0  0  0  0
 38 85  2  0  0  0  0
 39 42  1  0  0  0  0
 40 57  1  0  0  0  0
 41 74  1  0  0  0  0
 42 44  1  0  0  0  0
 43 45  1  0  0  0  0
 43 49  1  0  0  0  0
 44 55  1  0  0  0  0
 45 58  1  0  0  0  0
 46 51  1  0  0  0  0
 46 53  1  0  0  0  0
 47 52  1  0  0  0  0
 47 53  1  0  0  0  0
 48 54  1  0  0  0  0
 48 56  1  0  0  0  0
 49 73  1  0  0  0  0
 50 58  1  0  0  0  0
 50 73  1  0  0  0  0
 51 79  1  0  0  0  0
 52 79  1  0  0  0  0
 54 56  1  0  0  0  0
 55 77  1  0  0  0  0
 57 74  1  0  0  0  0
 58 72  1  0  0  0  0
 60 69  1  0  0  0  0
 61 70  1  0  0  0  0
 62 70  1  0  0  0  0
 63 70  1  0  0  0  0
 64 80  1  0  0  0  0
 65 87  1  0  0  0  0
 66 67  1  0  0  0  0
 66 79  1  0  0  0  0
 67 88  1  0  0  0  0
 68 70  1  0  0  0  0
 68 78  1  0  0  0  0
 69 80  1  0  0  0  0
 71 72  1  0  0  0  0
M  CHG  2  79   1  80   1
M  ISO  4  35 100  56 100  67 101  88 101
M  END
> <Batch ID>
0153

> <Smiles>
CNC(C)C(=O)NC(C(=O)N1Cc2cc([101O:1][101CH2:1]CN3CCC(c4cc(C)c(C5C[100CH:0]5[100C:0](=O)N5CCCC(n6nc(-c7ccc(Oc8ccc(F)cc8F)cc7)c(C(N)=O)c6N)C5)c(OC)c4)CC3)ccc2CC1C(=O)NC1CCCc2ccccc21)C(C)(C)C

> <Shape>
0.317

> <Color>
0.192

> <Negative vol penalty>
0.000

$$$$

  -OEChem-04052321483D

 86 95  0     1  0  0  0  0  0999 V2000
  -28.8676  -23.4756   12.1664 C   0  0  0  0  0  0  0  0  0  0  0  0
  -27.9747  -24.4302   12.6426 C   0  0  0  0  0  0  0  0  0  0  0  0
  -25.9599  -15.7087   22.1829 C   0  0  0  0  0  0  0  0  0  0  0  0
  -25.0833  -16.8533   20.2442 C   0  0  0  0  0  0  0  0  0  0  0  0
  -29.4239  -22.5446   13.0427 C   0  0  0  0  0  0  0  0  0  0  0  0
  -27.6366  -24.4537   13.9953 C   0  0  0  0  0  0  0  0  0  0  0  0
  -17.9272  -26.6001   23.0235 C   0  0  0  0  0  0  0  0  0  0  0  0
  -25.8800  -29.0147   19.2324 C   0  0  0  0  0  0  0  0  0  0  0  0
  -17.2844  -27.8380   23.0285 C   0  0  0  0  0  0  0  0  0  0  0  0
  -26.3392  -14.6349   21.3775 C   0  0  0  0  0  0  0  0  0  0  0  0
  -25.4627  -15.7795   19.4388 C   0  0  0  0  0  0  0  0  0  0  0  0
  -24.8953  -29.2181   20.1983 C   0  0  0  0  0  0  0  0  0  0  0  0
  -28.8525  -13.8887   19.2423 C   0  0  0  0  0  0  0  0  0  0  0  0
  -30.1248  -13.3508   19.4359 C   0  0  0  0  0  0  0  0  0  0  0  0
  -25.9794  -27.6104   21.6333 C   0  0  0  0  0  0  0  0  0  0  0  0
  -29.1388  -11.2108   19.9700 C   0  0  0  0  0  0  0  0  0  0  0  0
  -25.3319  -16.8179   21.6163 C   0  0  0  0  0  0  0  0  0  0  0  0
  -25.7077  -19.0618   22.7701 C   0  0  0  0  0  0  0  0  0  0  0  0
  -29.0998  -22.5627   14.4084 C   0  0  0  0  0  0  0  0  0  0  0  0
  -26.9174  -28.0980   19.4557 C   0  0  0  0  0  0  0  0  0  0  0  0
  -28.1880  -23.5212   14.8903 C   0  0  0  0  0  0  0  0  0  0  0  0
  -19.3063  -26.5312   22.8260 C   0  0  0  0  0  0  0  0  0  0  0  0
  -26.9774  -27.3991   20.6698 C   0  0  0  0  0  0  0  0  0  0  0  0
  -18.0207  -29.0070   22.8358 C   0  0  0  0  0  0  0  0  0  0  0  0
  -19.3998  -28.9380   22.6382 C   0  0  0  0  0  0  0  0  0  0  0  0
  -26.0906  -14.6704   20.0055 C   0  0  0  0  0  0  0  0  0  0  0  0
  -24.9433  -28.5138   21.3977 C   0  0  0  0  0  0  0  0  0  0  0  0
  -27.7233  -13.0876   19.4125 C   0  0  0  0  0  0  0  0  0  0  0  0
  -20.0426  -27.7001   22.6333 C   0  0  0  0  0  0  0  0  0  0  0  0
  -30.2680  -12.0119   19.7997 C   0  0  0  0  0  0  0  0  0  0  0  0
  -27.8665  -11.7487   19.7764 C   0  0  0  0  0  0  0  0  0  0  0  0
  -24.9393  -17.9272   22.4479 C   0  0  0  0  0  0  0  0  0  0  0  0
  -24.8905  -19.8110   23.5809 C   0  0  0  0  0  0  0  0  0  0  0  0
  -27.0410  -19.4077   22.3720 C   0  0  0  0  0  0  0  0  0  0  0  0
  -27.8844  -25.4178   18.0469 C   0  0  0  0  0  0  0  0  0  0  0  0
  -30.3444  -25.6617   20.1472 C   0  0  0  0  0  0  0  0  0  0  0  0
  -31.5092  -26.8754   23.1166 C   0  0  0  0  0  0  0  0  0  0  0  0
  -19.8834  -21.9836   24.7238 C   0  0  0  0  0  0  0  0  0  0  0  0
  -29.6901  -21.5063   15.3086 C   0  0  0  0  0  0  0  0  0  0  0  0
  -27.9868  -27.9098   18.4148 C   0  0  0  0  0  0  0  0  0  0  0  0
  -28.0815  -26.4187   20.9668 C   0  0  0  0  0  0  0  0  0  0  0  0
  -29.5683  -21.8348   16.7944 C   0  0  0  0  0  0  0  0  0  0  0  0
  -20.5169  -18.6845   25.8181 C   0  0  0  0  0  0  0  0  0  0  0  0
  -28.1566  -22.3109   17.1219 C   0  0  0  0  0  0  0  0  0  0  0  0
  -21.7650  -18.2652   25.0463 C   0  0  0  0  0  0  0  0  0  0  0  0
  -19.4846  -24.1538   21.7937 C   0  0  0  0  0  0  0  0  0  0  0  0
  -19.6051  -19.5398   24.9486 C   0  0  0  0  0  0  0  0  0  0  0  0
  -20.0509  -22.8397   22.3147 C   0  0  0  0  0  0  0  0  0  0  0  0
  -19.8314  -24.3873   24.1311 C   0  0  0  0  0  0  0  0  0  0  0  0
  -21.5409  -20.3837   23.6484 C   0  0  0  0  0  0  0  0  0  0  0  0
  -19.9843  -25.1789   22.8246 C   0  0  2  0  0  0  0  0  0  0  0  0
  -27.8155  -23.5944   16.3553 C   0  0  1  0  0  0  0  0  0  0  0  0
  -28.7111  -26.5727   18.5373 C   0  0  1  0  0  0  0  0  0  0  0  0
  -22.4900  -19.4954   24.4791 C   0  0  2  0  0  0  0  0  0  0  0  0
  -17.3092  -30.3203   22.8434 C   0  0  0  0  0  0  0  0  0  0  0  0
  -20.1926  -30.1894   22.4323 C   0  0  0  0  0  0  0  0  0  0  0  0
  -33.5473  -26.8767   24.5806 C   0  0  0  0  0  0  0  0  0  0  0  0
  -29.7093  -22.8108   21.0297 C   0  0  0  0  0  0  0  0  0  0  0  0
  -31.0971  -23.2091   23.0751 C   0  0  0  0  0  0  0  0  0  0  0  0
  -32.1490  -23.3176   20.8158 C   0  0  0  0  0  0  0  0  0  0  0  0
  -31.7797  -29.8170   22.9355 C   0  0  0  0  0  0  0  0  0  0  0  0
  -23.6686  -27.6051   23.1881 C   0  0  0  0  0  0  0  0  0  1  0  0
  -22.2131  -27.6900   23.6052 C   0  0  0  0  0  0  0  0  0  0  0  0
  -30.6018  -25.1762   21.5533 C   0  0  1  0  0  0  0  0  0  0  0  0
  -32.7947  -27.5993   23.4741 C   0  0  2  0  0  0  0  0  0  0  0  0
  -30.8673  -23.6454   21.6124 C   0  0  0  0  0  0  0  0  0  0  0  0
  -23.7271  -17.9492   23.0084 N   0  0  0  0  0  0  0  0  0  0  0  0
  -23.7277  -19.1069   23.6910 N   0  0  0  0  0  0  0  0  0  0  0  0
  -29.1001  -26.2647   19.9150 N   0  0  0  0  0  0  0  0  0  0  0  0
  -20.3119  -20.6940   24.3902 N   0  0  0  0  0  0  0  0  0  0  0  0
  -20.0333  -22.9881   23.7685 N   0  0  0  0  0  0  0  0  0  0  0  0
  -25.0604  -20.9969   24.2033 N   0  0  0  0  0  0  0  0  0  0  0  0
  -27.7389  -18.5251   21.5364 N   0  0  0  0  0  0  0  0  0  0  0  0
  -28.4430  -24.7387   16.9809 N   0  0  0  0  0  0  0  0  0  0  0  0
  -31.6933  -25.9925   22.0736 N   0  0  0  0  0  0  0  0  0  0  0  0
  -32.4979  -28.9851   23.9350 N   0  3  0  0  0  0  0  0  0  0  0  0
  -27.6030  -20.4601   22.7596 O   0  0  0  0  0  0  0  0  0  0  0  0
  -26.8195  -25.1608   18.5960 O   0  0  0  0  0  0  0  0  0  0  0  0
  -31.2181  -25.5179   19.2883 O   0  0  0  0  0  0  0  0  0  0  0  0
  -30.4486  -27.0708   23.7062 O   0  0  0  0  0  0  0  0  0  0  0  0
  -19.3499  -22.2213   25.8159 O   0  0  0  0  0  0  0  0  0  0  0  0
  -26.4609  -13.6229   19.2192 O   0  0  0  0  0  0  0  0  0  0  0  0
  -23.9765  -28.7112   22.3483 O   0  0  0  0  0  0  0  0  0  1  0  0
  -21.3913  -27.6311   22.4419 O   0  0  0  0  0  0  0  0  0  0  0  0
  -31.4899  -11.4951   19.9841 F   0  0  0  0  0  0  0  0  0  0  0  0
  -26.7855  -10.9738   19.9402 F   0  0  0  0  0  0  0  0  0  0  0  0
  1  2  1  0  0  0  0
  1  5  2  0  0  0  0
  2  6  2  0  0  0  0
  3 10  2  0  0  0  0
  3 17  1  0  0  0  0
  4 11  1  0  0  0  0
  4 17  2  0  0  0  0
  5 19  1  0  0  0  0
  6 21  1  0  0  0  0
  7  9  1  0  0  0  0
  7 22  2  0  0  0  0
  8 12  2  0  0  0  0
  8 20  1  0  0  0  0
  9 24  2  0  0  0  0
 10 26  1  0  0  0  0
 11 26  2  0  0  0  0
 12 27  1  0  0  0  0
 13 14  2  0  0  0  0
 13 28  1  0  0  0  0
 14 30  1  0  0  0  0
 15 23  1  0  0  0  0
 15 27  2  0  0  0  0
 16 30  2  0  0  0  0
 16 31  1  0  0  0  0
 17 32  1  0  0  0  0
 18 32  1  0  0  0  0
 18 33  2  0  0  0  0
 18 34  1  0  0  0  0
 19 21  2  0  0  0  0
 19 39  1  0  0  0  0
 20 23  2  0  0  0  0
 20 40  1  0  0  0  0
 21 52  1  0  0  0  0
 22 29  1  0  0  0  0
 22 51  1  0  0  0  0
 23 41  1  0  0  0  0
 24 25  1  0  0  0  0
 24 55  1  0  0  0  0
 25 29  2  0  0  0  0
 25 56  1  0  0  0  0
 26 82  1  0  0  0  0
 27 83  1  0  0  0  0
 28 31  2  0  0  0  0
 28 82  1  0  0  0  0
 29 84  1  0  0  0  0
 30 85  1  0  0  0  0
 31 86  1  0  0  0  0
 32 67  2  0  0  0  0
 33 68  1  0  0  0  0
 33 72  1  0  0  0  0
 34 73  1  0  0  0  0
 34 77  2  0  0  0  0
 35 53  1  0  0  0  0
 35 74  1  0  0  0  0
 35 78  2  0  0  0  0
 36 64  1  0  0  0  0
 36 69  1  0  0  0  0
 36 79  2  0  0  0  0
 37 65  1  0  0  0  0
 37 75  1  0  0  0  0
 37 80  2  0  0  0  0
 38 70  1  0  0  0  0
 38 71  1  0  0  0  0
 38 81  2  0  0  0  0
 39 42  1  0  0  0  0
 40 53  1  0  0  0  0
 41 69  1  0  0  0  0
 42 44  1  0  0  0  0
 43 45  1  0  0  0  0
 43 47  1  0  0  0  0
 44 52  1  0  0  0  0
 45 54  1  0  0  0  0
 46 48  1  0  0  0  0
 46 51  1  0  0  0  0
 47 70  1  0  0  0  0
 48 71  1  0  0  0  0
 49 51  1  0  0  0  0
 49 71  1  0  0  0  0
 50 54  1  0  0  0  0
 50 70  1  0  0  0  0
 52 74  1  0  0  0  0
 53 69  1  0  0  0  0
 54 68  1  0  0  0  0
 57 65  1  0  0  0  0
 58 66  1  0  0  0  0
 59 66  1  0  0  0  0
 60 66  1  0  0  0  0
 61 76  1  0  0  0  0
 62 63  1  0  0  0  0
 62 83  1  0  0  0  0
 63 84  1  0  0  0  0
 64 66  1  0  0  0  0
 64 75  1  0  0  0  0
 65 76  1  0  0  0  0
 67 68  1  0  0  0  0
M  CHG  1  76   1
M  ISO  4  38 100  62 101  71 100  83 101
M  END
> <Batch ID>
0153

> <Smiles>
CNC(C)C(=O)NC(C(=O)N1Cc2cc([101O:1][101CH2:1]COc3c(C4CC[100N:0]([100C:0](=O)N5CCCC(n6nc(-c7ccc(Oc8ccc(F)cc8F)cc7)c(C(N)=O)c6N)C5)C4)ccc(C)c3C)ccc2CC1C(=O)NC1CCCc2ccccc21)C(C)(C)C

> <Shape>
0.191

> <Color>
0.069

> <Negative vol penalty>
0.000

$$$$

  -OEChem-04052321483D

 83 91  0     1  0  0  0  0  0999 V2000
  -31.5812  -32.1658   21.8863 C   0  0  0  0  0  0  0  0  0  0  0  0
  -31.8492  -30.8377   22.2020 C   0  0  0  0  0  0  0  0  0  0  0  0
  -23.3639   -9.8107   19.9128 C   0  0  0  0  0  0  0  0  0  0  0  0
  -23.8313   -9.9665   22.2780 C   0  0  0  0  0  0  0  0  0  0  0  0
  -30.4343  -32.4915   21.1635 C   0  0  0  0  0  0  0  0  0  0  0  0
  -30.9699  -29.8346   21.7960 C   0  0  0  0  0  0  0  0  0  0  0  0
  -32.4223  -24.1357   20.0872 C   0  0  0  0  0  0  0  0  0  0  0  0
  -22.6859   -8.6105   20.1258 C   0  0  0  0  0  0  0  0  0  0  0  0
  -23.1533   -8.7663   22.4910 C   0  0  0  0  0  0  0  0  0  0  0  0
  -32.4060  -22.9194   20.7683 C   0  0  0  0  0  0  0  0  0  0  0  0
  -21.2351   -5.9273   23.7073 C   0  0  0  0  0  0  0  0  0  0  0  0
  -20.3454   -5.8658   24.7797 C   0  0  0  0  0  0  0  0  0  0  0  0
  -30.2252  -22.4432   19.8536 C   0  0  0  0  0  0  0  0  0  0  0  0
  -19.0553   -7.6651   23.8127 C   0  0  0  0  0  0  0  0  0  0  0  0
  -31.7246  -17.8342   24.2563 C   0  0  0  0  0  0  0  0  0  0  0  0
  -23.9366  -10.4888   20.9889 C   0  0  0  0  0  0  0  0  0  0  0  0
  -24.0950  -13.0272   20.7913 C   0  0  0  0  0  0  0  0  0  0  0  0
  -29.5454  -31.4909   20.7400 C   0  0  0  0  0  0  0  0  0  0  0  0
  -31.3336  -24.5205   19.2915 C   0  0  0  0  0  0  0  0  0  0  0  0
  -29.8093  -30.1473   21.0679 C   0  0  0  0  0  0  0  0  0  0  0  0
  -30.2313  -23.6638   19.1613 C   0  0  0  0  0  0  0  0  0  0  0  0
  -22.5806   -8.0883   21.4149 C   0  0  0  0  0  0  0  0  0  0  0  0
  -31.3062  -22.0742   20.6539 C   0  0  0  0  0  0  0  0  0  0  0  0
  -21.0351   -6.8579   22.6876 C   0  0  0  0  0  0  0  0  0  0  0  0
  -31.9683  -17.0708   23.0989 C   0  0  0  0  0  0  0  0  0  0  0  0
  -19.2554   -6.7346   24.8324 C   0  0  0  0  0  0  0  0  0  0  0  0
  -19.9451   -7.7267   22.7402 C   0  0  0  0  0  0  0  0  0  0  0  0
  -24.6376  -11.7283   20.7694 C   0  0  0  0  0  0  0  0  0  0  0  0
  -32.2697  -17.9991   22.1325 C   0  0  0  0  0  0  0  0  0  0  0  0
  -25.1626  -13.8498   20.5270 C   0  0  0  0  0  0  0  0  0  0  0  0
  -22.7465  -13.4520   21.0293 C   0  0  0  0  0  0  0  0  0  0  0  0
  -29.2572  -26.9267   19.3428 C   0  0  0  0  0  0  0  0  0  0  0  0
  -28.2949  -25.6436   16.5233 C   0  0  0  0  0  0  0  0  0  0  0  0
  -28.1026  -22.8983   14.5051 C   0  0  0  0  0  0  0  0  0  0  0  0
  -31.0696  -13.2363   21.2899 C   0  0  0  0  0  0  0  0  0  0  0  0
  -28.2943  -31.8962   20.0018 C   0  0  0  0  0  0  0  0  0  0  0  0
  -31.3781  -25.8238   18.5419 C   0  0  0  0  0  0  0  0  0  0  0  0
  -29.0460  -24.0213   18.3035 C   0  0  0  0  0  0  0  0  0  0  0  0
  -27.6069  -30.7366   19.2856 C   0  0  0  0  0  0  0  0  0  0  0  0
  -29.3640  -13.9136   18.2389 C   0  0  0  0  0  0  0  0  0  0  0  0
  -27.5029  -29.5260   20.2078 C   0  0  0  0  0  0  0  0  0  0  0  0
  -27.9103  -13.5476   18.5435 C   0  0  0  0  0  0  0  0  0  0  0  0
  -30.3416  -12.9708   18.9371 C   0  0  0  0  0  0  0  0  0  0  0  0
  -28.6897  -12.4741   20.6973 C   0  0  0  0  0  0  0  0  0  0  0  0
  -28.8924  -29.0283   20.6238 C   0  0  1  0  0  0  0  0  0  0  0  0
  -29.9941  -26.3462   18.1691 C   0  0  1  0  0  0  0  0  0  0  0  0
  -27.6674  -13.4309   20.0602 C   0  0  2  0  0  0  0  0  0  0  0  0
  -31.4883  -17.1968   19.8743 C   0  0  0  0  0  0  0  0  0  0  0  0
  -33.9282  -17.0466   20.4904 C   0  0  0  0  0  0  0  0  0  0  0  0
  -27.2253  -22.1493   12.2765 C   0  0  0  0  0  0  0  0  0  0  0  0
  -25.4646  -25.5806   17.6613 C   0  0  0  0  0  0  0  0  0  0  0  0
  -24.8375  -23.9951   15.8280 C   0  0  0  0  0  0  0  0  0  0  0  0
  -25.6119  -26.2999   15.2706 C   0  0  0  0  0  0  0  0  0  0  0  0
  -30.8122  -22.1952   13.5446 C   0  0  0  0  0  0  0  0  0  0  0  0
  -31.6455  -13.4694   23.6927 C   0  0  0  0  0  0  0  0  0  0  0  0
  -31.5877  -14.9370   24.0774 C   0  0  0  0  0  0  0  0  0  0  0  0
  -32.4279  -20.5627   22.1184 C   0  0  0  0  0  0  0  0  0  1  0  0
  -32.6198  -17.8425   20.7083 C   0  0  0  0  0  0  0  0  0  0  0  0
  -27.2836  -24.6006   16.1131 C   0  0  1  0  0  0  0  0  0  0  0  0
  -28.4212  -22.7057   13.0334 C   0  0  2  0  0  0  0  0  0  0  0  0
  -25.8208  -25.1129   16.2361 C   0  0  0  0  0  0  0  0  0  0  0  0
  -31.8597  -19.1464   24.0465 N   0  0  0  0  0  0  0  0  0  0  0  0
  -25.9481  -11.7213   20.5114 N   0  0  0  0  0  0  0  0  0  0  0  0
  -32.1917  -19.2147   22.7460 N   0  0  0  0  0  0  0  0  0  0  0  0
  -26.2379  -13.0258   20.3687 N   0  0  0  0  0  0  0  0  0  0  0  0
  -29.1341  -25.3091   17.5955 N   0  0  0  0  0  0  0  0  0  0  0  0
  -30.0581  -12.9063   20.3729 N   0  0  0  0  0  0  0  0  0  0  0  0
  -25.2772  -15.1904   20.4168 N   0  0  0  0  0  0  0  0  0  0  0  0
  -21.7737  -12.4760   21.2851 N   0  0  0  0  0  0  0  0  0  0  0  0
  -29.5002  -28.2710   19.5508 N   0  0  0  0  0  0  0  0  0  0  0  0
  -27.6571  -24.1764   14.7682 N   0  0  0  0  0  0  0  0  0  0  0  0
  -30.7155  -13.1550   22.6311 N   0  0  0  0  0  0  0  0  0  0  0  0
  -29.5620  -21.7608   12.8698 N   0  3  0  0  0  0  0  0  0  0  0  0
  -22.4108  -14.6603   20.9994 O   0  0  0  0  0  0  0  0  0  0  0  0
  -28.5215  -26.2085   20.0096 O   0  0  0  0  0  0  0  0  0  0  0  0
  -28.3435  -26.7129   15.9101 O   0  0  0  0  0  0  0  0  0  0  0  0
  -28.2321  -22.0033   15.3374 O   0  0  0  0  0  0  0  0  0  0  0  0
  -32.2026  -13.5831   20.9394 O   0  0  0  0  0  0  0  0  0  0  0  0
  -21.9189   -6.9172   21.6231 O   0  0  0  0  0  0  0  0  0  0  0  0
  -31.9258  -15.7432   22.9365 O   0  0  0  0  0  0  0  0  0  0  0  0
  -31.2874  -20.8866   21.3181 O   0  0  0  0  0  0  0  0  0  1  0  0
  -18.4002   -6.6743   25.8615 F   0  0  0  0  0  0  0  0  0  0  0  0
  -19.7470   -8.6220   21.7630 F   0  0  0  0  0  0  0  0  0  0  0  0
  1  2  1  0  0  0  0
  1  5  2  0  0  0  0
  2  6  2  0  0  0  0
  3  8  2  0  0  0  0
  3 16  1  0  0  0  0
  4  9  1  0  0  0  0
  4 16  2  0  0  0  0
  5 18  1  0  0  0  0
  6 20  1  0  0  0  0
  7 10  2  0  0  0  0
  7 19  1  0  0  0  0
  8 22  1  0  0  0  0
  9 22  2  0  0  0  0
 10 23  1  0  0  0  0
 11 12  2  0  0  0  0
 11 24  1  0  0  0  0
 12 26  1  0  0  0  0
 13 21  1  0  0  0  0
 13 23  2  0  0  0  0
 14 26  2  0  0  0  0
 14 27  1  0  0  0  0
 15 25  1  0  0  0  0
 15 62  2  0  0  0  0
 16 28  1  0  0  0  0
 17 28  1  0  0  0  0
 17 30  2  0  0  0  0
 17 31  1  0  0  0  0
 18 20  2  0  0  0  0
 18 36  1  0  0  0  0
 19 21  2  0  0  0  0
 19 37  1  0  0  0  0
 20 45  1  0  0  0  0
 21 38  1  0  0  0  0
 22 79  1  0  0  0  0
 23 81  1  0  0  0  0
 24 27  2  0  0  0  0
 24 79  1  0  0  0  0
 25 29  2  0  0  0  0
 25 80  1  0  0  0  0
 26 82  1  0  0  0  0
 27 83  1  0  0  0  0
 28 63  2  0  0  0  0
 29 58  1  0  0  0  0
 29 64  1  0  0  0  0
 30 65  1  0  0  0  0
 30 68  1  0  0  0  0
 31 69  1  0  0  0  0
 31 74  2  0  0  0  0
 32 46  1  0  0  0  0
 32 70  1  0  0  0  0
 32 75  2  0  0  0  0
 33 59  1  0  0  0  0
 33 66  1  0  0  0  0
 33 76  2  0  0  0  0
 34 60  1  0  0  0  0
 34 71  1  0  0  0  0
 34 77  2  0  0  0  0
 35 67  1  0  0  0  0
 35 72  1  0  0  0  0
 35 78  2  0  0  0  0
 36 39  1  0  0  0  0
 37 46  1  0  0  0  0
 38 66  1  0  0  0  0
 39 41  1  0  0  0  0
 40 42  1  0  0  0  0
 40 43  1  0  0  0  0
 41 45  1  0  0  0  0
 42 47  1  0  0  0  0
 43 67  1  0  0  0  0
 44 47  1  0  0  0  0
 44 67  1  0  0  0  0
 45 70  1  0  0  0  0
 46 66  1  0  0  0  0
 47 65  1  0  0  0  0
 48 58  1  0  0  0  0
 49 58  1  0  0  0  0
 50 60  1  0  0  0  0
 51 61  1  0  0  0  0
 52 61  1  0  0  0  0
 53 61  1  0  0  0  0
 54 73  1  0  0  0  0
 55 56  1  0  0  0  0
 55 72  1  0  0  0  0
 56 80  1  0  0  0  0
 57 64  1  0  0  0  0
 57 81  1  0  0  0  0
 59 61  1  0  0  0  0
 59 71  1  0  0  0  0
 60 73  1  0  0  0  0
 62 64  1  0  0  0  0
 63 65  1  0  0  0  0
M  CHG  1  73   1
M  ISO  4  35 100  57 101  72 100  81 101
M  END
> <Batch ID>
0153

> <Smiles>
CNC(C)C(=O)NC(C(=O)N1Cc2cc([101O:1][101CH2:1]n3ncc(OCC[100NH:0][100C:0](=O)N4CCCC(n5nc(-c6ccc(Oc7ccc(F)cc7F)cc6)c(C(N)=O)c5N)C4)c3C(C)C)ccc2CC1C(=O)NC1CCCc2ccccc21)C(C)(C)C

> <Shape>
0.218

> <Color>
0.185

> <Negative vol penalty>
0.000

$$$$

  -OEChem-04052321483D

 87 97  0     1  0  0  0  0  0999 V2000
  -31.4067  -23.5311   35.2121 C   0  0  0  0  0  0  0  0  0  0  0  0
  -31.0122  -23.3708   33.8876 C   0  0  0  0  0  0  0  0  0  0  0  0
  -23.0006   -9.8932   19.9823 C   0  0  0  0  0  0  0  0  0  0  0  0
  -23.7301   -9.9448   22.2850 C   0  0  0  0  0  0  0  0  0  0  0  0
  -31.8007  -24.7863   35.6739 C   0  0  0  0  0  0  0  0  0  0  0  0
  -31.0103  -24.4660   33.0245 C   0  0  0  0  0  0  0  0  0  0  0  0
  -33.0321  -23.3845   28.5093 C   0  0  0  0  0  0  0  0  0  0  0  0
  -22.2358   -8.7579   20.2501 C   0  0  0  0  0  0  0  0  0  0  0  0
  -22.9652   -8.8095   22.5528 C   0  0  0  0  0  0  0  0  0  0  0  0
  -32.2354  -22.6811   27.6069 C   0  0  0  0  0  0  0  0  0  0  0  0
  -23.2121   -5.4708   22.0803 C   0  0  0  0  0  0  0  0  0  0  0  0
  -23.8021   -4.4542   22.8312 C   0  0  0  0  0  0  0  0  0  0  0  0
  -31.7162  -24.7429   26.4673 C   0  0  0  0  0  0  0  0  0  0  0  0
  -22.0812   -4.6953   24.5097 C   0  0  0  0  0  0  0  0  0  0  0  0
  -27.9423  -22.4964   23.9783 C   0  0  0  0  0  0  0  0  0  0  0  0
  -23.7478  -10.4866   20.9998 C   0  0  0  0  0  0  0  0  0  0  0  0
  -24.1302  -13.0026   20.8231 C   0  0  0  0  0  0  0  0  0  0  0  0
  -31.8128  -25.8954   34.8134 C   0  0  0  0  0  0  0  0  0  0  0  0
  -33.1683  -24.7761   28.4038 C   0  0  0  0  0  0  0  0  0  0  0  0
  -31.4034  -25.7375   33.4756 C   0  0  0  0  0  0  0  0  0  0  0  0
  -32.5173  -25.4613   27.3681 C   0  0  0  0  0  0  0  0  0  0  0  0
  -29.3208  -22.5141   23.8399 C   0  0  0  0  0  0  0  0  0  0  0  0
  -29.8919  -21.6593   22.9037 C   0  0  0  0  0  0  0  0  0  0  0  0
  -29.0785  -20.8248   22.1452 C   0  0  0  0  0  0  0  0  0  0  0  0
  -22.2180   -8.2160   21.5353 C   0  0  0  0  0  0  0  0  0  0  0  0
  -31.5750  -23.3606   26.5875 C   0  0  0  0  0  0  0  0  0  0  0  0
  -22.0566   -6.0998   22.5441 C   0  0  0  0  0  0  0  0  0  0  0  0
  -23.2367   -4.0664   24.0459 C   0  0  0  0  0  0  0  0  0  0  0  0
  -21.4912   -5.7120   23.7588 C   0  0  0  0  0  0  0  0  0  0  0  0
  -24.5386  -11.6591   20.7237 C   0  0  0  0  0  0  0  0  0  0  0  0
  -27.7109  -20.8826   22.3596 C   0  0  0  0  0  0  0  0  0  0  0  0
  -25.2385  -13.7264   20.4567 C   0  0  0  0  0  0  0  0  0  0  0  0
  -22.8624  -13.5477   21.2121 C   0  0  0  0  0  0  0  0  0  0  0  0
  -32.4575  -27.2475   30.2722 C   0  0  0  0  0  0  0  0  0  0  0  0
  -34.0064  -28.9318   27.9730 C   0  0  0  0  0  0  0  0  0  0  0  0
  -35.0388  -29.1301   24.7262 C   0  0  0  0  0  0  0  0  0  0  0  0
  -30.7344  -14.6667   20.6949 C   0  0  0  0  0  0  0  0  0  0  0  0
  -32.2014  -27.2420   35.3704 C   0  0  0  0  0  0  0  0  0  0  0  0
  -34.0528  -25.5168   29.3690 C   0  0  0  0  0  0  0  0  0  0  0  0
  -32.6470  -26.9523   27.1992 C   0  0  0  0  0  0  0  0  0  0  0  0
  -32.5289  -28.2746   34.2949 C   0  0  0  0  0  0  0  0  0  0  0  0
  -29.5918  -12.2419   18.3515 C   0  0  0  0  0  0  0  0  0  0  0  0
  -31.4666  -28.2606   33.2003 C   0  0  0  0  0  0  0  0  0  0  0  0
  -26.3312  -20.4695   20.2149 C   0  0  0  0  0  0  0  0  0  0  0  0
  -25.3696  -20.4346   21.3615 C   0  0  0  0  0  0  0  0  0  0  0  0
  -28.1444  -11.9806   18.7718 C   0  0  0  0  0  0  0  0  0  0  0  0
  -30.4962  -12.4782   19.5590 C   0  0  0  0  0  0  0  0  0  0  0  0
  -28.5878  -13.2717   20.9014 C   0  0  0  0  0  0  0  0  0  0  0  0
  -29.9198  -17.9084   22.5391 C   0  0  0  0  0  0  0  0  0  0  0  0
  -30.9808  -17.8694   20.7423 C   0  0  0  0  0  0  0  0  0  0  0  0
  -31.4116  -26.8963   32.5023 C   0  0  1  0  0  0  0  0  0  0  0  0
  -26.7965  -20.0042   21.5679 C   0  0  0  0  0  0  0  0  0  0  0  0
  -33.7086  -26.9990   29.4781 C   0  0  1  0  0  0  0  0  0  0  0  0
  -27.6267  -13.0830   19.7152 C   0  0  2  0  0  0  0  0  0  0  0  0
  -30.8170  -16.8457   21.8799 C   0  0  0  0  0  0  0  0  0  0  0  0
  -31.3750  -21.6396   22.7156 C   0  0  0  0  0  0  0  0  0  0  0  0
  -36.2500  -30.6443   23.1332 C   0  0  0  0  0  0  0  0  0  0  0  0
  -31.5312  -30.7056   27.7808 C   0  0  0  0  0  0  0  0  0  0  0  0
  -32.3958  -31.5553   25.5902 C   0  0  0  0  0  0  0  0  0  0  0  0
  -33.7064  -31.9354   27.6784 C   0  0  0  0  0  0  0  0  0  0  0  0
  -37.1586  -27.1213   24.2465 C   0  0  0  0  0  0  0  0  0  0  0  0
  -29.6647  -19.8978   21.1333 C   0  0  0  0  0  0  0  0  0  0  0  0
  -30.1486  -23.4361   24.6860 C   0  0  0  0  0  0  0  0  0  1  0  0
  -33.5989  -29.6116   26.6882 C   0  0  1  0  0  0  0  0  0  0  0  0
  -36.3812  -29.4914   24.1164 C   0  0  2  0  0  0  0  0  0  0  0  0
  -32.8039  -30.9241   26.9385 C   0  0  0  0  0  0  0  0  0  0  0  0
  -27.1196  -21.6998   23.2597 N   0  0  0  0  0  0  0  0  0  0  0  0
  -25.8072  -11.5339   20.3251 N   0  0  0  0  0  0  0  0  0  0  0  0
  -26.2056  -12.8081   20.1708 N   0  0  0  0  0  0  0  0  0  0  0  0
  -33.5181  -27.6327   28.1718 N   0  0  0  0  0  0  0  0  0  0  0  0
  -29.9499  -13.5363   20.4122 N   0  0  0  0  0  0  0  0  0  0  0  0
  -25.4704  -15.0523   20.3542 N   0  0  0  0  0  0  0  0  0  0  0  0
  -21.8322  -12.6625   21.5575 N   0  0  0  0  0  0  0  0  0  0  0  0
  -32.5066  -26.7633   31.5655 N   0  0  0  0  0  0  0  0  0  0  0  0
  -34.8234  -29.7928   25.9161 N   0  0  0  0  0  0  0  0  0  0  0  0
  -30.1385  -15.6249   21.5058 N   0  0  0  0  0  0  0  0  0  0  0  0
  -30.6163  -18.9128   21.7166 N   0  3  0  0  0  0  0  0  0  0  0  0
  -36.9539  -28.3205   23.3939 N   0  3  0  0  0  0  0  0  0  0  0  0
  -22.6444  -14.7828   21.2363 O   0  0  0  0  0  0  0  0  0  0  0  0
  -31.5178  -27.8363   29.7507 O   0  0  0  0  0  0  0  0  0  0  0  0
  -34.7371  -29.5287   28.7676 O   0  0  0  0  0  0  0  0  0  0  0  0
  -34.2577  -28.3419   24.1979 O   0  0  0  0  0  0  0  0  0  0  0  0
  -31.8788  -14.8138   20.2526 O   0  0  0  0  0  0  0  0  0  0  0  0
  -21.4716   -7.1084   21.7970 O   0  0  0  0  0  0  0  0  0  0  0  0
  -30.7962  -22.6765   25.7058 O   0  0  0  0  0  0  0  0  0  1  0  0
  -23.8025   -3.0891   24.7662 F   0  0  0  0  0  0  0  0  0  0  0  0
  -20.3805   -6.3117   24.2089 F   0  0  0  0  0  0  0  0  0  0  0  0
  1  2  1  0  0  0  0
  1  5  2  0  0  0  0
  2  6  2  0  0  0  0
  3  8  2  0  0  0  0
  3 16  1  0  0  0  0
  4  9  1  0  0  0  0
  4 16  2  0  0  0  0
  5 18  1  0  0  0  0
  6 20  1  0  0  0  0
  7 10  2  0  0  0  0
  7 19  1  0  0  0  0
  8 25  1  0  0  0  0
  9 25  2  0  0  0  0
 10 26  1  0  0  0  0
 11 12  2  0  0  0  0
 11 27  1  0  0  0  0
 12 28  1  0  0  0  0
 13 21  1  0  0  0  0
 13 26  2  0  0  0  0
 14 28  2  0  0  0  0
 14 29  1  0  0  0  0
 15 22  1  0  0  0  0
 15 67  2  0  0  0  0
 16 30  1  0  0  0  0
 17 30  1  0  0  0  0
 17 32  2  0  0  0  0
 17 33  1  0  0  0  0
 18 20  2  0  0  0  0
 18 38  1  0  0  0  0
 19 21  2  0  0  0  0
 19 39  1  0  0  0  0
 20 51  1  0  0  0  0
 21 40  1  0  0  0  0
 22 23  2  0  0  0  0
 22 63  1  0  0  0  0
 23 24  1  0  0  0  0
 23 56  1  0  0  0  0
 24 31  2  0  0  0  0
 24 62  1  0  0  0  0
 25 84  1  0  0  0  0
 26 85  1  0  0  0  0
 27 29  2  0  0  0  0
 27 84  1  0  0  0  0
 28 86  1  0  0  0  0
 29 87  1  0  0  0  0
 30 68  2  0  0  0  0
 31 52  1  0  0  0  0
 31 67  1  0  0  0  0
 32 69  1  0  0  0  0
 32 72  1  0  0  0  0
 33 73  1  0  0  0  0
 33 79  2  0  0  0  0
 34 53  1  0  0  0  0
 34 74  1  0  0  0  0
 34 80  2  0  0  0  0
 35 64  1  0  0  0  0
 35 70  1  0  0  0  0
 35 81  2  0  0  0  0
 36 65  1  0  0  0  0
 36 75  1  0  0  0  0
 36 82  2  0  0  0  0
 37 71  1  0  0  0  0
 37 76  1  0  0  0  0
 37 83  2  0  0  0  0
 38 41  1  0  0  0  0
 39 53  1  0  0  0  0
 40 70  1  0  0  0  0
 41 43  1  0  0  0  0
 42 46  1  0  0  0  0
 42 47  1  0  0  0  0
 43 51  1  0  0  0  0
 44 45  1  0  0  0  0
 44 52  1  0  0  0  0
 45 52  1  0  0  0  0
 46 54  1  0  0  0  0
 47 71  1  0  0  0  0
 48 54  1  0  0  0  0
 48 71  1  0  0  0  0
 49 55  1  0  0  0  0
 49 77  1  0  0  0  0
 50 55  1  0  0  0  0
 50 77  1  0  0  0  0
 51 74  1  0  0  0  0
 53 70  1  0  0  0  0
 54 69  1  0  0  0  0
 55 76  1  0  0  0  0
 57 65  1  0  0  0  0
 58 66  1  0  0  0  0
 59 66  1  0  0  0  0
 60 66  1  0  0  0  0
 61 78  1  0  0  0  0
 62 77  1  0  0  0  0
 63 85  1  0  0  0  0
 64 66  1  0  0  0  0
 64 75  1  0  0  0  0
 65 78  1  0  0  0  0
 68 69  1  0  0  0  0
M  CHG  2  77   1  78   1
M  ISO  4  37 100  63 101  76 100  85 101
M  END
> <Batch ID>
0153

> <Smiles>
CNC(C)C(=O)NC(C(=O)N1Cc2cc([101O:1][101CH2:1]c3cnc(C4CC4)c(CN4CC([100NH:0][100C:0](=O)N5CCCC(n6nc(-c7ccc(Oc8ccc(F)cc8F)cc7)c(C(N)=O)c6N)C5)C4)c3C)ccc2CC1C(=O)NC1CCCc2ccccc21)C(C)(C)C

> <Shape>
0.189

> <Color>
0.189

> <Negative vol penalty>
0.000

$$$$

  -OEChem-04052321483D

 88 97  0     1  0  0  0  0  0999 V2000
  -35.4908  -36.3735   28.1052 C   0  0  0  0  0  0  0  0  0  0  0  0
  -35.9450  -35.3465   27.2840 C   0  0  0  0  0  0  0  0  0  0  0  0
  -23.0932   -9.7495   19.9460 C   0  0  0  0  0  0  0  0  0  0  0  0
  -23.7354   -9.8984   22.2703 C   0  0  0  0  0  0  0  0  0  0  0  0
  -34.2157  -36.3048   28.6649 C   0  0  0  0  0  0  0  0  0  0  0  0
  -35.1246  -34.2496   27.0229 C   0  0  0  0  0  0  0  0  0  0  0  0
  -33.6157  -29.5078   21.8697 C   0  0  0  0  0  0  0  0  0  0  0  0
  -22.3577   -8.5972   20.2230 C   0  0  0  0  0  0  0  0  0  0  0  0
  -22.9998   -8.7460   22.5473 C   0  0  0  0  0  0  0  0  0  0  0  0
  -33.5156  -28.1319   21.6678 C   0  0  0  0  0  0  0  0  0  0  0  0
  -23.3762   -5.4049   22.1925 C   0  0  0  0  0  0  0  0  0  0  0  0
  -23.9722   -4.4334   22.9966 C   0  0  0  0  0  0  0  0  0  0  0  0
  -31.3017  -28.1586   22.6255 C   0  0  0  0  0  0  0  0  0  0  0  0
  -32.7541  -23.5061   19.8296 C   0  0  0  0  0  0  0  0  0  0  0  0
  -32.7866  -21.7882   22.0274 C   0  0  0  0  0  0  0  0  0  0  0  0
  -22.1835   -4.6666   24.6039 C   0  0  0  0  0  0  0  0  0  0  0  0
  -23.7821  -10.4001   20.9697 C   0  0  0  0  0  0  0  0  0  0  0  0
  -24.0857  -12.9212   20.7252 C   0  0  0  0  0  0  0  0  0  0  0  0
  -33.3756  -35.2111   28.4027 C   0  0  0  0  0  0  0  0  0  0  0  0
  -32.5621  -30.2188   22.4620 C   0  0  0  0  0  0  0  0  0  0  0  0
  -33.8376  -34.1655   27.5807 C   0  0  0  0  0  0  0  0  0  0  0  0
  -31.3899  -29.5438   22.8314 C   0  0  0  0  0  0  0  0  0  0  0  0
  -32.4607  -22.1529   19.6614 C   0  0  0  0  0  0  0  0  0  0  0  0
  -33.0800  -23.1415   22.1956 C   0  0  0  0  0  0  0  0  0  0  0  0
  -33.0638  -24.0004   21.0966 C   0  0  0  0  0  0  0  0  0  0  0  0
  -32.4769  -21.2940   20.7603 C   0  0  0  0  0  0  0  0  0  0  0  0
  -22.3110   -8.0954   21.5236 C   0  0  0  0  0  0  0  0  0  0  0  0
  -32.3596  -27.4566   22.0483 C   0  0  0  0  0  0  0  0  0  0  0  0
  -22.1840   -6.0073   22.5941 C   0  0  0  0  0  0  0  0  0  0  0  0
  -23.3758   -4.0642   24.2023 C   0  0  0  0  0  0  0  0  0  0  0  0
  -21.5876   -5.6382   23.7998 C   0  0  0  0  0  0  0  0  0  0  0  0
  -24.5425  -11.5902   20.6841 C   0  0  0  0  0  0  0  0  0  0  0  0
  -25.1818  -13.6713   20.3753 C   0  0  0  0  0  0  0  0  0  0  0  0
  -22.7868  -13.4336   21.0508 C   0  0  0  0  0  0  0  0  0  0  0  0
  -32.2256  -31.9307   25.1190 C   0  0  0  0  0  0  0  0  0  0  0  0
  -29.3033  -32.5770   23.8680 C   0  0  0  0  0  0  0  0  0  0  0  0
  -26.7742  -31.6376   21.7780 C   0  0  0  0  0  0  0  0  0  0  0  0
  -30.6303  -14.8095   20.7787 C   0  0  0  0  0  0  0  0  0  0  0  0
  -32.0233  -35.1585   29.0684 C   0  0  0  0  0  0  0  0  0  0  0  0
  -32.6752  -31.7070   22.6484 C   0  0  0  0  0  0  0  0  0  0  0  0
  -30.2223  -30.2644   23.4527 C   0  0  0  0  0  0  0  0  0  0  0  0
  -31.0744  -34.1410   28.4403 C   0  0  0  0  0  0  0  0  0  0  0  0
  -29.6570  -12.2744   18.4759 C   0  0  0  0  0  0  0  0  0  0  0  0
  -28.5806  -19.6202   21.5187 C   0  0  0  0  0  0  0  0  0  0  0  0
  -31.7877  -32.8109   28.2199 C   0  0  0  0  0  0  0  0  0  0  0  0
  -28.2047  -11.9762   18.8526 C   0  0  0  0  0  0  0  0  0  0  0  0
  -28.8474  -18.4021   20.6548 C   0  0  0  0  0  0  0  0  0  0  0  0
  -30.5080  -12.5796   19.7067 C   0  0  0  0  0  0  0  0  0  0  0  0
  -28.5258  -13.3476   20.9537 C   0  0  0  0  0  0  0  0  0  0  0  0
  -29.8284  -20.4507   21.3167 C   0  0  0  0  0  0  0  0  0  0  0  0
  -32.9678  -32.9711   27.2539 C   0  0  1  0  0  0  0  0  0  0  0  0
  -31.7449  -32.2460   23.7308 C   0  0  1  0  0  0  0  0  0  0  0  0
  -27.6159  -13.0887   19.7407 C   0  0  2  0  0  0  0  0  0  0  0  0
  -30.3332  -18.1008   20.8497 C   0  0  2  0  0  0  0  0  0  0  0  0
  -32.1313  -21.6466   18.2955 C   0  0  0  0  0  0  0  0  0  0  0  0
  -33.4095  -23.6478   23.5614 C   0  0  0  0  0  0  0  0  0  0  0  0
  -33.3069  -18.9247   21.0611 C   0  0  0  0  0  0  0  0  0  0  0  0
  -24.4983  -32.3487   20.9957 C   0  0  0  0  0  0  0  0  0  0  0  0
  -28.1017  -31.6248   26.5060 C   0  0  0  0  0  0  0  0  0  0  0  0
  -25.8853  -31.4536   25.3543 C   0  0  0  0  0  0  0  0  0  0  0  0
  -27.0224  -33.6657   25.5444 C   0  0  0  0  0  0  0  0  0  0  0  0
  -27.6839  -31.8691   18.9713 C   0  0  0  0  0  0  0  0  0  0  0  0
  -33.3768  -25.4595   21.2529 C   0  0  0  0  0  0  0  0  0  1  0  0
  -30.5960  -17.0259   21.8947 C   0  0  0  0  0  0  0  0  0  0  0  0
  -32.1656  -19.8416   20.6047 C   0  0  1  0  0  0  0  0  0  0  0  0
  -27.9401  -31.9335   23.9477 C   0  0  1  0  0  0  0  0  0  0  0  0
  -25.9944  -32.4102   20.7296 C   0  0  2  0  0  0  0  0  0  0  0  0
  -27.2600  -32.1552   25.3282 C   0  0  0  0  0  0  0  0  0  0  0  0
  -25.8284  -11.4969   20.3353 N   0  0  0  0  0  0  0  0  0  0  0  0
  -26.1891  -12.7788   20.1540 N   0  0  0  0  0  0  0  0  0  0  0  0
  -30.3835  -31.7181   23.6202 N   0  0  0  0  0  0  0  0  0  0  0  0
  -29.8953  -13.6442   20.5050 N   0  0  0  0  0  0  0  0  0  0  0  0
  -25.3725  -15.0007   20.2382 N   0  0  0  0  0  0  0  0  0  0  0  0
  -21.7750  -12.5242   21.3878 N   0  0  0  0  0  0  0  0  0  0  0  0
  -32.4959  -33.0466   25.8878 N   0  0  0  0  0  0  0  0  0  0  0  0
  -27.1779  -32.4503   22.8162 N   0  0  0  0  0  0  0  0  0  0  0  0
  -29.9732  -15.7711   21.5365 N   0  0  0  0  0  0  0  0  0  0  0  0
  -30.9322  -19.4184   21.3375 N   0  3  1  0  0  0  0  0  0  0  0  0
  -26.2539  -31.8495   19.3734 N   0  3  0  0  0  0  0  0  0  0  0  0
  -22.5267  -14.6605   21.0272 O   0  0  0  0  0  0  0  0  0  0  0  0
  -32.3411  -30.7615   25.4674 O   0  0  0  0  0  0  0  0  0  0  0  0
  -29.4052  -33.7978   24.0128 O   0  0  0  0  0  0  0  0  0  0  0  0
  -26.9993  -30.4327   21.6871 O   0  0  0  0  0  0  0  0  0  0  0  0
  -31.7847  -14.9825   20.3731 O   0  0  0  0  0  0  0  0  0  0  0  0
  -21.5932   -6.9711   21.7943 O   0  0  0  0  0  0  0  0  0  0  0  0
  -32.2595  -26.1136   21.8530 O   0  0  0  0  0  0  0  0  0  1  0  0
  -23.9473   -3.1301   24.9737 F   0  0  0  0  0  0  0  0  0  0  0  0
  -20.4416   -6.2125   24.1903 F   0  0  0  0  0  0  0  0  0  0  0  0
  1  2  1  0  0  0  0
  1  5  2  0  0  0  0
  2  6  2  0  0  0  0
  3  8  2  0  0  0  0
  3 17  1  0  0  0  0
  4  9  1  0  0  0  0
  4 17  2  0  0  0  0
  5 19  1  0  0  0  0
  6 21  1  0  0  0  0
  7 10  2  0  0  0  0
  7 20  1  0  0  0  0
  8 27  1  0  0  0  0
  9 27  2  0  0  0  0
 10 28  1  0  0  0  0
 11 12  2  0  0  0  0
 11 29  1  0  0  0  0
 12 30  1  0  0  0  0
 13 22  1  0  0  0  0
 13 28  2  0  0  0  0
 14 23  2  0  0  0  0
 14 25  1  0  0  0  0
 15 24  1  0  0  0  0
 15 26  2  0  0  0  0
 16 30  2  0  0  0  0
 16 31  1  0  0  0  0
 17 32  1  0  0  0  0
 18 32  1  0  0  0  0
 18 33  2  0  0  0  0
 18 34  1  0  0  0  0
 19 21  2  0  0  0  0
 19 39  1  0  0  0  0
 20 22  2  0  0  0  0
 20 40  1  0  0  0  0
 21 51  1  0  0  0  0
 22 41  1  0  0  0  0
 23 26  1  0  0  0  0
 23 55  1  0  0  0  0
 24 25  2  0  0  0  0
 24 56  1  0  0  0  0
 25 63  1  0  0  0  0
 26 65  1  0  0  0  0
 27 85  1  0  0  0  0
 28 86  1  0  0  0  0
 29 31  2  0  0  0  0
 29 85  1  0  0  0  0
 30 87  1  0  0  0  0
 31 88  1  0  0  0  0
 32 69  2  0  0  0  0
 33 70  1  0  0  0  0
 33 73  1  0  0  0  0
 34 74  1  0  0  0  0
 34 80  2  0  0  0  0
 35 52  1  0  0  0  0
 35 75  1  0  0  0  0
 35 81  2  0  0  0  0
 36 66  1  0  0  0  0
 36 71  1  0  0  0  0
 36 82  2  0  0  0  0
 37 67  1  0  0  0  0
 37 76  1  0  0  0  0
 37 83  2  0  0  0  0
 38 72  1  0  0  0  0
 38 77  1  0  0  0  0
 38 84  2  0  0  0  0
 39 42  1  0  0  0  0
 40 52  1  0  0  0  0
 41 71  1  0  0  0  0
 42 45  1  0  0  0  0
 43 46  1  0  0  0  0
 43 48  1  0  0  0  0
 44 47  1  0  0  0  0
 44 50  1  0  0  0  0
 45 51  1  0  0  0  0
 46 53  1  0  0  0  0
 47 54  1  0  0  0  0
 48 72  1  0  0  0  0
 49 53  1  0  0  0  0
 49 72  1  0  0  0  0
 50 78  1  0  0  0  0
 51 75  1  0  0  0  0
 52 71  1  0  0  0  0
 53 70  1  0  0  0  0
 54 64  1  0  0  0  0
 54 78  1  0  0  0  0
 57 65  1  0  0  0  0
 58 67  1  0  0  0  0
 59 68  1  0  0  0  0
 60 68  1  0  0  0  0
 61 68  1  0  0  0  0
 62 79  1  0  0  0  0
 63 86  1  0  0  0  0
 64 77  1  0  0  0  0
 65 78  1  0  0  0  0
 66 68  1  0  0  0  0
 66 76  1  0  0  0  0
 67 79  1  0  0  0  0
 69 70  1  0  0  0  0
M  CHG  2  78   1  79   1
M  ISO  4  38 100  63 101  77 100  86 101
M  END
> <Batch ID>
0153

> <Smiles>
CNC(C)C(=O)NC(C(=O)N1Cc2cc([101O:1][101CH2:1]c3cc(C)c(C(C)N4CCCC4C[100NH:0][100C:0](=O)N4CCCC(n5nc(-c6ccc(Oc7ccc(F)cc7F)cc6)c(C(N)=O)c5N)C4)cc3C)ccc2CC1C(=O)NC1CCCc2ccccc21)C(C)(C)C

> <Shape>
0.249

> <Color>
0.199

> <Negative vol penalty>
0.000

$$$$

  -OEChem-04052321483D

 85 94  0     1  0  0  0  0  0999 V2000
  -24.4697  -19.9862   38.0982 C   0  0  0  0  0  0  0  0  0  0  0  0
  -24.4515  -19.4992   36.7951 C   0  0  0  0  0  0  0  0  0  0  0  0
  -23.1025   -9.8617   19.9215 C   0  0  0  0  0  0  0  0  0  0  0  0
  -23.7960   -9.8786   22.2357 C   0  0  0  0  0  0  0  0  0  0  0  0
  -24.2122  -21.3348   38.3409 C   0  0  0  0  0  0  0  0  0  0  0  0
  -24.1748  -20.3605   35.7340 C   0  0  0  0  0  0  0  0  0  0  0  0
  -27.3274  -19.7033   31.8257 C   0  0  0  0  0  0  0  0  0  0  0  0
  -22.3450   -8.7144   20.1568 C   0  0  0  0  0  0  0  0  0  0  0  0
  -23.0384   -8.7313   22.4711 C   0  0  0  0  0  0  0  0  0  0  0  0
  -27.0892  -18.6115   30.9922 C   0  0  0  0  0  0  0  0  0  0  0  0
  -20.9997   -6.0139   23.7663 C   0  0  0  0  0  0  0  0  0  0  0  0
  -20.2097   -5.9819   24.9154 C   0  0  0  0  0  0  0  0  0  0  0  0
  -26.0118  -20.0693   29.4006 C   0  0  0  0  0  0  0  0  0  0  0  0
  -25.5259  -17.4191   26.6928 C   0  0  0  0  0  0  0  0  0  0  0  0
  -18.9982   -7.9217   24.1366 C   0  0  0  0  0  0  0  0  0  0  0  0
  -27.8605  -18.6316   25.9688 C   0  0  0  0  0  0  0  0  0  0  0  0
  -23.8281  -10.4438   20.9609 C   0  0  0  0  0  0  0  0  0  0  0  0
  -24.1881  -12.9661   20.8356 C   0  0  0  0  0  0  0  0  0  0  0  0
  -23.9418  -22.2150   37.2813 C   0  0  0  0  0  0  0  0  0  0  0  0
  -26.8992  -20.9868   31.4573 C   0  0  0  0  0  0  0  0  0  0  0  0
  -23.9122  -21.7219   35.9628 C   0  0  0  0  0  0  0  0  0  0  0  0
  -26.2481  -21.1762   30.2300 C   0  0  0  0  0  0  0  0  0  0  0  0
  -25.8134  -17.5946   25.3438 C   0  0  0  0  0  0  0  0  0  0  0  0
  -27.0008  -18.2122   24.9665 C   0  0  0  0  0  0  0  0  0  0  0  0
  -22.3129   -8.1492   21.4316 C   0  0  0  0  0  0  0  0  0  0  0  0
  -26.4287  -18.7938   29.7807 C   0  0  0  0  0  0  0  0  0  0  0  0
  -20.7890   -6.9998   22.8023 C   0  0  0  0  0  0  0  0  0  0  0  0
  -19.2089   -6.9357   25.1006 C   0  0  0  0  0  0  0  0  0  0  0  0
  -19.7882   -7.9537   22.9874 C   0  0  0  0  0  0  0  0  0  0  0  0
  -24.6113  -11.6286   20.7183 C   0  0  0  0  0  0  0  0  0  0  0  0
  -26.4512  -17.8749   27.6180 C   0  0  0  0  0  0  0  0  0  1  0  0
  -25.2947  -13.7071   20.4995 C   0  0  0  0  0  0  0  0  0  0  0  0
  -22.9091  -13.4918   21.2145 C   0  0  0  0  0  0  0  0  0  0  0  0
  -24.8767  -23.1133   32.6785 C   0  0  0  0  0  0  0  0  0  0  0  0
  -26.0275  -24.9939   30.2991 C   0  0  0  0  0  0  0  0  0  0  0  0
  -27.5194  -25.2039   27.2369 C   0  0  0  0  0  0  0  0  0  0  0  0
  -30.6612  -14.7758   20.6719 C   0  0  0  0  0  0  0  0  0  0  0  0
  -23.6229  -23.6549   37.5971 C   0  0  0  0  0  0  0  0  0  0  0  0
  -27.1875  -22.1585   32.3554 C   0  0  0  0  0  0  0  0  0  0  0  0
  -25.7862  -22.5369   29.7790 C   0  0  0  0  0  0  0  0  0  0  0  0
  -23.7077  -24.5777   36.3840 C   0  0  0  0  0  0  0  0  0  0  0  0
  -29.6920  -12.3282   18.4305 C   0  0  0  0  0  0  0  0  0  0  0  0
  -22.9893  -23.9572   35.1900 C   0  0  0  0  0  0  0  0  0  0  0  0
  -28.2457  -12.0282   18.8239 C   0  0  0  0  0  0  0  0  0  0  0  0
  -29.0132  -17.9425   21.6631 C   0  0  0  0  0  0  0  0  0  0  0  0
  -28.4875  -16.1750   23.3802 C   0  0  0  0  0  0  0  0  0  0  0  0
  -30.5661  -12.5150   19.6654 C   0  0  0  0  0  0  0  0  0  0  0  0
  -30.2403  -17.1399   21.2397 C   0  0  0  0  0  0  0  0  0  0  0  0
  -29.7267  -15.4091   22.9287 C   0  0  0  0  0  0  0  0  0  0  0  0
  -28.6324  -13.2913   20.9972 C   0  0  0  0  0  0  0  0  0  0  0  0
  -23.6406  -22.6299   34.7831 C   0  0  1  0  0  0  0  0  0  0  0  0
  -26.2516  -23.3393   32.1161 C   0  0  1  0  0  0  0  0  0  0  0  0
  -28.6419  -17.6810   23.1285 C   0  0  0  0  0  0  0  0  0  0  0  0
  -27.7004  -13.1005   19.7837 C   0  0  2  0  0  0  0  0  0  0  0  0
  -24.8379  -17.1143   24.3213 C   0  0  0  0  0  0  0  0  0  0  0  0
  -27.4843  -19.9199   23.1765 C   0  0  0  0  0  0  0  0  0  0  0  0
  -28.2972  -26.8762   25.5352 C   0  0  0  0  0  0  0  0  0  0  0  0
  -23.1373  -25.4590   29.4388 C   0  0  0  0  0  0  0  0  0  0  0  0
  -23.9998  -26.3111   27.2483 C   0  0  0  0  0  0  0  0  0  0  0  0
  -24.5885  -27.4944   29.3639 C   0  0  0  0  0  0  0  0  0  0  0  0
  -30.3254  -24.2869   27.4478 C   0  0  0  0  0  0  0  0  0  0  0  0
  -27.3661  -18.4289   23.5083 C   0  0  2  0  0  0  0  0  0  0  0  0
  -25.6455  -25.2533   28.8619 C   0  0  1  0  0  0  0  0  0  0  0  0
  -28.6883  -26.0359   26.7408 C   0  0  2  0  0  0  0  0  0  0  0  0
  -24.3496  -26.1034   28.7373 C   0  0  0  0  0  0  0  0  0  0  0  0
  -27.6155  -18.4785   27.2895 N   0  0  0  0  0  0  0  0  0  0  0  0
  -25.8871  -11.5230   20.3373 N   0  0  0  0  0  0  0  0  0  0  0  0
  -26.2751  -12.8036   20.2122 N   0  0  0  0  0  0  0  0  0  0  0  0
  -26.0858  -23.6501   30.6948 N   0  0  0  0  0  0  0  0  0  0  0  0
  -30.0124  -13.5374   20.5531 N   0  0  0  0  0  0  0  0  0  0  0  0
  -30.0776  -15.7173   21.5359 N   0  0  0  0  0  0  0  0  0  0  0  0
  -25.5149  -15.0369   20.4246 N   0  0  0  0  0  0  0  0  0  0  0  0
  -21.8826  -12.5905   21.5279 N   0  0  0  0  0  0  0  0  0  0  0  0
  -24.8581  -22.8716   34.0389 N   0  0  0  0  0  0  0  0  0  0  0  0
  -26.8161  -25.8523   28.2300 N   0  0  0  0  0  0  0  0  0  0  0  0
  -29.8235  -25.1530   26.3501 N   0  3  0  0  0  0  0  0  0  0  0  0
  -22.6786  -14.7241   21.2576 O   0  0  0  0  0  0  0  0  0  0  0  0
  -23.9046  -23.1567   31.9336 O   0  0  0  0  0  0  0  0  0  0  0  0
  -26.2724  -25.9482   31.0414 O   0  0  0  0  0  0  0  0  0  0  0  0
  -27.2543  -24.0918   26.7858 O   0  0  0  0  0  0  0  0  0  0  0  0
  -31.6959  -15.0293   20.0425 O   0  0  0  0  0  0  0  0  0  0  0  0
  -21.5736   -7.0298   21.6616 O   0  0  0  0  0  0  0  0  0  0  0  0
  -26.1910  -17.7143   28.9537 O   0  0  0  0  0  0  0  0  0  1  0  0
  -18.4494   -6.9040   26.2034 F   0  0  0  0  0  0  0  0  0  0  0  0
  -19.5803   -8.9025   22.0643 F   0  0  0  0  0  0  0  0  0  0  0  0
  1  2  1  0  0  0  0
  1  5  2  0  0  0  0
  2  6  2  0  0  0  0
  3  8  2  0  0  0  0
  3 17  1  0  0  0  0
  4  9  1  0  0  0  0
  4 17  2  0  0  0  0
  5 19  1  0  0  0  0
  6 21  1  0  0  0  0
  7 10  2  0  0  0  0
  7 20  1  0  0  0  0
  8 25  1  0  0  0  0
  9 25  2  0  0  0  0
 10 26  1  0  0  0  0
 11 12  2  0  0  0  0
 11 27  1  0  0  0  0
 12 28  1  0  0  0  0
 13 22  1  0  0  0  0
 13 26  2  0  0  0  0
 14 23  2  0  0  0  0
 14 31  1  0  0  0  0
 15 28  2  0  0  0  0
 15 29  1  0  0  0  0
 16 24  2  0  0  0  0
 16 66  1  0  0  0  0
 17 30  1  0  0  0  0
 18 30  1  0  0  0  0
 18 32  2  0  0  0  0
 18 33  1  0  0  0  0
 19 21  2  0  0  0  0
 19 38  1  0  0  0  0
 20 22  2  0  0  0  0
 20 39  1  0  0  0  0
 21 51  1  0  0  0  0
 22 40  1  0  0  0  0
 23 24  1  0  0  0  0
 23 55  1  0  0  0  0
 24 62  1  0  0  0  0
 25 82  1  0  0  0  0
 26 83  1  0  0  0  0
 27 29  2  0  0  0  0
 27 82  1  0  0  0  0
 28 84  1  0  0  0  0
 29 85  1  0  0  0  0
 30 67  2  0  0  0  0
 31 66  2  0  0  0  0
 31 83  1  0  0  0  0
 32 68  1  0  0  0  0
 32 72  1  0  0  0  0
 33 73  1  0  0  0  0
 33 77  2  0  0  0  0
 34 52  1  0  0  0  0
 34 74  1  0  0  0  0
 34 78  2  0  0  0  0
 35 63  1  0  0  0  0
 35 69  1  0  0  0  0
 35 79  2  0  0  0  0
 36 64  1  0  0  0  0
 36 75  1  0  0  0  0
 36 80  2  0  0  0  0
 37 70  1  0  0  0  0
 37 71  1  0  0  0  0
 37 81  2  0  0  0  0
 38 41  1  0  0  0  0
 39 52  1  0  0  0  0
 40 69  1  0  0  0  0
 41 43  1  0  0  0  0
 42 44  1  0  0  0  0
 42 47  1  0  0  0  0
 43 51  1  0  0  0  0
 44 54  1  0  0  0  0
 45 48  1  0  0  0  0
 45 53  1  0  0  0  0
 46 49  1  0  0  0  0
 46 53  1  0  0  0  0
 47 70  1  0  0  0  0
 48 71  1  0  0  0  0
 49 71  1  0  0  0  0
 50 54  1  0  0  0  0
 50 70  1  0  0  0  0
 51 74  1  0  0  0  0
 52 69  1  0  0  0  0
 53 62  1  0  0  0  0
 54 68  1  0  0  0  0
 56 62  1  0  0  0  0
 57 64  1  0  0  0  0
 58 65  1  0  0  0  0
 59 65  1  0  0  0  0
 60 65  1  0  0  0  0
 61 76  1  0  0  0  0
 63 65  1  0  0  0  0
 63 75  1  0  0  0  0
 64 76  1  0  0  0  0
 67 68  1  0  0  0  0
M  CHG  1  76   1
M  ISO  4  31 101  37 100  71 100  83 101
M  END
> <Batch ID>
0153

> <Smiles>
CNC(C)C(=O)NC(C(=O)N1Cc2cc([101O:1][101c:1]3cc(C)c(C(C)C4CC[100N:0]([100C:0](=O)N5CCCC(n6nc(-c7ccc(Oc8ccc(F)cc8F)cc7)c(C(N)=O)c6N)C5)CC4)cn3)ccc2CC1C(=O)NC1CCCc2ccccc21)C(C)(C)C

> <Shape>
0.161

> <Color>
0.190

> <Negative vol penalty>
0.000

$$$$

  -OEChem-04052321483D

 86 95  0     1  0  0  0  0  0999 V2000
  -16.9341  -30.6351   23.4313 C   0  0  0  0  0  0  0  0  0  0  0  0
  -18.2379  -31.0579   23.1931 C   0  0  0  0  0  0  0  0  0  0  0  0
  -22.6045  -14.2984   21.8121 C   0  0  0  0  0  0  0  0  0  0  0  0
  -23.5070  -12.6708   20.2714 C   0  0  0  0  0  0  0  0  0  0  0  0
  -16.6534  -29.2740   23.5432 C   0  0  0  0  0  0  0  0  0  0  0  0
  -19.2620  -30.1199   23.0677 C   0  0  0  0  0  0  0  0  0  0  0  0
  -25.4399  -29.0275   19.6099 C   0  0  0  0  0  0  0  0  0  0  0  0
  -21.3470  -13.7050   21.7023 C   0  0  0  0  0  0  0  0  0  0  0  0
  -22.2495  -12.0774   20.1616 C   0  0  0  0  0  0  0  0  0  0  0  0
  -26.7701  -28.6936   19.8607 C   0  0  0  0  0  0  0  0  0  0  0  0
  -19.3564   -9.9135   19.7546 C   0  0  0  0  0  0  0  0  0  0  0  0
  -19.2878   -8.5216   19.8145 C   0  0  0  0  0  0  0  0  0  0  0  0
  -29.6463  -25.0238   22.6757 C   0  0  0  0  0  0  0  0  0  0  0  0
  -26.1542  -26.3650   19.9935 C   0  0  0  0  0  0  0  0  0  0  0  0
  -20.2580   -8.5691   22.0267 C   0  0  0  0  0  0  0  0  0  0  0  0
  -23.6846  -13.7813   21.0966 C   0  0  0  0  0  0  0  0  0  0  0  0
  -25.9955  -14.0780   22.1355 C   0  0  0  0  0  0  0  0  0  0  0  0
  -17.6729  -28.3183   23.4096 C   0  0  0  0  0  0  0  0  0  0  0  0
  -24.4535  -28.0322   19.5598 C   0  0  0  0  0  0  0  0  0  0  0  0
  -18.9949  -28.7448   23.1793 C   0  0  0  0  0  0  0  0  0  0  0  0
  -29.0779  -24.1930   23.6348 C   0  0  0  0  0  0  0  0  0  0  0  0
  -24.8126  -26.6887   19.7394 C   0  0  0  0  0  0  0  0  0  0  0  0
  -29.6590  -26.3998   22.8753 C   0  0  0  0  0  0  0  0  0  0  0  0
  -21.1695  -12.5945   20.8771 C   0  0  0  0  0  0  0  0  0  0  0  0
  -27.1270  -27.3625   20.0554 C   0  0  0  0  0  0  0  0  0  0  0  0
  -19.8759  -10.6332   20.8307 C   0  0  0  0  0  0  0  0  0  0  0  0
  -19.7386   -7.8494   20.9506 C   0  0  0  0  0  0  0  0  0  0  0  0
  -20.3266   -9.9610   21.9667 C   0  0  0  0  0  0  0  0  0  0  0  0
  -24.9837  -14.3942   21.2091 C   0  0  0  0  0  0  0  0  0  0  0  0
  -28.5396  -24.7830   24.7670 C   0  0  0  0  0  0  0  0  0  0  0  0
  -29.0945  -26.8910   24.0414 C   0  0  0  0  0  0  0  0  0  0  0  0
  -27.0225  -14.9368   21.8287 C   0  0  0  0  0  0  0  0  0  0  0  0
  -26.0060  -13.0958   23.1800 C   0  0  0  0  0  0  0  0  0  0  0  0
  -21.8282  -27.3896   21.2328 C   0  0  0  0  0  0  0  0  0  0  0  0
  -21.4199  -25.0976   18.9741 C   0  0  0  0  0  0  0  0  0  0  0  0
  -22.8288  -23.0568   16.6295 C   0  0  0  0  0  0  0  0  0  0  0  0
  -28.9976  -19.8596   20.4555 C   0  0  0  0  0  0  0  0  0  0  0  0
  -17.3290  -26.8604   23.5854 C   0  0  0  0  0  0  0  0  0  0  0  0
  -23.0273  -28.4061   19.2618 C   0  0  0  0  0  0  0  0  0  0  0  0
  -23.7948  -25.5804   19.6754 C   0  0  0  0  0  0  0  0  0  0  0  0
  -18.4080  -25.9132   23.0671 C   0  0  0  0  0  0  0  0  0  0  0  0
  -27.7063  -17.9813   17.8569 C   0  0  0  0  0  0  0  0  0  0  0  0
  -19.7856  -26.3602   23.5459 C   0  0  0  0  0  0  0  0  0  0  0  0
  -26.9628  -16.8475   18.5626 C   0  0  0  0  0  0  0  0  0  0  0  0
  -27.7636  -22.2186   22.7424 C   0  0  0  0  0  0  0  0  0  0  0  0
  -30.2932  -22.2045   22.6388 C   0  0  0  0  0  0  0  0  0  0  0  0
  -27.4855  -19.3081   18.5740 C   0  0  0  0  0  0  0  0  0  0  0  0
  -27.7672  -20.7062   22.5025 C   0  0  0  0  0  0  0  0  0  0  0  0
  -30.2385  -20.6941   22.4284 C   0  0  0  0  0  0  0  0  0  0  0  0
  -27.1390  -18.1575   20.7360 C   0  0  0  0  0  0  0  0  0  0  0  0
  -29.0610  -22.6908   23.4231 C   0  0  0  0  0  0  0  0  0  0  0  0
  -20.1287  -27.7565   23.0127 C   0  0  1  0  0  0  0  0  0  0  0  0
  -22.0232  -27.3634   19.7432 C   0  0  1  0  0  0  0  0  0  0  0  0
  -27.3338  -16.7875   20.0550 C   0  0  1  0  0  0  0  0  0  0  0  0
  -27.9146  -23.9408   25.8306 C   0  0  0  0  0  0  0  0  0  0  0  0
  -29.0814  -28.3605   24.3089 C   0  0  0  0  0  0  0  0  0  0  0  0
  -22.2464  -21.2660   14.9708 C   0  0  0  0  0  0  0  0  0  0  0  0
  -21.1596  -23.0796   21.2478 C   0  0  0  0  0  0  0  0  0  0  0  0
  -21.5349  -21.2533   19.5768 C   0  0  0  0  0  0  0  0  0  0  0  0
  -19.5465  -22.7449   19.3663 C   0  0  0  0  0  0  0  0  0  0  0  0
  -23.7858  -24.6905   14.3548 C   0  0  0  0  0  0  0  0  0  0  0  0
  -30.2662  -27.2954   21.8514 C   0  0  0  0  0  0  0  0  0  0  0  0
  -29.2234  -28.0017   20.9785 C   0  0  0  0  0  0  0  0  0  1  0  0
  -21.8421  -23.6558   18.8254 C   0  0  1  0  0  0  0  0  0  0  0  0
  -22.4433  -22.7577   15.1920 C   0  0  2  0  0  0  0  0  0  0  0  0
  -21.0399  -22.7042   19.7573 C   0  0  0  0  0  0  0  0  0  0  0  0
  -25.3360  -15.3772   20.3763 N   0  0  0  0  0  0  0  0  0  0  0  0
  -28.5333  -26.1153   24.9959 N   0  0  0  0  0  0  0  0  0  0  0  0
  -26.5806  -15.6862   20.7783 N   0  0  0  0  0  0  0  0  0  0  0  0
  -22.4125  -25.9973   19.3875 N   0  0  0  0  0  0  0  0  0  0  0  0
  -27.8456  -19.2092   19.9883 N   0  0  0  0  0  0  0  0  0  0  0  0
  -28.9847  -20.2967   21.7886 N   0  0  0  0  0  0  0  0  0  0  0  0
  -28.2515  -15.1165   22.3577 N   0  0  0  0  0  0  0  0  0  0  0  0
  -24.8678  -12.2975   23.3578 N   0  0  0  0  0  0  0  0  0  0  0  0
  -20.5361  -27.6819   21.6260 N   0  0  0  0  0  0  0  0  0  0  0  0
  -21.7251  -23.3405   17.4058 N   0  0  0  0  0  0  0  0  0  0  0  0
  -23.5048  -23.2347   14.2611 N   0  3  0  0  0  0  0  0  0  0  0  0
  -26.9891  -12.9422   23.9438 O   0  0  0  0  0  0  0  0  0  0  0  0
  -22.7792  -27.1601   21.9708 O   0  0  0  0  0  0  0  0  0  0  0  0
  -20.2541  -25.4150   18.7254 O   0  0  0  0  0  0  0  0  0  0  0  0
  -23.9923  -23.0369   17.0251 O   0  0  0  0  0  0  0  0  0  0  0  0
  -29.9805  -20.0389   19.7254 O   0  0  0  0  0  0  0  0  0  0  0  0
  -19.9425  -12.0150   20.7699 O   0  0  0  0  0  0  0  0  0  0  0  0
  -28.4336  -27.0316   20.3026 O   0  0  0  0  0  0  0  0  0  1  0  0
  -19.6713   -6.5129   21.0086 F   0  0  0  0  0  0  0  0  0  0  0  0
  -20.8255  -10.6470   23.0041 F   0  0  0  0  0  0  0  0  0  0  0  0
  1  2  1  0  0  0  0
  1  5  2  0  0  0  0
  2  6  2  0  0  0  0
  3  8  2  0  0  0  0
  3 16  1  0  0  0  0
  4  9  1  0  0  0  0
  4 16  2  0  0  0  0
  5 18  1  0  0  0  0
  6 20  1  0  0  0  0
  7 10  2  0  0  0  0
  7 19  1  0  0  0  0
  8 24  1  0  0  0  0
  9 24  2  0  0  0  0
 10 25  1  0  0  0  0
 11 12  2  0  0  0  0
 11 26  1  0  0  0  0
 12 27  1  0  0  0  0
 13 21  2  0  0  0  0
 13 23  1  0  0  0  0
 14 22  1  0  0  0  0
 14 25  2  0  0  0  0
 15 27  2  0  0  0  0
 15 28  1  0  0  0  0
 16 29  1  0  0  0  0
 17 29  1  0  0  0  0
 17 32  2  0  0  0  0
 17 33  1  0  0  0  0
 18 20  2  0  0  0  0
 18 38  1  0  0  0  0
 19 22  2  0  0  0  0
 19 39  1  0  0  0  0
 20 52  1  0  0  0  0
 21 30  1  0  0  0  0
 21 51  1  0  0  0  0
 22 40  1  0  0  0  0
 23 31  2  0  0  0  0
 23 62  1  0  0  0  0
 24 83  1  0  0  0  0
 25 84  1  0  0  0  0
 26 28  2  0  0  0  0
 26 83  1  0  0  0  0
 27 85  1  0  0  0  0
 28 86  1  0  0  0  0
 29 67  2  0  0  0  0
 30 55  1  0  0  0  0
 30 68  2  0  0  0  0
 31 56  1  0  0  0  0
 31 68  1  0  0  0  0
 32 69  1  0  0  0  0
 32 73  1  0  0  0  0
 33 74  1  0  0  0  0
 33 78  2  0  0  0  0
 34 53  1  0  0  0  0
 34 75  1  0  0  0  0
 34 79  2  0  0  0  0
 35 64  1  0  0  0  0
 35 70  1  0  0  0  0
 35 80  2  0  0  0  0
 36 65  1  0  0  0  0
 36 76  1  0  0  0  0
 36 81  2  0  0  0  0
 37 71  1  0  0  0  0
 37 72  1  0  0  0  0
 37 82  2  0  0  0  0
 38 41  1  0  0  0  0
 39 53  1  0  0  0  0
 40 70  1  0  0  0  0
 41 43  1  0  0  0  0
 42 44  1  0  0  0  0
 42 47  1  0  0  0  0
 43 52  1  0  0  0  0
 44 54  1  0  0  0  0
 45 48  1  0  0  0  0
 45 51  1  0  0  0  0
 46 49  1  0  0  0  0
 46 51  1  0  0  0  0
 47 71  1  0  0  0  0
 48 72  1  0  0  0  0
 49 72  1  0  0  0  0
 50 54  1  0  0  0  0
 50 71  1  0  0  0  0
 52 75  1  0  0  0  0
 53 70  1  0  0  0  0
 54 69  1  0  0  0  0
 57 65  1  0  0  0  0
 58 66  1  0  0  0  0
 59 66  1  0  0  0  0
 60 66  1  0  0  0  0
 61 77  1  0  0  0  0
 62 63  1  0  0  0  0
 63 84  1  0  0  0  0
 64 66  1  0  0  0  0
 64 76  1  0  0  0  0
 65 77  1  0  0  0  0
 67 69  1  0  0  0  0
M  CHG  1  77   1
M  ISO  4  37 100  63 101  72 100  84 101
M  END
> <Batch ID>
0153

> <Smiles>
CNC(C)C(=O)NC(C(=O)N1Cc2cc([101O:1][101CH2:1]Cc3cc(C4CC[100N:0]([100C:0](=O)N5CCCC(n6nc(-c7ccc(Oc8ccc(F)cc8F)cc7)c(C(N)=O)c6N)C5)CC4)c(C)nc3C)ccc2CC1C(=O)NC1CCCc2ccccc21)C(C)(C)C

> <Shape>
0.194

> <Color>
0.084

> <Negative vol penalty>
0.000

$$$$

  -OEChem-04052321483D

 86 95  0     1  0  0  0  0  0999 V2000
  -36.8138  -31.3028   18.7199 C   0  0  0  0  0  0  0  0  0  0  0  0
  -36.8346  -30.3728   19.7543 C   0  0  0  0  0  0  0  0  0  0  0  0
  -23.0316   -9.8483   19.9368 C   0  0  0  0  0  0  0  0  0  0  0  0
  -23.6820   -9.8821   22.2634 C   0  0  0  0  0  0  0  0  0  0  0  0
  -35.6476  -31.4952   17.9803 C   0  0  0  0  0  0  0  0  0  0  0  0
  -35.6889  -29.6353   20.0505 C   0  0  0  0  0  0  0  0  0  0  0  0
  -35.4469  -23.8404   22.0169 C   0  0  0  0  0  0  0  0  0  0  0  0
  -22.2628   -8.7077   20.1683 C   0  0  0  0  0  0  0  0  0  0  0  0
  -22.9132   -8.7415   22.4949 C   0  0  0  0  0  0  0  0  0  0  0  0
  -35.2957  -23.2866   23.2874 C   0  0  0  0  0  0  0  0  0  0  0  0
  -21.4100   -5.6304   23.6226 C   0  0  0  0  0  0  0  0  0  0  0  0
  -21.9768   -4.6108   24.3873 C   0  0  0  0  0  0  0  0  0  0  0  0
  -32.9250  -23.0631   22.9014 C   0  0  0  0  0  0  0  0  0  0  0  0
  -32.1801  -19.8229   25.8274 C   0  0  0  0  0  0  0  0  0  0  0  0
  -34.0598  -18.4120   25.2677 C   0  0  0  0  0  0  0  0  0  0  0  0
  -23.7573   -4.3873   22.7696 C   0  0  0  0  0  0  0  0  0  0  0  0
  -23.7412  -10.4355   20.9844 C   0  0  0  0  0  0  0  0  0  0  0  0
  -24.1188  -12.9544   20.8431 C   0  0  0  0  0  0  0  0  0  0  0  0
  -34.4898  -30.7527   18.2613 C   0  0  0  0  0  0  0  0  0  0  0  0
  -34.3347  -24.0201   21.1819 C   0  0  0  0  0  0  0  0  0  0  0  0
  -34.5057  -29.8188   19.3148 C   0  0  0  0  0  0  0  0  0  0  0  0
  -33.0651  -23.6171   21.6197 C   0  0  0  0  0  0  0  0  0  0  0  0
  -31.8205  -17.7383   24.6602 C   0  0  0  0  0  0  0  0  0  0  0  0
  -33.5530  -19.5772   25.8433 C   0  0  0  0  0  0  0  0  0  0  0  0
  -31.3138  -18.9034   25.2358 C   0  0  0  0  0  0  0  0  0  0  0  0
  -22.2036   -8.1543   21.4474 C   0  0  0  0  0  0  0  0  0  0  0  0
  -34.0342  -22.9005   23.7310 C   0  0  0  0  0  0  0  0  0  0  0  0
  -22.0169   -6.0284   22.4313 C   0  0  0  0  0  0  0  0  0  0  0  0
  -33.1935  -17.4926   24.6761 C   0  0  0  0  0  0  0  0  0  0  0  0
  -23.1504   -3.9892   23.9608 C   0  0  0  0  0  0  0  0  0  0  0  0
  -23.1905   -5.4069   22.0048 C   0  0  0  0  0  0  0  0  0  0  0  0
  -24.5360  -11.6134   20.7458 C   0  0  0  0  0  0  0  0  0  0  0  0
  -25.2359  -13.6858   20.5210 C   0  0  0  0  0  0  0  0  0  0  0  0
  -22.8362  -13.4911   21.1934 C   0  0  0  0  0  0  0  0  0  0  0  0
  -32.9067  -26.5322   19.8575 C   0  0  0  0  0  0  0  0  0  0  0  0
  -31.1309  -24.2536   18.3821 C   0  0  0  0  0  0  0  0  0  0  0  0
  -29.9225  -21.0620   18.3959 C   0  0  0  0  0  0  0  0  0  0  0  0
  -30.7177  -14.6014   20.9780 C   0  0  0  0  0  0  0  0  0  0  0  0
  -33.2390  -31.0293   17.4652 C   0  0  0  0  0  0  0  0  0  0  0  0
  -34.5185  -24.5944   19.8039 C   0  0  0  0  0  0  0  0  0  0  0  0
  -31.8422  -23.7700   20.7540 C   0  0  0  0  0  0  0  0  0  0  0  0
  -32.1784  -29.9397   17.5992 C   0  0  0  0  0  0  0  0  0  0  0  0
  -29.6509  -12.2812   18.5364 C   0  0  0  0  0  0  0  0  0  0  0  0
  -31.9936  -29.5516   19.0627 C   0  0  0  0  0  0  0  0  0  0  0  0
  -28.2030  -11.9785   18.9122 C   0  0  0  0  0  0  0  0  0  0  0  0
  -30.9139  -15.3052   24.5725 C   0  0  0  0  0  0  0  0  0  0  0  0
  -30.5093  -12.4501   19.7828 C   0  0  0  0  0  0  0  0  0  0  0  0
  -30.2091  -14.5026   23.4872 C   0  0  0  0  0  0  0  0  0  0  0  0
  -31.1506  -16.4853   22.5257 C   0  0  0  0  0  0  0  0  0  0  0  0
  -28.5606  -13.2603   21.0852 C   0  0  0  0  0  0  0  0  0  0  0  0
  -30.8857  -16.7382   24.0165 C   0  0  2  0  0  0  0  0  0  0  0  0
  -33.2903  -28.9818   19.6503 C   0  0  1  0  0  0  0  0  0  0  0  0
  -33.2413  -25.2057   19.2361 C   0  0  1  0  0  0  0  0  0  0  0  0
  -27.6511  -13.0585   19.8556 C   0  0  2  0  0  0  0  0  0  0  0  0
  -29.8477  -19.1892   25.2330 C   0  0  0  0  0  0  0  0  0  0  0  0
  -28.4672  -19.5009   17.0758 C   0  0  0  0  0  0  0  0  0  0  0  0
  -28.6490  -25.6927   19.4208 C   0  0  0  0  0  0  0  0  0  0  0  0
  -27.3242  -23.6312   18.9077 C   0  0  0  0  0  0  0  0  0  0  0  0
  -28.4677  -24.8671   17.0671 C   0  0  0  0  0  0  0  0  0  0  0  0
  -32.1530  -19.1666   17.9587 C   0  0  0  0  0  0  0  0  0  0  0  0
  -35.1213  -16.1914   24.1799 C   0  0  0  0  0  0  0  0  0  0  0  0
  -34.4789  -20.5598   26.4770 C   0  0  0  0  0  0  0  0  0  0  0  0
  -34.9852  -21.6223   25.4967 C   0  0  0  0  0  0  0  0  0  1  0  0
  -29.8495  -23.5227   18.7027 C   0  0  1  0  0  0  0  0  0  0  0  0
  -29.8853  -19.9943   17.3174 C   0  0  2  0  0  0  0  0  0  0  0  0
  -28.5952  -24.4272   18.5419 C   0  0  0  0  0  0  0  0  0  0  0  0
  -25.8180  -11.4968   20.3896 N   0  0  0  0  0  0  0  0  0  0  0  0
  -26.2160  -12.7739   20.2602 N   0  0  0  0  0  0  0  0  0  0  0  0
  -32.0725  -24.3424   19.4172 N   0  0  0  0  0  0  0  0  0  0  0  0
  -29.9604  -13.4610   20.6885 N   0  0  0  0  0  0  0  0  0  0  0  0
  -30.5789  -15.1728   22.2423 N   0  0  0  0  0  0  0  0  0  0  0  0
  -25.4656  -15.0135   20.4382 N   0  0  0  0  0  0  0  0  0  0  0  0
  -21.7986  -12.5988   21.4957 N   0  0  0  0  0  0  0  0  0  0  0  0
  -33.4825  -27.6139   19.2189 N   0  0  0  0  0  0  0  0  0  0  0  0
  -29.8383  -22.3305   17.8619 N   0  0  0  0  0  0  0  0  0  0  0  0
  -30.7272  -18.8298   17.7122 N   0  3  0  0  0  0  0  0  0  0  0  0
  -22.6124  -14.7250   21.2210 O   0  0  0  0  0  0  0  0  0  0  0  0
  -32.1788  -26.5716   20.8425 O   0  0  0  0  0  0  0  0  0  0  0  0
  -31.2936  -24.7221   17.2526 O   0  0  0  0  0  0  0  0  0  0  0  0
  -30.0131  -20.7971   19.5926 O   0  0  0  0  0  0  0  0  0  0  0  0
  -31.5177  -15.0677   20.1555 O   0  0  0  0  0  0  0  0  0  0  0  0
  -21.4534   -7.0414   21.6737 O   0  0  0  0  0  0  0  0  0  0  0  0
  -33.7066  -16.3606   24.1179 O   0  0  0  0  0  0  0  0  0  0  0  0
  -33.8827  -22.3565   24.9796 O   0  0  0  0  0  0  0  0  0  1  0  0
  -23.6954   -3.0112   24.6960 F   0  0  0  0  0  0  0  0  0  0  0  0
  -23.7787   -5.7857   20.8619 F   0  0  0  0  0  0  0  0  0  0  0  0
  1  2  1  0  0  0  0
  1  5  2  0  0  0  0
  2  6  2  0  0  0  0
  3  8  2  0  0  0  0
  3 17  1  0  0  0  0
  4  9  1  0  0  0  0
  4 17  2  0  0  0  0
  5 19  1  0  0  0  0
  6 21  1  0  0  0  0
  7 10  2  0  0  0  0
  7 20  1  0  0  0  0
  8 26  1  0  0  0  0
  9 26  2  0  0  0  0
 10 27  1  0  0  0  0
 11 12  2  0  0  0  0
 11 28  1  0  0  0  0
 12 30  1  0  0  0  0
 13 22  1  0  0  0  0
 13 27  2  0  0  0  0
 14 24  1  0  0  0  0
 14 25  2  0  0  0  0
 15 24  2  0  0  0  0
 15 29  1  0  0  0  0
 16 30  2  0  0  0  0
 16 31  1  0  0  0  0
 17 32  1  0  0  0  0
 18 32  1  0  0  0  0
 18 33  2  0  0  0  0
 18 34  1  0  0  0  0
 19 21  2  0  0  0  0
 19 39  1  0  0  0  0
 20 22  2  0  0  0  0
 20 40  1  0  0  0  0
 21 52  1  0  0  0  0
 22 41  1  0  0  0  0
 23 25  1  0  0  0  0
 23 29  2  0  0  0  0
 23 51  1  0  0  0  0
 24 62  1  0  0  0  0
 25 55  1  0  0  0  0
 26 82  1  0  0  0  0
 27 84  1  0  0  0  0
 28 31  2  0  0  0  0
 28 82  1  0  0  0  0
 29 83  1  0  0  0  0
 30 85  1  0  0  0  0
 31 86  1  0  0  0  0
 32 67  2  0  0  0  0
 33 68  1  0  0  0  0
 33 72  1  0  0  0  0
 34 73  1  0  0  0  0
 34 77  2  0  0  0  0
 35 53  1  0  0  0  0
 35 74  1  0  0  0  0
 35 78  2  0  0  0  0
 36 64  1  0  0  0  0
 36 69  1  0  0  0  0
 36 79  2  0  0  0  0
 37 65  1  0  0  0  0
 37 75  1  0  0  0  0
 37 80  2  0  0  0  0
 38 70  1  0  0  0  0
 38 71  1  0  0  0  0
 38 81  2  0  0  0  0
 39 42  1  0  0  0  0
 40 53  1  0  0  0  0
 41 69  1  0  0  0  0
 42 44  1  0  0  0  0
 43 45  1  0  0  0  0
 43 47  1  0  0  0  0
 44 52  1  0  0  0  0
 45 54  1  0  0  0  0
 46 48  1  0  0  0  0
 46 51  1  0  0  0  0
 47 70  1  0  0  0  0
 48 71  1  0  0  0  0
 49 51  1  0  0  0  0
 49 71  1  0  0  0  0
 50 54  1  0  0  0  0
 50 70  1  0  0  0  0
 52 74  1  0  0  0  0
 53 69  1  0  0  0  0
 54 68  1  0  0  0  0
 56 65  1  0  0  0  0
 57 66  1  0  0  0  0
 58 66  1  0  0  0  0
 59 66  1  0  0  0  0
 60 76  1  0  0  0  0
 61 83  1  0  0  0  0
 62 63  1  0  0  0  0
 63 84  1  0  0  0  0
 64 66  1  0  0  0  0
 64 75  1  0  0  0  0
 65 76  1  0  0  0  0
 67 68  1  0  0  0  0
M  CHG  1  76   1
M  ISO  4  38 100  63 101  71 100  84 101
M  END
> <Batch ID>
0153

> <Smiles>
CNC(C)C(=O)NC(C(=O)N1Cc2cc([101O:1][101CH2:1]Cc3cc(C)c(C4CC[100N:0]([100C:0](=O)N5CCCC(n6nc(-c7ccc(Oc8ccc(F)cc8F)cc7)c(C(N)=O)c6N)C5)C4)c(OC)c3)ccc2CC1C(=O)NC1CCCc2ccccc21)C(C)(C)C

> <Shape>
0.217

> <Color>
0.212

> <Negative vol penalty>
0.000

$$$$

  -OEChem-04052321483D

 88 97  0     1  0  0  0  0  0999 V2000
  -24.8439  -21.8246   31.5171 C   0  0  0  0  0  0  0  0  0  0  0  0
  -24.3799  -23.0095   30.9549 C   0  0  0  0  0  0  0  0  0  0  0  0
  -26.8332  -15.4508   21.9310 C   0  0  0  0  0  0  0  0  0  0  0  0
  -26.5593  -15.8873   19.5706 C   0  0  0  0  0  0  0  0  0  0  0  0
  -25.4198  -20.8480   30.7057 C   0  0  0  0  0  0  0  0  0  0  0  0
  -24.4925  -23.2189   29.5809 C   0  0  0  0  0  0  0  0  0  0  0  0
  -21.1234  -26.4143   24.1260 C   0  0  0  0  0  0  0  0  0  0  0  0
  -25.5268  -28.8861   21.3190 C   0  0  0  0  0  0  0  0  0  0  0  0
  -25.6490  -14.7137   21.9321 C   0  0  0  0  0  0  0  0  0  0  0  0
  -25.3751  -15.1502   19.5717 C   0  0  0  0  0  0  0  0  0  0  0  0
  -21.3670  -27.3102   23.0860 C   0  0  0  0  0  0  0  0  0  0  0  0
  -26.7367  -28.1914   21.3066 C   0  0  0  0  0  0  0  0  0  0  0  0
  -24.6406  -11.6184   21.0181 C   0  0  0  0  0  0  0  0  0  0  0  0
  -24.6406  -10.3927   21.6838 C   0  0  0  0  0  0  0  0  0  0  0  0
  -26.3979  -27.6547   18.9827 C   0  0  0  0  0  0  0  0  0  0  0  0
  -22.3075  -25.5194   21.7716 C   0  0  0  0  0  0  0  0  0  0  0  0
  -22.8870  -11.1858   23.1442 C   0  0  0  0  0  0  0  0  0  0  0  0
  -27.2883  -16.0376   20.7502 C   0  0  0  0  0  0  0  0  0  0  0  0
  -29.8123  -16.3185   20.5084 C   0  0  0  0  0  0  0  0  0  0  0  0
  -25.5308  -21.0415   29.3197 C   0  0  0  0  0  0  0  0  0  0  0  0
  -21.4806  -25.0640   24.0006 C   0  0  0  0  0  0  0  0  0  0  0  0
  -25.0716  -22.2446   28.7503 C   0  0  0  0  0  0  0  0  0  0  0  0
  -24.7256  -28.9631   20.1668 C   0  0  0  0  0  0  0  0  0  0  0  0
  -25.1883  -28.3660   18.9818 C   0  0  0  0  0  0  0  0  0  0  0  0
  -22.0651  -24.6079   22.8105 C   0  0  0  0  0  0  0  0  0  0  0  0
  -24.9199  -14.5634   20.7525 C   0  0  0  0  0  0  0  0  0  0  0  0
  -21.9617  -26.8635   21.9096 C   0  0  0  0  0  0  0  0  0  0  0  0
  -27.1682  -27.5685   20.1405 C   0  0  0  0  0  0  0  0  0  0  0  0
  -23.7638  -12.6279   21.4156 C   0  0  0  0  0  0  0  0  0  0  0  0
  -23.7638  -10.1763   22.7468 C   0  0  0  0  0  0  0  0  0  0  0  0
  -22.8870  -12.4116   22.4786 C   0  0  0  0  0  0  0  0  0  0  0  0
  -28.5112  -16.7996   20.7486 C   0  0  0  0  0  0  0  0  0  0  0  0
  -30.6145  -17.4278   20.6196 C   0  0  0  0  0  0  0  0  0  0  0  0
  -30.2560  -14.9879   20.2113 C   0  0  0  0  0  0  0  0  0  0  0  0
  -23.4689  -23.1177   25.5375 C   0  0  0  0  0  0  0  0  0  0  0  0
  -22.1312  -20.8701   23.6189 C   0  0  0  0  0  0  0  0  0  0  0  0
  -20.4898  -20.1434   20.7163 C   0  0  0  0  0  0  0  0  0  0  0  0
  -29.5220  -23.1664   19.8181 C   0  0  0  0  0  0  0  0  0  0  0  0
  -26.2036  -19.9770   28.4897 C   0  0  0  0  0  0  0  0  0  0  0  0
  -21.1868  -24.1049   25.1214 C   0  0  0  0  0  0  0  0  0  0  0  0
  -24.3859  -28.4607   17.7148 C   0  0  0  0  0  0  0  0  0  0  0  0
  -22.4489  -23.1642   22.6180 C   0  0  0  0  0  0  0  0  0  0  0  0
  -25.9453  -20.1186   26.9919 C   0  0  0  0  0  0  0  0  0  0  0  0
  -30.8580  -21.6667   22.8275 C   0  0  0  0  0  0  0  0  0  0  0  0
  -26.1422  -21.5655   26.5506 C   0  0  0  0  0  0  0  0  0  0  0  0
  -30.5261  -20.1906   22.6026 C   0  0  0  0  0  0  0  0  0  0  0  0
  -29.7430  -22.5705   22.3087 C   0  0  0  0  0  0  0  0  0  0  0  0
  -29.0593  -20.8811   20.6514 C   0  0  0  0  0  0  0  0  0  0  0  0
  -23.5662  -29.7391   17.6758 C   0  0  0  0  0  0  0  0  0  0  0  0
  -25.1535  -22.4982   27.2606 C   0  0  1  0  0  0  0  0  0  0  0  0
  -23.4035  -29.7136   20.2101 C   0  0  2  0  0  0  0  0  0  0  0  0
  -22.0610  -22.8553   25.0831 C   0  0  1  0  0  0  0  0  0  0  0  0
  -30.1589  -19.9171   21.1322 C   0  0  2  0  0  0  0  0  0  0  0  0
  -19.5648  -18.2131   19.4066 C   0  0  0  0  0  0  0  0  0  0  0  0
  -20.5466  -30.5367   17.8512 C   0  0  0  0  0  0  0  0  0  0  0  0
  -22.4538  -32.1369   18.2710 C   0  0  0  0  0  0  0  0  0  0  0  0
  -24.9562  -20.1041   22.7573 C   0  0  0  0  0  0  0  0  0  0  0  0
  -23.9575  -18.8865   20.8109 C   0  0  0  0  0  0  0  0  0  0  0  0
  -23.4206  -18.1674   23.1384 C   0  0  0  0  0  0  0  0  0  0  0  0
  -17.7370  -21.2218   20.8497 C   0  0  0  0  0  0  0  0  0  0  0  0
  -22.4580  -29.0937   21.2496 C   0  0  0  0  0  0  0  0  0  1  0  0
  -30.0284  -25.5164   19.0916 C   0  0  0  0  0  0  0  0  0  0  0  0
  -28.7248  -26.2699   18.8970 C   0  0  0  0  0  0  0  0  0  0  0  0
  -22.4343  -20.3179   22.2470 C   0  0  1  0  0  0  0  0  0  0  0  0
  -19.2657  -19.2899   20.4379 C   0  0  2  0  0  0  0  0  0  0  0  0
  -21.6885  -30.9246   18.7768 C   0  0  0  0  0  0  0  0  0  0  0  0
  -23.6868  -19.3966   22.2425 C   0  0  0  0  0  0  0  0  0  0  0  0
  -28.4840  -18.1122   20.9940 N   0  0  0  0  0  0  0  0  0  0  0  0
  -29.7778  -18.4654   20.9087 N   0  0  0  0  0  0  0  0  0  0  0  0
  -22.1470  -22.2664   23.7451 N   0  0  0  0  0  0  0  0  0  0  0  0
  -29.4554  -22.2720   20.8983 N   0  0  0  0  0  0  0  0  0  0  0  0
  -31.9469  -17.6071   20.4974 N   0  0  0  0  0  0  0  0  0  0  0  0
  -29.2996  -13.9663   20.1341 N   0  0  0  0  0  0  0  0  0  0  0  0
  -23.8420  -22.3985   26.6569 N   0  0  0  0  0  0  0  0  0  0  0  0
  -21.2117  -19.6663   21.7899 N   0  0  0  0  0  0  0  0  0  0  0  0
  -29.9073  -24.4671   20.1248 N   0  0  0  0  0  0  0  0  0  0  0  0
  -22.6445  -29.7601   18.8712 N   0  3  1  0  0  0  0  0  0  0  0  0
  -18.1507  -20.1352   19.9249 N   0  3  0  0  0  0  0  0  0  0  0  0
  -31.4666  -14.7100   20.0361 O   0  0  0  0  0  0  0  0  0  0  0  0
  -24.1656  -23.9126   24.9176 O   0  0  0  0  0  0  0  0  0  0  0  0
  -21.8823  -20.0916   24.5427 O   0  0  0  0  0  0  0  0  0  0  0  0
  -20.7790  -21.1322   20.0460 O   0  0  0  0  0  0  0  0  0  0  0  0
  -29.2631  -22.8344   18.6561 O   0  0  0  0  0  0  0  0  0  0  0  0
  -23.7645  -13.8440   20.7532 O   0  0  0  0  0  0  0  0  0  0  0  0
  -22.2012  -27.7360   20.8932 O   0  0  0  0  0  0  0  0  0  1  0  0
  -28.3441  -26.8840   20.1275 O   0  0  0  0  0  0  0  0  0  0  0  0
  -23.7628   -8.9986   23.3849 F   0  0  0  0  0  0  0  0  0  0  0  0
  -22.0415  -13.3771   22.8641 F   0  0  0  0  0  0  0  0  0  0  0  0
  1  2  1  0  0  0  0
  1  5  2  0  0  0  0
  2  6  2  0  0  0  0
  3  9  2  0  0  0  0
  3 18  1  0  0  0  0
  4 10  1  0  0  0  0
  4 18  2  0  0  0  0
  5 20  1  0  0  0  0
  6 22  1  0  0  0  0
  7 11  2  0  0  0  0
  7 21  1  0  0  0  0
  8 12  2  0  0  0  0
  8 23  1  0  0  0  0
  9 26  1  0  0  0  0
 10 26  2  0  0  0  0
 11 27  1  0  0  0  0
 12 28  1  0  0  0  0
 13 14  2  0  0  0  0
 13 29  1  0  0  0  0
 14 30  1  0  0  0  0
 15 24  1  0  0  0  0
 15 28  2  0  0  0  0
 16 25  1  0  0  0  0
 16 27  2  0  0  0  0
 17 30  2  0  0  0  0
 17 31  1  0  0  0  0
 18 32  1  0  0  0  0
 19 32  1  0  0  0  0
 19 33  2  0  0  0  0
 19 34  1  0  0  0  0
 20 22  2  0  0  0  0
 20 39  1  0  0  0  0
 21 25  2  0  0  0  0
 21 40  1  0  0  0  0
 22 50  1  0  0  0  0
 23 24  2  0  0  0  0
 23 51  1  0  0  0  0
 24 41  1  0  0  0  0
 25 42  1  0  0  0  0
 26 84  1  0  0  0  0
 27 85  1  0  0  0  0
 28 86  1  0  0  0  0
 29 31  2  0  0  0  0
 29 84  1  0  0  0  0
 30 87  1  0  0  0  0
 31 88  1  0  0  0  0
 32 68  2  0  0  0  0
 33 69  1  0  0  0  0
 33 72  1  0  0  0  0
 34 73  1  0  0  0  0
 34 79  2  0  0  0  0
 35 52  1  0  0  0  0
 35 74  1  0  0  0  0
 35 80  2  0  0  0  0
 36 64  1  0  0  0  0
 36 70  1  0  0  0  0
 36 81  2  0  0  0  0
 37 65  1  0  0  0  0
 37 75  1  0  0  0  0
 37 82  2  0  0  0  0
 38 71  1  0  0  0  0
 38 76  1  0  0  0  0
 38 83  2  0  0  0  0
 39 43  1  0  0  0  0
 40 52  1  0  0  0  0
 41 49  1  0  0  0  0
 42 70  1  0  0  0  0
 43 45  1  0  0  0  0
 44 46  1  0  0  0  0
 44 47  1  0  0  0  0
 45 50  1  0  0  0  0
 46 53  1  0  0  0  0
 47 71  1  0  0  0  0
 48 53  1  0  0  0  0
 48 71  1  0  0  0  0
 49 77  1  0  0  0  0
 50 74  1  0  0  0  0
 51 61  1  0  0  0  0
 51 77  1  0  0  0  0
 52 70  1  0  0  0  0
 53 69  1  0  0  0  0
 54 65  1  0  0  0  0
 55 66  1  0  0  0  0
 56 66  1  0  0  0  0
 57 67  1  0  0  0  0
 58 67  1  0  0  0  0
 59 67  1  0  0  0  0
 60 78  1  0  0  0  0
 61 85  1  0  0  0  0
 62 63  1  0  0  0  0
 62 76  1  0  0  0  0
 63 86  1  0  0  0  0
 64 67  1  0  0  0  0
 64 75  1  0  0  0  0
 65 78  1  0  0  0  0
 66 77  1  0  0  0  0
 68 69  1  0  0  0  0
M  CHG  2  77   1  78   1
M  ISO  4  38 100  61 101  76 100  85 101
M  END
> <Batch ID>
0153

> <Smiles>
CNC(C)C(=O)NC(C(=O)N1Cc2cc([101O:1][101CH2:1]C3c4ccc(OCC[100NH:0][100C:0](=O)N5CCCC(n6nc(-c7ccc(Oc8ccc(F)cc8F)cc7)c(C(N)=O)c6N)C5)cc4CCN3C(C)C)ccc2CC1C(=O)NC1CCCc2ccccc21)C(C)(C)C

> <Shape>
0.206

> <Color>
0.071

> <Negative vol penalty>
0.000

$$$$

  -OEChem-04052321483D

 89 99  0     1  0  0  0  0  0999 V2000
  -26.6659  -37.6601   22.8551 C   0  0  0  0  0  0  0  0  0  0  0  0
  -27.3164  -36.5520   22.3219 C   0  0  0  0  0  0  0  0  0  0  0  0
  -23.8599   -9.9714   20.7601 C   0  0  0  0  0  0  0  0  0  0  0  0
  -22.5022   -9.9054   22.7574 C   0  0  0  0  0  0  0  0  0  0  0  0
  -25.6620  -37.4866   23.8068 C   0  0  0  0  0  0  0  0  0  0  0  0
  -26.9639  -35.2696   22.7411 C   0  0  0  0  0  0  0  0  0  0  0  0
  -26.9032  -30.1733   19.3455 C   0  0  0  0  0  0  0  0  0  0  0  0
  -23.4742   -8.6662   20.4547 C   0  0  0  0  0  0  0  0  0  0  0  0
  -22.1165   -8.6001   22.4521 C   0  0  0  0  0  0  0  0  0  0  0  0
  -27.8163  -29.1292   19.2044 C   0  0  0  0  0  0  0  0  0  0  0  0
  -20.7857   -7.1114   19.1178 C   0  0  0  0  0  0  0  0  0  0  0  0
  -20.4144   -6.8362   17.8018 C   0  0  0  0  0  0  0  0  0  0  0  0
  -26.5864  -27.8417   20.8320 C   0  0  0  0  0  0  0  0  0  0  0  0
  -22.1891   -5.2047   17.6421 C   0  0  0  0  0  0  0  0  0  0  0  0
  -23.3739  -10.5910   21.9115 C   0  0  0  0  0  0  0  0  0  0  0  0
  -23.1329  -13.1294   21.8327 C   0  0  0  0  0  0  0  0  0  0  0  0
  -25.2904  -36.2010   24.2308 C   0  0  0  0  0  0  0  0  0  0  0  0
  -25.8292  -30.0635   20.2404 C   0  0  0  0  0  0  0  0  0  0  0  0
  -25.9550  -35.0788   23.7004 C   0  0  0  0  0  0  0  0  0  0  0  0
  -25.6596  -28.8848   20.9807 C   0  0  0  0  0  0  0  0  0  0  0  0
  -22.6025   -7.9806   21.3007 C   0  0  0  0  0  0  0  0  0  0  0  0
  -27.6597  -27.9644   19.9499 C   0  0  0  0  0  0  0  0  0  0  0  0
  -21.8588   -6.4333   19.6960 C   0  0  0  0  0  0  0  0  0  0  0  0
  -21.1161   -5.8829   17.0639 C   0  0  0  0  0  0  0  0  0  0  0  0
  -22.5605   -5.4799   18.9582 C   0  0  0  0  0  0  0  0  0  0  0  0
  -23.7724  -11.9391   22.2277 C   0  0  0  0  0  0  0  0  0  0  0  0
  -23.8959  -14.1288   22.3854 C   0  0  0  0  0  0  0  0  0  0  0  0
  -21.9545  -13.3151   21.0373 C   0  0  0  0  0  0  0  0  0  0  0  0
  -24.9056  -31.6419   22.8403 C   0  0  0  0  0  0  0  0  0  0  0  0
  -22.2998  -29.7245   22.6040 C   0  0  0  0  0  0  0  0  0  0  0  0
  -20.9432  -26.8070   21.4662 C   0  0  0  0  0  0  0  0  0  0  0  0
  -29.0270  -16.2258   23.2893 C   0  0  0  0  0  0  0  0  0  0  0  0
  -24.2320  -36.0657   25.2967 C   0  0  0  0  0  0  0  0  0  0  0  0
  -24.8378  -31.1882   20.3613 C   0  0  0  0  0  0  0  0  0  0  0  0
  -24.5120  -28.7091   21.9402 C   0  0  0  0  0  0  0  0  0  0  0  0
  -23.6597  -34.6552   25.4113 C   0  0  0  0  0  0  0  0  0  0  0  0
  -27.6402  -13.9385   25.7852 C   0  0  0  0  0  0  0  0  0  0  0  0
  -24.7824  -33.6225   25.4179 C   0  0  0  0  0  0  0  0  0  0  0  0
  -26.4794  -13.2851   25.0314 C   0  0  0  0  0  0  0  0  0  0  0  0
  -28.2655  -23.9388   17.5651 C   0  0  0  0  0  0  0  0  0  0  0  0
  -27.8684  -23.2342   19.9665 C   0  0  0  0  0  0  0  0  0  0  0  0
  -28.6917  -25.3239   18.0454 C   0  0  0  0  0  0  0  0  0  0  0  0
  -28.2951  -24.6212   20.4411 C   0  0  0  0  0  0  0  0  0  0  0  0
  -29.3030  -17.8788   20.1495 C   0  0  0  0  0  0  0  0  0  0  0  0
  -28.7860  -14.3247   24.8515 C   0  0  0  0  0  0  0  0  0  0  0  0
  -27.2334  -14.4797   22.9444 C   0  0  0  0  0  0  0  0  0  0  0  0
  -27.0676  -17.1379   21.9169 C   0  0  0  0  0  0  0  0  0  0  0  0
  -25.5838  -33.6705   24.1115 C   0  0  1  0  0  0  0  0  0  0  0  0
  -24.0731  -31.1714   21.6813 C   0  0  1  0  0  0  0  0  0  0  0  0
  -27.8394  -18.0278   19.6845 C   0  0  1  0  0  0  0  0  0  0  0  0
  -26.0300  -14.1499   23.8375 C   0  0  1  0  0  0  0  0  0  0  0  0
  -28.5359  -22.8857   18.6378 C   0  0  0  0  0  0  0  0  0  0  0  0
  -27.1312  -18.3688   21.0081 C   0  0  2  0  0  0  0  0  0  0  0  0
  -28.0345  -25.6870   19.3762 C   0  0  0  0  0  0  0  0  0  1  0  0
  -29.1753  -18.1094   21.6554 C   0  0  2  0  0  0  0  0  0  0  0  0
  -30.0843  -20.9987   16.9578 C   0  0  0  0  0  0  0  0  0  0  0  0
  -18.8003  -25.5012   21.4611 C   0  0  0  0  0  0  0  0  0  0  0  0
  -26.2450  -19.2109   18.1453 C   0  0  0  0  0  0  0  0  0  0  0  0
  -22.7946  -28.9059   25.5014 C   0  0  0  0  0  0  0  0  0  0  0  0
  -21.2657  -26.9568   25.1387 C   0  0  0  0  0  0  0  0  0  0  0  0
  -20.3917  -29.2829   24.9197 C   0  0  0  0  0  0  0  0  0  0  0  0
  -20.7607  -26.8959   18.5136 C   0  0  0  0  0  0  0  0  0  0  0  0
  -28.5928  -21.2124   16.8199 C   0  0  0  0  0  0  0  0  0  0  0  0
  -28.1881  -20.4976   19.1706 C   0  0  0  0  0  0  0  0  0  0  0  0
  -21.9242  -28.3612   23.1325 C   0  0  1  0  0  0  0  0  0  0  0  0
  -19.6526  -26.5197   20.7203 C   0  0  2  0  0  0  0  0  0  0  0  0
  -27.6877  -19.1416   18.6541 C   0  0  1  0  0  0  0  0  0  0  0  0
  -21.6169  -28.3804   24.6565 C   0  0  0  0  0  0  0  0  0  0  0  0
  -24.8581  -12.1601   22.9736 N   0  0  0  0  0  0  0  0  0  0  0  0
  -24.9068  -13.5009   23.0516 N   0  0  0  0  0  0  0  0  0  0  0  0
  -23.5728  -29.8395   22.0278 N   0  0  0  0  0  0  0  0  0  0  0  0
  -28.2920  -15.1210   23.7294 N   0  0  0  0  0  0  0  0  0  0  0  0
  -28.4826  -16.9755   22.2525 N   0  0  0  0  0  0  0  0  0  0  0  0
  -23.7940  -15.4747   22.3615 N   0  0  0  0  0  0  0  0  0  0  0  0
  -21.2925  -12.1804   20.5488 N   0  0  0  0  0  0  0  0  0  0  0  0
  -24.8588  -33.0071   23.0491 N   0  0  0  0  0  0  0  0  0  0  0  0
  -20.8170  -27.8937   22.3055 N   0  0  0  0  0  0  0  0  0  0  0  0
  -19.9480  -25.9855   19.3608 N   0  3  0  0  0  0  0  0  0  0  0  0
  -28.0157  -21.5746   18.1671 N   0  3  1  0  0  0  0  0  0  0  0  0
  -21.5114  -14.4539   20.7540 O   0  0  0  0  0  0  0  0  0  0  0  0
  -25.5420  -30.8266   23.4975 O   0  0  0  0  0  0  0  0  0  0  0  0
  -21.4907  -30.6514   22.6925 O   0  0  0  0  0  0  0  0  0  0  0  0
  -21.9604  -26.1324   21.3217 O   0  0  0  0  0  0  0  0  0  0  0  0
  -30.0923  -16.5486   23.8293 O   0  0  0  0  0  0  0  0  0  0  0  0
  -28.1607  -19.1379   21.6852 O   0  0  0  0  0  0  0  0  0  0  0  0
  -22.2258   -6.7070   21.0029 O   0  0  0  0  0  0  0  0  0  0  0  0
  -28.5556  -26.9374   19.8137 O   0  0  0  0  0  0  0  0  0  1  0  0
  -20.7584   -5.6176   15.8006 F   0  0  0  0  0  0  0  0  0  0  0  0
  -23.5915   -4.8244   19.5086 F   0  0  0  0  0  0  0  0  0  0  0  0
  1  2  1  0  0  0  0
  1  5  2  0  0  0  0
  2  6  2  0  0  0  0
  3  8  2  0  0  0  0
  3 15  1  0  0  0  0
  4  9  1  0  0  0  0
  4 15  2  0  0  0  0
  5 17  1  0  0  0  0
  6 19  1  0  0  0  0
  7 10  2  0  0  0  0
  7 18  1  0  0  0  0
  8 21  1  0  0  0  0
  9 21  2  0  0  0  0
 10 22  1  0  0  0  0
 11 12  2  0  0  0  0
 11 23  1  0  0  0  0
 12 24  1  0  0  0  0
 13 20  1  0  0  0  0
 13 22  2  0  0  0  0
 14 24  2  0  0  0  0
 14 25  1  0  0  0  0
 15 26  1  0  0  0  0
 16 26  1  0  0  0  0
 16 27  2  0  0  0  0
 16 28  1  0  0  0  0
 17 19  2  0  0  0  0
 17 33  1  0  0  0  0
 18 20  2  0  0  0  0
 18 34  1  0  0  0  0
 19 48  1  0  0  0  0
 20 35  1  0  0  0  0
 21 86  1  0  0  0  0
 22 87  1  0  0  0  0
 23 25  2  0  0  0  0
 23 86  1  0  0  0  0
 24 88  1  0  0  0  0
 25 89  1  0  0  0  0
 26 69  2  0  0  0  0
 27 70  1  0  0  0  0
 27 74  1  0  0  0  0
 28 75  1  0  0  0  0
 28 80  2  0  0  0  0
 29 49  1  0  0  0  0
 29 76  1  0  0  0  0
 29 81  2  0  0  0  0
 30 65  1  0  0  0  0
 30 71  1  0  0  0  0
 30 82  2  0  0  0  0
 31 66  1  0  0  0  0
 31 77  1  0  0  0  0
 31 83  2  0  0  0  0
 32 72  1  0  0  0  0
 32 73  1  0  0  0  0
 32 84  2  0  0  0  0
 33 36  1  0  0  0  0
 34 49  1  0  0  0  0
 35 71  1  0  0  0  0
 36 38  1  0  0  0  0
 37 39  1  0  0  0  0
 37 45  1  0  0  0  0
 38 48  1  0  0  0  0
 39 51  1  0  0  0  0
 40 42  1  0  0  0  0
 40 52  1  0  0  0  0
 41 43  1  0  0  0  0
 41 52  1  0  0  0  0
 42 54  1  0  0  0  0
 43 54  1  0  0  0  0
 44 50  1  0  0  0  0
 44 55  1  0  0  0  0
 45 72  1  0  0  0  0
 46 51  1  0  0  0  0
 46 72  1  0  0  0  0
 47 53  1  0  0  0  0
 47 73  1  0  0  0  0
 48 76  1  0  0  0  0
 49 71  1  0  0  0  0
 50 53  1  0  0  0  0
 50 67  1  0  0  0  0
 51 70  1  0  0  0  0
 52 79  1  0  0  0  0
 53 85  1  0  0  0  0
 54 87  1  0  0  0  0
 55 73  1  0  0  0  0
 55 85  1  0  0  0  0
 56 63  1  0  0  0  0
 57 66  1  0  0  0  0
 58 67  1  0  0  0  0
 59 68  1  0  0  0  0
 60 68  1  0  0  0  0
 61 68  1  0  0  0  0
 62 78  1  0  0  0  0
 63 79  1  0  0  0  0
 64 67  1  0  0  0  0
 64 79  1  0  0  0  0
 65 68  1  0  0  0  0
 65 77  1  0  0  0  0
 66 78  1  0  0  0  0
 69 70  1  0  0  0  0
M  CHG  2  78   1  79   1
M  ISO  4  32 100  54 101  73 100  87 101
M  END
> <Batch ID>
0153

> <Smiles>
CCN(CC(C)C1CC2OC1C[100N:0]2[100C:0](=O)N1CCCC(n2nc(-c3ccc(Oc4ccc(F)cc4F)cc3)c(C(N)=O)c2N)C1)C1CC[101CH:1]([101O:1]c2ccc3c(c2)CN(C(=O)C(NC(=O)C(C)NC)C(C)(C)C)C(C(=O)NC2CCCc4ccccc42)C3)CC1

> <Shape>
0.283

> <Color>
0.072

> <Negative vol penalty>
0.000

$$$$

  -OEChem-04052321483D

 89 99  0     1  0  0  0  0  0999 V2000
  -16.4954  -29.0377   23.4543 C   0  0  0  0  0  0  0  0  0  0  0  0
  -17.3743  -27.9663   23.5774 C   0  0  0  0  0  0  0  0  0  0  0  0
  -24.3813   -9.3747   22.1908 C   0  0  0  0  0  0  0  0  0  0  0  0
  -24.3036   -8.9224   19.8188 C   0  0  0  0  0  0  0  0  0  0  0  0
  -16.9891  -30.3181   23.2078 C   0  0  0  0  0  0  0  0  0  0  0  0
  -18.7474  -28.1746   23.4530 C   0  0  0  0  0  0  0  0  0  0  0  0
  -23.2027  -25.2520   26.4721 C   0  0  0  0  0  0  0  0  0  0  0  0
  -23.2586   -8.5692   22.3812 C   0  0  0  0  0  0  0  0  0  0  0  0
  -23.1809   -8.1168   20.0092 C   0  0  0  0  0  0  0  0  0  0  0  0
  -24.0303  -24.1861   26.1217 C   0  0  0  0  0  0  0  0  0  0  0  0
  -22.5680   -5.2650   22.5775 C   0  0  0  0  0  0  0  0  0  0  0  0
  -22.5927   -4.3587   23.6375 C   0  0  0  0  0  0  0  0  0  0  0  0
  -31.6225  -18.6768   26.8660 C   0  0  0  0  0  0  0  0  0  0  0  0
  -30.2590  -19.9998   25.3737 C   0  0  0  0  0  0  0  0  0  0  0  0
  -25.7489  -25.7451   25.4621 C   0  0  0  0  0  0  0  0  0  0  0  0
  -20.6549   -5.4328   24.6010 C   0  0  0  0  0  0  0  0  0  0  0  0
  -24.9038   -9.5514   20.9095 C   0  0  0  0  0  0  0  0  0  0  0  0
  -27.4124   -9.9837   20.7440 C   0  0  0  0  0  0  0  0  0  0  0  0
  -18.3696  -30.5437   23.0899 C   0  0  0  0  0  0  0  0  0  0  0  0
  -23.6387  -26.5749   26.3096 C   0  0  0  0  0  0  0  0  0  0  0  0
  -19.2600  -29.4590   23.2034 C   0  0  0  0  0  0  0  0  0  0  0  0
  -30.8777  -18.7910   25.6922 C   0  0  0  0  0  0  0  0  0  0  0  0
  -24.9259  -26.8260   25.8136 C   0  0  0  0  0  0  0  0  0  0  0  0
  -31.1298  -20.9803   27.4028 C   0  0  0  0  0  0  0  0  0  0  0  0
  -31.7486  -19.7715   27.7213 C   0  0  0  0  0  0  0  0  0  0  0  0
  -30.3850  -21.0945   26.2290 C   0  0  0  0  0  0  0  0  0  0  0  0
  -22.6585   -7.9402   21.2904 C   0  0  0  0  0  0  0  0  0  0  0  0
  -25.3025  -24.4326   25.6139 C   0  0  0  0  0  0  0  0  0  0  0  0
  -21.5868   -6.2553   22.5293 C   0  0  0  0  0  0  0  0  0  0  0  0
  -21.6361   -4.4426   24.6492 C   0  0  0  0  0  0  0  0  0  0  0  0
  -20.6302   -6.3391   23.5410 C   0  0  0  0  0  0  0  0  0  0  0  0
  -26.0631  -10.3839   20.7121 C   0  0  0  0  0  0  0  0  0  0  0  0
  -28.1183  -11.1364   20.5002 C   0  0  0  0  0  0  0  0  0  0  0  0
  -27.9772   -8.6860   20.9735 C   0  0  0  0  0  0  0  0  0  0  0  0
  -22.6621  -29.0633   24.5898 C   0  0  0  0  0  0  0  0  0  0  0  0
  -24.9639  -30.6245   26.2592 C   0  0  0  0  0  0  0  0  0  0  0  0
  -27.8755  -30.4563   28.0315 C   0  0  0  0  0  0  0  0  0  0  0  0
  -29.0740  -16.4883   21.1827 C   0  0  0  0  0  0  0  0  0  0  0  0
  -18.8531  -31.9375   22.7763 C   0  0  0  0  0  0  0  0  0  0  0  0
  -22.7440  -27.7132   26.7173 C   0  0  0  0  0  0  0  0  0  0  0  0
  -25.4490  -28.2276   25.6389 C   0  0  0  0  0  0  0  0  0  0  0  0
  -20.3452  -32.1362   23.0305 C   0  0  0  0  0  0  0  0  0  0  0  0
  -26.5764  -15.6836   18.9326 C   0  0  0  0  0  0  0  0  0  0  0  0
  -31.7969  -23.4490   27.7698 C   0  0  0  0  0  0  0  0  0  0  0  0
  -32.6414  -22.6303   28.6955 C   0  0  0  0  0  0  0  0  0  0  0  0
  -21.1457  -30.9788   22.4418 C   0  0  0  0  0  0  0  0  0  0  0  0
  -26.3224  -14.1980   19.1876 C   0  0  0  0  0  0  0  0  0  0  0  0
  -29.2780  -17.1406   24.6251 C   0  0  0  0  0  0  0  0  0  0  0  0
  -31.3545  -17.8760   23.3774 C   0  0  0  0  0  0  0  0  0  0  0  0
  -26.7839  -16.4344   20.2428 C   0  0  0  0  0  0  0  0  0  0  0  0
  -29.1430  -15.9594   23.6598 C   0  0  0  0  0  0  0  0  0  0  0  0
  -31.1863  -16.6673   22.4612 C   0  0  0  0  0  0  0  0  0  0  0  0
  -27.6479  -14.3980   21.3495 C   0  0  0  0  0  0  0  0  0  0  0  0
  -30.7406  -17.6004   24.7620 C   0  0  0  0  0  0  0  0  0  0  0  0
  -31.2650  -22.1541   28.3199 C   0  0  0  0  0  0  0  0  0  0  0  0
  -20.7577  -29.6489   23.0994 C   0  0  1  0  0  0  0  0  0  0  0  0
  -23.0971  -29.0273   26.0276 C   0  0  1  0  0  0  0  0  0  0  0  0
  -27.4376  -13.5872   20.0545 C   0  0  1  0  0  0  0  0  0  0  0  0
  -32.5521  -19.6209   28.9717 C   0  0  0  0  0  0  0  0  0  0  0  0
  -29.5334  -31.9028   29.2383 C   0  0  0  0  0  0  0  0  0  0  0  0
  -26.1035  -31.5466   23.5832 C   0  0  0  0  0  0  0  0  0  0  0  0
  -28.2214  -32.1524   24.7731 C   0  0  0  0  0  0  0  0  0  0  0  0
  -26.0868  -33.2975   25.3690 C   0  0  0  0  0  0  0  0  0  0  0  0
  -27.3800  -29.0788   30.6037 C   0  0  0  0  0  0  0  0  0  0  0  0
  -29.7118  -22.3770   25.8630 C   0  0  0  0  0  0  0  0  0  0  0  0
  -28.1901  -22.2621   25.6888 C   0  0  0  0  0  0  0  0  0  0  0  0
  -27.5183  -23.5978   25.3923 C   0  0  0  0  0  0  0  0  0  1  0  0
  -26.4362  -30.8901   26.0580 C   0  0  1  0  0  0  0  0  0  0  0  0
  -28.2775  -31.0548   29.3674 C   0  0  2  0  0  0  0  0  0  0  0  0
  -26.7017  -31.9452   24.9472 C   0  0  0  0  0  0  0  0  0  0  0  0
  -25.9180  -11.6889   20.4675 N   0  0  0  0  0  0  0  0  0  0  0  0
  -27.1852  -12.1188   20.3436 N   0  0  0  0  0  0  0  0  0  0  0  0
  -24.5343  -29.3070   26.0459 N   0  0  0  0  0  0  0  0  0  0  0  0
  -27.8477  -15.8220   21.0385 N   0  0  0  0  0  0  0  0  0  0  0  0
  -29.7828  -16.2652   22.3727 N   0  0  0  0  0  0  0  0  0  0  0  0
  -29.4399  -11.3954   20.4068 N   0  0  0  0  0  0  0  0  0  0  0  0
  -27.1087   -7.6112   21.2076 N   0  0  0  0  0  0  0  0  0  0  0  0
  -21.3751  -29.5305   24.4029 N   0  0  0  0  0  0  0  0  0  0  0  0
  -26.9680  -31.2539   27.3669 N   0  0  0  0  0  0  0  0  0  0  0  0
  -28.5394  -29.9753   30.3609 N   0  3  0  0  0  0  0  0  0  0  0  0
  -29.2159   -8.4886   20.9872 O   0  0  0  0  0  0  0  0  0  0  0  0
  -23.4372  -28.6959   23.7147 O   0  0  0  0  0  0  0  0  0  0  0  0
  -24.2234  -31.5503   26.6002 O   0  0  0  0  0  0  0  0  0  0  0  0
  -28.3245  -29.3899   27.6172 O   0  0  0  0  0  0  0  0  0  0  0  0
  -29.5109  -17.2377   20.3003 O   0  0  0  0  0  0  0  0  0  0  0  0
  -21.5631   -7.1538   21.4759 O   0  0  0  0  0  0  0  0  0  0  0  0
  -26.1177  -23.3867   25.2681 O   0  0  0  0  0  0  0  0  0  1  0  0
  -21.6591   -3.5712   25.6663 F   0  0  0  0  0  0  0  0  0  0  0  0
  -19.6844   -7.2875   23.4995 F   0  0  0  0  0  0  0  0  0  0  0  0
  1  2  1  0  0  0  0
  1  5  2  0  0  0  0
  2  6  2  0  0  0  0
  3  8  2  0  0  0  0
  3 17  1  0  0  0  0
  4  9  1  0  0  0  0
  4 17  2  0  0  0  0
  5 19  1  0  0  0  0
  6 21  1  0  0  0  0
  7 10  2  0  0  0  0
  7 20  1  0  0  0  0
  8 27  1  0  0  0  0
  9 27  2  0  0  0  0
 10 28  1  0  0  0  0
 11 12  2  0  0  0  0
 11 29  1  0  0  0  0
 12 30  1  0  0  0  0
 13 22  1  0  0  0  0
 13 25  2  0  0  0  0
 14 22  2  0  0  0  0
 14 26  1  0  0  0  0
 15 23  1  0  0  0  0
 15 28  2  0  0  0  0
 16 30  2  0  0  0  0
 16 31  1  0  0  0  0
 17 32  1  0  0  0  0
 18 32  1  0  0  0  0
 18 33  2  0  0  0  0
 18 34  1  0  0  0  0
 19 21  2  0  0  0  0
 19 39  1  0  0  0  0
 20 23  2  0  0  0  0
 20 40  1  0  0  0  0
 21 56  1  0  0  0  0
 22 54  1  0  0  0  0
 23 41  1  0  0  0  0
 24 25  1  0  0  0  0
 24 26  2  0  0  0  0
 24 55  1  0  0  0  0
 25 59  1  0  0  0  0
 26 65  1  0  0  0  0
 27 86  1  0  0  0  0
 28 87  1  0  0  0  0
 29 31  2  0  0  0  0
 29 86  1  0  0  0  0
 30 88  1  0  0  0  0
 31 89  1  0  0  0  0
 32 71  2  0  0  0  0
 33 72  1  0  0  0  0
 33 76  1  0  0  0  0
 34 77  1  0  0  0  0
 34 81  2  0  0  0  0
 35 57  1  0  0  0  0
 35 78  1  0  0  0  0
 35 82  2  0  0  0  0
 36 68  1  0  0  0  0
 36 73  1  0  0  0  0
 36 83  2  0  0  0  0
 37 69  1  0  0  0  0
 37 79  1  0  0  0  0
 37 84  2  0  0  0  0
 38 74  1  0  0  0  0
 38 75  1  0  0  0  0
 38 85  2  0  0  0  0
 39 42  1  0  0  0  0
 40 57  1  0  0  0  0
 41 73  1  0  0  0  0
 42 46  1  0  0  0  0
 43 47  1  0  0  0  0
 43 50  1  0  0  0  0
 44 45  1  0  0  0  0
 44 55  1  0  0  0  0
 45 55  1  0  0  0  0
 46 56  1  0  0  0  0
 47 58  1  0  0  0  0
 48 51  1  0  0  0  0
 48 54  1  0  0  0  0
 49 52  1  0  0  0  0
 49 54  1  0  0  0  0
 50 74  1  0  0  0  0
 51 75  1  0  0  0  0
 52 75  1  0  0  0  0
 53 58  1  0  0  0  0
 53 74  1  0  0  0  0
 56 78  1  0  0  0  0
 57 73  1  0  0  0  0
 58 72  1  0  0  0  0
 60 69  1  0  0  0  0
 61 70  1  0  0  0  0
 62 70  1  0  0  0  0
 63 70  1  0  0  0  0
 64 80  1  0  0  0  0
 65 66  1  0  0  0  0
 66 67  1  0  0  0  0
 67 87  1  0  0  0  0
 68 70  1  0  0  0  0
 68 79  1  0  0  0  0
 69 80  1  0  0  0  0
 71 72  1  0  0  0  0
M  CHG  1  80   1
M  ISO  4  38 100  67 101  75 100  87 101
M  END
> <Batch ID>
0153

> <Smiles>
CNC(C)C(=O)NC(C(=O)N1Cc2cc([101O:1][101CH2:1]CCc3cc(C4CC[100N:0]([100C:0](=O)N5CCCC(n6nc(-c7ccc(Oc8ccc(F)cc8F)cc7)c(C(N)=O)c6N)C5)CC4)cc(C)c3C3CC3)ccc2CC1C(=O)NC1CCCc2ccccc21)C(C)(C)C

> <Shape>
0.220

> <Color>
0.123

> <Negative vol penalty>
0.000

$$$$

  -OEChem-04052321483D

 86 94  0     1  0  0  0  0  0999 V2000
  -28.5549  -32.3156   20.4762 C   0  0  0  0  0  0  0  0  0  0  0  0
  -28.4546  -30.9657   20.7973 C   0  0  0  0  0  0  0  0  0  0  0  0
  -22.8806  -10.2766   20.0497 C   0  0  0  0  0  0  0  0  0  0  0  0
  -24.0456   -9.5573   22.0402 C   0  0  0  0  0  0  0  0  0  0  0  0
  -27.5058  -33.1827   20.7787 C   0  0  0  0  0  0  0  0  0  0  0  0
  -27.3056  -30.4822   21.4221 C   0  0  0  0  0  0  0  0  0  0  0  0
  -25.6592  -26.1511   19.3786 C   0  0  0  0  0  0  0  0  0  0  0  0
  -22.0919   -9.1270   20.0958 C   0  0  0  0  0  0  0  0  0  0  0  0
  -23.2569   -8.4077   22.0864 C   0  0  0  0  0  0  0  0  0  0  0  0
  -26.3340  -24.9834   19.7320 C   0  0  0  0  0  0  0  0  0  0  0  0
  -21.3067   -5.4590   22.9349 C   0  0  0  0  0  0  0  0  0  0  0  0
  -20.7774   -5.0839   24.1697 C   0  0  0  0  0  0  0  0  0  0  0  0
  -24.5933  -24.4652   21.3197 C   0  0  0  0  0  0  0  0  0  0  0  0
  -28.1433  -20.2978   20.0608 C   0  0  0  0  0  0  0  0  0  0  0  0
  -19.6041   -7.1915   24.3068 C   0  0  0  0  0  0  0  0  0  0  0  0
  -23.8575  -10.4917   21.0218 C   0  0  0  0  0  0  0  0  0  0  0  0
  -24.4032  -12.9201   21.5810 C   0  0  0  0  0  0  0  0  0  0  0  0
  -26.3393  -32.7078   21.3988 C   0  0  0  0  0  0  0  0  0  0  0  0
  -24.4498  -26.4908   20.0020 C   0  0  0  0  0  0  0  0  0  0  0  0
  -26.2405  -31.3440   21.7344 C   0  0  0  0  0  0  0  0  0  0  0  0
  -23.9038  -25.6365   20.9706 C   0  0  0  0  0  0  0  0  0  0  0  0
  -28.2396  -21.4254   20.8760 C   0  0  0  0  0  0  0  0  0  0  0  0
  -28.6485  -19.0741   20.5003 C   0  0  0  0  0  0  0  0  0  0  0  0
  -28.8412  -21.3295   22.1308 C   0  0  0  0  0  0  0  0  0  0  0  0
  -29.3464  -20.1059   22.5704 C   0  0  0  0  0  0  0  0  0  0  0  0
  -22.2801   -8.1926   21.1142 C   0  0  0  0  0  0  0  0  0  0  0  0
  -25.8025  -24.1417   20.7048 C   0  0  0  0  0  0  0  0  0  0  0  0
  -20.9848   -6.7003   22.3861 C   0  0  0  0  0  0  0  0  0  0  0  0
  -29.2501  -18.9782   21.7551 C   0  0  0  0  0  0  0  0  0  0  0  0
  -19.9261   -5.9501   24.8556 C   0  0  0  0  0  0  0  0  0  0  0  0
  -20.1335   -7.5665   23.0720 C   0  0  0  0  0  0  0  0  0  0  0  0
  -24.6728  -11.6787   20.9743 C   0  0  0  0  0  0  0  0  0  0  0  0
  -25.4746  -13.7089   21.2399 C   0  0  0  0  0  0  0  0  0  0  0  0
  -23.2843  -13.3241   22.3813 C   0  0  0  0  0  0  0  0  0  0  0  0
  -23.4594  -28.9123   21.8072 C   0  0  0  0  0  0  0  0  0  0  0  0
  -20.5794  -27.4509   21.5037 C   0  0  0  0  0  0  0  0  0  0  0  0
  -18.8370  -24.5780   20.9061 C   0  0  0  0  0  0  0  0  0  0  0  0
  -30.9701  -14.4429   20.6027 C   0  0  0  0  0  0  0  0  0  0  0  0
  -25.2512  -33.6918   21.7489 C   0  0  0  0  0  0  0  0  0  0  0  0
  -23.7208  -27.7404   19.5904 C   0  0  0  0  0  0  0  0  0  0  0  0
  -22.5983  -25.9455   21.6552 C   0  0  0  0  0  0  0  0  0  0  0  0
  -23.9137  -33.0311   22.0727 C   0  0  0  0  0  0  0  0  0  0  0  0
  -29.1987  -12.9406   17.9042 C   0  0  0  0  0  0  0  0  0  0  0  0
  -24.1151  -31.8566   23.0250 C   0  0  0  0  0  0  0  0  0  0  0  0
  -27.8442  -12.5754   18.5140 C   0  0  0  0  0  0  0  0  0  0  0  0
  -30.3370  -12.7538   18.9049 C   0  0  0  0  0  0  0  0  0  0  0  0
  -28.7977  -13.0872   20.8004 C   0  0  0  0  0  0  0  0  0  0  0  0
  -25.0000  -30.7771   22.3901 C   0  0  1  0  0  0  0  0  0  0  0  0
  -22.7560  -28.2482   20.6575 C   0  0  1  0  0  0  0  0  0  0  0  0
  -27.6121  -13.3128   19.8466 C   0  0  2  0  0  0  0  0  0  0  0  0
  -28.5356  -17.8783   19.6134 C   0  0  0  0  0  0  0  0  0  0  0  0
  -28.9427  -22.5397   23.0042 C   0  0  0  0  0  0  0  0  0  0  0  0
  -29.7348  -19.1954   26.3021 C   0  0  0  0  0  0  0  0  0  0  0  0
  -16.4949  -23.6884   20.7616 C   0  0  0  0  0  0  0  0  0  0  0  0
  -20.3800  -27.4882   24.5482 C   0  0  0  0  0  0  0  0  0  0  0  0
  -18.5495  -25.7885   24.3796 C   0  0  0  0  0  0  0  0  0  0  0  0
  -18.2527  -28.0441   23.3566 C   0  0  0  0  0  0  0  0  0  0  0  0
  -19.1873  -23.7892   18.0751 C   0  0  0  0  0  0  0  0  0  0  0  0
  -29.9920  -19.9964   23.9151 C   0  0  0  0  0  0  0  0  0  0  0  0
  -27.6882  -22.7295   20.3795 C   0  0  0  0  0  0  0  0  0  1  0  0
  -29.0649  -19.3360   24.9444 C   0  0  0  0  0  0  0  0  0  0  0  0
  -31.4601  -16.1089   22.3757 C   0  0  0  0  0  0  0  0  0  0  0  0
  -31.1055  -17.4947   21.8670 C   0  0  0  0  0  0  0  0  0  0  0  0
  -19.8315  -26.3912   22.2762 C   0  0  1  0  0  0  0  0  0  0  0  0
  -17.6623  -24.2843   19.9904 C   0  0  2  0  0  0  0  0  0  0  0  0
  -19.2790  -26.9229   23.6288 C   0  0  0  0  0  0  0  0  0  0  0  0
  -25.8252  -11.6743   20.2989 N   0  0  0  0  0  0  0  0  0  0  0  0
  -26.2890  -12.9227   20.4791 N   0  0  0  0  0  0  0  0  0  0  0  0
  -21.9264  -27.1821   21.2228 N   0  0  0  0  0  0  0  0  0  0  0  0
  -30.0557  -13.4794   20.1459 N   0  0  0  0  0  0  0  0  0  0  0  0
  -25.7901  -14.9913   21.5196 N   0  0  0  0  0  0  0  0  0  0  0  0
  -22.2718  -12.3887   22.6350 N   0  0  0  0  0  0  0  0  0  0  0  0
  -24.2387  -29.9932   21.4413 N   0  0  0  0  0  0  0  0  0  0  0  0
  -18.8078  -25.8746   21.3743 N   0  0  0  0  0  0  0  0  0  0  0  0
  -30.6240  -15.0887   21.7833 N   0  0  0  0  0  0  0  0  0  0  0  0
  -18.0632  -23.3210   18.9263 N   0  3  0  0  0  0  0  0  0  0  0  0
  -23.1772  -14.4852   22.8437 O   0  0  0  0  0  0  0  0  0  0  0  0
  -23.3052  -28.4773   22.9424 O   0  0  0  0  0  0  0  0  0  0  0  0
  -19.9881  -28.4761   21.1559 O   0  0  0  0  0  0  0  0  0  0  0  0
  -19.6926  -23.7398   21.1816 O   0  0  0  0  0  0  0  0  0  0  0  0
  -32.0149  -14.7116   20.0000 O   0  0  0  0  0  0  0  0  0  0  0  0
  -21.5105   -7.0709   21.1597 O   0  0  0  0  0  0  0  0  0  0  0  0
  -26.4594  -23.0017   21.0520 O   0  0  0  0  0  0  0  0  0  1  0  0
  -29.7453  -17.7812   22.1827 O   0  0  0  0  0  0  0  0  0  0  0  0
  -19.4166   -5.5892   26.0407 F   0  0  0  0  0  0  0  0  0  0  0  0
  -19.8196   -8.7598   22.5493 F   0  0  0  0  0  0  0  0  0  0  0  0
  1  2  1  0  0  0  0
  1  5  2  0  0  0  0
  2  6  2  0  0  0  0
  3  8  2  0  0  0  0
  3 16  1  0  0  0  0
  4  9  1  0  0  0  0
  4 16  2  0  0  0  0
  5 18  1  0  0  0  0
  6 20  1  0  0  0  0
  7 10  2  0  0  0  0
  7 19  1  0  0  0  0
  8 26  1  0  0  0  0
  9 26  2  0  0  0  0
 10 27  1  0  0  0  0
 11 12  2  0  0  0  0
 11 28  1  0  0  0  0
 12 30  1  0  0  0  0
 13 21  1  0  0  0  0
 13 27  2  0  0  0  0
 14 22  1  0  0  0  0
 14 23  2  0  0  0  0
 15 30  2  0  0  0  0
 15 31  1  0  0  0  0
 16 32  1  0  0  0  0
 17 32  1  0  0  0  0
 17 33  2  0  0  0  0
 17 34  1  0  0  0  0
 18 20  2  0  0  0  0
 18 39  1  0  0  0  0
 19 21  2  0  0  0  0
 19 40  1  0  0  0  0
 20 48  1  0  0  0  0
 21 41  1  0  0  0  0
 22 24  2  0  0  0  0
 22 60  1  0  0  0  0
 23 29  1  0  0  0  0
 23 51  1  0  0  0  0
 24 25  1  0  0  0  0
 24 52  1  0  0  0  0
 25 29  2  0  0  0  0
 25 59  1  0  0  0  0
 26 82  1  0  0  0  0
 27 83  1  0  0  0  0
 28 31  2  0  0  0  0
 28 82  1  0  0  0  0
 29 84  1  0  0  0  0
 30 85  1  0  0  0  0
 31 86  1  0  0  0  0
 32 67  2  0  0  0  0
 33 68  1  0  0  0  0
 33 71  1  0  0  0  0
 34 72  1  0  0  0  0
 34 77  2  0  0  0  0
 35 49  1  0  0  0  0
 35 73  1  0  0  0  0
 35 78  2  0  0  0  0
 36 64  1  0  0  0  0
 36 69  1  0  0  0  0
 36 79  2  0  0  0  0
 37 65  1  0  0  0  0
 37 74  1  0  0  0  0
 37 80  2  0  0  0  0
 38 70  1  0  0  0  0
 38 75  1  0  0  0  0
 38 81  2  0  0  0  0
 39 42  1  0  0  0  0
 40 49  1  0  0  0  0
 41 69  1  0  0  0  0
 42 44  1  0  0  0  0
 43 45  1  0  0  0  0
 43 46  1  0  0  0  0
 44 48  1  0  0  0  0
 45 50  1  0  0  0  0
 46 70  1  0  0  0  0
 47 50  1  0  0  0  0
 47 70  1  0  0  0  0
 48 73  1  0  0  0  0
 49 69  1  0  0  0  0
 50 68  1  0  0  0  0
 53 61  1  0  0  0  0
 54 65  1  0  0  0  0
 55 66  1  0  0  0  0
 56 66  1  0  0  0  0
 57 66  1  0  0  0  0
 58 76  1  0  0  0  0
 59 61  1  0  0  0  0
 60 83  1  0  0  0  0
 62 63  1  0  0  0  0
 62 75  1  0  0  0  0
 63 84  1  0  0  0  0
 64 66  1  0  0  0  0
 64 74  1  0  0  0  0
 65 76  1  0  0  0  0
 67 68  1  0  0  0  0
M  CHG  1  76   1
M  ISO  4  38 100  60 101  75 100  83 101
M  END
> <Batch ID>
0153

> <Smiles>
CCCc1c(C)c([101CH2:1][101O:1]c2ccc3c(c2)CN(C(=O)C(NC(=O)C(C)NC)C(C)(C)C)C(C(=O)NC2CCCc4ccccc42)C3)cc(C)c1OCC[100NH:0][100C:0](=O)N1CCCC(n2nc(-c3ccc(Oc4ccc(F)cc4F)cc3)c(C(N)=O)c2N)C1

> <Shape>
0.337

> <Color>
0.152

> <Negative vol penalty>
0.000

$$$$

  -OEChem-04052321483D

 87 96  0     1  0  0  0  0  0999 V2000
  -29.2998  -28.8854   22.6694 C   0  0  0  0  0  0  0  0  0  0  0  0
  -28.9065  -27.6967   23.2759 C   0  0  0  0  0  0  0  0  0  0  0  0
  -23.1897   -9.8510   19.9492 C   0  0  0  0  0  0  0  0  0  0  0  0
  -23.8835   -9.9239   22.2623 C   0  0  0  0  0  0  0  0  0  0  0  0
  -30.5840  -29.0049   22.1398 C   0  0  0  0  0  0  0  0  0  0  0  0
  -29.7970  -26.6263   23.3520 C   0  0  0  0  0  0  0  0  0  0  0  0
  -29.8240  -24.4430   27.9212 C   0  0  0  0  0  0  0  0  0  0  0  0
  -22.4808   -8.6760   20.1988 C   0  0  0  0  0  0  0  0  0  0  0  0
  -23.1745   -8.7488   22.5119 C   0  0  0  0  0  0  0  0  0  0  0  0
  -28.7713  -23.5793   28.2204 C   0  0  0  0  0  0  0  0  0  0  0  0
  -21.2516   -5.9643   23.8412 C   0  0  0  0  0  0  0  0  0  0  0  0
  -20.4644   -5.9129   24.9915 C   0  0  0  0  0  0  0  0  0  0  0  0
  -30.1860  -21.6910   27.7181 C   0  0  0  0  0  0  0  0  0  0  0  0
  -19.1726   -7.7913   24.1915 C   0  0  0  0  0  0  0  0  0  0  0  0
  -23.8911  -10.4749   20.9809 C   0  0  0  0  0  0  0  0  0  0  0  0
  -24.1457  -13.0085   20.8257 C   0  0  0  0  0  0  0  0  0  0  0  0
  -31.4938  -27.9387   22.2181 C   0  0  0  0  0  0  0  0  0  0  0  0
  -31.0644  -23.9368   27.5070 C   0  0  0  0  0  0  0  0  0  0  0  0
  -31.0941  -26.7312   22.8217 C   0  0  0  0  0  0  0  0  0  0  0  0
  -31.2536  -22.5504   27.4167 C   0  0  0  0  0  0  0  0  0  0  0  0
  -26.3064  -17.0282   26.1744 C   0  0  0  0  0  0  0  0  0  0  0  0
  -27.2188  -17.1557   27.2506 C   0  0  0  0  0  0  0  0  0  0  0  0
  -22.4731   -8.1249   21.4801 C   0  0  0  0  0  0  0  0  0  0  0  0
  -28.9513  -22.2031   28.1160 C   0  0  0  0  0  0  0  0  0  0  0  0
  -20.9993   -6.9293   22.8660 C   0  0  0  0  0  0  0  0  0  0  0  0
  -19.4249   -6.8264   25.1667 C   0  0  0  0  0  0  0  0  0  0  0  0
  -19.9598   -7.8427   23.0412 C   0  0  0  0  0  0  0  0  0  0  0  0
  -24.6241  -11.6884   20.7236 C   0  0  0  0  0  0  0  0  0  0  0  0
  -26.9960  -16.4859   25.1125 C   0  0  0  0  0  0  0  0  0  0  0  0
  -28.4383  -16.6876   26.8136 C   0  0  0  0  0  0  0  0  0  0  0  0
  -25.2202  -13.7909   20.4797 C   0  0  0  0  0  0  0  0  0  0  0  0
  -22.8462  -13.4848   21.2000 C   0  0  0  0  0  0  0  0  0  0  0  0
  -32.8233  -24.1892   24.8714 C   0  0  0  0  0  0  0  0  0  0  0  0
  -34.9972  -22.5485   26.6333 C   0  0  0  0  0  0  0  0  0  0  0  0
  -35.6099  -20.4239   29.2328 C   0  0  0  0  0  0  0  0  0  0  0  0
  -30.8589  -14.1223   20.9208 C   0  0  0  0  0  0  0  0  0  0  0  0
  -32.8553  -28.0986   21.5892 C   0  0  0  0  0  0  0  0  0  0  0  0
  -32.1980  -24.8810   27.2137 C   0  0  0  0  0  0  0  0  0  0  0  0
  -32.5719  -21.9556   26.9961 C   0  0  0  0  0  0  0  0  0  0  0  0
  -33.8636  -27.0466   22.0439 C   0  0  0  0  0  0  0  0  0  0  0  0
  -29.4070  -13.0721   17.9634 C   0  0  0  0  0  0  0  0  0  0  0  0
  -33.2407  -25.6550   21.9975 C   0  0  0  0  0  0  0  0  0  0  0  0
  -27.9717  -12.7327   18.3653 C   0  0  0  0  0  0  0  0  0  0  0  0
  -29.6919  -16.5857   23.4229 C   0  0  0  0  0  0  0  0  0  0  0  0
  -29.0839  -14.2598   24.2110 C   0  0  0  0  0  0  0  0  0  0  0  0
  -30.3971  -12.6001   19.0223 C   0  0  0  0  0  0  0  0  0  0  0  0
  -30.7847  -15.9782   22.5465 C   0  0  0  0  0  0  0  0  0  0  0  0
  -30.1910  -13.7053   23.3192 C   0  0  0  0  0  0  0  0  0  0  0  0
  -28.6933  -12.8110   20.8020 C   0  0  0  0  0  0  0  0  0  0  0  0
  -32.0397  -25.5562   22.9457 C   0  0  1  0  0  0  0  0  0  0  0  0
  -33.2625  -24.2727   26.3059 C   0  0  1  0  0  0  0  0  0  0  0  0
  -27.6485  -13.2765   19.7682 C   0  0  2  0  0  0  0  0  0  0  0  0
  -29.3938  -15.7027   24.6470 C   0  0  0  0  0  0  0  0  0  0  0  0
  -24.8778  -17.4051   26.1863 C   0  0  0  0  0  0  0  0  0  0  0  0
  -26.5327  -16.1429   23.7510 C   0  0  0  0  0  0  0  0  0  0  0  0
  -29.7326  -16.5928   27.5224 C   0  0  0  0  0  0  0  0  0  0  0  0
  -37.4827  -19.2336   30.4047 C   0  0  0  0  0  0  0  0  0  0  0  0
  -35.1461  -20.5352   24.3453 C   0  0  0  0  0  0  0  0  0  0  0  0
  -36.2524  -18.9333   25.9194 C   0  0  0  0  0  0  0  0  0  0  0  0
  -37.3512  -21.1062   25.3776 C   0  0  0  0  0  0  0  0  0  0  0  0
  -35.0485  -21.8108   31.7864 C   0  0  0  0  0  0  0  0  0  0  0  0
  -26.9209  -17.6942   28.5938 C   0  0  0  0  0  0  0  0  0  0  0  0
  -26.8072  -19.2311   28.6634 C   0  0  0  0  0  0  0  0  0  0  0  0
  -28.1069  -19.9400   28.3005 C   0  0  0  0  0  0  0  0  0  1  0  0
  -35.3049  -21.0883   26.8622 C   0  0  1  0  0  0  0  0  0  0  0  0
  -36.6176  -20.4838   30.3666 C   0  0  2  0  0  0  0  0  0  0  0  0
  -35.9881  -20.4267   25.6322 C   0  0  0  0  0  0  0  0  0  0  0  0
  -25.9030  -11.6315   20.3423 N   0  0  0  0  0  0  0  0  0  0  0  0
  -28.2911  -16.2834   25.5124 N   0  0  0  0  0  0  0  0  0  0  0  0
  -26.2372  -12.9256   20.2018 N   0  0  0  0  0  0  0  0  0  0  0  0
  -33.6477  -22.9202   26.7139 N   0  0  0  0  0  0  0  0  0  0  0  0
  -30.0523  -13.1315   20.3408 N   0  0  0  0  0  0  0  0  0  0  0  0
  -30.4714  -14.5962   22.1850 N   0  0  0  0  0  0  0  0  0  0  0  0
  -25.3849  -15.1277   20.3889 N   0  0  0  0  0  0  0  0  0  0  0  0
  -21.8583  -12.5453   21.5251 N   0  0  0  0  0  0  0  0  0  0  0  0
  -32.4869  -25.4082   24.3141 N   0  0  0  0  0  0  0  0  0  0  0  0
  -36.0918  -21.0245   28.0890 N   0  0  0  0  0  0  0  0  0  0  0  0
  -35.9173  -20.6108   31.6759 N   0  3  0  0  0  0  0  0  0  0  0  0
  -22.5646  -14.7068   21.2289 O   0  0  0  0  0  0  0  0  0  0  0  0
  -32.7932  -23.0998   24.3112 O   0  0  0  0  0  0  0  0  0  0  0  0
  -35.9210  -23.3316   26.3988 O   0  0  0  0  0  0  0  0  0  0  0  0
  -34.5072  -19.8939   29.3491 O   0  0  0  0  0  0  0  0  0  0  0  0
  -31.8613  -14.5625   20.3442 O   0  0  0  0  0  0  0  0  0  0  0  0
  -21.7812   -6.9785   21.7241 O   0  0  0  0  0  0  0  0  0  0  0  0
  -27.9079  -21.3434   28.4118 O   0  0  0  0  0  0  0  0  0  1  0  0
  -18.6681   -6.7759   26.2707 F   0  0  0  0  0  0  0  0  0  0  0  0
  -19.7119   -8.7713   22.1072 F   0  0  0  0  0  0  0  0  0  0  0  0
  1  2  1  0  0  0  0
  1  5  2  0  0  0  0
  2  6  2  0  0  0  0
  3  8  2  0  0  0  0
  3 15  1  0  0  0  0
  4  9  1  0  0  0  0
  4 15  2  0  0  0  0
  5 17  1  0  0  0  0
  6 19  1  0  0  0  0
  7 10  2  0  0  0  0
  7 18  1  0  0  0  0
  8 23  1  0  0  0  0
  9 23  2  0  0  0  0
 10 24  1  0  0  0  0
 11 12  2  0  0  0  0
 11 25  1  0  0  0  0
 12 26  1  0  0  0  0
 13 20  1  0  0  0  0
 13 24  2  0  0  0  0
 14 26  2  0  0  0  0
 14 27  1  0  0  0  0
 15 28  1  0  0  0  0
 16 28  1  0  0  0  0
 16 31  2  0  0  0  0
 16 32  1  0  0  0  0
 17 19  2  0  0  0  0
 17 37  1  0  0  0  0
 18 20  2  0  0  0  0
 18 38  1  0  0  0  0
 19 50  1  0  0  0  0
 20 39  1  0  0  0  0
 21 22  1  0  0  0  0
 21 29  2  0  0  0  0
 21 54  1  0  0  0  0
 22 30  2  0  0  0  0
 22 62  1  0  0  0  0
 23 84  1  0  0  0  0
 24 85  1  0  0  0  0
 25 27  2  0  0  0  0
 25 84  1  0  0  0  0
 26 86  1  0  0  0  0
 27 87  1  0  0  0  0
 28 68  2  0  0  0  0
 29 55  1  0  0  0  0
 29 69  1  0  0  0  0
 30 56  1  0  0  0  0
 30 69  1  0  0  0  0
 31 70  1  0  0  0  0
 31 74  1  0  0  0  0
 32 75  1  0  0  0  0
 32 79  2  0  0  0  0
 33 51  1  0  0  0  0
 33 76  1  0  0  0  0
 33 80  2  0  0  0  0
 34 65  1  0  0  0  0
 34 71  1  0  0  0  0
 34 81  2  0  0  0  0
 35 66  1  0  0  0  0
 35 77  1  0  0  0  0
 35 82  2  0  0  0  0
 36 72  1  0  0  0  0
 36 73  1  0  0  0  0
 36 83  2  0  0  0  0
 37 40  1  0  0  0  0
 38 51  1  0  0  0  0
 39 71  1  0  0  0  0
 40 42  1  0  0  0  0
 41 43  1  0  0  0  0
 41 46  1  0  0  0  0
 42 50  1  0  0  0  0
 43 52  1  0  0  0  0
 44 47  1  0  0  0  0
 44 53  1  0  0  0  0
 45 48  1  0  0  0  0
 45 53  1  0  0  0  0
 46 72  1  0  0  0  0
 47 73  1  0  0  0  0
 48 73  1  0  0  0  0
 49 52  1  0  0  0  0
 49 72  1  0  0  0  0
 50 76  1  0  0  0  0
 51 71  1  0  0  0  0
 52 70  1  0  0  0  0
 53 69  1  0  0  0  0
 57 66  1  0  0  0  0
 58 67  1  0  0  0  0
 59 67  1  0  0  0  0
 60 67  1  0  0  0  0
 61 78  1  0  0  0  0
 62 63  1  0  0  0  0
 63 64  1  0  0  0  0
 64 85  1  0  0  0  0
 65 67  1  0  0  0  0
 65 77  1  0  0  0  0
 66 78  1  0  0  0  0
 68 70  1  0  0  0  0
M  CHG  1  78   1
M  ISO  4  36 100  64 101  73 100  85 101
M  END
> <Batch ID>
0153

> <Smiles>
CNC(C)C(=O)NC(C(=O)N1Cc2cc([101O:1][101CH2:1]CCc3c(C)c(C)n(C4CC[100N:0]([100C:0](=O)N5CCCC(n6nc(-c7ccc(Oc8ccc(F)cc8F)cc7)c(C(N)=O)c6N)C5)CC4)c3C)ccc2CC1C(=O)NC1CCCc2ccccc21)C(C)(C)C

> <Shape>
0.159

> <Color>
0.201

> <Negative vol penalty>
0.000

$$$$

  -OEChem-04052321483D

 86 94  0     1  0  0  0  0  0999 V2000
  -18.9760  -33.2368   24.9739 C   0  0  0  0  0  0  0  0  0  0  0  0
  -20.2893  -33.3039   24.5199 C   0  0  0  0  0  0  0  0  0  0  0  0
  -25.0640  -13.8037   21.5411 C   0  0  0  0  0  0  0  0  0  0  0  0
  -26.5784  -13.4986   19.6835 C   0  0  0  0  0  0  0  0  0  0  0  0
  -18.3678  -31.9967   25.1636 C   0  0  0  0  0  0  0  0  0  0  0  0
  -20.9956  -32.1308   24.2564 C   0  0  0  0  0  0  0  0  0  0  0  0
  -26.0271  -29.5058   19.8849 C   0  0  0  0  0  0  0  0  0  0  0  0
  -24.9271  -12.4205   21.6567 C   0  0  0  0  0  0  0  0  0  0  0  0
  -26.4415  -12.1153   19.7992 C   0  0  0  0  0  0  0  0  0  0  0  0
  -27.2443  -28.8274   19.9283 C   0  0  0  0  0  0  0  0  0  0  0  0
  -23.2302   -9.9470   20.0988 C   0  0  0  0  0  0  0  0  0  0  0  0
  -21.9436   -9.4359   20.2693 C   0  0  0  0  0  0  0  0  0  0  0  0
  -26.0652  -26.7427   20.2167 C   0  0  0  0  0  0  0  0  0  0  0  0
  -29.0686  -20.8723   16.4866 C   0  0  0  0  0  0  0  0  0  0  0  0
  -28.4877  -22.6015   14.9024 C   0  0  0  0  0  0  0  0  0  0  0  0
  -22.6086   -8.4660   22.3798 C   0  0  0  0  0  0  0  0  0  0  0  0
  -25.8896  -14.3428   20.5545 C   0  0  0  0  0  0  0  0  0  0  0  0
  -26.9818  -16.5887   21.0747 C   0  0  0  0  0  0  0  0  0  0  0  0
  -19.0637  -30.8079   24.8931 C   0  0  0  0  0  0  0  0  0  0  0  0
  -24.8181  -28.8079   20.0182 C   0  0  0  0  0  0  0  0  0  0  0  0
  -20.3965  -30.8735   24.4439 C   0  0  0  0  0  0  0  0  0  0  0  0
  -24.8339  -27.4143   20.1721 C   0  0  0  0  0  0  0  0  0  0  0  0
  -29.7815  -21.8035   17.2417 C   0  0  0  0  0  0  0  0  0  0  0  0
  -29.2006  -23.5328   15.6576 C   0  0  0  0  0  0  0  0  0  0  0  0
  -29.8475  -23.1338   16.8272 C   0  0  0  0  0  0  0  0  0  0  0  0
  -25.6158  -11.5762   20.7858 C   0  0  0  0  0  0  0  0  0  0  0  0
  -27.2636  -27.4460   20.0971 C   0  0  0  0  0  0  0  0  0  0  0  0
  -24.2060   -9.7176   21.0688 C   0  0  0  0  0  0  0  0  0  0  0  0
  -28.4217  -21.2713   15.3169 C   0  0  0  0  0  0  0  0  0  0  0  0
  -21.6328   -8.6954   21.4098 C   0  0  0  0  0  0  0  0  0  0  0  0
  -23.8952   -8.9771   22.2093 C   0  0  0  0  0  0  0  0  0  0  0  0
  -26.0311  -15.7717   20.4341 C   0  0  0  0  0  0  0  0  0  0  0  0
  -26.6971  -17.8578   20.6331 C   0  0  0  0  0  0  0  0  0  0  0  0
  -28.0287  -16.2325   21.9873 C   0  0  0  0  0  0  0  0  0  0  0  0
  -22.4206  -28.8526   22.1048 C   0  0  0  0  0  0  0  0  0  0  0  0
  -21.0642  -26.7916   19.9989 C   0  0  0  0  0  0  0  0  0  0  0  0
  -21.4888  -24.4936   17.5117 C   0  0  0  0  0  0  0  0  0  0  0  0
  -24.0241  -19.9555   15.7030 C   0  0  0  0  0  0  0  0  0  0  0  0
  -18.3799  -29.4900   25.1584 C   0  0  0  0  0  0  0  0  0  0  0  0
  -23.5126  -29.5512   19.9425 C   0  0  0  0  0  0  0  0  0  0  0  0
  -23.5631  -26.6161   20.2995 C   0  0  0  0  0  0  0  0  0  0  0  0
  -19.0729  -28.3006   24.4985 C   0  0  0  0  0  0  0  0  0  0  0  0
  -23.0635  -20.5544   19.0787 C   0  0  0  0  0  0  0  0  0  0  0  0
  -20.5780  -28.3585   24.7397 C   0  0  0  0  0  0  0  0  0  0  0  0
  -23.8009  -19.4703   19.8667 C   0  0  0  0  0  0  0  0  0  0  0  0
  -22.5896  -20.0413   17.7207 C   0  0  0  0  0  0  0  0  0  0  0  0
  -24.3801  -18.3485   17.6747 C   0  0  0  0  0  0  0  0  0  0  0  0
  -21.1872  -29.6237   24.1234 C   0  0  1  0  0  0  0  0  0  0  0  0
  -22.3597  -28.8027   20.6043 C   0  0  1  0  0  0  0  0  0  0  0  0
  -24.9262  -18.8349   19.0280 C   0  0  2  0  0  0  0  0  0  0  0  0
  -30.4639  -21.3501   18.4907 C   0  0  0  0  0  0  0  0  0  0  0  0
  -29.2579  -24.9507   15.1915 C   0  0  0  0  0  0  0  0  0  0  0  0
  -20.1956  -22.9511   16.0132 C   0  0  0  0  0  0  0  0  0  0  0  0
  -20.6494  -24.8735   22.3353 C   0  0  0  0  0  0  0  0  0  0  0  0
  -20.2557  -23.0436   20.6726 C   0  0  0  0  0  0  0  0  0  0  0  0
  -18.7246  -25.0116   20.7446 C   0  0  0  0  0  0  0  0  0  0  0  0
  -22.4645  -25.8568   15.0728 C   0  0  0  0  0  0  0  0  0  0  0  0
  -30.6148  -24.1350   17.6394 C   0  0  0  0  0  0  0  0  0  0  0  0
  -25.5515  -19.7562   13.7572 C   0  0  0  0  0  0  0  0  0  0  0  0
  -30.4886  -26.2335   18.9882 C   0  0  0  0  0  0  0  0  0  0  0  0
  -26.6069  -20.8445   13.8404 C   0  0  0  0  0  0  0  0  0  0  0  0
  -29.5339  -27.3378   19.3970 C   0  0  0  0  0  0  0  0  0  1  0  0
  -21.0613  -25.2924   19.8212 C   0  0  1  0  0  0  0  0  0  0  0  0
  -20.8122  -24.3332   16.1623 C   0  0  2  0  0  0  0  0  0  0  0  0
  -20.1969  -24.5703   20.8930 C   0  0  0  0  0  0  0  0  0  0  0  0
  -25.2042  -16.4635   19.6457 N   0  0  0  0  0  0  0  0  0  0  0  0
  -25.6344  -17.7287   19.7880 N   0  0  0  0  0  0  0  0  0  0  0  0
  -22.3122  -27.3890   20.2256 N   0  0  0  0  0  0  0  0  0  0  0  0
  -23.7046  -19.4527   16.9751 N   0  0  0  0  0  0  0  0  0  0  0  0
  -27.2546  -19.0603   20.8891 N   0  0  0  0  0  0  0  0  0  0  0  0
  -28.1817  -14.8833   22.3347 N   0  0  0  0  0  0  0  0  0  0  0  0
  -21.3321  -29.4691   22.6918 N   0  0  0  0  0  0  0  0  0  0  0  0
  -20.6387  -25.0451   18.4469 N   0  0  0  0  0  0  0  0  0  0  0  0
  -25.0986  -19.3454   15.0675 N   0  0  0  0  0  0  0  0  0  0  0  0
  -21.7980  -24.5292   15.0620 N   0  3  0  0  0  0  0  0  0  0  0  0
  -29.7703  -25.2571   18.1309 N   0  3  0  0  0  0  0  0  0  0  0  0
  -28.7949  -17.0873   22.4928 O   0  0  0  0  0  0  0  0  0  0  0  0
  -23.3831  -28.3664   22.6869 O   0  0  0  0  0  0  0  0  0  0  0  0
  -19.9993  -27.4106   19.9317 O   0  0  0  0  0  0  0  0  0  0  0  0
  -22.6536  -24.1594   17.7168 O   0  0  0  0  0  0  0  0  0  0  0  0
  -23.4015  -20.8833   15.1752 O   0  0  0  0  0  0  0  0  0  0  0  0
  -25.4826  -10.2264   20.8985 O   0  0  0  0  0  0  0  0  0  0  0  0
  -28.4503  -26.7814   20.1405 O   0  0  0  0  0  0  0  0  0  1  0  0
  -27.7280  -20.3618   14.5793 O   0  0  0  0  0  0  0  0  0  0  0  0
  -20.3968   -8.2059   21.5741 F   0  0  0  0  0  0  0  0  0  0  0  0
  -24.8281   -8.7543   23.1451 F   0  0  0  0  0  0  0  0  0  0  0  0
  1  2  1  0  0  0  0
  1  5  2  0  0  0  0
  2  6  2  0  0  0  0
  3  8  2  0  0  0  0
  3 17  1  0  0  0  0
  4  9  1  0  0  0  0
  4 17  2  0  0  0  0
  5 19  1  0  0  0  0
  6 21  1  0  0  0  0
  7 10  2  0  0  0  0
  7 20  1  0  0  0  0
  8 26  1  0  0  0  0
  9 26  2  0  0  0  0
 10 27  1  0  0  0  0
 11 12  2  0  0  0  0
 11 28  1  0  0  0  0
 12 30  1  0  0  0  0
 13 22  1  0  0  0  0
 13 27  2  0  0  0  0
 14 23  2  0  0  0  0
 14 29  1  0  0  0  0
 15 24  1  0  0  0  0
 15 29  2  0  0  0  0
 16 30  2  0  0  0  0
 16 31  1  0  0  0  0
 17 32  1  0  0  0  0
 18 32  1  0  0  0  0
 18 33  2  0  0  0  0
 18 34  1  0  0  0  0
 19 21  2  0  0  0  0
 19 39  1  0  0  0  0
 20 22  2  0  0  0  0
 20 40  1  0  0  0  0
 21 48  1  0  0  0  0
 22 41  1  0  0  0  0
 23 25  1  0  0  0  0
 23 51  1  0  0  0  0
 24 25  2  0  0  0  0
 24 52  1  0  0  0  0
 25 58  1  0  0  0  0
 26 82  1  0  0  0  0
 27 83  1  0  0  0  0
 28 31  2  0  0  0  0
 28 82  1  0  0  0  0
 29 84  1  0  0  0  0
 30 85  1  0  0  0  0
 31 86  1  0  0  0  0
 32 66  2  0  0  0  0
 33 67  1  0  0  0  0
 33 70  1  0  0  0  0
 34 71  1  0  0  0  0
 34 77  2  0  0  0  0
 35 49  1  0  0  0  0
 35 72  1  0  0  0  0
 35 78  2  0  0  0  0
 36 63  1  0  0  0  0
 36 68  1  0  0  0  0
 36 79  2  0  0  0  0
 37 64  1  0  0  0  0
 37 73  1  0  0  0  0
 37 80  2  0  0  0  0
 38 69  1  0  0  0  0
 38 74  1  0  0  0  0
 38 81  2  0  0  0  0
 39 42  1  0  0  0  0
 40 49  1  0  0  0  0
 41 68  1  0  0  0  0
 42 44  1  0  0  0  0
 43 45  1  0  0  0  0
 43 46  1  0  0  0  0
 44 48  1  0  0  0  0
 45 50  1  0  0  0  0
 46 69  1  0  0  0  0
 47 50  1  0  0  0  0
 47 69  1  0  0  0  0
 48 72  1  0  0  0  0
 49 68  1  0  0  0  0
 50 67  1  0  0  0  0
 53 64  1  0  0  0  0
 54 65  1  0  0  0  0
 55 65  1  0  0  0  0
 56 65  1  0  0  0  0
 57 75  1  0  0  0  0
 58 76  1  0  0  0  0
 59 61  1  0  0  0  0
 59 74  1  0  0  0  0
 60 62  1  0  0  0  0
 60 76  1  0  0  0  0
 61 84  1  0  0  0  0
 62 83  1  0  0  0  0
 63 65  1  0  0  0  0
 63 73  1  0  0  0  0
 64 75  1  0  0  0  0
 66 67  1  0  0  0  0
M  CHG  2  75   1  76   1
M  ISO  4  38 100  62 101  74 100  83 101
M  END
> <Batch ID>
0153

> <Smiles>
CNC(C)C(=O)NC(C(=O)N1Cc2cc([101O:1][101CH2:1]CNCc3c(C)cc(OCC[100NH:0][100C:0](=O)N4CCCC(n5nc(-c6ccc(Oc7ccc(F)cc7F)cc6)c(C(N)=O)c5N)C4)cc3C)ccc2CC1C(=O)NC1CCCc2ccccc21)C(C)(C)C

> <Shape>
0.218

> <Color>
0.101

> <Negative vol penalty>
0.000

$$$$

  -OEChem-04052321483D

 86 95  0     1  0  0  0  0  0999 V2000
  -26.7952  -38.7214   22.3773 C   0  0  0  0  0  0  0  0  0  0  0  0
  -27.4298  -37.7318   21.6332 C   0  0  0  0  0  0  0  0  0  0  0  0
  -24.4317   -9.0404   21.7558 C   0  0  0  0  0  0  0  0  0  0  0  0
  -23.9617   -8.4995   19.4486 C   0  0  0  0  0  0  0  0  0  0  0  0
  -26.0240  -38.3723   23.4851 C   0  0  0  0  0  0  0  0  0  0  0  0
  -27.2943  -36.3926   21.9972 C   0  0  0  0  0  0  0  0  0  0  0  0
  -26.9731  -29.8340   19.1341 C   0  0  0  0  0  0  0  0  0  0  0  0
  -23.3351   -8.2779   22.1580 C   0  0  0  0  0  0  0  0  0  0  0  0
  -22.8651   -7.7370   19.8507 C   0  0  0  0  0  0  0  0  0  0  0  0
  -27.5668  -28.5778   19.2501 C   0  0  0  0  0  0  0  0  0  0  0  0
  -22.6048   -5.0068   22.6044 C   0  0  0  0  0  0  0  0  0  0  0  0
  -22.7780   -4.1417   23.6848 C   0  0  0  0  0  0  0  0  0  0  0  0
  -26.1448  -28.0867   21.1359 C   0  0  0  0  0  0  0  0  0  0  0  0
  -21.0475   -5.3117   24.8989 C   0  0  0  0  0  0  0  0  0  0  0  0
  -28.8662  -23.7361   18.8271 C   0  0  0  0  0  0  0  0  0  0  0  0
  -24.7450   -9.1512   20.4011 C   0  0  0  0  0  0  0  0  0  0  0  0
  -27.2039   -9.4989   19.8177 C   0  0  0  0  0  0  0  0  0  0  0  0
  -25.8712  -37.0273   23.8572 C   0  0  0  0  0  0  0  0  0  0  0  0
  -25.9667  -30.2308   20.0264 C   0  0  0  0  0  0  0  0  0  0  0  0
  -26.5214  -36.0253   23.1119 C   0  0  0  0  0  0  0  0  0  0  0  0
  -25.5382  -29.3474   21.0274 C   0  0  0  0  0  0  0  0  0  0  0  0
  -29.2421  -24.7656   19.6748 C   0  0  0  0  0  0  0  0  0  0  0  0
  -30.0773  -24.4572   20.7428 C   0  0  0  0  0  0  0  0  0  0  0  0
  -22.5518   -7.6262   21.2055 C   0  0  0  0  0  0  0  0  0  0  0  0
  -27.1547  -27.7051   20.2529 C   0  0  0  0  0  0  0  0  0  0  0  0
  -21.6531   -6.0244   22.6713 C   0  0  0  0  0  0  0  0  0  0  0  0
  -21.9993   -4.2941   24.8320 C   0  0  0  0  0  0  0  0  0  0  0  0
  -20.8744   -6.1768   23.8185 C   0  0  0  0  0  0  0  0  0  0  0  0
  -30.5050  -23.1472   20.9278 C   0  0  0  0  0  0  0  0  0  0  0  0
  -25.8773   -9.9392   19.9850 C   0  0  0  0  0  0  0  0  0  0  0  0
  -30.0724  -22.1901   20.0242 C   0  0  0  0  0  0  0  0  0  0  0  0
  -27.8892  -10.6189   19.4147 C   0  0  0  0  0  0  0  0  0  0  0  0
  -27.7665   -8.1941   20.0094 C   0  0  0  0  0  0  0  0  0  0  0  0
  -25.6586  -32.5583   22.1691 C   0  0  0  0  0  0  0  0  0  0  0  0
  -22.6290  -31.4211   22.3929 C   0  0  0  0  0  0  0  0  0  0  0  0
  -20.4803  -28.8013   21.9849 C   0  0  0  0  0  0  0  0  0  0  0  0
  -29.1562  -15.8238   19.7467 C   0  0  0  0  0  0  0  0  0  0  0  0
  -25.0661  -36.7023   25.0904 C   0  0  0  0  0  0  0  0  0  0  0  0
  -25.3177  -31.5788   19.8712 C   0  0  0  0  0  0  0  0  0  0  0  0
  -24.4476  -29.7175   21.9980 C   0  0  0  0  0  0  0  0  0  0  0  0
  -24.6676  -35.2319   25.1876 C   0  0  0  0  0  0  0  0  0  0  0  0
  -26.2282  -15.1524   17.9287 C   0  0  0  0  0  0  0  0  0  0  0  0
  -25.8634  -34.3338   24.8871 C   0  0  0  0  0  0  0  0  0  0  0  0
  -25.9764  -13.6885   18.2889 C   0  0  0  0  0  0  0  0  0  0  0  0
  -28.7224  -19.3164   19.7049 C   0  0  0  0  0  0  0  0  0  0  0  0
  -31.1482  -18.6488   19.5098 C   0  0  0  0  0  0  0  0  0  0  0  0
  -26.7009  -15.9662   19.1347 C   0  0  0  0  0  0  0  0  0  0  0  0
  -28.3328  -18.0691   18.9060 C   0  0  0  0  0  0  0  0  0  0  0  0
  -30.7143  -17.4345   18.6936 C   0  0  0  0  0  0  0  0  0  0  0  0
  -27.6257  -13.9259   20.1837 C   0  0  0  0  0  0  0  0  0  0  0  0
  -26.3783  -34.5596   23.4605 C   0  0  1  0  0  0  0  0  0  0  0  0
  -24.6603  -32.0767   21.1546 C   0  0  1  0  0  0  0  0  0  0  0  0
  -27.2055  -13.0701   18.9787 C   0  0  1  0  0  0  0  0  0  0  0  0
  -30.1365  -19.7877   19.3575 C   0  0  0  0  0  0  0  0  0  0  0  0
  -30.5226  -25.5152   21.6975 C   0  0  0  0  0  0  0  0  0  0  0  0
  -18.0723  -28.1629   22.2876 C   0  0  0  0  0  0  0  0  0  0  0  0
  -23.0705  -31.1930   25.4034 C   0  0  0  0  0  0  0  0  0  0  0  0
  -21.0607  -29.7041   25.5150 C   0  0  0  0  0  0  0  0  0  0  0  0
  -20.8213  -32.0637   24.7419 C   0  0  0  0  0  0  0  0  0  0  0  0
  -20.1428  -28.2500   19.0968 C   0  0  0  0  0  0  0  0  0  0  0  0
  -28.7559  -26.1516   19.4289 C   0  0  0  0  0  0  0  0  0  1  0  0
  -21.9400  -30.3722   23.2321 C   0  0  1  0  0  0  0  0  0  0  0  0
  -19.1155  -28.7110   21.3263 C   0  0  2  0  0  0  0  0  0  0  0  0
  -21.7451  -30.8267   24.7062 C   0  0  0  0  0  0  0  0  0  0  0  0
  -29.2612  -22.4517   18.9748 N   0  0  0  0  0  0  0  0  0  0  0  0
  -25.7265  -11.2377   19.7108 N   0  0  0  0  0  0  0  0  0  0  0  0
  -26.9673  -11.6230   19.3673 N   0  0  0  0  0  0  0  0  0  0  0  0
  -23.8483  -31.0489   21.8093 N   0  0  0  0  0  0  0  0  0  0  0  0
  -27.8486  -15.3167   19.7831 N   0  0  0  0  0  0  0  0  0  0  0  0
  -29.3550  -17.0219   19.0445 N   0  0  0  0  0  0  0  0  0  0  0  0
  -29.1843  -10.8331   19.0999 N   0  0  0  0  0  0  0  0  0  0  0  0
  -26.9212   -7.1566   20.4256 N   0  0  0  0  0  0  0  0  0  0  0  0
  -30.5052  -20.8903   20.2179 N   0  0  0  0  0  0  0  0  0  0  0  0
  -25.5227  -33.8924   22.5028 N   0  0  0  0  0  0  0  0  0  0  0  0
  -20.6989  -30.0450   22.5386 N   0  0  0  0  0  0  0  0  0  0  0  0
  -19.1731  -27.8168   20.1355 N   0  3  0  0  0  0  0  0  0  0  0  0
  -28.9860   -7.9591   19.8332 O   0  0  0  0  0  0  0  0  0  0  0  0
  -26.4897  -31.7771   22.6170 O   0  0  0  0  0  0  0  0  0  0  0  0
  -22.1011  -32.5273   22.2543 O   0  0  0  0  0  0  0  0  0  0  0  0
  -21.2716  -27.8612   22.0092 O   0  0  0  0  0  0  0  0  0  0  0  0
  -30.0916  -15.2404   20.3088 O   0  0  0  0  0  0  0  0  0  0  0  0
  -21.4818   -6.8820   21.5975 O   0  0  0  0  0  0  0  0  0  0  0  0
  -27.7368  -26.4705   20.3695 O   0  0  0  0  0  0  0  0  0  1  0  0
  -22.1646   -3.4624   25.8689 F   0  0  0  0  0  0  0  0  0  0  0  0
  -19.9577   -7.1518   23.8881 F   0  0  0  0  0  0  0  0  0  0  0  0
  -31.3099  -22.8258   21.9500 F   0  0  0  0  0  0  0  0  0  0  0  0
  1  2  1  0  0  0  0
  1  5  2  0  0  0  0
  2  6  2  0  0  0  0
  3  8  2  0  0  0  0
  3 16  1  0  0  0  0
  4  9  1  0  0  0  0
  4 16  2  0  0  0  0
  5 18  1  0  0  0  0
  6 20  1  0  0  0  0
  7 10  2  0  0  0  0
  7 19  1  0  0  0  0
  8 24  1  0  0  0  0
  9 24  2  0  0  0  0
 10 25  1  0  0  0  0
 11 12  2  0  0  0  0
 11 26  1  0  0  0  0
 12 27  1  0  0  0  0
 13 21  1  0  0  0  0
 13 25  2  0  0  0  0
 14 27  2  0  0  0  0
 14 28  1  0  0  0  0
 15 22  1  0  0  0  0
 15 65  2  0  0  0  0
 16 30  1  0  0  0  0
 17 30  1  0  0  0  0
 17 32  2  0  0  0  0
 17 33  1  0  0  0  0
 18 20  2  0  0  0  0
 18 38  1  0  0  0  0
 19 21  2  0  0  0  0
 19 39  1  0  0  0  0
 20 51  1  0  0  0  0
 21 40  1  0  0  0  0
 22 23  2  0  0  0  0
 22 61  1  0  0  0  0
 23 29  1  0  0  0  0
 23 55  1  0  0  0  0
 24 82  1  0  0  0  0
 25 83  1  0  0  0  0
 26 28  2  0  0  0  0
 26 82  1  0  0  0  0
 27 84  1  0  0  0  0
 28 85  1  0  0  0  0
 29 31  2  0  0  0  0
 29 86  1  0  0  0  0
 30 66  2  0  0  0  0
 31 65  1  0  0  0  0
 31 73  1  0  0  0  0
 32 67  1  0  0  0  0
 32 71  1  0  0  0  0
 33 72  1  0  0  0  0
 33 77  2  0  0  0  0
 34 52  1  0  0  0  0
 34 74  1  0  0  0  0
 34 78  2  0  0  0  0
 35 62  1  0  0  0  0
 35 68  1  0  0  0  0
 35 79  2  0  0  0  0
 36 63  1  0  0  0  0
 36 75  1  0  0  0  0
 36 80  2  0  0  0  0
 37 69  1  0  0  0  0
 37 70  1  0  0  0  0
 37 81  2  0  0  0  0
 38 41  1  0  0  0  0
 39 52  1  0  0  0  0
 40 68  1  0  0  0  0
 41 43  1  0  0  0  0
 42 44  1  0  0  0  0
 42 47  1  0  0  0  0
 43 51  1  0  0  0  0
 44 53  1  0  0  0  0
 45 48  1  0  0  0  0
 45 54  1  0  0  0  0
 46 49  1  0  0  0  0
 46 54  1  0  0  0  0
 47 69  1  0  0  0  0
 48 70  1  0  0  0  0
 49 70  1  0  0  0  0
 50 53  1  0  0  0  0
 50 69  1  0  0  0  0
 51 74  1  0  0  0  0
 52 68  1  0  0  0  0
 53 67  1  0  0  0  0
 54 73  1  0  0  0  0
 56 63  1  0  0  0  0
 57 64  1  0  0  0  0
 58 64  1  0  0  0  0
 59 64  1  0  0  0  0
 60 76  1  0  0  0  0
 61 83  1  0  0  0  0
 62 64  1  0  0  0  0
 62 75  1  0  0  0  0
 63 76  1  0  0  0  0
 66 67  1  0  0  0  0
M  CHG  1  76   1
M  ISO  4  37 100  61 101  70 100  83 101
M  END
> <Batch ID>
0153

> <Smiles>
CNC(C)C(=O)NC(C(=O)N1Cc2cc([101O:1][101CH2:1]c3cnc(NC4CC[100N:0]([100C:0](=O)N5CCCC(n6nc(-c7ccc(Oc8ccc(F)cc8F)cc7)c(C(N)=O)c6N)C5)CC4)c(F)c3C)ccc2CC1C(=O)NC1CCCc2ccccc21)C(C)(C)C

> <Shape>
0.328

> <Color>
0.108

> <Negative vol penalty>
0.000

$$$$

  -OEChem-04052321483D

 83 92  0     1  0  0  0  0  0999 V2000
  -29.7644  -24.9769   17.4949 C   0  0  0  0  0  0  0  0  0  0  0  0
  -28.3859  -25.0242   17.6763 C   0  0  0  0  0  0  0  0  0  0  0  0
  -24.3953  -14.6058   20.0983 C   0  0  0  0  0  0  0  0  0  0  0  0
  -23.4646  -12.8411   21.4610 C   0  0  0  0  0  0  0  0  0  0  0  0
  -30.6132  -25.4954   18.4719 C   0  0  0  0  0  0  0  0  0  0  0  0
  -27.8554  -25.5892   18.8356 C   0  0  0  0  0  0  0  0  0  0  0  0
  -22.6481  -28.7745   19.3285 C   0  0  0  0  0  0  0  0  0  0  0  0
  -25.4425  -13.7641   19.7234 C   0  0  0  0  0  0  0  0  0  0  0  0
  -24.5118  -11.9994   21.0860 C   0  0  0  0  0  0  0  0  0  0  0  0
  -21.3655  -28.4171   19.7421 C   0  0  0  0  0  0  0  0  0  0  0  0
  -28.3428  -12.6521   21.0559 C   0  0  0  0  0  0  0  0  0  0  0  0
  -29.6343  -13.1788   21.0723 C   0  0  0  0  0  0  0  0  0  0  0  0
  -21.8600  -29.2308   21.9585 C   0  0  0  0  0  0  0  0  0  0  0  0
  -29.8499  -12.7237   18.7093 C   0  0  0  0  0  0  0  0  0  0  0  0
  -23.4064  -14.1443   20.9672 C   0  0  0  0  0  0  0  0  0  0  0  0
  -21.0841  -15.1678   20.7081 C   0  0  0  0  0  0  0  0  0  0  0  0
  -30.0926  -26.0757   19.6393 C   0  0  0  0  0  0  0  0  0  0  0  0
  -23.5515  -29.3537   20.2312 C   0  0  0  0  0  0  0  0  0  0  0  0
  -28.6981  -26.1147   19.8298 C   0  0  0  0  0  0  0  0  0  0  0  0
  -23.1526  -29.5970   21.5532 C   0  0  0  0  0  0  0  0  0  0  0  0
  -25.5007  -12.4609   20.2173 C   0  0  0  0  0  0  0  0  0  0  0  0
  -20.9722  -28.6426   21.0580 C   0  0  0  0  0  0  0  0  0  0  0  0
  -27.8049  -12.1611   19.8662 C   0  0  0  0  0  0  0  0  0  0  0  0
  -30.3878  -13.2146   19.8990 C   0  0  0  0  0  0  0  0  0  0  0  0
  -28.5584  -12.1969   18.6930 C   0  0  0  0  0  0  0  0  0  0  0  0
  -22.3247  -15.0135   21.3553 C   0  0  0  0  0  0  0  0  0  0  0  0
  -20.4168  -16.1013   21.4629 C   0  0  0  0  0  0  0  0  0  0  0  0
  -20.5799  -14.5246   19.5300 C   0  0  0  0  0  0  0  0  0  0  0  0
  -26.3880  -28.5300   21.4056 C   0  0  0  0  0  0  0  0  0  0  0  0
  -26.2611  -31.4863   22.7347 C   0  0  0  0  0  0  0  0  0  0  0  0
  -24.3476  -34.0975   23.8149 C   0  0  0  0  0  0  0  0  0  0  0  0
  -20.1701  -20.7619   24.3248 C   0  0  0  0  0  0  0  0  0  0  0  0
  -31.0510  -26.5804   20.6888 C   0  0  0  0  0  0  0  0  0  0  0  0
  -24.9223  -29.7580   19.7625 C   0  0  0  0  0  0  0  0  0  0  0  0
  -24.0779  -30.2346   22.5561 C   0  0  0  0  0  0  0  0  0  0  0  0
  -30.3984  -27.4999   21.7179 C   0  0  0  0  0  0  0  0  0  0  0  0
  -21.4761  -18.0458   26.0036 C   0  0  0  0  0  0  0  0  0  0  0  0
  -29.0856  -26.9009   22.2125 C   0  0  0  0  0  0  0  0  0  0  0  0
  -21.7126  -17.0149   24.9001 C   0  0  0  0  0  0  0  0  0  0  0  0
  -18.3906  -23.4227   23.4101 C   0  0  0  0  0  0  0  0  0  0  0  0
  -18.8540  -25.9432   23.0716 C   0  0  0  0  0  0  0  0  0  0  0  0
  -21.8755  -19.4419   25.5397 C   0  0  0  0  0  0  0  0  0  0  0  0
  -18.6338  -22.0200   22.8553 C   0  0  0  0  0  0  0  0  0  0  0  0
  -21.4041  -18.8655   23.1813 C   0  0  0  0  0  0  0  0  0  0  0  0
  -21.1047  -22.1089   22.3902 C   0  0  0  0  0  0  0  0  0  0  0  0
  -28.0838  -26.7419   21.0625 C   0  0  1  0  0  0  0  0  0  0  0  0
  -25.9336  -29.8697   20.8992 C   0  0  1  0  0  0  0  0  0  0  0  0
  -18.1735  -26.4967   21.7980 C   0  0  2  0  0  0  0  0  0  0  0  0
  -17.6883  -25.0460   21.5000 C   0  0  2  0  0  0  0  0  0  0  0  0
  -21.0127  -17.4319   23.5942 C   0  0  1  0  0  0  0  0  0  0  0  0
  -21.1480  -23.6392   22.4727 C   0  0  1  0  0  0  0  0  0  0  0  0
  -18.8392  -24.5209   22.4349 C   0  0  2  0  0  0  0  0  0  0  0  0
  -17.6572  -24.5647   20.0599 C   0  0  0  0  0  0  0  0  0  0  0  0
  -22.4200  -24.1780   21.8288 C   0  0  0  0  0  0  0  0  0  0  0  0
  -24.5260  -36.3585   24.8889 C   0  0  0  0  0  0  0  0  0  0  0  0
  -26.7995  -30.1610   25.4298 C   0  0  0  0  0  0  0  0  0  0  0  0
  -26.0324  -32.2692   26.5411 C   0  0  0  0  0  0  0  0  0  0  0  0
  -28.0356  -32.3025   25.0549 C   0  0  0  0  0  0  0  0  0  0  0  0
  -23.1023  -35.4309   21.4847 C   0  0  0  0  0  0  0  0  0  0  0  0
  -19.1080  -27.1863   20.8141 C   0  0  0  0  0  0  0  0  0  1  0  0
  -25.7370  -32.0537   24.0317 C   0  0  1  0  0  0  0  0  0  0  0  0
  -24.4571  -35.5927   23.5768 C   0  0  2  0  0  0  0  0  0  0  0  0
  -26.6341  -31.6828   25.2462 C   0  0  0  0  0  0  0  0  0  0  0  0
  -22.4413  -15.7872   22.4378 N   0  0  0  0  0  0  0  0  0  0  0  0
  -21.2654  -16.4367   22.4766 N   0  0  0  0  0  0  0  0  0  0  0  0
  -25.4099  -30.6064   22.0513 N   0  0  0  0  0  0  0  0  0  0  0  0
  -21.1908  -19.7998   24.2977 N   0  0  0  0  0  0  0  0  0  0  0  0
  -19.9862  -21.5325   23.1614 N   0  0  0  0  0  0  0  0  0  0  0  0
  -19.1929  -16.6599   21.3517 N   0  0  0  0  0  0  0  0  0  0  0  0
  -21.3962  -13.5910   18.8771 N   0  0  0  0  0  0  0  0  0  0  0  0
  -27.4826  -28.0172   20.7359 N   0  0  0  0  0  0  0  0  0  0  0  0
  -25.5849  -33.4888   23.8175 N   0  0  0  0  0  0  0  0  0  0  0  0
  -23.2781  -36.0826   22.8081 N   0  3  0  0  0  0  0  0  0  0  0  0
  -19.4456  -14.7827   19.0606 O   0  0  0  0  0  0  0  0  0  0  0  0
  -25.7907  -28.0014   22.3359 O   0  0  0  0  0  0  0  0  0  0  0  0
  -27.3815  -31.8173   22.3387 O   0  0  0  0  0  0  0  0  0  0  0  0
  -23.2724  -33.5271   23.9855 O   0  0  0  0  0  0  0  0  0  0  0  0
  -19.4597  -20.9225   25.3254 O   0  0  0  0  0  0  0  0  0  0  0  0
  -20.0533  -24.1628   21.7265 O   0  0  0  0  0  0  0  0  0  0  0  0
  -26.5223  -11.6392   19.8514 O   0  0  0  0  0  0  0  0  0  0  0  0
  -19.7109  -28.2913   21.4678 O   0  0  0  0  0  0  0  0  0  1  0  0
  -31.6274  -13.7218   19.9146 F   0  0  0  0  0  0  0  0  0  0  0  0
  -28.0465  -11.7278   17.5468 F   0  0  0  0  0  0  0  0  0  0  0  0
  1  2  1  0  0  0  0
  1  5  2  0  0  0  0
  2  6  2  0  0  0  0
  3  8  2  0  0  0  0
  3 15  1  0  0  0  0
  4  9  1  0  0  0  0
  4 15  2  0  0  0  0
  5 17  1  0  0  0  0
  6 19  1  0  0  0  0
  7 10  2  0  0  0  0
  7 18  1  0  0  0  0
  8 21  1  0  0  0  0
  9 21  2  0  0  0  0
 10 22  1  0  0  0  0
 11 12  2  0  0  0  0
 11 23  1  0  0  0  0
 12 24  1  0  0  0  0
 13 20  1  0  0  0  0
 13 22  2  0  0  0  0
 14 24  2  0  0  0  0
 14 25  1  0  0  0  0
 15 26  1  0  0  0  0
 16 26  1  0  0  0  0
 16 27  2  0  0  0  0
 16 28  1  0  0  0  0
 17 19  2  0  0  0  0
 17 33  1  0  0  0  0
 18 20  2  0  0  0  0
 18 34  1  0  0  0  0
 19 46  1  0  0  0  0
 20 35  1  0  0  0  0
 21 80  1  0  0  0  0
 22 81  1  0  0  0  0
 23 25  2  0  0  0  0
 23 80  1  0  0  0  0
 24 82  1  0  0  0  0
 25 83  1  0  0  0  0
 26 64  2  0  0  0  0
 27 65  1  0  0  0  0
 27 69  1  0  0  0  0
 28 70  1  0  0  0  0
 28 74  2  0  0  0  0
 29 47  1  0  0  0  0
 29 71  1  0  0  0  0
 29 75  2  0  0  0  0
 30 61  1  0  0  0  0
 30 66  1  0  0  0  0
 30 76  2  0  0  0  0
 31 62  1  0  0  0  0
 31 72  1  0  0  0  0
 31 77  2  0  0  0  0
 32 67  1  0  0  0  0
 32 68  1  0  0  0  0
 32 78  2  0  0  0  0
 33 36  1  0  0  0  0
 34 47  1  0  0  0  0
 35 66  1  0  0  0  0
 36 38  1  0  0  0  0
 37 39  1  0  0  0  0
 37 42  1  0  0  0  0
 38 46  1  0  0  0  0
 39 50  1  0  0  0  0
 40 43  1  0  0  0  0
 40 52  1  0  0  0  0
 41 48  1  0  0  0  0
 41 52  1  0  0  0  0
 42 67  1  0  0  0  0
 43 68  1  0  0  0  0
 44 50  1  0  0  0  0
 44 67  1  0  0  0  0
 45 51  1  0  0  0  0
 45 68  1  0  0  0  0
 46 71  1  0  0  0  0
 47 66  1  0  0  0  0
 48 49  1  0  0  0  0
 48 60  1  0  0  0  0
 49 52  1  0  0  0  0
 49 53  1  0  0  0  0
 50 65  1  0  0  0  0
 51 54  1  0  0  0  0
 51 79  1  0  0  0  0
 52 79  1  0  0  0  0
 55 62  1  0  0  0  0
 56 63  1  0  0  0  0
 57 63  1  0  0  0  0
 58 63  1  0  0  0  0
 59 73  1  0  0  0  0
 60 81  1  0  0  0  0
 61 63  1  0  0  0  0
 61 72  1  0  0  0  0
 62 73  1  0  0  0  0
 64 65  1  0  0  0  0
M  CHG  1  73   1
M  ISO  4  32 100  60 101  68 100  81 101
M  END
> <Batch ID>
0153

> <Smiles>
CNC(C)C(=O)NC(C(=O)N1Cc2cc([101O:1][101CH2:1]C3CC4(CC[100N:0]([100C:0](=O)N5CCCC(n6nc(-c7ccc(Oc8ccc(F)cc8F)cc7)c(C(N)=O)c6N)C5)CC(C)O4)C3C)ccc2CC1C(=O)NC1CCCc2ccccc21)C(C)(C)C

> <Shape>
0.310

> <Color>
0.084

> <Negative vol penalty>
0.000

$$$$

  -OEChem-04052321483D

 90100  0     1  0  0  0  0  0999 V2000
  -28.9768  -32.5793   26.3834 C   0  0  0  0  0  0  0  0  0  0  0  0
  -28.8255  -31.4070   25.6498 C   0  0  0  0  0  0  0  0  0  0  0  0
  -23.5547  -10.8384   23.1188 C   0  0  0  0  0  0  0  0  0  0  0  0
  -23.2520   -9.5112   21.1228 C   0  0  0  0  0  0  0  0  0  0  0  0
  -27.8536  -33.3143   26.7604 C   0  0  0  0  0  0  0  0  0  0  0  0
  -27.5507  -30.9684   25.2936 C   0  0  0  0  0  0  0  0  0  0  0  0
  -27.2953  -29.4526   20.4685 C   0  0  0  0  0  0  0  0  0  0  0  0
  -31.9803  -20.8059   22.0535 C   0  0  0  0  0  0  0  0  0  0  0  0
  -22.7165   -9.9728   23.8215 C   0  0  0  0  0  0  0  0  0  0  0  0
  -22.4138   -8.6456   21.8255 C   0  0  0  0  0  0  0  0  0  0  0  0
  -27.8053  -28.1898   20.1700 C   0  0  0  0  0  0  0  0  0  0  0  0
  -31.6961  -22.1390   21.7574 C   0  0  0  0  0  0  0  0  0  0  0  0
  -22.7435   -6.0912   24.0134 C   0  0  0  0  0  0  0  0  0  0  0  0
  -22.9360   -4.7209   23.8384 C   0  0  0  0  0  0  0  0  0  0  0  0
  -25.5674  -27.2892   20.1846 C   0  0  0  0  0  0  0  0  0  0  0  0
  -29.4677  -21.5104   21.0672 C   0  0  0  0  0  0  0  0  0  0  0  0
  -20.6764   -4.5094   23.0097 C   0  0  0  0  0  0  0  0  0  0  0  0
  -23.8225  -10.6076   21.7694 C   0  0  0  0  0  0  0  0  0  0  0  0
  -26.0845  -11.4016   20.8973 C   0  0  0  0  0  0  0  0  0  0  0  0
  -26.5650  -32.8896   26.4004 C   0  0  0  0  0  0  0  0  0  0  0  0
  -25.9162  -29.6413   20.6384 C   0  0  0  0  0  0  0  0  0  0  0  0
  -31.0083  -19.8251   21.8564 C   0  0  0  0  0  0  0  0  0  0  0  0
  -26.4091  -31.6977   25.6673 C   0  0  0  0  0  0  0  0  0  0  0  0
  -25.0423  -28.5559   20.4828 C   0  0  0  0  0  0  0  0  0  0  0  0
  -29.7520  -20.1773   21.3633 C   0  0  0  0  0  0  0  0  0  0  0  0
  -22.1461   -8.8764   23.1749 C   0  0  0  0  0  0  0  0  0  0  0  0
  -26.9416  -27.1073   20.0308 C   0  0  0  0  0  0  0  0  0  0  0  0
  -30.4397  -22.4913   21.2643 C   0  0  0  0  0  0  0  0  0  0  0  0
  -21.5175   -6.6707   23.6867 C   0  0  0  0  0  0  0  0  0  0  0  0
  -21.9025   -3.9299   23.3365 C   0  0  0  0  0  0  0  0  0  0  0  0
  -20.4840   -5.8798   23.1848 C   0  0  0  0  0  0  0  0  0  0  0  0
  -24.6878  -11.5017   21.0429 C   0  0  0  0  0  0  0  0  0  0  0  0
  -26.4276  -12.4840   20.1246 C   0  0  0  0  0  0  0  0  0  0  0  0
  -26.9906  -10.4181   21.4144 C   0  0  0  0  0  0  0  0  0  0  0  0
  -24.0606  -30.5876   23.0394 C   0  0  0  0  0  0  0  0  0  0  0  0
  -21.7359  -30.4552   20.7811 C   0  0  0  0  0  0  0  0  0  0  0  0
  -20.6431  -29.1553   17.8209 C   0  0  0  0  0  0  0  0  0  0  0  0
  -26.0154  -17.8357   18.8277 C   0  0  0  0  0  0  0  0  0  0  0  0
  -25.3781  -33.6924   26.8712 C   0  0  0  0  0  0  0  0  0  0  0  0
  -25.3796  -31.0150   20.9338 C   0  0  0  0  0  0  0  0  0  0  0  0
  -23.5518  -28.7097   20.6351 C   0  0  0  0  0  0  0  0  0  0  0  0
  -24.0848  -33.3579   26.1325 C   0  0  0  0  0  0  0  0  0  0  0  0
  -23.5759  -15.7181   17.5090 C   0  0  0  0  0  0  0  0  0  0  0  0
  -30.9653  -17.8622   23.5354 C   0  0  0  0  0  0  0  0  0  0  0  0
  -32.4024  -18.1150   23.2021 C   0  0  0  0  0  0  0  0  0  0  0  0
  -23.9014  -31.8467   26.0347 C   0  0  0  0  0  0  0  0  0  0  0  0
  -23.7383  -14.4248   18.3041 C   0  0  0  0  0  0  0  0  0  0  0  0
  -23.7516  -16.9321   18.4114 C   0  0  0  0  0  0  0  0  0  0  0  0
  -26.4754  -18.2437   21.2965 C   0  0  0  0  0  0  0  0  0  0  0  0
  -25.2730  -15.6731   19.9113 C   0  0  0  0  0  0  0  0  0  0  0  0
  -31.3349  -18.4051   22.1808 C   0  0  0  0  0  0  0  0  0  0  0  0
  -28.6778  -19.1308   21.1418 C   0  0  1  0  0  0  0  0  0  0  0  0
  -25.0442  -31.2025   25.2407 C   0  0  1  0  0  0  0  0  0  0  0  0
  -24.0040  -30.9902   21.5929 C   0  0  1  0  0  0  0  0  0  0  0  0
  -27.3714  -19.2946   21.9488 C   0  0  2  0  0  0  0  0  0  0  0  0
  -25.0833  -14.4083   19.0481 C   0  0  1  0  0  0  0  0  0  0  0  0
  -28.1501  -18.9524   19.6735 C   0  0  0  0  0  0  0  0  0  0  0  0
  -27.5360  -19.0610   23.4450 C   0  0  0  0  0  0  0  0  0  0  0  0
  -29.1243  -18.0912   18.8541 C   0  0  0  0  0  0  0  0  0  0  0  0
  -27.9250  -20.3010   18.9597 C   0  0  0  0  0  0  0  0  0  0  0  0
  -18.6870  -29.2061   16.2496 C   0  0  0  0  0  0  0  0  0  0  0  0
  -20.1644  -28.6599   22.6831 C   0  0  0  0  0  0  0  0  0  0  0  0
  -18.7239  -27.9890   20.7484 C   0  0  0  0  0  0  0  0  0  0  0  0
  -18.7875  -30.3709   21.4869 C   0  0  0  0  0  0  0  0  0  0  0  0
  -22.2977  -30.2216   15.6109 C   0  0  0  0  0  0  0  0  0  0  0  0
  -28.7487  -25.5721   20.2128 C   0  0  0  0  0  0  0  0  0  1  0  0
  -28.8581  -24.0826   20.4757 C   0  0  0  0  0  0  0  0  0  0  0  0
  -20.7854  -29.3918   20.2863 C   0  0  1  0  0  0  0  0  0  0  0  0
  -20.0381  -29.8134   16.5939 C   0  0  2  0  0  0  0  0  0  0  0  0
  -19.6435  -29.0993   21.3001 C   0  0  0  0  0  0  0  0  0  0  0  0
  -24.1786  -12.5638   20.4132 N   0  0  0  0  0  0  0  0  0  0  0  0
  -25.2611  -13.1412   19.8646 N   0  0  0  0  0  0  0  0  0  0  0  0
  -23.0762  -30.0714   20.9301 N   0  0  0  0  0  0  0  0  0  0  0  0
  -25.0250  -16.8910   19.1299 N   0  0  0  0  0  0  0  0  0  0  0  0
  -26.8529  -18.2392   19.8786 N   0  0  0  0  0  0  0  0  0  0  0  0
  -27.6103  -12.9283   19.6489 N   0  0  0  0  0  0  0  0  0  0  0  0
  -26.4707   -9.3725   22.1894 N   0  0  0  0  0  0  0  0  0  0  0  0
  -24.8518  -31.4078   23.8211 N   0  0  0  0  0  0  0  0  0  0  0  0
  -20.3220  -29.8360   18.9762 N   0  0  0  0  0  0  0  0  0  0  0  0
  -20.9406  -29.6484   15.4195 N   0  3  0  0  0  0  0  0  0  0  0  0
  -28.2269  -10.4743   21.2093 O   0  0  0  0  0  0  0  0  0  0  0  0
  -23.4319  -29.6065   23.4187 O   0  0  0  0  0  0  0  0  0  0  0  0
  -21.3063  -31.5866   21.0196 O   0  0  0  0  0  0  0  0  0  0  0  0
  -21.3285  -28.1369   17.7608 O   0  0  0  0  0  0  0  0  0  0  0  0
  -26.1037  -18.3122   17.6901 O   0  0  0  0  0  0  0  0  0  0  0  0
  -21.3283   -8.0315   23.8603 O   0  0  0  0  0  0  0  0  0  0  0  0
  -27.4401  -25.8652   19.7381 O   0  0  0  0  0  0  0  0  0  1  0  0
  -30.1622  -23.7922   20.9765 O   0  0  0  0  0  0  0  0  0  0  0  0
  -22.0879   -2.6143   23.1670 F   0  0  0  0  0  0  0  0  0  0  0  0
  -19.3043   -6.4310   22.8680 F   0  0  0  0  0  0  0  0  0  0  0  0
  1  2  1  0  0  0  0
  1  5  2  0  0  0  0
  2  6  2  0  0  0  0
  3  9  2  0  0  0  0
  3 18  1  0  0  0  0
  4 10  1  0  0  0  0
  4 18  2  0  0  0  0
  5 20  1  0  0  0  0
  6 23  1  0  0  0  0
  7 11  2  0  0  0  0
  7 21  1  0  0  0  0
  8 12  2  0  0  0  0
  8 22  1  0  0  0  0
  9 26  1  0  0  0  0
 10 26  2  0  0  0  0
 11 27  1  0  0  0  0
 12 28  1  0  0  0  0
 13 14  2  0  0  0  0
 13 29  1  0  0  0  0
 14 30  1  0  0  0  0
 15 24  1  0  0  0  0
 15 27  2  0  0  0  0
 16 25  1  0  0  0  0
 16 28  2  0  0  0  0
 17 30  2  0  0  0  0
 17 31  1  0  0  0  0
 18 32  1  0  0  0  0
 19 32  1  0  0  0  0
 19 33  2  0  0  0  0
 19 34  1  0  0  0  0
 20 23  2  0  0  0  0
 20 39  1  0  0  0  0
 21 24  2  0  0  0  0
 21 40  1  0  0  0  0
 22 25  2  0  0  0  0
 22 51  1  0  0  0  0
 23 53  1  0  0  0  0
 24 41  1  0  0  0  0
 25 52  1  0  0  0  0
 26 86  1  0  0  0  0
 27 87  1  0  0  0  0
 28 88  1  0  0  0  0
 29 31  2  0  0  0  0
 29 86  1  0  0  0  0
 30 89  1  0  0  0  0
 31 90  1  0  0  0  0
 32 71  2  0  0  0  0
 33 72  1  0  0  0  0
 33 76  1  0  0  0  0
 34 77  1  0  0  0  0
 34 81  2  0  0  0  0
 35 54  1  0  0  0  0
 35 78  1  0  0  0  0
 35 82  2  0  0  0  0
 36 68  1  0  0  0  0
 36 73  1  0  0  0  0
 36 83  2  0  0  0  0
 37 69  1  0  0  0  0
 37 79  1  0  0  0  0
 37 84  2  0  0  0  0
 38 74  1  0  0  0  0
 38 75  1  0  0  0  0
 38 85  2  0  0  0  0
 39 42  1  0  0  0  0
 40 54  1  0  0  0  0
 41 73  1  0  0  0  0
 42 46  1  0  0  0  0
 43 47  1  0  0  0  0
 43 48  1  0  0  0  0
 44 45  1  0  0  0  0
 44 51  1  0  0  0  0
 45 51  1  0  0  0  0
 46 53  1  0  0  0  0
 47 56  1  0  0  0  0
 48 74  1  0  0  0  0
 49 55  1  0  0  0  0
 49 75  1  0  0  0  0
 50 56  1  0  0  0  0
 50 74  1  0  0  0  0
 52 55  1  0  0  0  0
 52 57  1  0  0  0  0
 53 78  1  0  0  0  0
 54 73  1  0  0  0  0
 55 58  1  0  0  0  0
 56 72  1  0  0  0  0
 57 59  1  0  0  0  0
 57 60  1  0  0  0  0
 57 75  1  0  0  0  0
 61 69  1  0  0  0  0
 62 70  1  0  0  0  0
 63 70  1  0  0  0  0
 64 70  1  0  0  0  0
 65 80  1  0  0  0  0
 66 67  1  0  0  0  0
 66 87  1  0  0  0  0
 67 88  1  0  0  0  0
 68 70  1  0  0  0  0
 68 79  1  0  0  0  0
 69 80  1  0  0  0  0
 71 72  1  0  0  0  0
M  CHG  1  80   1
M  ISO  4  38 100  66 101  75 100  87 101
M  END
> <Batch ID>
0153

> <Smiles>
CNC(C)C(=O)NC(C(=O)N1Cc2cc([101O:1][101CH2:1]COc3ccc(C4CC4)c(C4C(C)C[100N:0]([100C:0](=O)N5CCCC(n6nc(-c7ccc(Oc8ccc(F)cc8F)cc7)c(C(N)=O)c6N)C5)C4(C)C)c3)ccc2CC1C(=O)NC1CCCc2ccccc21)C(C)(C)C

> <Shape>
0.307

> <Color>
0.084

> <Negative vol penalty>
0.000

$$$$

  -OEChem-04052321483D

 86 95  0     1  0  0  0  0  0999 V2000
  -22.4876   -7.5081   20.4383 C   0  0  0  0  0  0  0  0  0  0  0  0
  -22.0697   -8.5230   19.5835 C   0  0  0  0  0  0  0  0  0  0  0  0
  -28.2578  -26.1604   20.3456 C   0  0  0  0  0  0  0  0  0  0  0  0
  -26.7271  -25.6156   18.5575 C   0  0  0  0  0  0  0  0  0  0  0  0
  -22.9380   -7.8195   21.7205 C   0  0  0  0  0  0  0  0  0  0  0  0
  -22.1009   -9.8500   20.0110 C   0  0  0  0  0  0  0  0  0  0  0  0
  -23.1506  -16.4896   17.5351 C   0  0  0  0  0  0  0  0  0  0  0  0
  -28.9816  -24.9979   20.0802 C   0  0  0  0  0  0  0  0  0  0  0  0
  -27.4509  -24.4531   18.2921 C   0  0  0  0  0  0  0  0  0  0  0  0
  -22.5442  -17.7450   17.5284 C   0  0  0  0  0  0  0  0  0  0  0  0
  -28.6854  -21.1593   17.3772 C   0  0  0  0  0  0  0  0  0  0  0  0
  -27.9674  -19.9818   17.1689 C   0  0  0  0  0  0  0  0  0  0  0  0
  -23.4163  -18.1714   19.7367 C   0  0  0  0  0  0  0  0  0  0  0  0
  -19.2498  -24.1440   18.2692 C   0  0  0  0  0  0  0  0  0  0  0  0
  -27.0209  -20.1671   19.3841 C   0  0  0  0  0  0  0  0  0  0  0  0
  -27.1306  -26.4692   19.5842 C   0  0  0  0  0  0  0  0  0  0  0  0
  -26.5845  -28.9444   19.2964 C   0  0  0  0  0  0  0  0  0  0  0  0
  -22.9838   -9.1518   22.1605 C   0  0  0  0  0  0  0  0  0  0  0  0
  -23.8865  -16.0606   18.6490 C   0  0  0  0  0  0  0  0  0  0  0  0
  -22.5510  -10.1794   21.3008 C   0  0  0  0  0  0  0  0  0  0  0  0
  -24.0331  -16.9111   19.7541 C   0  0  0  0  0  0  0  0  0  0  0  0
  -19.5213  -24.7227   20.9631 C   0  0  0  0  0  0  0  0  0  0  0  0
  -20.1955  -23.6324   20.4008 C   0  0  0  0  0  0  0  0  0  0  0  0
  -18.5740  -25.2379   18.8332 C   0  0  0  0  0  0  0  0  0  0  0  0
  -18.7023  -25.5306   20.1927 C   0  0  0  0  0  0  0  0  0  0  0  0
  -28.5782  -24.1443   19.0534 C   0  0  0  0  0  0  0  0  0  0  0  0
  -22.6745  -18.5850   18.6304 C   0  0  0  0  0  0  0  0  0  0  0  0
  -28.5714  -21.8407   18.5890 C   0  0  0  0  0  0  0  0  0  0  0  0
  -20.0641  -23.3270   19.0566 C   0  0  0  0  0  0  0  0  0  0  0  0
  -27.1351  -19.4857   18.1723 C   0  0  0  0  0  0  0  0  0  0  0  0
  -27.7391  -21.3446   19.5924 C   0  0  0  0  0  0  0  0  0  0  0  0
  -26.3821  -27.6695   19.8583 C   0  0  0  0  0  0  0  0  0  0  0  0
  -25.6223  -29.7329   19.8787 C   0  0  0  0  0  0  0  0  0  0  0  0
  -27.5552  -29.3771   18.3341 C   0  0  0  0  0  0  0  0  0  0  0  0
  -23.6235  -13.6681   20.7252 C   0  0  0  0  0  0  0  0  0  0  0  0
  -26.4835  -14.7811   21.7757 C   0  0  0  0  0  0  0  0  0  0  0  0
  -28.6571  -17.3999   22.0295 C   0  0  0  0  0  0  0  0  0  0  0  0
  -20.2869  -28.5267   22.3137 C   0  0  0  0  0  0  0  0  0  0  0  0
  -23.4337   -9.4351   23.5718 C   0  0  0  0  0  0  0  0  0  0  0  0
  -24.5568  -14.7142   18.6298 C   0  0  0  0  0  0  0  0  0  0  0  0
  -19.7839  -24.8111   22.4333 C   0  0  0  0  0  0  0  0  0  0  0  0
  -20.9725  -22.8915   21.4426 C   0  0  0  0  0  0  0  0  0  0  0  0
  -24.8296  -16.5060   20.9665 C   0  0  0  0  0  0  0  0  0  0  0  0
  -23.7886  -10.8997   23.8155 C   0  0  0  0  0  0  0  0  0  0  0  0
  -21.0425  -23.9401   22.5631 C   0  0  0  0  0  0  0  0  0  0  0  0
  -23.0407  -30.1462   23.8855 C   0  0  0  0  0  0  0  0  0  0  0  0
  -22.7124  -11.8131   23.2374 C   0  0  0  0  0  0  0  0  0  0  0  0
  -24.2276  -29.8101   22.9810 C   0  0  0  0  0  0  0  0  0  0  0  0
  -22.0587  -28.9809   23.9844 C   0  0  0  0  0  0  0  0  0  0  0  0
  -22.7680  -28.1259   21.7844 C   0  0  0  0  0  0  0  0  0  0  0  0
  -22.5933  -11.6331   21.7192 C   0  0  1  0  0  0  0  0  0  0  0  0
  -24.8531  -14.1743   20.0256 C   0  0  1  0  0  0  0  0  0  0  0  0
  -23.7575  -29.2906   21.6090 C   0  0  2  0  0  0  0  0  0  0  0  0
  -17.7089  -26.0781   17.9502 C   0  0  0  0  0  0  0  0  0  0  0  0
  -30.7832  -18.6169   22.5736 C   0  0  0  0  0  0  0  0  0  0  0  0
  -25.2620  -14.9212   24.5682 C   0  0  0  0  0  0  0  0  0  0  0  0
  -27.1671  -16.3948   25.2518 C   0  0  0  0  0  0  0  0  0  0  0  0
  -27.6082  -14.0582   24.4980 C   0  0  0  0  0  0  0  0  0  0  0  0
  -29.8408  -16.7476   19.3965 C   0  0  0  0  0  0  0  0  0  0  0  0
  -17.9746  -26.6788   20.8056 C   0  0  0  0  0  0  0  0  0  0  0  0
  -18.6298  -28.0380   20.5320 C   0  0  0  0  0  0  0  0  0  0  0  0
  -20.8806  -19.9492   17.8710 C   0  0  0  0  0  0  0  0  0  1  0  0
  -20.0112  -21.0121   18.5144 C   0  0  0  0  0  0  0  0  0  0  0  0
  -26.9237  -15.8004   22.7985 C   0  0  1  0  0  0  0  0  0  0  0  0
  -30.1472  -17.5021   21.7578 C   0  0  2  0  0  0  0  0  0  0  0  0
  -26.7235  -15.3008   24.2572 C   0  0  0  0  0  0  0  0  0  0  0  0
  -25.3710  -27.6451   20.7306 N   0  0  0  0  0  0  0  0  0  0  0  0
  -24.9294  -28.9144   20.7214 N   0  0  0  0  0  0  0  0  0  0  0  0
  -25.4608  -15.1774   20.9023 N   0  0  0  0  0  0  0  0  0  0  0  0
  -21.6508  -28.5368   22.6493 N   0  0  0  0  0  0  0  0  0  0  0  0
  -25.3099  -31.0396   19.7470 N   0  0  0  0  0  0  0  0  0  0  0  0
  -28.4696  -28.4376   17.8386 N   0  0  0  0  0  0  0  0  0  0  0  0
  -23.6698  -12.3239   21.0423 N   0  0  0  0  0  0  0  0  0  0  0  0
  -28.3031  -16.1413   22.4677 N   0  0  0  0  0  0  0  0  0  0  0  0
  -19.9873  -28.0978   21.0265 N   0  0  0  0  0  0  0  0  0  0  0  0
  -30.3927  -17.7776   20.3139 N   0  3  0  0  0  0  0  0  0  0  0  0
  -27.6207  -30.5655   17.9380 O   0  0  0  0  0  0  0  0  0  0  0  0
  -22.7016  -14.4402   20.9612 O   0  0  0  0  0  0  0  0  0  0  0  0
  -27.0321  -13.6766   21.7478 O   0  0  0  0  0  0  0  0  0  0  0  0
  -27.8851  -18.3432   21.8725 O   0  0  0  0  0  0  0  0  0  0  0  0
  -19.4021  -28.8792   23.1011 O   0  0  0  0  0  0  0  0  0  0  0  0
  -29.2844  -23.0100   18.7940 O   0  0  0  0  0  0  0  0  0  0  0  0
  -22.0832  -19.8106   18.6267 O   0  0  0  0  0  0  0  0  0  1  0  0
  -20.7087  -22.2517   18.5042 O   0  0  0  0  0  0  0  0  0  0  0  0
  -26.4444  -18.3558   17.9715 F   0  0  0  0  0  0  0  0  0  0  0  0
  -27.6245  -21.9954   20.7583 F   0  0  0  0  0  0  0  0  0  0  0  0
  1  2  1  0  0  0  0
  1  5  2  0  0  0  0
  2  6  2  0  0  0  0
  3  8  2  0  0  0  0
  3 16  1  0  0  0  0
  4  9  1  0  0  0  0
  4 16  2  0  0  0  0
  5 18  1  0  0  0  0
  6 20  1  0  0  0  0
  7 10  2  0  0  0  0
  7 19  1  0  0  0  0
  8 26  1  0  0  0  0
  9 26  2  0  0  0  0
 10 27  1  0  0  0  0
 11 12  2  0  0  0  0
 11 28  1  0  0  0  0
 12 30  1  0  0  0  0
 13 21  1  0  0  0  0
 13 27  2  0  0  0  0
 14 24  2  0  0  0  0
 14 29  1  0  0  0  0
 15 30  2  0  0  0  0
 15 31  1  0  0  0  0
 16 32  1  0  0  0  0
 17 32  1  0  0  0  0
 17 33  2  0  0  0  0
 17 34  1  0  0  0  0
 18 20  2  0  0  0  0
 18 39  1  0  0  0  0
 19 21  2  0  0  0  0
 19 40  1  0  0  0  0
 20 51  1  0  0  0  0
 21 43  1  0  0  0  0
 22 23  1  0  0  0  0
 22 25  2  0  0  0  0
 22 41  1  0  0  0  0
 23 29  2  0  0  0  0
 23 42  1  0  0  0  0
 24 25  1  0  0  0  0
 24 54  1  0  0  0  0
 25 60  1  0  0  0  0
 26 82  1  0  0  0  0
 27 83  1  0  0  0  0
 28 31  2  0  0  0  0
 28 82  1  0  0  0  0
 29 84  1  0  0  0  0
 30 85  1  0  0  0  0
 31 86  1  0  0  0  0
 32 67  2  0  0  0  0
 33 68  1  0  0  0  0
 33 71  1  0  0  0  0
 34 72  1  0  0  0  0
 34 77  2  0  0  0  0
 35 52  1  0  0  0  0
 35 73  1  0  0  0  0
 35 78  2  0  0  0  0
 36 64  1  0  0  0  0
 36 69  1  0  0  0  0
 36 79  2  0  0  0  0
 37 65  1  0  0  0  0
 37 74  1  0  0  0  0
 37 80  2  0  0  0  0
 38 70  1  0  0  0  0
 38 75  1  0  0  0  0
 38 81  2  0  0  0  0
 39 44  1  0  0  0  0
 40 52  1  0  0  0  0
 41 45  1  0  0  0  0
 42 45  1  0  0  0  0
 43 69  1  0  0  0  0
 44 47  1  0  0  0  0
 46 48  1  0  0  0  0
 46 49  1  0  0  0  0
 47 51  1  0  0  0  0
 48 53  1  0  0  0  0
 49 70  1  0  0  0  0
 50 53  1  0  0  0  0
 50 70  1  0  0  0  0
 51 73  1  0  0  0  0
 52 69  1  0  0  0  0
 53 68  1  0  0  0  0
 55 65  1  0  0  0  0
 56 66  1  0  0  0  0
 57 66  1  0  0  0  0
 58 66  1  0  0  0  0
 59 76  1  0  0  0  0
 60 61  1  0  0  0  0
 61 75  1  0  0  0  0
 62 63  1  0  0  0  0
 62 83  1  0  0  0  0
 63 84  1  0  0  0  0
 64 66  1  0  0  0  0
 64 74  1  0  0  0  0
 65 76  1  0  0  0  0
 67 68  1  0  0  0  0
M  CHG  1  76   1
M  ISO  4  38 100  62 101  75 100  83 101
M  END
> <Batch ID>
0153

> <Smiles>
CNC(C)C(=O)NC(C(=O)N1Cc2cc([101O:1][101CH2:1]COc3cc(C)c(CC[100NH:0][100C:0](=O)N4CCCC(n5nc(-c6ccc(Oc7ccc(F)cc7F)cc6)c(C(N)=O)c5N)C4)c4c3CCC4)ccc2CC1C(=O)NC1CCCc2ccccc21)C(C)(C)C

> <Shape>
0.230

> <Color>
0.059

> <Negative vol penalty>
0.000

$$$$
