
  -OEChem-04052321513D

 89 98  0     1  0  0  0  0  0999 V2000
  -16.9749  -30.7103   24.0795 C   0  0  0  0  0  0  0  0  0  0  0  0
  -18.1782  -30.7946   24.7725 C   0  0  0  0  0  0  0  0  0  0  0  0
  -25.6567  -13.5438   19.7955 C   0  0  0  0  0  0  0  0  0  0  0  0
  -26.9543  -13.7506   21.8229 C   0  0  0  0  0  0  0  0  0  0  0  0
  -16.8337  -29.7928   23.0392 C   0  0  0  0  0  0  0  0  0  0  0  0
  -19.2408  -29.9607   24.4263 C   0  0  0  0  0  0  0  0  0  0  0  0
  -25.2068  -31.3322   24.6050 C   0  0  0  0  0  0  0  0  0  0  0  0
  -26.3929  -12.4139   19.4395 C   0  0  0  0  0  0  0  0  0  0  0  0
  -27.6905  -12.6205   21.4670 C   0  0  0  0  0  0  0  0  0  0  0  0
  -26.2032  -31.0640   25.5425 C   0  0  0  0  0  0  0  0  0  0  0  0
  -28.1710   -9.6845   17.8231 C   0  0  0  0  0  0  0  0  0  0  0  0
  -28.6187   -9.5888   16.5055 C   0  0  0  0  0  0  0  0  0  0  0  0
  -28.7450  -26.7929   27.7560 C   0  0  0  0  0  0  0  0  0  0  0  0
  -26.2923  -26.0035   28.7927 C   0  0  0  0  0  0  0  0  0  0  0  0
  -26.8724  -29.1280   24.2684 C   0  0  0  0  0  0  0  0  0  0  0  0
  -29.8705  -11.6366   16.7822 C   0  0  0  0  0  0  0  0  0  0  0  0
  -25.9374  -14.2122   20.9872 C   0  0  0  0  0  0  0  0  0  0  0  0
  -23.7883  -15.4578   21.5681 C   0  0  0  0  0  0  0  0  0  0  0  0
  -17.8983  -28.9539   22.6738 C   0  0  0  0  0  0  0  0  0  0  0  0
  -25.0283  -30.4928   23.4960 C   0  0  0  0  0  0  0  0  0  0  0  0
  -19.1133  -29.0301   23.3811 C   0  0  0  0  0  0  0  0  0  0  0  0
  -28.3220  -25.4640   27.5799 C   0  0  0  0  0  0  0  0  0  0  0  0
  -27.0798  -25.0645   28.1030 C   0  0  0  0  0  0  0  0  0  0  0  0
  -25.8746  -29.3892   23.3169 C   0  0  0  0  0  0  0  0  0  0  0  0
  -27.9510  -27.7139   28.4381 C   0  0  0  0  0  0  0  0  0  0  0  0
  -27.4098  -11.9522   20.2753 C   0  0  0  0  0  0  0  0  0  0  0  0
  -27.0343  -29.9601   25.3758 C   0  0  0  0  0  0  0  0  0  0  0  0
  -28.5729  -10.7563   18.6202 C   0  0  0  0  0  0  0  0  0  0  0  0
  -26.7240  -27.3188   28.9573 C   0  0  0  0  0  0  0  0  0  0  0  0
  -29.4684  -10.5649   15.9851 C   0  0  0  0  0  0  0  0  0  0  0  0
  -29.4227  -11.7323   18.0998 C   0  0  0  0  0  0  0  0  0  0  0  0
  -25.1777  -15.3799   21.3552 C   0  0  0  0  0  0  0  0  0  0  0  0
  -23.5640  -16.7731   21.8939 C   0  0  0  0  0  0  0  0  0  0  0  0
  -22.7897  -14.4328   21.4794 C   0  0  0  0  0  0  0  0  0  0  0  0
  -22.6646  -28.6524   22.4332 C   0  0  0  0  0  0  0  0  0  0  0  0
  -24.6254  -28.2814   19.8759 C   0  0  0  0  0  0  0  0  0  0  0  0
  -28.1547  -27.7855   19.3137 C   0  0  0  0  0  0  0  0  0  0  0  0
  -27.0486  -20.8725   24.3245 C   0  0  0  0  0  0  0  0  0  0  0  0
  -17.6828  -27.9450   21.5735 C   0  0  0  0  0  0  0  0  0  0  0  0
  -23.9662  -30.8110   22.4797 C   0  0  0  0  0  0  0  0  0  0  0  0
  -29.2193  -24.5007   26.8469 C   0  0  0  0  0  0  0  0  0  0  0  0
  -26.5693  -23.6527   27.9502 C   0  0  0  0  0  0  0  0  0  0  0  0
  -25.7374  -28.4686   22.1329 C   0  0  0  0  0  0  0  0  0  0  0  0
  -18.9799  -27.3577   21.0231 C   0  0  0  0  0  0  0  0  0  0  0  0
  -28.6130  -23.9744   25.5449 C   0  0  0  0  0  0  0  0  0  0  0  0
  -25.3191  -21.1648   21.1589 C   0  0  0  0  0  0  0  0  0  0  0  0
  -19.9067  -26.9484   22.1634 C   0  0  0  0  0  0  0  0  0  0  0  0
  -24.9549  -19.7063   20.8755 C   0  0  0  0  0  0  0  0  0  0  0  0
  -26.6930  -21.2743   21.8136 C   0  0  0  0  0  0  0  0  0  0  0  0
  -26.4825  -19.0176   22.7813 C   0  0  0  0  0  0  0  0  0  0  0  0
  -20.2971  -28.1597   23.0189 C   0  0  1  0  0  0  0  0  0  0  0  0
  -23.5407  -29.5968   21.6598 C   0  0  1  0  0  0  0  0  0  0  0  0
  -26.3125  -23.1926   26.5010 C   0  0  2  0  0  0  0  0  0  0  0  0
  -25.0946  -18.8380   22.1399 C   0  0  2  0  0  0  0  0  0  0  0  0
  -27.6120  -22.8271   25.7454 C   0  0  1  0  0  0  0  0  0  0  0  0
  -29.5916  -28.3759   17.3429 C   0  0  0  0  0  0  0  0  0  0  0  0
  -24.0529  -25.4245   18.9702 C   0  0  0  0  0  0  0  0  0  0  0  0
  -26.4159  -25.2835   18.1550 C   0  0  0  0  0  0  0  0  0  0  0  0
  -24.8523  -26.9526   17.1591 C   0  0  0  0  0  0  0  0  0  0  0  0
  -30.0297  -29.3366   20.9982 C   0  0  0  0  0  0  0  0  0  0  0  0
  -24.6905  -27.7084   30.1272 C   0  0  0  0  0  0  0  0  0  0  0  0
  -23.2632  -25.1295   25.7617 C   0  0  0  0  0  0  0  0  0  0  0  0
  -28.4345  -29.1168   28.6016 C   0  0  0  0  0  0  0  0  0  0  0  0
  -25.4077  -24.1687   25.7367 C   0  0  0  0  0  0  0  0  0  0  0  0
  -27.7609  -30.0961   27.6363 C   0  0  0  0  0  0  0  0  0  1  0  0
  -25.7258  -27.3173   19.5034 C   0  0  1  0  0  0  0  0  0  0  0  0
  -29.1323  -28.7907   18.7320 C   0  0  2  0  0  0  0  0  0  0  0  0
  -25.2561  -26.2509   18.4741 C   0  0  0  0  0  0  0  0  0  0  0  0
  -25.7927  -16.5525   21.5307 N   0  0  0  0  0  0  0  0  0  0  0  0
  -24.7851  -17.3796   21.8574 N   0  0  0  0  0  0  0  0  0  0  0  0
  -24.6800  -28.8182   21.1700 N   0  0  0  0  0  0  0  0  0  0  0  0
  -26.7536  -20.4389   23.0213 N   0  0  0  0  0  0  0  0  0  0  0  0
  -22.4434  -17.4585   22.2051 N   0  0  0  0  0  0  0  0  0  0  0  0
  -22.4920  -13.6888   22.6292 N   0  0  0  0  0  0  0  0  0  0  0  0
  -21.3159  -28.9420   22.3522 N   0  0  0  0  0  0  0  0  0  0  0  0
  -26.8468  -28.1331   19.0493 N   0  0  0  0  0  0  0  0  0  0  0  0
  -27.3000  -22.2318   24.4651 N   0  0  0  0  0  0  0  0  0  0  0  0
  -30.3325  -28.9121   19.6071 N   0  3  0  0  0  0  0  0  0  0  0  0
  -22.1912  -14.1730   20.4080 O   0  0  0  0  0  0  0  0  0  0  0  0
  -23.1744  -27.7283   23.0560 O   0  0  0  0  0  0  0  0  0  0  0  0
  -23.7537  -28.5538   19.0467 O   0  0  0  0  0  0  0  0  0  0  0  0
  -28.5153  -26.7895   19.9369 O   0  0  0  0  0  0  0  0  0  0  0  0
  -27.0805  -20.1054   25.2929 O   0  0  0  0  0  0  0  0  0  0  0  0
  -28.1282  -10.8494   19.9283 O   0  0  0  0  0  0  0  0  0  0  0  0
  -25.9328  -28.2010   29.6289 O   0  0  0  0  0  0  0  0  0  0  0  0
  -28.0142  -29.6938   26.2962 O   0  0  0  0  0  0  0  0  0  1  0  0
  -24.1671  -24.2396   26.4094 O   0  0  0  0  0  0  0  0  0  0  0  0
  -29.8995  -10.4721   14.7203 F   0  0  0  0  0  0  0  0  0  0  0  0
  -29.8133  -12.7636   18.8611 F   0  0  0  0  0  0  0  0  0  0  0  0
  1  2  1  0  0  0  0
  1  5  2  0  0  0  0
  2  6  2  0  0  0  0
  3  8  2  0  0  0  0
  3 17  1  0  0  0  0
  4  9  1  0  0  0  0
  4 17  2  0  0  0  0
  5 19  1  0  0  0  0
  6 21  1  0  0  0  0
  7 10  2  0  0  0  0
  7 20  1  0  0  0  0
  8 26  1  0  0  0  0
  9 26  2  0  0  0  0
 10 27  1  0  0  0  0
 11 12  2  0  0  0  0
 11 28  1  0  0  0  0
 12 30  1  0  0  0  0
 13 22  2  0  0  0  0
 13 25  1  0  0  0  0
 14 23  2  0  0  0  0
 14 29  1  0  0  0  0
 15 24  1  0  0  0  0
 15 27  2  0  0  0  0
 16 30  2  0  0  0  0
 16 31  1  0  0  0  0
 17 32  1  0  0  0  0
 18 32  1  0  0  0  0
 18 33  2  0  0  0  0
 18 34  1  0  0  0  0
 19 21  2  0  0  0  0
 19 39  1  0  0  0  0
 20 24  2  0  0  0  0
 20 40  1  0  0  0  0
 21 51  1  0  0  0  0
 22 23  1  0  0  0  0
 22 41  1  0  0  0  0
 23 42  1  0  0  0  0
 24 43  1  0  0  0  0
 25 29  2  0  0  0  0
 25 63  1  0  0  0  0
 26 84  1  0  0  0  0
 27 86  1  0  0  0  0
 28 31  2  0  0  0  0
 28 84  1  0  0  0  0
 29 85  1  0  0  0  0
 30 88  1  0  0  0  0
 31 89  1  0  0  0  0
 32 69  2  0  0  0  0
 33 70  1  0  0  0  0
 33 73  1  0  0  0  0
 34 74  1  0  0  0  0
 34 79  2  0  0  0  0
 35 52  1  0  0  0  0
 35 75  1  0  0  0  0
 35 80  2  0  0  0  0
 36 66  1  0  0  0  0
 36 71  1  0  0  0  0
 36 81  2  0  0  0  0
 37 67  1  0  0  0  0
 37 76  1  0  0  0  0
 37 82  2  0  0  0  0
 38 72  1  0  0  0  0
 38 77  1  0  0  0  0
 38 83  2  0  0  0  0
 39 44  1  0  0  0  0
 40 52  1  0  0  0  0
 41 45  1  0  0  0  0
 42 53  1  0  0  0  0
 43 71  1  0  0  0  0
 44 47  1  0  0  0  0
 45 55  1  0  0  0  0
 46 48  1  0  0  0  0
 46 49  1  0  0  0  0
 47 51  1  0  0  0  0
 48 54  1  0  0  0  0
 49 72  1  0  0  0  0
 50 54  1  0  0  0  0
 50 72  1  0  0  0  0
 51 75  1  0  0  0  0
 52 71  1  0  0  0  0
 53 55  1  0  0  0  0
 53 64  1  0  0  0  0
 54 70  1  0  0  0  0
 55 77  1  0  0  0  0
 56 67  1  0  0  0  0
 57 68  1  0  0  0  0
 58 68  1  0  0  0  0
 59 68  1  0  0  0  0
 60 78  1  0  0  0  0
 61 85  1  0  0  0  0
 62 87  1  0  0  0  0
 63 65  1  0  0  0  0
 64 87  1  0  0  0  0
 65 86  1  0  0  0  0
 66 68  1  0  0  0  0
 66 76  1  0  0  0  0
 67 78  1  0  0  0  0
 69 70  1  0  0  0  0
M  CHG  1  78   1
M  ISO  4  38 100  65 101  77 100  86 101
M  END
> <Batch ID>
0154

> <Smiles>
CNC(C)C(=O)NC(C(=O)N1Cc2cc([101O:1][101CH2:1]Cc3cc4c(cc3OC)CC(COC)C([100NH:0][100C:0](=O)N3CCCC(n5nc(-c6ccc(Oc7ccc(F)cc7F)cc6)c(C(N)=O)c5N)C3)CC4)ccc2CC1C(=O)NC1CCCc2ccccc21)C(C)(C)C

> <Shape>
0.232

> <Color>
0.091

> <Negative vol penalty>
0.000

$$$$

  -OEChem-04052321513D

 84 93  0     1  0  0  0  0  0999 V2000
  -16.3701  -29.0011   23.4812 C   0  0  0  0  0  0  0  0  0  0  0  0
  -17.2435  -28.2676   22.6846 C   0  0  0  0  0  0  0  0  0  0  0  0
  -23.1104  -16.2381   22.4282 C   0  0  0  0  0  0  0  0  0  0  0  0
  -23.6959  -17.2365   20.3074 C   0  0  0  0  0  0  0  0  0  0  0  0
  -16.8412  -30.0954   24.2054 C   0  0  0  0  0  0  0  0  0  0  0  0
  -18.5883  -28.6286   22.6109 C   0  0  0  0  0  0  0  0  0  0  0  0
  -23.3835  -24.8651   22.0211 C   0  0  0  0  0  0  0  0  0  0  0  0
  -22.3929  -17.3845   22.7698 C   0  0  0  0  0  0  0  0  0  0  0  0
  -22.9784  -18.3829   20.6490 C   0  0  0  0  0  0  0  0  0  0  0  0
  -24.1399  -24.4755   20.9166 C   0  0  0  0  0  0  0  0  0  0  0  0
  -20.7056  -20.1920   24.3491 C   0  0  0  0  0  0  0  0  0  0  0  0
  -20.8768  -20.7072   25.6340 C   0  0  0  0  0  0  0  0  0  0  0  0
  -25.7696  -26.1751   21.4408 C   0  0  0  0  0  0  0  0  0  0  0  0
  -26.1299  -22.8717   18.0535 C   0  0  0  0  0  0  0  0  0  0  0  0
  -26.6268  -22.5940   20.4015 C   0  0  0  0  0  0  0  0  0  0  0  0
  -23.2335  -21.0117   25.1979 C   0  0  0  0  0  0  0  0  0  0  0  0
  -23.7619  -16.1641   21.1970 C   0  0  0  0  0  0  0  0  0  0  0  0
  -24.0064  -13.6686   20.7279 C   0  0  0  0  0  0  0  0  0  0  0  0
  -18.1945  -30.4642   24.1481 C   0  0  0  0  0  0  0  0  0  0  0  0
  -23.8097  -25.9215   22.8388 C   0  0  0  0  0  0  0  0  0  0  0  0
  -19.0777  -29.7297   23.3340 C   0  0  0  0  0  0  0  0  0  0  0  0
  -25.0181  -26.5744   22.5565 C   0  0  0  0  0  0  0  0  0  0  0  0
  -26.3288  -21.5062   17.8499 C   0  0  0  0  0  0  0  0  0  0  0  0
  -26.8257  -21.2285   20.1978 C   0  0  0  0  0  0  0  0  0  0  0  0
  -26.6767  -20.6846   18.9220 C   0  0  0  0  0  0  0  0  0  0  0  0
  -22.3269  -18.4568   21.8802 C   0  0  0  0  0  0  0  0  0  0  0  0
  -25.3316  -25.1324   20.6246 C   0  0  0  0  0  0  0  0  0  0  0  0
  -21.7984  -20.0865   23.4886 C   0  0  0  0  0  0  0  0  0  0  0  0
  -26.2789  -23.4156   19.3293 C   0  0  0  0  0  0  0  0  0  1  0  0
  -22.1407  -21.1171   26.0583 C   0  0  0  0  0  0  0  0  0  0  0  0
  -23.0623  -20.4964   23.9130 C   0  0  0  0  0  0  0  0  0  0  0  0
  -24.5037  -14.9805   20.8438 C   0  0  0  0  0  0  0  0  0  0  0  0
  -25.0999  -12.9169   20.3734 C   0  0  0  0  0  0  0  0  0  0  0  0
  -22.6750  -13.1737   20.9230 C   0  0  0  0  0  0  0  0  0  0  0  0
  -22.6348  -28.7706   23.6170 C   0  0  0  0  0  0  0  0  0  0  0  0
  -25.1678  -28.8288   25.6426 C   0  0  0  0  0  0  0  0  0  0  0  0
  -27.8088  -27.3548   26.5161 C   0  0  0  0  0  0  0  0  0  0  0  0
  -28.7968  -16.9872   19.8981 C   0  0  0  0  0  0  0  0  0  0  0  0
  -18.6476  -31.6833   24.9117 C   0  0  0  0  0  0  0  0  0  0  0  0
  -22.9959  -26.3120   24.0420 C   0  0  0  0  0  0  0  0  0  0  0  0
  -25.5300  -27.7012   23.4148 C   0  0  0  0  0  0  0  0  0  0  0  0
  -20.1631  -31.7731   25.0722 C   0  0  0  0  0  0  0  0  0  0  0  0
  -28.8959  -14.1238   22.0330 C   0  0  0  0  0  0  0  0  0  0  0  0
  -29.7228  -18.0985   16.5728 C   0  0  0  0  0  0  0  0  0  0  0  0
  -20.8581  -31.4927   23.7436 C   0  0  0  0  0  0  0  0  0  0  0  0
  -28.3758  -12.9771   21.1732 C   0  0  0  0  0  0  0  0  0  0  0  0
  -28.6386  -19.1239   16.8732 C   0  0  0  0  0  0  0  0  0  0  0  0
  -29.7112  -15.0956   21.1941 C   0  0  0  0  0  0  0  0  0  0  0  0
  -29.2859  -16.9005   17.4016 C   0  0  0  0  0  0  0  0  0  0  0  0
  -28.3422  -14.5844   19.1815 C   0  0  0  0  0  0  0  0  0  0  0  0
  -20.5485  -30.0751   23.2474 C   0  0  1  0  0  0  0  0  0  0  0  0
  -23.2662  -27.7391   24.5086 C   0  0  1  0  0  0  0  0  0  0  0  0
  -27.5921  -13.4693   19.9459 C   0  0  2  0  0  0  0  0  0  0  0  0
  -28.3410  -18.8961   18.3578 C   0  0  1  0  0  0  0  0  0  0  0  0
  -26.1633  -20.9487   16.4740 C   0  0  0  0  0  0  0  0  0  0  0  0
  -27.1974  -20.3707   21.3628 C   0  0  0  0  0  0  0  0  0  0  0  0
  -29.9501  -26.4894   27.4976 C   0  0  0  0  0  0  0  0  0  0  0  0
  -25.9339  -31.5119   24.4080 C   0  0  0  0  0  0  0  0  0  0  0  0
  -28.2052  -31.2544   25.4294 C   0  0  0  0  0  0  0  0  0  0  0  0
  -26.1901  -31.3958   26.8931 C   0  0  0  0  0  0  0  0  0  0  0  0
  -26.3838  -26.0085   28.7332 C   0  0  0  0  0  0  0  0  0  0  0  0
  -26.8909  -19.2108   18.7022 C   0  0  0  0  0  0  0  0  0  0  0  0
  -26.6009  -29.2940   25.5492 C   0  0  1  0  0  0  0  0  0  0  0  0
  -28.5138  -26.9008   27.7815 C   0  0  2  0  0  0  0  0  0  0  0  0
  -26.7222  -30.8441   25.5524 C   0  0  0  0  0  0  0  0  0  0  0  0
  -25.8115  -15.0610   20.5843 N   0  0  0  0  0  0  0  0  0  0  0  0
  -26.1452  -13.7902   20.3018 N   0  0  0  0  0  0  0  0  0  0  0  0
  -24.6954  -28.0504   24.5763 N   0  0  0  0  0  0  0  0  0  0  0  0
  -28.9522  -15.6014   20.0502 N   0  0  0  0  0  0  0  0  0  0  0  0
  -28.6861  -17.4900   18.5997 N   0  0  0  0  0  0  0  0  0  0  0  0
  -25.2598  -11.6008   20.1193 N   0  0  0  0  0  0  0  0  0  0  0  0
  -22.3031  -12.7437   22.2040 N   0  0  0  0  0  0  0  0  0  0  0  0
  -21.3406  -29.1026   23.9695 N   0  0  0  0  0  0  0  0  0  0  0  0
  -27.3153  -28.6365   26.6381 N   0  0  0  0  0  0  0  0  0  0  0  0
  -27.8017  -25.7376   28.3823 N   0  3  0  0  0  0  0  0  0  0  0  0
  -21.8450  -13.0993   19.9854 O   0  0  0  0  0  0  0  0  0  0  0  0
  -23.2750  -29.2323   22.6796 O   0  0  0  0  0  0  0  0  0  0  0  0
  -24.4945  -29.1383   26.6288 O   0  0  0  0  0  0  0  0  0  0  0  0
  -27.7093  -26.6448   25.5178 O   0  0  0  0  0  0  0  0  0  0  0  0
  -28.7683  -17.7434   20.8781 O   0  0  0  0  0  0  0  0  0  0  0  0
  -21.6266  -19.5755   22.2131 O   0  0  0  0  0  0  0  0  0  0  0  0
  -26.0845  -24.7480   19.5277 O   0  0  0  0  0  0  0  0  0  1  0  0
  -22.3047  -21.6133   27.2916 F   0  0  0  0  0  0  0  0  0  0  0  0
  -24.1157  -20.3986   23.0904 F   0  0  0  0  0  0  0  0  0  0  0  0
  1  2  1  0  0  0  0
  1  5  2  0  0  0  0
  2  6  2  0  0  0  0
  3  8  2  0  0  0  0
  3 17  1  0  0  0  0
  4  9  1  0  0  0  0
  4 17  2  0  0  0  0
  5 19  1  0  0  0  0
  6 21  1  0  0  0  0
  7 10  2  0  0  0  0
  7 20  1  0  0  0  0
  8 26  1  0  0  0  0
  9 26  2  0  0  0  0
 10 27  1  0  0  0  0
 11 12  2  0  0  0  0
 11 28  1  0  0  0  0
 12 30  1  0  0  0  0
 13 22  1  0  0  0  0
 13 27  2  0  0  0  0
 14 23  2  0  0  0  0
 14 29  1  0  0  0  0
 15 24  1  0  0  0  0
 15 29  2  0  0  0  0
 16 30  2  0  0  0  0
 16 31  1  0  0  0  0
 17 32  1  0  0  0  0
 18 32  1  0  0  0  0
 18 33  2  0  0  0  0
 18 34  1  0  0  0  0
 19 21  2  0  0  0  0
 19 39  1  0  0  0  0
 20 22  2  0  0  0  0
 20 40  1  0  0  0  0
 21 51  1  0  0  0  0
 22 41  1  0  0  0  0
 23 25  1  0  0  0  0
 23 55  1  0  0  0  0
 24 25  2  0  0  0  0
 24 56  1  0  0  0  0
 25 62  1  0  0  0  0
 26 81  1  0  0  0  0
 27 82  1  0  0  0  0
 28 31  2  0  0  0  0
 28 81  1  0  0  0  0
 29 82  1  0  0  0  0
 30 83  1  0  0  0  0
 31 84  1  0  0  0  0
 32 66  2  0  0  0  0
 33 67  1  0  0  0  0
 33 71  1  0  0  0  0
 34 72  1  0  0  0  0
 34 76  2  0  0  0  0
 35 52  1  0  0  0  0
 35 73  1  0  0  0  0
 35 77  2  0  0  0  0
 36 63  1  0  0  0  0
 36 68  1  0  0  0  0
 36 78  2  0  0  0  0
 37 64  1  0  0  0  0
 37 74  1  0  0  0  0
 37 79  2  0  0  0  0
 38 69  1  0  0  0  0
 38 70  1  0  0  0  0
 38 80  2  0  0  0  0
 39 42  1  0  0  0  0
 40 52  1  0  0  0  0
 41 68  1  0  0  0  0
 42 45  1  0  0  0  0
 43 46  1  0  0  0  0
 43 48  1  0  0  0  0
 44 47  1  0  0  0  0
 44 49  1  0  0  0  0
 45 51  1  0  0  0  0
 46 53  1  0  0  0  0
 47 54  1  0  0  0  0
 48 69  1  0  0  0  0
 49 70  1  0  0  0  0
 50 53  1  0  0  0  0
 50 69  1  0  0  0  0
 51 73  1  0  0  0  0
 52 68  1  0  0  0  0
 53 67  1  0  0  0  0
 54 62  1  0  0  0  0
 54 70  1  0  0  0  0
 57 64  1  0  0  0  0
 58 65  1  0  0  0  0
 59 65  1  0  0  0  0
 60 65  1  0  0  0  0
 61 75  1  0  0  0  0
 63 65  1  0  0  0  0
 63 74  1  0  0  0  0
 64 75  1  0  0  0  0
 66 67  1  0  0  0  0
M  CHG  1  75   1
M  ISO  4  29 101  38 100  70 100  82 101
M  END
> <Batch ID>
0154

> <Smiles>
CNC(C)C(=O)NC(C(=O)N1Cc2cc([101O:1][101c:1]3cc(C)c(CC4CCC[100N:0]4[100C:0](=O)N4CCCC(n5nc(-c6ccc(Oc7ccc(F)cc7F)cc6)c(C(N)=O)c5N)C4)c(C)c3)ccc2CC1C(=O)NC1CCCc2ccccc21)C(C)(C)C

> <Shape>
0.200

> <Color>
0.102

> <Negative vol penalty>
0.000

$$$$

  -OEChem-04052321513D

 87 96  0     1  0  0  0  0  0999 V2000
  -31.0022  -20.2955   20.2887 C   0  0  0  0  0  0  0  0  0  0  0  0
  -29.8601  -20.4828   21.0607 C   0  0  0  0  0  0  0  0  0  0  0  0
  -26.7059  -28.2726   18.7607 C   0  0  0  0  0  0  0  0  0  0  0  0
  -26.1527  -27.4199   20.9524 C   0  0  0  0  0  0  0  0  0  0  0  0
  -30.9682  -19.4331   19.1936 C   0  0  0  0  0  0  0  0  0  0  0  0
  -28.6831  -19.8087   20.7375 C   0  0  0  0  0  0  0  0  0  0  0  0
  -26.4109  -17.8104   24.7982 C   0  0  0  0  0  0  0  0  0  0  0  0
  -26.3597  -29.5591   19.1738 C   0  0  0  0  0  0  0  0  0  0  0  0
  -25.8065  -28.7064   21.3656 C   0  0  0  0  0  0  0  0  0  0  0  0
  -25.6825  -18.6776   25.6114 C   0  0  0  0  0  0  0  0  0  0  0  0
  -27.4010  -31.5122   22.3684 C   0  0  0  0  0  0  0  0  0  0  0  0
  -27.8638  -31.9379   23.6134 C   0  0  0  0  0  0  0  0  0  0  0  0
  -23.6405  -17.9356   24.5631 C   0  0  0  0  0  0  0  0  0  0  0  0
  -25.5853  -32.2489   24.3541 C   0  0  0  0  0  0  0  0  0  0  0  0
  -26.6023  -27.2030   19.6500 C   0  0  0  0  0  0  0  0  0  0  0  0
  -28.2261  -25.2656   19.3071 C   0  0  0  0  0  0  0  0  0  0  0  0
  -29.7928  -18.7407   18.8625 C   0  0  0  0  0  0  0  0  0  0  0  0
  -25.7595  -17.0060   23.8522 C   0  0  0  0  0  0  0  0  0  0  0  0
  -28.6329  -18.9374   19.6362 C   0  0  0  0  0  0  0  0  0  0  0  0
  -24.3627  -17.0572   23.7409 C   0  0  0  0  0  0  0  0  0  0  0  0
  -25.9101  -29.7761   20.4762 C   0  0  0  0  0  0  0  0  0  0  0  0
  -24.2973  -18.7424   25.4919 C   0  0  0  0  0  0  0  0  0  0  0  0
  -26.0303  -31.4549   22.1161 C   0  0  0  0  0  0  0  0  0  0  0  0
  -26.9560  -32.3062   24.6063 C   0  0  0  0  0  0  0  0  0  0  0  0
  -25.1225  -31.8232   23.1090 C   0  0  0  0  0  0  0  0  0  0  0  0
  -26.9592  -25.8737   19.2237 C   0  0  0  0  0  0  0  0  0  0  0  0
  -28.0417  -24.0133   18.7742 C   0  0  0  0  0  0  0  0  0  0  0  0
  -29.4594  -25.7863   19.8205 C   0  0  0  0  0  0  0  0  0  0  0  0
  -25.8444  -16.7516   20.6849 C   0  0  0  0  0  0  0  0  0  0  0  0
  -23.8991  -14.2129   21.2262 C   0  0  0  0  0  0  0  0  0  0  0  0
  -21.6550  -12.6691   23.2823 C   0  0  0  0  0  0  0  0  0  0  0  0
  -22.8657  -20.8110   18.2440 C   0  0  0  0  0  0  0  0  0  0  0  0
  -29.7912  -17.8554   17.6415 C   0  0  0  0  0  0  0  0  0  0  0  0
  -26.5571  -16.0563   23.0011 C   0  0  0  0  0  0  0  0  0  0  0  0
  -23.6137  -16.1996   22.7550 C   0  0  0  0  0  0  0  0  0  0  0  0
  -28.6086  -16.8916   17.5895 C   0  0  0  0  0  0  0  0  0  0  0  0
  -25.3378  -21.6312   15.6277 C   0  0  0  0  0  0  0  0  0  0  0  0
  -27.3096  -17.6224   17.9141 C   0  0  0  0  0  0  0  0  0  0  0  0
  -26.0998  -22.8043   16.2440 C   0  0  0  0  0  0  0  0  0  0  0  0
  -23.9734  -21.3429   21.8128 C   0  0  0  0  0  0  0  0  0  0  0  0
  -21.4284  -21.2984   21.6102 C   0  0  0  0  0  0  0  0  0  0  0  0
  -24.5490  -23.9160   26.3652 C   0  0  0  0  0  0  0  0  0  0  0  0
  -23.8989  -21.5597   16.1314 C   0  0  0  0  0  0  0  0  0  0  0  0
  -23.8633  -21.6595   20.3270 C   0  0  0  0  0  0  0  0  0  0  0  0
  -21.7529  -20.3300   20.4769 C   0  0  0  0  0  0  0  0  0  0  0  0
  -24.5355  -22.7076   18.2226 C   0  0  0  0  0  0  0  0  0  0  0  0
  -22.3741  -22.1167   25.5983 C   0  0  0  0  0  0  0  0  0  0  0  0
  -27.3440  -18.2050   19.3322 C   0  0  1  0  0  0  0  0  0  0  0  0
  -25.8384  -15.6583   21.7156 C   0  0  1  0  0  0  0  0  0  0  0  0
  -22.6310  -21.5039   22.5463 C   0  0  0  0  0  0  0  0  0  0  0  0
  -23.7112  -23.2060   27.4406 C   0  0  1  0  0  0  0  0  0  0  0  0
  -26.0041  -22.7780   17.7801 C   0  0  2  0  0  0  0  0  0  0  0  0
  -23.7871  -24.1240   25.0519 C   0  0  1  0  0  0  0  0  0  0  0  0
  -23.1286  -21.8587   26.9201 C   0  0  1  0  0  0  0  0  0  0  0  0
  -24.5376  -23.0857   28.7270 C   0  0  0  0  0  0  0  0  0  0  0  0
  -24.7137  -24.7516   24.0117 C   0  0  0  0  0  0  0  0  0  0  0  0
  -22.1025  -21.2938   27.9272 C   0  0  0  0  0  0  0  0  0  0  0  0
  -20.2082  -10.6245   23.4377 C   0  0  0  0  0  0  0  0  0  0  0  0
  -21.9360  -15.4547   19.2478 C   0  0  0  0  0  0  0  0  0  0  0  0
  -20.1701  -13.9243   20.1465 C   0  0  0  0  0  0  0  0  0  0  0  0
  -22.1961  -12.9758   19.0427 C   0  0  0  0  0  0  0  0  0  0  0  0
  -23.0439  -11.7298   25.7211 C   0  0  0  0  0  0  0  0  0  0  0  0
  -22.5328  -22.8612   23.2436 C   0  0  0  0  0  0  0  0  0  0  0  0
  -24.2157  -20.7828   26.7108 C   0  0  0  0  0  0  0  0  0  1  0  0
  -22.4068  -14.0143   21.3382 C   0  0  1  0  0  0  0  0  0  0  0  0
  -21.5595  -11.2360   23.7739 C   0  0  2  0  0  0  0  0  0  0  0  0
  -21.6912  -14.1100   19.9611 C   0  0  0  0  0  0  0  0  0  0  0  0
  -26.0380  -25.0736   18.6804 N   0  0  0  0  0  0  0  0  0  0  0  0
  -26.7268  -23.9499   18.4176 N   0  0  0  0  0  0  0  0  0  0  0  0
  -24.4387  -15.2917   21.9409 N   0  0  0  0  0  0  0  0  0  0  0  0
  -23.8465  -21.5734   17.5932 N   0  0  0  0  0  0  0  0  0  0  0  0
  -22.8638  -20.8289   19.6497 N   0  0  0  0  0  0  0  0  0  0  0  0
  -28.8776  -22.9711   18.5806 N   0  0  0  0  0  0  0  0  0  0  0  0
  -29.4727  -27.0916   20.3308 N   0  0  0  0  0  0  0  0  0  0  0  0
  -27.1088  -17.1657   20.3114 N   0  0  0  0  0  0  0  0  0  0  0  0
  -22.2147  -12.7412   22.0242 N   0  0  0  0  0  0  0  0  0  0  0  0
  -23.2450  -22.7831   24.5353 N   0  3  2  0  0  0  0  0  0  0  0  0
  -21.7453  -11.1818   25.2515 N   0  3  0  0  0  0  0  0  0  0  0  0
  -30.5221  -25.1199   19.8114 O   0  0  0  0  0  0  0  0  0  0  0  0
  -24.7808  -17.1862   20.2588 O   0  0  0  0  0  0  0  0  0  0  0  0
  -24.5626  -13.4351   20.5360 O   0  0  0  0  0  0  0  0  0  0  0  0
  -21.2681  -13.6282   23.9462 O   0  0  0  0  0  0  0  0  0  0  0  0
  -22.0494  -20.1314   17.6081 O   0  0  0  0  0  0  0  0  0  0  0  0
  -25.5724  -31.0313   20.8798 O   0  0  0  0  0  0  0  0  0  0  0  0
  -23.5762  -19.5976   26.2926 O   0  0  0  0  0  0  0  0  0  1  0  0
  -27.4005  -32.7136   25.8024 F   0  0  0  0  0  0  0  0  0  0  0  0
  -23.8044  -31.7691   22.8729 F   0  0  0  0  0  0  0  0  0  0  0  0
  1  2  1  0  0  0  0
  1  5  2  0  0  0  0
  2  6  2  0  0  0  0
  3  8  2  0  0  0  0
  3 15  1  0  0  0  0
  4  9  1  0  0  0  0
  4 15  2  0  0  0  0
  5 17  1  0  0  0  0
  6 19  1  0  0  0  0
  7 10  2  0  0  0  0
  7 18  1  0  0  0  0
  8 21  1  0  0  0  0
  9 21  2  0  0  0  0
 10 22  1  0  0  0  0
 11 12  2  0  0  0  0
 11 23  1  0  0  0  0
 12 24  1  0  0  0  0
 13 20  1  0  0  0  0
 13 22  2  0  0  0  0
 14 24  2  0  0  0  0
 14 25  1  0  0  0  0
 15 26  1  0  0  0  0
 16 26  1  0  0  0  0
 16 27  2  0  0  0  0
 16 28  1  0  0  0  0
 17 19  2  0  0  0  0
 17 33  1  0  0  0  0
 18 20  2  0  0  0  0
 18 34  1  0  0  0  0
 19 48  1  0  0  0  0
 20 35  1  0  0  0  0
 21 84  1  0  0  0  0
 22 85  1  0  0  0  0
 23 25  2  0  0  0  0
 23 84  1  0  0  0  0
 24 86  1  0  0  0  0
 25 87  1  0  0  0  0
 26 68  2  0  0  0  0
 27 69  1  0  0  0  0
 27 73  1  0  0  0  0
 28 74  1  0  0  0  0
 28 79  2  0  0  0  0
 29 49  1  0  0  0  0
 29 75  1  0  0  0  0
 29 80  2  0  0  0  0
 30 65  1  0  0  0  0
 30 70  1  0  0  0  0
 30 81  2  0  0  0  0
 31 66  1  0  0  0  0
 31 76  1  0  0  0  0
 31 82  2  0  0  0  0
 32 71  1  0  0  0  0
 32 72  1  0  0  0  0
 32 83  2  0  0  0  0
 33 36  1  0  0  0  0
 34 49  1  0  0  0  0
 35 70  1  0  0  0  0
 36 38  1  0  0  0  0
 37 39  1  0  0  0  0
 37 43  1  0  0  0  0
 38 48  1  0  0  0  0
 39 52  1  0  0  0  0
 40 44  1  0  0  0  0
 40 50  1  0  0  0  0
 41 45  1  0  0  0  0
 41 50  1  0  0  0  0
 42 51  1  0  0  0  0
 42 53  1  0  0  0  0
 43 71  1  0  0  0  0
 44 72  1  0  0  0  0
 45 72  1  0  0  0  0
 46 52  1  0  0  0  0
 46 71  1  0  0  0  0
 47 54  1  0  0  0  0
 47 77  1  0  0  0  0
 48 75  1  0  0  0  0
 49 70  1  0  0  0  0
 50 63  1  0  0  0  0
 51 54  1  0  0  0  0
 51 55  1  0  0  0  0
 52 69  1  0  0  0  0
 53 56  1  0  0  0  0
 53 77  1  0  0  0  0
 54 57  1  0  0  0  0
 54 64  1  0  0  0  0
 58 66  1  0  0  0  0
 59 67  1  0  0  0  0
 60 67  1  0  0  0  0
 61 67  1  0  0  0  0
 62 78  1  0  0  0  0
 63 77  1  0  0  0  0
 64 85  1  0  0  0  0
 65 67  1  0  0  0  0
 65 76  1  0  0  0  0
 66 78  1  0  0  0  0
 68 69  1  0  0  0  0
M  CHG  2  77   1  78   1
M  ISO  4  32 100  64 101  72 100  85 101
M  END
> <Batch ID>
0154

> <Smiles>
CNC(C)C(=O)NC(C(=O)N1Cc2cc([101O:1][101CH2:1]C3(C)CN(CC4CC[100N:0]([100C:0](=O)N5CCCC(n6nc(-c7ccc(Oc8ccc(F)cc8F)cc7)c(C(N)=O)c6N)C5)CC4)C(C)CC3C)ccc2CC1C(=O)NC1CCCc2ccccc21)C(C)(C)C

> <Shape>
0.176

> <Color>
0.069

> <Negative vol penalty>
0.000

$$$$

  -OEChem-04052321513D

 89 99  0     1  0  0  0  0  0999 V2000
  -13.9880  -24.1982   33.5714 C   0  0  0  0  0  0  0  0  0  0  0  0
  -14.9245  -23.2580   33.1538 C   0  0  0  0  0  0  0  0  0  0  0  0
  -23.0150   -9.8899   19.9693 C   0  0  0  0  0  0  0  0  0  0  0  0
  -23.6682   -9.9588   22.2943 C   0  0  0  0  0  0  0  0  0  0  0  0
  -14.1667  -25.5450   33.2583 C   0  0  0  0  0  0  0  0  0  0  0  0
  -16.0398  -23.6640   32.4219 C   0  0  0  0  0  0  0  0  0  0  0  0
  -21.6738  -21.2758   32.6684 C   0  0  0  0  0  0  0  0  0  0  0  0
  -22.2309   -8.7645   20.2229 C   0  0  0  0  0  0  0  0  0  0  0  0
  -22.8841   -8.8334   22.5479 C   0  0  0  0  0  0  0  0  0  0  0  0
  -22.3380  -20.3540   31.8604 C   0  0  0  0  0  0  0  0  0  0  0  0
  -23.1147   -5.4879   22.1176 C   0  0  0  0  0  0  0  0  0  0  0  0
  -23.6698   -4.4738   22.8980 C   0  0  0  0  0  0  0  0  0  0  0  0
  -23.3571  -22.1678   30.6393 C   0  0  0  0  0  0  0  0  0  0  0  0
  -24.9272  -17.7659   26.0619 C   0  0  0  0  0  0  0  0  0  0  0  0
  -26.9474  -18.5062   27.1960 C   0  0  0  0  0  0  0  0  0  0  0  0
  -21.8966   -4.7481   24.5158 C   0  0  0  0  0  0  0  0  0  0  0  0
  -23.7337  -10.4871   21.0050 C   0  0  0  0  0  0  0  0  0  0  0  0
  -24.1456  -12.9975   20.8158 C   0  0  0  0  0  0  0  0  0  0  0  0
  -15.2897  -25.9690   32.5305 C   0  0  0  0  0  0  0  0  0  0  0  0
  -21.8380  -22.6529   32.4606 C   0  0  0  0  0  0  0  0  0  0  0  0
  -16.2330  -25.0175   32.0976 C   0  0  0  0  0  0  0  0  0  0  0  0
  -22.6959  -23.1050   31.4477 C   0  0  0  0  0  0  0  0  0  0  0  0
  -25.5895  -17.9233   24.8564 C   0  0  0  0  0  0  0  0  0  0  0  0
  -26.9163  -18.3653   24.8106 C   0  0  0  0  0  0  0  0  0  0  0  0
  -27.6054  -18.6657   25.9744 C   0  0  0  0  0  0  0  0  0  0  0  0
  -22.1655   -8.2363   21.5122 C   0  0  0  0  0  0  0  0  0  0  0  0
  -23.1776  -20.7999   30.8438 C   0  0  0  0  0  0  0  0  0  0  0  0
  -21.9506   -6.1322   22.5364 C   0  0  0  0  0  0  0  0  0  0  0  0
  -25.6178  -18.0588   27.2395 C   0  0  0  0  0  0  0  0  0  0  0  0
  -23.0608   -4.1039   24.0971 C   0  0  0  0  0  0  0  0  0  0  0  0
  -21.3415   -5.7623   23.7354 C   0  0  0  0  0  0  0  0  0  0  0  0
  -24.5443  -11.6493   20.7435 C   0  0  0  0  0  0  0  0  0  0  0  0
  -25.2723  -13.7072   20.4791 C   0  0  0  0  0  0  0  0  0  0  0  0
  -22.8709  -13.5582   21.1568 C   0  0  0  0  0  0  0  0  0  0  0  0
  -19.9035  -25.0491   31.6737 C   0  0  0  0  0  0  0  0  0  0  0  0
  -22.5469  -26.8478   32.2205 C   0  0  0  0  0  0  0  0  0  0  0  0
  -25.9512  -27.0183   32.3891 C   0  0  0  0  0  0  0  0  0  0  0  0
  -30.6551  -14.6767   20.7181 C   0  0  0  0  0  0  0  0  0  0  0  0
  -15.4156  -27.4293   32.1753 C   0  0  0  0  0  0  0  0  0  0  0  0
  -21.1353  -23.6343   33.3580 C   0  0  0  0  0  0  0  0  0  0  0  0
  -22.9220  -24.5727   31.1966 C   0  0  0  0  0  0  0  0  0  0  0  0
  -25.0629  -17.6863   23.4830 C   0  0  0  0  0  0  0  0  0  0  0  0
  -16.8170  -27.8264   31.7183 C   0  0  0  0  0  0  0  0  0  0  0  0
  -29.6769  -12.1858   18.5288 C   0  0  0  0  0  0  0  0  0  0  0  0
  -17.3530  -26.8206   30.7046 C   0  0  0  0  0  0  0  0  0  0  0  0
  -28.2184  -11.9250   18.9043 C   0  0  0  0  0  0  0  0  0  0  0  0
  -29.0530  -17.9013   21.5906 C   0  0  0  0  0  0  0  0  0  0  0  0
  -28.4626  -16.1936   23.3467 C   0  0  0  0  0  0  0  0  0  0  0  0
  -30.5329  -12.3906   19.7735 C   0  0  0  0  0  0  0  0  0  0  0  0
  -30.2711  -17.0636   21.2120 C   0  0  0  0  0  0  0  0  0  0  0  0
  -29.6941  -15.3914   22.9391 C   0  0  0  0  0  0  0  0  0  0  0  0
  -28.5919  -13.2413   21.0481 C   0  0  0  0  0  0  0  0  0  0  0  0
  -17.4686  -25.4221   31.3231 C   0  0  1  0  0  0  0  0  0  0  0  0
  -27.3839  -18.4713   23.3916 C   0  0  1  0  0  0  0  0  0  0  0  0
  -20.9755  -25.0136   32.7259 C   0  0  1  0  0  0  0  0  0  0  0  0
  -28.6511  -17.6886   23.0558 C   0  0  0  0  0  0  0  0  0  0  0  0
  -27.6776  -13.0343   19.8239 C   0  0  2  0  0  0  0  0  0  0  0  0
  -29.0030  -19.1796   25.9608 C   0  0  0  0  0  0  0  0  0  0  0  0
  -27.8238  -28.6322   32.8208 C   0  0  0  0  0  0  0  0  0  0  0  0
  -22.1613  -28.0361   29.4367 C   0  0  0  0  0  0  0  0  0  0  0  0
  -24.5142  -28.8844   29.5490 C   0  0  0  0  0  0  0  0  0  0  0  0
  -22.8204  -29.6887   31.1943 C   0  0  0  0  0  0  0  0  0  0  0  0
  -26.8958  -25.4755   34.7314 C   0  0  0  0  0  0  0  0  0  0  0  0
  -23.1833  -18.6484   29.8304 C   0  0  0  0  0  0  0  0  0  1  0  0
  -23.5826  -18.1140   28.4686 C   0  0  0  0  0  0  0  0  0  0  0  0
  -23.7059  -27.3279   31.3807 C   0  0  1  0  0  0  0  0  0  0  0  0
  -26.8796  -27.6100   33.4343 C   0  0  2  0  0  0  0  0  0  0  0  0
  -23.2949  -28.4565   30.3934 C   0  0  0  0  0  0  0  0  0  0  0  0
  -25.8242  -11.5083   20.3886 N   0  0  0  0  0  0  0  0  0  0  0  0
  -26.2396  -12.7771   20.2348 N   0  0  0  0  0  0  0  0  0  0  0  0
  -22.2076  -25.4931   32.0965 N   0  0  0  0  0  0  0  0  0  0  0  0
  -29.9842  -13.4482   20.6222 N   0  0  0  0  0  0  0  0  0  0  0  0
  -30.0752  -15.6532   21.5447 N   0  0  0  0  0  0  0  0  0  0  0  0
  -25.5201  -15.0298   20.3710 N   0  0  0  0  0  0  0  0  0  0  0  0
  -21.8214  -12.6861   21.4767 N   0  0  0  0  0  0  0  0  0  0  0  0
  -18.6437  -25.3367   32.1634 N   0  0  0  0  0  0  0  0  0  0  0  0
  -24.7588  -27.7069   32.3166 N   0  0  0  0  0  0  0  0  0  0  0  0
  -26.2462  -17.8928   22.5582 N   0  3  0  0  0  0  0  0  0  0  0  0
  -27.6965  -26.5369   34.0685 N   0  3  0  0  0  0  0  0  0  0  0  0
  -22.6640  -14.7954   21.1613 O   0  0  0  0  0  0  0  0  0  0  0  0
  -20.1977  -24.8331   30.5038 O   0  0  0  0  0  0  0  0  0  0  0  0
  -21.9687  -27.6438   32.9646 O   0  0  0  0  0  0  0  0  0  0  0  0
  -26.2550  -26.0450   31.7028 O   0  0  0  0  0  0  0  0  0  0  0  0
  -31.7054  -14.8923   20.1005 O   0  0  0  0  0  0  0  0  0  0  0  0
  -21.4003   -7.1383   21.7601 O   0  0  0  0  0  0  0  0  0  0  0  0
  -23.8310  -19.8962   30.0479 O   0  0  0  0  0  0  0  0  0  1  0  0
  -24.9944  -17.9139   28.4423 O   0  0  0  0  0  0  0  0  0  0  0  0
  -23.5931   -3.1289   24.8456 F   0  0  0  0  0  0  0  0  0  0  0  0
  -20.2223   -6.3768   24.1423 F   0  0  0  0  0  0  0  0  0  0  0  0
  1  2  1  0  0  0  0
  1  5  2  0  0  0  0
  2  6  2  0  0  0  0
  3  8  2  0  0  0  0
  3 17  1  0  0  0  0
  4  9  1  0  0  0  0
  4 17  2  0  0  0  0
  5 19  1  0  0  0  0
  6 21  1  0  0  0  0
  7 10  2  0  0  0  0
  7 20  1  0  0  0  0
  8 26  1  0  0  0  0
  9 26  2  0  0  0  0
 10 27  1  0  0  0  0
 11 12  2  0  0  0  0
 11 28  1  0  0  0  0
 12 30  1  0  0  0  0
 13 22  1  0  0  0  0
 13 27  2  0  0  0  0
 14 23  1  0  0  0  0
 14 29  2  0  0  0  0
 15 25  2  0  0  0  0
 15 29  1  0  0  0  0
 16 30  2  0  0  0  0
 16 31  1  0  0  0  0
 17 32  1  0  0  0  0
 18 32  1  0  0  0  0
 18 33  2  0  0  0  0
 18 34  1  0  0  0  0
 19 21  2  0  0  0  0
 19 39  1  0  0  0  0
 20 22  2  0  0  0  0
 20 40  1  0  0  0  0
 21 53  1  0  0  0  0
 22 41  1  0  0  0  0
 23 24  2  0  0  0  0
 23 42  1  0  0  0  0
 24 25  1  0  0  0  0
 24 54  1  0  0  0  0
 25 58  1  0  0  0  0
 26 85  1  0  0  0  0
 27 86  1  0  0  0  0
 28 31  2  0  0  0  0
 28 85  1  0  0  0  0
 29 87  1  0  0  0  0
 30 88  1  0  0  0  0
 31 89  1  0  0  0  0
 32 69  2  0  0  0  0
 33 70  1  0  0  0  0
 33 74  1  0  0  0  0
 34 75  1  0  0  0  0
 34 80  2  0  0  0  0
 35 55  1  0  0  0  0
 35 76  1  0  0  0  0
 35 81  2  0  0  0  0
 36 66  1  0  0  0  0
 36 71  1  0  0  0  0
 36 82  2  0  0  0  0
 37 67  1  0  0  0  0
 37 77  1  0  0  0  0
 37 83  2  0  0  0  0
 38 72  1  0  0  0  0
 38 73  1  0  0  0  0
 38 84  2  0  0  0  0
 39 43  1  0  0  0  0
 40 55  1  0  0  0  0
 41 71  1  0  0  0  0
 42 78  1  0  0  0  0
 43 45  1  0  0  0  0
 44 46  1  0  0  0  0
 44 49  1  0  0  0  0
 45 53  1  0  0  0  0
 46 57  1  0  0  0  0
 47 50  1  0  0  0  0
 47 56  1  0  0  0  0
 48 51  1  0  0  0  0
 48 56  1  0  0  0  0
 49 72  1  0  0  0  0
 50 73  1  0  0  0  0
 51 73  1  0  0  0  0
 52 57  1  0  0  0  0
 52 72  1  0  0  0  0
 53 76  1  0  0  0  0
 54 56  1  0  0  0  0
 54 78  1  0  0  0  0
 55 71  1  0  0  0  0
 57 70  1  0  0  0  0
 59 67  1  0  0  0  0
 60 68  1  0  0  0  0
 61 68  1  0  0  0  0
 62 68  1  0  0  0  0
 63 79  1  0  0  0  0
 64 65  1  0  0  0  0
 64 86  1  0  0  0  0
 65 87  1  0  0  0  0
 66 68  1  0  0  0  0
 66 77  1  0  0  0  0
 67 79  1  0  0  0  0
 69 70  1  0  0  0  0
M  CHG  2  78   1  79   1
M  ISO  4  38 100  64 101  73 100  86 101
M  END
> <Batch ID>
0154

> <Smiles>
CNC(C)C(=O)NC(C(=O)N1Cc2cc([101O:1][101CH2:1]COc3cc(C)c4c(c3)CNC4C3CC[100N:0]([100C:0](=O)N4CCCC(n5nc(-c6ccc(Oc7ccc(F)cc7F)cc6)c(C(N)=O)c5N)C4)CC3)ccc2CC1C(=O)NC1CCCc2ccccc21)C(C)(C)C

> <Shape>
0.171

> <Color>
0.190

> <Negative vol penalty>
0.000

$$$$

  -OEChem-04052321513D

 86 94  0     1  0  0  0  0  0999 V2000
  -32.2491  -13.9353   20.6716 C   0  0  0  0  0  0  0  0  0  0  0  0
  -31.4589  -15.0017   21.0884 C   0  0  0  0  0  0  0  0  0  0  0  0
  -30.3388  -24.4271   20.1601 C   0  0  0  0  0  0  0  0  0  0  0  0
  -28.1119  -23.8258   19.4416 C   0  0  0  0  0  0  0  0  0  0  0  0
  -31.6774  -12.8827   19.9581 C   0  0  0  0  0  0  0  0  0  0  0  0
  -30.0966  -15.0167   20.7909 C   0  0  0  0  0  0  0  0  0  0  0  0
  -25.5926  -17.2752   24.2721 C   0  0  0  0  0  0  0  0  0  0  0  0
  -30.5488  -23.1211   20.6025 C   0  0  0  0  0  0  0  0  0  0  0  0
  -28.3219  -22.5197   19.8840 C   0  0  0  0  0  0  0  0  0  0  0  0
  -24.9078  -18.4894   24.2485 C   0  0  0  0  0  0  0  0  0  0  0  0
  -29.9086  -19.7449   18.7871 C   0  0  0  0  0  0  0  0  0  0  0  0
  -29.5135  -18.7056   17.9448 C   0  0  0  0  0  0  0  0  0  0  0  0
  -23.1481  -17.4650   22.9550 C   0  0  0  0  0  0  0  0  0  0  0  0
  -22.0712  -25.7327   24.1074 C   0  0  0  0  0  0  0  0  0  0  0  0
  -20.7075  -24.1107   22.2931 C   0  0  0  0  0  0  0  0  0  0  0  0
  -28.0057  -17.8965   19.6504 C   0  0  0  0  0  0  0  0  0  0  0  0
  -29.1204  -24.7795   19.5797 C   0  0  0  0  0  0  0  0  0  0  0  0
  -29.1755  -26.6473   17.8430 C   0  0  0  0  0  0  0  0  0  0  0  0
  -30.3056  -12.8801   19.6600 C   0  0  0  0  0  0  0  0  0  0  0  0
  -25.0646  -16.1476   23.6269 C   0  0  0  0  0  0  0  0  0  0  0  0
  -29.5063  -13.9637   20.0715 C   0  0  0  0  0  0  0  0  0  0  0  0
  -23.8269  -16.2370   22.9741 C   0  0  0  0  0  0  0  0  0  0  0  0
  -21.2626  -26.3089   23.1278 C   0  0  0  0  0  0  0  0  0  0  0  0
  -22.1981  -24.3455   24.1798 C   0  0  0  0  0  0  0  0  0  0  0  0
  -20.5807  -25.4979   22.2206 C   0  0  0  0  0  0  0  0  0  0  0  0
  -29.5403  -22.1674   20.4644 C   0  0  0  0  0  0  0  0  0  0  0  0
  -23.6868  -18.5852   23.5875 C   0  0  0  0  0  0  0  0  0  0  0  0
  -29.3523  -19.8599   20.0611 C   0  0  0  0  0  0  0  0  0  0  0  0
  -21.5162  -23.5345   23.2727 C   0  0  0  0  0  0  0  0  0  0  0  0
  -28.5621  -17.7814   18.3764 C   0  0  0  0  0  0  0  0  0  0  0  0
  -28.4008  -18.9358   20.4927 C   0  0  0  0  0  0  0  0  0  0  0  0
  -28.9027  -26.1287   19.1230 C   0  0  0  0  0  0  0  0  0  0  0  0
  -28.7946  -27.9648   17.9180 C   0  0  0  0  0  0  0  0  0  0  0  0
  -29.7240  -25.9963   16.6893 C   0  0  0  0  0  0  0  0  0  0  0  0
  -26.0136  -14.2825   21.2343 C   0  0  0  0  0  0  0  0  0  0  0  0
  -23.4055  -12.5445   22.0704 C   0  0  0  0  0  0  0  0  0  0  0  0
  -20.3332  -12.4613   23.5540 C   0  0  0  0  0  0  0  0  0  0  0  0
  -24.8808  -30.8868   21.3814 C   0  0  0  0  0  0  0  0  0  0  0  0
  -29.7420  -11.7429   18.8453 C   0  0  0  0  0  0  0  0  0  0  0  0
  -25.8028  -14.8383   23.6844 C   0  0  0  0  0  0  0  0  0  0  0  0
  -23.2072  -15.0506   22.2833 C   0  0  0  0  0  0  0  0  0  0  0  0
  -28.2188  -11.6541   18.8955 C   0  0  0  0  0  0  0  0  0  0  0  0
  -28.3593  -31.5648   21.0392 C   0  0  0  0  0  0  0  0  0  0  0  0
  -27.5966  -13.0305   18.6831 C   0  0  0  0  0  0  0  0  0  0  0  0
  -28.9176  -30.2953   20.3938 C   0  0  0  0  0  0  0  0  0  0  0  0
  -27.2433  -31.2490   22.0325 C   0  0  0  0  0  0  0  0  0  0  0  0
  -26.7032  -29.1586   20.8442 C   0  0  0  0  0  0  0  0  0  0  0  0
  -28.0201  -14.0041   19.7895 C   0  0  1  0  0  0  0  0  0  0  0  0
  -25.4189  -13.8860   22.5560 C   0  0  1  0  0  0  0  0  0  0  0  0
  -27.7931  -29.4304   19.7932 C   0  0  2  0  0  0  0  0  0  0  0  0
  -23.0672  -23.7457   25.2355 C   0  0  0  0  0  0  0  0  0  0  0  0
  -19.7091  -26.0916   21.1631 C   0  0  0  0  0  0  0  0  0  0  0  0
  -18.4259  -10.9073   24.0487 C   0  0  0  0  0  0  0  0  0  0  0  0
  -22.5090  -12.7219   19.1593 C   0  0  0  0  0  0  0  0  0  0  0  0
  -20.2222  -12.0148   19.8931 C   0  0  0  0  0  0  0  0  0  0  0  0
  -22.1646  -10.4846   20.2224 C   0  0  0  0  0  0  0  0  0  0  0  0
  -20.6442  -12.8227   26.4749 C   0  0  0  0  0  0  0  0  0  0  0  0
  -21.1431  -27.7964   23.0682 C   0  0  0  0  0  0  0  0  0  0  0  0
  -22.5618  -30.3882   20.6517 C   0  0  0  0  0  0  0  0  0  0  0  0
  -21.7579  -29.8788   21.8335 C   0  0  0  0  0  0  0  0  0  0  0  0
  -22.1974  -20.0279   22.4230 C   0  0  0  0  0  0  0  0  0  1  0  0
  -22.1523  -21.5232   22.1746 C   0  0  0  0  0  0  0  0  0  0  0  0
  -21.9490  -12.5438   21.6734 C   0  0  1  0  0  0  0  0  0  0  0  0
  -19.7275  -11.5025   24.5630 C   0  0  2  0  0  0  0  0  0  0  0  0
  -21.7235  -11.9643   20.2483 C   0  0  0  0  0  0  0  0  0  0  0  0
  -28.3884  -27.0422   19.9507 N   0  0  0  0  0  0  0  0  0  0  0  0
  -28.3351  -28.1482   19.1890 N   0  0  0  0  0  0  0  0  0  0  0  0
  -23.9704  -13.7941   22.3621 N   0  0  0  0  0  0  0  0  0  0  0  0
  -26.2082  -30.4278   21.4000 N   0  0  0  0  0  0  0  0  0  0  0  0
  -28.8113  -28.9727   17.0202 N   0  0  0  0  0  0  0  0  0  0  0  0
  -30.0604  -24.6391   16.7848 N   0  0  0  0  0  0  0  0  0  0  0  0
  -27.2678  -13.7519   20.9999 N   0  0  0  0  0  0  0  0  0  0  0  0
  -21.2386  -11.8291   22.7283 N   0  0  0  0  0  0  0  0  0  0  0  0
  -23.9638  -30.0505   20.7566 N   0  0  0  0  0  0  0  0  0  0  0  0
  -19.4470  -12.2087   25.8450 N   0  3  0  0  0  0  0  0  0  0  0  0
  -21.9085  -28.4043   21.9460 N   0  3  0  0  0  0  0  0  0  0  0  0
  -29.9255  -26.6044   15.6108 O   0  0  0  0  0  0  0  0  0  0  0  0
  -25.3808  -15.0144   20.4823 O   0  0  0  0  0  0  0  0  0  0  0  0
  -24.0174  -11.4749   22.1269 O   0  0  0  0  0  0  0  0  0  0  0  0
  -20.0304  -13.6513   23.5009 O   0  0  0  0  0  0  0  0  0  0  0  0
  -24.5393  -31.9648   21.8797 O   0  0  0  0  0  0  0  0  0  0  0  0
  -29.7449  -20.8928   20.8958 O   0  0  0  0  0  0  0  0  0  0  0  0
  -23.0167  -19.7693   23.5624 O   0  0  0  0  0  0  0  0  0  1  0  0
  -21.6308  -22.1704   23.3289 O   0  0  0  0  0  0  0  0  0  0  0  0
  -28.1817  -16.7843   17.5669 F   0  0  0  0  0  0  0  0  0  0  0  0
  -27.8620  -19.0418   21.7151 F   0  0  0  0  0  0  0  0  0  0  0  0
  1  2  1  0  0  0  0
  1  5  2  0  0  0  0
  2  6  2  0  0  0  0
  3  8  2  0  0  0  0
  3 17  1  0  0  0  0
  4  9  1  0  0  0  0
  4 17  2  0  0  0  0
  5 19  1  0  0  0  0
  6 21  1  0  0  0  0
  7 10  2  0  0  0  0
  7 20  1  0  0  0  0
  8 26  1  0  0  0  0
  9 26  2  0  0  0  0
 10 27  1  0  0  0  0
 11 12  2  0  0  0  0
 11 28  1  0  0  0  0
 12 30  1  0  0  0  0
 13 22  1  0  0  0  0
 13 27  2  0  0  0  0
 14 23  2  0  0  0  0
 14 24  1  0  0  0  0
 15 25  2  0  0  0  0
 15 29  1  0  0  0  0
 16 30  2  0  0  0  0
 16 31  1  0  0  0  0
 17 32  1  0  0  0  0
 18 32  1  0  0  0  0
 18 33  2  0  0  0  0
 18 34  1  0  0  0  0
 19 21  2  0  0  0  0
 19 39  1  0  0  0  0
 20 22  2  0  0  0  0
 20 40  1  0  0  0  0
 21 48  1  0  0  0  0
 22 41  1  0  0  0  0
 23 25  1  0  0  0  0
 23 58  1  0  0  0  0
 24 29  2  0  0  0  0
 24 51  1  0  0  0  0
 25 52  1  0  0  0  0
 26 82  1  0  0  0  0
 27 83  1  0  0  0  0
 28 31  2  0  0  0  0
 28 82  1  0  0  0  0
 29 84  1  0  0  0  0
 30 85  1  0  0  0  0
 31 86  1  0  0  0  0
 32 66  2  0  0  0  0
 33 67  1  0  0  0  0
 33 70  1  0  0  0  0
 34 71  1  0  0  0  0
 34 77  2  0  0  0  0
 35 49  1  0  0  0  0
 35 72  1  0  0  0  0
 35 78  2  0  0  0  0
 36 63  1  0  0  0  0
 36 68  1  0  0  0  0
 36 79  2  0  0  0  0
 37 64  1  0  0  0  0
 37 73  1  0  0  0  0
 37 80  2  0  0  0  0
 38 69  1  0  0  0  0
 38 74  1  0  0  0  0
 38 81  2  0  0  0  0
 39 42  1  0  0  0  0
 40 49  1  0  0  0  0
 41 68  1  0  0  0  0
 42 44  1  0  0  0  0
 43 45  1  0  0  0  0
 43 46  1  0  0  0  0
 44 48  1  0  0  0  0
 45 50  1  0  0  0  0
 46 69  1  0  0  0  0
 47 50  1  0  0  0  0
 47 69  1  0  0  0  0
 48 72  1  0  0  0  0
 49 68  1  0  0  0  0
 50 67  1  0  0  0  0
 53 64  1  0  0  0  0
 54 65  1  0  0  0  0
 55 65  1  0  0  0  0
 56 65  1  0  0  0  0
 57 75  1  0  0  0  0
 58 76  1  0  0  0  0
 59 60  1  0  0  0  0
 59 74  1  0  0  0  0
 60 76  1  0  0  0  0
 61 62  1  0  0  0  0
 61 83  1  0  0  0  0
 62 84  1  0  0  0  0
 63 65  1  0  0  0  0
 63 73  1  0  0  0  0
 64 75  1  0  0  0  0
 66 67  1  0  0  0  0
M  CHG  2  75   1  76   1
M  ISO  4  38 100  61 101  74 100  83 101
M  END
> <Batch ID>
0154

> <Smiles>
CNC(C)C(=O)NC(C(=O)N1Cc2cc([101O:1][101CH2:1]COc3cc(C)c(CNCC[100NH:0][100C:0](=O)N4CCCC(n5nc(-c6ccc(Oc7ccc(F)cc7F)cc6)c(C(N)=O)c5N)C4)cc3C)ccc2CC1C(=O)NC1CCCc2ccccc21)C(C)(C)C

> <Shape>
0.278

> <Color>
0.065

> <Negative vol penalty>
0.000

$$$$

  -OEChem-04052321513D

 84 92  0     1  0  0  0  0  0999 V2000
  -28.3532  -24.5140   16.6592 C   0  0  0  0  0  0  0  0  0  0  0  0
  -27.1858  -24.6328   17.4065 C   0  0  0  0  0  0  0  0  0  0  0  0
  -26.8067  -13.4745   20.0451 C   0  0  0  0  0  0  0  0  0  0  0  0
  -24.4715  -13.9863   20.3938 C   0  0  0  0  0  0  0  0  0  0  0  0
  -29.5291  -25.1163   17.1047 C   0  0  0  0  0  0  0  0  0  0  0  0
  -27.1940  -25.3530   18.6005 C   0  0  0  0  0  0  0  0  0  0  0  0
  -23.1995  -28.4350   19.0375 C   0  0  0  0  0  0  0  0  0  0  0  0
  -26.6398  -12.2598   20.7101 C   0  0  0  0  0  0  0  0  0  0  0  0
  -24.3045  -12.7716   21.0588 C   0  0  0  0  0  0  0  0  0  0  0  0
  -21.9854  -27.8556   19.4037 C   0  0  0  0  0  0  0  0  0  0  0  0
  -23.9292   -9.5151   20.2372 C   0  0  0  0  0  0  0  0  0  0  0  0
  -22.8095   -8.7491   19.9131 C   0  0  0  0  0  0  0  0  0  0  0  0
  -22.3298  -28.5851   21.6771 C   0  0  0  0  0  0  0  0  0  0  0  0
  -20.8143  -22.6472   21.8459 C   0  0  0  0  0  0  0  0  0  0  0  0
  -23.4140  -23.6463   22.0066 C   0  0  0  0  0  0  0  0  0  0  0  0
  -22.0585   -8.8770   22.2059 C   0  0  0  0  0  0  0  0  0  0  0  0
  -25.7225  -14.3378   19.8870 C   0  0  0  0  0  0  0  0  0  0  0  0
  -25.7417  -15.8362   17.8225 C   0  0  0  0  0  0  0  0  0  0  0  0
  -29.5494  -25.8524   18.2998 C   0  0  0  0  0  0  0  0  0  0  0  0
  -23.9945  -29.0853   19.9923 C   0  0  0  0  0  0  0  0  0  0  0  0
  -28.3716  -25.9645   19.0631 C   0  0  0  0  0  0  0  0  0  0  0  0
  -23.5524  -29.1740   21.3200 C   0  0  0  0  0  0  0  0  0  0  0  0
  -21.0292  -23.9773   22.2069 C   0  0  0  0  0  0  0  0  0  0  0  0
  -23.1991  -22.3162   21.6456 C   0  0  0  0  0  0  0  0  0  0  0  0
  -25.3887  -11.9083   21.2169 C   0  0  0  0  0  0  0  0  0  0  0  0
  -21.5517  -27.9281   20.7242 C   0  0  0  0  0  0  0  0  0  0  0  0
  -24.1137   -9.9620   21.5457 C   0  0  0  0  0  0  0  0  0  0  0  0
  -21.8993  -21.8166   21.5653 C   0  0  0  0  0  0  0  0  0  0  0  0
  -22.3290  -24.4769   22.2872 C   0  0  0  0  0  0  0  0  0  0  0  0
  -21.8741   -8.4301   20.8975 C   0  0  0  0  0  0  0  0  0  0  0  0
  -23.1783   -9.6429   22.5300 C   0  0  0  0  0  0  0  0  0  0  0  0
  -25.8944  -15.5930   19.2006 C   0  0  0  0  0  0  0  0  0  0  0  0
  -26.0127  -17.1749   17.6779 C   0  0  0  0  0  0  0  0  0  0  0  0
  -25.3866  -14.9327   16.7673 C   0  0  0  0  0  0  0  0  0  0  0  0
  -26.9158  -28.6350   21.1613 C   0  0  0  0  0  0  0  0  0  0  0  0
  -26.3186  -31.4394   22.6783 C   0  0  0  0  0  0  0  0  0  0  0  0
  -24.0125  -33.6428   23.8922 C   0  0  0  0  0  0  0  0  0  0  0  0
  -25.6599  -21.8363   21.3997 C   0  0  0  0  0  0  0  0  0  0  0  0
  -30.8556  -26.4458   18.7649 C   0  0  0  0  0  0  0  0  0  0  0  0
  -25.2889  -29.7283   19.5758 C   0  0  0  0  0  0  0  0  0  0  0  0
  -24.3590  -29.8786   22.3790 C   0  0  0  0  0  0  0  0  0  0  0  0
  -30.6906  -27.5063   19.8504 C   0  0  0  0  0  0  0  0  0  0  0  0
  -28.5567  -20.7159   19.6588 C   0  0  0  0  0  0  0  0  0  0  0  0
  -29.7299  -27.0196   20.9306 C   0  0  0  0  0  0  0  0  0  0  0  0
  -28.1865  -19.2994   19.2131 C   0  0  0  0  0  0  0  0  0  0  0  0
  -27.9871  -21.0435   21.0379 C   0  0  0  0  0  0  0  0  0  0  0  0
  -26.1725  -19.4048   20.7361 C   0  0  0  0  0  0  0  0  0  0  0  0
  -28.3345  -26.7584   20.3510 C   0  0  1  0  0  0  0  0  0  0  0  0
  -26.2616  -29.9189   20.7355 C   0  0  1  0  0  0  0  0  0  0  0  0
  -26.6693  -19.0519   19.3246 C   0  0  2  0  0  0  0  0  0  0  0  0
  -23.8273  -35.8265   25.1147 C   0  0  0  0  0  0  0  0  0  0  0  0
  -27.0368  -30.0352   25.2903 C   0  0  0  0  0  0  0  0  0  0  0  0
  -25.9413  -31.9189   26.5231 C   0  0  0  0  0  0  0  0  0  0  0  0
  -27.9260  -32.3630   25.0786 C   0  0  0  0  0  0  0  0  0  0  0  0
  -22.5920  -34.9206   21.6320 C   0  0  0  0  0  0  0  0  0  0  0  0
  -21.5031  -20.2449   19.8251 C   0  0  0  0  0  0  0  0  0  0  0  0
  -22.7217  -26.0479   24.0289 C   0  0  0  0  0  0  0  0  0  0  0  0
  -19.8447  -24.8609   22.5064 C   0  0  0  0  0  0  0  0  0  0  0  0
  -19.0980  -25.3344   21.2574 C   0  0  0  0  0  0  0  0  0  0  0  0
  -19.9436  -26.2172   20.3469 C   0  0  0  0  0  0  0  0  0  1  0  0
  -25.7024  -31.8298   24.0000 C   0  0  1  0  0  0  0  0  0  0  0  0
  -23.8889  -35.1495   23.7543 C   0  0  2  0  0  0  0  0  0  0  0  0
  -26.6371  -31.5217   25.2037 C   0  0  0  0  0  0  0  0  0  0  0  0
  -26.2361  -16.6893   19.8829 N   0  0  0  0  0  0  0  0  0  0  0  0
  -26.3004  -17.6342   18.9295 N   0  0  0  0  0  0  0  0  0  0  0  0
  -25.6205  -30.4860   21.9236 N   0  0  0  0  0  0  0  0  0  0  0  0
  -26.5451  -20.7890   21.0674 N   0  0  0  0  0  0  0  0  0  0  0  0
  -26.0307  -17.9921   16.6036 N   0  0  0  0  0  0  0  0  0  0  0  0
  -25.1417  -13.5911   17.0905 N   0  0  0  0  0  0  0  0  0  0  0  0
  -24.3110  -21.4846   21.3631 N   0  0  0  0  0  0  0  0  0  0  0  0
  -27.6263  -28.0055   20.1571 N   0  0  0  0  0  0  0  0  0  0  0  0
  -25.3296  -33.2349   23.8773 N   0  0  0  0  0  0  0  0  0  0  0  0
  -22.6538  -35.5009   22.9981 N   0  3  0  0  0  0  0  0  0  0  0  0
  -25.3055  -15.3006   15.5708 O   0  0  0  0  0  0  0  0  0  0  0  0
  -26.7869  -28.2451   22.3159 O   0  0  0  0  0  0  0  0  0  0  0  0
  -27.3765  -31.9663   22.3251 O   0  0  0  0  0  0  0  0  0  0  0  0
  -23.0383  -32.9022   24.0057 O   0  0  0  0  0  0  0  0  0  0  0  0
  -26.0670  -22.9695   21.6684 O   0  0  0  0  0  0  0  0  0  0  0  0
  -25.2255  -10.7230   21.8657 O   0  0  0  0  0  0  0  0  0  0  0  0
  -21.6682  -20.5201   21.2145 O   0  0  0  0  0  0  0  0  0  0  0  0
  -22.5573  -25.7732   22.6391 O   0  0  0  0  0  0  0  0  0  0  0  0
  -20.3674  -27.3630   21.0844 O   0  0  0  0  0  0  0  0  0  1  0  0
  -20.7981   -7.6958   20.5858 F   0  0  0  0  0  0  0  0  0  0  0  0
  -23.3494  -10.0704   23.7885 F   0  0  0  0  0  0  0  0  0  0  0  0
  1  2  1  0  0  0  0
  1  5  2  0  0  0  0
  2  6  2  0  0  0  0
  3  8  2  0  0  0  0
  3 17  1  0  0  0  0
  4  9  1  0  0  0  0
  4 17  2  0  0  0  0
  5 19  1  0  0  0  0
  6 21  1  0  0  0  0
  7 10  2  0  0  0  0
  7 20  1  0  0  0  0
  8 25  1  0  0  0  0
  9 25  2  0  0  0  0
 10 26  1  0  0  0  0
 11 12  2  0  0  0  0
 11 27  1  0  0  0  0
 12 30  1  0  0  0  0
 13 22  1  0  0  0  0
 13 26  2  0  0  0  0
 14 23  1  0  0  0  0
 14 28  2  0  0  0  0
 15 24  2  0  0  0  0
 15 29  1  0  0  0  0
 16 30  2  0  0  0  0
 16 31  1  0  0  0  0
 17 32  1  0  0  0  0
 18 32  1  0  0  0  0
 18 33  2  0  0  0  0
 18 34  1  0  0  0  0
 19 21  2  0  0  0  0
 19 39  1  0  0  0  0
 20 22  2  0  0  0  0
 20 40  1  0  0  0  0
 21 48  1  0  0  0  0
 22 41  1  0  0  0  0
 23 29  2  0  0  0  0
 23 58  1  0  0  0  0
 24 28  1  0  0  0  0
 24 70  1  0  0  0  0
 25 79  1  0  0  0  0
 26 82  1  0  0  0  0
 27 31  2  0  0  0  0
 27 79  1  0  0  0  0
 28 80  1  0  0  0  0
 29 81  1  0  0  0  0
 30 83  1  0  0  0  0
 31 84  1  0  0  0  0
 32 64  2  0  0  0  0
 33 65  1  0  0  0  0
 33 68  1  0  0  0  0
 34 69  1  0  0  0  0
 34 74  2  0  0  0  0
 35 49  1  0  0  0  0
 35 71  1  0  0  0  0
 35 75  2  0  0  0  0
 36 61  1  0  0  0  0
 36 66  1  0  0  0  0
 36 76  2  0  0  0  0
 37 62  1  0  0  0  0
 37 72  1  0  0  0  0
 37 77  2  0  0  0  0
 38 67  1  0  0  0  0
 38 70  1  0  0  0  0
 38 78  2  0  0  0  0
 39 42  1  0  0  0  0
 40 49  1  0  0  0  0
 41 66  1  0  0  0  0
 42 44  1  0  0  0  0
 43 45  1  0  0  0  0
 43 46  1  0  0  0  0
 44 48  1  0  0  0  0
 45 50  1  0  0  0  0
 46 67  1  0  0  0  0
 47 50  1  0  0  0  0
 47 67  1  0  0  0  0
 48 71  1  0  0  0  0
 49 66  1  0  0  0  0
 50 65  1  0  0  0  0
 51 62  1  0  0  0  0
 52 63  1  0  0  0  0
 53 63  1  0  0  0  0
 54 63  1  0  0  0  0
 55 73  1  0  0  0  0
 56 80  1  0  0  0  0
 57 81  1  0  0  0  0
 58 59  1  0  0  0  0
 59 60  1  0  0  0  0
 60 82  1  0  0  0  0
 61 63  1  0  0  0  0
 61 72  1  0  0  0  0
 62 73  1  0  0  0  0
 64 65  1  0  0  0  0
M  CHG  1  73   1
M  ISO  4  38 100  60 101  70 100  82 101
M  END
> <Batch ID>
0154

> <Smiles>
CNC(C)C(=O)NC(C(=O)N1Cc2cc([101O:1][101CH2:1]CCc3cc(OC)c([100NH:0][100C:0](=O)N4CCCC(n5nc(-c6ccc(Oc7ccc(F)cc7F)cc6)c(C(N)=O)c5N)C4)cc3OC)ccc2CC1C(=O)NC1CCCc2ccccc21)C(C)(C)C

> <Shape>
0.289

> <Color>
0.087

> <Negative vol penalty>
0.000

$$$$

  -OEChem-04052321513D

 88 97  0     1  0  0  0  0  0999 V2000
  -29.7677  -30.6350   26.6256 C   0  0  0  0  0  0  0  0  0  0  0  0
  -29.4869  -29.8168   25.5360 C   0  0  0  0  0  0  0  0  0  0  0  0
  -24.1859   -9.4621   21.0250 C   0  0  0  0  0  0  0  0  0  0  0  0
  -24.4645  -10.3417   23.2579 C   0  0  0  0  0  0  0  0  0  0  0  0
  -28.7252  -31.1702   27.3810 C   0  0  0  0  0  0  0  0  0  0  0  0
  -28.1633  -29.5325   25.2019 C   0  0  0  0  0  0  0  0  0  0  0  0
  -27.2912  -29.9100   20.2277 C   0  0  0  0  0  0  0  0  0  0  0  0
  -23.7390   -8.2527   21.5571 C   0  0  0  0  0  0  0  0  0  0  0  0
  -24.0175   -9.1323   23.7900 C   0  0  0  0  0  0  0  0  0  0  0  0
  -27.7138  -28.8513   19.4251 C   0  0  0  0  0  0  0  0  0  0  0  0
  -20.8843   -7.0187   22.8841 C   0  0  0  0  0  0  0  0  0  0  0  0
  -19.7535   -6.4369   22.3110 C   0  0  0  0  0  0  0  0  0  0  0  0
  -25.4595  -27.9937   19.3801 C   0  0  0  0  0  0  0  0  0  0  0  0
  -21.0477   -4.4759   21.7484 C   0  0  0  0  0  0  0  0  0  0  0  0
  -24.5487  -10.5066   21.8754 C   0  0  0  0  0  0  0  0  0  0  0  0
  -24.2289  -12.8751   20.9833 C   0  0  0  0  0  0  0  0  0  0  0  0
  -27.3879  -30.9001   27.0501 C   0  0  0  0  0  0  0  0  0  0  0  0
  -25.9495  -30.0128   20.6223 C   0  0  0  0  0  0  0  0  0  0  0  0
  -27.1019  -30.0635   25.9543 C   0  0  0  0  0  0  0  0  0  0  0  0
  -25.0220  -29.0561   20.1857 C   0  0  0  0  0  0  0  0  0  0  0  0
  -23.6547   -8.0878   22.9396 C   0  0  0  0  0  0  0  0  0  0  0  0
  -26.7984  -27.8913   19.0035 C   0  0  0  0  0  0  0  0  0  0  0  0
  -22.0968   -6.3292   22.8892 C   0  0  0  0  0  0  0  0  0  0  0  0
  -19.8352   -5.1655   21.7432 C   0  0  0  0  0  0  0  0  0  0  0  0
  -22.1785   -5.0578   22.3214 C   0  0  0  0  0  0  0  0  0  0  0  0
  -25.0111  -11.7560   21.3263 C   0  0  0  0  0  0  0  0  0  0  0  0
  -25.1333  -13.7938   20.5094 C   0  0  0  0  0  0  0  0  0  0  0  0
  -22.8116  -13.0670   21.0840 C   0  0  0  0  0  0  0  0  0  0  0  0
  -24.4232  -29.9894   23.4104 C   0  0  0  0  0  0  0  0  0  0  0  0
  -21.8487  -30.6866   21.5642 C   0  0  0  0  0  0  0  0  0  0  0  0
  -20.3703  -30.5681   18.4906 C   0  0  0  0  0  0  0  0  0  0  0  0
  -30.1336  -16.3388   21.4474 C   0  0  0  0  0  0  0  0  0  0  0  0
  -26.2958  -31.4630   27.9247 C   0  0  0  0  0  0  0  0  0  0  0  0
  -25.5045  -31.1756   21.4662 C   0  0  0  0  0  0  0  0  0  0  0  0
  -23.5663  -29.1321   20.5648 C   0  0  0  0  0  0  0  0  0  0  0  0
  -24.9135  -31.4169   27.2786 C   0  0  0  0  0  0  0  0  0  0  0  0
  -30.0111  -13.3193   19.3006 C   0  0  0  0  0  0  0  0  0  0  0  0
  -24.6615  -30.0482   26.6541 C   0  0  0  0  0  0  0  0  0  0  0  0
  -27.6753  -24.1425   19.0034 C   0  0  0  0  0  0  0  0  0  0  0  0
  -28.6639  -12.7036   19.6738 C   0  0  0  0  0  0  0  0  0  0  0  0
  -27.7040  -22.6344   18.7631 C   0  0  0  0  0  0  0  0  0  0  0  0
  -30.0175  -19.7120   20.6443 C   0  0  0  0  0  0  0  0  0  0  0  0
  -28.3287  -18.4353   19.2657 C   0  0  0  0  0  0  0  0  0  0  0  0
  -30.6013  -14.1302   20.4500 C   0  0  0  0  0  0  0  0  0  0  0  0
  -29.7426  -18.7585   21.8041 C   0  0  0  0  0  0  0  0  0  0  0  0
  -28.1061  -17.4876   20.4482 C   0  0  0  0  0  0  0  0  0  0  0  0
  -28.3377  -14.5661   21.3490 C   0  0  0  0  0  0  0  0  0  0  0  0
  -25.6786  -29.7520   25.5454 C   0  0  1  0  0  0  0  0  0  0  0  0
  -24.2147  -30.8987   22.2325 C   0  0  1  0  0  0  0  0  0  0  0  0
  -28.6015  -24.9106   18.0418 C   0  0  2  0  0  0  0  0  0  0  0  0
  -30.0475  -24.3442   18.0929 C   0  0  1  0  0  0  0  0  0  0  0  0
  -27.6962  -13.7793   20.1961 C   0  0  2  0  0  0  0  0  0  0  0  0
  -29.1352  -22.1109   18.8310 C   0  0  2  0  0  0  0  0  0  0  0  0
  -28.7890  -19.8113   19.7422 C   0  0  0  0  0  0  0  0  0  0  0  0
  -30.0566  -22.8193   17.8331 C   0  0  1  0  0  0  0  0  0  0  0  0
  -30.9796  -25.0567   17.1048 C   0  0  0  0  0  0  0  0  0  0  0  0
  -29.5579  -21.0995   14.6196 C   0  0  0  0  0  0  0  0  0  0  0  0
  -18.2486  -31.1836   17.3002 C   0  0  0  0  0  0  0  0  0  0  0  0
  -20.4401  -28.3035   22.8475 C   0  0  0  0  0  0  0  0  0  0  0  0
  -18.7599  -28.3870   20.9933 C   0  0  0  0  0  0  0  0  0  0  0  0
  -19.0011  -30.3262   22.5437 C   0  0  0  0  0  0  0  0  0  0  0  0
  -21.7975  -32.3888   16.6448 C   0  0  0  0  0  0  0  0  0  0  0  0
  -28.5454  -26.4047   18.3759 C   0  0  0  0  0  0  0  0  0  1  0  0
  -30.0369  -21.2981   16.0419 C   0  0  0  0  0  0  0  0  0  0  0  0
  -20.8068  -29.8755   20.8325 C   0  0  1  0  0  0  0  0  0  0  0  0
  -19.6530  -31.6296   17.6763 C   0  0  2  0  0  0  0  0  0  0  0  0
  -19.7797  -29.2203   21.7985 C   0  0  0  0  0  0  0  0  0  0  0  0
  -26.3122  -11.9443   21.0903 N   0  0  0  0  0  0  0  0  0  0  0  0
  -26.3545  -13.1925   20.5938 N   0  0  0  0  0  0  0  0  0  0  0  0
  -23.1813  -30.2843   21.3965 N   0  0  0  0  0  0  0  0  0  0  0  0
  -29.6466  -15.1139   20.9613 N   0  0  0  0  0  0  0  0  0  0  0  0
  -29.2907  -17.4531   21.3187 N   0  0  0  0  0  0  0  0  0  0  0  0
  -24.9950  -15.0493   20.0329 N   0  0  0  0  0  0  0  0  0  0  0  0
  -22.0302  -12.0207   21.5928 N   0  0  0  0  0  0  0  0  0  0  0  0
  -25.3309  -30.4672   24.3363 N   0  0  0  0  0  0  0  0  0  0  0  0
  -20.2121  -30.7702   19.8454 N   0  0  0  0  0  0  0  0  0  0  0  0
  -29.1211  -20.6484   18.5605 N   0  3  0  0  0  0  0  0  0  0  0  0
  -20.4061  -31.9177   16.4229 N   0  3  0  0  0  0  0  0  0  0  0  0
  -22.2528  -14.1286   20.7179 O   0  0  0  0  0  0  0  0  0  0  0  0
  -23.8051  -28.9332   23.4751 O   0  0  0  0  0  0  0  0  0  0  0  0
  -21.4939  -31.6462   22.2533 O   0  0  0  0  0  0  0  0  0  0  0  0
  -21.0041  -29.6492   17.9763 O   0  0  0  0  0  0  0  0  0  0  0  0
  -31.2548  -16.4300   21.9628 O   0  0  0  0  0  0  0  0  0  0  0  0
  -23.2184   -6.9079   23.4592 O   0  0  0  0  0  0  0  0  0  0  0  0
  -27.2123  -26.8465   18.2129 O   0  0  0  0  0  0  0  0  0  1  0  0
  -29.6288  -22.5802   16.4922 O   0  0  0  0  0  0  0  0  0  0  0  0
  -18.7488   -4.6062   21.1943 F   0  0  0  0  0  0  0  0  0  0  0  0
  -23.3403   -4.3900   22.3244 F   0  0  0  0  0  0  0  0  0  0  0  0
  1  2  1  0  0  0  0
  1  5  2  0  0  0  0
  2  6  2  0  0  0  0
  3  8  2  0  0  0  0
  3 15  1  0  0  0  0
  4  9  1  0  0  0  0
  4 15  2  0  0  0  0
  5 17  1  0  0  0  0
  6 19  1  0  0  0  0
  7 10  2  0  0  0  0
  7 18  1  0  0  0  0
  8 21  1  0  0  0  0
  9 21  2  0  0  0  0
 10 22  1  0  0  0  0
 11 12  2  0  0  0  0
 11 23  1  0  0  0  0
 12 24  1  0  0  0  0
 13 20  1  0  0  0  0
 13 22  2  0  0  0  0
 14 24  2  0  0  0  0
 14 25  1  0  0  0  0
 15 26  1  0  0  0  0
 16 26  1  0  0  0  0
 16 27  2  0  0  0  0
 16 28  1  0  0  0  0
 17 19  2  0  0  0  0
 17 33  1  0  0  0  0
 18 20  2  0  0  0  0
 18 34  1  0  0  0  0
 19 48  1  0  0  0  0
 20 35  1  0  0  0  0
 21 84  1  0  0  0  0
 22 85  1  0  0  0  0
 23 25  2  0  0  0  0
 23 84  1  0  0  0  0
 24 87  1  0  0  0  0
 25 88  1  0  0  0  0
 26 68  2  0  0  0  0
 27 69  1  0  0  0  0
 27 73  1  0  0  0  0
 28 74  1  0  0  0  0
 28 79  2  0  0  0  0
 29 49  1  0  0  0  0
 29 75  1  0  0  0  0
 29 80  2  0  0  0  0
 30 65  1  0  0  0  0
 30 70  1  0  0  0  0
 30 81  2  0  0  0  0
 31 66  1  0  0  0  0
 31 76  1  0  0  0  0
 31 82  2  0  0  0  0
 32 71  1  0  0  0  0
 32 72  1  0  0  0  0
 32 83  2  0  0  0  0
 33 36  1  0  0  0  0
 34 49  1  0  0  0  0
 35 70  1  0  0  0  0
 36 38  1  0  0  0  0
 37 40  1  0  0  0  0
 37 44  1  0  0  0  0
 38 48  1  0  0  0  0
 39 41  1  0  0  0  0
 39 50  1  0  0  0  0
 40 52  1  0  0  0  0
 41 53  1  0  0  0  0
 42 45  1  0  0  0  0
 42 54  1  0  0  0  0
 43 46  1  0  0  0  0
 43 54  1  0  0  0  0
 44 71  1  0  0  0  0
 45 72  1  0  0  0  0
 46 72  1  0  0  0  0
 47 52  1  0  0  0  0
 47 71  1  0  0  0  0
 48 75  1  0  0  0  0
 49 70  1  0  0  0  0
 50 51  1  0  0  0  0
 50 63  1  0  0  0  0
 51 55  1  0  0  0  0
 51 56  1  0  0  0  0
 52 69  1  0  0  0  0
 53 55  1  0  0  0  0
 53 77  1  0  0  0  0
 54 77  1  0  0  0  0
 55 86  1  0  0  0  0
 57 64  1  0  0  0  0
 58 66  1  0  0  0  0
 59 67  1  0  0  0  0
 60 67  1  0  0  0  0
 61 67  1  0  0  0  0
 62 78  1  0  0  0  0
 63 85  1  0  0  0  0
 64 86  1  0  0  0  0
 65 67  1  0  0  0  0
 65 76  1  0  0  0  0
 66 78  1  0  0  0  0
 68 69  1  0  0  0  0
M  CHG  2  77   1  78   1
M  ISO  4  32 100  63 101  72 100  85 101
M  END
> <Batch ID>
0154

> <Smiles>
CCOC1C(NC2CC[100N:0]([100C:0](=O)N3CCCC(n4nc(-c5ccc(Oc6ccc(F)cc6F)cc5)c(C(N)=O)c4N)C3)CC2)CCC([101CH2:1][101O:1]c2ccc3c(c2)CN(C(=O)C(NC(=O)C(C)NC)C(C)(C)C)C(C(=O)NC2CCCc4ccccc42)C3)C1C

> <Shape>
0.364

> <Color>
0.137

> <Negative vol penalty>
0.000

$$$$

  -OEChem-04052321513D

 83 92  0     1  0  0  0  0  0999 V2000
  -28.6054  -17.8515   16.4696 C   0  0  0  0  0  0  0  0  0  0  0  0
  -27.5109  -18.7080   16.4073 C   0  0  0  0  0  0  0  0  0  0  0  0
  -24.3295  -17.4010   22.7731 C   0  0  0  0  0  0  0  0  0  0  0  0
  -24.7299  -18.7031   20.7778 C   0  0  0  0  0  0  0  0  0  0  0  0
  -29.4883  -17.9277   17.5460 C   0  0  0  0  0  0  0  0  0  0  0  0
  -27.2980  -19.6405   17.4220 C   0  0  0  0  0  0  0  0  0  0  0  0
  -24.7052  -26.2319   18.4927 C   0  0  0  0  0  0  0  0  0  0  0  0
  -25.0246  -16.3292   22.2132 C   0  0  0  0  0  0  0  0  0  0  0  0
  -25.4251  -17.6313   20.2179 C   0  0  0  0  0  0  0  0  0  0  0  0
  -23.7910  -26.9124   19.2958 C   0  0  0  0  0  0  0  0  0  0  0  0
  -24.4326  -13.8829   19.9572 C   0  0  0  0  0  0  0  0  0  0  0  0
  -23.8664  -12.6133   20.0720 C   0  0  0  0  0  0  0  0  0  0  0  0
  -25.4263  -27.0069   21.0667 C   0  0  0  0  0  0  0  0  0  0  0  0
  -20.2654  -27.2652   22.6285 C   0  0  0  0  0  0  0  0  0  0  0  0
  -25.8164  -11.8529   21.2789 C   0  0  0  0  0  0  0  0  0  0  0  0
  -17.7684  -28.3538   22.7886 C   0  0  0  0  0  0  0  0  0  0  0  0
  -24.1821  -18.5880   22.0554 C   0  0  0  0  0  0  0  0  0  0  0  0
  -23.9944  -20.7361   23.4185 C   0  0  0  0  0  0  0  0  0  0  0  0
  -29.2915  -18.8681   18.5695 C   0  0  0  0  0  0  0  0  0  0  0  0
  -25.9852  -25.9237   18.9753 C   0  0  0  0  0  0  0  0  0  0  0  0
  -28.1783  -19.7284   18.5137 C   0  0  0  0  0  0  0  0  0  0  0  0
  -26.3557  -26.3247   20.2668 C   0  0  0  0  0  0  0  0  0  0  0  0
  -20.1298  -28.6361   22.8167 C   0  0  0  0  0  0  0  0  0  0  0  0
  -18.8609  -29.1987   22.8993 C   0  0  0  0  0  0  0  0  0  0  0  0
  -25.5725  -16.4443   20.9356 C   0  0  0  0  0  0  0  0  0  0  0  0
  -24.1505  -27.2975   20.5840 C   0  0  0  0  0  0  0  0  0  0  0  0
  -25.6907  -14.1375   20.5031 C   0  0  0  0  0  0  0  0  0  0  0  0
  -24.5583  -11.5983   20.7329 C   0  0  0  0  0  0  0  0  0  0  0  0
  -26.3825  -13.1226   21.1640 C   0  0  0  0  0  0  0  0  0  0  0  0
  -23.4636  -19.6954   22.6331 C   0  0  0  0  0  0  0  0  0  0  0  0
  -19.1100  -26.5068   22.5302 C   0  0  0  0  0  0  0  0  0  0  0  0
  -22.9121  -21.5274   23.7167 C   0  0  0  0  0  0  0  0  0  0  0  0
  -25.3450  -20.9669   23.8408 C   0  0  0  0  0  0  0  0  0  0  0  0
  -27.5892  -23.2343   19.5211 C   0  0  0  0  0  0  0  0  0  0  0  0
  -30.0318  -25.2761   20.1430 C   0  0  0  0  0  0  0  0  0  0  0  0
  -31.0267  -28.4048   21.0748 C   0  0  0  0  0  0  0  0  0  0  0  0
  -18.2433  -24.1627   22.2133 C   0  0  0  0  0  0  0  0  0  0  0  0
  -30.2464  -18.8811   19.7368 C   0  0  0  0  0  0  0  0  0  0  0  0
  -26.9689  -25.2127   18.0869 C   0  0  0  0  0  0  0  0  0  0  0  0
  -27.7245  -26.0358   20.8248 C   0  0  0  0  0  0  0  0  0  0  0  0
  -30.1587  -20.1496   20.5814 C   0  0  0  0  0  0  0  0  0  0  0  0
  -17.9587  -20.7166   23.0622 C   0  0  0  0  0  0  0  0  0  0  0  0
  -28.7025  -20.4947   20.8767 C   0  0  0  0  0  0  0  0  0  0  0  0
  -19.4092  -20.2293   23.0908 C   0  0  0  0  0  0  0  0  0  0  0  0
  -22.3225  -29.1814   24.0565 C   0  0  0  0  0  0  0  0  0  0  0  0
  -21.4678  -30.4082   24.1247 C   0  0  0  0  0  0  0  0  0  0  0  0
  -17.7278  -21.7454   21.9567 C   0  0  0  0  0  0  0  0  0  0  0  0
  -20.1027  -22.3990   21.9960 C   0  0  0  0  0  0  0  0  0  0  0  0
  -27.9274  -20.7700   19.5825 C   0  0  1  0  0  0  0  0  0  0  0  0
  -28.0692  -24.4981   18.8654 C   0  0  1  0  0  0  0  0  0  0  0  0
  -20.3994  -21.4096   23.1348 C   0  0  2  0  0  0  0  0  0  0  0  0
  -21.3520  -29.4811   22.9282 C   0  0  0  0  0  0  0  0  0  0  0  0
  -18.6564  -30.6602   23.1019 C   0  0  0  0  0  0  0  0  0  0  0  0
  -33.0873  -29.7620   21.5325 C   0  0  0  0  0  0  0  0  0  0  0  0
  -30.3605  -23.8667   22.8292 C   0  0  0  0  0  0  0  0  0  0  0  0
  -31.7334  -25.8121   23.6030 C   0  0  0  0  0  0  0  0  0  0  0  0
  -32.5075  -24.4291   21.6766 C   0  0  0  0  0  0  0  0  0  0  0  0
  -30.3843  -30.3225   18.9141 C   0  0  0  0  0  0  0  0  0  0  0  0
  -21.9208  -29.9496   21.6222 C   0  0  0  0  0  0  0  0  0  0  0  0
  -22.3040  -28.7908   20.7112 C   0  0  0  0  0  0  0  0  0  1  0  0
  -30.5421  -25.9899   21.3714 C   0  0  1  0  0  0  0  0  0  0  0  0
  -32.0609  -29.3491   20.4890 C   0  0  2  0  0  0  0  0  0  0  0  0
  -31.2593  -25.0284   22.3605 C   0  0  0  0  0  0  0  0  0  0  0  0
  -17.8606  -27.0176   22.6055 N   0  0  0  0  0  0  0  0  0  0  0  0
  -22.1465  -19.8120   22.4443 N   0  0  0  0  0  0  0  0  0  0  0  0
  -21.8406  -20.9354   23.1154 N   0  0  0  0  0  0  0  0  0  0  0  0
  -28.6487  -25.3327   19.9198 N   0  0  0  0  0  0  0  0  0  0  0  0
  -18.6994  -22.8359   22.0642 N   0  0  0  0  0  0  0  0  0  0  0  0
  -22.7820  -22.6649   24.4320 N   0  0  0  0  0  0  0  0  0  0  0  0
  -26.3337  -20.0556   23.4454 N   0  0  0  0  0  0  0  0  0  0  0  0
  -19.2583  -25.1107   22.3383 N   0  0  0  0  0  0  0  0  0  0  0  0
  -28.2329  -22.0931   19.0821 N   0  0  0  0  0  0  0  0  0  0  0  0
  -31.3780  -27.0843   20.8899 N   0  0  0  0  0  0  0  0  0  0  0  0
  -31.4018  -30.5791   19.9658 N   0  3  0  0  0  0  0  0  0  0  0  0
  -25.6628  -21.9432   24.5615 O   0  0  0  0  0  0  0  0  0  0  0  0
  -26.7015  -23.2904   20.3641 O   0  0  0  0  0  0  0  0  0  0  0  0
  -30.8317  -24.6959   19.4047 O   0  0  0  0  0  0  0  0  0  0  0  0
  -30.0108  -28.7991   21.6431 O   0  0  0  0  0  0  0  0  0  0  0  0
  -17.0407  -24.4345   22.2562 O   0  0  0  0  0  0  0  0  0  0  0  0
  -26.2511  -15.3987   20.3890 O   0  0  0  0  0  0  0  0  0  0  0  0
  -23.2599  -27.9612   21.3703 O   0  0  0  0  0  0  0  0  0  1  0  0
  -24.0138  -10.3796   20.8444 F   0  0  0  0  0  0  0  0  0  0  0  0
  -27.5910  -13.3615   21.6916 F   0  0  0  0  0  0  0  0  0  0  0  0
  1  2  1  0  0  0  0
  1  5  2  0  0  0  0
  2  6  2  0  0  0  0
  3  8  2  0  0  0  0
  3 17  1  0  0  0  0
  4  9  1  0  0  0  0
  4 17  2  0  0  0  0
  5 19  1  0  0  0  0
  6 21  1  0  0  0  0
  7 10  2  0  0  0  0
  7 20  1  0  0  0  0
  8 25  1  0  0  0  0
  9 25  2  0  0  0  0
 10 26  1  0  0  0  0
 11 12  2  0  0  0  0
 11 27  1  0  0  0  0
 12 28  1  0  0  0  0
 13 22  1  0  0  0  0
 13 26  2  0  0  0  0
 14 23  1  0  0  0  0
 14 31  2  0  0  0  0
 15 28  2  0  0  0  0
 15 29  1  0  0  0  0
 16 24  1  0  0  0  0
 16 64  2  0  0  0  0
 17 30  1  0  0  0  0
 18 30  1  0  0  0  0
 18 32  2  0  0  0  0
 18 33  1  0  0  0  0
 19 21  2  0  0  0  0
 19 38  1  0  0  0  0
 20 22  2  0  0  0  0
 20 39  1  0  0  0  0
 21 49  1  0  0  0  0
 22 40  1  0  0  0  0
 23 24  2  0  0  0  0
 23 52  1  0  0  0  0
 24 53  1  0  0  0  0
 25 80  1  0  0  0  0
 26 81  1  0  0  0  0
 27 29  2  0  0  0  0
 27 80  1  0  0  0  0
 28 82  1  0  0  0  0
 29 83  1  0  0  0  0
 30 65  2  0  0  0  0
 31 64  1  0  0  0  0
 31 71  1  0  0  0  0
 32 66  1  0  0  0  0
 32 69  1  0  0  0  0
 33 70  1  0  0  0  0
 33 75  2  0  0  0  0
 34 50  1  0  0  0  0
 34 72  1  0  0  0  0
 34 76  2  0  0  0  0
 35 61  1  0  0  0  0
 35 67  1  0  0  0  0
 35 77  2  0  0  0  0
 36 62  1  0  0  0  0
 36 73  1  0  0  0  0
 36 78  2  0  0  0  0
 37 68  1  0  0  0  0
 37 71  1  0  0  0  0
 37 79  2  0  0  0  0
 38 41  1  0  0  0  0
 39 50  1  0  0  0  0
 40 67  1  0  0  0  0
 41 43  1  0  0  0  0
 42 44  1  0  0  0  0
 42 47  1  0  0  0  0
 43 49  1  0  0  0  0
 44 51  1  0  0  0  0
 45 46  1  0  0  0  0
 45 52  1  0  0  0  0
 46 52  1  0  0  0  0
 47 68  1  0  0  0  0
 48 51  1  0  0  0  0
 48 68  1  0  0  0  0
 49 72  1  0  0  0  0
 50 67  1  0  0  0  0
 51 66  1  0  0  0  0
 52 59  1  0  0  0  0
 54 62  1  0  0  0  0
 55 63  1  0  0  0  0
 56 63  1  0  0  0  0
 57 63  1  0  0  0  0
 58 74  1  0  0  0  0
 59 60  1  0  0  0  0
 60 81  1  0  0  0  0
 61 63  1  0  0  0  0
 61 73  1  0  0  0  0
 62 74  1  0  0  0  0
 65 66  1  0  0  0  0
M  CHG  1  74   1
M  ISO  4  37 100  60 101  71 100  81 101
M  END
> <Batch ID>
0154

> <Smiles>
CNC(C)C(=O)NC(C(=O)N1Cc2cc([101O:1][101CH2:1]CC3(c4cc([100NH:0][100C:0](=O)N5CCCC(n6nc(-c7ccc(Oc8ccc(F)cc8F)cc7)c(C(N)=O)c6N)C5)ncc4C)CC3)ccc2CC1C(=O)NC1CCCc2ccccc21)C(C)(C)C

> <Shape>
0.211

> <Color>
0.057

> <Negative vol penalty>
0.000

$$$$

  -OEChem-04052321513D

 89 98  0     1  0  0  0  0  0999 V2000
  -30.2244  -18.7770   18.6475 C   0  0  0  0  0  0  0  0  0  0  0  0
  -29.5216  -19.7961   18.0127 C   0  0  0  0  0  0  0  0  0  0  0  0
  -25.8795  -14.5236   21.0983 C   0  0  0  0  0  0  0  0  0  0  0  0
  -24.7039  -13.7366   19.1399 C   0  0  0  0  0  0  0  0  0  0  0  0
  -30.1291  -18.6223   20.0298 C   0  0  0  0  0  0  0  0  0  0  0  0
  -28.7222  -20.6604   18.7599 C   0  0  0  0  0  0  0  0  0  0  0  0
  -26.4741  -27.4605   18.9069 C   0  0  0  0  0  0  0  0  0  0  0  0
  -26.0033  -13.2104   21.5518 C   0  0  0  0  0  0  0  0  0  0  0  0
  -24.8277  -12.4233   19.5934 C   0  0  0  0  0  0  0  0  0  0  0  0
  -25.2978  -28.2045   18.9881 C   0  0  0  0  0  0  0  0  0  0  0  0
  -24.5174   -8.8955   20.4107 C   0  0  0  0  0  0  0  0  0  0  0  0
  -23.3916   -8.0753   20.3372 C   0  0  0  0  0  0  0  0  0  0  0  0
  -25.2718  -27.8911   21.3798 C   0  0  0  0  0  0  0  0  0  0  0  0
  -18.8699  -27.3687   23.3230 C   0  0  0  0  0  0  0  0  0  0  0  0
  -18.2711  -29.7075   23.2345 C   0  0  0  0  0  0  0  0  0  0  0  0
  -22.1906   -9.5943   21.7820 C   0  0  0  0  0  0  0  0  0  0  0  0
  -25.2297  -14.7867   19.8924 C   0  0  0  0  0  0  0  0  0  0  0  0
  -20.1150  -28.8818   21.9096 C   0  0  0  0  0  0  0  0  0  0  0  0
  -26.0004  -16.8471   18.6006 C   0  0  0  0  0  0  0  0  0  0  0  0
  -29.3358  -19.4912   20.7955 C   0  0  0  0  0  0  0  0  0  0  0  0
  -27.0531  -26.9161   20.0622 C   0  0  0  0  0  0  0  0  0  0  0  0
  -28.6152  -20.5164   20.1536 C   0  0  0  0  0  0  0  0  0  0  0  0
  -26.4568  -27.1427   21.3109 C   0  0  0  0  0  0  0  0  0  0  0  0
  -18.0558  -28.4235   23.7351 C   0  0  0  0  0  0  0  0  0  0  0  0
  -25.4774  -12.1602   20.7994 C   0  0  0  0  0  0  0  0  0  0  0  0
  -24.6949  -28.4175   20.2243 C   0  0  0  0  0  0  0  0  0  0  0  0
  -24.4799  -10.0650   21.1700 C   0  0  0  0  0  0  0  0  0  0  0  0
  -19.8996  -27.5978   22.4102 C   0  0  0  0  0  0  0  0  0  0  0  0
  -19.3007  -29.9367   22.3217 C   0  0  0  0  0  0  0  0  0  0  0  0
  -22.2282   -8.4247   21.0228 C   0  0  0  0  0  0  0  0  0  0  0  0
  -23.3165  -10.4144   21.8556 C   0  0  0  0  0  0  0  0  0  0  0  0
  -25.1010  -16.1432   19.4237 C   0  0  0  0  0  0  0  0  0  0  0  0
  -25.4270  -18.0856   18.4461 C   0  0  0  0  0  0  0  0  0  0  0  0
  -21.1927  -29.1214   20.9566 C   0  0  0  0  0  0  0  0  0  0  0  0
  -27.2430  -16.4197   18.0270 C   0  0  0  0  0  0  0  0  0  0  0  0
  -27.6911  -23.9725   21.0780 C   0  0  0  0  0  0  0  0  0  0  0  0
  -29.1476  -25.5472   23.5114 C   0  0  0  0  0  0  0  0  0  0  0  0
  -28.4577  -28.4289   25.5698 C   0  0  0  0  0  0  0  0  0  0  0  0
  -22.9478  -22.4710   20.2993 C   0  0  0  0  0  0  0  0  0  0  0  0
  -29.2267  -19.2553   22.2812 C   0  0  0  0  0  0  0  0  0  0  0  0
  -28.3366  -26.1385   19.9609 C   0  0  0  0  0  0  0  0  0  0  0  0
  -27.0495  -26.5971   22.5834 C   0  0  0  0  0  0  0  0  0  0  0  0
  -28.6535  -20.4453   23.0464 C   0  0  0  0  0  0  0  0  0  0  0  0
  -20.8143  -19.7625   19.6405 C   0  0  0  0  0  0  0  0  0  0  0  0
  -27.4146  -20.9873   22.3405 C   0  0  0  0  0  0  0  0  0  0  0  0
  -21.8173  -18.6238   19.4571 C   0  0  0  0  0  0  0  0  0  0  0  0
  -20.5619  -25.2880   19.9537 C   0  0  0  0  0  0  0  0  0  0  0  0
  -20.2089  -24.1798   22.2024 C   0  0  0  0  0  0  0  0  0  0  0  0
  -21.2086  -20.6943   20.7876 C   0  0  0  0  0  0  0  0  0  0  0  0
  -21.9733  -24.7042   19.9152 C   0  0  0  0  0  0  0  0  0  0  0  0
  -21.6287  -23.6249   22.1143 C   0  0  0  0  0  0  0  0  0  0  0  0
  -23.5888  -20.0868   20.5008 C   0  0  0  0  0  0  0  0  0  0  0  0
  -27.7571  -21.4895   20.9327 C   0  0  1  0  0  0  0  0  0  0  0  0
  -28.5596  -25.1971   21.1405 C   0  0  1  0  0  0  0  0  0  0  0  0
  -23.2505  -19.1670   19.3173 C   0  0  1  0  0  0  0  0  0  0  0  0
  -20.0317  -25.4560   21.3780 C   0  0  0  0  0  0  0  0  0  0  0  0
  -16.9555  -28.1790   24.7116 C   0  0  0  0  0  0  0  0  0  0  0  0
  -30.0162  -29.9906   26.7654 C   0  0  0  0  0  0  0  0  0  0  0  0
  -28.7004  -23.7014   25.8995 C   0  0  0  0  0  0  0  0  0  0  0  0
  -28.6977  -25.7246   27.3741 C   0  0  0  0  0  0  0  0  0  0  0  0
  -30.7378  -25.1425   26.0620 C   0  0  0  0  0  0  0  0  0  0  0  0
  -27.2884  -30.8000   24.2395 C   0  0  0  0  0  0  0  0  0  0  0  0
  -20.3824  -32.0390   22.5790 C   0  0  0  0  0  0  0  0  0  0  0  0
  -22.6416  -28.8216   21.3541 C   0  0  0  0  0  0  0  0  0  1  0  0
  -28.7133  -26.0652   24.8612 C   0  0  1  0  0  0  0  0  0  0  0  0
  -29.1674  -29.7700   25.5230 C   0  0  2  0  0  0  0  0  0  0  0  0
  -29.1940  -25.1563   26.0275 C   0  0  0  0  0  0  0  0  0  0  0  0
  -24.0372  -16.8737   19.7680 N   0  0  0  0  0  0  0  0  0  0  0  0
  -24.2645  -18.0497   19.1585 N   0  0  0  0  0  0  0  0  0  0  0  0
  -28.3018  -25.8379   22.4316 N   0  0  0  0  0  0  0  0  0  0  0  0
  -22.5950  -21.1543   20.6313 N   0  0  0  0  0  0  0  0  0  0  0  0
  -22.0748  -23.4880   20.7212 N   0  0  0  0  0  0  0  0  0  0  0  0
  -25.8089  -19.1909   17.7717 N   0  0  0  0  0  0  0  0  0  0  0  0
  -27.6851  -15.1153   18.2867 N   0  0  0  0  0  0  0  0  0  0  0  0
  -28.3958  -22.7864   21.0002 N   0  0  0  0  0  0  0  0  0  0  0  0
  -29.1883  -27.4423   24.9420 N   0  0  0  0  0  0  0  0  0  0  0  0
  -28.1753  -30.8781   25.4288 N   0  3  0  0  0  0  0  0  0  0  0  0
  -20.9527  -29.5673   19.8187 O   0  0  0  0  0  0  0  0  0  0  0  0
  -27.9486  -17.1776   17.3190 O   0  0  0  0  0  0  0  0  0  0  0  0
  -26.4720  -24.0946   21.1002 O   0  0  0  0  0  0  0  0  0  0  0  0
  -30.2022  -24.9142   23.4173 O   0  0  0  0  0  0  0  0  0  0  0  0
  -27.3663  -28.2714   26.1125 O   0  0  0  0  0  0  0  0  0  0  0  0
  -23.9775  -22.7250   19.6619 O   0  0  0  0  0  0  0  0  0  0  0  0
  -25.5982  -10.8786   21.2414 O   0  0  0  0  0  0  0  0  0  0  0  0
  -20.6879  -26.5478   22.0188 O   0  0  0  0  0  0  0  0  0  0  0  0
  -19.4937  -31.1991   21.8455 O   0  0  0  0  0  0  0  0  0  0  0  0
  -23.5358  -29.1494   20.3070 O   0  0  0  0  0  0  0  0  0  1  0  0
  -21.1466   -7.6378   20.9508 F   0  0  0  0  0  0  0  0  0  0  0  0
  -23.2741  -11.5374   22.5857 F   0  0  0  0  0  0  0  0  0  0  0  0
  1  2  1  0  0  0  0
  1  5  2  0  0  0  0
  2  6  2  0  0  0  0
  3  8  2  0  0  0  0
  3 17  1  0  0  0  0
  4  9  1  0  0  0  0
  4 17  2  0  0  0  0
  5 20  1  0  0  0  0
  6 22  1  0  0  0  0
  7 10  2  0  0  0  0
  7 21  1  0  0  0  0
  8 25  1  0  0  0  0
  9 25  2  0  0  0  0
 10 26  1  0  0  0  0
 11 12  2  0  0  0  0
 11 27  1  0  0  0  0
 12 30  1  0  0  0  0
 13 23  1  0  0  0  0
 13 26  2  0  0  0  0
 14 24  2  0  0  0  0
 14 28  1  0  0  0  0
 15 24  1  0  0  0  0
 15 29  2  0  0  0  0
 16 30  2  0  0  0  0
 16 31  1  0  0  0  0
 17 32  1  0  0  0  0
 18 28  2  0  0  0  0
 18 29  1  0  0  0  0
 18 34  1  0  0  0  0
 19 32  1  0  0  0  0
 19 33  2  0  0  0  0
 19 35  1  0  0  0  0
 20 22  2  0  0  0  0
 20 40  1  0  0  0  0
 21 23  2  0  0  0  0
 21 41  1  0  0  0  0
 22 53  1  0  0  0  0
 23 42  1  0  0  0  0
 24 57  1  0  0  0  0
 25 84  1  0  0  0  0
 26 87  1  0  0  0  0
 27 31  2  0  0  0  0
 27 84  1  0  0  0  0
 28 85  1  0  0  0  0
 29 86  1  0  0  0  0
 30 88  1  0  0  0  0
 31 89  1  0  0  0  0
 32 68  2  0  0  0  0
 33 69  1  0  0  0  0
 33 73  1  0  0  0  0
 34 64  1  0  0  0  0
 34 78  2  0  0  0  0
 35 74  1  0  0  0  0
 35 79  2  0  0  0  0
 36 54  1  0  0  0  0
 36 75  1  0  0  0  0
 36 80  2  0  0  0  0
 37 65  1  0  0  0  0
 37 70  1  0  0  0  0
 37 81  2  0  0  0  0
 38 66  1  0  0  0  0
 38 76  1  0  0  0  0
 38 82  2  0  0  0  0
 39 71  1  0  0  0  0
 39 72  1  0  0  0  0
 39 83  2  0  0  0  0
 40 43  1  0  0  0  0
 41 54  1  0  0  0  0
 42 70  1  0  0  0  0
 43 45  1  0  0  0  0
 44 46  1  0  0  0  0
 44 49  1  0  0  0  0
 45 53  1  0  0  0  0
 46 55  1  0  0  0  0
 47 50  1  0  0  0  0
 47 56  1  0  0  0  0
 48 51  1  0  0  0  0
 48 56  1  0  0  0  0
 49 71  1  0  0  0  0
 50 72  1  0  0  0  0
 51 72  1  0  0  0  0
 52 55  1  0  0  0  0
 52 71  1  0  0  0  0
 53 75  1  0  0  0  0
 54 70  1  0  0  0  0
 55 69  1  0  0  0  0
 56 85  1  0  0  0  0
 58 66  1  0  0  0  0
 59 67  1  0  0  0  0
 60 67  1  0  0  0  0
 61 67  1  0  0  0  0
 62 77  1  0  0  0  0
 63 86  1  0  0  0  0
 64 87  1  0  0  0  0
 65 67  1  0  0  0  0
 65 76  1  0  0  0  0
 66 77  1  0  0  0  0
 68 69  1  0  0  0  0
M  CHG  1  77   1
M  ISO  4  39 100  64 101  72 100  87 101
M  END
> <Batch ID>
0154

> <Smiles>
CNC(C)C(=O)NC(C(=O)N1Cc2cc([101O:1][101CH2:1]C(=O)c3c(OC)cc(C)cc3OC3CC[100N:0]([100C:0](=O)N4CCCC(n5nc(-c6ccc(Oc7ccc(F)cc7F)cc6)c(C(N)=O)c5N)C4)CC3)ccc2CC1C(=O)NC1CCCc2ccccc21)C(C)(C)C

> <Shape>
0.222

> <Color>
0.052

> <Negative vol penalty>
0.000

$$$$

  -OEChem-04052321513D

 83 92  0     1  0  0  0  0  0999 V2000
  -30.2421  -33.9023   27.3493 C   0  0  0  0  0  0  0  0  0  0  0  0
  -30.4229  -32.5236   27.3047 C   0  0  0  0  0  0  0  0  0  0  0  0
  -23.0799   -9.8594   19.9400 C   0  0  0  0  0  0  0  0  0  0  0  0
  -23.8368   -9.8719   22.2343 C   0  0  0  0  0  0  0  0  0  0  0  0
  -29.5271  -34.5434   26.3385 C   0  0  0  0  0  0  0  0  0  0  0  0
  -29.8877  -31.7851   26.2499 C   0  0  0  0  0  0  0  0  0  0  0  0
  -32.3156  -26.8069   23.6368 C   0  0  0  0  0  0  0  0  0  0  0  0
  -22.3387   -8.7047   20.1908 C   0  0  0  0  0  0  0  0  0  0  0  0
  -23.0956   -8.7172   22.4851 C   0  0  0  0  0  0  0  0  0  0  0  0
  -32.0711  -25.4448   23.8062 C   0  0  0  0  0  0  0  0  0  0  0  0
  -19.8688   -7.9119   23.0848 C   0  0  0  0  0  0  0  0  0  0  0  0
  -19.1104   -7.8719   24.2548 C   0  0  0  0  0  0  0  0  0  0  0  0
  -30.5739  -25.4844   21.9152 C   0  0  0  0  0  0  0  0  0  0  0  0
  -29.7346  -17.7239   22.7155 C   0  0  0  0  0  0  0  0  0  0  0  0
  -20.3559   -5.9388   24.9959 C   0  0  0  0  0  0  0  0  0  0  0  0
  -32.2167  -18.5548   21.9399 C   0  0  0  0  0  0  0  0  0  0  0  0
  -23.8290  -10.4429   20.9617 C   0  0  0  0  0  0  0  0  0  0  0  0
  -24.1644  -12.9688   20.8382 C   0  0  0  0  0  0  0  0  0  0  0  0
  -28.9912  -33.8137   25.2657 C   0  0  0  0  0  0  0  0  0  0  0  0
  -31.6816  -27.5215   22.6102 C   0  0  0  0  0  0  0  0  0  0  0  0
  -29.1637  -32.4169   25.2246 C   0  0  0  0  0  0  0  0  0  0  0  0
  -30.8140  -26.8549   21.7333 C   0  0  0  0  0  0  0  0  0  0  0  0
  -31.4880  -19.3945   22.7726 C   0  0  0  0  0  0  0  0  0  0  0  0
  -30.2097  -18.9632   23.1317 C   0  0  0  0  0  0  0  0  0  0  0  0
  -22.3465   -8.1336   21.4634 C   0  0  0  0  0  0  0  0  0  0  0  0
  -31.1979  -24.7839   22.9472 C   0  0  0  0  0  0  0  0  0  0  0  0
  -20.8707   -6.9654   22.8703 C   0  0  0  0  0  0  0  0  0  0  0  0
  -19.3540   -6.8853   25.2104 C   0  0  0  0  0  0  0  0  0  0  0  0
  -21.1143   -5.9789   23.8258 C   0  0  0  0  0  0  0  0  0  0  0  0
  -24.5953  -11.6354   20.7031 C   0  0  0  0  0  0  0  0  0  0  0  0
  -30.5565  -16.9633   21.9025 C   0  0  0  0  0  0  0  0  0  0  0  0
  -25.2551  -13.7205   20.4751 C   0  0  0  0  0  0  0  0  0  0  0  0
  -22.8921  -13.4820   21.2547 C   0  0  0  0  0  0  0  0  0  0  0  0
  -29.6570  -29.9695   22.5006 C   0  0  0  0  0  0  0  0  0  0  0  0
  -30.1559  -29.7349   19.3040 C   0  0  0  0  0  0  0  0  0  0  0  0
  -31.0714  -27.7955   16.6493 C   0  0  0  0  0  0  0  0  0  0  0  0
  -30.7183  -14.7806   20.6550 C   0  0  0  0  0  0  0  0  0  0  0  0
  -28.1853  -34.5446   24.2212 C   0  0  0  0  0  0  0  0  0  0  0  0
  -31.9765  -28.9846   22.4243 C   0  0  0  0  0  0  0  0  0  0  0  0
  -30.1238  -27.5722   20.6029 C   0  0  0  0  0  0  0  0  0  0  0  0
  -27.9711  -33.7383   22.9428 C   0  0  0  0  0  0  0  0  0  0  0  0
  -29.6132  -12.3602   18.2892 C   0  0  0  0  0  0  0  0  0  0  0  0
  -27.5393  -32.3138   23.2762 C   0  0  0  0  0  0  0  0  0  0  0  0
  -28.1738  -12.0655   18.7174 C   0  0  0  0  0  0  0  0  0  0  0  0
  -30.5262  -12.5933   19.4916 C   0  0  0  0  0  0  0  0  0  0  0  0
  -28.6156  -13.3149   20.8693 C   0  0  0  0  0  0  0  0  0  0  0  0
  -28.6197  -31.5845   24.0838 C   0  0  1  0  0  0  0  0  0  0  0  0
  -30.8799  -29.7232   21.6631 C   0  0  1  0  0  0  0  0  0  0  0  0
  -27.6447  -13.1373   19.6905 C   0  0  2  0  0  0  0  0  0  0  0  0
  -31.2202  -21.3306   24.2069 C   0  0  2  0  0  0  0  0  0  0  0  0
  -29.7184  -21.1191   23.9288 C   0  0  2  0  0  0  0  0  0  0  0  0
  -28.8286  -21.7681   24.9860 C   0  0  0  0  0  0  0  0  0  0  0  0
  -31.3450  -27.8713   14.1559 C   0  0  0  0  0  0  0  0  0  0  0  0
  -27.1272  -29.5777   18.9694 C   0  0  0  0  0  0  0  0  0  0  0  0
  -27.4983  -28.7157   16.6483 C   0  0  0  0  0  0  0  0  0  0  0  0
  -28.2921  -30.9970   17.2714 C   0  0  0  0  0  0  0  0  0  0  0  0
  -33.9614  -27.1842   16.8315 C   0  0  0  0  0  0  0  0  0  0  0  0
  -31.6329  -22.7992   24.1832 C   0  0  0  0  0  0  0  0  0  1  0  0
  -29.5077  -28.9722   18.1740 C   0  0  1  0  0  0  0  0  0  0  0  0
  -32.0319  -28.0480   15.5012 C   0  0  2  0  0  0  0  0  0  0  0  0
  -28.1177  -29.5522   17.7881 C   0  0  0  0  0  0  0  0  0  0  0  0
  -31.7856  -17.3503   21.4968 N   0  0  0  0  0  0  0  0  0  0  0  0
  -25.8610  -11.5422   20.2865 N   0  0  0  0  0  0  0  0  0  0  0  0
  -26.2347  -12.8266   20.1567 N   0  0  0  0  0  0  0  0  0  0  0  0
  -31.9803  -20.6149   23.1938 N   0  0  0  0  0  0  0  0  0  0  0  0
  -30.4398  -29.0036   20.4661 N   0  0  0  0  0  0  0  0  0  0  0  0
  -29.9634  -13.6240   20.3667 N   0  0  0  0  0  0  0  0  0  0  0  0
  -25.4621  -15.0524   20.4002 N   0  0  0  0  0  0  0  0  0  0  0  0
  -21.8821  -12.5707   21.5921 N   0  0  0  0  0  0  0  0  0  0  0  0
  -30.0675  -15.7053   21.4712 N   0  0  0  0  0  0  0  0  0  0  0  0
  -29.6936  -31.1514   23.2157 N   0  0  0  0  0  0  0  0  0  0  0  0
  -30.4746  -28.9609   17.0816 N   0  0  0  0  0  0  0  0  0  0  0  0
  -33.1813  -27.1019   15.5698 N   0  3  0  0  0  0  0  0  0  0  0  0
  -22.6526  -14.7120   21.3098 O   0  0  0  0  0  0  0  0  0  0  0  0
  -28.7470  -29.1488   22.4972 O   0  0  0  0  0  0  0  0  0  0  0  0
  -30.4078  -30.9336   19.1583 O   0  0  0  0  0  0  0  0  0  0  0  0
  -30.8679  -26.6759   17.1136 O   0  0  0  0  0  0  0  0  0  0  0  0
  -31.8476  -14.9515   20.1886 O   0  0  0  0  0  0  0  0  0  0  0  0
  -29.3858  -19.7162   23.9300 O   0  0  0  0  0  0  0  0  0  0  0  0
  -21.6232   -7.0070   21.7085 O   0  0  0  0  0  0  0  0  0  0  0  0
  -30.9570  -23.4546   23.1108 O   0  0  0  0  0  0  0  0  0  1  0  0
  -18.6268   -6.8479   26.3346 F   0  0  0  0  0  0  0  0  0  0  0  0
  -22.0762   -5.0676   23.6258 F   0  0  0  0  0  0  0  0  0  0  0  0
  1  2  1  0  0  0  0
  1  5  2  0  0  0  0
  2  6  2  0  0  0  0
  3  8  2  0  0  0  0
  3 17  1  0  0  0  0
  4  9  1  0  0  0  0
  4 17  2  0  0  0  0
  5 19  1  0  0  0  0
  6 21  1  0  0  0  0
  7 10  2  0  0  0  0
  7 20  1  0  0  0  0
  8 25  1  0  0  0  0
  9 25  2  0  0  0  0
 10 26  1  0  0  0  0
 11 12  2  0  0  0  0
 11 27  1  0  0  0  0
 12 28  1  0  0  0  0
 13 22  1  0  0  0  0
 13 26  2  0  0  0  0
 14 24  1  0  0  0  0
 14 31  2  0  0  0  0
 15 28  2  0  0  0  0
 15 29  1  0  0  0  0
 16 23  1  0  0  0  0
 16 62  2  0  0  0  0
 17 30  1  0  0  0  0
 18 30  1  0  0  0  0
 18 32  2  0  0  0  0
 18 33  1  0  0  0  0
 19 21  2  0  0  0  0
 19 38  1  0  0  0  0
 20 22  2  0  0  0  0
 20 39  1  0  0  0  0
 21 47  1  0  0  0  0
 22 40  1  0  0  0  0
 23 24  2  0  0  0  0
 23 65  1  0  0  0  0
 24 79  1  0  0  0  0
 25 80  1  0  0  0  0
 26 81  1  0  0  0  0
 27 29  2  0  0  0  0
 27 80  1  0  0  0  0
 28 82  1  0  0  0  0
 29 83  1  0  0  0  0
 30 63  2  0  0  0  0
 31 62  1  0  0  0  0
 31 70  1  0  0  0  0
 32 64  1  0  0  0  0
 32 68  1  0  0  0  0
 33 69  1  0  0  0  0
 33 74  2  0  0  0  0
 34 48  1  0  0  0  0
 34 71  1  0  0  0  0
 34 75  2  0  0  0  0
 35 59  1  0  0  0  0
 35 66  1  0  0  0  0
 35 76  2  0  0  0  0
 36 60  1  0  0  0  0
 36 72  1  0  0  0  0
 36 77  2  0  0  0  0
 37 67  1  0  0  0  0
 37 70  1  0  0  0  0
 37 78  2  0  0  0  0
 38 41  1  0  0  0  0
 39 48  1  0  0  0  0
 40 66  1  0  0  0  0
 41 43  1  0  0  0  0
 42 44  1  0  0  0  0
 42 45  1  0  0  0  0
 43 47  1  0  0  0  0
 44 49  1  0  0  0  0
 45 67  1  0  0  0  0
 46 49  1  0  0  0  0
 46 67  1  0  0  0  0
 47 71  1  0  0  0  0
 48 66  1  0  0  0  0
 49 64  1  0  0  0  0
 50 51  1  0  0  0  0
 50 58  1  0  0  0  0
 50 65  1  0  0  0  0
 51 52  1  0  0  0  0
 51 79  1  0  0  0  0
 53 60  1  0  0  0  0
 54 61  1  0  0  0  0
 55 61  1  0  0  0  0
 56 61  1  0  0  0  0
 57 73  1  0  0  0  0
 58 81  1  0  0  0  0
 59 61  1  0  0  0  0
 59 72  1  0  0  0  0
 60 73  1  0  0  0  0
 63 64  1  0  0  0  0
M  CHG  1  73   1
M  ISO  4  37 100  58 101  70 100  81 101
M  END
> <Batch ID>
0154

> <Smiles>
CNC(C)C(=O)NC(C(=O)N1Cc2cc([101O:1][101CH2:1]C3Nc4cnc([100NH:0][100C:0](=O)N5CCCC(n6nc(-c7ccc(Oc8ccc(F)cc8F)cc7)c(C(N)=O)c6N)C5)cc4OC3C)ccc2CC1C(=O)NC1CCCc2ccccc21)C(C)(C)C

> <Shape>
0.218

> <Color>
0.184

> <Negative vol penalty>
0.000

$$$$

  -OEChem-04052321513D

 85 94  0     1  0  0  0  0  0999 V2000
  -26.6482  -33.7611   16.7506 C   0  0  0  0  0  0  0  0  0  0  0  0
  -27.1001  -32.4522   16.6157 C   0  0  0  0  0  0  0  0  0  0  0  0
  -22.9432  -10.3416   20.3779 C   0  0  0  0  0  0  0  0  0  0  0  0
  -24.2931   -9.3444   22.1158 C   0  0  0  0  0  0  0  0  0  0  0  0
  -26.3464  -34.2663   18.0145 C   0  0  0  0  0  0  0  0  0  0  0  0
  -27.2514  -31.6482   17.7449 C   0  0  0  0  0  0  0  0  0  0  0  0
  -26.2942  -25.6110   18.1206 C   0  0  0  0  0  0  0  0  0  0  0  0
  -22.1272   -9.2105   20.3626 C   0  0  0  0  0  0  0  0  0  0  0  0
  -23.4771   -8.2133   22.1006 C   0  0  0  0  0  0  0  0  0  0  0  0
  -27.1603  -24.5193   18.0756 C   0  0  0  0  0  0  0  0  0  0  0  0
  -20.4541   -7.3084   23.3100 C   0  0  0  0  0  0  0  0  0  0  0  0
  -20.0496   -6.7863   24.5386 C   0  0  0  0  0  0  0  0  0  0  0  0
  -27.2213  -24.4760   20.4868 C   0  0  0  0  0  0  0  0  0  0  0  0
  -32.3065  -17.8193   21.2714 C   0  0  0  0  0  0  0  0  0  0  0  0
  -30.4998  -17.6840   22.8697 C   0  0  0  0  0  0  0  0  0  0  0  0
  -21.1303   -4.6925   24.0046 C   0  0  0  0  0  0  0  0  0  0  0  0
  -24.0262  -10.4086   21.2544 C   0  0  0  0  0  0  0  0  0  0  0  0
  -24.7081  -12.7315   22.0588 C   0  0  0  0  0  0  0  0  0  0  0  0
  -26.4850  -33.4650   19.1588 C   0  0  0  0  0  0  0  0  0  0  0  0
  -25.8931  -26.1511   19.3510 C   0  0  0  0  0  0  0  0  0  0  0  0
  -26.9525  -32.1437   19.0254 C   0  0  0  0  0  0  0  0  0  0  0  0
  -26.3480  -25.5729   20.5447 C   0  0  0  0  0  0  0  0  0  0  0  0
  -30.9194  -19.7520   21.6931 C   0  0  0  0  0  0  0  0  0  0  0  0
  -31.5645  -17.0849   22.1964 C   0  0  0  0  0  0  0  0  0  0  0  0
  -31.9840  -19.1529   21.0198 C   0  0  0  0  0  0  0  0  0  0  0  0
  -22.3941   -8.1463   21.2240 C   0  0  0  0  0  0  0  0  0  0  0  0
  -27.6262  -23.9535   19.2587 C   0  0  0  0  0  0  0  0  0  0  0  0
  -21.1965   -6.5225   22.4286 C   0  0  0  0  0  0  0  0  0  0  0  0
  -30.1773  -19.0175   22.6181 C   0  0  0  0  0  0  0  0  0  0  0  0
  -20.3878   -5.4784   24.8860 C   0  0  0  0  0  0  0  0  0  0  0  0
  -21.5347   -5.2145   22.7760 C   0  0  0  0  0  0  0  0  0  0  0  0
  -24.8698  -11.5766   21.2702 C   0  0  0  0  0  0  0  0  0  0  0  0
  -25.7613  -13.5390   21.7052 C   0  0  0  0  0  0  0  0  0  0  0  0
  -23.6963  -13.0461   23.0247 C   0  0  0  0  0  0  0  0  0  0  0  0
  -26.2237  -28.9727   20.7767 C   0  0  0  0  0  0  0  0  0  0  0  0
  -24.2663  -27.6435   22.9957 C   0  0  0  0  0  0  0  0  0  0  0  0
  -23.0452  -24.8117   24.4575 C   0  0  0  0  0  0  0  0  0  0  0  0
  -31.1763  -14.2517   20.5582 C   0  0  0  0  0  0  0  0  0  0  0  0
  -26.1916  -34.0703   20.5087 C   0  0  0  0  0  0  0  0  0  0  0  0
  -24.9372  -27.3120   19.3828 C   0  0  0  0  0  0  0  0  0  0  0  0
  -25.9312  -26.1026   21.8916 C   0  0  0  0  0  0  0  0  0  0  0  0
  -26.0216  -33.0342   21.6168 C   0  0  0  0  0  0  0  0  0  0  0  0
  -29.0748  -13.1518   17.9029 C   0  0  0  0  0  0  0  0  0  0  0  0
  -27.1379  -31.9965   21.5532 C   0  0  0  0  0  0  0  0  0  0  0  0
  -27.7833  -12.7336   18.6078 C   0  0  0  0  0  0  0  0  0  0  0  0
  -30.6387  -21.8052   19.9542 C   0  0  0  0  0  0  0  0  0  0  0  0
  -29.0505  -21.6796   21.3607 C   0  0  0  0  0  0  0  0  0  0  0  0
  -30.3082  -12.8137   18.7375 C   0  0  0  0  0  0  0  0  0  0  0  0
  -28.9951  -12.9211   20.8203 C   0  0  0  0  0  0  0  0  0  0  0  0
  -30.5495  -21.2661   21.4108 C   0  0  0  0  0  0  0  0  0  0  0  0
  -27.1059  -31.2326   20.2240 C   0  0  1  0  0  0  0  0  0  0  0  0
  -25.0015  -28.1034   20.6855 C   0  0  1  0  0  0  0  0  0  0  0  0
  -27.7211  -13.2923   20.0422 C   0  0  2  0  0  0  0  0  0  0  0  0
  -29.4290  -22.7105   20.2750 C   0  0  0  0  0  0  0  0  0  1  0  0
  -32.7915  -19.9201   20.0252 C   0  0  0  0  0  0  0  0  0  0  0  0
  -21.4883  -24.0446   26.2699 C   0  0  0  0  0  0  0  0  0  0  0  0
  -26.3498  -28.3874   25.0970 C   0  0  0  0  0  0  0  0  0  0  0  0
  -25.2263  -26.7989   26.6727 C   0  0  0  0  0  0  0  0  0  0  0  0
  -23.9797  -28.7736   25.7955 C   0  0  0  0  0  0  0  0  0  0  0  0
  -21.3190  -23.3779   22.5279 C   0  0  0  0  0  0  0  0  0  0  0  0
  -28.4304  -18.7653   24.2120 C   0  0  0  0  0  0  0  0  0  0  0  0
  -31.9095  -15.6594   22.4661 C   0  0  0  0  0  0  0  0  0  0  0  0
  -24.4702  -26.8320   24.2523 C   0  0  1  0  0  0  0  0  0  0  0  0
  -21.6285  -24.3822   24.7938 C   0  0  2  0  0  0  0  0  0  0  0  0
  -25.0161  -27.6890   25.4291 C   0  0  0  0  0  0  0  0  0  0  0  0
  -25.9414  -11.6408   20.4754 N   0  0  0  0  0  0  0  0  0  0  0  0
  -26.4624  -12.8458   20.7627 N   0  0  0  0  0  0  0  0  0  0  0  0
  -25.0002  -27.2429   21.8703 N   0  0  0  0  0  0  0  0  0  0  0  0
  -30.1869  -13.3738   20.0856 N   0  0  0  0  0  0  0  0  0  0  0  0
  -26.1468  -14.7673   22.1115 N   0  0  0  0  0  0  0  0  0  0  0  0
  -22.6874  -12.1038   23.2666 N   0  0  0  0  0  0  0  0  0  0  0  0
  -26.0576  -30.2350   20.2395 N   0  0  0  0  0  0  0  0  0  0  0  0
  -23.1945  -26.1806   24.5290 N   0  0  0  0  0  0  0  0  0  0  0  0
  -30.9814  -14.7417   21.8438 N   0  0  0  0  0  0  0  0  0  0  0  0
  -21.2491  -23.1803   23.9986 N   0  3  0  0  0  0  0  0  0  0  0  0
  -23.6778  -14.1376   23.6426 O   0  0  0  0  0  0  0  0  0  0  0  0
  -27.2415  -28.5315   21.2974 O   0  0  0  0  0  0  0  0  0  0  0  0
  -23.4793  -28.5932   23.0102 O   0  0  0  0  0  0  0  0  0  0  0  0
  -23.9317  -24.0125   24.1645 O   0  0  0  0  0  0  0  0  0  0  0  0
  -32.1577  -14.5790   19.8825 O   0  0  0  0  0  0  0  0  0  0  0  0
  -21.5980   -7.0425   21.2096 O   0  0  0  0  0  0  0  0  0  0  0  0
  -28.4722  -22.8884   19.2176 O   0  0  0  0  0  0  0  0  0  1  0  0
  -29.1350  -19.5881   23.2842 O   0  0  0  0  0  0  0  0  0  0  0  0
  -20.0007   -4.9777   26.0665 F   0  0  0  0  0  0  0  0  0  0  0  0
  -22.2488   -4.4551   21.9339 F   0  0  0  0  0  0  0  0  0  0  0  0
  1  2  1  0  0  0  0
  1  5  2  0  0  0  0
  2  6  2  0  0  0  0
  3  8  2  0  0  0  0
  3 17  1  0  0  0  0
  4  9  1  0  0  0  0
  4 17  2  0  0  0  0
  5 19  1  0  0  0  0
  6 21  1  0  0  0  0
  7 10  2  0  0  0  0
  7 20  1  0  0  0  0
  8 26  1  0  0  0  0
  9 26  2  0  0  0  0
 10 27  1  0  0  0  0
 11 12  2  0  0  0  0
 11 28  1  0  0  0  0
 12 30  1  0  0  0  0
 13 22  1  0  0  0  0
 13 27  2  0  0  0  0
 14 24  1  0  0  0  0
 14 25  2  0  0  0  0
 15 24  2  0  0  0  0
 15 29  1  0  0  0  0
 16 30  2  0  0  0  0
 16 31  1  0  0  0  0
 17 32  1  0  0  0  0
 18 32  1  0  0  0  0
 18 33  2  0  0  0  0
 18 34  1  0  0  0  0
 19 21  2  0  0  0  0
 19 39  1  0  0  0  0
 20 22  2  0  0  0  0
 20 40  1  0  0  0  0
 21 51  1  0  0  0  0
 22 41  1  0  0  0  0
 23 25  1  0  0  0  0
 23 29  2  0  0  0  0
 23 50  1  0  0  0  0
 24 62  1  0  0  0  0
 25 55  1  0  0  0  0
 26 81  1  0  0  0  0
 27 82  1  0  0  0  0
 28 31  2  0  0  0  0
 28 81  1  0  0  0  0
 29 83  1  0  0  0  0
 30 84  1  0  0  0  0
 31 85  1  0  0  0  0
 32 66  2  0  0  0  0
 33 67  1  0  0  0  0
 33 70  1  0  0  0  0
 34 71  1  0  0  0  0
 34 76  2  0  0  0  0
 35 52  1  0  0  0  0
 35 72  1  0  0  0  0
 35 77  2  0  0  0  0
 36 63  1  0  0  0  0
 36 68  1  0  0  0  0
 36 78  2  0  0  0  0
 37 64  1  0  0  0  0
 37 73  1  0  0  0  0
 37 79  2  0  0  0  0
 38 69  1  0  0  0  0
 38 74  1  0  0  0  0
 38 80  2  0  0  0  0
 39 42  1  0  0  0  0
 40 52  1  0  0  0  0
 41 68  1  0  0  0  0
 42 44  1  0  0  0  0
 43 45  1  0  0  0  0
 43 48  1  0  0  0  0
 44 51  1  0  0  0  0
 45 53  1  0  0  0  0
 46 50  1  0  0  0  0
 46 54  1  0  0  0  0
 47 50  1  0  0  0  0
 47 54  1  0  0  0  0
 48 69  1  0  0  0  0
 49 53  1  0  0  0  0
 49 69  1  0  0  0  0
 51 72  1  0  0  0  0
 52 68  1  0  0  0  0
 53 67  1  0  0  0  0
 54 82  1  0  0  0  0
 56 64  1  0  0  0  0
 57 65  1  0  0  0  0
 58 65  1  0  0  0  0
 59 65  1  0  0  0  0
 60 75  1  0  0  0  0
 61 83  1  0  0  0  0
 62 74  1  0  0  0  0
 63 65  1  0  0  0  0
 63 73  1  0  0  0  0
 64 75  1  0  0  0  0
 66 67  1  0  0  0  0
M  CHG  1  75   1
M  ISO  4  38 100  54 101  74 100  82 101
M  END
> <Batch ID>
0154

> <Smiles>
CNC(C)C(=O)NC(C(=O)N1Cc2cc([101O:1][101CH:1]3CC(c4c(C)cc(C[100NH:0][100C:0](=O)N5CCCC(n6nc(-c7ccc(Oc8ccc(F)cc8F)cc7)c(C(N)=O)c6N)C5)cc4OC)C3)ccc2CC1C(=O)NC1CCCc2ccccc21)C(C)(C)C

> <Shape>
0.254

> <Color>
0.149

> <Negative vol penalty>
0.000

$$$$

  -OEChem-04052321513D

 89 98  0     1  0  0  0  0  0999 V2000
  -27.3891  -12.6236   17.1771 C   0  0  0  0  0  0  0  0  0  0  0  0
  -26.6605  -13.7878   16.9553 C   0  0  0  0  0  0  0  0  0  0  0  0
  -30.2991  -24.4965   19.1509 C   0  0  0  0  0  0  0  0  0  0  0  0
  -28.2991  -23.4304   19.9878 C   0  0  0  0  0  0  0  0  0  0  0  0
  -27.2169  -11.9101   18.3625 C   0  0  0  0  0  0  0  0  0  0  0  0
  -25.7583  -14.2385   17.9183 C   0  0  0  0  0  0  0  0  0  0  0  0
  -23.0488  -20.2894   20.6316 C   0  0  0  0  0  0  0  0  0  0  0  0
  -31.0265  -23.3347   19.4093 C   0  0  0  0  0  0  0  0  0  0  0  0
  -29.0265  -22.2686   20.2462 C   0  0  0  0  0  0  0  0  0  0  0  0
  -21.8219  -20.8912   20.9078 C   0  0  0  0  0  0  0  0  0  0  0  0
  -30.2298  -19.6432   18.4914 C   0  0  0  0  0  0  0  0  0  0  0  0
  -29.6632  -18.4272   18.1094 C   0  0  0  0  0  0  0  0  0  0  0  0
  -21.6652  -19.6200   22.9520 C   0  0  0  0  0  0  0  0  0  0  0  0
  -18.9104  -28.4273   21.9207 C   0  0  0  0  0  0  0  0  0  0  0  0
  -29.7124  -17.6825   20.4073 C   0  0  0  0  0  0  0  0  0  0  0  0
  -28.9354  -24.5444   19.4402 C   0  0  0  0  0  0  0  0  0  0  0  0
  -27.5079  -26.0780   17.9849 C   0  0  0  0  0  0  0  0  0  0  0  0
  -26.3193  -12.3575   19.3447 C   0  0  0  0  0  0  0  0  0  0  0  0
  -23.5888  -19.3386   21.5096 C   0  0  0  0  0  0  0  0  0  0  0  0
  -25.5730  -13.5296   19.1173 C   0  0  0  0  0  0  0  0  0  0  0  0
  -22.9003  -19.0094   22.6859 C   0  0  0  0  0  0  0  0  0  0  0  0
  -20.4034  -26.3896   23.1346 C   0  0  0  0  0  0  0  0  0  0  0  0
  -19.0617  -26.1630   22.7814 C   0  0  0  0  0  0  0  0  0  0  0  0
  -18.3197  -27.1923   22.1860 C   0  0  0  0  0  0  0  0  0  0  0  0
  -20.9901  -27.6314   22.8525 C   0  0  0  0  0  0  0  0  0  0  0  0
  -30.3902  -22.2208   19.9569 C   0  0  0  0  0  0  0  0  0  0  0  0
  -21.1285  -20.5545   22.0666 C   0  0  0  0  0  0  0  0  0  0  0  0
  -30.5378  -19.8788   19.8313 C   0  0  0  0  0  0  0  0  0  0  0  0
  -20.2453  -28.6459   22.2515 C   0  0  0  0  0  0  0  0  0  0  0  0
  -29.4045  -17.4469   19.0673 C   0  0  0  0  0  0  0  0  0  0  0  0
  -30.2791  -18.8985   20.7892 C   0  0  0  0  0  0  0  0  0  0  0  0
  -28.1836  -25.7444   19.1740 C   0  0  0  0  0  0  0  0  0  0  0  0
  -26.9560  -27.3100   18.2377 C   0  0  0  0  0  0  0  0  0  0  0  0
  -27.3896  -25.3401   16.7612 C   0  0  0  0  0  0  0  0  0  0  0  0
  -24.3594  -16.2628   21.2875 C   0  0  0  0  0  0  0  0  0  0  0  0
  -25.5479  -16.7467   24.2667 C   0  0  0  0  0  0  0  0  0  0  0  0
  -25.4896  -18.5756   27.1474 C   0  0  0  0  0  0  0  0  0  0  0  0
  -24.1928  -30.8089   21.5945 C   0  0  0  0  0  0  0  0  0  0  0  0
  -26.1322  -11.5270   20.5897 C   0  0  0  0  0  0  0  0  0  0  0  0
  -24.9260  -18.7182   21.2106 C   0  0  0  0  0  0  0  0  0  0  0  0
  -21.2369  -25.2952   23.7512 C   0  0  0  0  0  0  0  0  0  0  0  0
  -23.4466  -18.0097   23.6711 C   0  0  0  0  0  0  0  0  0  0  0  0
  -18.3951  -24.8488   23.0837 C   0  0  0  0  0  0  0  0  0  0  0  0
  -25.4321  -12.2749   21.7213 C   0  0  0  0  0  0  0  0  0  0  0  0
  -27.7118  -30.5343   22.0612 C   0  0  0  0  0  0  0  0  0  0  0  0
  -24.2066  -13.0147   21.1943 C   0  0  0  0  0  0  0  0  0  0  0  0
  -28.0910  -29.2882   21.2590 C   0  0  0  0  0  0  0  0  0  0  0  0
  -26.3498  -30.3793   22.7343 C   0  0  0  0  0  0  0  0  0  0  0  0
  -25.6290  -28.7573   21.0246 C   0  0  0  0  0  0  0  0  0  0  0  0
  -20.4034  -24.1995   24.4068 C   0  0  0  0  0  0  0  0  0  0  0  0
  -24.6030  -14.0640   20.1487 C   0  0  1  0  0  0  0  0  0  0  0  0
  -25.1369  -17.3832   21.9182 C   0  0  1  0  0  0  0  0  0  0  0  0
  -26.9696  -28.8878   20.2816 C   0  0  2  0  0  0  0  0  0  0  0  0
  -16.8810  -27.0065   21.8230 C   0  0  0  0  0  0  0  0  0  0  0  0
  -22.4285  -27.8930   23.1771 C   0  0  0  0  0  0  0  0  0  0  0  0
  -26.5488  -18.7079   29.4186 C   0  0  0  0  0  0  0  0  0  0  0  0
  -18.2474  -22.6983   25.3413 C   0  0  0  0  0  0  0  0  0  0  0  0
  -23.8612  -14.3771   25.1888 C   0  0  0  0  0  0  0  0  0  0  0  0
  -24.2043  -15.1404   27.5484 C   0  0  0  0  0  0  0  0  0  0  0  0
  -26.1634  -14.4603   26.1620 C   0  0  0  0  0  0  0  0  0  0  0  0
  -26.5683  -21.2796   26.6146 C   0  0  0  0  0  0  0  0  0  0  0  0
  -22.0631  -31.1107   20.3566 C   0  0  0  0  0  0  0  0  0  0  0  0
  -20.8271  -30.2666   20.6112 C   0  0  0  0  0  0  0  0  0  0  0  0
  -19.5841  -21.3030   23.7130 C   0  0  0  0  0  0  0  0  0  1  0  0
  -24.9945  -16.6470   25.6677 C   0  0  1  0  0  0  0  0  0  0  0  0
  -26.6058  -19.1858   27.9759 C   0  0  2  0  0  0  0  0  0  0  0  0
  -18.6495  -22.4944   23.8896 C   0  0  2  0  0  0  0  0  0  0  0  0
  -24.7943  -15.1736   26.1224 C   0  0  0  0  0  0  0  0  0  0  0  0
  -28.0725  -26.6883   20.1124 N   0  0  0  0  0  0  0  0  0  0  0  0
  -27.3207  -27.6273   19.5130 N   0  0  0  0  0  0  0  0  0  0  0  0
  -24.7546  -17.4258   23.3311 N   0  0  0  0  0  0  0  0  0  0  0  0
  -25.3306  -30.0006   21.7526 N   0  0  0  0  0  0  0  0  0  0  0  0
  -26.1992  -28.1422   17.4912 N   0  0  0  0  0  0  0  0  0  0  0  0
  -28.0186  -24.0909   16.6709 N   0  0  0  0  0  0  0  0  0  0  0  0
  -25.1465  -15.2400   20.7937 N   0  0  0  0  0  0  0  0  0  0  0  0
  -25.8951  -17.4177   26.5182 N   0  0  0  0  0  0  0  0  0  0  0  0
  -23.2794  -30.3815   20.6386 N   0  0  0  0  0  0  0  0  0  0  0  0
  -19.3613  -23.7320   23.4225 N   0  3  1  0  0  0  0  0  0  0  0  0
  -26.5027  -20.6725   27.9689 N   0  3  0  0  0  0  0  0  0  0  0  0
  -26.7591  -25.7830   15.7714 O   0  0  0  0  0  0  0  0  0  0  0  0
  -23.1359  -16.3212   21.2529 O   0  0  0  0  0  0  0  0  0  0  0  0
  -26.6468  -16.2469   24.0136 O   0  0  0  0  0  0  0  0  0  0  0  0
  -24.3690  -19.0742   27.0695 O   0  0  0  0  0  0  0  0  0  0  0  0
  -24.0074  -31.8383   22.2524 O   0  0  0  0  0  0  0  0  0  0  0  0
  -31.0996  -21.0869   20.2090 O   0  0  0  0  0  0  0  0  0  0  0  0
  -19.9305  -21.1400   22.3383 O   0  0  0  0  0  0  0  0  0  1  0  0
  -20.8062  -29.8572   21.9770 O   0  0  0  0  0  0  0  0  0  0  0  0
  -28.8589  -16.2798   18.7006 F   0  0  0  0  0  0  0  0  0  0  0  0
  -30.5717  -19.1196   22.0781 F   0  0  0  0  0  0  0  0  0  0  0  0
  1  2  1  0  0  0  0
  1  5  2  0  0  0  0
  2  6  2  0  0  0  0
  3  8  2  0  0  0  0
  3 16  1  0  0  0  0
  4  9  1  0  0  0  0
  4 16  2  0  0  0  0
  5 18  1  0  0  0  0
  6 20  1  0  0  0  0
  7 10  2  0  0  0  0
  7 19  1  0  0  0  0
  8 26  1  0  0  0  0
  9 26  2  0  0  0  0
 10 27  1  0  0  0  0
 11 12  2  0  0  0  0
 11 28  1  0  0  0  0
 12 30  1  0  0  0  0
 13 21  1  0  0  0  0
 13 27  2  0  0  0  0
 14 24  2  0  0  0  0
 14 29  1  0  0  0  0
 15 30  2  0  0  0  0
 15 31  1  0  0  0  0
 16 32  1  0  0  0  0
 17 32  1  0  0  0  0
 17 33  2  0  0  0  0
 17 34  1  0  0  0  0
 18 20  2  0  0  0  0
 18 39  1  0  0  0  0
 19 21  2  0  0  0  0
 19 40  1  0  0  0  0
 20 51  1  0  0  0  0
 21 42  1  0  0  0  0
 22 23  2  0  0  0  0
 22 25  1  0  0  0  0
 22 41  1  0  0  0  0
 23 24  1  0  0  0  0
 23 43  1  0  0  0  0
 24 54  1  0  0  0  0
 25 29  2  0  0  0  0
 25 55  1  0  0  0  0
 26 85  1  0  0  0  0
 27 86  1  0  0  0  0
 28 31  2  0  0  0  0
 28 85  1  0  0  0  0
 29 87  1  0  0  0  0
 30 88  1  0  0  0  0
 31 89  1  0  0  0  0
 32 69  2  0  0  0  0
 33 70  1  0  0  0  0
 33 73  1  0  0  0  0
 34 74  1  0  0  0  0
 34 80  2  0  0  0  0
 35 52  1  0  0  0  0
 35 75  1  0  0  0  0
 35 81  2  0  0  0  0
 36 65  1  0  0  0  0
 36 71  1  0  0  0  0
 36 82  2  0  0  0  0
 37 66  1  0  0  0  0
 37 76  1  0  0  0  0
 37 83  2  0  0  0  0
 38 72  1  0  0  0  0
 38 77  1  0  0  0  0
 38 84  2  0  0  0  0
 39 44  1  0  0  0  0
 40 52  1  0  0  0  0
 41 50  1  0  0  0  0
 42 71  1  0  0  0  0
 43 78  1  0  0  0  0
 44 46  1  0  0  0  0
 45 47  1  0  0  0  0
 45 48  1  0  0  0  0
 46 51  1  0  0  0  0
 47 53  1  0  0  0  0
 48 72  1  0  0  0  0
 49 53  1  0  0  0  0
 49 72  1  0  0  0  0
 50 78  1  0  0  0  0
 51 75  1  0  0  0  0
 52 71  1  0  0  0  0
 53 70  1  0  0  0  0
 56 66  1  0  0  0  0
 57 67  1  0  0  0  0
 58 68  1  0  0  0  0
 59 68  1  0  0  0  0
 60 68  1  0  0  0  0
 61 79  1  0  0  0  0
 62 63  1  0  0  0  0
 62 77  1  0  0  0  0
 63 87  1  0  0  0  0
 64 67  1  0  0  0  0
 64 86  1  0  0  0  0
 65 68  1  0  0  0  0
 65 76  1  0  0  0  0
 66 79  1  0  0  0  0
 67 78  1  0  0  0  0
 69 70  1  0  0  0  0
M  CHG  2  78   1  79   1
M  ISO  4  38 100  64 101  77 100  86 101
M  END
> <Batch ID>
0154

> <Smiles>
CNC(C)C(=O)NC(C(=O)N1Cc2cc([101O:1][101CH2:1]C(C)N3CCc4c(C)c(OCC[100NH:0][100C:0](=O)N5CCCC(n6nc(-c7ccc(Oc8ccc(F)cc8F)cc7)c(C(N)=O)c6N)C5)cc(C)c4C3)ccc2CC1C(=O)NC1CCCc2ccccc21)C(C)(C)C

> <Shape>
0.230

> <Color>
0.066

> <Negative vol penalty>
0.000

$$$$

  -OEChem-04052321513D

 88 97  0     1  0  0  0  0  0999 V2000
  -32.0892  -26.9542   15.0582 C   0  0  0  0  0  0  0  0  0  0  0  0
  -31.5151  -26.2862   16.1351 C   0  0  0  0  0  0  0  0  0  0  0  0
  -22.8739  -10.1479   19.9885 C   0  0  0  0  0  0  0  0  0  0  0  0
  -23.8868   -9.8256   22.1582 C   0  0  0  0  0  0  0  0  0  0  0  0
  -32.1881  -28.3448   15.0745 C   0  0  0  0  0  0  0  0  0  0  0  0
  -31.0404  -27.0084   17.2294 C   0  0  0  0  0  0  0  0  0  0  0  0
  -26.4949  -25.4103   18.7880 C   0  0  0  0  0  0  0  0  0  0  0  0
  -22.0706   -9.0268   20.1969 C   0  0  0  0  0  0  0  0  0  0  0  0
  -23.0834   -8.7045   22.3666 C   0  0  0  0  0  0  0  0  0  0  0  0
  -26.4572  -24.2439   19.5506 C   0  0  0  0  0  0  0  0  0  0  0  0
  -23.0343   -5.4621   21.4100 C   0  0  0  0  0  0  0  0  0  0  0  0
  -23.6405   -4.3178   21.9282 C   0  0  0  0  0  0  0  0  0  0  0  0
  -30.8323  -19.0816   23.7322 C   0  0  0  0  0  0  0  0  0  0  0  0
  -26.2688  -25.5693   21.5574 C   0  0  0  0  0  0  0  0  0  0  0  0
  -22.1636   -4.4004   23.8384 C   0  0  0  0  0  0  0  0  0  0  0  0
  -23.7821  -10.5473   20.9691 C   0  0  0  0  0  0  0  0  0  0  0  0
  -24.3152  -13.0390   21.0913 C   0  0  0  0  0  0  0  0  0  0  0  0
  -31.7056  -29.0852   16.1653 C   0  0  0  0  0  0  0  0  0  0  0  0
  -26.4308  -26.6674   19.4062 C   0  0  0  0  0  0  0  0  0  0  0  0
  -31.1341  -28.4102   17.2608 C   0  0  0  0  0  0  0  0  0  0  0  0
  -30.3668  -17.9083   23.1152 C   0  0  0  0  0  0  0  0  0  0  0  0
  -26.3034  -26.7501   20.8001 C   0  0  0  0  0  0  0  0  0  0  0  0
  -29.2402  -17.9738   22.2780 C   0  0  0  0  0  0  0  0  0  0  0  0
  -28.6031  -19.2093   22.0773 C   0  0  0  0  0  0  0  0  0  0  0  0
  -22.1753   -8.3052   21.3860 C   0  0  0  0  0  0  0  0  0  0  0  0
  -26.3470  -24.3232   20.9358 C   0  0  0  0  0  0  0  0  0  0  0  0
  -21.9928   -6.0757   22.1060 C   0  0  0  0  0  0  0  0  0  0  0  0
  -30.1932  -20.3024   23.5209 C   0  0  0  0  0  0  0  0  0  0  0  0
  -29.0778  -20.3661   22.6937 C   0  0  0  0  0  0  0  0  0  0  0  0
  -23.2052   -3.7869   23.1424 C   0  0  0  0  0  0  0  0  0  0  0  0
  -21.5574   -5.5448   23.3202 C   0  0  0  0  0  0  0  0  0  0  0  0
  -24.6126  -11.7049   20.7541 C   0  0  0  0  0  0  0  0  0  0  0  0
  -25.4172  -13.7501   20.6834 C   0  0  0  0  0  0  0  0  0  0  0  0
  -23.1472  -13.5864   21.7173 C   0  0  0  0  0  0  0  0  0  0  0  0
  -28.3727  -29.1769   19.5931 C   0  0  0  0  0  0  0  0  0  0  0  0
  -25.8377  -30.5350   21.0936 C   0  0  0  0  0  0  0  0  0  0  0  0
  -22.9632  -30.1115   22.8839 C   0  0  0  0  0  0  0  0  0  0  0  0
  -31.0786  -14.0161   20.7140 C   0  0  0  0  0  0  0  0  0  0  0  0
  -31.8773  -30.5835   16.1585 C   0  0  0  0  0  0  0  0  0  0  0  0
  -26.4458  -27.9157   18.5672 C   0  0  0  0  0  0  0  0  0  0  0  0
  -31.0747  -16.6036   23.3774 C   0  0  0  0  0  0  0  0  0  0  0  0
  -28.7001  -16.7423   21.5994 C   0  0  0  0  0  0  0  0  0  0  0  0
  -26.2106  -28.0749   21.5107 C   0  0  0  0  0  0  0  0  0  0  0  0
  -31.0107  -31.3006   17.1905 C   0  0  0  0  0  0  0  0  0  0  0  0
  -29.3740  -12.4074   17.8450 C   0  0  0  0  0  0  0  0  0  0  0  0
  -31.1023  -30.6012   18.5430 C   0  0  0  0  0  0  0  0  0  0  0  0
  -27.9802  -12.1259   18.4054 C   0  0  0  0  0  0  0  0  0  0  0  0
  -29.6949  -16.1185   20.6225 C   0  0  0  0  0  0  0  0  0  0  0  0
  -30.4356  -12.4198   18.9412 C   0  0  0  0  0  0  0  0  0  0  0  0
  -28.7417  -13.0666   20.6201 C   0  0  0  0  0  0  0  0  0  0  0  0
  -30.5853  -29.1602   18.4551 C   0  0  1  0  0  0  0  0  0  0  0  0
  -26.8913  -29.1515   19.3428 C   0  0  1  0  0  0  0  0  0  0  0  0
  -27.6428  -13.0989   19.5485 C   0  0  2  0  0  0  0  0  0  0  0  0
  -31.7136  -15.9277   22.1511 C   0  0  2  0  0  0  0  0  0  0  0  0
  -27.3997  -19.3358   21.1925 C   0  0  0  0  0  0  0  0  0  0  0  0
  -32.6860  -16.8375   21.3932 C   0  0  0  0  0  0  0  0  0  0  0  0
  -21.1292  -31.4096   24.0014 C   0  0  0  0  0  0  0  0  0  0  0  0
  -27.7220  -31.2101   23.3965 C   0  0  0  0  0  0  0  0  0  0  0  0
  -25.7107  -31.6207   24.8299 C   0  0  0  0  0  0  0  0  0  0  0  0
  -26.1051  -33.0241   22.8056 C   0  0  0  0  0  0  0  0  0  0  0  0
  -20.8931  -28.9071   21.1452 C   0  0  0  0  0  0  0  0  0  0  0  0
  -31.6515  -22.1786   23.4248 C   0  0  0  0  0  0  0  0  0  0  0  0
  -26.8427  -23.2598   23.0044 C   0  0  0  0  0  0  0  0  0  1  0  0
  -27.4079  -21.9077   23.3944 C   0  0  0  0  0  0  0  0  0  0  0  0
  -25.3638  -30.6234   22.5242 C   0  0  1  0  0  0  0  0  0  0  0  0
  -21.5796  -30.7156   22.7253 C   0  0  2  0  0  0  0  0  0  0  0  0
  -26.2291  -31.5945   23.3761 C   0  0  0  0  0  0  0  0  0  0  0  0
  -25.8096  -11.5737   20.1764 N   0  0  0  0  0  0  0  0  0  0  0  0
  -26.2741  -12.8345   20.1473 N   0  0  0  0  0  0  0  0  0  0  0  0
  -26.2359  -29.2670   20.6472 N   0  0  0  0  0  0  0  0  0  0  0  0
  -30.0655  -13.3170   20.0358 N   0  0  0  0  0  0  0  0  0  0  0  0
  -30.7326  -15.2793   21.2536 N   0  0  0  0  0  0  0  0  0  0  0  0
  -25.7271  -15.0630   20.7346 N   0  0  0  0  0  0  0  0  0  0  0  0
  -22.1085  -12.7148   22.0719 N   0  0  0  0  0  0  0  0  0  0  0  0
  -29.1382  -29.1423   18.4432 N   0  0  0  0  0  0  0  0  0  0  0  0
  -23.9501  -30.9786   22.4648 N   0  0  0  0  0  0  0  0  0  0  0  0
  -20.5867  -29.6555   22.3913 N   0  3  0  0  0  0  0  0  0  0  0  0
  -23.0213  -14.8144   21.9403 O   0  0  0  0  0  0  0  0  0  0  0  0
  -28.7902  -29.2258   20.7442 O   0  0  0  0  0  0  0  0  0  0  0  0
  -25.8471  -31.5521   20.3957 O   0  0  0  0  0  0  0  0  0  0  0  0
  -23.1501  -28.9848   23.3378 O   0  0  0  0  0  0  0  0  0  0  0  0
  -32.2177  -13.5465   20.8287 O   0  0  0  0  0  0  0  0  0  0  0  0
  -21.3914   -7.2113   21.5898 O   0  0  0  0  0  0  0  0  0  0  0  0
  -30.6709  -21.4219   24.1322 O   0  0  0  0  0  0  0  0  0  0  0  0
  -26.3104  -23.1785   21.6877 O   0  0  0  0  0  0  0  0  0  1  0  0
  -28.4560  -21.5633   22.4917 O   0  0  0  0  0  0  0  0  0  0  0  0
  -23.7864   -2.6871   23.6391 F   0  0  0  0  0  0  0  0  0  0  0  0
  -20.5564   -6.1292   23.9928 F   0  0  0  0  0  0  0  0  0  0  0  0
  1  2  1  0  0  0  0
  1  5  2  0  0  0  0
  2  6  2  0  0  0  0
  3  8  2  0  0  0  0
  3 16  1  0  0  0  0
  4  9  1  0  0  0  0
  4 16  2  0  0  0  0
  5 18  1  0  0  0  0
  6 20  1  0  0  0  0
  7 10  2  0  0  0  0
  7 19  1  0  0  0  0
  8 25  1  0  0  0  0
  9 25  2  0  0  0  0
 10 26  1  0  0  0  0
 11 12  2  0  0  0  0
 11 27  1  0  0  0  0
 12 30  1  0  0  0  0
 13 21  1  0  0  0  0
 13 28  2  0  0  0  0
 14 22  1  0  0  0  0
 14 26  2  0  0  0  0
 15 30  2  0  0  0  0
 15 31  1  0  0  0  0
 16 32  1  0  0  0  0
 17 32  1  0  0  0  0
 17 33  2  0  0  0  0
 17 34  1  0  0  0  0
 18 20  2  0  0  0  0
 18 39  1  0  0  0  0
 19 22  2  0  0  0  0
 19 40  1  0  0  0  0
 20 51  1  0  0  0  0
 21 23  2  0  0  0  0
 21 41  1  0  0  0  0
 22 43  1  0  0  0  0
 23 24  1  0  0  0  0
 23 42  1  0  0  0  0
 24 29  2  0  0  0  0
 24 55  1  0  0  0  0
 25 83  1  0  0  0  0
 26 85  1  0  0  0  0
 27 31  2  0  0  0  0
 27 83  1  0  0  0  0
 28 29  1  0  0  0  0
 28 84  1  0  0  0  0
 29 86  1  0  0  0  0
 30 87  1  0  0  0  0
 31 88  1  0  0  0  0
 32 68  2  0  0  0  0
 33 69  1  0  0  0  0
 33 73  1  0  0  0  0
 34 74  1  0  0  0  0
 34 78  2  0  0  0  0
 35 52  1  0  0  0  0
 35 75  1  0  0  0  0
 35 79  2  0  0  0  0
 36 65  1  0  0  0  0
 36 70  1  0  0  0  0
 36 80  2  0  0  0  0
 37 66  1  0  0  0  0
 37 76  1  0  0  0  0
 37 81  2  0  0  0  0
 38 71  1  0  0  0  0
 38 72  1  0  0  0  0
 38 82  2  0  0  0  0
 39 44  1  0  0  0  0
 40 52  1  0  0  0  0
 41 54  1  0  0  0  0
 42 48  1  0  0  0  0
 43 70  1  0  0  0  0
 44 46  1  0  0  0  0
 45 47  1  0  0  0  0
 45 49  1  0  0  0  0
 46 51  1  0  0  0  0
 47 53  1  0  0  0  0
 48 72  1  0  0  0  0
 49 71  1  0  0  0  0
 50 53  1  0  0  0  0
 50 71  1  0  0  0  0
 51 75  1  0  0  0  0
 52 70  1  0  0  0  0
 53 69  1  0  0  0  0
 54 56  1  0  0  0  0
 54 72  1  0  0  0  0
 57 66  1  0  0  0  0
 58 67  1  0  0  0  0
 59 67  1  0  0  0  0
 60 67  1  0  0  0  0
 61 77  1  0  0  0  0
 62 84  1  0  0  0  0
 63 64  1  0  0  0  0
 63 85  1  0  0  0  0
 64 86  1  0  0  0  0
 65 67  1  0  0  0  0
 65 76  1  0  0  0  0
 66 77  1  0  0  0  0
 68 69  1  0  0  0  0
M  CHG  1  77   1
M  ISO  4  38 100  63 101  72 100  85 101
M  END
> <Batch ID>
0154

> <Smiles>
CNC(C)C(=O)NC(C(=O)N1Cc2cc([101O:1][101CH2:1]COc3c(OC)cc4c(c3C)CC[100N:0]([100C:0](=O)N3CCCC(n5nc(-c6ccc(Oc7ccc(F)cc7F)cc6)c(C(N)=O)c5N)C3)C(C)C4)ccc2CC1C(=O)NC1CCCc2ccccc21)C(C)(C)C

> <Shape>
0.327

> <Color>
0.207

> <Negative vol penalty>
0.000

$$$$

  -OEChem-04052321512D

  0  0  0     0  0  0  0  0  0999 V2000
M  END
$$$$

  -OEChem-04052321513D

 87 96  0     1  0  0  0  0  0999 V2000
  -21.4176  -30.4362   26.4273 C   0  0  0  0  0  0  0  0  0  0  0  0
  -22.2111  -29.3563   26.0538 C   0  0  0  0  0  0  0  0  0  0  0  0
  -23.8863   -9.5918   21.4331 C   0  0  0  0  0  0  0  0  0  0  0  0
  -24.4574  -10.6357   23.5357 C   0  0  0  0  0  0  0  0  0  0  0  0
  -20.7944  -31.2125   25.4511 C   0  0  0  0  0  0  0  0  0  0  0  0
  -22.3811  -29.0514   24.7038 C   0  0  0  0  0  0  0  0  0  0  0  0
  -29.7042  -20.2225   21.3474 C   0  0  0  0  0  0  0  0  0  0  0  0
  -27.4182  -26.8035   22.0429 C   0  0  0  0  0  0  0  0  0  0  0  0
  -23.3980   -8.4792   22.1181 C   0  0  0  0  0  0  0  0  0  0  0  0
  -23.9690   -9.5231   24.2208 C   0  0  0  0  0  0  0  0  0  0  0  0
  -30.3286  -19.1555   21.9934 C   0  0  0  0  0  0  0  0  0  0  0  0
  -27.7856  -25.5109   21.6715 C   0  0  0  0  0  0  0  0  0  0  0  0
  -20.5995   -7.6293   23.8150 C   0  0  0  0  0  0  0  0  0  0  0  0
  -19.3736   -7.1036   23.4072 C   0  0  0  0  0  0  0  0  0  0  0  0
  -27.5535  -19.1831   21.7096 C   0  0  0  0  0  0  0  0  0  0  0  0
  -27.0130  -25.9425   19.4274 C   0  0  0  0  0  0  0  0  0  0  0  0
  -20.4413   -4.9920   22.9193 C   0  0  0  0  0  0  0  0  0  0  0  0
  -24.4160  -10.6701   22.1419 C   0  0  0  0  0  0  0  0  0  0  0  0
  -24.2022  -12.9699   21.0591 C   0  0  0  0  0  0  0  0  0  0  0  0
  -28.3166  -20.2363   21.2056 C   0  0  0  0  0  0  0  0  0  0  0  0
  -20.9645  -30.9227   24.0881 C   0  0  0  0  0  0  0  0  0  0  0  0
  -26.8344  -27.6732   21.1105 C   0  0  0  0  0  0  0  0  0  0  0  0
  -21.7584  -29.8237   23.7084 C   0  0  0  0  0  0  0  0  0  0  0  0
  -26.6414  -27.2465   19.7888 C   0  0  0  0  0  0  0  0  0  0  0  0
  -28.1779  -18.1161   22.3555 C   0  0  0  0  0  0  0  0  0  0  0  0
  -23.4393   -8.4448   23.5119 C   0  0  0  0  0  0  0  0  0  0  0  0
  -27.5804  -25.0792   20.3644 C   0  0  0  0  0  0  0  0  0  0  0  0
  -29.5655  -18.1023   22.4974 C   0  0  0  0  0  0  0  0  0  0  0  0
  -21.7464   -6.8363   23.7748 C   0  0  0  0  0  0  0  0  0  0  0  0
  -19.2944   -5.7850   22.9594 C   0  0  0  0  0  0  0  0  0  0  0  0
  -21.6673   -5.5177   23.3270 C   0  0  0  0  0  0  0  0  0  0  0  0
  -24.9212  -11.8194   21.4348 C   0  0  0  0  0  0  0  0  0  0  0  0
  -25.1263  -13.7581   20.4177 C   0  0  0  0  0  0  0  0  0  0  0  0
  -22.8224  -13.2970   21.2710 C   0  0  0  0  0  0  0  0  0  0  0  0
  -24.0328  -29.1559   20.8740 C   0  0  0  0  0  0  0  0  0  0  0  0
  -25.4321  -30.5578   18.3051 C   0  0  0  0  0  0  0  0  0  0  0  0
  -26.0093  -16.9228   22.8001 C   0  0  0  0  0  0  0  0  0  0  0  0
  -27.8140  -30.4134   15.8653 C   0  0  0  0  0  0  0  0  0  0  0  0
  -31.0938  -14.1283   20.7390 C   0  0  0  0  0  0  0  0  0  0  0  0
  -20.2326  -31.7617   23.0707 C   0  0  0  0  0  0  0  0  0  0  0  0
  -26.4683  -29.0734   21.5201 C   0  0  0  0  0  0  0  0  0  0  0  0
  -26.0371  -28.1482   18.7447 C   0  0  0  0  0  0  0  0  0  0  0  0
  -20.7662  -31.5991   21.6498 C   0  0  0  0  0  0  0  0  0  0  0  0
  -29.1428  -13.4715   17.8340 C   0  0  0  0  0  0  0  0  0  0  0  0
  -20.9586  -30.1228   21.3175 C   0  0  0  0  0  0  0  0  0  0  0  0
  -27.7748  -13.0774   18.3935 C   0  0  0  0  0  0  0  0  0  0  0  0
  -26.5556  -22.1269   21.2300 C   0  0  0  0  0  0  0  0  0  0  0  0
  -30.2812  -12.9577   18.7126 C   0  0  0  0  0  0  0  0  0  0  0  0
  -28.8165  -12.9414   20.6946 C   0  0  0  0  0  0  0  0  0  0  0  0
  -27.6529  -21.3701   20.5189 C   0  0  1  0  0  0  0  0  0  0  0  0
  -21.9870  -29.4762   22.2534 C   0  0  1  0  0  0  0  0  0  0  0  0
  -25.4093  -29.7018   20.6195 C   0  0  1  0  0  0  0  0  0  0  0  0
  -27.6354  -13.4850   19.8726 C   0  0  2  0  0  0  0  0  0  0  0  0
  -27.8882  -22.7783   21.0196 C   0  0  1  0  0  0  0  0  0  1  0  0
  -25.5558  -15.6437   23.4579 C   0  0  0  0  0  0  0  0  0  0  0  0
  -28.6896  -31.6885   13.8892 C   0  0  0  0  0  0  0  0  0  0  0  0
  -23.0278  -29.6529   16.6589 C   0  0  0  0  0  0  0  0  0  0  0  0
  -24.3666  -30.0940   14.5898 C   0  0  0  0  0  0  0  0  0  0  0  0
  -23.8303  -31.9659   16.1489 C   0  0  0  0  0  0  0  0  0  0  0  0
  -30.4924  -30.7011   17.0909 C   0  0  0  0  0  0  0  0  0  0  0  0
  -31.7632  -15.2696   22.8386 C   0  0  0  0  0  0  0  0  0  0  0  0
  -31.5196  -16.7611   22.6929 C   0  0  0  0  0  0  0  0  0  0  0  0
  -25.5377  -30.2321   16.8349 C   0  0  1  0  0  0  0  0  0  0  0  0
  -28.8253  -31.4377   15.3830 C   0  0  2  0  0  0  0  0  0  0  0  0
  -24.2002  -30.4683   16.0780 C   0  0  0  0  0  0  0  0  0  0  0  0
  -26.2031  -11.8682   21.0630 N   0  0  0  0  0  0  0  0  0  0  0  0
  -26.2969  -13.0588   20.4469 N   0  0  0  0  0  0  0  0  0  0  0  0
  -25.6898  -29.5060   19.1957 N   0  0  0  0  0  0  0  0  0  0  0  0
  -30.0899  -13.3801   20.1022 N   0  0  0  0  0  0  0  0  0  0  0  0
  -25.0436  -14.9741   19.8373 N   0  0  0  0  0  0  0  0  0  0  0  0
  -22.0133  -12.3743   21.9480 N   0  0  0  0  0  0  0  0  0  0  0  0
  -27.4008  -17.0682   22.8552 N   0  0  0  0  0  0  0  0  0  0  0  0
  -23.3307  -29.8338   21.8522 N   0  0  0  0  0  0  0  0  0  0  0  0
  -26.6595  -31.0121   16.3235 N   0  0  0  0  0  0  0  0  0  0  0  0
  -30.8296  -14.4933   22.0534 N   0  0  0  0  0  0  0  0  0  0  0  0
  -30.2119  -30.9648   15.6561 N   0  3  0  0  0  0  0  0  0  0  0  0
  -22.3178  -14.3684   20.8573 O   0  0  0  0  0  0  0  0  0  0  0  0
  -23.6364  -28.1920   20.2294 O   0  0  0  0  0  0  0  0  0  0  0  0
  -25.1390  -31.7051   18.6509 O   0  0  0  0  0  0  0  0  0  0  0  0
  -25.1975  -17.6919   22.2958 O   0  0  0  0  0  0  0  0  0  0  0  0
  -28.0254  -29.2031   15.8349 O   0  0  0  0  0  0  0  0  0  0  0  0
  -32.1451  -14.4519   20.1760 O   0  0  0  0  0  0  0  0  0  0  0  0
  -22.9627   -7.3594   24.1807 O   0  0  0  0  0  0  0  0  0  0  0  0
  -27.9375  -23.8178   19.9994 O   0  0  0  0  0  0  0  0  0  1  0  0
  -30.1958  -17.0690   23.1241 O   0  0  0  0  0  0  0  0  0  0  0  0
  -18.1168   -5.2798   22.5693 F   0  0  0  0  0  0  0  0  0  0  0  0
  -22.7655   -4.7507   23.2873 F   0  0  0  0  0  0  0  0  0  0  0  0
  1  2  1  0  0  0  0
  1  5  2  0  0  0  0
  2  6  2  0  0  0  0
  3  9  2  0  0  0  0
  3 18  1  0  0  0  0
  4 10  1  0  0  0  0
  4 18  2  0  0  0  0
  5 21  1  0  0  0  0
  6 23  1  0  0  0  0
  7 11  2  0  0  0  0
  7 20  1  0  0  0  0
  8 12  2  0  0  0  0
  8 22  1  0  0  0  0
  9 26  1  0  0  0  0
 10 26  2  0  0  0  0
 11 28  1  0  0  0  0
 12 27  1  0  0  0  0
 13 14  2  0  0  0  0
 13 29  1  0  0  0  0
 14 30  1  0  0  0  0
 15 20  2  0  0  0  0
 15 25  1  0  0  0  0
 16 24  1  0  0  0  0
 16 27  2  0  0  0  0
 17 30  2  0  0  0  0
 17 31  1  0  0  0  0
 18 32  1  0  0  0  0
 19 32  1  0  0  0  0
 19 33  2  0  0  0  0
 19 34  1  0  0  0  0
 20 50  1  0  0  0  0
 21 23  2  0  0  0  0
 21 40  1  0  0  0  0
 22 24  2  0  0  0  0
 22 41  1  0  0  0  0
 23 51  1  0  0  0  0
 24 42  1  0  0  0  0
 25 28  2  0  0  0  0
 25 72  1  0  0  0  0
 26 83  1  0  0  0  0
 27 84  1  0  0  0  0
 28 85  1  0  0  0  0
 29 31  2  0  0  0  0
 29 83  1  0  0  0  0
 30 86  1  0  0  0  0
 31 87  1  0  0  0  0
 32 66  2  0  0  0  0
 33 67  1  0  0  0  0
 33 70  1  0  0  0  0
 34 71  1  0  0  0  0
 34 77  2  0  0  0  0
 35 52  1  0  0  0  0
 35 73  1  0  0  0  0
 35 78  2  0  0  0  0
 36 63  1  0  0  0  0
 36 68  1  0  0  0  0
 36 79  2  0  0  0  0
 37 55  1  0  0  0  0
 37 72  1  0  0  0  0
 37 80  2  0  0  0  0
 38 64  1  0  0  0  0
 38 74  1  0  0  0  0
 38 81  2  0  0  0  0
 39 69  1  0  0  0  0
 39 75  1  0  0  0  0
 39 82  2  0  0  0  0
 40 43  1  0  0  0  0
 41 52  1  0  0  0  0
 42 68  1  0  0  0  0
 43 45  1  0  0  0  0
 44 46  1  0  0  0  0
 44 48  1  0  0  0  0
 45 51  1  0  0  0  0
 46 53  1  0  0  0  0
 47 50  1  0  0  0  0
 47 54  1  0  0  0  0
 48 69  1  0  0  0  0
 49 53  1  0  0  0  0
 49 69  1  0  0  0  0
 50 54  1  0  0  0  0
 51 73  1  0  0  0  0
 52 68  1  0  0  0  0
 53 67  1  0  0  0  0
 54 84  1  0  0  0  0
 56 64  1  0  0  0  0
 57 65  1  0  0  0  0
 58 65  1  0  0  0  0
 59 65  1  0  0  0  0
 60 76  1  0  0  0  0
 61 62  1  0  0  0  0
 61 75  1  0  0  0  0
 62 85  1  0  0  0  0
 63 65  1  0  0  0  0
 63 74  1  0  0  0  0
 64 76  1  0  0  0  0
 66 67  1  0  0  0  0
M  CHG  1  76   1
M  ISO  4  39 100  54 101  75 100  84 101
M  END
> <Batch ID>
0154

> <Smiles>
CNC(C)C(=O)NC(C(=O)N1Cc2cc([101O:1][101CH:1]3CC3c3ccc(OCC[100NH:0][100C:0](=O)N4CCCC(n5nc(-c6ccc(Oc7ccc(F)cc7F)cc6)c(C(N)=O)c5N)C4)c(NC(C)=O)c3)ccc2CC1C(=O)NC1CCCc2ccccc21)C(C)(C)C

> <Shape>
0.266

> <Color>
0.145

> <Negative vol penalty>
0.000

$$$$

  -OEChem-04052321513D

 88 97  0     1  0  0  0  0  0999 V2000
  -18.3970  -28.2731   26.3602 C   0  0  0  0  0  0  0  0  0  0  0  0
  -19.5842  -27.5593   26.4883 C   0  0  0  0  0  0  0  0  0  0  0  0
  -23.4610   -9.7675   21.9214 C   0  0  0  0  0  0  0  0  0  0  0  0
  -24.0206  -11.1127   23.8486 C   0  0  0  0  0  0  0  0  0  0  0  0
  -17.9395  -28.6417   25.0958 C   0  0  0  0  0  0  0  0  0  0  0  0
  -20.3140  -27.2126   25.3518 C   0  0  0  0  0  0  0  0  0  0  0  0
  -26.4081  -26.8660   24.8539 C   0  0  0  0  0  0  0  0  0  0  0  0
  -22.8166   -8.8487   22.7497 C   0  0  0  0  0  0  0  0  0  0  0  0
  -23.3762  -10.1939   24.6770 C   0  0  0  0  0  0  0  0  0  0  0  0
  -27.2940  -25.7908   24.9079 C   0  0  0  0  0  0  0  0  0  0  0  0
  -19.8501   -8.5922   24.3517 C   0  0  0  0  0  0  0  0  0  0  0  0
  -18.5997   -8.1225   23.9497 C   0  0  0  0  0  0  0  0  0  0  0  0
  -28.1187  -20.4723   21.3172 C   0  0  0  0  0  0  0  0  0  0  0  0
  -27.2718  -25.6594   22.4993 C   0  0  0  0  0  0  0  0  0  0  0  0
  -29.6096  -19.6535   23.0261 C   0  0  0  0  0  0  0  0  0  0  0  0
  -19.4585   -5.8645   23.9166 C   0  0  0  0  0  0  0  0  0  0  0  0
  -24.0631  -10.8995   22.4708 C   0  0  0  0  0  0  0  0  0  0  0  0
  -24.1621  -12.9767   20.9933 C   0  0  0  0  0  0  0  0  0  0  0  0
  -18.6690  -28.3077   23.9439 C   0  0  0  0  0  0  0  0  0  0  0  0
  -25.9381  -27.3398   23.6206 C   0  0  0  0  0  0  0  0  0  0  0  0
  -19.8651  -27.5759   24.0707 C   0  0  0  0  0  0  0  0  0  0  0  0
  -28.6455  -19.5565   20.3925 C   0  0  0  0  0  0  0  0  0  0  0  0
  -26.3820  -26.7424   22.4322 C   0  0  0  0  0  0  0  0  0  0  0  0
  -29.6788  -18.6882   20.7922 C   0  0  0  0  0  0  0  0  0  0  0  0
  -30.1477  -18.7444   22.1160 C   0  0  0  0  0  0  0  0  0  0  0  0
  -22.7742   -9.0619   24.1275 C   0  0  0  0  0  0  0  0  0  0  0  0
  -27.7237  -25.1854   23.7306 C   0  0  0  0  0  0  0  0  0  0  0  0
  -20.9047   -7.6980   24.5362 C   0  0  0  0  0  0  0  0  0  0  0  0
  -28.5954  -20.5175   22.6266 C   0  0  0  0  0  0  0  0  0  0  0  0
  -18.4039   -6.7587   23.7321 C   0  0  0  0  0  0  0  0  0  0  0  0
  -20.7089   -6.3342   24.3186 C   0  0  0  0  0  0  0  0  0  0  0  0
  -24.7294  -11.8486   21.6157 C   0  0  0  0  0  0  0  0  0  0  0  0
  -25.2013  -13.5437   20.2969 C   0  0  0  0  0  0  0  0  0  0  0  0
  -22.8160  -13.4682   21.0406 C   0  0  0  0  0  0  0  0  0  0  0  0
  -23.0801  -27.5743   22.2494 C   0  0  0  0  0  0  0  0  0  0  0  0
  -24.7431  -29.1493   19.9524 C   0  0  0  0  0  0  0  0  0  0  0  0
  -27.7363  -29.7078   18.4111 C   0  0  0  0  0  0  0  0  0  0  0  0
  -30.5217  -15.1996   19.9864 C   0  0  0  0  0  0  0  0  0  0  0  0
  -18.1101  -28.6869   22.5953 C   0  0  0  0  0  0  0  0  0  0  0  0
  -25.0037  -28.5177   23.5782 C   0  0  0  0  0  0  0  0  0  0  0  0
  -28.1290  -19.5829   18.9761 C   0  0  0  0  0  0  0  0  0  0  0  0
  -25.9230  -27.2263   21.0818 C   0  0  0  0  0  0  0  0  0  0  0  0
  -19.1348  -28.6059   21.4667 C   0  0  0  0  0  0  0  0  0  0  0  0
  -28.5344  -18.3644   18.1489 C   0  0  0  0  0  0  0  0  0  0  0  0
  -29.8310  -11.7797   19.2766 C   0  0  0  0  0  0  0  0  0  0  0  0
  -19.9157  -27.2980   21.5476 C   0  0  0  0  0  0  0  0  0  0  0  0
  -28.3983  -11.5846   19.7761 C   0  0  0  0  0  0  0  0  0  0  0  0
  -30.6173  -12.7315   20.1754 C   0  0  0  0  0  0  0  0  0  0  0  0
  -28.5425  -13.8442   20.9040 C   0  0  0  0  0  0  0  0  0  0  0  0
  -20.6976  -27.2028   22.8632 C   0  0  1  0  0  0  0  0  0  0  0  0
  -30.2699  -17.6645   19.8447 C   0  0  2  0  0  0  0  0  0  0  0  0
  -24.1886  -28.5878   22.2905 C   0  0  1  0  0  0  0  0  0  0  0  0
  -30.0043  -17.9788   18.3570 C   0  0  2  0  0  0  0  0  0  0  0  0
  -27.6931  -12.9360   19.9984 C   0  0  2  0  0  0  0  0  0  0  0  0
  -31.2391  -17.8449   22.6058 C   0  0  0  0  0  0  0  0  0  0  0  0
  -28.7744  -31.0205   16.5411 C   0  0  0  0  0  0  0  0  0  0  0  0
  -32.3536  -18.4805   17.6285 C   0  0  0  0  0  0  0  0  0  0  0  0
  -30.4224  -19.6568   16.5375 C   0  0  0  0  0  0  0  0  0  0  0  0
  -23.5329  -27.2155   17.9262 C   0  0  0  0  0  0  0  0  0  0  0  0
  -25.2879  -27.9376   16.2932 C   0  0  0  0  0  0  0  0  0  0  0  0
  -23.6387  -29.5947   17.1632 C   0  0  0  0  0  0  0  0  0  0  0  0
  -29.5420  -31.1426   20.2657 C   0  0  0  0  0  0  0  0  0  0  0  0
  -28.5212  -23.2934   24.9307 C   0  0  0  0  0  0  0  0  0  1  0  0
  -28.9355  -21.8879   24.5403 C   0  0  0  0  0  0  0  0  0  0  0  0
  -25.4665  -28.7464   18.6901 C   0  0  1  0  0  0  0  0  0  0  0  0
  -28.4466  -30.9930   18.0259 C   0  0  2  0  0  0  0  0  0  0  0  0
  -30.9586  -19.0600   17.8336 C   0  0  0  0  0  0  0  0  0  0  0  0
  -24.4888  -28.3630   17.5435 C   0  0  0  0  0  0  0  0  0  0  0  0
  -26.0283  -11.7057   21.3390 N   0  0  0  0  0  0  0  0  0  0  0  0
  -26.2857  -12.7514   20.5350 N   0  0  0  0  0  0  0  0  0  0  0  0
  -25.0045  -28.3769   21.0930 N   0  0  0  0  0  0  0  0  0  0  0  0
  -29.8949  -13.9946   20.3444 N   0  0  0  0  0  0  0  0  0  0  0  0
  -25.2842  -14.6376   19.5102 N   0  0  0  0  0  0  0  0  0  0  0  0
  -21.8743  -12.7648   21.8040 N   0  0  0  0  0  0  0  0  0  0  0  0
  -21.8927  -28.0166   22.8009 N   0  0  0  0  0  0  0  0  0  0  0  0
  -26.3654  -29.8486   18.3653 N   0  0  0  0  0  0  0  0  0  0  0  0
  -29.7647  -16.3498   20.1724 N   0  0  0  0  0  0  0  0  0  0  0  0
  -29.7183  -31.1311   18.7906 N   0  3  0  0  0  0  0  0  0  0  0  0
  -22.4550  -14.4912   20.4108 O   0  0  0  0  0  0  0  0  0  0  0  0
  -23.2862  -26.4732   21.7526 O   0  0  0  0  0  0  0  0  0  0  0  0
  -23.9799  -30.1181   19.9291 O   0  0  0  0  0  0  0  0  0  0  0  0
  -28.3374  -28.6807   18.7180 O   0  0  0  0  0  0  0  0  0  0  0  0
  -31.6689  -15.2464   19.5294 O   0  0  0  0  0  0  0  0  0  0  0  0
  -22.1452   -8.1657   24.9361 O   0  0  0  0  0  0  0  0  0  0  0  0
  -28.5878  -24.1354   23.7804 O   0  0  0  0  0  0  0  0  0  1  0  0
  -28.0677  -21.4150   23.5173 O   0  0  0  0  0  0  0  0  0  0  0  0
  -17.2027   -6.3077   23.3476 F   0  0  0  0  0  0  0  0  0  0  0  0
  -21.7179   -5.4702   24.4953 F   0  0  0  0  0  0  0  0  0  0  0  0
  1  2  1  0  0  0  0
  1  5  2  0  0  0  0
  2  6  2  0  0  0  0
  3  8  2  0  0  0  0
  3 17  1  0  0  0  0
  4  9  1  0  0  0  0
  4 17  2  0  0  0  0
  5 19  1  0  0  0  0
  6 21  1  0  0  0  0
  7 10  2  0  0  0  0
  7 20  1  0  0  0  0
  8 26  1  0  0  0  0
  9 26  2  0  0  0  0
 10 27  1  0  0  0  0
 11 12  2  0  0  0  0
 11 28  1  0  0  0  0
 12 30  1  0  0  0  0
 13 22  1  0  0  0  0
 13 29  2  0  0  0  0
 14 23  1  0  0  0  0
 14 27  2  0  0  0  0
 15 25  2  0  0  0  0
 15 29  1  0  0  0  0
 16 30  2  0  0  0  0
 16 31  1  0  0  0  0
 17 32  1  0  0  0  0
 18 32  1  0  0  0  0
 18 33  2  0  0  0  0
 18 34  1  0  0  0  0
 19 21  2  0  0  0  0
 19 39  1  0  0  0  0
 20 23  2  0  0  0  0
 20 40  1  0  0  0  0
 21 50  1  0  0  0  0
 22 24  2  0  0  0  0
 22 41  1  0  0  0  0
 23 42  1  0  0  0  0
 24 25  1  0  0  0  0
 24 51  1  0  0  0  0
 25 55  1  0  0  0  0
 26 84  1  0  0  0  0
 27 85  1  0  0  0  0
 28 31  2  0  0  0  0
 28 84  1  0  0  0  0
 29 86  1  0  0  0  0
 30 87  1  0  0  0  0
 31 88  1  0  0  0  0
 32 69  2  0  0  0  0
 33 70  1  0  0  0  0
 33 73  1  0  0  0  0
 34 74  1  0  0  0  0
 34 79  2  0  0  0  0
 35 52  1  0  0  0  0
 35 75  1  0  0  0  0
 35 80  2  0  0  0  0
 36 65  1  0  0  0  0
 36 71  1  0  0  0  0
 36 81  2  0  0  0  0
 37 66  1  0  0  0  0
 37 76  1  0  0  0  0
 37 82  2  0  0  0  0
 38 72  1  0  0  0  0
 38 77  1  0  0  0  0
 38 83  2  0  0  0  0
 39 43  1  0  0  0  0
 40 52  1  0  0  0  0
 41 44  1  0  0  0  0
 42 71  1  0  0  0  0
 43 46  1  0  0  0  0
 44 53  1  0  0  0  0
 45 47  1  0  0  0  0
 45 48  1  0  0  0  0
 46 50  1  0  0  0  0
 47 54  1  0  0  0  0
 48 72  1  0  0  0  0
 49 54  1  0  0  0  0
 49 72  1  0  0  0  0
 50 75  1  0  0  0  0
 51 53  1  0  0  0  0
 51 77  1  0  0  0  0
 52 71  1  0  0  0  0
 53 67  1  0  0  0  0
 54 70  1  0  0  0  0
 56 66  1  0  0  0  0
 57 67  1  0  0  0  0
 58 67  1  0  0  0  0
 59 68  1  0  0  0  0
 60 68  1  0  0  0  0
 61 68  1  0  0  0  0
 62 78  1  0  0  0  0
 63 64  1  0  0  0  0
 63 85  1  0  0  0  0
 64 86  1  0  0  0  0
 65 68  1  0  0  0  0
 65 76  1  0  0  0  0
 66 78  1  0  0  0  0
 69 70  1  0  0  0  0
M  CHG  1  78   1
M  ISO  4  38 100  63 101  77 100  85 101
M  END
> <Batch ID>
0154

> <Smiles>
CNC(C)C(=O)NC(C(=O)N1Cc2cc([101O:1][101CH2:1]COc3cc(C)c4c(c3)CCC(C(C)C)C4[100NH:0][100C:0](=O)N3CCCC(n4nc(-c5ccc(Oc6ccc(F)cc6F)cc5)c(C(N)=O)c4N)C3)ccc2CC1C(=O)NC1CCCc2ccccc21)C(C)(C)C

> <Shape>
0.247

> <Color>
0.125

> <Negative vol penalty>
0.000

$$$$

  -OEChem-04052321513D

 90 99  0     1  0  0  0  0  0999 V2000
  -24.6061  -23.7141   27.1238 C   0  0  0  0  0  0  0  0  0  0  0  0
  -25.4143  -24.3160   26.1646 C   0  0  0  0  0  0  0  0  0  0  0  0
  -30.8267  -12.4467   23.2391 C   0  0  0  0  0  0  0  0  0  0  0  0
  -28.8228  -11.1214   23.4942 C   0  0  0  0  0  0  0  0  0  0  0  0
  -23.2956  -24.1541   27.3051 C   0  0  0  0  0  0  0  0  0  0  0  0
  -24.9119  -25.3576   25.3854 C   0  0  0  0  0  0  0  0  0  0  0  0
  -28.1674  -29.2138   24.9647 C   0  0  0  0  0  0  0  0  0  0  0  0
  -31.5166  -11.5634   24.0694 C   0  0  0  0  0  0  0  0  0  0  0  0
  -29.5128  -10.2380   24.3245 C   0  0  0  0  0  0  0  0  0  0  0  0
  -29.2230  -29.0608   24.0669 C   0  0  0  0  0  0  0  0  0  0  0  0
  -30.8406   -7.4349   26.2211 C   0  0  0  0  0  0  0  0  0  0  0  0
  -30.6635   -6.0683   26.0051 C   0  0  0  0  0  0  0  0  0  0  0  0
  -28.0238  -30.3798   22.4417 C   0  0  0  0  0  0  0  0  0  0  0  0
  -29.0232  -24.2665   19.9142 C   0  0  0  0  0  0  0  0  0  0  0  0
  -31.5184   -6.3125   23.7587 C   0  0  0  0  0  0  0  0  0  0  0  0
  -29.4798  -12.2257   22.9516 C   0  0  0  0  0  0  0  0  0  0  0  0
  -28.6369  -13.0643   20.6946 C   0  0  0  0  0  0  0  0  0  0  0  0
  -22.7800  -25.2080   26.5344 C   0  0  0  0  0  0  0  0  0  0  0  0
  -27.0255  -29.9429   24.6032 C   0  0  0  0  0  0  0  0  0  0  0  0
  -23.5928  -25.8112   25.5557 C   0  0  0  0  0  0  0  0  0  0  0  0
  -26.9562  -30.5427   23.3377 C   0  0  0  0  0  0  0  0  0  0  0  0
  -27.7556  -24.5590   20.4049 C   0  0  0  0  0  0  0  0  0  0  0  0
  -30.8597  -10.4590   24.6121 C   0  0  0  0  0  0  0  0  0  0  0  0
  -29.1501  -29.6414   22.8041 C   0  0  0  0  0  0  0  0  0  0  0  0
  -31.3566   -8.2403   25.2059 C   0  0  0  0  0  0  0  0  0  0  0  0
  -29.9112  -25.3001   19.6377 C   0  0  0  0  0  0  0  0  0  0  0  0
  -31.0024   -5.5071   24.7740 C   0  0  0  0  0  0  0  0  0  0  0  0
  -31.6956   -7.6791   23.9747 C   0  0  0  0  0  0  0  0  0  0  0  0
  -28.7664  -13.1382   22.0944 C   0  0  0  0  0  0  0  0  0  0  0  0
  -29.4865  -26.5988   19.8674 C   0  0  0  0  0  0  0  0  0  0  0  0
  -27.4274  -25.8909   20.6004 C   0  0  0  0  0  0  0  0  0  0  0  0
  -27.8719  -14.1556   20.3625 C   0  0  0  0  0  0  0  0  0  0  0  0
  -29.1611  -12.0957   19.7765 C   0  0  0  0  0  0  0  0  0  0  0  0
  -23.9387  -29.2594   24.2739 C   0  0  0  0  0  0  0  0  0  0  0  0
  -23.6798  -32.4591   23.8076 C   0  0  0  0  0  0  0  0  0  0  0  0
  -25.1761  -35.3818   22.8772 C   0  0  0  0  0  0  0  0  0  0  0  0
  -26.5642  -19.3528   20.6879 C   0  0  0  0  0  0  0  0  0  0  0  0
  -21.3422  -25.6175   26.7339 C   0  0  0  0  0  0  0  0  0  0  0  0
  -25.9069  -30.1211   25.5929 C   0  0  0  0  0  0  0  0  0  0  0  0
  -25.7611  -31.3524   22.9082 C   0  0  0  0  0  0  0  0  0  0  0  0
  -21.0059  -26.9765   26.1256 C   0  0  0  0  0  0  0  0  0  0  0  0
  -25.2467  -17.3550   23.2590 C   0  0  0  0  0  0  0  0  0  0  0  0
  -21.5632  -27.0802   24.7094 C   0  0  0  0  0  0  0  0  0  0  0  0
  -26.0397  -16.0614   23.0749 C   0  0  0  0  0  0  0  0  0  0  0  0
  -27.3228  -22.5511   21.8487 C   0  0  0  0  0  0  0  0  0  0  0  0
  -26.1208  -18.5954   23.0654 C   0  0  0  0  0  0  0  0  0  0  0  0
  -26.3835  -21.3908   22.1789 C   0  0  0  0  0  0  0  0  0  0  0  0
  -25.4778  -21.4267   19.8854 C   0  0  0  0  0  0  0  0  0  0  0  0
  -27.6513  -17.3217   21.5976 C   0  0  0  0  0  0  0  0  0  0  0  0
  -26.7761  -23.4372   20.7108 C   0  0  2  0  0  0  0  0  0  0  0  0
  -23.0920  -26.9604   24.7080 C   0  0  1  0  0  0  0  0  0  0  0  0
  -24.5720  -30.4522   24.9326 C   0  0  1  0  0  0  0  0  0  0  0  0
  -26.4059  -22.5792   19.4700 C   0  0  2  0  0  0  0  0  0  0  0  0
  -26.7867  -16.0582   21.7293 C   0  0  1  0  0  0  0  0  0  0  0  0
  -25.7227  -23.4110   18.3791 C   0  0  0  0  0  0  0  0  0  0  0  0
  -24.6996  -37.8252   22.5608 C   0  0  0  0  0  0  0  0  0  0  0  0
  -22.2224  -31.8349   21.2006 C   0  0  0  0  0  0  0  0  0  0  0  0
  -22.6180  -34.2038   20.4935 C   0  0  0  0  0  0  0  0  0  0  0  0
  -21.2423  -33.7214   22.5177 C   0  0  0  0  0  0  0  0  0  0  0  0
  -27.1739  -36.1545   24.9194 C   0  0  0  0  0  0  0  0  0  0  0  0
  -31.4842  -23.6508   18.9589 C   0  0  0  0  0  0  0  0  0  0  0  0
  -25.9165  -27.6050   21.2598 C   0  0  0  0  0  0  0  0  0  0  0  0
  -30.4017  -27.7452   19.5868 C   0  0  0  0  0  0  0  0  0  0  0  0
  -31.4989  -27.9487   20.6424 C   0  0  0  0  0  0  0  0  0  0  0  0
  -30.9475  -28.2957   22.0204 C   0  0  0  0  0  0  0  0  0  1  0  0
  -23.7449  -33.3734   22.6081 C   0  0  1  0  0  0  0  0  0  0  0  0
  -25.1920  -36.7555   23.5231 C   0  0  2  0  0  0  0  0  0  0  0  0
  -22.4787  -33.2665   21.7121 C   0  0  0  0  0  0  0  0  0  0  0  0
  -28.1345  -14.1931   22.6158 N   0  0  0  0  0  0  0  0  0  0  0  0
  -28.2631  -26.9220   20.3433 N   0  0  0  0  0  0  0  0  0  0  0  0
  -27.6006  -14.7922   21.5378 N   0  0  0  0  0  0  0  0  0  0  0  0
  -24.6904  -31.4926   23.9090 N   0  0  0  0  0  0  0  0  0  0  0  0
  -26.8437  -18.5283   21.7878 N   0  0  0  0  0  0  0  0  0  0  0  0
  -26.0623  -20.6333   20.9646 N   0  0  0  0  0  0  0  0  0  0  0  0
  -27.4116  -14.6232   19.1827 N   0  0  0  0  0  0  0  0  0  0  0  0
  -29.9265  -11.0379   20.2861 N   0  0  0  0  0  0  0  0  0  0  0  0
  -23.6968  -28.2046   25.1331 N   0  0  0  0  0  0  0  0  0  0  0  0
  -23.9971  -34.7126   23.1289 N   0  0  0  0  0  0  0  0  0  0  0  0
  -26.5743  -37.1099   23.9527 N   0  3  0  0  0  0  0  0  0  0  0  0
  -28.9706  -12.1753   18.5392 O   0  0  0  0  0  0  0  0  0  0  0  0
  -23.6869  -29.2941   23.0751 O   0  0  0  0  0  0  0  0  0  0  0  0
  -22.7700  -32.6020   24.6282 O   0  0  0  0  0  0  0  0  0  0  0  0
  -26.1142  -34.9474   22.2125 O   0  0  0  0  0  0  0  0  0  0  0  0
  -26.7512  -18.9682   19.5267 O   0  0  0  0  0  0  0  0  0  0  0  0
  -31.5327   -9.5968   25.4221 O   0  0  0  0  0  0  0  0  0  0  0  0
  -31.1511  -25.0254   19.1583 O   0  0  0  0  0  0  0  0  0  0  0  0
  -30.1860  -29.4921   21.9194 O   0  0  0  0  0  0  0  0  0  1  0  0
  -26.1873  -26.2199   21.0829 O   0  0  0  0  0  0  0  0  0  0  0  0
  -30.8337   -4.1945   24.5672 F   0  0  0  0  0  0  0  0  0  0  0  0
  -32.1928   -8.4476   22.9959 F   0  0  0  0  0  0  0  0  0  0  0  0
  1  2  1  0  0  0  0
  1  5  2  0  0  0  0
  2  6  2  0  0  0  0
  3  8  2  0  0  0  0
  3 16  1  0  0  0  0
  4  9  1  0  0  0  0
  4 16  2  0  0  0  0
  5 18  1  0  0  0  0
  6 20  1  0  0  0  0
  7 10  2  0  0  0  0
  7 19  1  0  0  0  0
  8 23  1  0  0  0  0
  9 23  2  0  0  0  0
 10 24  1  0  0  0  0
 11 12  2  0  0  0  0
 11 25  1  0  0  0  0
 12 27  1  0  0  0  0
 13 21  1  0  0  0  0
 13 24  2  0  0  0  0
 14 22  2  0  0  0  0
 14 26  1  0  0  0  0
 15 27  2  0  0  0  0
 15 28  1  0  0  0  0
 16 29  1  0  0  0  0
 17 29  1  0  0  0  0
 17 32  2  0  0  0  0
 17 33  1  0  0  0  0
 18 20  2  0  0  0  0
 18 38  1  0  0  0  0
 19 21  2  0  0  0  0
 19 39  1  0  0  0  0
 20 51  1  0  0  0  0
 21 40  1  0  0  0  0
 22 31  1  0  0  0  0
 22 50  1  0  0  0  0
 23 85  1  0  0  0  0
 24 87  1  0  0  0  0
 25 28  2  0  0  0  0
 25 85  1  0  0  0  0
 26 30  2  0  0  0  0
 26 86  1  0  0  0  0
 27 89  1  0  0  0  0
 28 90  1  0  0  0  0
 29 69  2  0  0  0  0
 30 63  1  0  0  0  0
 30 70  1  0  0  0  0
 31 70  2  0  0  0  0
 31 88  1  0  0  0  0
 32 71  1  0  0  0  0
 32 75  1  0  0  0  0
 33 76  1  0  0  0  0
 33 80  2  0  0  0  0
 34 52  1  0  0  0  0
 34 77  1  0  0  0  0
 34 81  2  0  0  0  0
 35 66  1  0  0  0  0
 35 72  1  0  0  0  0
 35 82  2  0  0  0  0
 36 67  1  0  0  0  0
 36 78  1  0  0  0  0
 36 83  2  0  0  0  0
 37 73  1  0  0  0  0
 37 74  1  0  0  0  0
 37 84  2  0  0  0  0
 38 41  1  0  0  0  0
 39 52  1  0  0  0  0
 40 72  1  0  0  0  0
 41 43  1  0  0  0  0
 42 44  1  0  0  0  0
 42 46  1  0  0  0  0
 43 51  1  0  0  0  0
 44 54  1  0  0  0  0
 45 47  1  0  0  0  0
 45 50  1  0  0  0  0
 46 73  1  0  0  0  0
 47 74  1  0  0  0  0
 48 53  1  0  0  0  0
 48 74  1  0  0  0  0
 49 54  1  0  0  0  0
 49 73  1  0  0  0  0
 50 53  1  0  0  0  0
 51 77  1  0  0  0  0
 52 72  1  0  0  0  0
 53 55  1  0  0  0  0
 54 71  1  0  0  0  0
 56 67  1  0  0  0  0
 57 68  1  0  0  0  0
 58 68  1  0  0  0  0
 59 68  1  0  0  0  0
 60 79  1  0  0  0  0
 61 86  1  0  0  0  0
 62 88  1  0  0  0  0
 63 64  1  0  0  0  0
 64 65  1  0  0  0  0
 65 87  1  0  0  0  0
 66 68  1  0  0  0  0
 66 78  1  0  0  0  0
 67 79  1  0  0  0  0
 69 71  1  0  0  0  0
M  CHG  1  79   1
M  ISO  4  37 100  65 101  74 100  87 101
M  END
> <Batch ID>
0154

> <Smiles>
CNC(C)C(=O)NC(C(=O)N1Cc2cc([101O:1][101CH2:1]CCc3nc(OC)c(C4CC[100N:0]([100C:0](=O)N5CCCC(n6nc(-c7ccc(Oc8ccc(F)cc8F)cc7)c(C(N)=O)c6N)C5)CC4C)cc3OC)ccc2CC1C(=O)NC1CCCc2ccccc21)C(C)(C)C

> <Shape>
0.195

> <Color>
0.099

> <Negative vol penalty>
0.000

$$$$

  -OEChem-04052321513D

 92101  0     1  0  0  0  0  0999 V2000
  -19.6699  -29.9539   20.1346 C   0  0  0  0  0  0  0  0  0  0  0  0
  -20.7331  -29.3672   20.8134 C   0  0  0  0  0  0  0  0  0  0  0  0
  -23.1921   -9.8451   19.9309 C   0  0  0  0  0  0  0  0  0  0  0  0
  -23.5828  -10.0116   22.3093 C   0  0  0  0  0  0  0  0  0  0  0  0
  -18.4220  -30.0527   20.7485 C   0  0  0  0  0  0  0  0  0  0  0  0
  -20.5493  -28.8799   22.1069 C   0  0  0  0  0  0  0  0  0  0  0  0
  -22.6390  -24.3163   22.7790 C   0  0  0  0  0  0  0  0  0  0  0  0
  -22.4362   -8.6909   20.1359 C   0  0  0  0  0  0  0  0  0  0  0  0
  -22.8267   -8.8574   22.5143 C   0  0  0  0  0  0  0  0  0  0  0  0
  -24.0199  -24.2695   22.9654 C   0  0  0  0  0  0  0  0  0  0  0  0
  -23.2527   -5.5160   22.2240 C   0  0  0  0  0  0  0  0  0  0  0  0
  -23.7637   -4.5524   23.0935 C   0  0  0  0  0  0  0  0  0  0  0  0
  -29.0189  -18.4054   24.6502 C   0  0  0  0  0  0  0  0  0  0  0  0
  -23.6855  -24.0580   25.3450 C   0  0  0  0  0  0  0  0  0  0  0  0
  -30.8069  -16.8087   26.0771 C   0  0  0  0  0  0  0  0  0  0  0  0
  -21.8132   -4.7870   24.4998 C   0  0  0  0  0  0  0  0  0  0  0  0
  -23.7655  -10.5054   21.0177 C   0  0  0  0  0  0  0  0  0  0  0  0
  -24.0829  -13.0263   20.7900 C   0  0  0  0  0  0  0  0  0  0  0  0
  -18.2202  -29.5576   22.0465 C   0  0  0  0  0  0  0  0  0  0  0  0
  -21.7698  -24.2451   23.8770 C   0  0  0  0  0  0  0  0  0  0  0  0
  -19.2978  -28.9733   22.7392 C   0  0  0  0  0  0  0  0  0  0  0  0
  -29.7536  -18.9506   25.7030 C   0  0  0  0  0  0  0  0  0  0  0  0
  -22.2939  -24.1015   25.1696 C   0  0  0  0  0  0  0  0  0  0  0  0
  -30.6476  -18.1522   26.4165 C   0  0  0  0  0  0  0  0  0  0  0  0
  -29.1781  -17.0618   24.3108 C   0  0  0  0  0  0  0  0  0  0  0  0
  -22.2534   -8.1971   21.4275 C   0  0  0  0  0  0  0  0  0  0  0  0
  -24.5434  -24.1433   24.2488 C   0  0  0  0  0  0  0  0  0  0  0  0
  -22.0219   -6.1151   22.4925 C   0  0  0  0  0  0  0  0  0  0  0  0
  -30.0721  -16.2634   25.0243 C   0  0  0  0  0  0  0  0  0  0  0  0
  -23.0440   -4.1879   24.2314 C   0  0  0  0  0  0  0  0  0  0  0  0
  -21.3022   -5.7506   23.6304 C   0  0  0  0  0  0  0  0  0  0  0  0
  -24.5470  -11.6973   20.8066 C   0  0  0  0  0  0  0  0  0  0  0  0
  -25.2068  -13.7795   20.5535 C   0  0  0  0  0  0  0  0  0  0  0  0
  -22.7547  -13.5345   20.9721 C   0  0  0  0  0  0  0  0  0  0  0  0
  -19.5945  -26.1850   25.1454 C   0  0  0  0  0  0  0  0  0  0  0  0
  -19.0008  -23.6328   27.0575 C   0  0  0  0  0  0  0  0  0  0  0  0
  -20.1383  -20.7376   28.4614 C   0  0  0  0  0  0  0  0  0  0  0  0
  -31.0351  -12.8284   21.5422 C   0  0  0  0  0  0  0  0  0  0  0  0
  -16.8655  -29.7296   22.6866 C   0  0  0  0  0  0  0  0  0  0  0  0
  -20.2821  -24.2700   23.6567 C   0  0  0  0  0  0  0  0  0  0  0  0
  -21.4031  -24.0006   26.3799 C   0  0  0  0  0  0  0  0  0  0  0  0
  -16.6575  -28.8511   23.9176 C   0  0  0  0  0  0  0  0  0  0  0  0
  -29.4840  -13.5559   18.4211 C   0  0  0  0  0  0  0  0  0  0  0  0
  -17.8710  -28.9268   24.8387 C   0  0  0  0  0  0  0  0  0  0  0  0
  -28.0009  -13.2820   18.6770 C   0  0  0  0  0  0  0  0  0  0  0  0
  -29.9523  -21.2812   24.8570 C   0  0  0  0  0  0  0  0  0  0  0  0
  -28.1093  -20.6530   26.4680 C   0  0  0  0  0  0  0  0  0  0  0  0
  -30.3774  -12.5682   19.1682 C   0  0  0  0  0  0  0  0  0  0  0  0
  -28.6365  -12.1995   20.8732 C   0  0  0  0  0  0  0  0  0  0  0  0
  -29.6933  -22.7535   25.1499 C   0  0  0  0  0  0  0  0  0  0  0  0
  -27.8646  -22.1301   26.7488 C   0  0  0  0  0  0  0  0  0  0  0  0
  -29.5654  -20.3922   26.0499 C   0  0  0  0  0  0  0  0  0  0  0  0
  -19.1315  -28.4107   24.1341 C   0  0  1  0  0  0  0  0  0  0  0  0
  -19.5022  -24.7067   24.8931 C   0  0  1  0  0  0  0  0  0  0  0  0
  -27.6971  -13.2048   20.1854 C   0  0  2  0  0  0  0  0  0  0  0  0
  -31.4439  -18.7127   27.5490 C   0  0  0  0  0  0  0  0  0  0  0  0
  -19.4376  -18.8909   30.0093 C   0  0  0  0  0  0  0  0  0  0  0  0
  -25.9725  -26.0700   25.8178 C   0  0  0  0  0  0  0  0  0  0  0  0
  -19.3914  -25.4903   29.4465 C   0  0  0  0  0  0  0  0  0  0  0  0
  -19.6268  -23.4625   30.8960 C   0  0  0  0  0  0  0  0  0  0  0  0
  -17.4913  -23.8805   29.6764 C   0  0  0  0  0  0  0  0  0  0  0  0
  -28.0059  -17.3013   22.1212 C   0  0  0  0  0  0  0  0  0  0  0  0
  -20.4673  -18.6878   26.3522 C   0  0  0  0  0  0  0  0  0  0  0  0
  -31.5373  -13.0663   23.9610 C   0  0  0  0  0  0  0  0  0  0  0  0
  -27.9041  -24.3964   25.7109 C   0  0  0  0  0  0  0  0  0  0  0  0
  -31.5539  -14.5408   24.3224 C   0  0  0  0  0  0  0  0  0  0  0  0
  -19.5338  -23.1424   28.3821 C   0  0  1  0  0  0  0  0  0  0  0  0
  -19.5177  -19.3560   28.5636 C   0  0  2  0  0  0  0  0  0  0  0  0
  -26.3954  -24.6149   25.6643 C   0  0  2  0  0  0  0  0  0  1  0  0
  -19.0279  -23.9977   29.5778 C   0  0  0  0  0  0  0  0  0  0  0  0
  -25.8632  -11.6081   20.5972 N   0  0  0  0  0  0  0  0  0  0  0  0
  -26.2357  -12.8906   20.4466 N   0  0  0  0  0  0  0  0  0  0  0  0
  -19.9556  -24.0361   26.1133 N   0  0  0  0  0  0  0  0  0  0  0  0
  -30.0393  -12.5442   20.5933 N   0  0  0  0  0  0  0  0  0  0  0  0
  -25.4055  -15.1089   20.4285 N   0  0  0  0  0  0  0  0  0  0  0  0
  -21.7165  -12.6223   21.2057 N   0  0  0  0  0  0  0  0  0  0  0  0
  -28.4284  -16.5223   23.2426 N   0  0  0  0  0  0  0  0  0  0  0  0
  -19.1351  -26.9639   24.1005 N   0  0  0  0  0  0  0  0  0  0  0  0
  -19.1804  -21.7294   28.4663 N   0  0  0  0  0  0  0  0  0  0  0  0
  -30.6288  -12.7904   22.8704 N   0  0  0  0  0  0  0  0  0  0  0  0
  -28.2409  -22.9615   25.5365 N   0  3  0  0  0  0  0  0  0  0  0  0
  -20.3260  -18.3670   27.7958 N   0  3  0  0  0  0  0  0  0  0  0  0
  -22.4934  -14.7599   20.9126 O   0  0  0  0  0  0  0  0  0  0  0  0
  -20.0476  -26.5891   26.2099 O   0  0  0  0  0  0  0  0  0  0  0  0
  -17.7825  -23.6505   26.8651 O   0  0  0  0  0  0  0  0  0  0  0  0
  -21.3517  -20.9191   28.3886 O   0  0  0  0  0  0  0  0  0  0  0  0
  -32.1988  -13.1015   21.2287 O   0  0  0  0  0  0  0  0  0  0  0  0
  -21.5156   -7.0710   21.6279 O   0  0  0  0  0  0  0  0  0  0  0  0
  -30.2430  -14.9487   24.7076 O   0  0  0  0  0  0  0  0  0  0  0  0
  -25.8909  -24.0980   24.4336 O   0  0  0  0  0  0  0  0  0  1  0  0
  -23.5341   -3.2614   25.0654 F   0  0  0  0  0  0  0  0  0  0  0  0
  -20.1188   -6.3219   23.8929 F   0  0  0  0  0  0  0  0  0  0  0  0
  1  2  1  0  0  0  0
  1  5  2  0  0  0  0
  2  6  2  0  0  0  0
  3  8  2  0  0  0  0
  3 17  1  0  0  0  0
  4  9  1  0  0  0  0
  4 17  2  0  0  0  0
  5 19  1  0  0  0  0
  6 21  1  0  0  0  0
  7 10  2  0  0  0  0
  7 20  1  0  0  0  0
  8 26  1  0  0  0  0
  9 26  2  0  0  0  0
 10 27  1  0  0  0  0
 11 12  2  0  0  0  0
 11 28  1  0  0  0  0
 12 30  1  0  0  0  0
 13 22  2  0  0  0  0
 13 25  1  0  0  0  0
 14 23  1  0  0  0  0
 14 27  2  0  0  0  0
 15 24  2  0  0  0  0
 15 29  1  0  0  0  0
 16 30  2  0  0  0  0
 16 31  1  0  0  0  0
 17 32  1  0  0  0  0
 18 32  1  0  0  0  0
 18 33  2  0  0  0  0
 18 34  1  0  0  0  0
 19 21  2  0  0  0  0
 19 39  1  0  0  0  0
 20 23  2  0  0  0  0
 20 40  1  0  0  0  0
 21 53  1  0  0  0  0
 22 24  1  0  0  0  0
 22 52  1  0  0  0  0
 23 41  1  0  0  0  0
 24 56  1  0  0  0  0
 25 29  2  0  0  0  0
 25 77  1  0  0  0  0
 26 88  1  0  0  0  0
 27 90  1  0  0  0  0
 28 31  2  0  0  0  0
 28 88  1  0  0  0  0
 29 89  1  0  0  0  0
 30 91  1  0  0  0  0
 31 92  1  0  0  0  0
 32 71  2  0  0  0  0
 33 72  1  0  0  0  0
 33 75  1  0  0  0  0
 34 76  1  0  0  0  0
 34 83  2  0  0  0  0
 35 54  1  0  0  0  0
 35 78  1  0  0  0  0
 35 84  2  0  0  0  0
 36 67  1  0  0  0  0
 36 73  1  0  0  0  0
 36 85  2  0  0  0  0
 37 68  1  0  0  0  0
 37 79  1  0  0  0  0
 37 86  2  0  0  0  0
 38 74  1  0  0  0  0
 38 80  1  0  0  0  0
 38 87  2  0  0  0  0
 39 42  1  0  0  0  0
 40 54  1  0  0  0  0
 41 73  1  0  0  0  0
 42 44  1  0  0  0  0
 43 45  1  0  0  0  0
 43 48  1  0  0  0  0
 44 53  1  0  0  0  0
 45 55  1  0  0  0  0
 46 50  1  0  0  0  0
 46 52  1  0  0  0  0
 47 51  1  0  0  0  0
 47 52  1  0  0  0  0
 48 74  1  0  0  0  0
 49 55  1  0  0  0  0
 49 74  1  0  0  0  0
 50 81  1  0  0  0  0
 51 81  1  0  0  0  0
 53 78  1  0  0  0  0
 54 73  1  0  0  0  0
 55 72  1  0  0  0  0
 57 68  1  0  0  0  0
 58 69  1  0  0  0  0
 59 70  1  0  0  0  0
 60 70  1  0  0  0  0
 61 70  1  0  0  0  0
 62 77  1  0  0  0  0
 63 82  1  0  0  0  0
 64 66  1  0  0  0  0
 64 80  1  0  0  0  0
 65 69  1  0  0  0  0
 65 81  1  0  0  0  0
 66 89  1  0  0  0  0
 67 70  1  0  0  0  0
 67 79  1  0  0  0  0
 68 82  1  0  0  0  0
 69 90  1  0  0  0  0
 71 72  1  0  0  0  0
M  CHG  2  81   1  82   1
M  ISO  4  38 100  69 101  80 100  90 101
M  END
> <Batch ID>
0154

> <Smiles>
CNc1cc(C2CCN(C[101CH:1](C)[101O:1]c3ccc4c(c3)CN(C(=O)C(NC(=O)C(C)NC)C(C)(C)C)C(C(=O)NC3CCCc5ccccc53)C4)CC2)c(C)cc1OCC[100NH:0][100C:0](=O)N1CCCC(n2nc(-c3ccc(Oc4ccc(F)cc4F)cc3)c(C(N)=O)c2N)C1

> <Shape>
0.183

> <Color>
0.192

> <Negative vol penalty>
0.000

$$$$

  -OEChem-04052321513D

 90 99  0     1  0  0  0  0  0999 V2000
  -27.5200  -32.2196   27.2878 C   0  0  0  0  0  0  0  0  0  0  0  0
  -27.7668  -31.1965   26.3780 C   0  0  0  0  0  0  0  0  0  0  0  0
  -22.6294  -10.5068   20.7690 C   0  0  0  0  0  0  0  0  0  0  0  0
  -24.4889   -9.1886   21.5702 C   0  0  0  0  0  0  0  0  0  0  0  0
  -26.2092  -32.5289   27.6486 C   0  0  0  0  0  0  0  0  0  0  0  0
  -26.7029  -30.4814   25.8292 C   0  0  0  0  0  0  0  0  0  0  0  0
  -27.1875  -29.8061   20.8338 C   0  0  0  0  0  0  0  0  0  0  0  0
  -21.7736   -9.8257   21.6345 C   0  0  0  0  0  0  0  0  0  0  0  0
  -23.6330   -8.5075   22.4358 C   0  0  0  0  0  0  0  0  0  0  0  0
  -28.0665  -28.8112   20.4081 C   0  0  0  0  0  0  0  0  0  0  0  0
  -21.3644   -6.0083   22.2408 C   0  0  0  0  0  0  0  0  0  0  0  0
  -21.4835   -4.6203   22.3107 C   0  0  0  0  0  0  0  0  0  0  0  0
  -26.2012  -27.3228   20.0548 C   0  0  0  0  0  0  0  0  0  0  0  0
  -27.9700  -18.3516   22.6939 C   0  0  0  0  0  0  0  0  0  0  0  0
  -26.3091  -19.5743   23.9522 C   0  0  0  0  0  0  0  0  0  0  0  0
  -21.9936   -4.7827   24.6666 C   0  0  0  0  0  0  0  0  0  0  0  0
  -23.9871  -10.1882   20.7367 C   0  0  0  0  0  0  0  0  0  0  0  0
  -24.7899  -10.9498   18.4382 C   0  0  0  0  0  0  0  0  0  0  0  0
  -25.1282  -31.8236   27.0966 C   0  0  0  0  0  0  0  0  0  0  0  0
  -25.8073  -29.5628   20.8837 C   0  0  0  0  0  0  0  0  0  0  0  0
  -25.3765  -30.7806   26.1839 C   0  0  0  0  0  0  0  0  0  0  0  0
  -25.3066  -28.3171   20.4791 C   0  0  0  0  0  0  0  0  0  0  0  0
  -27.4744  -19.5591   23.1857 C   0  0  0  0  0  0  0  0  0  0  0  0
  -27.3002  -17.1592   22.9686 C   0  0  0  0  0  0  0  0  0  0  0  0
  -22.2754   -8.8260   22.4680 C   0  0  0  0  0  0  0  0  0  0  0  0
  -27.5736  -27.5683   20.0213 C   0  0  0  0  0  0  0  0  0  0  0  0
  -21.5600   -6.7835   23.3838 C   0  0  0  0  0  0  0  0  0  0  0  0
  -25.6394  -18.3820   24.2269 C   0  0  0  0  0  0  0  0  0  0  0  0
  -26.1350  -17.1744   23.7351 C   0  0  0  0  0  0  0  0  0  0  0  0
  -21.7981   -4.0075   23.5236 C   0  0  0  0  0  0  0  0  0  0  0  0
  -21.8746   -6.1708   24.5967 C   0  0  0  0  0  0  0  0  0  0  0  0
  -24.8716  -10.8910   19.8424 C   0  0  0  0  0  0  0  0  0  0  0  0
  -25.8525  -11.7360   18.0651 C   0  0  0  0  0  0  0  0  0  0  0  0
  -23.8387  -10.3475   17.5505 C   0  0  0  0  0  0  0  0  0  0  0  0
  -23.6197  -29.5162   23.1893 C   0  0  0  0  0  0  0  0  0  0  0  0
  -21.5733  -29.1173   20.7043 C   0  0  0  0  0  0  0  0  0  0  0  0
  -21.0886  -28.0879   17.4868 C   0  0  0  0  0  0  0  0  0  0  0  0
  -28.9619  -15.7577   21.6822 C   0  0  0  0  0  0  0  0  0  0  0  0
  -23.7313  -32.1625   27.5530 C   0  0  0  0  0  0  0  0  0  0  0  0
  -24.8701  -30.6554   21.3198 C   0  0  0  0  0  0  0  0  0  0  0  0
  -23.8317  -28.0122   20.4949 C   0  0  0  0  0  0  0  0  0  0  0  0
  -22.6408  -31.6059   26.6413 C   0  0  0  0  0  0  0  0  0  0  0  0
  -30.2401  -12.8459   19.7991 C   0  0  0  0  0  0  0  0  0  0  0  0
  -22.9214  -30.1451   26.3036 C   0  0  0  0  0  0  0  0  0  0  0  0
  -28.8241  -22.8586   19.5887 C   0  0  0  0  0  0  0  0  0  0  0  0
  -27.5658  -23.5616   21.6668 C   0  0  0  0  0  0  0  0  0  0  0  0
  -29.0096  -12.1267   19.2441 C   0  0  0  0  0  0  0  0  0  0  0  0
  -29.1147  -24.3229   19.2739 C   0  0  0  0  0  0  0  0  0  0  0  0
  -27.8594  -25.0241   21.3458 C   0  0  0  0  0  0  0  0  0  0  0  0
  -30.0340  -14.3475   19.9422 C   0  0  0  0  0  0  0  0  0  0  0  0
  -27.7023  -13.7858   20.6621 C   0  0  0  0  0  0  0  0  0  0  0  0
  -24.2478  -29.9985   25.5481 C   0  0  1  0  0  0  0  0  0  0  0  0
  -23.5288  -30.1277   21.8199 C   0  0  1  0  0  0  0  0  0  0  0  0
  -28.6436  -22.6297   21.0958 C   0  0  0  0  0  0  0  0  0  0  0  0
  -27.7192  -12.9537   19.3703 C   0  0  2  0  0  0  0  0  0  0  0  0
  -28.0427  -25.2466   19.8461 C   0  0  0  0  0  0  0  0  0  1  0  0
  -29.6041  -20.8422   23.5153 C   0  0  0  0  0  0  0  0  0  0  0  0
  -19.2996  -27.8490   15.7433 C   0  0  0  0  0  0  0  0  0  0  0  0
  -20.5012  -26.6510   22.1458 C   0  0  0  0  0  0  0  0  0  0  0  0
  -19.4391  -25.9402   19.9929 C   0  0  0  0  0  0  0  0  0  0  0  0
  -18.7483  -28.0784   21.0762 C   0  0  0  0  0  0  0  0  0  0  0  0
  -22.4746  -29.9431   15.6440 C   0  0  0  0  0  0  0  0  0  0  0  0
  -24.0642  -19.6873   25.4397 C   0  0  0  0  0  0  0  0  0  0  0  0
  -24.4692  -15.6071   23.0836 C   0  0  0  0  0  0  0  0  0  0  0  0
  -28.3004  -21.1690   21.3821 C   0  0  0  0  0  0  0  0  0  0  0  0
  -28.2047  -20.8575   22.8882 C   0  0  1  0  0  0  0  0  0  0  0  0
  -21.0125  -27.9288   19.9614 C   0  0  1  0  0  0  0  0  0  0  0  0
  -20.3865  -28.7470   16.3133 C   0  0  2  0  0  0  0  0  0  0  0  0
  -19.9533  -27.1544   20.7955 C   0  0  0  0  0  0  0  0  0  0  0  0
  -25.9044  -11.5846   20.3283 N   0  0  0  0  0  0  0  0  0  0  0  0
  -26.4817  -12.0865   19.2234 N   0  0  0  0  0  0  0  0  0  0  0  0
  -22.9562  -29.1109   20.9353 N   0  0  0  0  0  0  0  0  0  0  0  0
  -28.8850  -14.6529   20.7995 N   0  0  0  0  0  0  0  0  0  0  0  0
  -26.3008  -12.1548   16.8626 N   0  0  0  0  0  0  0  0  0  0  0  0
  -24.1074   -9.0649   17.0536 N   0  0  0  0  0  0  0  0  0  0  0  0
  -27.8162  -15.9411   22.4605 N   0  0  0  0  0  0  0  0  0  0  0  0
  -24.0847  -30.3808   24.1618 N   0  0  0  0  0  0  0  0  0  0  0  0
  -20.5138  -28.4407   18.6895 N   0  0  0  0  0  0  0  0  0  0  0  0
  -21.3630  -29.0493   15.2288 N   0  3  0  0  0  0  0  0  0  0  0  0
  -22.7895  -10.9362   17.1952 O   0  0  0  0  0  0  0  0  0  0  0  0
  -23.2910  -28.3469   23.3519 O   0  0  0  0  0  0  0  0  0  0  0  0
  -20.8134  -30.0215   21.0601 O   0  0  0  0  0  0  0  0  0  0  0  0
  -22.0483  -27.3325   17.3500 O   0  0  0  0  0  0  0  0  0  0  0  0
  -29.9688  -16.4664   21.7465 O   0  0  0  0  0  0  0  0  0  0  0  0
  -21.4406   -8.1614   23.3129 O   0  0  0  0  0  0  0  0  0  0  0  0
  -28.4295  -26.5952   19.6059 O   0  0  0  0  0  0  0  0  0  1  0  0
  -24.5021  -18.4115   24.9763 O   0  0  0  0  0  0  0  0  0  0  0  0
  -25.4743  -16.0124   24.0092 O   0  0  0  0  0  0  0  0  0  0  0  0
  -21.9109   -2.6745   23.5909 F   0  0  0  0  0  0  0  0  0  0  0  0
  -22.0624   -6.9102   25.6984 F   0  0  0  0  0  0  0  0  0  0  0  0
  1  2  1  0  0  0  0
  1  5  2  0  0  0  0
  2  6  2  0  0  0  0
  3  8  2  0  0  0  0
  3 17  1  0  0  0  0
  4  9  1  0  0  0  0
  4 17  2  0  0  0  0
  5 19  1  0  0  0  0
  6 21  1  0  0  0  0
  7 10  2  0  0  0  0
  7 20  1  0  0  0  0
  8 25  1  0  0  0  0
  9 25  2  0  0  0  0
 10 26  1  0  0  0  0
 11 12  2  0  0  0  0
 11 27  1  0  0  0  0
 12 30  1  0  0  0  0
 13 22  1  0  0  0  0
 13 26  2  0  0  0  0
 14 23  1  0  0  0  0
 14 24  2  0  0  0  0
 15 23  2  0  0  0  0
 15 28  1  0  0  0  0
 16 30  2  0  0  0  0
 16 31  1  0  0  0  0
 17 32  1  0  0  0  0
 18 32  1  0  0  0  0
 18 33  2  0  0  0  0
 18 34  1  0  0  0  0
 19 21  2  0  0  0  0
 19 39  1  0  0  0  0
 20 22  2  0  0  0  0
 20 40  1  0  0  0  0
 21 52  1  0  0  0  0
 22 41  1  0  0  0  0
 23 66  1  0  0  0  0
 24 29  1  0  0  0  0
 24 76  1  0  0  0  0
 25 85  1  0  0  0  0
 26 86  1  0  0  0  0
 27 31  2  0  0  0  0
 27 85  1  0  0  0  0
 28 29  2  0  0  0  0
 28 87  1  0  0  0  0
 29 88  1  0  0  0  0
 30 89  1  0  0  0  0
 31 90  1  0  0  0  0
 32 70  2  0  0  0  0
 33 71  1  0  0  0  0
 33 74  1  0  0  0  0
 34 75  1  0  0  0  0
 34 80  2  0  0  0  0
 35 53  1  0  0  0  0
 35 77  1  0  0  0  0
 35 81  2  0  0  0  0
 36 67  1  0  0  0  0
 36 72  1  0  0  0  0
 36 82  2  0  0  0  0
 37 68  1  0  0  0  0
 37 78  1  0  0  0  0
 37 83  2  0  0  0  0
 38 73  1  0  0  0  0
 38 76  1  0  0  0  0
 38 84  2  0  0  0  0
 39 42  1  0  0  0  0
 40 53  1  0  0  0  0
 41 72  1  0  0  0  0
 42 44  1  0  0  0  0
 43 47  1  0  0  0  0
 43 50  1  0  0  0  0
 44 52  1  0  0  0  0
 45 48  1  0  0  0  0
 45 54  1  0  0  0  0
 46 49  1  0  0  0  0
 46 54  1  0  0  0  0
 47 55  1  0  0  0  0
 48 56  1  0  0  0  0
 49 56  1  0  0  0  0
 50 73  1  0  0  0  0
 51 55  1  0  0  0  0
 51 73  1  0  0  0  0
 52 77  1  0  0  0  0
 53 72  1  0  0  0  0
 54 65  1  0  0  0  0
 55 71  1  0  0  0  0
 56 86  1  0  0  0  0
 57 66  1  0  0  0  0
 58 68  1  0  0  0  0
 59 69  1  0  0  0  0
 60 69  1  0  0  0  0
 61 69  1  0  0  0  0
 62 79  1  0  0  0  0
 63 87  1  0  0  0  0
 64 88  1  0  0  0  0
 65 66  1  0  0  0  0
 67 69  1  0  0  0  0
 67 78  1  0  0  0  0
 68 79  1  0  0  0  0
 70 71  1  0  0  0  0
M  CHG  1  79   1
M  ISO  4  38 100  56 101  76 100  86 101
M  END
> <Batch ID>
0154

> <Smiles>
CNC(C)C(=O)NC(C(=O)N1Cc2cc([101O:1][101CH:1]3CCC(CC(C)c4cc([100NH:0][100C:0](=O)N5CCCC(n6nc(-c7ccc(Oc8ccc(F)cc8F)cc7)c(C(N)=O)c6N)C5)c(OC)c(OC)c4)CC3)ccc2CC1C(=O)NC1CCCc2ccccc21)C(C)(C)C

> <Shape>
0.302

> <Color>
0.112

> <Negative vol penalty>
0.000

$$$$

  -OEChem-04052321513D

 85 94  0     1  0  0  0  0  0999 V2000
  -20.5389   -7.4356   23.0994 C   0  0  0  0  0  0  0  0  0  0  0  0
  -21.5177   -8.2679   23.6328 C   0  0  0  0  0  0  0  0  0  0  0  0
  -26.4892  -29.5260   19.4490 C   0  0  0  0  0  0  0  0  0  0  0  0
  -26.1047  -28.7410   21.7013 C   0  0  0  0  0  0  0  0  0  0  0  0
  -20.6793   -6.9368   21.8051 C   0  0  0  0  0  0  0  0  0  0  0  0
  -22.6381   -8.6011   22.8725 C   0  0  0  0  0  0  0  0  0  0  0  0
  -23.7725  -13.5292   23.1409 C   0  0  0  0  0  0  0  0  0  0  0  0
  -25.3127  -30.2730   19.5085 C   0  0  0  0  0  0  0  0  0  0  0  0
  -24.9283  -29.4881   21.7609 C   0  0  0  0  0  0  0  0  0  0  0  0
  -24.4296  -13.9697   24.2889 C   0  0  0  0  0  0  0  0  0  0  0  0
  -21.6380  -30.9040   22.3768 C   0  0  0  0  0  0  0  0  0  0  0  0
  -20.5046  -30.2874   22.9067 C   0  0  0  0  0  0  0  0  0  0  0  0
  -27.9546  -21.1426   23.9426 C   0  0  0  0  0  0  0  0  0  0  0  0
  -26.5263  -13.9306   23.0966 C   0  0  0  0  0  0  0  0  0  0  0  0
  -27.9119  -19.4543   22.2149 C   0  0  0  0  0  0  0  0  0  0  0  0
  -20.6127  -28.6032   21.1779 C   0  0  0  0  0  0  0  0  0  0  0  0
  -26.8851  -28.7599   20.5454 C   0  0  0  0  0  0  0  0  0  0  0  0
  -29.3930  -28.4064   20.8512 C   0  0  0  0  0  0  0  0  0  0  0  0
  -21.7973   -7.2718   21.0250 C   0  0  0  0  0  0  0  0  0  0  0  0
  -24.4902  -13.2752   21.9632 C   0  0  0  0  0  0  0  0  0  0  0  0
  -22.7942   -8.1053   21.5670 C   0  0  0  0  0  0  0  0  0  0  0  0
  -27.3906  -20.2372   24.8413 C   0  0  0  0  0  0  0  0  0  0  0  0
  -25.8756  -13.4894   21.9343 C   0  0  0  0  0  0  0  0  0  0  0  0
  -27.3480  -18.5489   23.1137 C   0  0  0  0  0  0  0  0  0  0  0  0
  -28.2152  -20.7512   22.6293 C   0  0  0  0  0  0  0  0  0  0  0  0
  -24.5323  -30.2541   20.6645 C   0  0  0  0  0  0  0  0  0  0  0  0
  -25.8071  -14.1677   24.2678 C   0  0  0  0  0  0  0  0  0  0  0  0
  -22.2588  -30.3702   21.2474 C   0  0  0  0  0  0  0  0  0  0  0  0
  -27.0873  -18.9404   24.4269 C   0  0  0  0  0  0  0  0  0  0  0  0
  -19.9920  -29.1370   22.3073 C   0  0  0  0  0  0  0  0  0  0  0  0
  -21.7461  -29.2198   20.6480 C   0  0  0  0  0  0  0  0  0  0  0  0
  -28.1000  -27.9876   20.4843 C   0  0  0  0  0  0  0  0  0  0  0  0
  -30.1897  -27.3145   20.6075 C   0  0  0  0  0  0  0  0  0  0  0  0
  -29.8344  -29.6696   21.3663 C   0  0  0  0  0  0  0  0  0  0  0  0
  -25.0088  -10.7081   20.1619 C   0  0  0  0  0  0  0  0  0  0  0  0
  -26.4604  -12.8527   18.2085 C   0  0  0  0  0  0  0  0  0  0  0  0
  -28.0278  -15.8652   17.8696 C   0  0  0  0  0  0  0  0  0  0  0  0
  -29.1084  -21.4423   20.3775 C   0  0  0  0  0  0  0  0  0  0  0  0
  -21.9284   -6.6701   19.6482 C   0  0  0  0  0  0  0  0  0  0  0  0
  -23.7628  -12.8260   20.7257 C   0  0  0  0  0  0  0  0  0  0  0  0
  -26.6891  -13.2506   20.6894 C   0  0  0  0  0  0  0  0  0  0  0  0
  -22.9623   -7.3731   18.7722 C   0  0  0  0  0  0  0  0  0  0  0  0
  -30.4938  -23.4554   17.7880 C   0  0  0  0  0  0  0  0  0  0  0  0
  -25.7241  -20.5332   26.7930 C   0  0  0  0  0  0  0  0  0  0  0  0
  -26.2650  -21.8924   26.4759 C   0  0  0  0  0  0  0  0  0  0  0  0
  -24.2535   -7.6035   19.5509 C   0  0  0  0  0  0  0  0  0  0  0  0
  -30.1602  -24.8845   18.2221 C   0  0  0  0  0  0  0  0  0  0  0  0
  -29.3701  -22.4803   18.1349 C   0  0  0  0  0  0  0  0  0  0  0  0
  -28.6061  -23.9321   19.9728 C   0  0  0  0  0  0  0  0  0  0  0  0
  -27.1182  -20.6741   26.2425 C   0  0  0  0  0  0  0  0  0  0  0  0
  -24.0118   -8.5094   20.7643 C   0  0  1  0  0  0  0  0  0  0  0  0
  -24.6665  -12.1058   19.7297 C   0  0  1  0  0  0  0  0  0  0  0  0
  -29.7360  -24.9392   19.7029 C   0  0  2  0  0  0  0  0  0  0  0  0
  -27.0304  -17.1650   22.6510 C   0  0  0  0  0  0  0  0  0  0  0  0
  -29.1365  -17.3273   16.1578 C   0  0  0  0  0  0  0  0  0  0  0  0
  -28.9239  -11.0536   18.2709 C   0  0  0  0  0  0  0  0  0  0  0  0
  -30.2604  -12.9702   17.3717 C   0  0  0  0  0  0  0  0  0  0  0  0
  -28.3908  -12.0149   16.0246 C   0  0  0  0  0  0  0  0  0  0  0  0
  -26.0690  -18.0432   18.2918 C   0  0  0  0  0  0  0  0  0  0  0  0
  -26.6575  -16.3603   27.0210 C   0  0  0  0  0  0  0  0  0  0  0  0
  -25.7119  -15.4246   26.2845 C   0  0  0  0  0  0  0  0  0  1  0  0
  -27.4347  -17.2519   26.0652 C   0  0  0  0  0  0  0  0  0  0  0  0
  -27.8614  -13.3984   18.0734 C   0  0  1  0  0  0  0  0  0  0  0  0
  -27.8363  -16.9938   16.8726 C   0  0  2  0  0  0  0  0  0  0  0  0
  -28.8444  -12.3620   17.4593 C   0  0  0  0  0  0  0  0  0  0  0  0
  -28.0724  -26.7279   20.0411 N   0  0  0  0  0  0  0  0  0  0  0  0
  -29.3579  -26.3458   20.1278 N   0  0  0  0  0  0  0  0  0  0  0  0
  -25.9332  -12.8060   19.5069 N   0  0  0  0  0  0  0  0  0  0  0  0
  -29.0245  -22.5851   19.5542 N   0  0  0  0  0  0  0  0  0  0  0  0
  -31.5136  -27.0980   20.7588 N   0  0  0  0  0  0  0  0  0  0  0  0
  -28.8844  -30.6824   21.5563 N   0  0  0  0  0  0  0  0  0  0  0  0
  -28.7871  -21.6704   21.7151 N   0  0  0  0  0  0  0  0  0  0  0  0
  -23.9094   -9.8923   20.3502 N   0  0  0  0  0  0  0  0  0  0  0  0
  -27.7454  -14.6367   17.3108 N   0  0  0  0  0  0  0  0  0  0  0  0
  -27.3530  -18.2211   17.5661 N   0  3  0  0  0  0  0  0  0  0  0  0
  -31.0382  -29.8989   21.6341 O   0  0  0  0  0  0  0  0  0  0  0  0
  -26.1834  -10.3926   20.3120 O   0  0  0  0  0  0  0  0  0  0  0  0
  -25.8533  -12.4882   17.1985 O   0  0  0  0  0  0  0  0  0  0  0  0
  -28.3950  -16.0541   19.0272 O   0  0  0  0  0  0  0  0  0  0  0  0
  -29.4672  -20.3482   19.9344 O   0  0  0  0  0  0  0  0  0  0  0  0
  -23.3844  -30.9831   20.7230 O   0  0  0  0  0  0  0  0  0  0  0  0
  -26.4510  -14.5970   25.3871 O   0  0  0  0  0  0  0  0  0  1  0  0
  -26.5336  -18.0495   25.3092 O   0  0  0  0  0  0  0  0  0  0  0  0
  -18.9044  -28.5441   22.8171 F   0  0  0  0  0  0  0  0  0  0  0  0
  -22.3388  -28.7017   19.5635 F   0  0  0  0  0  0  0  0  0  0  0  0
  1  2  1  0  0  0  0
  1  5  2  0  0  0  0
  2  6  2  0  0  0  0
  3  8  2  0  0  0  0
  3 17  1  0  0  0  0
  4  9  1  0  0  0  0
  4 17  2  0  0  0  0
  5 19  1  0  0  0  0
  6 21  1  0  0  0  0
  7 10  2  0  0  0  0
  7 20  1  0  0  0  0
  8 26  1  0  0  0  0
  9 26  2  0  0  0  0
 10 27  1  0  0  0  0
 11 12  2  0  0  0  0
 11 28  1  0  0  0  0
 12 30  1  0  0  0  0
 13 22  1  0  0  0  0
 13 25  2  0  0  0  0
 14 23  1  0  0  0  0
 14 27  2  0  0  0  0
 15 24  2  0  0  0  0
 15 25  1  0  0  0  0
 16 30  2  0  0  0  0
 16 31  1  0  0  0  0
 17 32  1  0  0  0  0
 18 32  1  0  0  0  0
 18 33  2  0  0  0  0
 18 34  1  0  0  0  0
 19 21  2  0  0  0  0
 19 39  1  0  0  0  0
 20 23  2  0  0  0  0
 20 40  1  0  0  0  0
 21 51  1  0  0  0  0
 22 29  2  0  0  0  0
 22 50  1  0  0  0  0
 23 41  1  0  0  0  0
 24 29  1  0  0  0  0
 24 54  1  0  0  0  0
 25 72  1  0  0  0  0
 26 81  1  0  0  0  0
 27 82  1  0  0  0  0
 28 31  2  0  0  0  0
 28 81  1  0  0  0  0
 29 83  1  0  0  0  0
 30 84  1  0  0  0  0
 31 85  1  0  0  0  0
 32 66  2  0  0  0  0
 33 67  1  0  0  0  0
 33 70  1  0  0  0  0
 34 71  1  0  0  0  0
 34 76  2  0  0  0  0
 35 52  1  0  0  0  0
 35 73  1  0  0  0  0
 35 77  2  0  0  0  0
 36 63  1  0  0  0  0
 36 68  1  0  0  0  0
 36 78  2  0  0  0  0
 37 64  1  0  0  0  0
 37 74  1  0  0  0  0
 37 79  2  0  0  0  0
 38 69  1  0  0  0  0
 38 72  1  0  0  0  0
 38 80  2  0  0  0  0
 39 42  1  0  0  0  0
 40 52  1  0  0  0  0
 41 68  1  0  0  0  0
 42 46  1  0  0  0  0
 43 47  1  0  0  0  0
 43 48  1  0  0  0  0
 44 45  1  0  0  0  0
 44 50  1  0  0  0  0
 45 50  1  0  0  0  0
 46 51  1  0  0  0  0
 47 53  1  0  0  0  0
 48 69  1  0  0  0  0
 49 53  1  0  0  0  0
 49 69  1  0  0  0  0
 51 73  1  0  0  0  0
 52 68  1  0  0  0  0
 53 67  1  0  0  0  0
 55 64  1  0  0  0  0
 56 65  1  0  0  0  0
 57 65  1  0  0  0  0
 58 65  1  0  0  0  0
 59 75  1  0  0  0  0
 60 61  1  0  0  0  0
 60 62  1  0  0  0  0
 61 82  1  0  0  0  0
 62 83  1  0  0  0  0
 63 65  1  0  0  0  0
 63 74  1  0  0  0  0
 64 75  1  0  0  0  0
 66 67  1  0  0  0  0
M  CHG  1  75   1
M  ISO  4  38 100  61 101  72 100  82 101
M  END
> <Batch ID>
0154

> <Smiles>
CNC(C)C(=O)NC(C(=O)N1Cc2cc([101O:1][101CH2:1]CCOc3c(C)cc([100NH:0][100C:0](=O)N4CCCC(n5nc(-c6ccc(Oc7ccc(F)cc7F)cc6)c(C(N)=O)c5N)C4)cc3C3CC3)ccc2CC1C(=O)NC1CCCc2ccccc21)C(C)(C)C

> <Shape>
0.259

> <Color>
0.065

> <Negative vol penalty>
0.000

$$$$

  -OEChem-04052321513D

 86 95  0     1  0  0  0  0  0999 V2000
  -27.3429  -26.7390   12.3307 C   0  0  0  0  0  0  0  0  0  0  0  0
  -27.3391  -25.9640   13.4860 C   0  0  0  0  0  0  0  0  0  0  0  0
  -22.7269  -10.1605   20.1220 C   0  0  0  0  0  0  0  0  0  0  0  0
  -24.4066   -9.3446   21.6549 C   0  0  0  0  0  0  0  0  0  0  0  0
  -27.8856  -28.0230   12.3558 C   0  0  0  0  0  0  0  0  0  0  0  0
  -27.8789  -26.4724   14.6670 C   0  0  0  0  0  0  0  0  0  0  0  0
  -24.9382  -25.5756   18.6911 C   0  0  0  0  0  0  0  0  0  0  0  0
  -22.0316   -8.9575   20.2435 C   0  0  0  0  0  0  0  0  0  0  0  0
  -23.7112   -8.1415   21.7765 C   0  0  0  0  0  0  0  0  0  0  0  0
  -24.9766  -24.2922   19.2344 C   0  0  0  0  0  0  0  0  0  0  0  0
  -20.9997   -6.9901   23.4324 C   0  0  0  0  0  0  0  0  0  0  0  0
  -20.8316   -6.4672   24.7145 C   0  0  0  0  0  0  0  0  0  0  0  0
  -26.4674  -25.0748   20.9619 C   0  0  0  0  0  0  0  0  0  0  0  0
  -22.0217   -4.4703   24.0560 C   0  0  0  0  0  0  0  0  0  0  0  0
  -28.8371  -17.6888   21.8578 C   0  0  0  0  0  0  0  0  0  0  0  0
  -23.9145  -10.3541   20.8276 C   0  0  0  0  0  0  0  0  0  0  0  0
  -24.1647  -12.8856   21.0181 C   0  0  0  0  0  0  0  0  0  0  0  0
  -28.4236  -28.5510   13.5400 C   0  0  0  0  0  0  0  0  0  0  0  0
  -25.6740  -26.6175   19.2737 C   0  0  0  0  0  0  0  0  0  0  0  0
  -28.4304  -27.7642   14.7076 C   0  0  0  0  0  0  0  0  0  0  0  0
  -26.4346  -26.3711   20.4255 C   0  0  0  0  0  0  0  0  0  0  0  0
  -30.2000  -17.8521   22.0467 C   0  0  0  0  0  0  0  0  0  0  0  0
  -30.7544  -19.0919   21.7488 C   0  0  0  0  0  0  0  0  0  0  0  0
  -29.9406  -20.1161   21.2777 C   0  0  0  0  0  0  0  0  0  0  0  0
  -22.5237   -7.9480   21.0708 C   0  0  0  0  0  0  0  0  0  0  0  0
  -25.7436  -24.0410   20.3683 C   0  0  0  0  0  0  0  0  0  0  0  0
  -21.6786   -6.2531   22.4620 C   0  0  0  0  0  0  0  0  0  0  0  0
  -21.3426   -5.2073   25.0264 C   0  0  0  0  0  0  0  0  0  0  0  0
  -22.1896   -4.9933   22.7739 C   0  0  0  0  0  0  0  0  0  0  0  0
  -24.6335  -11.5964   20.7021 C   0  0  0  0  0  0  0  0  0  0  0  0
  -28.5893  -19.8514   21.1230 C   0  0  0  0  0  0  0  0  0  0  0  0
  -25.2185  -13.7159   20.7237 C   0  0  0  0  0  0  0  0  0  0  0  0
  -22.8906  -13.2960   21.5318 C   0  0  0  0  0  0  0  0  0  0  0  0
  -28.0409  -28.5058   18.3064 C   0  0  0  0  0  0  0  0  0  0  0  0
  -27.5201  -29.9650   21.1563 C   0  0  0  0  0  0  0  0  0  0  0  0
  -26.3321  -29.7475   24.3482 C   0  0  0  0  0  0  0  0  0  0  0  0
  -30.6005  -14.9472   20.8358 C   0  0  0  0  0  0  0  0  0  0  0  0
  -29.0417  -29.9263   13.5066 C   0  0  0  0  0  0  0  0  0  0  0  0
  -25.6007  -28.0023   18.6911 C   0  0  0  0  0  0  0  0  0  0  0  0
  -27.2266  -27.4597   21.1008 C   0  0  0  0  0  0  0  0  0  0  0  0
  -29.2552  -30.5320   14.8914 C   0  0  0  0  0  0  0  0  0  0  0  0
  -31.2486  -15.1723   24.3965 C   0  0  0  0  0  0  0  0  0  0  0  0
  -29.5313  -12.8445   18.2542 C   0  0  0  0  0  0  0  0  0  0  0  0
  -31.0895  -16.6571   24.0948 C   0  0  0  0  0  0  0  0  0  0  0  0
  -29.8930  -29.5109   15.8281 C   0  0  0  0  0  0  0  0  0  0  0  0
  -28.1297  -12.4147   18.6830 C   0  0  0  0  0  0  0  0  0  0  0  0
  -30.4715  -12.9015   19.4516 C   0  0  0  0  0  0  0  0  0  0  0  0
  -30.3774  -14.5173   23.3359 C   0  0  0  0  0  0  0  0  0  0  0  0
  -28.5915  -13.4034   20.9834 C   0  0  0  0  0  0  0  0  0  0  0  0
  -31.0358  -16.7024   22.5620 C   0  0  1  0  0  0  0  0  0  0  0  0
  -28.9843  -28.2898   16.0142 C   0  0  1  0  0  0  0  0  0  0  0  0
  -26.7969  -28.8721   19.0654 C   0  0  1  0  0  0  0  0  0  0  0  0
  -27.5995  -13.3228   19.8050 C   0  0  2  0  0  0  0  0  0  0  0  0
  -32.2200  -19.3221   21.9356 C   0  0  0  0  0  0  0  0  0  0  0  0
  -30.5005  -21.4581   20.9460 C   0  0  0  0  0  0  0  0  0  0  0  0
  -25.6676  -30.5160   26.6428 C   0  0  0  0  0  0  0  0  0  0  0  0
  -30.4924  -29.6028   21.7430 C   0  0  0  0  0  0  0  0  0  0  0  0
  -30.0024  -30.0708   24.1532 C   0  0  0  0  0  0  0  0  0  0  0  0
  -29.5559  -31.8178   22.4294 C   0  0  0  0  0  0  0  0  0  0  0  0
  -23.6072  -30.4668   23.4446 C   0  0  0  0  0  0  0  0  0  0  0  0
  -25.6188  -21.6948   19.9997 C   0  0  0  0  0  0  0  0  0  1  0  0
  -26.3784  -20.4925   20.5259 C   0  0  0  0  0  0  0  0  0  0  0  0
  -28.0501  -29.7910   22.5591 C   0  0  1  0  0  0  0  0  0  0  0  0
  -25.4226  -30.6618   25.1490 C   0  0  2  0  0  0  0  0  0  0  0  0
  -29.5119  -30.2994   22.7076 C   0  0  0  0  0  0  0  0  0  0  0  0
  -28.0146  -18.6600   21.4019 N   0  0  0  0  0  0  0  0  0  0  0  0
  -25.8874  -11.6021   20.2420 N   0  0  0  0  0  0  0  0  0  0  0  0
  -26.2155  -12.9051   20.2667 N   0  0  0  0  0  0  0  0  0  0  0  0
  -27.1277  -28.7955   20.4898 N   0  0  0  0  0  0  0  0  0  0  0  0
  -29.9372  -13.7568   20.5119 N   0  0  0  0  0  0  0  0  0  0  0  0
  -30.5288  -15.3804   22.1630 N   0  0  0  0  0  0  0  0  0  0  0  0
  -25.3803  -15.0531   20.8137 N   0  0  0  0  0  0  0  0  0  0  0  0
  -22.7194  -13.3590   22.9214 N   0  0  0  0  0  0  0  0  0  0  0  0
  -27.9093  -28.5952   16.9337 N   0  0  0  0  0  0  0  0  0  0  0  0
  -27.0949  -30.4525   23.4413 N   0  0  0  0  0  0  0  0  0  0  0  0
  -23.9935  -30.3415   24.8736 N   0  3  0  0  0  0  0  0  0  0  0  0
  -21.9273  -13.5822   20.7810 O   0  0  0  0  0  0  0  0  0  0  0  0
  -29.0462  -28.1687   18.9207 O   0  0  0  0  0  0  0  0  0  0  0  0
  -27.4499  -31.0975   20.6725 O   0  0  0  0  0  0  0  0  0  0  0  0
  -26.3654  -28.5300   24.5134 O   0  0  0  0  0  0  0  0  0  0  0  0
  -31.2427  -15.5806   19.9883 O   0  0  0  0  0  0  0  0  0  0  0  0
  -21.8453   -6.7740   21.1898 O   0  0  0  0  0  0  0  0  0  0  0  0
  -25.7836  -22.7806   20.9040 O   0  0  0  0  0  0  0  0  0  1  0  0
  -27.7528  -20.8336   20.6602 O   0  0  0  0  0  0  0  0  0  0  0  0
  -21.1825   -4.7059   26.2581 F   0  0  0  0  0  0  0  0  0  0  0  0
  -22.8439   -4.2811   21.8462 F   0  0  0  0  0  0  0  0  0  0  0  0
  1  2  1  0  0  0  0
  1  5  2  0  0  0  0
  2  6  2  0  0  0  0
  3  8  2  0  0  0  0
  3 16  1  0  0  0  0
  4  9  1  0  0  0  0
  4 16  2  0  0  0  0
  5 18  1  0  0  0  0
  6 20  1  0  0  0  0
  7 10  2  0  0  0  0
  7 19  1  0  0  0  0
  8 25  1  0  0  0  0
  9 25  2  0  0  0  0
 10 26  1  0  0  0  0
 11 12  2  0  0  0  0
 11 27  1  0  0  0  0
 12 28  1  0  0  0  0
 13 21  1  0  0  0  0
 13 26  2  0  0  0  0
 14 28  2  0  0  0  0
 14 29  1  0  0  0  0
 15 22  1  0  0  0  0
 15 66  2  0  0  0  0
 16 30  1  0  0  0  0
 17 30  1  0  0  0  0
 17 32  2  0  0  0  0
 17 33  1  0  0  0  0
 18 20  2  0  0  0  0
 18 38  1  0  0  0  0
 19 21  2  0  0  0  0
 19 39  1  0  0  0  0
 20 51  1  0  0  0  0
 21 40  1  0  0  0  0
 22 23  2  0  0  0  0
 22 50  1  0  0  0  0
 23 24  1  0  0  0  0
 23 54  1  0  0  0  0
 24 31  2  0  0  0  0
 24 55  1  0  0  0  0
 25 82  1  0  0  0  0
 26 83  1  0  0  0  0
 27 29  2  0  0  0  0
 27 82  1  0  0  0  0
 28 85  1  0  0  0  0
 29 86  1  0  0  0  0
 30 67  2  0  0  0  0
 31 66  1  0  0  0  0
 31 84  1  0  0  0  0
 32 68  1  0  0  0  0
 32 72  1  0  0  0  0
 33 73  1  0  0  0  0
 33 77  2  0  0  0  0
 34 52  1  0  0  0  0
 34 74  1  0  0  0  0
 34 78  2  0  0  0  0
 35 63  1  0  0  0  0
 35 69  1  0  0  0  0
 35 79  2  0  0  0  0
 36 64  1  0  0  0  0
 36 75  1  0  0  0  0
 36 80  2  0  0  0  0
 37 70  1  0  0  0  0
 37 71  1  0  0  0  0
 37 81  2  0  0  0  0
 38 41  1  0  0  0  0
 39 52  1  0  0  0  0
 40 69  1  0  0  0  0
 41 45  1  0  0  0  0
 42 44  1  0  0  0  0
 42 48  1  0  0  0  0
 43 46  1  0  0  0  0
 43 47  1  0  0  0  0
 44 50  1  0  0  0  0
 45 51  1  0  0  0  0
 46 53  1  0  0  0  0
 47 70  1  0  0  0  0
 48 71  1  0  0  0  0
 49 53  1  0  0  0  0
 49 70  1  0  0  0  0
 50 71  1  0  0  0  0
 51 74  1  0  0  0  0
 52 69  1  0  0  0  0
 53 68  1  0  0  0  0
 56 64  1  0  0  0  0
 57 65  1  0  0  0  0
 58 65  1  0  0  0  0
 59 65  1  0  0  0  0
 60 76  1  0  0  0  0
 61 62  1  0  0  0  0
 61 83  1  0  0  0  0
 62 84  1  0  0  0  0
 63 65  1  0  0  0  0
 63 75  1  0  0  0  0
 64 76  1  0  0  0  0
 67 68  1  0  0  0  0
M  CHG  1  76   1
M  ISO  4  37 100  61 101  71 100  83 101
M  END
> <Batch ID>
0154

> <Smiles>
CNC(C)C(=O)NC(C(=O)N1Cc2cc([101O:1][101CH2:1]COc3ncc(C4CCC[100N:0]4[100C:0](=O)N4CCCC(n5nc(-c6ccc(Oc7ccc(F)cc7F)cc6)c(C(N)=O)c5N)C4)c(C)c3C)ccc2CC1C(=O)NC1CCCc2ccccc21)C(C)(C)C

> <Shape>
0.312

> <Color>
0.178

> <Negative vol penalty>
0.000

$$$$

  -OEChem-04052321513D

 87 97  0     1  0  0  0  0  0999 V2000
  -26.8461  -36.0936   21.2869 C   0  0  0  0  0  0  0  0  0  0  0  0
  -27.2902  -34.7761   21.3374 C   0  0  0  0  0  0  0  0  0  0  0  0
  -22.0653  -11.9801   23.5522 C   0  0  0  0  0  0  0  0  0  0  0  0
  -22.0457  -10.7183   21.4920 C   0  0  0  0  0  0  0  0  0  0  0  0
  -25.6281  -36.4403   21.8700 C   0  0  0  0  0  0  0  0  0  0  0  0
  -26.5168  -33.8048   21.9721 C   0  0  0  0  0  0  0  0  0  0  0  0
  -26.1849  -29.5249   19.2857 C   0  0  0  0  0  0  0  0  0  0  0  0
  -21.4551  -10.9130   24.2115 C   0  0  0  0  0  0  0  0  0  0  0  0
  -21.4356   -9.6512   22.1513 C   0  0  0  0  0  0  0  0  0  0  0  0
  -27.2814  -28.6645   19.3207 C   0  0  0  0  0  0  0  0  0  0  0  0
  -20.2003   -6.4574   23.3727 C   0  0  0  0  0  0  0  0  0  0  0  0
  -20.6934   -5.1757   23.1283 C   0  0  0  0  0  0  0  0  0  0  0  0
  -27.3343  -19.5299   18.3518 C   0  0  0  0  0  0  0  0  0  0  0  0
  -27.0025  -22.0159   19.6597 C   0  0  0  0  0  0  0  0  0  0  0  0
  -26.1464  -27.2941   20.9496 C   0  0  0  0  0  0  0  0  0  0  0  0
  -22.8586   -5.8498   23.9617 C   0  0  0  0  0  0  0  0  0  0  0  0
  -22.3606  -11.8827   22.1924 C   0  0  0  0  0  0  0  0  0  0  0  0
  -24.3711  -13.2126   21.3578 C   0  0  0  0  0  0  0  0  0  0  0  0
  -24.8349  -35.4709   22.5038 C   0  0  0  0  0  0  0  0  0  0  0  0
  -25.0635  -29.2819   20.0918 C   0  0  0  0  0  0  0  0  0  0  0  0
  -25.2877  -34.1391   22.5654 C   0  0  0  0  0  0  0  0  0  0  0  0
  -26.1809  -19.8172   19.0610 C   0  0  0  0  0  0  0  0  0  0  0  0
  -26.0175  -21.0433   19.7153 C   0  0  0  0  0  0  0  0  0  0  0  0
  -25.0359  -28.1515   20.9210 C   0  0  0  0  0  0  0  0  0  0  0  0
  -28.3342  -20.5030   18.2958 C   0  0  0  0  0  0  0  0  0  0  0  0
  -28.1690  -21.7374   18.9439 C   0  0  0  0  0  0  0  0  0  0  0  0
  -21.1403   -9.7486   23.5111 C   0  0  0  0  0  0  0  0  0  0  0  0
  -27.2634  -27.5505   20.1548 C   0  0  0  0  0  0  0  0  0  0  0  0
  -21.0364   -7.4353   23.9115 C   0  0  0  0  0  0  0  0  0  0  0  0
  -22.0225   -4.8719   23.4228 C   0  0  0  0  0  0  0  0  0  0  0  0
  -22.3655   -7.1315   24.2060 C   0  0  0  0  0  0  0  0  0  0  0  0
  -22.9904  -12.9848   21.5106 C   0  0  0  0  0  0  0  0  0  0  0  0
  -24.4490  -14.3812   20.6403 C   0  0  0  0  0  0  0  0  0  0  0  0
  -25.4839  -12.4371   21.8226 C   0  0  0  0  0  0  0  0  0  0  0  0
  -23.6111  -30.8486   22.4455 C   0  0  0  0  0  0  0  0  0  0  0  0
  -21.4329  -28.4612   22.1661 C   0  0  0  0  0  0  0  0  0  0  0  0
  -20.7488  -25.2627   21.1921 C   0  0  0  0  0  0  0  0  0  0  0  0
  -22.6493  -19.6814   20.0247 C   0  0  0  0  0  0  0  0  0  0  0  0
  -23.5479  -35.9024   23.1611 C   0  0  0  0  0  0  0  0  0  0  0  0
  -23.8779  -30.2049   20.0226 C   0  0  0  0  0  0  0  0  0  0  0  0
  -24.9862  -18.9464   19.2760 C   0  0  0  0  0  0  0  0  0  0  0  0
  -23.8479  -27.8350   21.7910 C   0  0  0  0  0  0  0  0  0  0  0  0
  -22.6115  -34.7418   23.4874 C   0  0  0  0  0  0  0  0  0  0  0  0
  -20.8762  -17.0233   18.2212 C   0  0  0  0  0  0  0  0  0  0  0  0
  -23.3811  -33.6066   24.1551 C   0  0  0  0  0  0  0  0  0  0  0  0
  -25.0193  -22.5093   22.5473 C   0  0  0  0  0  0  0  0  0  0  0  0
  -23.7154  -21.7785   22.7069 C   0  0  0  0  0  0  0  0  0  0  0  0
  -21.3519  -15.7580   18.9383 C   0  0  0  0  0  0  0  0  0  0  0  0
  -20.8478  -18.2336   19.1523 C   0  0  0  0  0  0  0  0  0  0  0  0
  -22.5746  -17.2195   20.5880 C   0  0  0  0  0  0  0  0  0  0  0  0
  -24.6812  -21.0950   20.3976 C   0  0  2  0  0  0  0  0  0  0  0  0
  -24.4654  -33.0522   23.2232 C   0  0  1  0  0  0  0  0  0  0  0  0
  -22.9992  -30.1434   21.2682 C   0  0  1  0  0  0  0  0  0  0  0  0
  -24.8181  -21.1786   21.8895 C   0  0  0  0  0  0  0  0  0  0  0  0
  -22.6887  -15.9984   19.6658 C   0  0  1  0  0  0  0  0  0  0  0  0
  -29.5840  -20.2059   17.5318 C   0  0  0  0  0  0  0  0  0  0  0  0
  -18.8893  -23.5790   21.1249 C   0  0  0  0  0  0  0  0  0  0  0  0
  -21.7717  -27.9713   25.1586 C   0  0  0  0  0  0  0  0  0  0  0  0
  -20.6654  -25.7468   24.8489 C   0  0  0  0  0  0  0  0  0  0  0  0
  -19.4117  -27.8427   24.3411 C   0  0  0  0  0  0  0  0  0  0  0  0
  -20.8531  -25.0930   18.2393 C   0  0  0  0  0  0  0  0  0  0  0  0
  -29.2389  -22.7791   18.8804 C   0  0  0  0  0  0  0  0  0  0  0  0
  -29.7622  -25.2204   18.9507 C   0  0  0  0  0  0  0  0  0  0  0  0
  -29.1038  -26.5851   18.9986 C   0  0  0  0  0  0  0  0  0  1  0  0
  -21.2586  -27.0952   22.7848 C   0  0  1  0  0  0  0  0  0  0  0  0
  -19.6138  -24.6815   20.3685 C   0  0  2  0  0  0  0  0  0  0  0  0
  -20.8002  -27.1707   24.2685 C   0  0  0  0  0  0  0  0  0  0  0  0
  -22.2447  -13.9327   20.9366 N   0  0  0  0  0  0  0  0  0  0  0  0
  -23.1603  -14.7675   20.4161 N   0  0  0  0  0  0  0  0  0  0  0  0
  -22.7157  -28.7709   21.6927 N   0  0  0  0  0  0  0  0  0  0  0  0
  -24.0417  -19.8183   20.0051 N   0  0  0  0  0  0  0  0  0  0  0  0
  -22.1313  -18.3959   19.8336 N   0  0  0  0  0  0  0  0  0  0  0  0
  -25.4934  -15.1058   20.1857 N   0  0  0  0  0  0  0  0  0  0  0  0
  -25.2256  -11.2639   22.5445 N   0  0  0  0  0  0  0  0  0  0  0  0
  -23.8783  -32.1860   22.2235 N   0  0  0  0  0  0  0  0  0  0  0  0
  -20.3438  -26.3661   21.9131 N   0  0  0  0  0  0  0  0  0  0  0  0
  -20.1371  -24.1119   19.0946 N   0  3  0  0  0  0  0  0  0  0  0  0
  -28.7118  -24.1684   18.9548 N   0  3  0  0  0  0  0  0  0  0  0  0
  -26.6722  -12.7833   21.6185 O   0  0  0  0  0  0  0  0  0  0  0  0
  -23.8236  -30.2257   23.4792 O   0  0  0  0  0  0  0  0  0  0  0  0
  -20.4646  -29.2226   22.0988 O   0  0  0  0  0  0  0  0  0  0  0  0
  -21.8806  -24.7835   21.1983 O   0  0  0  0  0  0  0  0  0  0  0  0
  -21.9063  -20.6622   20.1579 O   0  0  0  0  0  0  0  0  0  0  0  0
  -20.5451   -8.7071   24.1542 O   0  0  0  0  0  0  0  0  0  0  0  0
  -28.3403  -26.7034   20.1917 O   0  0  0  0  0  0  0  0  0  1  0  0
  -22.4955   -3.6406   23.1895 F   0  0  0  0  0  0  0  0  0  0  0  0
  -23.1732   -8.0666   24.7249 F   0  0  0  0  0  0  0  0  0  0  0  0
  1  2  1  0  0  0  0
  1  5  2  0  0  0  0
  2  6  2  0  0  0  0
  3  8  2  0  0  0  0
  3 17  1  0  0  0  0
  4  9  1  0  0  0  0
  4 17  2  0  0  0  0
  5 19  1  0  0  0  0
  6 21  1  0  0  0  0
  7 10  2  0  0  0  0
  7 20  1  0  0  0  0
  8 27  1  0  0  0  0
  9 27  2  0  0  0  0
 10 28  1  0  0  0  0
 11 12  2  0  0  0  0
 11 29  1  0  0  0  0
 12 30  1  0  0  0  0
 13 22  2  0  0  0  0
 13 25  1  0  0  0  0
 14 23  2  0  0  0  0
 14 26  1  0  0  0  0
 15 24  1  0  0  0  0
 15 28  2  0  0  0  0
 16 30  2  0  0  0  0
 16 31  1  0  0  0  0
 17 32  1  0  0  0  0
 18 32  1  0  0  0  0
 18 33  2  0  0  0  0
 18 34  1  0  0  0  0
 19 21  2  0  0  0  0
 19 39  1  0  0  0  0
 20 24  2  0  0  0  0
 20 40  1  0  0  0  0
 21 52  1  0  0  0  0
 22 23  1  0  0  0  0
 22 41  1  0  0  0  0
 23 51  1  0  0  0  0
 24 42  1  0  0  0  0
 25 26  2  0  0  0  0
 25 56  1  0  0  0  0
 26 62  1  0  0  0  0
 27 84  1  0  0  0  0
 28 85  1  0  0  0  0
 29 31  2  0  0  0  0
 29 84  1  0  0  0  0
 30 86  1  0  0  0  0
 31 87  1  0  0  0  0
 32 68  2  0  0  0  0
 33 69  1  0  0  0  0
 33 73  1  0  0  0  0
 34 74  1  0  0  0  0
 34 79  2  0  0  0  0
 35 53  1  0  0  0  0
 35 75  1  0  0  0  0
 35 80  2  0  0  0  0
 36 65  1  0  0  0  0
 36 70  1  0  0  0  0
 36 81  2  0  0  0  0
 37 66  1  0  0  0  0
 37 76  1  0  0  0  0
 37 82  2  0  0  0  0
 38 71  1  0  0  0  0
 38 72  1  0  0  0  0
 38 83  2  0  0  0  0
 39 43  1  0  0  0  0
 40 53  1  0  0  0  0
 41 71  1  0  0  0  0
 42 70  1  0  0  0  0
 43 45  1  0  0  0  0
 44 48  1  0  0  0  0
 44 49  1  0  0  0  0
 45 52  1  0  0  0  0
 46 47  1  0  0  0  0
 46 54  1  0  0  0  0
 47 54  1  0  0  0  0
 48 55  1  0  0  0  0
 49 72  1  0  0  0  0
 50 55  1  0  0  0  0
 50 72  1  0  0  0  0
 51 54  1  0  0  0  0
 51 71  1  0  0  0  0
 52 75  1  0  0  0  0
 53 70  1  0  0  0  0
 55 69  1  0  0  0  0
 57 66  1  0  0  0  0
 58 67  1  0  0  0  0
 59 67  1  0  0  0  0
 60 67  1  0  0  0  0
 61 77  1  0  0  0  0
 62 78  1  0  0  0  0
 63 64  1  0  0  0  0
 63 78  1  0  0  0  0
 64 85  1  0  0  0  0
 65 67  1  0  0  0  0
 65 76  1  0  0  0  0
 66 77  1  0  0  0  0
 68 69  1  0  0  0  0
M  CHG  2  77   1  78   1
M  ISO  4  38 100  64 101  71 100  85 101
M  END
> <Batch ID>
0154

> <Smiles>
CNC(C)C(=O)NC(C(=O)N1Cc2cc([101O:1][101CH2:1]CNCc3cc4c(cc3C)C[100N:0]([100C:0](=O)N3CCCC(n5nc(-c6ccc(Oc7ccc(F)cc7F)cc6)c(C(N)=O)c5N)C3)C4C3CC3)ccc2CC1C(=O)NC1CCCc2ccccc21)C(C)(C)C

> <Shape>
0.251

> <Color>
0.102

> <Negative vol penalty>
0.000

$$$$

  -OEChem-04052321513D

 91101  0     1  0  0  0  0  0999 V2000
  -35.8374  -34.3661   20.2732 C   0  0  0  0  0  0  0  0  0  0  0  0
  -35.2360  -33.2281   19.7453 C   0  0  0  0  0  0  0  0  0  0  0  0
  -23.7799   -9.8119   22.1489 C   0  0  0  0  0  0  0  0  0  0  0  0
  -25.0936   -7.8093   21.8316 C   0  0  0  0  0  0  0  0  0  0  0  0
  -35.4221  -34.8639   21.5075 C   0  0  0  0  0  0  0  0  0  0  0  0
  -34.2195  -32.5865   20.4522 C   0  0  0  0  0  0  0  0  0  0  0  0
  -29.3322  -29.7402   18.1031 C   0  0  0  0  0  0  0  0  0  0  0  0
  -22.6105   -9.0735   21.9684 C   0  0  0  0  0  0  0  0  0  0  0  0
  -23.9241   -7.0708   21.6511 C   0  0  0  0  0  0  0  0  0  0  0  0
  -29.0615  -28.3963   17.8492 C   0  0  0  0  0  0  0  0  0  0  0  0
  -21.2709   -4.5920   21.4648 C   0  0  0  0  0  0  0  0  0  0  0  0
  -21.1688   -3.3666   22.1232 C   0  0  0  0  0  0  0  0  0  0  0  0
  -27.9122  -28.2346   19.9640 C   0  0  0  0  0  0  0  0  0  0  0  0
  -21.4068   -4.4891   24.2494 C   0  0  0  0  0  0  0  0  0  0  0  0
  -29.1917  -20.5354   19.7394 C   0  0  0  0  0  0  0  0  0  0  0  0
  -25.0215   -9.1799   22.0804 C   0  0  0  0  0  0  0  0  0  0  0  0
  -26.9008  -10.1900   23.4788 C   0  0  0  0  0  0  0  0  0  0  0  0
  -34.3934  -34.2337   22.2254 C   0  0  0  0  0  0  0  0  0  0  0  0
  -28.9036  -30.3396   19.2962 C   0  0  0  0  0  0  0  0  0  0  0  0
  -33.7910  -33.0756   21.6979 C   0  0  0  0  0  0  0  0  0  0  0  0
  -28.1765  -29.5869   20.2294 C   0  0  0  0  0  0  0  0  0  0  0  0
  -29.5010  -20.2627   21.0622 C   0  0  0  0  0  0  0  0  0  0  0  0
  -29.7360  -22.6326   21.3981 C   0  0  0  0  0  0  0  0  0  0  0  0
  -29.7770  -21.3369   21.9008 C   0  0  0  0  0  0  0  0  0  0  0  0
  -22.6825   -7.7029   21.7195 C   0  0  0  0  0  0  0  0  0  0  0  0
  -28.3539  -27.6425   18.7810 C   0  0  0  0  0  0  0  0  0  0  0  0
  -21.4411   -5.7660   22.1987 C   0  0  0  0  0  0  0  0  0  0  0  0
  -21.2366   -3.3151   23.5154 C   0  0  0  0  0  0  0  0  0  0  0  0
  -21.5090   -5.7145   23.5909 C   0  0  0  0  0  0  0  0  0  0  0  0
  -26.2299   -9.9423   22.2662 C   0  0  0  0  0  0  0  0  0  0  0  0
  -29.4163  -22.7992   20.0602 C   0  0  0  0  0  0  0  0  0  0  0  0
  -27.9837  -10.9558   23.1218 C   0  0  0  0  0  0  0  0  0  0  0  0
  -26.5744   -9.7657   24.8089 C   0  0  0  0  0  0  0  0  0  0  0  0
  -30.3600  -31.7058   21.7693 C   0  0  0  0  0  0  0  0  0  0  0  0
  -27.3236  -32.4027   22.6733 C   0  0  0  0  0  0  0  0  0  0  0  0
  -24.0017  -31.6404   22.4991 C   0  0  0  0  0  0  0  0  0  0  0  0
  -30.3519  -15.0106   20.2984 C   0  0  0  0  0  0  0  0  0  0  0  0
  -34.0109  -34.7812   23.5776 C   0  0  0  0  0  0  0  0  0  0  0  0
  -29.1805  -31.7973   19.5430 C   0  0  0  0  0  0  0  0  0  0  0  0
  -27.6767  -30.1885   21.5166 C   0  0  0  0  0  0  0  0  0  0  0  0
  -32.6705  -34.2597   24.0890 C   0  0  0  0  0  0  0  0  0  0  0  0
  -29.9039  -12.0456   18.5791 C   0  0  0  0  0  0  0  0  0  0  0  0
  -30.5335  -25.0782   21.6367 C   0  0  0  0  0  0  0  0  0  0  0  0
  -31.4561  -24.2395   22.4646 C   0  0  0  0  0  0  0  0  0  0  0  0
  -32.5808  -32.7480   23.9056 C   0  0  0  0  0  0  0  0  0  0  0  0
  -28.9635  -11.2429   19.4778 C   0  0  0  0  0  0  0  0  0  0  0  0
  -28.5017  -17.9461   20.8248 C   0  0  0  0  0  0  0  0  0  0  0  0
  -30.9385  -18.2132   21.4571 C   0  0  0  0  0  0  0  0  0  0  0  0
  -29.4894  -13.5115   18.5265 C   0  0  0  0  0  0  0  0  0  0  0  0
  -28.5594  -16.4928   21.3039 C   0  0  0  0  0  0  0  0  0  0  0  0
  -30.9317  -16.7670   21.9438 C   0  0  0  0  0  0  0  0  0  0  0  0
  -28.4754  -13.3738   20.7784 C   0  0  0  0  0  0  0  0  0  0  0  0
  -29.5306  -18.8281   21.5547 C   0  0  0  0  0  0  0  0  0  0  0  0
  -30.0265  -23.8093   22.2689 C   0  0  0  0  0  0  0  0  0  0  0  0
  -32.6681  -32.3660   22.4231 C   0  0  1  0  0  0  0  0  0  0  0  0
  -29.1424  -32.1707   21.0217 C   0  0  1  0  0  0  0  0  0  0  0  0
  -28.8534  -11.8817   20.8736 C   0  0  1  0  0  0  0  0  0  0  0  0
  -28.8932  -21.1377   24.2520 C   0  0  0  0  0  0  0  0  0  0  0  0
  -21.7654  -32.3661   23.3766 C   0  0  0  0  0  0  0  0  0  0  0  0
  -27.9572  -31.0998   25.3586 C   0  0  0  0  0  0  0  0  0  0  0  0
  -25.4968  -30.9966   25.8102 C   0  0  0  0  0  0  0  0  0  0  0  0
  -26.6166  -33.2055   25.5113 C   0  0  0  0  0  0  0  0  0  0  0  0
  -22.9991  -32.2392   19.7797 C   0  0  0  0  0  0  0  0  0  0  0  0
  -29.0297  -25.6159   17.7360 C   0  0  0  0  0  0  0  0  0  1  0  0
  -29.0306  -24.1557   18.1453 C   0  0  0  0  0  0  0  0  0  0  0  0
  -30.1163  -21.0955   23.3370 C   0  0  2  0  0  0  0  0  0  0  0  0
  -26.2694  -31.7099   23.5026 C   0  0  1  0  0  0  0  0  0  0  0  0
  -22.7806  -32.5082   22.2533 C   0  0  2  0  0  0  0  0  0  0  0  0
  -26.5960  -31.7408   25.0224 C   0  0  0  0  0  0  0  0  0  0  0  0
  -29.1421  -21.7805   19.2149 N   0  0  0  0  0  0  0  0  0  0  0  0
  -26.8358  -10.5052   21.2174 N   0  0  0  0  0  0  0  0  0  0  0  0
  -27.8987  -11.1144   21.7699 N   0  0  0  0  0  0  0  0  0  0  0  0
  -27.9780  -31.6158   21.7149 N   0  0  0  0  0  0  0  0  0  0  0  0
  -29.3926  -14.0803   19.8707 N   0  0  0  0  0  0  0  0  0  0  0  0
  -29.9325  -15.9750   21.2271 N   0  0  0  0  0  0  0  0  0  0  0  0
  -28.9907  -11.5024   23.8357 N   0  0  0  0  0  0  0  0  0  0  0  0
  -25.4267   -8.9838   24.9980 N   0  0  0  0  0  0  0  0  0  0  0  0
  -31.4039  -32.6111   21.7627 N   0  0  0  0  0  0  0  0  0  0  0  0
  -24.9985  -32.3345   23.1517 N   0  0  0  0  0  0  0  0  0  0  0  0
  -22.1216  -32.1243   20.9729 N   0  3  0  0  0  0  0  0  0  0  0  0
  -27.2706  -10.0846   25.8024 O   0  0  0  0  0  0  0  0  0  0  0  0
  -30.3523  -30.6077   22.3132 O   0  0  0  0  0  0  0  0  0  0  0  0
  -27.5529  -33.5997   22.8638 O   0  0  0  0  0  0  0  0  0  0  0  0
  -24.0635  -30.4634   22.1507 O   0  0  0  0  0  0  0  0  0  0  0  0
  -31.5148  -14.9814   19.8766 O   0  0  0  0  0  0  0  0  0  0  0  0
  -31.0383  -22.1000   23.7711 O   0  0  0  0  0  0  0  0  0  0  0  0
  -21.5415   -6.9819   21.5436 O   0  0  0  0  0  0  0  0  0  0  0  0
  -28.0871  -26.3215   18.5344 O   0  0  0  0  0  0  0  0  0  1  0  0
  -29.3650  -24.0600   19.5245 O   0  0  0  0  0  0  0  0  0  0  0  0
  -21.1370   -2.1385   24.1476 F   0  0  0  0  0  0  0  0  0  0  0  0
  -21.6711   -6.8391   24.3014 F   0  0  0  0  0  0  0  0  0  0  0  0
  1  2  1  0  0  0  0
  1  5  2  0  0  0  0
  2  6  2  0  0  0  0
  3  8  2  0  0  0  0
  3 16  1  0  0  0  0
  4  9  1  0  0  0  0
  4 16  2  0  0  0  0
  5 18  1  0  0  0  0
  6 20  1  0  0  0  0
  7 10  2  0  0  0  0
  7 19  1  0  0  0  0
  8 25  1  0  0  0  0
  9 25  2  0  0  0  0
 10 26  1  0  0  0  0
 11 12  2  0  0  0  0
 11 27  1  0  0  0  0
 12 28  1  0  0  0  0
 13 21  1  0  0  0  0
 13 26  2  0  0  0  0
 14 28  2  0  0  0  0
 14 29  1  0  0  0  0
 15 22  1  0  0  0  0
 15 70  2  0  0  0  0
 16 30  1  0  0  0  0
 17 30  1  0  0  0  0
 17 32  2  0  0  0  0
 17 33  1  0  0  0  0
 18 20  2  0  0  0  0
 18 38  1  0  0  0  0
 19 21  2  0  0  0  0
 19 39  1  0  0  0  0
 20 55  1  0  0  0  0
 21 40  1  0  0  0  0
 22 24  2  0  0  0  0
 22 53  1  0  0  0  0
 23 24  1  0  0  0  0
 23 31  2  0  0  0  0
 23 54  1  0  0  0  0
 24 66  1  0  0  0  0
 25 87  1  0  0  0  0
 26 88  1  0  0  0  0
 27 29  2  0  0  0  0
 27 87  1  0  0  0  0
 28 90  1  0  0  0  0
 29 91  1  0  0  0  0
 30 71  2  0  0  0  0
 31 70  1  0  0  0  0
 31 89  1  0  0  0  0
 32 72  1  0  0  0  0
 32 76  1  0  0  0  0
 33 77  1  0  0  0  0
 33 81  2  0  0  0  0
 34 56  1  0  0  0  0
 34 78  1  0  0  0  0
 34 82  2  0  0  0  0
 35 67  1  0  0  0  0
 35 73  1  0  0  0  0
 35 83  2  0  0  0  0
 36 68  1  0  0  0  0
 36 79  1  0  0  0  0
 36 84  2  0  0  0  0
 37 74  1  0  0  0  0
 37 75  1  0  0  0  0
 37 85  2  0  0  0  0
 38 41  1  0  0  0  0
 39 56  1  0  0  0  0
 40 73  1  0  0  0  0
 41 45  1  0  0  0  0
 42 46  1  0  0  0  0
 42 49  1  0  0  0  0
 43 44  1  0  0  0  0
 43 54  1  0  0  0  0
 44 54  1  0  0  0  0
 45 55  1  0  0  0  0
 46 57  1  0  0  0  0
 47 50  1  0  0  0  0
 47 53  1  0  0  0  0
 48 51  1  0  0  0  0
 48 53  1  0  0  0  0
 49 74  1  0  0  0  0
 50 75  1  0  0  0  0
 51 75  1  0  0  0  0
 52 57  1  0  0  0  0
 52 74  1  0  0  0  0
 55 78  1  0  0  0  0
 56 73  1  0  0  0  0
 57 72  1  0  0  0  0
 58 66  1  0  0  0  0
 59 68  1  0  0  0  0
 60 69  1  0  0  0  0
 61 69  1  0  0  0  0
 62 69  1  0  0  0  0
 63 80  1  0  0  0  0
 64 65  1  0  0  0  0
 64 88  1  0  0  0  0
 65 89  1  0  0  0  0
 66 86  1  0  0  0  0
 67 69  1  0  0  0  0
 67 79  1  0  0  0  0
 68 80  1  0  0  0  0
 71 72  1  0  0  0  0
M  CHG  1  80   1
M  ISO  4  37 100  64 101  75 100  88 101
M  END
> <Batch ID>
0154

> <Smiles>
CNC(C)C(=O)NC(C(=O)N1Cc2cc([101O:1][101CH2:1]COc3ncc(C4CC[100N:0]([100C:0](=O)N5CCCC(n6nc(-c7ccc(Oc8ccc(F)cc8F)cc7)c(C(N)=O)c6N)C5)CC4)c(C(C)O)c3C3CC3)ccc2CC1C(=O)NC1CCCc2ccccc21)C(C)(C)C

> <Shape>
0.277

> <Color>
0.093

> <Negative vol penalty>
0.000

$$$$

  -OEChem-04052321513D

 88 98  0     1  0  0  0  0  0999 V2000
  -28.3264  -24.4842   17.1543 C   0  0  0  0  0  0  0  0  0  0  0  0
  -27.1757  -25.1994   17.4659 C   0  0  0  0  0  0  0  0  0  0  0  0
  -24.0011  -13.0731   22.6573 C   0  0  0  0  0  0  0  0  0  0  0  0
  -24.0589  -11.7657   20.6265 C   0  0  0  0  0  0  0  0  0  0  0  0
  -29.4418  -24.5695   17.9850 C   0  0  0  0  0  0  0  0  0  0  0  0
  -27.1438  -26.0094   18.6015 C   0  0  0  0  0  0  0  0  0  0  0  0
  -23.1689  -28.8426   19.2152 C   0  0  0  0  0  0  0  0  0  0  0  0
  -22.9543  -12.2848   23.1352 C   0  0  0  0  0  0  0  0  0  0  0  0
  -23.0120  -10.9773   21.1044 C   0  0  0  0  0  0  0  0  0  0  0  0
  -21.9239  -28.3271   19.5730 C   0  0  0  0  0  0  0  0  0  0  0  0
  -22.6140   -8.4158   23.2725 C   0  0  0  0  0  0  0  0  0  0  0  0
  -22.7273   -7.0332   23.1269 C   0  0  0  0  0  0  0  0  0  0  0  0
  -21.4057  -25.1265   19.5661 C   0  0  0  0  0  0  0  0  0  0  0  0
  -22.2546  -29.1112   21.8302 C   0  0  0  0  0  0  0  0  0  0  0  0
  -20.9468  -25.0957   21.9379 C   0  0  0  0  0  0  0  0  0  0  0  0
  -20.7109   -7.0080   21.7963 C   0  0  0  0  0  0  0  0  0  0  0  0
  -24.5534  -12.8136   21.4030 C   0  0  0  0  0  0  0  0  0  0  0  0
  -27.0136  -13.4101   21.0878 C   0  0  0  0  0  0  0  0  0  0  0  0
  -29.4185  -25.3715   19.1379 C   0  0  0  0  0  0  0  0  0  0  0  0
  -23.9722  -29.4877   20.1665 C   0  0  0  0  0  0  0  0  0  0  0  0
  -28.2675  -26.1275   19.4395 C   0  0  0  0  0  0  0  0  0  0  0  0
  -22.2796  -24.0506   19.7211 C   0  0  0  0  0  0  0  0  0  0  0  0
  -23.5083  -29.6362   21.4814 C   0  0  0  0  0  0  0  0  0  0  0  0
  -22.4872  -23.4971   20.9846 C   0  0  0  0  0  0  0  0  0  0  0  0
  -20.7393  -25.6491   20.6745 C   0  0  0  0  0  0  0  0  0  0  0  0
  -21.8208  -24.0197   22.0930 C   0  0  0  0  0  0  0  0  0  0  0  0
  -22.4598  -11.2369   22.3587 C   0  0  0  0  0  0  0  0  0  0  0  0
  -21.4678  -28.4588   20.8813 C   0  0  0  0  0  0  0  0  0  0  0  0
  -21.5491   -9.0945   22.6800 C   0  0  0  0  0  0  0  0  0  0  0  0
  -21.7758   -6.3293   22.3888 C   0  0  0  0  0  0  0  0  0  0  0  0
  -20.5976   -8.3907   21.9419 C   0  0  0  0  0  0  0  0  0  0  0  0
  -25.6344  -13.6280   20.9086 C   0  0  0  0  0  0  0  0  0  0  0  0
  -27.6146  -14.4558   20.4307 C   0  0  0  0  0  0  0  0  0  0  0  0
  -27.6909  -12.3567   21.7859 C   0  0  0  0  0  0  0  0  0  0  0  0
  -26.8477  -28.9498   21.4097 C   0  0  0  0  0  0  0  0  0  0  0  0
  -26.3425  -31.8226   22.8288 C   0  0  0  0  0  0  0  0  0  0  0  0
  -24.1103  -34.1588   23.9272 C   0  0  0  0  0  0  0  0  0  0  0  0
  -25.9932  -19.9205   19.0331 C   0  0  0  0  0  0  0  0  0  0  0  0
  -30.6565  -25.4333   19.9975 C   0  0  0  0  0  0  0  0  0  0  0  0
  -25.3011  -30.0618   19.7582 C   0  0  0  0  0  0  0  0  0  0  0  0
  -24.3236  -30.3382   22.5354 C   0  0  0  0  0  0  0  0  0  0  0  0
  -30.3794  -25.9598   21.4019 C   0  0  0  0  0  0  0  0  0  0  0  0
  -26.9566  -17.4752   16.7880 C   0  0  0  0  0  0  0  0  0  0  0  0
  -23.3957  -24.4576   17.4271 C   0  0  0  0  0  0  0  0  0  0  0  0
  -22.2651  -23.5044   17.1953 C   0  0  0  0  0  0  0  0  0  0  0  0
  -29.5705  -27.2459   21.3246 C   0  0  0  0  0  0  0  0  0  0  0  0
  -26.8670  -16.1823   17.5983 C   0  0  0  0  0  0  0  0  0  0  0  0
  -22.9676  -21.0839   20.3784 C   0  0  0  0  0  0  0  0  0  0  0  0
  -24.8814  -22.6947   20.7685 C   0  0  0  0  0  0  0  0  0  0  0  0
  -25.7799  -18.3942   17.0951 C   0  0  0  0  0  0  0  0  0  0  0  0
  -23.9479  -19.9171   20.5290 C   0  0  0  0  0  0  0  0  0  0  0  0
  -25.8083  -21.4940   20.9354 C   0  0  0  0  0  0  0  0  0  0  0  0
  -25.5479  -17.4466   19.3681 C   0  0  0  0  0  0  0  0  0  0  0  0
  -22.9810  -23.5086   18.5195 C   0  0  0  0  0  0  0  0  0  0  0  0
  -23.4375  -22.3269   21.1554 C   0  0  0  0  0  0  0  0  0  0  0  0
  -28.1993  -26.9911   20.6860 C   0  0  1  0  0  0  0  0  0  0  0  0
  -26.2582  -30.2466   20.9318 C   0  0  1  0  0  0  0  0  0  0  0  0
  -26.7199  -16.4805   19.1009 C   0  0  1  0  0  0  0  0  0  0  0  0
  -22.0257  -23.4455   23.4565 C   0  0  0  0  0  0  0  0  0  0  0  0
  -18.3802  -26.4803   20.9695 C   0  0  0  0  0  0  0  0  0  0  0  0
  -23.9956  -36.3852   25.0793 C   0  0  0  0  0  0  0  0  0  0  0  0
  -26.9476  -30.4706   25.4964 C   0  0  0  0  0  0  0  0  0  0  0  0
  -25.9105  -32.4365   26.6487 C   0  0  0  0  0  0  0  0  0  0  0  0
  -27.9406  -32.7508   25.2335 C   0  0  0  0  0  0  0  0  0  0  0  0
  -22.7911  -35.4253   21.6002 C   0  0  0  0  0  0  0  0  0  0  0  0
  -19.8051  -26.7997   20.5088 C   0  0  1  0  0  0  0  0  0  1  0  0
  -25.7178  -32.2796   24.1249 C   0  0  1  0  0  0  0  0  0  0  0  0
  -24.0547  -35.6644   23.7415 C   0  0  2  0  0  0  0  0  0  0  0  0
  -26.6144  -31.9694   25.3567 C   0  0  0  0  0  0  0  0  0  0  0  0
  -25.3744  -14.7259   20.1938 N   0  0  0  0  0  0  0  0  0  0  0  0
  -26.5984  -15.2073   19.9181 N   0  0  0  0  0  0  0  0  0  0  0  0
  -25.6188  -30.8769   22.0886 N   0  0  0  0  0  0  0  0  0  0  0  0
  -25.6720  -18.6503   18.5313 N   0  0  0  0  0  0  0  0  0  0  0  0
  -25.3134  -20.3389   20.1869 N   0  0  0  0  0  0  0  0  0  0  0  0
  -28.9079  -14.7965   20.2472 N   0  0  0  0  0  0  0  0  0  0  0  0
  -26.9210  -11.3625   22.4049 N   0  0  0  0  0  0  0  0  0  0  0  0
  -27.5500  -28.2598   20.4400 N   0  0  0  0  0  0  0  0  0  0  0  0
  -25.4085  -33.6949   23.9522 N   0  0  0  0  0  0  0  0  0  0  0  0
  -22.8510  -36.0445   22.9493 N   0  3  0  0  0  0  0  0  0  0  0  0
  -28.9413  -12.3076   21.8724 O   0  0  0  0  0  0  0  0  0  0  0  0
  -26.6793  -28.6017   22.5725 O   0  0  0  0  0  0  0  0  0  0  0  0
  -27.4289  -32.2928   22.4823 O   0  0  0  0  0  0  0  0  0  0  0  0
  -23.1029  -33.4642   24.0424 O   0  0  0  0  0  0  0  0  0  0  0  0
  -26.8380  -20.6386   18.4838 O   0  0  0  0  0  0  0  0  0  0  0  0
  -21.4385  -10.4673   22.8247 O   0  0  0  0  0  0  0  0  0  0  0  0
  -20.2497  -27.9546   21.2344 O   0  0  0  0  0  0  0  0  0  1  0  0
  -21.8855   -5.0018   22.2479 F   0  0  0  0  0  0  0  0  0  0  0  0
  -19.5730   -9.0374   21.3694 F   0  0  0  0  0  0  0  0  0  0  0  0
  1  2  1  0  0  0  0
  1  5  2  0  0  0  0
  2  6  2  0  0  0  0
  3  8  2  0  0  0  0
  3 17  1  0  0  0  0
  4  9  1  0  0  0  0
  4 17  2  0  0  0  0
  5 19  1  0  0  0  0
  6 21  1  0  0  0  0
  7 10  2  0  0  0  0
  7 20  1  0  0  0  0
  8 27  1  0  0  0  0
  9 27  2  0  0  0  0
 10 28  1  0  0  0  0
 11 12  2  0  0  0  0
 11 29  1  0  0  0  0
 12 30  1  0  0  0  0
 13 22  1  0  0  0  0
 13 25  2  0  0  0  0
 14 23  1  0  0  0  0
 14 28  2  0  0  0  0
 15 25  1  0  0  0  0
 15 26  2  0  0  0  0
 16 30  2  0  0  0  0
 16 31  1  0  0  0  0
 17 32  1  0  0  0  0
 18 32  1  0  0  0  0
 18 33  2  0  0  0  0
 18 34  1  0  0  0  0
 19 21  2  0  0  0  0
 19 39  1  0  0  0  0
 20 23  2  0  0  0  0
 20 40  1  0  0  0  0
 21 56  1  0  0  0  0
 22 24  2  0  0  0  0
 22 54  1  0  0  0  0
 23 41  1  0  0  0  0
 24 26  1  0  0  0  0
 24 55  1  0  0  0  0
 25 66  1  0  0  0  0
 26 59  1  0  0  0  0
 27 85  1  0  0  0  0
 28 86  1  0  0  0  0
 29 31  2  0  0  0  0
 29 85  1  0  0  0  0
 30 87  1  0  0  0  0
 31 88  1  0  0  0  0
 32 70  2  0  0  0  0
 33 71  1  0  0  0  0
 33 75  1  0  0  0  0
 34 76  1  0  0  0  0
 34 80  2  0  0  0  0
 35 57  1  0  0  0  0
 35 77  1  0  0  0  0
 35 81  2  0  0  0  0
 36 67  1  0  0  0  0
 36 72  1  0  0  0  0
 36 82  2  0  0  0  0
 37 68  1  0  0  0  0
 37 78  1  0  0  0  0
 37 83  2  0  0  0  0
 38 73  1  0  0  0  0
 38 74  1  0  0  0  0
 38 84  2  0  0  0  0
 39 42  1  0  0  0  0
 40 57  1  0  0  0  0
 41 72  1  0  0  0  0
 42 46  1  0  0  0  0
 43 47  1  0  0  0  0
 43 50  1  0  0  0  0
 44 45  1  0  0  0  0
 44 54  1  0  0  0  0
 45 54  1  0  0  0  0
 46 56  1  0  0  0  0
 47 58  1  0  0  0  0
 48 51  1  0  0  0  0
 48 55  1  0  0  0  0
 49 52  1  0  0  0  0
 49 55  1  0  0  0  0
 50 73  1  0  0  0  0
 51 74  1  0  0  0  0
 52 74  1  0  0  0  0
 53 58  1  0  0  0  0
 53 73  1  0  0  0  0
 56 77  1  0  0  0  0
 57 72  1  0  0  0  0
 58 71  1  0  0  0  0
 60 66  1  0  0  0  0
 61 68  1  0  0  0  0
 62 69  1  0  0  0  0
 63 69  1  0  0  0  0
 64 69  1  0  0  0  0
 65 79  1  0  0  0  0
 66 86  1  0  0  0  0
 67 69  1  0  0  0  0
 67 78  1  0  0  0  0
 68 79  1  0  0  0  0
 70 71  1  0  0  0  0
M  CHG  1  79   1
M  ISO  4  38 100  66 101  74 100  86 101
M  END
> <Batch ID>
0154

> <Smiles>
CNC(C)C(=O)NC(C(=O)N1Cc2cc([101O:1][101CH:1](C)c3cc(C)c(C4CC[100N:0]([100C:0](=O)N5CCCC(n6nc(-c7ccc(Oc8ccc(F)cc8F)cc7)c(C(N)=O)c6N)C5)CC4)c(C4CC4)c3)ccc2CC1C(=O)NC1CCCc2ccccc21)C(C)(C)C

> <Shape>
0.295

> <Color>
0.069

> <Negative vol penalty>
0.000

$$$$

  -OEChem-04052321513D

 87 96  0     1  0  0  0  0  0999 V2000
  -27.7367  -34.7505   22.2618 C   0  0  0  0  0  0  0  0  0  0  0  0
  -27.9384  -33.3766   22.1774 C   0  0  0  0  0  0  0  0  0  0  0  0
  -24.7836  -17.3327   23.5693 C   0  0  0  0  0  0  0  0  0  0  0  0
  -26.5093  -15.7176   24.0698 C   0  0  0  0  0  0  0  0  0  0  0  0
  -26.5371  -35.2480   22.7692 C   0  0  0  0  0  0  0  0  0  0  0  0
  -26.9410  -32.4993   22.6015 C   0  0  0  0  0  0  0  0  0  0  0  0
  -26.1919  -28.6910   19.3488 C   0  0  0  0  0  0  0  0  0  0  0  0
  -24.6528  -16.7961   22.2885 C   0  0  0  0  0  0  0  0  0  0  0  0
  -26.3785  -15.1810   22.7889 C   0  0  0  0  0  0  0  0  0  0  0  0
  -27.1123  -27.6440   19.3713 C   0  0  0  0  0  0  0  0  0  0  0  0
  -26.2467  -13.1537   19.7738 C   0  0  0  0  0  0  0  0  0  0  0  0
  -26.2052  -11.7647   19.6529 C   0  0  0  0  0  0  0  0  0  0  0  0
  -25.5769  -26.3306   20.6891 C   0  0  0  0  0  0  0  0  0  0  0  0
  -24.2312  -11.7027   21.0445 C   0  0  0  0  0  0  0  0  0  0  0  0
  -25.7119  -16.7935   24.4600 C   0  0  0  0  0  0  0  0  0  0  0  0
  -25.1497  -16.9608   26.9426 C   0  0  0  0  0  0  0  0  0  0  0  0
  -25.5207  -34.3763   23.1907 C   0  0  0  0  0  0  0  0  0  0  0  0
  -24.9594  -28.5695   20.0065 C   0  0  0  0  0  0  0  0  0  0  0  0
  -25.7272  -32.9855   23.1163 C   0  0  0  0  0  0  0  0  0  0  0  0
  -24.6415  -27.3765   20.6712 C   0  0  0  0  0  0  0  0  0  0  0  0
  -25.4503  -15.7203   21.8983 C   0  0  0  0  0  0  0  0  0  0  0  0
  -26.8060  -26.4647   20.0439 C   0  0  0  0  0  0  0  0  0  0  0  0
  -25.2806  -13.8172   20.5302 C   0  0  0  0  0  0  0  0  0  0  0  0
  -25.1974  -11.0392   20.2882 C   0  0  0  0  0  0  0  0  0  0  0  0
  -24.2728  -13.0917   21.1655 C   0  0  0  0  0  0  0  0  0  0  0  0
  -25.8478  -17.3477   25.7830 C   0  0  0  0  0  0  0  0  0  0  0  0
  -25.6366  -17.7850   27.9276 C   0  0  0  0  0  0  0  0  0  0  0  0
  -24.1505  -15.9469   27.1142 C   0  0  0  0  0  0  0  0  0  0  0  0
  -29.6876  -20.6801   19.7493 C   0  0  0  0  0  0  0  0  0  0  0  0
  -23.5348  -30.0984   22.4016 C   0  0  0  0  0  0  0  0  0  0  0  0
  -21.0256  -28.2040   21.6032 C   0  0  0  0  0  0  0  0  0  0  0  0
  -28.1303  -23.1314   19.4917 C   0  0  0  0  0  0  0  0  0  0  0  0
  -19.9192  -25.3205   20.1512 C   0  0  0  0  0  0  0  0  0  0  0  0
  -29.7775  -20.4372   25.1699 C   0  0  0  0  0  0  0  0  0  0  0  0
  -24.2596  -34.9608   23.7762 C   0  0  0  0  0  0  0  0  0  0  0  0
  -23.9666  -29.6980   19.9503 C   0  0  0  0  0  0  0  0  0  0  0  0
  -23.3238  -27.1881   21.3759 C   0  0  0  0  0  0  0  0  0  0  0  0
  -23.1060  -33.9642   23.8554 C   0  0  0  0  0  0  0  0  0  0  0  0
  -27.1807  -18.8769   17.9277 C   0  0  0  0  0  0  0  0  0  0  0  0
  -28.2565  -19.4011   16.9933 C   0  0  0  0  0  0  0  0  0  0  0  0
  -26.6361  -21.7627   26.7117 C   0  0  0  0  0  0  0  0  0  0  0  0
  -23.5857  -32.6372   24.4348 C   0  0  0  0  0  0  0  0  0  0  0  0
  -26.6279  -21.0135   28.0426 C   0  0  0  0  0  0  0  0  0  0  0  0
  -27.6153  -19.3823   19.3007 C   0  0  0  0  0  0  0  0  0  0  0  0
  -28.5074  -20.8112   17.5126 C   0  0  0  0  0  0  0  0  0  0  0  0
  -28.0587  -21.9597   26.2068 C   0  0  0  0  0  0  0  0  0  0  0  0
  -30.8993  -20.5303   21.8968 C   0  0  0  0  0  0  0  0  0  0  0  0
  -28.4318  -20.2759   21.9190 C   0  0  0  0  0  0  0  0  0  0  0  0
  -30.8070  -21.4085   23.1379 C   0  0  0  0  0  0  0  0  0  0  0  0
  -28.3606  -21.1320   23.1849 C   0  0  0  0  0  0  0  0  0  0  0  0
  -28.8042  -19.9037   27.3750 C   0  0  0  0  0  0  0  0  0  0  0  0
  -24.6594  -32.0019   23.5431 C   0  0  1  0  0  0  0  0  0  0  0  0
  -22.9517  -29.6583   21.0886 C   0  0  1  0  0  0  0  0  0  0  0  0
  -27.3993  -19.6807   27.9702 C   0  0  2  0  0  0  0  0  0  0  0  0
  -28.3544  -20.6950   19.0279 C   0  0  0  0  0  0  0  0  0  0  0  0
  -17.8182  -24.0295   19.6859 C   0  0  0  0  0  0  0  0  0  0  0  0
  -20.9248  -27.3207   24.5220 C   0  0  0  0  0  0  0  0  0  0  0  0
  -19.4958  -25.3901   23.8158 C   0  0  0  0  0  0  0  0  0  0  0  0
  -18.6892  -27.7262   23.4770 C   0  0  0  0  0  0  0  0  0  0  0  0
  -20.3352  -25.4734   17.2250 C   0  0  0  0  0  0  0  0  0  0  0  0
  -27.1929  -24.1206   20.1507 C   0  0  0  0  0  0  0  0  0  1  0  0
  -20.5481  -26.8324   22.0149 C   0  0  1  0  0  0  0  0  0  0  0  0
  -18.8046  -25.0579   19.1546 C   0  0  2  0  0  0  0  0  0  0  0  0
  -19.9402  -26.8213   23.4459 C   0  0  0  0  0  0  0  0  0  0  0  0
  -26.7123  -18.3406   26.0088 N   0  0  0  0  0  0  0  0  0  0  0  0
  -26.5605  -18.5845   27.3216 N   0  0  0  0  0  0  0  0  0  0  0  0
  -29.6458  -20.5474   21.1382 N   0  0  0  0  0  0  0  0  0  0  0  0
  -22.3888  -28.3227   21.2977 N   0  0  0  0  0  0  0  0  0  0  0  0
  -28.7899  -20.6892   26.1376 N   0  0  0  0  0  0  0  0  0  0  0  0
  -29.6248  -21.0714   23.9277 N   0  0  0  0  0  0  0  0  0  0  0  0
  -25.3602  -17.8965   29.2442 N   0  0  0  0  0  0  0  0  0  0  0  0
  -23.7664  -15.1917   25.9977 N   0  0  0  0  0  0  0  0  0  0  0  0
  -24.0521  -31.3797   22.3862 N   0  0  0  0  0  0  0  0  0  0  0  0
  -27.6524  -21.8291   19.5747 N   0  0  0  0  0  0  0  0  0  0  0  0
  -19.6290  -26.3900   20.9718 N   0  0  0  0  0  0  0  0  0  0  0  0
  -19.3665  -24.5507   17.8709 N   0  3  0  0  0  0  0  0  0  0  0  0
  -23.6023  -15.7286   28.2211 O   0  0  0  0  0  0  0  0  0  0  0  0
  -30.7280  -20.7870   19.0950 O   0  0  0  0  0  0  0  0  0  0  0  0
  -23.5153  -29.3329   23.3583 O   0  0  0  0  0  0  0  0  0  0  0  0
  -20.2174  -29.1342   21.5475 O   0  0  0  0  0  0  0  0  0  0  0  0
  -29.1827  -23.4687   18.9561 O   0  0  0  0  0  0  0  0  0  0  0  0
  -20.9430  -24.6424   20.1995 O   0  0  0  0  0  0  0  0  0  0  0  0
  -30.7296  -19.6814   25.4004 O   0  0  0  0  0  0  0  0  0  0  0  0
  -25.3228  -15.1962   20.6486 O   0  0  0  0  0  0  0  0  0  0  0  0
  -27.7122  -25.4308   20.0683 O   0  0  0  0  0  0  0  0  0  1  0  0
  -25.1567   -9.7055   20.1708 F   0  0  0  0  0  0  0  0  0  0  0  0
  -23.3411  -13.7236   21.8924 F   0  0  0  0  0  0  0  0  0  0  0  0
  1  2  1  0  0  0  0
  1  5  2  0  0  0  0
  2  6  2  0  0  0  0
  3  8  2  0  0  0  0
  3 15  1  0  0  0  0
  4  9  1  0  0  0  0
  4 15  2  0  0  0  0
  5 17  1  0  0  0  0
  6 19  1  0  0  0  0
  7 10  2  0  0  0  0
  7 18  1  0  0  0  0
  8 21  1  0  0  0  0
  9 21  2  0  0  0  0
 10 22  1  0  0  0  0
 11 12  2  0  0  0  0
 11 23  1  0  0  0  0
 12 24  1  0  0  0  0
 13 20  1  0  0  0  0
 13 22  2  0  0  0  0
 14 24  2  0  0  0  0
 14 25  1  0  0  0  0
 15 26  1  0  0  0  0
 16 26  1  0  0  0  0
 16 27  2  0  0  0  0
 16 28  1  0  0  0  0
 17 19  2  0  0  0  0
 17 35  1  0  0  0  0
 18 20  2  0  0  0  0
 18 36  1  0  0  0  0
 19 52  1  0  0  0  0
 20 37  1  0  0  0  0
 21 84  1  0  0  0  0
 22 85  1  0  0  0  0
 23 25  2  0  0  0  0
 23 84  1  0  0  0  0
 24 86  1  0  0  0  0
 25 87  1  0  0  0  0
 26 65  2  0  0  0  0
 27 66  1  0  0  0  0
 27 71  1  0  0  0  0
 28 72  1  0  0  0  0
 28 77  2  0  0  0  0
 29 55  1  0  0  0  0
 29 67  1  0  0  0  0
 29 78  2  0  0  0  0
 30 53  1  0  0  0  0
 30 73  1  0  0  0  0
 30 79  2  0  0  0  0
 31 62  1  0  0  0  0
 31 68  1  0  0  0  0
 31 80  2  0  0  0  0
 32 61  1  0  0  0  0
 32 74  1  0  0  0  0
 32 81  2  0  0  0  0
 33 63  1  0  0  0  0
 33 75  1  0  0  0  0
 33 82  2  0  0  0  0
 34 69  1  0  0  0  0
 34 70  1  0  0  0  0
 34 83  2  0  0  0  0
 35 38  1  0  0  0  0
 36 53  1  0  0  0  0
 37 68  1  0  0  0  0
 38 42  1  0  0  0  0
 39 40  1  0  0  0  0
 39 44  1  0  0  0  0
 40 45  1  0  0  0  0
 41 43  1  0  0  0  0
 41 46  1  0  0  0  0
 42 52  1  0  0  0  0
 43 54  1  0  0  0  0
 44 55  1  0  0  0  0
 45 55  1  0  0  0  0
 46 69  1  0  0  0  0
 47 49  1  0  0  0  0
 47 67  1  0  0  0  0
 48 50  1  0  0  0  0
 48 67  1  0  0  0  0
 49 70  1  0  0  0  0
 50 70  1  0  0  0  0
 51 54  1  0  0  0  0
 51 69  1  0  0  0  0
 52 73  1  0  0  0  0
 53 68  1  0  0  0  0
 54 66  1  0  0  0  0
 55 74  1  0  0  0  0
 56 63  1  0  0  0  0
 57 64  1  0  0  0  0
 58 64  1  0  0  0  0
 59 64  1  0  0  0  0
 60 76  1  0  0  0  0
 61 85  1  0  0  0  0
 62 64  1  0  0  0  0
 62 75  1  0  0  0  0
 63 76  1  0  0  0  0
 65 66  1  0  0  0  0
M  CHG  1  76   1
M  ISO  4  34 100  61 101  70 100  85 101
M  END
> <Batch ID>
0154

> <Smiles>
CNC(C)C(=O)NC(C(=O)N1Cc2cc([101O:1][101CH2:1]C(=O)NC3(C(=O)N4CC[100N:0]([100C:0](=O)N5CCCC(n6nc(-c7ccc(Oc8ccc(F)cc8F)cc7)c(C(N)=O)c6N)C5)CC4)CCCC3)ccc2CC1C(=O)NC1CCCc2ccccc21)C(C)(C)C

> <Shape>
0.227

> <Color>
0.078

> <Negative vol penalty>
0.000

$$$$

  -OEChem-04052321513D

 90 99  0     1  0  0  0  0  0999 V2000
  -17.1120  -30.0722   24.3991 C   0  0  0  0  0  0  0  0  0  0  0  0
  -17.2992  -28.9112   23.6558 C   0  0  0  0  0  0  0  0  0  0  0  0
  -23.3746   -9.7732   19.8591 C   0  0  0  0  0  0  0  0  0  0  0  0
  -23.7105   -9.9217   22.2470 C   0  0  0  0  0  0  0  0  0  0  0  0
  -17.9961  -31.1407   24.2554 C   0  0  0  0  0  0  0  0  0  0  0  0
  -18.3700  -28.8185   22.7675 C   0  0  0  0  0  0  0  0  0  0  0  0
  -21.6263  -23.8053   21.4372 C   0  0  0  0  0  0  0  0  0  0  0  0
  -22.6859   -8.5724   20.0306 C   0  0  0  0  0  0  0  0  0  0  0  0
  -23.0218   -8.7209   22.4185 C   0  0  0  0  0  0  0  0  0  0  0  0
  -21.5644  -22.9001   20.3786 C   0  0  0  0  0  0  0  0  0  0  0  0
  -23.6538   -5.4165   22.0827 C   0  0  0  0  0  0  0  0  0  0  0  0
  -24.2058   -4.4705   22.9462 C   0  0  0  0  0  0  0  0  0  0  0  0
  -24.5548  -18.0745   17.8340 C   0  0  0  0  0  0  0  0  0  0  0  0
  -23.3130  -24.1154   19.2450 C   0  0  0  0  0  0  0  0  0  0  0  0
  -22.2191   -4.5633   24.3180 C   0  0  0  0  0  0  0  0  0  0  0  0
  -23.8869  -10.4478   20.9673 C   0  0  0  0  0  0  0  0  0  0  0  0
  -24.0558  -12.9868   20.7865 C   0  0  0  0  0  0  0  0  0  0  0  0
  -19.0839  -31.0573   23.3720 C   0  0  0  0  0  0  0  0  0  0  0  0
  -22.5260  -24.8804   21.4026 C   0  0  0  0  0  0  0  0  0  0  0  0
  -19.2687  -29.8874   22.6108 C   0  0  0  0  0  0  0  0  0  0  0  0
  -25.3514  -18.3590   16.7248 C   0  0  0  0  0  0  0  0  0  0  0  0
  -23.3861  -25.0313   20.3056 C   0  0  0  0  0  0  0  0  0  0  0  0
  -23.2983  -18.6667   17.9606 C   0  0  0  0  0  0  0  0  0  0  0  0
  -24.8914  -19.2358   15.7424 C   0  0  0  0  0  0  0  0  0  0  0  0
  -23.6349  -19.8281   15.8690 C   0  0  0  0  0  0  0  0  0  0  0  0
  -22.8384  -19.5436   16.9782 C   0  0  0  0  0  0  0  0  0  0  0  0
  -22.5095   -8.0462   21.3103 C   0  0  0  0  0  0  0  0  0  0  0  0
  -22.4058  -23.0567   19.2810 C   0  0  0  0  0  0  0  0  0  0  0  0
  -22.3844   -5.9360   22.3368 C   0  0  0  0  0  0  0  0  0  0  0  0
  -23.4885   -4.0438   24.0639 C   0  0  0  0  0  0  0  0  0  0  0  0
  -21.6671   -5.5094   23.4544 C   0  0  0  0  0  0  0  0  0  0  0  0
  -24.5989  -11.6880   20.7907 C   0  0  0  0  0  0  0  0  0  0  0  0
  -25.1364  -13.8101   20.5842 C   0  0  0  0  0  0  0  0  0  0  0  0
  -22.6962  -13.4111   20.9510 C   0  0  0  0  0  0  0  0  0  0  0  0
  -22.2396  -28.0461   21.4124 C   0  0  0  0  0  0  0  0  0  0  0  0
  -25.4745  -27.9482   21.6318 C   0  0  0  0  0  0  0  0  0  0  0  0
  -28.3646  -26.2180   21.0832 C   0  0  0  0  0  0  0  0  0  0  0  0
  -29.8321  -15.1435   18.1169 C   0  0  0  0  0  0  0  0  0  0  0  0
  -19.9856  -32.2561   23.2158 C   0  0  0  0  0  0  0  0  0  0  0  0
  -22.5991  -25.8327   22.5646 C   0  0  0  0  0  0  0  0  0  0  0  0
  -24.3839  -26.1570   20.2292 C   0  0  0  0  0  0  0  0  0  0  0  0
  -21.3112  -31.9360   22.5297 C   0  0  0  0  0  0  0  0  0  0  0  0
  -30.0940  -12.8464   20.6872 C   0  0  0  0  0  0  0  0  0  0  0  0
  -21.0769  -31.0816   21.2879 C   0  0  0  0  0  0  0  0  0  0  0  0
  -28.6458  -12.4365   20.9549 C   0  0  0  0  0  0  0  0  0  0  0  0
  -27.6490  -18.1107   17.7632 C   0  0  0  0  0  0  0  0  0  0  0  0
  -26.6083  -16.1692   16.5189 C   0  0  0  0  0  0  0  0  0  0  0  0
  -30.3581  -12.9745   19.1912 C   0  0  0  0  0  0  0  0  0  0  0  0
  -29.0078  -17.4233   17.6527 C   0  0  0  0  0  0  0  0  0  0  0  0
  -27.9899  -15.5268   16.4349 C   0  0  0  0  0  0  0  0  0  0  0  0
  -27.9878  -13.5264   18.7541 C   0  0  0  0  0  0  0  0  0  0  0  0
  -26.7142  -17.7017   16.6118 C   0  0  0  0  0  0  0  0  0  0  0  0
  -20.4328  -29.7394   21.6552 C   0  0  1  0  0  0  0  0  0  0  0  0
  -23.1949  -27.1865   22.1910 C   0  0  1  0  0  0  0  0  0  0  0  0
  -27.6633  -13.3923   20.2554 C   0  0  1  0  0  0  0  0  0  0  0  0
  -22.4647  -18.3445   19.1576 C   0  0  0  0  0  0  0  0  0  0  0  0
  -25.7477  -19.5391   14.5537 C   0  0  0  0  0  0  0  0  0  0  0  0
  -23.1413  -20.7683   14.8148 C   0  0  0  0  0  0  0  0  0  0  0  0
  -30.8542  -26.4124   21.3312 C   0  0  0  0  0  0  0  0  0  0  0  0
  -20.4715  -18.0274   16.1314 C   0  0  0  0  0  0  0  0  0  0  0  0
  -25.5702  -29.7913   19.2021 C   0  0  0  0  0  0  0  0  0  0  0  0
  -27.9840  -29.1869   18.9258 C   0  0  0  0  0  0  0  0  0  0  0  0
  -27.2197  -30.3463   20.9981 C   0  0  0  0  0  0  0  0  0  0  0  0
  -28.4801  -23.8956   22.9140 C   0  0  0  0  0  0  0  0  0  0  0  0
  -21.3986  -21.1127   18.3523 C   0  0  0  0  0  0  0  0  0  1  0  0
  -21.4907  -20.1780   17.1170 C   0  0  2  0  0  0  0  0  0  0  0  0
  -26.6129  -27.9181   20.6408 C   0  0  1  0  0  0  0  0  0  0  0  0
  -29.5599  -25.9441   21.9780 C   0  0  2  0  0  0  0  0  0  0  0  0
  -20.2991  -19.1702   17.1271 C   0  0  2  0  0  0  0  0  0  0  0  0
  -26.8266  -29.2905   19.9419 C   0  0  0  0  0  0  0  0  0  0  0  0
  -25.9216  -11.6816   20.6055 N   0  0  0  0  0  0  0  0  0  0  0  0
  -26.2188  -12.9865   20.4830 N   0  0  0  0  0  0  0  0  0  0  0  0
  -24.4129  -27.0656   21.3872 N   0  0  0  0  0  0  0  0  0  0  0  0
  -29.4010  -13.8850   18.5631 N   0  0  0  0  0  0  0  0  0  0  0  0
  -28.8635  -15.9734   17.5285 N   0  0  0  0  0  0  0  0  0  0  0  0
  -25.2568  -15.1510   20.4846 N   0  0  0  0  0  0  0  0  0  0  0  0
  -21.7108  -12.4344   21.1495 N   0  0  0  0  0  0  0  0  0  0  0  0
  -21.4234  -28.8356   22.1997 N   0  0  0  0  0  0  0  0  0  0  0  0
  -27.7780  -27.4320   21.3720 N   0  0  0  0  0  0  0  0  0  0  0  0
  -29.6749  -24.4846   22.2564 N   0  3  0  0  0  0  0  0  0  0  0  0
  -22.3626  -14.6196   20.9062 O   0  0  0  0  0  0  0  0  0  0  0  0
  -22.2438  -27.9977   20.1879 O   0  0  0  0  0  0  0  0  0  0  0  0
  -25.5287  -28.7210   22.5917 O   0  0  0  0  0  0  0  0  0  0  0  0
  -27.9910  -25.4352   20.2125 O   0  0  0  0  0  0  0  0  0  0  0  0
  -31.0079  -15.5082   18.2406 O   0  0  0  0  0  0  0  0  0  0  0  0
  -20.1103  -18.6338   18.4335 O   0  0  0  0  0  0  0  0  0  0  0  0
  -21.8373   -6.8747   21.4781 O   0  0  0  0  0  0  0  0  0  0  0  0
  -22.3465  -22.1695   18.2396 O   0  0  0  0  0  0  0  0  0  1  0  0
  -24.0182   -3.1341   24.8922 F   0  0  0  0  0  0  0  0  0  0  0  0
  -20.4467   -6.0040   23.7031 F   0  0  0  0  0  0  0  0  0  0  0  0
  1  2  1  0  0  0  0
  1  5  2  0  0  0  0
  2  6  2  0  0  0  0
  3  8  2  0  0  0  0
  3 16  1  0  0  0  0
  4  9  1  0  0  0  0
  4 16  2  0  0  0  0
  5 18  1  0  0  0  0
  6 20  1  0  0  0  0
  7 10  2  0  0  0  0
  7 19  1  0  0  0  0
  8 27  1  0  0  0  0
  9 27  2  0  0  0  0
 10 28  1  0  0  0  0
 11 12  2  0  0  0  0
 11 29  1  0  0  0  0
 12 30  1  0  0  0  0
 13 21  1  0  0  0  0
 13 23  2  0  0  0  0
 14 22  1  0  0  0  0
 14 28  2  0  0  0  0
 15 30  2  0  0  0  0
 15 31  1  0  0  0  0
 16 32  1  0  0  0  0
 17 32  1  0  0  0  0
 17 33  2  0  0  0  0
 17 34  1  0  0  0  0
 18 20  2  0  0  0  0
 18 39  1  0  0  0  0
 19 22  2  0  0  0  0
 19 40  1  0  0  0  0
 20 53  1  0  0  0  0
 21 24  2  0  0  0  0
 21 52  1  0  0  0  0
 22 41  1  0  0  0  0
 23 26  1  0  0  0  0
 23 56  1  0  0  0  0
 24 25  1  0  0  0  0
 24 57  1  0  0  0  0
 25 26  2  0  0  0  0
 25 58  1  0  0  0  0
 26 66  1  0  0  0  0
 27 87  1  0  0  0  0
 28 88  1  0  0  0  0
 29 31  2  0  0  0  0
 29 87  1  0  0  0  0
 30 89  1  0  0  0  0
 31 90  1  0  0  0  0
 32 71  2  0  0  0  0
 33 72  1  0  0  0  0
 33 76  1  0  0  0  0
 34 77  1  0  0  0  0
 34 81  2  0  0  0  0
 35 54  1  0  0  0  0
 35 78  1  0  0  0  0
 35 82  2  0  0  0  0
 36 67  1  0  0  0  0
 36 73  1  0  0  0  0
 36 83  2  0  0  0  0
 37 68  1  0  0  0  0
 37 79  1  0  0  0  0
 37 84  2  0  0  0  0
 38 74  1  0  0  0  0
 38 75  1  0  0  0  0
 38 85  2  0  0  0  0
 39 42  1  0  0  0  0
 40 54  1  0  0  0  0
 41 73  1  0  0  0  0
 42 44  1  0  0  0  0
 43 45  1  0  0  0  0
 43 48  1  0  0  0  0
 44 53  1  0  0  0  0
 45 55  1  0  0  0  0
 46 49  1  0  0  0  0
 46 52  1  0  0  0  0
 47 50  1  0  0  0  0
 47 52  1  0  0  0  0
 48 74  1  0  0  0  0
 49 75  1  0  0  0  0
 50 75  1  0  0  0  0
 51 55  1  0  0  0  0
 51 74  1  0  0  0  0
 53 78  1  0  0  0  0
 54 73  1  0  0  0  0
 55 72  1  0  0  0  0
 59 68  1  0  0  0  0
 60 69  1  0  0  0  0
 61 70  1  0  0  0  0
 62 70  1  0  0  0  0
 63 70  1  0  0  0  0
 64 80  1  0  0  0  0
 65 66  1  0  0  0  0
 65 88  1  0  0  0  0
 66 69  1  0  0  0  0
 67 70  1  0  0  0  0
 67 79  1  0  0  0  0
 68 80  1  0  0  0  0
 69 86  1  0  0  0  0
 71 72  1  0  0  0  0
M  CHG  1  80   1
M  ISO  4  38 100  65 101  75 100  88 101
M  END
> <Batch ID>
0154

> <Smiles>
CNC(C)C(=O)NC(C(=O)N1Cc2cc([101O:1][101CH2:1]C(c3c(C)cc(C4CC[100N:0]([100C:0](=O)N5CCCC(n6nc(-c7ccc(Oc8ccc(F)cc8F)cc7)c(C(N)=O)c6N)C5)CC4)c(C)c3C)C(C)O)ccc2CC1C(=O)NC1CCCc2ccccc21)C(C)(C)C

> <Shape>
0.246

> <Color>
0.210

> <Negative vol penalty>
0.000

$$$$

  -OEChem-04052321513D

 92102  0     1  0  0  0  0  0999 V2000
  -28.9626  -33.7539   19.7224 C   0  0  0  0  0  0  0  0  0  0  0  0
  -28.3473  -32.5206   19.9115 C   0  0  0  0  0  0  0  0  0  0  0  0
  -24.2267   -9.4277   22.5230 C   0  0  0  0  0  0  0  0  0  0  0  0
  -23.6942   -9.7070   20.1830 C   0  0  0  0  0  0  0  0  0  0  0  0
  -28.5977  -34.8424   20.5136 C   0  0  0  0  0  0  0  0  0  0  0  0
  -27.3675  -32.3747   20.8929 C   0  0  0  0  0  0  0  0  0  0  0  0
  -23.3365  -29.7904   19.2446 C   0  0  0  0  0  0  0  0  0  0  0  0
  -23.1758   -8.5200   22.6539 C   0  0  0  0  0  0  0  0  0  0  0  0
  -22.6433   -8.7992   20.3138 C   0  0  0  0  0  0  0  0  0  0  0  0
  -23.4568  -28.4034   19.1688 C   0  0  0  0  0  0  0  0  0  0  0  0
  -22.5893   -5.2681   21.9367 C   0  0  0  0  0  0  0  0  0  0  0  0
  -22.8350   -4.0890   22.6402 C   0  0  0  0  0  0  0  0  0  0  0  0
  -22.2738  -28.1925   21.2605 C   0  0  0  0  0  0  0  0  0  0  0  0
  -29.9896  -21.4245   19.8306 C   0  0  0  0  0  0  0  0  0  0  0  0
  -21.1060   -4.6733   24.2233 C   0  0  0  0  0  0  0  0  0  0  0  0
  -24.4859  -10.0213   21.2876 C   0  0  0  0  0  0  0  0  0  0  0  0
  -26.9373  -10.7195   21.3914 C   0  0  0  0  0  0  0  0  0  0  0  0
  -27.6060  -34.7122   21.4987 C   0  0  0  0  0  0  0  0  0  0  0  0
  -22.6924  -30.3903   20.3362 C   0  0  0  0  0  0  0  0  0  0  0  0
  -26.9900  -33.4621   21.6990 C   0  0  0  0  0  0  0  0  0  0  0  0
  -22.1444  -29.5871   21.3465 C   0  0  0  0  0  0  0  0  0  0  0  0
  -28.9077  -20.7436   20.4073 C   0  0  0  0  0  0  0  0  0  0  0  0
  -27.6506  -21.3707   20.4675 C   0  0  0  0  0  0  0  0  0  0  0  0
  -27.4898  -22.6518   19.9208 C   0  0  0  0  0  0  0  0  0  0  0  0
  -22.3841   -8.2057   21.5493 C   0  0  0  0  0  0  0  0  0  0  0  0
  -22.9280  -27.6044   20.1782 C   0  0  0  0  0  0  0  0  0  0  0  0
  -21.6020   -6.1499   22.3765 C   0  0  0  0  0  0  0  0  0  0  0  0
  -29.8211  -22.7031   19.3000 C   0  0  0  0  0  0  0  0  0  0  0  0
  -28.5714  -23.3153   19.3427 C   0  0  0  0  0  0  0  0  0  0  0  0
  -22.0933   -3.7916   23.7835 C   0  0  0  0  0  0  0  0  0  0  0  0
  -20.8603   -5.8525   23.5198 C   0  0  0  0  0  0  0  0  0  0  0  0
  -25.5710  -10.9595   21.1519 C   0  0  0  0  0  0  0  0  0  0  0  0
  -27.5492  -11.9191   21.1212 C   0  0  0  0  0  0  0  0  0  0  0  0
  -27.5946   -9.5194   21.8197 C   0  0  0  0  0  0  0  0  0  0  0  0
  -23.5758  -32.4021   22.6332 C   0  0  0  0  0  0  0  0  0  0  0  0
  -20.4171  -32.3360   23.3685 C   0  0  0  0  0  0  0  0  0  0  0  0
  -17.8130  -29.8474   23.5753 C   0  0  0  0  0  0  0  0  0  0  0  0
  -27.9319  -17.2694   21.4570 C   0  0  0  0  0  0  0  0  0  0  0  0
  -27.2787  -35.9052   22.3613 C   0  0  0  0  0  0  0  0  0  0  0  0
  -22.5475  -31.8865   20.3898 C   0  0  0  0  0  0  0  0  0  0  0  0
  -26.4605  -20.6628   21.0625 C   0  0  0  0  0  0  0  0  0  0  0  0
  -21.4258  -30.1810   22.5294 C   0  0  0  0  0  0  0  0  0  0  0  0
  -29.1288  -19.3702   20.9863 C   0  0  0  0  0  0  0  0  0  0  0  0
  -25.9658  -35.7615   23.1268 C   0  0  0  0  0  0  0  0  0  0  0  0
  -25.7801  -16.1098   18.9272 C   0  0  0  0  0  0  0  0  0  0  0  0
  -25.9295  -24.2476   18.7251 C   0  0  0  0  0  0  0  0  0  0  0  0
  -25.9375  -24.1368   21.2602 C   0  0  0  0  0  0  0  0  0  0  0  0
  -25.8796  -34.3885   23.7858 C   0  0  0  0  0  0  0  0  0  0  0  0
  -25.6373  -14.6352   19.3019 C   0  0  0  0  0  0  0  0  0  0  0  0
  -24.5672  -24.9352   18.7659 C   0  0  0  0  0  0  0  0  0  0  0  0
  -24.5749  -24.8245   21.2877 C   0  0  0  0  0  0  0  0  0  0  0  0
  -26.8647  -19.5024   21.9657 C   0  0  0  0  0  0  0  0  0  0  0  0
  -25.7713  -17.0176   20.1583 C   0  0  0  0  0  0  0  0  0  0  0  0
  -26.6254  -15.1683   21.5613 C   0  0  0  0  0  0  0  0  0  0  0  0
  -26.1410  -23.3469   19.9551 C   0  0  0  0  0  0  0  0  0  0  0  0
  -25.9052  -33.2704   22.7366 C   0  0  1  0  0  0  0  0  0  0  0  0
  -22.3233  -32.4148   21.8034 C   0  0  1  0  0  0  0  0  0  0  0  0
  -26.6900  -14.2278   20.3480 C   0  0  1  0  0  0  0  0  0  0  0  0
  -24.3669  -25.7143   20.0646 C   0  0  0  0  0  0  0  0  0  1  0  0
  -32.0959  -23.7678   16.7222 C   0  0  0  0  0  0  0  0  0  0  0  0
  -29.7630  -26.5117   19.1592 C   0  0  0  0  0  0  0  0  0  0  0  0
  -15.3273  -30.0606   23.3048 C   0  0  0  0  0  0  0  0  0  0  0  0
  -20.4042  -32.6400   26.4046 C   0  0  0  0  0  0  0  0  0  0  0  0
  -18.3025  -31.2806   26.4620 C   0  0  0  0  0  0  0  0  0  0  0  0
  -18.3383  -33.4686   25.2644 C   0  0  0  0  0  0  0  0  0  0  0  0
  -17.7476  -27.7712   21.4672 C   0  0  0  0  0  0  0  0  0  0  0  0
  -31.5189  -22.7069   17.6349 C   0  0  0  0  0  0  0  0  0  0  0  0
  -28.6283  -25.6661   19.6969 C   0  0  0  0  0  0  0  0  0  0  0  0
  -19.5447  -31.4863   24.2607 C   0  0  1  0  0  0  0  0  0  0  0  0
  -16.6367  -29.6822   22.6301 C   0  0  2  0  0  0  0  0  0  0  0  0
  -19.1710  -32.2085   25.5859 C   0  0  0  0  0  0  0  0  0  0  0  0
  -25.3287  -12.2132   20.7599 N   0  0  0  0  0  0  0  0  0  0  0  0
  -26.5510  -12.7716   20.7510 N   0  0  0  0  0  0  0  0  0  0  0  0
  -21.3154  -31.6491   22.5397 N   0  0  0  0  0  0  0  0  0  0  0  0
  -27.8913  -18.6686   21.3308 N   0  0  0  0  0  0  0  0  0  0  0  0
  -26.7590  -16.5665   21.1468 N   0  0  0  0  0  0  0  0  0  0  0  0
  -28.8383  -12.3173   21.1666 N   0  0  0  0  0  0  0  0  0  0  0  0
  -26.8158   -8.3776   22.0524 N   0  0  0  0  0  0  0  0  0  0  0  0
  -24.6116  -33.1451   22.0999 N   0  0  0  0  0  0  0  0  0  0  0  0
  -18.3969  -31.0904   23.4518 N   0  0  0  0  0  0  0  0  0  0  0  0
  -16.5367  -28.2684   22.1696 N   0  3  0  0  0  0  0  0  0  0  0  0
  -28.8338   -9.4659   22.0069 O   0  0  0  0  0  0  0  0  0  0  0  0
  -23.6002  -31.7664   23.6806 O   0  0  0  0  0  0  0  0  0  0  0  0
  -20.3007  -33.5636   23.4006 O   0  0  0  0  0  0  0  0  0  0  0  0
  -18.1753  -28.9635   24.3487 O   0  0  0  0  0  0  0  0  0  0  0  0
  -28.9581  -16.6854   21.8278 O   0  0  0  0  0  0  0  0  0  0  0  0
  -21.3587   -7.3197   21.6765 O   0  0  0  0  0  0  0  0  0  0  0  0
  -23.0453  -26.2417   20.1065 O   0  0  0  0  0  0  0  0  0  1  0  0
  -30.8888  -23.3422   18.7455 O   0  0  0  0  0  0  0  0  0  0  0  0
  -28.4135  -24.5645   18.8183 O   0  0  0  0  0  0  0  0  0  0  0  0
  -22.3283   -2.6585   24.4581 F   0  0  0  0  0  0  0  0  0  0  0  0
  -19.9097   -6.6951   23.9465 F   0  0  0  0  0  0  0  0  0  0  0  0
  1  2  1  0  0  0  0
  1  5  2  0  0  0  0
  2  6  2  0  0  0  0
  3  8  2  0  0  0  0
  3 16  1  0  0  0  0
  4  9  1  0  0  0  0
  4 16  2  0  0  0  0
  5 18  1  0  0  0  0
  6 20  1  0  0  0  0
  7 10  2  0  0  0  0
  7 19  1  0  0  0  0
  8 25  1  0  0  0  0
  9 25  2  0  0  0  0
 10 26  1  0  0  0  0
 11 12  2  0  0  0  0
 11 27  1  0  0  0  0
 12 30  1  0  0  0  0
 13 21  1  0  0  0  0
 13 26  2  0  0  0  0
 14 22  2  0  0  0  0
 14 28  1  0  0  0  0
 15 30  2  0  0  0  0
 15 31  1  0  0  0  0
 16 32  1  0  0  0  0
 17 32  1  0  0  0  0
 17 33  2  0  0  0  0
 17 34  1  0  0  0  0
 18 20  2  0  0  0  0
 18 39  1  0  0  0  0
 19 21  2  0  0  0  0
 19 40  1  0  0  0  0
 20 56  1  0  0  0  0
 21 42  1  0  0  0  0
 22 23  1  0  0  0  0
 22 43  1  0  0  0  0
 23 24  2  0  0  0  0
 23 41  1  0  0  0  0
 24 29  1  0  0  0  0
 24 55  1  0  0  0  0
 25 87  1  0  0  0  0
 26 88  1  0  0  0  0
 27 31  2  0  0  0  0
 27 87  1  0  0  0  0
 28 29  2  0  0  0  0
 28 89  1  0  0  0  0
 29 90  1  0  0  0  0
 30 91  1  0  0  0  0
 31 92  1  0  0  0  0
 32 72  2  0  0  0  0
 33 73  1  0  0  0  0
 33 77  1  0  0  0  0
 34 78  1  0  0  0  0
 34 82  2  0  0  0  0
 35 57  1  0  0  0  0
 35 79  1  0  0  0  0
 35 83  2  0  0  0  0
 36 69  1  0  0  0  0
 36 74  1  0  0  0  0
 36 84  2  0  0  0  0
 37 70  1  0  0  0  0
 37 80  1  0  0  0  0
 37 85  2  0  0  0  0
 38 75  1  0  0  0  0
 38 76  1  0  0  0  0
 38 86  2  0  0  0  0
 39 44  1  0  0  0  0
 40 57  1  0  0  0  0
 41 52  1  0  0  0  0
 42 74  1  0  0  0  0
 43 75  1  0  0  0  0
 44 48  1  0  0  0  0
 45 49  1  0  0  0  0
 45 53  1  0  0  0  0
 46 50  1  0  0  0  0
 46 55  1  0  0  0  0
 47 51  1  0  0  0  0
 47 55  1  0  0  0  0
 48 56  1  0  0  0  0
 49 58  1  0  0  0  0
 50 59  1  0  0  0  0
 51 59  1  0  0  0  0
 52 75  1  0  0  0  0
 53 76  1  0  0  0  0
 54 58  1  0  0  0  0
 54 76  1  0  0  0  0
 56 79  1  0  0  0  0
 57 74  1  0  0  0  0
 58 73  1  0  0  0  0
 59 88  1  0  0  0  0
 60 67  1  0  0  0  0
 61 68  1  0  0  0  0
 62 70  1  0  0  0  0
 63 71  1  0  0  0  0
 64 71  1  0  0  0  0
 65 71  1  0  0  0  0
 66 81  1  0  0  0  0
 67 89  1  0  0  0  0
 68 90  1  0  0  0  0
 69 71  1  0  0  0  0
 69 80  1  0  0  0  0
 70 81  1  0  0  0  0
 72 73  1  0  0  0  0
M  CHG  1  81   1
M  ISO  4  38 100  59 101  75 100  88 101
M  END
> <Batch ID>
0154

> <Smiles>
CCOc1cc2c(c(C3CC[101CH:1]([101O:1]c4ccc5c(c4)CN(C(=O)C(NC(=O)C(C)NC)C(C)(C)C)C(C(=O)NC4CCCc6ccccc64)C5)CC3)c1OCC)CC[100N:0]([100C:0](=O)N1CCCC(n3nc(-c4ccc(Oc5ccc(F)cc5F)cc4)c(C(N)=O)c3N)C1)C2

> <Shape>
0.303

> <Color>
0.073

> <Negative vol penalty>
0.000

$$$$

  -OEChem-04052321513D

 87 96  0     1  0  0  0  0  0999 V2000
  -16.9688  -29.6431   24.6132 C   0  0  0  0  0  0  0  0  0  0  0  0
  -17.6074  -28.4718   24.2189 C   0  0  0  0  0  0  0  0  0  0  0  0
  -28.0658  -17.0270   21.2291 C   0  0  0  0  0  0  0  0  0  0  0  0
  -27.2486  -17.2020   18.9623 C   0  0  0  0  0  0  0  0  0  0  0  0
  -17.3021  -30.8548   24.0092 C   0  0  0  0  0  0  0  0  0  0  0  0
  -18.5791  -28.5113   23.2196 C   0  0  0  0  0  0  0  0  0  0  0  0
  -22.6812  -25.7820   24.3895 C   0  0  0  0  0  0  0  0  0  0  0  0
  -28.6336  -18.2966   21.1224 C   0  0  0  0  0  0  0  0  0  0  0  0
  -27.8164  -18.4716   18.8556 C   0  0  0  0  0  0  0  0  0  0  0  0
  -22.5907  -24.3991   24.2368 C   0  0  0  0  0  0  0  0  0  0  0  0
  -27.5936  -21.5106   21.2680 C   0  0  0  0  0  0  0  0  0  0  0  0
  -27.4101  -22.3942   22.3315 C   0  0  0  0  0  0  0  0  0  0  0  0
  -20.8706  -18.1262   23.5363 C   0  0  0  0  0  0  0  0  0  0  0  0
  -21.3795  -17.4972   25.8127 C   0  0  0  0  0  0  0  0  0  0  0  0
  -23.7545  -24.5616   22.1300 C   0  0  0  0  0  0  0  0  0  0  0  0
  -29.8034  -22.5260   22.6350 C   0  0  0  0  0  0  0  0  0  0  0  0
  -27.3734  -16.4797   20.1490 C   0  0  0  0  0  0  0  0  0  0  0  0
  -27.4556  -13.9573   20.5212 C   0  0  0  0  0  0  0  0  0  0  0  0
  -18.2852  -30.9106   23.0087 C   0  0  0  0  0  0  0  0  0  0  0  0
  -23.3004  -26.5675   23.4067 C   0  0  0  0  0  0  0  0  0  0  0  0
  -18.9249  -29.7246   22.6007 C   0  0  0  0  0  0  0  0  0  0  0  0
  -21.4853  -18.4031   24.7573 C   0  0  0  0  0  0  0  0  0  0  0  0
  -23.8538  -25.9539   22.2738 C   0  0  0  0  0  0  0  0  0  0  0  0
  -20.1499  -16.9435   23.3706 C   0  0  0  0  0  0  0  0  0  0  0  0
  -20.6589  -16.3144   25.6470 C   0  0  0  0  0  0  0  0  0  0  0  0
  -20.0441  -16.0376   24.4259 C   0  0  0  0  0  0  0  0  0  0  0  0
  -28.5089  -19.0189   19.9357 C   0  0  0  0  0  0  0  0  0  0  0  0
  -23.1248  -23.7890   23.1056 C   0  0  0  0  0  0  0  0  0  0  0  0
  -28.8820  -21.1346   20.8880 C   0  0  0  0  0  0  0  0  0  0  0  0
  -28.5150  -22.9019   23.0150 C   0  0  0  0  0  0  0  0  0  0  0  0
  -29.9869  -21.6423   21.5714 C   0  0  0  0  0  0  0  0  0  0  0  0
  -26.7871  -15.1680   20.2583 C   0  0  0  0  0  0  0  0  0  0  0  0
  -26.4614  -13.0097   20.5240 C   0  0  0  0  0  0  0  0  0  0  0  0
  -28.8506  -13.7113   20.7432 C   0  0  0  0  0  0  0  0  0  0  0  0
  -22.3498  -28.9093   21.4790 C   0  0  0  0  0  0  0  0  0  0  0  0
  -25.5008  -29.0358   20.7190 C   0  0  0  0  0  0  0  0  0  0  0  0
  -28.5098  -27.4332   20.5617 C   0  0  0  0  0  0  0  0  0  0  0  0
  -20.5740  -13.2799   21.5804 C   0  0  0  0  0  0  0  0  0  0  0  0
  -18.5780  -32.2363   22.3519 C   0  0  0  0  0  0  0  0  0  0  0  0
  -23.4135  -28.0550   23.5990 C   0  0  0  0  0  0  0  0  0  0  0  0
  -24.5467  -26.7501   21.1994 C   0  0  0  0  0  0  0  0  0  0  0  0
  -19.8850  -32.2498   21.5633 C   0  0  0  0  0  0  0  0  0  0  0  0
  -22.1668  -12.0828   18.6298 C   0  0  0  0  0  0  0  0  0  0  0  0
  -19.9924  -31.0062   20.6866 C   0  0  0  0  0  0  0  0  0  0  0  0
  -23.5919  -12.6285   18.7363 C   0  0  0  0  0  0  0  0  0  0  0  0
  -23.3936  -20.1191   23.9017 C   0  0  0  0  0  0  0  0  0  0  0  0
  -21.6287  -21.0980   24.5677 C   0  0  0  0  0  0  0  0  0  0  0  0
  -21.1411  -13.0724   19.1780 C   0  0  0  0  0  0  0  0  0  0  0  0
  -22.8307  -14.0874   20.6575 C   0  0  0  0  0  0  0  0  0  0  0  0
  -22.3019  -19.7474   24.9458 C   0  0  0  0  0  0  0  0  0  0  0  0
  -20.0018  -29.7305   21.5375 C   0  0  1  0  0  0  0  0  0  0  0  0
  -23.6110  -28.8134   22.2901 C   0  0  1  0  0  0  0  0  0  0  0  0
  -23.9055  -13.1016   20.1684 C   0  0  2  0  0  0  0  0  0  0  0  0
  -23.0186  -21.6015   24.1210 C   0  0  0  0  0  0  0  0  0  1  0  0
  -19.4987  -16.6722   22.0539 C   0  0  0  0  0  0  0  0  0  0  0  0
  -19.8460  -15.9746   28.0086 C   0  0  0  0  0  0  0  0  0  0  0  0
  -21.9371  -14.8112   27.2156 C   0  0  0  0  0  0  0  0  0  0  0  0
  -30.8938  -27.7831   19.8606 C   0  0  0  0  0  0  0  0  0  0  0  0
  -24.6779  -28.7633   17.7935 C   0  0  0  0  0  0  0  0  0  0  0  0
  -27.0493  -28.1686   17.2542 C   0  0  0  0  0  0  0  0  0  0  0  0
  -26.5140  -30.4090   18.2118 C   0  0  0  0  0  0  0  0  0  0  0  0
  -29.5091  -26.9514   23.3055 C   0  0  0  0  0  0  0  0  0  0  0  0
  -19.2711  -14.7695   24.2482 C   0  0  0  0  0  0  0  0  0  0  0  0
  -20.1576  -13.5428   24.0129 C   0  0  0  0  0  0  0  0  0  0  0  0
  -20.5625  -15.3603   26.7924 C   0  0  0  0  0  0  0  0  0  0  0  0
  -26.3808  -28.3641   19.6926 C   0  0  1  0  0  0  0  0  0  0  0  0
  -29.8988  -27.8522   21.0086 C   0  0  2  0  0  0  0  0  0  0  0  0
  -26.1408  -28.9112   18.2572 C   0  0  0  0  0  0  0  0  0  0  0  0
  -25.4701  -15.0070   20.1050 N   0  0  0  0  0  0  0  0  0  0  0  0
  -25.3030  -13.6841   20.2720 N   0  0  0  0  0  0  0  0  0  0  0  0
  -24.6263  -28.2020   21.4302 N   0  0  0  0  0  0  0  0  0  0  0  0
  -21.4957  -13.4801   20.5396 N   0  0  0  0  0  0  0  0  0  0  0  0
  -26.4738  -11.6737   20.7172 N   0  0  0  0  0  0  0  0  0  0  0  0
  -29.6625  -13.4235   19.6376 N   0  0  0  0  0  0  0  0  0  0  0  0
  -21.3048  -29.5312   22.1351 N   0  0  0  0  0  0  0  0  0  0  0  0
  -27.7516  -28.5157   20.1684 N   0  0  0  0  0  0  0  0  0  0  0  0
  -20.9919  -13.6887   22.8410 N   0  0  0  0  0  0  0  0  0  0  0  0
  -30.3811  -26.9627   22.1028 N   0  3  0  0  0  0  0  0  0  0  0  0
  -29.3588  -13.7295   21.8899 O   0  0  0  0  0  0  0  0  0  0  0  0
  -22.3271  -28.4542   20.3414 O   0  0  0  0  0  0  0  0  0  0  0  0
  -25.5913  -30.2543   20.8886 O   0  0  0  0  0  0  0  0  0  0  0  0
  -28.1361  -26.2624   20.5582 O   0  0  0  0  0  0  0  0  0  0  0  0
  -19.4631  -12.7695   21.4006 O   0  0  0  0  0  0  0  0  0  0  0  0
  -29.0626  -20.2579   19.8314 O   0  0  0  0  0  0  0  0  0  0  0  0
  -23.0372  -22.4395   22.9538 O   0  0  0  0  0  0  0  0  0  1  0  0
  -28.3387  -23.7517   24.0353 F   0  0  0  0  0  0  0  0  0  0  0  0
  -31.2271  -21.2857   21.2102 F   0  0  0  0  0  0  0  0  0  0  0  0
  1  2  1  0  0  0  0
  1  5  2  0  0  0  0
  2  6  2  0  0  0  0
  3  8  2  0  0  0  0
  3 17  1  0  0  0  0
  4  9  1  0  0  0  0
  4 17  2  0  0  0  0
  5 19  1  0  0  0  0
  6 21  1  0  0  0  0
  7 10  2  0  0  0  0
  7 20  1  0  0  0  0
  8 27  1  0  0  0  0
  9 27  2  0  0  0  0
 10 28  1  0  0  0  0
 11 12  2  0  0  0  0
 11 29  1  0  0  0  0
 12 30  1  0  0  0  0
 13 22  1  0  0  0  0
 13 24  2  0  0  0  0
 14 22  2  0  0  0  0
 14 25  1  0  0  0  0
 15 23  1  0  0  0  0
 15 28  2  0  0  0  0
 16 30  2  0  0  0  0
 16 31  1  0  0  0  0
 17 32  1  0  0  0  0
 18 32  1  0  0  0  0
 18 33  2  0  0  0  0
 18 34  1  0  0  0  0
 19 21  2  0  0  0  0
 19 39  1  0  0  0  0
 20 23  2  0  0  0  0
 20 40  1  0  0  0  0
 21 51  1  0  0  0  0
 22 50  1  0  0  0  0
 23 41  1  0  0  0  0
 24 26  1  0  0  0  0
 24 55  1  0  0  0  0
 25 26  2  0  0  0  0
 25 65  1  0  0  0  0
 26 63  1  0  0  0  0
 27 84  1  0  0  0  0
 28 85  1  0  0  0  0
 29 31  2  0  0  0  0
 29 84  1  0  0  0  0
 30 86  1  0  0  0  0
 31 87  1  0  0  0  0
 32 69  2  0  0  0  0
 33 70  1  0  0  0  0
 33 73  1  0  0  0  0
 34 74  1  0  0  0  0
 34 79  2  0  0  0  0
 35 52  1  0  0  0  0
 35 75  1  0  0  0  0
 35 80  2  0  0  0  0
 36 66  1  0  0  0  0
 36 71  1  0  0  0  0
 36 81  2  0  0  0  0
 37 67  1  0  0  0  0
 37 76  1  0  0  0  0
 37 82  2  0  0  0  0
 38 72  1  0  0  0  0
 38 77  1  0  0  0  0
 38 83  2  0  0  0  0
 39 42  1  0  0  0  0
 40 52  1  0  0  0  0
 41 71  1  0  0  0  0
 42 44  1  0  0  0  0
 43 45  1  0  0  0  0
 43 48  1  0  0  0  0
 44 51  1  0  0  0  0
 45 53  1  0  0  0  0
 46 50  1  0  0  0  0
 46 54  1  0  0  0  0
 47 50  1  0  0  0  0
 47 54  1  0  0  0  0
 48 72  1  0  0  0  0
 49 53  1  0  0  0  0
 49 72  1  0  0  0  0
 51 75  1  0  0  0  0
 52 71  1  0  0  0  0
 53 70  1  0  0  0  0
 54 85  1  0  0  0  0
 56 65  1  0  0  0  0
 57 65  1  0  0  0  0
 58 67  1  0  0  0  0
 59 68  1  0  0  0  0
 60 68  1  0  0  0  0
 61 68  1  0  0  0  0
 62 78  1  0  0  0  0
 63 64  1  0  0  0  0
 64 77  1  0  0  0  0
 66 68  1  0  0  0  0
 66 76  1  0  0  0  0
 67 78  1  0  0  0  0
 69 70  1  0  0  0  0
M  CHG  1  78   1
M  ISO  4  38 100  54 101  77 100  85 101
M  END
> <Batch ID>
0154

> <Smiles>
CNC(C)C(=O)NC(C(=O)N1Cc2cc([101O:1][101CH:1]3CC(c4cc(C)c(CC[100NH:0][100C:0](=O)N5CCCC(n6nc(-c7ccc(Oc8ccc(F)cc8F)cc7)c(C(N)=O)c6N)C5)c(C(C)C)c4)C3)ccc2CC1C(=O)NC1CCCc2ccccc21)C(C)(C)C

> <Shape>
0.220

> <Color>
0.096

> <Negative vol penalty>
0.000

$$$$

  -OEChem-04052321513D

 85 93  0     1  0  0  0  0  0999 V2000
  -30.1220  -22.0974   18.6810 C   0  0  0  0  0  0  0  0  0  0  0  0
  -28.8573  -22.6769   18.6687 C   0  0  0  0  0  0  0  0  0  0  0  0
  -26.5752  -13.9951   21.5749 C   0  0  0  0  0  0  0  0  0  0  0  0
  -25.5933  -15.2367   19.7496 C   0  0  0  0  0  0  0  0  0  0  0  0
  -30.8706  -22.0852   19.8572 C   0  0  0  0  0  0  0  0  0  0  0  0
  -28.3400  -23.2438   19.8330 C   0  0  0  0  0  0  0  0  0  0  0  0
  -26.1772  -27.7475   19.0061 C   0  0  0  0  0  0  0  0  0  0  0  0
  -26.0747  -12.8093   21.0375 C   0  0  0  0  0  0  0  0  0  0  0  0
  -25.0928  -14.0508   19.2123 C   0  0  0  0  0  0  0  0  0  0  0  0
  -24.9000  -27.7475   18.4472 C   0  0  0  0  0  0  0  0  0  0  0  0
  -24.7493   -9.4961   20.3376 C   0  0  0  0  0  0  0  0  0  0  0  0
  -24.1384   -8.5945   21.2090 C   0  0  0  0  0  0  0  0  0  0  0  0
  -23.9493  -28.1069   20.6349 C   0  0  0  0  0  0  0  0  0  0  0  0
  -22.5047  -10.2732   21.8006 C   0  0  0  0  0  0  0  0  0  0  0  0
  -26.3345  -15.2089   20.9310 C   0  0  0  0  0  0  0  0  0  0  0  0
  -28.0985  -17.0290   21.2189 C   0  0  0  0  0  0  0  0  0  0  0  0
  -30.3661  -22.6608   21.0341 C   0  0  0  0  0  0  0  0  0  0  0  0
  -26.3497  -27.9166   20.3874 C   0  0  0  0  0  0  0  0  0  0  0  0
  -29.0820  -23.2381   21.0264 C   0  0  0  0  0  0  0  0  0  0  0  0
  -25.2299  -28.1112   21.2085 C   0  0  0  0  0  0  0  0  0  0  0  0
  -19.2713  -25.7940   22.0099 C   0  0  0  0  0  0  0  0  0  0  0  0
  -19.5996  -25.5016   20.6631 C   0  0  0  0  0  0  0  0  0  0  0  0
  -25.3335  -12.8371   19.8562 C   0  0  0  0  0  0  0  0  0  0  0  0
  -23.7856  -27.9243   19.2620 C   0  0  0  0  0  0  0  0  0  0  0  0
  -24.2379  -10.7863   20.1976 C   0  0  0  0  0  0  0  0  0  0  0  0
  -23.0161   -8.9830   21.9405 C   0  0  0  0  0  0  0  0  0  0  0  0
  -23.1156  -11.1749   20.9291 C   0  0  0  0  0  0  0  0  0  0  0  0
  -26.8508  -16.4343   21.4859 C   0  0  0  0  0  0  0  0  0  0  0  0
  -19.8418  -24.8158   22.7941 C   0  0  0  0  0  0  0  0  0  0  0  0
  -20.3606  -24.3535   20.6652 C   0  0  0  0  0  0  0  0  0  0  0  0
  -28.1077  -18.1674   21.9873 C   0  0  0  0  0  0  0  0  0  0  0  0
  -29.1548  -16.5915   20.3537 C   0  0  0  0  0  0  0  0  0  0  0  0
  -27.5623  -26.1434   22.7302 C   0  0  0  0  0  0  0  0  0  0  0  0
  -27.0616  -28.8220   24.4900 C   0  0  0  0  0  0  0  0  0  0  0  0
  -25.3430  -31.7422   24.8965 C   0  0  0  0  0  0  0  0  0  0  0  0
  -23.7508  -21.6115   24.2248 C   0  0  0  0  0  0  0  0  0  0  0  0
  -31.1928  -22.5816   22.2931 C   0  0  0  0  0  0  0  0  0  0  0  0
  -27.7358  -27.9410   20.9711 C   0  0  0  0  0  0  0  0  0  0  0  0
  -25.3624  -28.3172   22.6946 C   0  0  0  0  0  0  0  0  0  0  0  0
  -30.7262  -23.5361   23.3891 C   0  0  0  0  0  0  0  0  0  0  0  0
  -26.3226  -19.9579   26.0491 C   0  0  0  0  0  0  0  0  0  0  0  0
  -29.2113  -23.4624   23.5520 C   0  0  0  0  0  0  0  0  0  0  0  0
  -26.8622  -18.9210   25.0624 C   0  0  0  0  0  0  0  0  0  0  0  0
  -24.8126  -20.1378   25.9092 C   0  0  0  0  0  0  0  0  0  0  0  0
  -24.8891  -19.4084   23.5564 C   0  0  0  0  0  0  0  0  0  0  0  0
  -28.4966  -23.8852   22.2628 C   0  0  1  0  0  0  0  0  0  0  0  0
  -27.7632  -27.6076   22.4596 C   0  0  1  0  0  0  0  0  0  0  0  0
  -26.4159  -19.2329   23.6213 C   0  0  2  0  0  0  0  0  0  0  0  0
  -18.4669  -26.9373   22.4882 C   0  0  0  0  0  0  0  0  0  0  0  0
  -19.8159  -24.6354   24.2613 C   0  0  0  0  0  0  0  0  0  0  0  0
  -20.9641  -23.6079   19.5399 C   0  0  0  0  0  0  0  0  0  0  0  0
  -18.2918  -25.4600   18.5235 C   0  0  0  0  0  0  0  0  0  0  0  0
  -25.1270  -33.7010   26.4502 C   0  0  0  0  0  0  0  0  0  0  0  0
  -25.4989  -27.0879   26.4550 C   0  0  0  0  0  0  0  0  0  0  0  0
  -24.5329  -29.1829   27.4277 C   0  0  0  0  0  0  0  0  0  0  0  0
  -26.9938  -28.7854   27.5219 C   0  0  0  0  0  0  0  0  0  0  0  0
  -26.1442  -33.6541   22.7842 C   0  0  0  0  0  0  0  0  0  0  0  0
  -20.3866  -26.8611   18.6507 C   0  0  0  0  0  0  0  0  0  0  0  0
  -21.2325  -22.7729   22.3983 C   0  0  0  0  0  0  0  0  0  0  0  0
  -22.7436  -22.9874   22.4216 C   0  0  0  0  0  0  0  0  0  0  0  0
  -21.4708  -27.4570   19.5438 C   0  0  0  0  0  0  0  0  0  1  0  0
  -19.1870  -26.3025   19.4402 C   0  0  2  0  0  0  0  0  0  0  0  0
  -25.9155  -29.3640   25.3095 C   0  0  1  0  0  0  0  0  0  0  0  0
  -25.8119  -33.1519   25.2083 C   0  0  2  0  0  0  0  0  0  0  0  0
  -25.7323  -28.5993   26.6508 C   0  0  0  0  0  0  0  0  0  0  0  0
  -26.1204  -17.1367   22.3560 N   0  0  0  0  0  0  0  0  0  0  0  0
  -20.5011  -23.9453   21.9659 N   0  0  0  0  0  0  0  0  0  0  0  0
  -26.9116  -18.1845   22.6425 N   0  0  0  0  0  0  0  0  0  0  0  0
  -26.7382  -28.3267   23.2188 N   0  0  0  0  0  0  0  0  0  0  0  0
  -24.4559  -20.4329   24.5194 N   0  0  0  0  0  0  0  0  0  0  0  0
  -29.0221  -19.1454   22.1597 N   0  0  0  0  0  0  0  0  0  0  0  0
  -28.9812  -15.3995   19.6373 N   0  0  0  0  0  0  0  0  0  0  0  0
  -28.5021  -25.3264   22.1312 N   0  0  0  0  0  0  0  0  0  0  0  0
  -26.1652  -30.7929   25.4656 N   0  0  0  0  0  0  0  0  0  0  0  0
  -23.4582  -21.8178   22.8823 N   0  0  0  0  0  0  0  0  0  0  0  0
  -25.5136  -34.0616   24.0661 N   0  3  0  0  0  0  0  0  0  0  0  0
  -30.2278  -17.2300   20.2324 O   0  0  0  0  0  0  0  0  0  0  0  0
  -26.6250  -25.7817   23.4319 O   0  0  0  0  0  0  0  0  0  0  0  0
  -28.2029  -28.8439   24.9576 O   0  0  0  0  0  0  0  0  0  0  0  0
  -24.3448  -31.5068   24.2191 O   0  0  0  0  0  0  0  0  0  0  0  0
  -23.4122  -22.4227   25.0933 O   0  0  0  0  0  0  0  0  0  0  0  0
  -24.8451  -11.6801   19.3315 O   0  0  0  0  0  0  0  0  0  0  0  0
  -22.5377  -27.9240   18.7192 O   0  0  0  0  0  0  0  0  0  1  0  0
  -22.4286   -8.1166   22.7762 F   0  0  0  0  0  0  0  0  0  0  0  0
  -22.6191  -12.4127   20.7981 F   0  0  0  0  0  0  0  0  0  0  0  0
  1  2  1  0  0  0  0
  1  5  2  0  0  0  0
  2  6  2  0  0  0  0
  3  8  2  0  0  0  0
  3 15  1  0  0  0  0
  4  9  1  0  0  0  0
  4 15  2  0  0  0  0
  5 17  1  0  0  0  0
  6 19  1  0  0  0  0
  7 10  2  0  0  0  0
  7 18  1  0  0  0  0
  8 23  1  0  0  0  0
  9 23  2  0  0  0  0
 10 24  1  0  0  0  0
 11 12  2  0  0  0  0
 11 25  1  0  0  0  0
 12 26  1  0  0  0  0
 13 20  1  0  0  0  0
 13 24  2  0  0  0  0
 14 26  2  0  0  0  0
 14 27  1  0  0  0  0
 15 28  1  0  0  0  0
 16 28  1  0  0  0  0
 16 31  2  0  0  0  0
 16 32  1  0  0  0  0
 17 19  2  0  0  0  0
 17 37  1  0  0  0  0
 18 20  2  0  0  0  0
 18 38  1  0  0  0  0
 19 46  1  0  0  0  0
 20 39  1  0  0  0  0
 21 22  1  0  0  0  0
 21 29  2  0  0  0  0
 21 49  1  0  0  0  0
 22 30  2  0  0  0  0
 22 62  1  0  0  0  0
 23 82  1  0  0  0  0
 24 83  1  0  0  0  0
 25 27  2  0  0  0  0
 25 82  1  0  0  0  0
 26 84  1  0  0  0  0
 27 85  1  0  0  0  0
 28 66  2  0  0  0  0
 29 50  1  0  0  0  0
 29 67  1  0  0  0  0
 30 51  1  0  0  0  0
 30 67  1  0  0  0  0
 31 68  1  0  0  0  0
 31 71  1  0  0  0  0
 32 72  1  0  0  0  0
 32 77  2  0  0  0  0
 33 47  1  0  0  0  0
 33 73  1  0  0  0  0
 33 78  2  0  0  0  0
 34 63  1  0  0  0  0
 34 69  1  0  0  0  0
 34 79  2  0  0  0  0
 35 64  1  0  0  0  0
 35 74  1  0  0  0  0
 35 80  2  0  0  0  0
 36 70  1  0  0  0  0
 36 75  1  0  0  0  0
 36 81  2  0  0  0  0
 37 40  1  0  0  0  0
 38 47  1  0  0  0  0
 39 69  1  0  0  0  0
 40 42  1  0  0  0  0
 41 43  1  0  0  0  0
 41 44  1  0  0  0  0
 42 46  1  0  0  0  0
 43 48  1  0  0  0  0
 44 70  1  0  0  0  0
 45 48  1  0  0  0  0
 45 70  1  0  0  0  0
 46 73  1  0  0  0  0
 47 69  1  0  0  0  0
 48 68  1  0  0  0  0
 52 62  1  0  0  0  0
 53 64  1  0  0  0  0
 54 65  1  0  0  0  0
 55 65  1  0  0  0  0
 56 65  1  0  0  0  0
 57 76  1  0  0  0  0
 58 61  1  0  0  0  0
 58 62  1  0  0  0  0
 59 60  1  0  0  0  0
 59 67  1  0  0  0  0
 60 75  1  0  0  0  0
 61 83  1  0  0  0  0
 63 65  1  0  0  0  0
 63 74  1  0  0  0  0
 64 76  1  0  0  0  0
 66 68  1  0  0  0  0
M  CHG  1  76   1
M  ISO  4  36 100  61 101  75 100  83 101
M  END
> <Batch ID>
0154

> <Smiles>
CNC(C)C(=O)NC(C(=O)N1Cc2cc([101O:1][101CH2:1]CC(C)c3c(C)c(C)n(CC[100NH:0][100C:0](=O)N4CCCC(n5nc(-c6ccc(Oc7ccc(F)cc7F)cc6)c(C(N)=O)c5N)C4)c3C)ccc2CC1C(=O)NC1CCCc2ccccc21)C(C)(C)C

> <Shape>
0.223

> <Color>
0.058

> <Negative vol penalty>
0.000

$$$$

  -OEChem-04052321513D

 87 96  0     1  0  0  0  0  0999 V2000
  -27.2592  -34.8558   24.8842 C   0  0  0  0  0  0  0  0  0  0  0  0
  -27.6219  -33.6545   24.2836 C   0  0  0  0  0  0  0  0  0  0  0  0
  -22.3858  -10.2277   21.9884 C   0  0  0  0  0  0  0  0  0  0  0  0
  -23.6896   -9.6710   20.0321 C   0  0  0  0  0  0  0  0  0  0  0  0
  -25.9836  -35.0054   25.4267 C   0  0  0  0  0  0  0  0  0  0  0  0
  -26.7095  -32.6016   24.2262 C   0  0  0  0  0  0  0  0  0  0  0  0
  -26.1054  -28.4951   19.7231 C   0  0  0  0  0  0  0  0  0  0  0  0
  -21.9098   -8.9178   22.0439 C   0  0  0  0  0  0  0  0  0  0  0  0
  -23.2136   -8.3611   20.0876 C   0  0  0  0  0  0  0  0  0  0  0  0
  -26.5715  -27.1894   19.5756 C   0  0  0  0  0  0  0  0  0  0  0  0
  -23.0271   -5.9038   23.0929 C   0  0  0  0  0  0  0  0  0  0  0  0
  -23.0087   -5.2730   24.3368 C   0  0  0  0  0  0  0  0  0  0  0  0
  -26.3714  -19.9510   17.9475 C   0  0  0  0  0  0  0  0  0  0  0  0
  -24.4569  -26.3504   20.3780 C   0  0  0  0  0  0  0  0  0  0  0  0
  -29.0273  -19.2568   18.4038 C   0  0  0  0  0  0  0  0  0  0  0  0
  -20.6152   -4.9949   24.1603 C   0  0  0  0  0  0  0  0  0  0  0  0
  -23.2757  -10.6044   20.9824 C   0  0  0  0  0  0  0  0  0  0  0  0
  -24.9210  -12.4704   21.5469 C   0  0  0  0  0  0  0  0  0  0  0  0
  -25.0518  -33.9571   25.3673 C   0  0  0  0  0  0  0  0  0  0  0  0
  -24.8133  -28.7388   20.2103 C   0  0  0  0  0  0  0  0  0  0  0  0
  -25.4206  -32.7368   24.7696 C   0  0  0  0  0  0  0  0  0  0  0  0
  -27.3124  -20.9550   18.2272 C   0  0  0  0  0  0  0  0  0  0  0  0
  -23.9760  -27.6600   20.5284 C   0  0  0  0  0  0  0  0  0  0  0  0
  -28.6604  -20.6132   18.4535 C   0  0  0  0  0  0  0  0  0  0  0  0
  -26.7566  -18.6134   17.8980 C   0  0  0  0  0  0  0  0  0  0  0  0
  -22.3237   -7.9845   21.0935 C   0  0  0  0  0  0  0  0  0  0  0  0
  -25.7483  -26.1169   19.9058 C   0  0  0  0  0  0  0  0  0  0  0  0
  -21.8395   -6.0803   22.3827 C   0  0  0  0  0  0  0  0  0  0  0  0
  -28.0838  -18.2665   18.1269 C   0  0  0  0  0  0  0  0  0  0  0  0
  -21.8027   -4.8185   24.8705 C   0  0  0  0  0  0  0  0  0  0  0  0
  -20.6336   -5.6258   22.9164 C   0  0  0  0  0  0  0  0  0  0  0  0
  -23.7674  -11.9575   20.9242 C   0  0  0  0  0  0  0  0  0  0  0  0
  -24.9461  -13.7952   21.1856 C   0  0  0  0  0  0  0  0  0  0  0  0
  -25.8840  -11.8083   22.3776 C   0  0  0  0  0  0  0  0  0  0  0  0
  -23.6186  -30.2133   22.7603 C   0  0  0  0  0  0  0  0  0  0  0  0
  -20.7882  -29.6331   21.2857 C   0  0  0  0  0  0  0  0  0  0  0  0
  -19.0091  -27.7410   19.0716 C   0  0  0  0  0  0  0  0  0  0  0  0
  -24.4282  -17.8128   17.3654 C   0  0  0  0  0  0  0  0  0  0  0  0
  -23.7008  -34.1495   26.0095 C   0  0  0  0  0  0  0  0  0  0  0  0
  -24.3160  -30.1526   20.3383 C   0  0  0  0  0  0  0  0  0  0  0  0
  -22.5733  -27.8677   21.0362 C   0  0  0  0  0  0  0  0  0  0  0  0
  -22.6667  -33.1142   25.5746 C   0  0  0  0  0  0  0  0  0  0  0  0
  -21.4403  -16.6586   18.9203 C   0  0  0  0  0  0  0  0  0  0  0  0
  -23.2621  -31.7107   25.6261 C   0  0  0  0  0  0  0  0  0  0  0  0
  -21.8742  -15.3749   19.6315 C   0  0  0  0  0  0  0  0  0  0  0  0
  -22.1542  -16.8342   17.5812 C   0  0  0  0  0  0  0  0  0  0  0  0
  -24.0530  -15.4682   18.3543 C   0  0  0  0  0  0  0  0  0  0  0  0
  -26.8749  -22.4052   18.2656 C   0  0  1  0  0  0  0  0  0  0  0  0
  -24.4504  -31.5801   24.6657 C   0  0  1  0  0  0  0  0  0  0  0  0
  -23.1653  -30.2938   21.3300 C   0  0  1  0  0  0  0  0  0  0  0  0
  -23.4090  -15.2807   19.7376 C   0  0  2  0  0  0  0  0  0  0  0  0
  -27.8313  -23.1766   19.1900 C   0  0  2  0  0  0  0  0  0  0  0  0
  -29.6921  -21.6949   18.7712 C   0  0  0  0  0  0  0  0  0  0  0  0
  -26.8202  -22.9554   16.8350 C   0  0  0  0  0  0  0  0  0  0  0  0
  -30.2802  -21.5021   20.1792 C   0  0  0  0  0  0  0  0  0  0  0  0
  -30.8324  -21.6731   17.7403 C   0  0  0  0  0  0  0  0  0  0  0  0
  -16.7076  -27.4825   18.1055 C   0  0  0  0  0  0  0  0  0  0  0  0
  -19.8515  -28.3186   23.8750 C   0  0  0  0  0  0  0  0  0  0  0  0
  -17.9813  -27.2684   22.5836 C   0  0  0  0  0  0  0  0  0  0  0  0
  -18.1367  -29.7523   22.7533 C   0  0  0  0  0  0  0  0  0  0  0  0
  -19.9756  -28.2759   16.3260 C   0  0  0  0  0  0  0  0  0  0  0  0
  -28.4310  -16.2325   19.3094 C   0  0  0  0  0  0  0  0  0  0  0  0
  -27.5239  -24.6671   19.2726 C   0  0  0  0  0  0  0  0  0  1  0  0
  -19.7867  -28.5035   21.3006 C   0  0  1  0  0  0  0  0  0  0  0  0
  -18.0747  -28.1276   17.9395 C   0  0  2  0  0  0  0  0  0  0  0  0
  -18.9661  -28.4565   22.6204 C   0  0  0  0  0  0  0  0  0  0  0  0
  -23.1072  -12.8813   20.2207 N   0  0  0  0  0  0  0  0  0  0  0  0
  -23.8485  -13.9880   20.3993 N   0  0  0  0  0  0  0  0  0  0  0  0
  -22.1353  -29.2687   21.1501 N   0  0  0  0  0  0  0  0  0  0  0  0
  -23.6045  -16.7374   17.7602 N   0  0  0  0  0  0  0  0  0  0  0  0
  -25.7997  -14.8025   21.4670 N   0  0  0  0  0  0  0  0  0  0  0  0
  -25.7073  -10.4446   22.6488 N   0  0  0  0  0  0  0  0  0  0  0  0
  -25.7867  -17.6202   17.6143 N   0  0  0  0  0  0  0  0  0  0  0  0
  -23.9853  -31.4298   23.3036 N   0  0  0  0  0  0  0  0  0  0  0  0
  -18.9758  -28.6611   20.0981 N   0  0  0  0  0  0  0  0  0  0  0  0
  -18.6416  -27.6972   16.6301 N   0  3  0  0  0  0  0  0  0  0  0  0
  -26.8629  -12.4120   22.8784 O   0  0  0  0  0  0  0  0  0  0  0  0
  -23.6330  -29.1281   23.3293 O   0  0  0  0  0  0  0  0  0  0  0  0
  -20.3893  -30.7962   21.3833 O   0  0  0  0  0  0  0  0  0  0  0  0
  -19.6968  -26.7226   19.0494 O   0  0  0  0  0  0  0  0  0  0  0  0
  -23.9599  -18.8409   16.8697 O   0  0  0  0  0  0  0  0  0  0  0  0
  -29.1633  -23.0348   18.6943 O   0  0  0  0  0  0  0  0  0  0  0  0
  -21.8596   -6.7061   21.1476 O   0  0  0  0  0  0  0  0  0  0  0  0
  -28.4845  -16.9641   18.0868 O   0  0  0  0  0  0  0  0  0  0  0  0
  -26.2049  -24.8301   19.7622 O   0  0  0  0  0  0  0  0  0  1  0  0
  -21.7854   -4.2114   26.0643 F   0  0  0  0  0  0  0  0  0  0  0  0
  -19.4897   -5.7914   22.2383 F   0  0  0  0  0  0  0  0  0  0  0  0
  1  2  1  0  0  0  0
  1  5  2  0  0  0  0
  2  6  2  0  0  0  0
  3  8  2  0  0  0  0
  3 17  1  0  0  0  0
  4  9  1  0  0  0  0
  4 17  2  0  0  0  0
  5 19  1  0  0  0  0
  6 21  1  0  0  0  0
  7 10  2  0  0  0  0
  7 20  1  0  0  0  0
  8 26  1  0  0  0  0
  9 26  2  0  0  0  0
 10 27  1  0  0  0  0
 11 12  2  0  0  0  0
 11 28  1  0  0  0  0
 12 30  1  0  0  0  0
 13 22  1  0  0  0  0
 13 25  2  0  0  0  0
 14 23  1  0  0  0  0
 14 27  2  0  0  0  0
 15 24  1  0  0  0  0
 15 29  2  0  0  0  0
 16 30  2  0  0  0  0
 16 31  1  0  0  0  0
 17 32  1  0  0  0  0
 18 32  1  0  0  0  0
 18 33  2  0  0  0  0
 18 34  1  0  0  0  0
 19 21  2  0  0  0  0
 19 39  1  0  0  0  0
 20 23  2  0  0  0  0
 20 40  1  0  0  0  0
 21 49  1  0  0  0  0
 22 24  2  0  0  0  0
 22 48  1  0  0  0  0
 23 41  1  0  0  0  0
 24 53  1  0  0  0  0
 25 29  1  0  0  0  0
 25 73  1  0  0  0  0
 26 83  1  0  0  0  0
 27 85  1  0  0  0  0
 28 31  2  0  0  0  0
 28 83  1  0  0  0  0
 29 84  1  0  0  0  0
 30 86  1  0  0  0  0
 31 87  1  0  0  0  0
 32 67  2  0  0  0  0
 33 68  1  0  0  0  0
 33 71  1  0  0  0  0
 34 72  1  0  0  0  0
 34 77  2  0  0  0  0
 35 50  1  0  0  0  0
 35 74  1  0  0  0  0
 35 78  2  0  0  0  0
 36 64  1  0  0  0  0
 36 69  1  0  0  0  0
 36 79  2  0  0  0  0
 37 65  1  0  0  0  0
 37 75  1  0  0  0  0
 37 80  2  0  0  0  0
 38 70  1  0  0  0  0
 38 73  1  0  0  0  0
 38 81  2  0  0  0  0
 39 42  1  0  0  0  0
 40 50  1  0  0  0  0
 41 69  1  0  0  0  0
 42 44  1  0  0  0  0
 43 45  1  0  0  0  0
 43 46  1  0  0  0  0
 44 49  1  0  0  0  0
 45 51  1  0  0  0  0
 46 70  1  0  0  0  0
 47 51  1  0  0  0  0
 47 70  1  0  0  0  0
 48 52  1  0  0  0  0
 48 54  1  0  0  0  0
 49 74  1  0  0  0  0
 50 69  1  0  0  0  0
 51 68  1  0  0  0  0
 52 63  1  0  0  0  0
 52 82  1  0  0  0  0
 53 55  1  0  0  0  0
 53 56  1  0  0  0  0
 53 82  1  0  0  0  0
 57 65  1  0  0  0  0
 58 66  1  0  0  0  0
 59 66  1  0  0  0  0
 60 66  1  0  0  0  0
 61 76  1  0  0  0  0
 62 84  1  0  0  0  0
 63 85  1  0  0  0  0
 64 66  1  0  0  0  0
 64 75  1  0  0  0  0
 65 76  1  0  0  0  0
 67 68  1  0  0  0  0
M  CHG  1  76   1
M  ISO  4  38 100  63 101  73 100  85 101
M  END
> <Batch ID>
0154

> <Smiles>
CNC(C)C(=O)NC(C(=O)N1Cc2cc([101O:1][101CH2:1]C3OC(C)(C)c4cc(OC)c([100NH:0][100C:0](=O)N5CCCC(n6nc(-c7ccc(Oc8ccc(F)cc8F)cc7)c(C(N)=O)c6N)C5)cc4C3C)ccc2CC1C(=O)NC1CCCc2ccccc21)C(C)(C)C

> <Shape>
0.276

> <Color>
0.105

> <Negative vol penalty>
0.000

$$$$

  -OEChem-04052321513D

 86 95  0     1  0  0  0  0  0999 V2000
  -20.8904  -28.2305   21.2923 C   0  0  0  0  0  0  0  0  0  0  0  0
  -21.5445  -27.0388   21.5881 C   0  0  0  0  0  0  0  0  0  0  0  0
  -23.0456   -9.9358   19.9970 C   0  0  0  0  0  0  0  0  0  0  0  0
  -23.7919   -9.9957   22.2941 C   0  0  0  0  0  0  0  0  0  0  0  0
  -21.6289  -29.3868   21.0445 C   0  0  0  0  0  0  0  0  0  0  0  0
  -22.9377  -27.0026   21.6352 C   0  0  0  0  0  0  0  0  0  0  0  0
  -26.4080  -23.6091   25.3698 C   0  0  0  0  0  0  0  0  0  0  0  0
  -22.2807   -8.8030   20.2750 C   0  0  0  0  0  0  0  0  0  0  0  0
  -23.0270   -8.8629   22.5721 C   0  0  0  0  0  0  0  0  0  0  0  0
  -27.0701  -22.3954   25.1898 C   0  0  0  0  0  0  0  0  0  0  0  0
  -19.7822   -8.1374   23.1766 C   0  0  0  0  0  0  0  0  0  0  0  0
  -19.0178   -8.1438   24.3433 C   0  0  0  0  0  0  0  0  0  0  0  0
  -29.1043  -23.5877   24.6800 C   0  0  0  0  0  0  0  0  0  0  0  0
  -20.2216   -6.2075   25.1427 C   0  0  0  0  0  0  0  0  0  0  0  0
  -23.8013  -10.5321   21.0065 C   0  0  0  0  0  0  0  0  0  0  0  0
  -24.1869  -13.0467   20.8166 C   0  0  0  0  0  0  0  0  0  0  0  0
  -23.0315  -29.3669   21.0981 C   0  0  0  0  0  0  0  0  0  0  0  0
  -27.0875  -24.8233   25.1952 C   0  0  0  0  0  0  0  0  0  0  0  0
  -23.6957  -28.1594   21.3866 C   0  0  0  0  0  0  0  0  0  0  0  0
  -28.4492  -24.8154   24.8608 C   0  0  0  0  0  0  0  0  0  0  0  0
  -29.5869  -18.4419   23.3483 C   0  0  0  0  0  0  0  0  0  0  0  0
  -30.4499  -17.3428   23.1808 C   0  0  0  0  0  0  0  0  0  0  0  0
  -29.1967  -18.8208   24.6427 C   0  0  0  0  0  0  0  0  0  0  0  0
  -30.8864  -16.6348   24.3136 C   0  0  0  0  0  0  0  0  0  0  0  0
  -29.6390  -18.1094   25.7573 C   0  0  0  0  0  0  0  0  0  0  0  0
  -30.4833  -17.0162   25.5927 C   0  0  0  0  0  0  0  0  0  0  0  0
  -22.2713   -8.2666   21.5626 C   0  0  0  0  0  0  0  0  0  0  0  0
  -28.4177  -22.3846   24.8421 C   0  0  0  0  0  0  0  0  0  0  0  0
  -20.7663   -7.1660   22.9928 C   0  0  0  0  0  0  0  0  0  0  0  0
  -19.2375   -7.1789   25.3263 C   0  0  0  0  0  0  0  0  0  0  0  0
  -20.9860   -6.2011   23.9759 C   0  0  0  0  0  0  0  0  0  0  0  0
  -24.5921  -11.7020   20.7198 C   0  0  0  0  0  0  0  0  0  0  0  0
  -25.2938  -13.7669   20.4391 C   0  0  0  0  0  0  0  0  0  0  0  0
  -22.9229  -13.5957   21.2125 C   0  0  0  0  0  0  0  0  0  0  0  0
  -26.7814  -27.3026   23.2297 C   0  0  0  0  0  0  0  0  0  0  0  0
  -29.1043  -28.5758   25.1020 C   0  0  0  0  0  0  0  0  0  0  0  0
  -31.7045  -28.0546   27.2500 C   0  0  0  0  0  0  0  0  0  0  0  0
  -30.7929  -14.6981   20.6332 C   0  0  0  0  0  0  0  0  0  0  0  0
  -23.7882  -30.6313   20.7764 C   0  0  0  0  0  0  0  0  0  0  0  0
  -26.3656  -26.1238   25.4191 C   0  0  0  0  0  0  0  0  0  0  0  0
  -29.1194  -19.2724   22.1781 C   0  0  0  0  0  0  0  0  0  0  0  0
  -29.2291  -26.0913   24.6815 C   0  0  0  0  0  0  0  0  0  0  0  0
  -25.2501  -30.5944   21.2144 C   0  0  0  0  0  0  0  0  0  0  0  0
  -29.6288  -12.2657   18.3083 C   0  0  0  0  0  0  0  0  0  0  0  0
  -25.8985  -29.2773   20.8001 C   0  0  0  0  0  0  0  0  0  0  0  0
  -28.1841  -12.0088   18.7403 C   0  0  0  0  0  0  0  0  0  0  0  0
  -30.6846  -17.9521   20.7290 C   0  0  0  0  0  0  0  0  0  0  0  0
  -30.5425  -12.5053   19.5082 C   0  0  0  0  0  0  0  0  0  0  0  0
  -28.6454  -13.3079   20.8612 C   0  0  0  0  0  0  0  0  0  0  0  0
  -25.2048  -28.0857   21.4713 C   0  0  1  0  0  0  0  0  0  0  0  0
  -30.8882  -16.8818   21.8086 C   0  0  2  0  0  0  0  0  0  0  0  0
  -27.0263  -27.3033   24.7122 C   0  0  1  0  0  0  0  0  0  0  0  0
  -29.2878  -18.5766   20.8201 C   0  0  2  0  0  0  0  0  0  0  0  0
  -27.6753  -13.1161   19.6829 C   0  0  2  0  0  0  0  0  0  0  0  0
  -31.8053  -15.4578   24.1752 C   0  0  0  0  0  0  0  0  0  0  0  0
  -29.2120  -18.5232   27.1307 C   0  0  0  0  0  0  0  0  0  0  0  0
  -30.9590  -16.2538   26.7895 C   0  0  0  0  0  0  0  0  0  0  0  0
  -29.0564  -19.5639   19.6776 C   0  0  0  0  0  0  0  0  0  0  0  0
  -33.4340  -29.2885   28.5855 C   0  0  0  0  0  0  0  0  0  0  0  0
  -30.7038  -29.0864   22.5543 C   0  0  0  0  0  0  0  0  0  0  0  0
  -32.7360  -29.4153   23.9792 C   0  0  0  0  0  0  0  0  0  0  0  0
  -30.7815  -30.9457   24.2251 C   0  0  0  0  0  0  0  0  0  0  0  0
  -30.6662  -26.9800   29.8046 C   0  0  0  0  0  0  0  0  0  0  0  0
  -28.3048  -20.0091   24.8520 C   0  0  0  0  0  0  0  0  0  1  0  0
  -30.6138  -28.5734   25.0831 C   0  0  1  0  0  0  0  0  0  0  0  0
  -32.0418  -28.6766   28.5930 C   0  0  2  0  0  0  0  0  0  0  0  0
  -31.1939  -29.4810   23.9618 C   0  0  0  0  0  0  0  0  0  0  0  0
  -25.8575  -11.5728   20.3125 N   0  0  0  0  0  0  0  0  0  0  0  0
  -26.2571  -12.8456   20.1500 N   0  0  0  0  0  0  0  0  0  0  0  0
  -28.4774  -27.3372   24.9052 N   0  0  0  0  0  0  0  0  0  0  0  0
  -30.0044  -13.5680   20.3609 N   0  0  0  0  0  0  0  0  0  0  0  0
  -25.5273  -15.0919   20.3294 N   0  0  0  0  0  0  0  0  0  0  0  0
  -21.8937  -12.7138   21.5691 N   0  0  0  0  0  0  0  0  0  0  0  0
  -25.6295  -27.9644   22.8495 N   0  0  0  0  0  0  0  0  0  0  0  0
  -31.0395  -28.9408   26.4293 N   0  0  0  0  0  0  0  0  0  0  0  0
  -30.2047  -15.6606   21.4446 N   0  0  0  0  0  0  0  0  0  0  0  0
  -31.9866  -27.6472   29.6692 N   0  3  0  0  0  0  0  0  0  0  0  0
  -22.7074  -14.8312   21.2332 O   0  0  0  0  0  0  0  0  0  0  0  0
  -27.5792  -26.7443   22.4858 O   0  0  0  0  0  0  0  0  0  0  0  0
  -28.5036  -29.6364   25.2917 O   0  0  0  0  0  0  0  0  0  0  0  0
  -32.0045  -26.8993   26.9568 O   0  0  0  0  0  0  0  0  0  0  0  0
  -31.9343  -14.8413   20.1820 O   0  0  0  0  0  0  0  0  0  0  0  0
  -21.5249   -7.1614   21.8343 O   0  0  0  0  0  0  0  0  0  0  0  0
  -29.0663  -21.2014   24.6652 O   0  0  0  0  0  0  0  0  0  1  0  0
  -18.5044   -7.1862   26.4474 F   0  0  0  0  0  0  0  0  0  0  0  0
  -21.9307   -5.2661   23.8056 F   0  0  0  0  0  0  0  0  0  0  0  0
  1  2  1  0  0  0  0
  1  5  2  0  0  0  0
  2  6  2  0  0  0  0
  3  8  2  0  0  0  0
  3 15  1  0  0  0  0
  4  9  1  0  0  0  0
  4 15  2  0  0  0  0
  5 17  1  0  0  0  0
  6 19  1  0  0  0  0
  7 10  2  0  0  0  0
  7 18  1  0  0  0  0
  8 27  1  0  0  0  0
  9 27  2  0  0  0  0
 10 28  1  0  0  0  0
 11 12  2  0  0  0  0
 11 29  1  0  0  0  0
 12 30  1  0  0  0  0
 13 20  1  0  0  0  0
 13 28  2  0  0  0  0
 14 30  2  0  0  0  0
 14 31  1  0  0  0  0
 15 32  1  0  0  0  0
 16 32  1  0  0  0  0
 16 33  2  0  0  0  0
 16 34  1  0  0  0  0
 17 19  2  0  0  0  0
 17 39  1  0  0  0  0
 18 20  2  0  0  0  0
 18 40  1  0  0  0  0
 19 50  1  0  0  0  0
 20 42  1  0  0  0  0
 21 22  1  0  0  0  0
 21 23  2  0  0  0  0
 21 41  1  0  0  0  0
 22 24  2  0  0  0  0
 22 51  1  0  0  0  0
 23 25  1  0  0  0  0
 23 64  1  0  0  0  0
 24 26  1  0  0  0  0
 24 55  1  0  0  0  0
 25 26  2  0  0  0  0
 25 56  1  0  0  0  0
 26 57  1  0  0  0  0
 27 83  1  0  0  0  0
 28 84  1  0  0  0  0
 29 31  2  0  0  0  0
 29 83  1  0  0  0  0
 30 85  1  0  0  0  0
 31 86  1  0  0  0  0
 32 68  2  0  0  0  0
 33 69  1  0  0  0  0
 33 72  1  0  0  0  0
 34 73  1  0  0  0  0
 34 78  2  0  0  0  0
 35 52  1  0  0  0  0
 35 74  1  0  0  0  0
 35 79  2  0  0  0  0
 36 65  1  0  0  0  0
 36 70  1  0  0  0  0
 36 80  2  0  0  0  0
 37 66  1  0  0  0  0
 37 75  1  0  0  0  0
 37 81  2  0  0  0  0
 38 71  1  0  0  0  0
 38 76  1  0  0  0  0
 38 82  2  0  0  0  0
 39 43  1  0  0  0  0
 40 52  1  0  0  0  0
 41 53  1  0  0  0  0
 42 70  1  0  0  0  0
 43 45  1  0  0  0  0
 44 46  1  0  0  0  0
 44 48  1  0  0  0  0
 45 50  1  0  0  0  0
 46 54  1  0  0  0  0
 47 51  1  0  0  0  0
 47 53  1  0  0  0  0
 48 71  1  0  0  0  0
 49 54  1  0  0  0  0
 49 71  1  0  0  0  0
 50 74  1  0  0  0  0
 51 76  1  0  0  0  0
 52 70  1  0  0  0  0
 53 58  1  0  0  0  0
 54 69  1  0  0  0  0
 59 66  1  0  0  0  0
 60 67  1  0  0  0  0
 61 67  1  0  0  0  0
 62 67  1  0  0  0  0
 63 77  1  0  0  0  0
 64 84  1  0  0  0  0
 65 67  1  0  0  0  0
 65 75  1  0  0  0  0
 66 77  1  0  0  0  0
 68 69  1  0  0  0  0
M  CHG  1  77   1
M  ISO  4  38 100  64 101  76 100  84 101
M  END
> <Batch ID>
0154

> <Smiles>
CNC(C)C(=O)NC(C(=O)N1Cc2cc([101O:1][101CH2:1]c3c(C)c(C)c(C)c4c3CC(C)CC4[100NH:0][100C:0](=O)N3CCCC(n4nc(-c5ccc(Oc6ccc(F)cc6F)cc5)c(C(N)=O)c4N)C3)ccc2CC1C(=O)NC1CCCc2ccccc21)C(C)(C)C

> <Shape>
0.245

> <Color>
0.207

> <Negative vol penalty>
0.000

$$$$

  -OEChem-04052321513D

 86 95  0     1  0  0  0  0  0999 V2000
  -29.1285  -24.6757   17.6517 C   0  0  0  0  0  0  0  0  0  0  0  0
  -27.7870  -25.0439   17.6452 C   0  0  0  0  0  0  0  0  0  0  0  0
  -25.2940  -20.0067   21.4117 C   0  0  0  0  0  0  0  0  0  0  0  0
  -24.0374  -18.3090   20.2389 C   0  0  0  0  0  0  0  0  0  0  0  0
  -29.9166  -24.9372   18.7718 C   0  0  0  0  0  0  0  0  0  0  0  0
  -27.2324  -25.6730   18.7593 C   0  0  0  0  0  0  0  0  0  0  0  0
  -22.8872  -29.9886   18.7674 C   0  0  0  0  0  0  0  0  0  0  0  0
  -26.4828  -19.4634   20.9247 C   0  0  0  0  0  0  0  0  0  0  0  0
  -25.2262  -17.7656   19.7518 C   0  0  0  0  0  0  0  0  0  0  0  0
  -21.5095  -29.9321   18.9733 C   0  0  0  0  0  0  0  0  0  0  0  0
  -27.4532  -18.4438   17.3021 C   0  0  0  0  0  0  0  0  0  0  0  0
  -27.5009  -18.0990   15.9515 C   0  0  0  0  0  0  0  0  0  0  0  0
  -19.0162  -25.8351   22.4372 C   0  0  0  0  0  0  0  0  0  0  0  0
  -21.8380  -30.5157   21.2908 C   0  0  0  0  0  0  0  0  0  0  0  0
  -18.8462  -28.6119   22.6461 C   0  0  0  0  0  0  0  0  0  0  0  0
  -27.9559  -15.8038   16.5535 C   0  0  0  0  0  0  0  0  0  0  0  0
  -24.0713  -19.4295   21.0689 C   0  0  0  0  0  0  0  0  0  0  0  0
  -22.0549  -20.9890   20.9699 C   0  0  0  0  0  0  0  0  0  0  0  0
  -29.3738  -25.5784   19.8964 C   0  0  0  0  0  0  0  0  0  0  0  0
  -23.7530  -30.2989   19.8259 C   0  0  0  0  0  0  0  0  0  0  0  0
  -28.0136  -25.9421   19.8960 C   0  0  0  0  0  0  0  0  0  0  0  0
  -18.8956  -26.4341   23.6911 C   0  0  0  0  0  0  0  0  0  0  0  0
  -23.2262  -30.5780   21.0951 C   0  0  0  0  0  0  0  0  0  0  0  0
  -19.0519  -26.6245   21.2877 C   0  0  0  0  0  0  0  0  0  0  0  0
  -18.8105  -27.8224   23.7956 C   0  0  0  0  0  0  0  0  0  0  0  0
  -18.9669  -28.0129   21.3922 C   0  0  0  0  0  0  0  0  0  0  0  0
  -26.4489  -18.3428   20.0947 C   0  0  0  0  0  0  0  0  0  0  0  0
  -20.9849  -30.1928   20.2358 C   0  0  0  0  0  0  0  0  0  0  0  0
  -27.6570  -17.4687   18.2786 C   0  0  0  0  0  0  0  0  0  0  0  0
  -27.7522  -16.7790   15.5771 C   0  0  0  0  0  0  0  0  0  0  0  0
  -27.9083  -16.1487   17.9042 C   0  0  0  0  0  0  0  0  0  0  0  0
  -22.8430  -19.9900   21.5721 C   0  0  0  0  0  0  0  0  0  0  0  0
  -21.0044  -21.1666   21.8366 C   0  0  0  0  0  0  0  0  0  0  0  0
  -22.2546  -21.6934   19.7372 C   0  0  0  0  0  0  0  0  0  0  0  0
  -26.1124  -28.7752   21.3143 C   0  0  0  0  0  0  0  0  0  0  0  0
  -26.4718  -31.6212   22.8288 C   0  0  0  0  0  0  0  0  0  0  0  0
  -25.0718  -34.5692   23.8267 C   0  0  0  0  0  0  0  0  0  0  0  0
  -18.8791  -21.7023   26.8477 C   0  0  0  0  0  0  0  0  0  0  0  0
  -30.2531  -25.7975   21.1020 C   0  0  0  0  0  0  0  0  0  0  0  0
  -25.2347  -30.3820   19.5812 C   0  0  0  0  0  0  0  0  0  0  0  0
  -24.1113  -30.9357   22.2600 C   0  0  0  0  0  0  0  0  0  0  0  0
  -29.6826  -26.8048   22.0970 C   0  0  0  0  0  0  0  0  0  0  0  0
  -19.5219  -18.4598   25.8356 C   0  0  0  0  0  0  0  0  0  0  0  0
  -28.2079  -26.5179   22.3610 C   0  0  0  0  0  0  0  0  0  0  0  0
  -20.3806  -18.6354   24.5832 C   0  0  0  0  0  0  0  0  0  0  0  0
  -17.6406  -24.6144   24.9291 C   0  0  0  0  0  0  0  0  0  0  0  0
  -20.1606  -24.7544   25.1038 C   0  0  0  0  0  0  0  0  0  0  0  0
  -19.9225  -19.4569   26.9171 C   0  0  0  0  0  0  0  0  0  0  0  0
  -17.6278  -23.7172   26.1644 C   0  0  0  0  0  0  0  0  0  0  0  0
  -20.0910  -23.8561   26.3353 C   0  0  0  0  0  0  0  0  0  0  0  0
  -20.7196  -21.0724   25.2234 C   0  0  0  0  0  0  0  0  0  0  0  0
  -18.8582  -25.5548   24.9270 C   0  0  0  0  0  0  0  0  0  0  0  0
  -27.3818  -26.6486   21.0757 C   0  0  1  0  0  0  0  0  0  0  0  0
  -26.0611  -30.2037   20.8511 C   0  0  1  0  0  0  0  0  0  0  0  0
  -20.3484  -20.0933   24.0917 C   0  0  1  0  0  0  0  0  0  0  0  0
  -19.1825  -25.9610   19.9561 C   0  0  0  0  0  0  0  0  0  0  0  0
  -18.6802  -28.4859   25.1272 C   0  0  0  0  0  0  0  0  0  0  0  0
  -17.6113  -29.1645   19.6091 C   0  0  0  0  0  0  0  0  0  0  0  0
  -25.6027  -36.6777   25.0796 C   0  0  0  0  0  0  0  0  0  0  0  0
  -26.2768  -30.1000   25.4666 C   0  0  0  0  0  0  0  0  0  0  0  0
  -25.8581  -32.2848   26.6153 C   0  0  0  0  0  0  0  0  0  0  0  0
  -28.0156  -31.8970   25.4248 C   0  0  0  0  0  0  0  0  0  0  0  0
  -24.5339  -36.2528   21.4528 C   0  0  0  0  0  0  0  0  0  0  0  0
  -19.0038  -28.8784   20.1756 C   0  0  1  0  0  0  0  0  0  1  0  0
  -25.9032  -32.2456   24.0801 C   0  0  1  0  0  0  0  0  0  0  0  0
  -25.5579  -36.0032   23.7173 C   0  0  2  0  0  0  0  0  0  0  0  0
  -26.4966  -31.6232   25.3754 C   0  0  0  0  0  0  0  0  0  0  0  0
  -22.3365  -19.5630   22.7319 N   0  0  0  0  0  0  0  0  0  0  0  0
  -21.2189  -20.2973   22.8654 N   0  0  0  0  0  0  0  0  0  0  0  0
  -25.5537  -30.9980   21.9718 N   0  0  0  0  0  0  0  0  0  0  0  0
  -19.8855  -20.8282   26.4094 N   0  0  0  0  0  0  0  0  0  0  0  0
  -18.8948  -23.0032   26.3182 N   0  0  0  0  0  0  0  0  0  0  0  0
  -19.9273  -21.9801   21.8115 N   0  0  0  0  0  0  0  0  0  0  0  0
  -23.3862  -21.3878   18.9687 N   0  0  0  0  0  0  0  0  0  0  0  0
  -27.1473  -28.0425   20.7652 N   0  0  0  0  0  0  0  0  0  0  0  0
  -26.1202  -33.6828   23.9540 N   0  0  0  0  0  0  0  0  0  0  0  0
  -24.6535  -36.7906   22.8325 N   0  3  0  0  0  0  0  0  0  0  0  0
  -21.4620  -22.5796   19.3372 O   0  0  0  0  0  0  0  0  0  0  0  0
  -25.2759  -28.3683   22.1121 O   0  0  0  0  0  0  0  0  0  0  0  0
  -27.6849  -31.6902   22.6161 O   0  0  0  0  0  0  0  0  0  0  0  0
  -23.8809  -34.2661   23.8053 O   0  0  0  0  0  0  0  0  0  0  0  0
  -18.0154  -21.3437   27.6577 O   0  0  0  0  0  0  0  0  0  0  0  0
  -27.6087  -17.8125   19.6191 O   0  0  0  0  0  0  0  0  0  0  0  0
  -19.6363  -30.1375   20.4404 O   0  0  0  0  0  0  0  0  0  1  0  0
  -27.7963  -16.4476   14.2800 F   0  0  0  0  0  0  0  0  0  0  0  0
  -28.1037  -15.2073   18.8377 F   0  0  0  0  0  0  0  0  0  0  0  0
  1  2  1  0  0  0  0
  1  5  2  0  0  0  0
  2  6  2  0  0  0  0
  3  8  2  0  0  0  0
  3 17  1  0  0  0  0
  4  9  1  0  0  0  0
  4 17  2  0  0  0  0
  5 19  1  0  0  0  0
  6 21  1  0  0  0  0
  7 10  2  0  0  0  0
  7 20  1  0  0  0  0
  8 27  1  0  0  0  0
  9 27  2  0  0  0  0
 10 28  1  0  0  0  0
 11 12  2  0  0  0  0
 11 29  1  0  0  0  0
 12 30  1  0  0  0  0
 13 22  2  0  0  0  0
 13 24  1  0  0  0  0
 14 23  1  0  0  0  0
 14 28  2  0  0  0  0
 15 25  2  0  0  0  0
 15 26  1  0  0  0  0
 16 30  2  0  0  0  0
 16 31  1  0  0  0  0
 17 32  1  0  0  0  0
 18 32  1  0  0  0  0
 18 33  2  0  0  0  0
 18 34  1  0  0  0  0
 19 21  2  0  0  0  0
 19 39  1  0  0  0  0
 20 23  2  0  0  0  0
 20 40  1  0  0  0  0
 21 53  1  0  0  0  0
 22 25  1  0  0  0  0
 22 52  1  0  0  0  0
 23 41  1  0  0  0  0
 24 26  2  0  0  0  0
 24 56  1  0  0  0  0
 25 57  1  0  0  0  0
 26 64  1  0  0  0  0
 27 83  1  0  0  0  0
 28 84  1  0  0  0  0
 29 31  2  0  0  0  0
 29 83  1  0  0  0  0
 30 85  1  0  0  0  0
 31 86  1  0  0  0  0
 32 68  2  0  0  0  0
 33 69  1  0  0  0  0
 33 73  1  0  0  0  0
 34 74  1  0  0  0  0
 34 78  2  0  0  0  0
 35 54  1  0  0  0  0
 35 75  1  0  0  0  0
 35 79  2  0  0  0  0
 36 65  1  0  0  0  0
 36 70  1  0  0  0  0
 36 80  2  0  0  0  0
 37 66  1  0  0  0  0
 37 76  1  0  0  0  0
 37 81  2  0  0  0  0
 38 71  1  0  0  0  0
 38 72  1  0  0  0  0
 38 82  2  0  0  0  0
 39 42  1  0  0  0  0
 40 54  1  0  0  0  0
 41 70  1  0  0  0  0
 42 44  1  0  0  0  0
 43 45  1  0  0  0  0
 43 48  1  0  0  0  0
 44 53  1  0  0  0  0
 45 55  1  0  0  0  0
 46 49  1  0  0  0  0
 46 52  1  0  0  0  0
 47 50  1  0  0  0  0
 47 52  1  0  0  0  0
 48 71  1  0  0  0  0
 49 72  1  0  0  0  0
 50 72  1  0  0  0  0
 51 55  1  0  0  0  0
 51 71  1  0  0  0  0
 53 75  1  0  0  0  0
 54 70  1  0  0  0  0
 55 69  1  0  0  0  0
 58 64  1  0  0  0  0
 59 66  1  0  0  0  0
 60 67  1  0  0  0  0
 61 67  1  0  0  0  0
 62 67  1  0  0  0  0
 63 77  1  0  0  0  0
 64 84  1  0  0  0  0
 65 67  1  0  0  0  0
 65 76  1  0  0  0  0
 66 77  1  0  0  0  0
 68 69  1  0  0  0  0
M  CHG  1  77   1
M  ISO  4  38 100  64 101  72 100  84 101
M  END
> <Batch ID>
0154

> <Smiles>
CNC(C)C(=O)NC(C(=O)N1Cc2cc([101O:1][101CH:1](C)c3cc(C)c(C4CC[100N:0]([100C:0](=O)N5CCCC(n6nc(-c7ccc(Oc8ccc(F)cc8F)cc7)c(C(N)=O)c6N)C5)CC4)cc3C)ccc2CC1C(=O)NC1CCCc2ccccc21)C(C)(C)C

> <Shape>
0.217

> <Color>
0.061

> <Negative vol penalty>
0.000

$$$$

  -OEChem-04052321513D

 86 95  0     1  0  0  0  0  0999 V2000
  -29.0508  -32.5879   23.0939 C   0  0  0  0  0  0  0  0  0  0  0  0
  -28.8440  -31.2153   23.0013 C   0  0  0  0  0  0  0  0  0  0  0  0
  -22.9118  -10.0702   19.9945 C   0  0  0  0  0  0  0  0  0  0  0  0
  -23.7899   -9.9092   22.2395 C   0  0  0  0  0  0  0  0  0  0  0  0
  -27.9800  -33.4357   23.3741 C   0  0  0  0  0  0  0  0  0  0  0  0
  -27.5664  -30.6895   23.1899 C   0  0  0  0  0  0  0  0  0  0  0  0
  -26.3686  -27.2025   19.7185 C   0  0  0  0  0  0  0  0  0  0  0  0
  -22.1194   -8.9455   20.2238 C   0  0  0  0  0  0  0  0  0  0  0  0
  -22.9974   -8.7845   22.4688 C   0  0  0  0  0  0  0  0  0  0  0  0
  -26.9095  -25.9281   19.8832 C   0  0  0  0  0  0  0  0  0  0  0  0
  -23.0744   -5.4881   21.7210 C   0  0  0  0  0  0  0  0  0  0  0  0
  -23.6689   -4.3934   22.3485 C   0  0  0  0  0  0  0  0  0  0  0  0
  -28.4816  -21.1580   19.3368 C   0  0  0  0  0  0  0  0  0  0  0  0
  -24.8225  -25.1707   20.8265 C   0  0  0  0  0  0  0  0  0  0  0  0
  -28.6637  -21.5921   21.7066 C   0  0  0  0  0  0  0  0  0  0  0  0
  -22.0714   -4.5604   24.1533 C   0  0  0  0  0  0  0  0  0  0  0  0
  -23.7472  -10.5521   21.0024 C   0  0  0  0  0  0  0  0  0  0  0  0
  -24.2215  -13.0586   20.9976 C   0  0  0  0  0  0  0  0  0  0  0  0
  -26.6868  -32.9210   23.5567 C   0  0  0  0  0  0  0  0  0  0  0  0
  -25.0519  -27.4738   20.1173 C   0  0  0  0  0  0  0  0  0  0  0  0
  -26.4775  -31.5311   23.4741 C   0  0  0  0  0  0  0  0  0  0  0  0
  -28.8363  -19.8265   19.5534 C   0  0  0  0  0  0  0  0  0  0  0  0
  -24.2664  -26.4488   20.6635 C   0  0  0  0  0  0  0  0  0  0  0  0
  -28.3954  -22.0408   20.4134 C   0  0  0  0  0  0  0  0  0  0  0  0
  -29.0184  -20.2605   21.9232 C   0  0  0  0  0  0  0  0  0  0  0  0
  -22.1621   -8.3026   21.4609 C   0  0  0  0  0  0  0  0  0  0  0  0
  -26.1374  -24.9127   20.4399 C   0  0  0  0  0  0  0  0  0  0  0  0
  -21.9784   -6.1190   22.3097 C   0  0  0  0  0  0  0  0  0  0  0  0
  -29.1046  -19.3778   20.8466 C   0  0  0  0  0  0  0  0  0  0  0  0
  -23.1674   -3.9295   23.5647 C   0  0  0  0  0  0  0  0  0  0  0  0
  -21.4769   -5.6551   23.5258 C   0  0  0  0  0  0  0  0  0  0  0  0
  -24.5664  -11.7135   20.7660 C   0  0  0  0  0  0  0  0  0  0  0  0
  -25.3330  -13.7689   20.6148 C   0  0  0  0  0  0  0  0  0  0  0  0
  -23.0052  -13.6161   21.5129 C   0  0  0  0  0  0  0  0  0  0  0  0
  -23.7072  -29.4201   22.2404 C   0  0  0  0  0  0  0  0  0  0  0  0
  -20.9553  -28.3487   20.8982 C   0  0  0  0  0  0  0  0  0  0  0  0
  -19.3454  -25.8960   19.1548 C   0  0  0  0  0  0  0  0  0  0  0  0
  -30.8670  -14.4870   20.5534 C   0  0  0  0  0  0  0  0  0  0  0  0
  -25.5692  -33.8722   23.9044 C   0  0  0  0  0  0  0  0  0  0  0  0
  -24.4745  -28.8469   19.9083 C   0  0  0  0  0  0  0  0  0  0  0  0
  -22.8408  -26.6832   21.0891 C   0  0  0  0  0  0  0  0  0  0  0  0
  -24.1782  -33.2711   23.7202 C   0  0  0  0  0  0  0  0  0  0  0  0
  -29.4758  -12.3025   18.1102 C   0  0  0  0  0  0  0  0  0  0  0  0
  -27.7287  -18.7420   17.4868 C   0  0  0  0  0  0  0  0  0  0  0  0
  -28.1163  -17.6259   18.4058 C   0  0  0  0  0  0  0  0  0  0  0  0
  -24.1138  -31.8762   24.3342 C   0  0  0  0  0  0  0  0  0  0  0  0
  -28.0490  -12.0608   18.6058 C   0  0  0  0  0  0  0  0  0  0  0  0
  -30.4654  -12.4075   19.2686 C   0  0  0  0  0  0  0  0  0  0  0  0
  -28.6822  -13.1586   20.7950 C   0  0  0  0  0  0  0  0  0  0  0  0
  -28.9239  -18.8964   18.3892 C   0  0  0  0  0  0  0  0  0  0  0  0
  -25.1017  -30.9252   23.6478 C   0  0  1  0  0  0  0  0  0  0  0  0
  -23.2905  -29.1429   20.8236 C   0  0  1  0  0  0  0  0  0  0  0  0
  -27.6396  -13.1014   19.6654 C   0  0  2  0  0  0  0  0  0  0  0  0
  -28.1452  -19.0007   23.9074 C   0  0  0  0  0  0  0  0  0  0  0  0
  -17.0895  -25.2854   18.2408 C   0  0  0  0  0  0  0  0  0  0  0  0
  -20.0198  -27.6101   23.7070 C   0  0  0  0  0  0  0  0  0  0  0  0
  -18.2470  -26.1816   22.6656 C   0  0  0  0  0  0  0  0  0  0  0  0
  -18.2611  -28.6428   22.2596 C   0  0  0  0  0  0  0  0  0  0  0  0
  -20.3577  -25.8431   16.3742 C   0  0  0  0  0  0  0  0  0  0  0  0
  -29.3025  -19.7991   23.3148 C   0  0  0  0  0  0  0  0  0  0  0  0
  -28.0122  -23.4727   20.1805 C   0  0  0  0  0  0  0  0  0  1  0  0
  -31.1165  -16.5586   21.8970 C   0  0  0  0  0  0  0  0  0  0  0  0
  -30.8409  -17.7610   21.0120 C   0  0  0  0  0  0  0  0  0  0  0  0
  -20.0172  -27.1949   21.1587 C   0  0  1  0  0  0  0  0  0  0  0  0
  -18.4233  -25.9558   17.9504 C   0  0  2  0  0  0  0  0  0  0  0  0
  -19.1637  -27.4031   22.4416 C   0  0  0  0  0  0  0  0  0  0  0  0
  -25.8004  -11.5750   20.2740 N   0  0  0  0  0  0  0  0  0  0  0  0
  -26.2406  -12.8423   20.1932 N   0  0  0  0  0  0  0  0  0  0  0  0
  -22.3236  -28.0441   20.8702 N   0  0  0  0  0  0  0  0  0  0  0  0
  -30.0197  -13.4123   20.2369 N   0  0  0  0  0  0  0  0  0  0  0  0
  -25.6126  -15.0895   20.6009 N   0  0  0  0  0  0  0  0  0  0  0  0
  -21.9635  -12.7438   21.8569 N   0  0  0  0  0  0  0  0  0  0  0  0
  -24.5770  -30.4856   22.3727 N   0  0  0  0  0  0  0  0  0  0  0  0
  -19.2329  -27.0234   19.9406 N   0  0  0  0  0  0  0  0  0  0  0  0
  -30.3651  -15.3974   21.4753 N   0  0  0  0  0  0  0  0  0  0  0  0
  -19.0494  -25.2710   16.7842 N   0  3  0  0  0  0  0  0  0  0  0  0
  -22.8407  -14.8522   21.6483 O   0  0  0  0  0  0  0  0  0  0  0  0
  -23.2706  -28.7201   23.1465 O   0  0  0  0  0  0  0  0  0  0  0  0
  -20.4906  -29.4772   20.7188 O   0  0  0  0  0  0  0  0  0  0  0  0
  -20.0883  -24.9427   19.3783 O   0  0  0  0  0  0  0  0  0  0  0  0
  -31.9857  -14.6277   20.0477 O   0  0  0  0  0  0  0  0  0  0  0  0
  -21.3888   -7.2052   21.6851 O   0  0  0  0  0  0  0  0  0  0  0  0
  -26.6631  -23.6681   20.6024 O   0  0  0  0  0  0  0  0  0  1  0  0
  -29.4516  -18.0759   21.0602 O   0  0  0  0  0  0  0  0  0  0  0  0
  -23.7375   -2.8773   24.1664 F   0  0  0  0  0  0  0  0  0  0  0  0
  -20.4235   -6.2564   24.0955 F   0  0  0  0  0  0  0  0  0  0  0  0
  1  2  1  0  0  0  0
  1  5  2  0  0  0  0
  2  6  2  0  0  0  0
  3  8  2  0  0  0  0
  3 17  1  0  0  0  0
  4  9  1  0  0  0  0
  4 17  2  0  0  0  0
  5 19  1  0  0  0  0
  6 21  1  0  0  0  0
  7 10  2  0  0  0  0
  7 20  1  0  0  0  0
  8 26  1  0  0  0  0
  9 26  2  0  0  0  0
 10 27  1  0  0  0  0
 11 12  2  0  0  0  0
 11 28  1  0  0  0  0
 12 30  1  0  0  0  0
 13 22  2  0  0  0  0
 13 24  1  0  0  0  0
 14 23  1  0  0  0  0
 14 27  2  0  0  0  0
 15 24  2  0  0  0  0
 15 25  1  0  0  0  0
 16 30  2  0  0  0  0
 16 31  1  0  0  0  0
 17 32  1  0  0  0  0
 18 32  1  0  0  0  0
 18 33  2  0  0  0  0
 18 34  1  0  0  0  0
 19 21  2  0  0  0  0
 19 39  1  0  0  0  0
 20 23  2  0  0  0  0
 20 40  1  0  0  0  0
 21 51  1  0  0  0  0
 22 29  1  0  0  0  0
 22 50  1  0  0  0  0
 23 41  1  0  0  0  0
 24 61  1  0  0  0  0
 25 29  2  0  0  0  0
 25 60  1  0  0  0  0
 26 82  1  0  0  0  0
 27 83  1  0  0  0  0
 28 31  2  0  0  0  0
 28 82  1  0  0  0  0
 29 84  1  0  0  0  0
 30 85  1  0  0  0  0
 31 86  1  0  0  0  0
 32 67  2  0  0  0  0
 33 68  1  0  0  0  0
 33 71  1  0  0  0  0
 34 72  1  0  0  0  0
 34 77  2  0  0  0  0
 35 52  1  0  0  0  0
 35 73  1  0  0  0  0
 35 78  2  0  0  0  0
 36 64  1  0  0  0  0
 36 69  1  0  0  0  0
 36 79  2  0  0  0  0
 37 65  1  0  0  0  0
 37 74  1  0  0  0  0
 37 80  2  0  0  0  0
 38 70  1  0  0  0  0
 38 75  1  0  0  0  0
 38 81  2  0  0  0  0
 39 42  1  0  0  0  0
 40 52  1  0  0  0  0
 41 69  1  0  0  0  0
 42 46  1  0  0  0  0
 43 47  1  0  0  0  0
 43 48  1  0  0  0  0
 44 45  1  0  0  0  0
 44 50  1  0  0  0  0
 45 50  1  0  0  0  0
 46 51  1  0  0  0  0
 47 53  1  0  0  0  0
 48 70  1  0  0  0  0
 49 53  1  0  0  0  0
 49 70  1  0  0  0  0
 51 73  1  0  0  0  0
 52 69  1  0  0  0  0
 53 68  1  0  0  0  0
 54 60  1  0  0  0  0
 55 65  1  0  0  0  0
 56 66  1  0  0  0  0
 57 66  1  0  0  0  0
 58 66  1  0  0  0  0
 59 76  1  0  0  0  0
 61 83  1  0  0  0  0
 62 63  1  0  0  0  0
 62 75  1  0  0  0  0
 63 84  1  0  0  0  0
 64 66  1  0  0  0  0
 64 74  1  0  0  0  0
 65 76  1  0  0  0  0
 67 68  1  0  0  0  0
M  CHG  1  76   1
M  ISO  4  38 100  61 101  75 100  83 101
M  END
> <Batch ID>
0154

> <Smiles>
CCc1cc([101CH2:1][101O:1]c2ccc3c(c2)CN(C(=O)C(NC(=O)C(C)NC)C(C)(C)C)C(C(=O)NC2CCCc4ccccc42)C3)cc(C2CC2)c1OCC[100NH:0][100C:0](=O)N1CCCC(n2nc(-c3ccc(Oc4ccc(F)cc4F)cc3)c(C(N)=O)c2N)C1

> <Shape>
0.407

> <Color>
0.216

> <Negative vol penalty>
0.000

$$$$

  -OEChem-04052321513D

 91100  0     1  0  0  0  0  0999 V2000
  -26.6704  -29.2159   21.4336 C   0  0  0  0  0  0  0  0  0  0  0  0
  -26.0099  -28.4614   22.3979 C   0  0  0  0  0  0  0  0  0  0  0  0
  -19.1890  -15.5642   20.8369 C   0  0  0  0  0  0  0  0  0  0  0  0
  -20.5179  -16.9736   22.2807 C   0  0  0  0  0  0  0  0  0  0  0  0
  -25.9874  -30.2184   20.7462 C   0  0  0  0  0  0  0  0  0  0  0  0
  -24.6662  -28.7097   22.6761 C   0  0  0  0  0  0  0  0  0  0  0  0
  -23.2747  -25.2545   19.4155 C   0  0  0  0  0  0  0  0  0  0  0  0
  -18.0477  -15.8896   21.5697 C   0  0  0  0  0  0  0  0  0  0  0  0
  -19.3765  -17.2991   23.0135 C   0  0  0  0  0  0  0  0  0  0  0  0
  -24.3421  -24.3611   19.4950 C   0  0  0  0  0  0  0  0  0  0  0  0
  -14.8443  -16.0675   23.2815 C   0  0  0  0  0  0  0  0  0  0  0  0
  -13.9776  -15.0313   23.6291 C   0  0  0  0  0  0  0  0  0  0  0  0
  -28.1421  -19.3274   20.3056 C   0  0  0  0  0  0  0  0  0  0  0  0
  -23.5756  -23.6481   21.6683 C   0  0  0  0  0  0  0  0  0  0  0  0
  -28.8265  -22.0014   19.9009 C   0  0  0  0  0  0  0  0  0  0  0  0
  -15.7600  -13.9504   24.8506 C   0  0  0  0  0  0  0  0  0  0  0  0
  -20.4242  -16.1062   21.1924 C   0  0  0  0  0  0  0  0  0  0  0  0
  -22.1123  -16.4444   19.3100 C   0  0  0  0  0  0  0  0  0  0  0  0
  -24.6322  -30.4727   21.0093 C   0  0  0  0  0  0  0  0  0  0  0  0
  -22.3544  -25.3594   20.4684 C   0  0  0  0  0  0  0  0  0  0  0  0
  -23.9649  -29.7174   21.9925 C   0  0  0  0  0  0  0  0  0  0  0  0
  -29.4803  -19.7187   20.3465 C   0  0  0  0  0  0  0  0  0  0  0  0
  -22.4959  -24.5418   21.5986 C   0  0  0  0  0  0  0  0  0  0  0  0
  -27.1461  -20.2731   20.0622 C   0  0  0  0  0  0  0  0  0  0  0  0
  -29.8225  -21.0557   20.1442 C   0  0  0  0  0  0  0  0  0  0  0  0
  -27.4882  -21.6101   19.8599 C   0  0  0  0  0  0  0  0  0  0  0  0
  -18.1414  -16.7571   22.6580 C   0  0  0  0  0  0  0  0  0  0  0  0
  -24.4943  -23.5598   20.6228 C   0  0  0  0  0  0  0  0  0  0  0  0
  -16.1688  -16.0451   23.7184 C   0  0  0  0  0  0  0  0  0  0  0  0
  -14.4355  -13.9728   24.4137 C   0  0  0  0  0  0  0  0  0  0  0  0
  -16.6266  -14.9866   24.5029 C   0  0  0  0  0  0  0  0  0  0  0  0
  -21.6036  -15.7700   20.4362 C   0  0  0  0  0  0  0  0  0  0  0  0
  -23.2382  -15.7370   18.9657 C   0  0  0  0  0  0  0  0  0  0  0  0
  -21.6119  -17.6064   18.6355 C   0  0  0  0  0  0  0  0  0  0  0  0
  -21.4713  -27.6800   22.4530 C   0  0  0  0  0  0  0  0  0  0  0  0
  -19.2570  -25.5032   23.3913 C   0  0  0  0  0  0  0  0  0  0  0  0
  -18.3388  -22.2254   23.6359 C   0  0  0  0  0  0  0  0  0  0  0  0
  -27.9570  -13.1120   20.3752 C   0  0  0  0  0  0  0  0  0  0  0  0
  -23.9487  -31.5984   20.2742 C   0  0  0  0  0  0  0  0  0  0  0  0
  -21.1933  -26.3089   20.3557 C   0  0  0  0  0  0  0  0  0  0  0  0
  -21.5237  -24.6016   22.7474 C   0  0  0  0  0  0  0  0  0  0  0  0
  -22.4256  -31.5476   20.3629 C   0  0  0  0  0  0  0  0  0  0  0  0
  -24.9288  -11.2505   20.5781 C   0  0  0  0  0  0  0  0  0  0  0  0
  -21.9828  -31.2923   21.8001 C   0  0  0  0  0  0  0  0  0  0  0  0
  -23.8365  -12.3163   20.4727 C   0  0  0  0  0  0  0  0  0  0  0  0
  -26.1360  -11.7555   21.3653 C   0  0  0  0  0  0  0  0  0  0  0  0
  -25.6153  -14.0899   20.7708 C   0  0  0  0  0  0  0  0  0  0  0  0
  -22.5011  -29.9403   22.3050 C   0  0  1  0  0  0  0  0  0  0  0  0
  -30.5293  -18.6886   20.6094 C   0  0  1  0  0  0  0  0  0  0  0  0
  -20.6082  -26.7006   21.7090 C   0  0  1  0  0  0  0  0  0  0  0  0
  -31.0988  -16.9720   22.1265 C   0  0  2  0  0  0  0  0  0  0  0  0
  -24.4006  -13.6463   19.9378 C   0  0  2  0  0  0  0  0  0  0  0  0
  -30.7391  -18.4470   22.1016 C   0  0  1  0  0  0  0  0  0  0  0  0
  -30.1551  -16.4247   21.0631 C   0  0  2  0  0  0  0  0  0  0  0  0
  -25.7202  -19.8306   20.0221 C   0  0  0  0  0  0  0  0  0  0  0  0
  -31.2484  -21.4981   20.1841 C   0  0  0  0  0  0  0  0  0  0  0  0
  -30.9309  -16.3231   23.4918 C   0  0  0  0  0  0  0  0  0  0  0  0
  -16.4902  -20.7556   24.4841 C   0  0  0  0  0  0  0  0  0  0  0  0
  -20.2374  -25.9238   26.2499 C   0  0  0  0  0  0  0  0  0  0  0  0
  -19.0641  -23.8066   26.8897 C   0  0  0  0  0  0  0  0  0  0  0  0
  -17.7543  -25.7410   26.0149 C   0  0  0  0  0  0  0  0  0  0  0  0
  -17.7917  -21.1554   20.9313 C   0  0  0  0  0  0  0  0  0  0  0  0
  -32.5673  -14.0371   19.7014 C   0  0  0  0  0  0  0  0  0  0  0  0
  -26.4344  -22.6450   19.5956 C   0  0  0  0  0  0  0  0  0  1  0  0
  -29.6729  -14.5912   19.3618 C   0  0  0  0  0  0  0  0  0  0  0  0
  -19.2065  -24.4094   24.4306 C   0  0  1  0  0  0  0  0  0  0  0  0
  -17.0442  -21.5133   23.2876 C   0  0  2  0  0  0  0  0  0  0  0  0
  -30.6171  -15.1188   20.4426 C   0  0  1  0  0  0  0  0  0  0  0  0
  -19.0852  -24.9702   25.8756 C   0  0  0  0  0  0  0  0  0  0  0  0
  -22.3454  -14.7151   20.7841 N   0  0  0  0  0  0  0  0  0  0  0  0
  -23.3316  -14.7213   19.8711 N   0  0  0  0  0  0  0  0  0  0  0  0
  -20.4086  -25.5503   22.5928 N   0  0  0  0  0  0  0  0  0  0  0  0
  -26.6234  -13.0188   20.8061 N   0  0  0  0  0  0  0  0  0  0  0  0
  -24.1474  -15.8910   17.9798 N   0  0  0  0  0  0  0  0  0  0  0  0
  -20.4435  -18.2095   19.1209 N   0  0  0  0  0  0  0  0  0  0  0  0
  -21.6991  -28.8603   21.7713 N   0  0  0  0  0  0  0  0  0  0  0  0
  -18.1145  -23.5247   24.0393 N   0  0  0  0  0  0  0  0  0  0  0  0
  -28.3356  -14.3424   19.8523 N   0  0  0  0  0  0  0  0  0  0  0  0
  -17.2690  -20.5424   22.1795 N   0  3  0  0  0  0  0  0  0  0  0  0
  -22.1748  -18.0858   17.6222 O   0  0  0  0  0  0  0  0  0  0  0  0
  -21.8979  -27.3872   23.5639 O   0  0  0  0  0  0  0  0  0  0  0  0
  -18.3065  -26.2825   23.2868 O   0  0  0  0  0  0  0  0  0  0  0  0
  -19.4388  -21.6821   23.5615 O   0  0  0  0  0  0  0  0  0  0  0  0
  -28.7501  -12.1670   20.4460 O   0  0  0  0  0  0  0  0  0  0  0  0
  -30.0904  -17.4382   20.0426 O   0  0  0  0  0  0  0  0  0  0  0  0
  -31.7864  -19.2599   22.5983 O   0  0  0  0  0  0  0  0  0  0  0  0
  -17.0278  -17.0750   23.3731 O   0  0  0  0  0  0  0  0  0  0  0  0
  -25.5356  -22.6874   20.7032 O   0  0  0  0  0  0  0  0  0  1  0  0
  -31.9156  -15.2857   19.8752 O   0  0  0  0  0  0  0  0  0  0  0  0
  -13.6027  -12.9786   24.7487 F   0  0  0  0  0  0  0  0  0  0  0  0
  -17.8977  -14.9602   24.9266 F   0  0  0  0  0  0  0  0  0  0  0  0
  1  2  1  0  0  0  0
  1  5  2  0  0  0  0
  2  6  2  0  0  0  0
  3  8  2  0  0  0  0
  3 17  1  0  0  0  0
  4  9  1  0  0  0  0
  4 17  2  0  0  0  0
  5 19  1  0  0  0  0
  6 21  1  0  0  0  0
  7 10  2  0  0  0  0
  7 20  1  0  0  0  0
  8 27  1  0  0  0  0
  9 27  2  0  0  0  0
 10 28  1  0  0  0  0
 11 12  2  0  0  0  0
 11 29  1  0  0  0  0
 12 30  1  0  0  0  0
 13 22  2  0  0  0  0
 13 24  1  0  0  0  0
 14 23  1  0  0  0  0
 14 28  2  0  0  0  0
 15 25  2  0  0  0  0
 15 26  1  0  0  0  0
 16 30  2  0  0  0  0
 16 31  1  0  0  0  0
 17 32  1  0  0  0  0
 18 32  1  0  0  0  0
 18 33  2  0  0  0  0
 18 34  1  0  0  0  0
 19 21  2  0  0  0  0
 19 39  1  0  0  0  0
 20 23  2  0  0  0  0
 20 40  1  0  0  0  0
 21 48  1  0  0  0  0
 22 25  1  0  0  0  0
 22 49  1  0  0  0  0
 23 41  1  0  0  0  0
 24 26  2  0  0  0  0
 24 55  1  0  0  0  0
 25 56  1  0  0  0  0
 26 64  1  0  0  0  0
 27 87  1  0  0  0  0
 28 88  1  0  0  0  0
 29 31  2  0  0  0  0
 29 87  1  0  0  0  0
 30 90  1  0  0  0  0
 31 91  1  0  0  0  0
 32 70  2  0  0  0  0
 33 71  1  0  0  0  0
 33 74  1  0  0  0  0
 34 75  1  0  0  0  0
 34 80  2  0  0  0  0
 35 50  1  0  0  0  0
 35 76  1  0  0  0  0
 35 81  2  0  0  0  0
 36 66  1  0  0  0  0
 36 72  1  0  0  0  0
 36 82  2  0  0  0  0
 37 67  1  0  0  0  0
 37 77  1  0  0  0  0
 37 83  2  0  0  0  0
 38 73  1  0  0  0  0
 38 78  1  0  0  0  0
 38 84  2  0  0  0  0
 39 42  1  0  0  0  0
 40 50  1  0  0  0  0
 41 72  1  0  0  0  0
 42 44  1  0  0  0  0
 43 45  1  0  0  0  0
 43 46  1  0  0  0  0
 44 48  1  0  0  0  0
 45 52  1  0  0  0  0
 46 73  1  0  0  0  0
 47 52  1  0  0  0  0
 47 73  1  0  0  0  0
 48 76  1  0  0  0  0
 49 53  1  0  0  0  0
 49 85  1  0  0  0  0
 50 72  1  0  0  0  0
 51 53  1  0  0  0  0
 51 54  1  0  0  0  0
 51 57  1  0  0  0  0
 52 71  1  0  0  0  0
 53 86  1  0  0  0  0
 54 68  1  0  0  0  0
 54 85  1  0  0  0  0
 58 67  1  0  0  0  0
 59 69  1  0  0  0  0
 60 69  1  0  0  0  0
 61 69  1  0  0  0  0
 62 79  1  0  0  0  0
 63 89  1  0  0  0  0
 64 88  1  0  0  0  0
 65 68  1  0  0  0  0
 65 78  1  0  0  0  0
 66 69  1  0  0  0  0
 66 77  1  0  0  0  0
 67 79  1  0  0  0  0
 68 89  1  0  0  0  0
 70 71  1  0  0  0  0
M  CHG  1  79   1
M  ISO  4  38 100  64 101  78 100  88 101
M  END
> <Batch ID>
0154

> <Smiles>
CNC(C)C(=O)NC(C(=O)N1Cc2cc([101O:1][101CH2:1]c3cc(C)c(C4OC(C(C[100NH:0][100C:0](=O)N5CCCC(n6nc(-c7ccc(Oc8ccc(F)cc8F)cc7)c(C(N)=O)c6N)C5)OC)C(C)C4O)cc3C)ccc2CC1C(=O)NC1CCCc2ccccc21)C(C)(C)C

> <Shape>
0.206

> <Color>
0.080

> <Negative vol penalty>
0.000

$$$$

  -OEChem-04052321513D

 92101  0     1  0  0  0  0  0999 V2000
  -25.0084  -15.4871   16.4598 C   0  0  0  0  0  0  0  0  0  0  0  0
  -24.7203  -16.4585   17.4118 C   0  0  0  0  0  0  0  0  0  0  0  0
  -23.1034   -9.8717   19.9150 C   0  0  0  0  0  0  0  0  0  0  0  0
  -23.7924   -9.8742   22.2306 C   0  0  0  0  0  0  0  0  0  0  0  0
  -25.8374  -15.7959   15.3834 C   0  0  0  0  0  0  0  0  0  0  0  0
  -25.2512  -17.7422   17.2814 C   0  0  0  0  0  0  0  0  0  0  0  0
  -23.6792  -21.1453   20.4675 C   0  0  0  0  0  0  0  0  0  0  0  0
  -22.3383   -8.7281   20.1438 C   0  0  0  0  0  0  0  0  0  0  0  0
  -23.0273   -8.7306   22.4595 C   0  0  0  0  0  0  0  0  0  0  0  0
  -24.0523  -21.1496   21.8109 C   0  0  0  0  0  0  0  0  0  0  0  0
  -19.7727   -7.9729   22.9637 C   0  0  0  0  0  0  0  0  0  0  0  0
  -18.9797   -7.9445   24.1108 C   0  0  0  0  0  0  0  0  0  0  0  0
  -25.5969  -22.9493   21.3699 C   0  0  0  0  0  0  0  0  0  0  0  0
  -30.8560  -19.1544   26.6857 C   0  0  0  0  0  0  0  0  0  0  0  0
  -28.6757  -20.1906   26.7838 C   0  0  0  0  0  0  0  0  0  0  0  0
  -29.7991  -19.9388   24.6597 C   0  0  0  0  0  0  0  0  0  0  0  0
  -20.1743   -5.9938   24.8884 C   0  0  0  0  0  0  0  0  0  0  0  0
  -23.8305  -10.4447   20.9584 C   0  0  0  0  0  0  0  0  0  0  0  0
  -24.2064  -12.9653   20.8447 C   0  0  0  0  0  0  0  0  0  0  0  0
  -26.3884  -17.0807   15.2472 C   0  0  0  0  0  0  0  0  0  0  0  0
  -24.2711  -22.0372   19.5616 C   0  0  0  0  0  0  0  0  0  0  0  0
  -26.0707  -18.0802   16.1893 C   0  0  0  0  0  0  0  0  0  0  0  0
  -25.2277  -22.9561   20.0161 C   0  0  0  0  0  0  0  0  0  0  0  0
  -29.7548  -19.5837   27.4264 C   0  0  0  0  0  0  0  0  0  0  0  0
  -30.8781  -19.3320   25.3023 C   0  0  0  0  0  0  0  0  0  0  0  0
  -22.3002   -8.1575   21.4161 C   0  0  0  0  0  0  0  0  0  0  0  0
  -25.0134  -22.0497   22.2617 C   0  0  0  0  0  0  0  0  0  0  0  0
  -20.7665   -7.0117   22.7789 C   0  0  0  0  0  0  0  0  0  0  0  0
  -28.6978  -20.3681   25.4004 C   0  0  0  0  0  0  0  0  0  0  0  0
  -19.1805   -6.9549   25.0732 C   0  0  0  0  0  0  0  0  0  0  0  0
  -20.9674   -6.0222   23.7412 C   0  0  0  0  0  0  0  0  0  0  0  0
  -24.6215  -11.6258   20.7224 C   0  0  0  0  0  0  0  0  0  0  0  0
  -25.3181  -13.7009   20.5140 C   0  0  0  0  0  0  0  0  0  0  0  0
  -22.9299  -13.4973   21.2234 C   0  0  0  0  0  0  0  0  0  0  0  0
  -26.0450  -21.7264   16.9424 C   0  0  0  0  0  0  0  0  0  0  0  0
  -25.6725  -24.9447   16.7795 C   0  0  0  0  0  0  0  0  0  0  0  0
  -25.0379  -27.8741   18.4113 C   0  0  0  0  0  0  0  0  0  0  0  0
  -30.7868  -14.6373   20.8569 C   0  0  0  0  0  0  0  0  0  0  0  0
  -27.2730  -17.3628   14.0584 C   0  0  0  0  0  0  0  0  0  0  0  0
  -23.8383  -22.0380   18.1211 C   0  0  0  0  0  0  0  0  0  0  0  0
  -25.8784  -23.9479   19.0880 C   0  0  0  0  0  0  0  0  0  0  0  0
  -28.1385  -18.6051   14.2429 C   0  0  0  0  0  0  0  0  0  0  0  0
  -29.7013  -12.3183   18.4390 C   0  0  0  0  0  0  0  0  0  0  0  0
  -27.2812  -19.7707   14.7129 C   0  0  0  0  0  0  0  0  0  0  0  0
  -28.2582  -12.0141   18.8340 C   0  0  0  0  0  0  0  0  0  0  0  0
  -30.5795  -12.4756   19.6733 C   0  0  0  0  0  0  0  0  0  0  0  0
  -30.3302  -14.4805   23.3579 C   0  0  0  0  0  0  0  0  0  0  0  0
  -28.6521  -13.2668   21.0165 C   0  0  0  0  0  0  0  0  0  0  0  0
  -26.6615  -19.4746   16.0845 C   0  0  1  0  0  0  0  0  0  0  0  0
  -24.8795  -22.6433   17.1847 C   0  0  1  0  0  0  0  0  0  0  0  0
  -31.1943  -15.1501   24.4289 C   0  0  1  0  0  0  0  0  0  0  0  0
  -27.7217  -13.0825   19.8002 C   0  0  2  0  0  0  0  0  0  0  0  0
  -31.1527  -16.6063   23.9692 C   0  0  2  0  0  0  0  0  0  0  0  0
  -31.2857  -16.5018   22.4471 C   0  0  2  0  0  0  0  0  0  0  0  0
  -29.7322  -19.3940   28.9054 C   0  0  0  0  0  0  0  0  0  0  0  0
  -30.6710  -14.9303   25.8385 C   0  0  0  0  0  0  0  0  0  0  0  0
  -33.3734  -19.5283   24.9448 C   0  0  0  0  0  0  0  0  0  0  0  0
  -24.8366  -30.3443   18.0182 C   0  0  0  0  0  0  0  0  0  0  0  0
  -31.1958  -17.8401   20.3247 C   0  0  0  0  0  0  0  0  0  0  0  0
  -29.1076  -17.4798   21.6712 C   0  0  0  0  0  0  0  0  0  0  0  0
  -28.7109  -25.1618   16.6033 C   0  0  0  0  0  0  0  0  0  0  0  0
  -28.5003  -27.5919   17.1678 C   0  0  0  0  0  0  0  0  0  0  0  0
  -27.4647  -26.7041   15.0792 C   0  0  0  0  0  0  0  0  0  0  0  0
  -22.2186  -27.9049   19.3110 C   0  0  0  0  0  0  0  0  0  0  0  0
  -25.3046  -20.8153   24.2735 C   0  0  0  0  0  0  0  0  0  1  0  0
  -26.3577  -20.7903   25.3644 C   0  0  0  0  0  0  0  0  0  0  0  0
  -32.0713  -18.8676   24.4993 C   0  0  1  0  0  0  0  0  0  0  0  0
  -26.4284  -26.1368   17.3145 C   0  0  1  0  0  0  0  0  0  0  0  0
  -24.0936  -29.0196   18.0942 C   0  0  2  0  0  0  0  0  0  0  0  0
  -30.6221  -17.6724   21.7310 C   0  0  0  0  0  0  0  0  0  0  0  0
  -27.7654  -26.3788   16.5585 C   0  0  0  0  0  0  0  0  0  0  0  0
  -25.8974  -11.5139   20.3435 N   0  0  0  0  0  0  0  0  0  0  0  0
  -26.2935  -12.7925   20.2246 N   0  0  0  0  0  0  0  0  0  0  0  0
  -25.4263  -23.9052   17.6876 N   0  0  0  0  0  0  0  0  0  0  0  0
  -30.0427  -13.4801   20.5927 N   0  0  0  0  0  0  0  0  0  0  0  0
  -30.6571  -15.2099   22.1257 N   0  0  0  0  0  0  0  0  0  0  0  0
  -25.5468  -15.0296   20.4452 N   0  0  0  0  0  0  0  0  0  0  0  0
  -21.8972  -12.6010   21.5309 N   0  0  0  0  0  0  0  0  0  0  0  0
  -25.6963  -20.5048   16.3987 N   0  0  0  0  0  0  0  0  0  0  0  0
  -25.5022  -27.2629   17.2657 N   0  0  0  0  0  0  0  0  0  0  0  0
  -32.2602  -17.3891   24.5519 N   0  3  0  0  0  0  0  0  0  0  0  0
  -23.0423  -29.1301   19.1447 N   0  3  0  0  0  0  0  0  0  0  0  0
  -22.7069  -14.7307   21.2714 O   0  0  0  0  0  0  0  0  0  0  0  0
  -27.1770  -22.1003   17.2261 O   0  0  0  0  0  0  0  0  0  0  0  0
  -25.3075  -24.9392   15.6012 O   0  0  0  0  0  0  0  0  0  0  0  0
  -25.3369  -27.5558   19.5601 O   0  0  0  0  0  0  0  0  0  0  0  0
  -31.5519  -15.1192   20.0116 O   0  0  0  0  0  0  0  0  0  0  0  0
  -21.5536   -7.0418   21.6399 O   0  0  0  0  0  0  0  0  0  0  0  0
  -25.3823  -22.0556   23.5812 O   0  0  0  0  0  0  0  0  0  1  0  0
  -27.6450  -20.9607   24.7734 O   0  0  0  0  0  0  0  0  0  0  0  0
  -18.4199   -6.9287   26.1754 F   0  0  0  0  0  0  0  0  0  0  0  0
  -21.9213   -5.0968   23.5698 F   0  0  0  0  0  0  0  0  0  0  0  0
  1  2  1  0  0  0  0
  1  5  2  0  0  0  0
  2  6  2  0  0  0  0
  3  8  2  0  0  0  0
  3 18  1  0  0  0  0
  4  9  1  0  0  0  0
  4 18  2  0  0  0  0
  5 20  1  0  0  0  0
  6 22  1  0  0  0  0
  7 10  2  0  0  0  0
  7 21  1  0  0  0  0
  8 26  1  0  0  0  0
  9 26  2  0  0  0  0
 10 27  1  0  0  0  0
 11 12  2  0  0  0  0
 11 28  1  0  0  0  0
 12 30  1  0  0  0  0
 13 23  1  0  0  0  0
 13 27  2  0  0  0  0
 14 24  1  0  0  0  0
 14 25  2  0  0  0  0
 15 24  2  0  0  0  0
 15 29  1  0  0  0  0
 16 25  1  0  0  0  0
 16 29  2  0  0  0  0
 17 30  2  0  0  0  0
 17 31  1  0  0  0  0
 18 32  1  0  0  0  0
 19 32  1  0  0  0  0
 19 33  2  0  0  0  0
 19 34  1  0  0  0  0
 20 22  2  0  0  0  0
 20 39  1  0  0  0  0
 21 23  2  0  0  0  0
 21 40  1  0  0  0  0
 22 49  1  0  0  0  0
 23 41  1  0  0  0  0
 24 55  1  0  0  0  0
 25 67  1  0  0  0  0
 26 88  1  0  0  0  0
 27 89  1  0  0  0  0
 28 31  2  0  0  0  0
 28 88  1  0  0  0  0
 29 90  1  0  0  0  0
 30 91  1  0  0  0  0
 31 92  1  0  0  0  0
 32 72  2  0  0  0  0
 33 73  1  0  0  0  0
 33 77  1  0  0  0  0
 34 78  1  0  0  0  0
 34 83  2  0  0  0  0
 35 50  1  0  0  0  0
 35 79  1  0  0  0  0
 35 84  2  0  0  0  0
 36 68  1  0  0  0  0
 36 74  1  0  0  0  0
 36 85  2  0  0  0  0
 37 69  1  0  0  0  0
 37 80  1  0  0  0  0
 37 86  2  0  0  0  0
 38 75  1  0  0  0  0
 38 76  1  0  0  0  0
 38 87  2  0  0  0  0
 39 42  1  0  0  0  0
 40 50  1  0  0  0  0
 41 74  1  0  0  0  0
 42 44  1  0  0  0  0
 43 45  1  0  0  0  0
 43 46  1  0  0  0  0
 44 49  1  0  0  0  0
 45 52  1  0  0  0  0
 46 75  1  0  0  0  0
 47 51  1  0  0  0  0
 47 76  1  0  0  0  0
 48 52  1  0  0  0  0
 48 75  1  0  0  0  0
 49 79  1  0  0  0  0
 50 74  1  0  0  0  0
 51 53  1  0  0  0  0
 51 56  1  0  0  0  0
 52 73  1  0  0  0  0
 53 54  1  0  0  0  0
 53 81  1  0  0  0  0
 54 70  1  0  0  0  0
 54 76  1  0  0  0  0
 57 67  1  0  0  0  0
 58 69  1  0  0  0  0
 59 70  1  0  0  0  0
 60 70  1  0  0  0  0
 61 71  1  0  0  0  0
 62 71  1  0  0  0  0
 63 71  1  0  0  0  0
 64 82  1  0  0  0  0
 65 66  1  0  0  0  0
 65 89  1  0  0  0  0
 66 90  1  0  0  0  0
 67 81  1  0  0  0  0
 68 71  1  0  0  0  0
 68 80  1  0  0  0  0
 69 82  1  0  0  0  0
 72 73  1  0  0  0  0
M  CHG  2  81   1  82   1
M  ISO  4  38 100  65 101  76 100  89 101
M  END
> <Batch ID>
0154

> <Smiles>
CNC(C)C(=O)NC(C(=O)N1Cc2cc([101O:1][101CH2:1]COc3cc(C)cc(C(C)NC4C(C)C[100N:0]([100C:0](=O)N5CCCC(n6nc(-c7ccc(Oc8ccc(F)cc8F)cc7)c(C(N)=O)c6N)C5)C4C(C)C)c3)ccc2CC1C(=O)NC1CCCc2ccccc21)C(C)(C)C

> <Shape>
0.195

> <Color>
0.179

> <Negative vol penalty>
0.000

$$$$

  -OEChem-04052321513D

 87 96  0     1  0  0  0  0  0999 V2000
  -17.2117  -30.4950   23.4894 C   0  0  0  0  0  0  0  0  0  0  0  0
  -18.5233  -30.9190   23.3016 C   0  0  0  0  0  0  0  0  0  0  0  0
  -26.5048  -12.9125   20.3795 C   0  0  0  0  0  0  0  0  0  0  0  0
  -24.8493  -14.5981   19.8743 C   0  0  0  0  0  0  0  0  0  0  0  0
  -16.9151  -29.1327   23.4979 C   0  0  0  0  0  0  0  0  0  0  0  0
  -19.5393  -29.9808   23.1231 C   0  0  0  0  0  0  0  0  0  0  0  0
  -25.7577  -29.0715   19.6849 C   0  0  0  0  0  0  0  0  0  0  0  0
  -25.5395  -11.9177   20.2235 C   0  0  0  0  0  0  0  0  0  0  0  0
  -23.8841  -13.6033   19.7182 C   0  0  0  0  0  0  0  0  0  0  0  0
  -27.0803  -28.7050   19.9299 C   0  0  0  0  0  0  0  0  0  0  0  0
  -23.0010  -10.6058   22.0288 C   0  0  0  0  0  0  0  0  0  0  0  0
  -22.9526   -9.5946   22.9883 C   0  0  0  0  0  0  0  0  0  0  0  0
  -26.4382  -26.3802   19.8839 C   0  0  0  0  0  0  0  0  0  0  0  0
  -23.3793   -7.9470   21.2736 C   0  0  0  0  0  0  0  0  0  0  0  0
  -26.1597  -14.2527   20.2050 C   0  0  0  0  0  0  0  0  0  0  0  0
  -30.3763  -24.3000   20.1823 C   0  0  0  0  0  0  0  0  0  0  0  0
  -27.9995  -15.8112   19.3719 C   0  0  0  0  0  0  0  0  0  0  0  0
  -17.9266  -28.1776   23.3098 C   0  0  0  0  0  0  0  0  0  0  0  0
  -24.7618  -28.0938   19.5481 C   0  0  0  0  0  0  0  0  0  0  0  0
  -19.2562  -28.6044   23.1304 C   0  0  0  0  0  0  0  0  0  0  0  0
  -25.1041  -26.7368   19.6346 C   0  0  0  0  0  0  0  0  0  0  0  0
  -30.9220  -25.1443   21.1577 C   0  0  0  0  0  0  0  0  0  0  0  0
  -29.8345  -23.0734   20.5647 C   0  0  0  0  0  0  0  0  0  0  0  0
  -24.2292  -12.2631   19.8928 C   0  0  0  0  0  0  0  0  0  0  0  0
  -27.4203  -27.3592   20.0323 C   0  0  0  0  0  0  0  0  0  0  0  0
  -23.2385  -10.2876   20.6916 C   0  0  0  0  0  0  0  0  0  0  0  0
  -23.1417   -8.2652   22.6107 C   0  0  0  0  0  0  0  0  0  0  0  0
  -23.4277   -8.9582   20.3140 C   0  0  0  0  0  0  0  0  0  0  0  0
  -27.1562  -15.2808   20.3666 C   0  0  0  0  0  0  0  0  0  0  0  0
  -30.9028  -24.7081   22.4771 C   0  0  0  0  0  0  0  0  0  0  0  0
  -29.8549  -22.7435   21.9112 C   0  0  0  0  0  0  0  0  0  0  0  0
  -28.7554  -16.7515   20.0282 C   0  0  0  0  0  0  0  0  0  0  0  0
  -30.3976  -24.7076   18.7741 C   0  0  0  0  0  0  0  0  0  0  0  0
  -30.6719  -25.9780   18.4262 C   0  0  0  0  0  0  0  0  0  0  0  0
  -28.0912  -15.4832   17.9792 C   0  0  0  0  0  0  0  0  0  0  0  0
  -22.1047  -27.3617   21.1317 C   0  0  0  0  0  0  0  0  0  0  0  0
  -21.7071  -25.2447   18.7063 C   0  0  0  0  0  0  0  0  0  0  0  0
  -23.1304  -23.3636   16.2400 C   0  0  0  0  0  0  0  0  0  0  0  0
  -29.2243  -20.9909   23.6074 C   0  0  0  0  0  0  0  0  0  0  0  0
  -17.5647  -26.7148   23.3740 C   0  0  0  0  0  0  0  0  0  0  0  0
  -23.3444  -28.5048   19.2575 C   0  0  0  0  0  0  0  0  0  0  0  0
  -31.5785  -26.4368   20.7597 C   0  0  0  0  0  0  0  0  0  0  0  0
  -24.0759  -25.6479   19.4753 C   0  0  0  0  0  0  0  0  0  0  0  0
  -18.6417  -25.7954   22.8038 C   0  0  0  0  0  0  0  0  0  0  0  0
  -29.2623  -17.7033   24.9738 C   0  0  0  0  0  0  0  0  0  0  0  0
  -20.0164  -26.1906   23.3338 C   0  0  0  0  0  0  0  0  0  0  0  0
  -28.7871  -16.8236   23.8152 C   0  0  0  0  0  0  0  0  0  0  0  0
  -28.5392  -19.0487   24.9980 C   0  0  0  0  0  0  0  0  0  0  0  0
  -28.1036  -18.9179   22.5768 C   0  0  0  0  0  0  0  0  0  0  0  0
  -20.3821  -27.6178   22.9088 C   0  0  1  0  0  0  0  0  0  0  0  0
  -30.9834  -27.0406   19.4680 C   0  0  2  0  0  0  0  0  0  0  0  0
  -22.3221  -27.4415   19.6471 C   0  0  1  0  0  0  0  0  0  0  0  0
  -28.8499  -17.5778   22.4725 C   0  0  2  0  0  0  0  0  0  0  0  0
  -29.2347  -22.1322   19.5686 C   0  0  0  0  0  0  0  0  0  0  0  0
  -31.4991  -25.5343   23.5694 C   0  0  0  0  0  0  0  0  0  0  0  0
  -31.7469  -25.6452   16.2146 C   0  0  0  0  0  0  0  0  0  0  0  0
  -29.3052  -26.2245   16.3597 C   0  0  0  0  0  0  0  0  0  0  0  0
  -22.5547  -21.7049   14.4471 C   0  0  0  0  0  0  0  0  0  0  0  0
  -21.3911  -23.0700   20.8231 C   0  0  0  0  0  0  0  0  0  0  0  0
  -21.7728  -21.3657   19.0292 C   0  0  0  0  0  0  0  0  0  0  0  0
  -19.8035  -22.8914   18.8989 C   0  0  0  0  0  0  0  0  0  0  0  0
  -24.1390  -25.1471   14.1044 C   0  0  0  0  0  0  0  0  0  0  0  0
  -29.7298  -27.8675   19.7798 C   0  0  0  0  0  0  0  0  0  1  0  0
  -30.6817  -26.4129   16.9892 C   0  0  0  0  0  0  0  0  0  0  0  0
  -22.1165  -23.8128   18.4592 C   0  0  1  0  0  0  0  0  0  0  0  0
  -22.7638  -23.1741   14.7791 C   0  0  2  0  0  0  0  0  0  0  0  0
  -21.2902  -22.8053   19.3076 C   0  0  0  0  0  0  0  0  0  0  0  0
  -27.3572  -15.8378   21.5638 N   0  0  0  0  0  0  0  0  0  0  0  0
  -30.3750  -23.5304   22.8788 N   0  0  0  0  0  0  0  0  0  0  0  0
  -28.3356  -16.7279   21.3257 N   0  0  0  0  0  0  0  0  0  0  0  0
  -22.7026  -26.1005   19.1986 N   0  0  0  0  0  0  0  0  0  0  0  0
  -28.6446  -19.7075   23.6942 N   0  0  0  0  0  0  0  0  0  0  0  0
  -29.7317  -17.5879   19.6164 N   0  0  0  0  0  0  0  0  0  0  0  0
  -27.2404  -14.4935   17.4683 N   0  0  0  0  0  0  0  0  0  0  0  0
  -29.3002  -21.5029   22.3126 N   0  0  0  0  0  0  0  0  0  0  0  0
  -20.8099  -27.6395   21.5264 N   0  0  0  0  0  0  0  0  0  0  0  0
  -22.0180  -23.6028   17.0188 N   0  0  0  0  0  0  0  0  0  0  0  0
  -23.8443  -23.7053   13.9009 N   0  3  0  0  0  0  0  0  0  0  0  0
  -28.9149  -16.0395   17.2139 O   0  0  0  0  0  0  0  0  0  0  0  0
  -23.0419  -27.0683   21.8646 O   0  0  0  0  0  0  0  0  0  0  0  0
  -20.5486  -25.5927   18.4645 O   0  0  0  0  0  0  0  0  0  0  0  0
  -24.2874  -23.3016   16.6499 O   0  0  0  0  0  0  0  0  0  0  0  0
  -29.6487  -21.5801   24.6048 O   0  0  0  0  0  0  0  0  0  0  0  0
  -23.2871  -11.2927   19.7402 O   0  0  0  0  0  0  0  0  0  0  0  0
  -28.7104  -26.9987   20.2720 O   0  0  0  0  0  0  0  0  0  1  0  0
  -23.0967   -7.2944   23.5325 F   0  0  0  0  0  0  0  0  0  0  0  0
  -23.6574   -8.6465   19.0311 F   0  0  0  0  0  0  0  0  0  0  0  0
  1  2  1  0  0  0  0
  1  5  2  0  0  0  0
  2  6  2  0  0  0  0
  3  8  2  0  0  0  0
  3 15  1  0  0  0  0
  4  9  1  0  0  0  0
  4 15  2  0  0  0  0
  5 18  1  0  0  0  0
  6 20  1  0  0  0  0
  7 10  2  0  0  0  0
  7 19  1  0  0  0  0
  8 24  1  0  0  0  0
  9 24  2  0  0  0  0
 10 25  1  0  0  0  0
 11 12  2  0  0  0  0
 11 26  1  0  0  0  0
 12 27  1  0  0  0  0
 13 21  1  0  0  0  0
 13 25  2  0  0  0  0
 14 27  2  0  0  0  0
 14 28  1  0  0  0  0
 15 29  1  0  0  0  0
 16 22  2  0  0  0  0
 16 23  1  0  0  0  0
 16 33  1  0  0  0  0
 17 29  1  0  0  0  0
 17 32  2  0  0  0  0
 17 35  1  0  0  0  0
 18 20  2  0  0  0  0
 18 40  1  0  0  0  0
 19 21  2  0  0  0  0
 19 41  1  0  0  0  0
 20 50  1  0  0  0  0
 21 43  1  0  0  0  0
 22 30  1  0  0  0  0
 22 42  1  0  0  0  0
 23 31  2  0  0  0  0
 23 54  1  0  0  0  0
 24 84  1  0  0  0  0
 25 85  1  0  0  0  0
 26 28  2  0  0  0  0
 26 84  1  0  0  0  0
 27 86  1  0  0  0  0
 28 87  1  0  0  0  0
 29 68  2  0  0  0  0
 30 55  1  0  0  0  0
 30 69  2  0  0  0  0
 31 69  1  0  0  0  0
 31 75  1  0  0  0  0
 32 70  1  0  0  0  0
 32 73  1  0  0  0  0
 33 34  2  0  0  0  0
 34 51  1  0  0  0  0
 34 64  1  0  0  0  0
 35 74  1  0  0  0  0
 35 79  2  0  0  0  0
 36 52  1  0  0  0  0
 36 76  1  0  0  0  0
 36 80  2  0  0  0  0
 37 65  1  0  0  0  0
 37 71  1  0  0  0  0
 37 81  2  0  0  0  0
 38 66  1  0  0  0  0
 38 77  1  0  0  0  0
 38 82  2  0  0  0  0
 39 72  1  0  0  0  0
 39 75  1  0  0  0  0
 39 83  2  0  0  0  0
 40 44  1  0  0  0  0
 41 52  1  0  0  0  0
 42 51  1  0  0  0  0
 43 71  1  0  0  0  0
 44 46  1  0  0  0  0
 45 47  1  0  0  0  0
 45 48  1  0  0  0  0
 46 50  1  0  0  0  0
 47 53  1  0  0  0  0
 48 72  1  0  0  0  0
 49 53  1  0  0  0  0
 49 72  1  0  0  0  0
 50 76  1  0  0  0  0
 51 63  1  0  0  0  0
 52 71  1  0  0  0  0
 53 70  1  0  0  0  0
 56 64  1  0  0  0  0
 57 64  1  0  0  0  0
 58 66  1  0  0  0  0
 59 67  1  0  0  0  0
 60 67  1  0  0  0  0
 61 67  1  0  0  0  0
 62 78  1  0  0  0  0
 63 85  1  0  0  0  0
 65 67  1  0  0  0  0
 65 77  1  0  0  0  0
 66 78  1  0  0  0  0
 68 70  1  0  0  0  0
M  CHG  1  78   1
M  ISO  4  39 100  63 101  75 100  85 101
M  END
> <Batch ID>
0154

> <Smiles>
CNC(C)C(=O)NC(C(=O)N1Cc2cc([101O:1][101CH2:1]C3Cc4c(C)nc([100NH:0][100C:0](=O)N5CCCC(n6nc(-c7ccc(Oc8ccc(F)cc8F)cc7)c(C(N)=O)c6N)C5)c(C)c4C=C3C(C)C)ccc2CC1C(=O)NC1CCCc2ccccc21)C(C)(C)C

> <Shape>
0.258

> <Color>
0.090

> <Negative vol penalty>
0.000

$$$$

  -OEChem-04052321513D

 89 98  0     1  0  0  0  0  0999 V2000
  -25.5356  -37.1782   18.6573 C   0  0  0  0  0  0  0  0  0  0  0  0
  -26.1066  -35.9456   18.3574 C   0  0  0  0  0  0  0  0  0  0  0  0
  -23.5902   -9.8558   21.7455 C   0  0  0  0  0  0  0  0  0  0  0  0
  -24.2252  -11.0539   23.7451 C   0  0  0  0  0  0  0  0  0  0  0  0
  -25.1654  -37.4731   19.9688 C   0  0  0  0  0  0  0  0  0  0  0  0
  -26.3087  -35.0074   19.3690 C   0  0  0  0  0  0  0  0  0  0  0  0
  -25.8952  -28.9170   18.8778 C   0  0  0  0  0  0  0  0  0  0  0  0
  -23.0103   -8.8573   22.5279 C   0  0  0  0  0  0  0  0  0  0  0  0
  -23.6452  -10.0554   24.5275 C   0  0  0  0  0  0  0  0  0  0  0  0
  -26.8573  -27.9220   18.7099 C   0  0  0  0  0  0  0  0  0  0  0  0
  -20.1402   -8.3983   24.2556 C   0  0  0  0  0  0  0  0  0  0  0  0
  -18.8799   -7.9319   23.8819 C   0  0  0  0  0  0  0  0  0  0  0  0
  -26.8761  -27.5464   21.0927 C   0  0  0  0  0  0  0  0  0  0  0  0
  -19.7817   -5.7060   23.6187 C   0  0  0  0  0  0  0  0  0  0  0  0
  -29.6791  -20.4176   19.7032 C   0  0  0  0  0  0  0  0  0  0  0  0
  -24.1977  -10.9541   22.3541 C   0  0  0  0  0  0  0  0  0  0  0  0
  -24.1744  -13.1460   21.0492 C   0  0  0  0  0  0  0  0  0  0  0  0
  -25.3541  -36.5343   20.9953 C   0  0  0  0  0  0  0  0  0  0  0  0
  -25.4235  -29.2422   20.1578 C   0  0  0  0  0  0  0  0  0  0  0  0
  -25.9418  -35.2905   20.6957 C   0  0  0  0  0  0  0  0  0  0  0  0
  -25.9062  -28.5441   21.2740 C   0  0  0  0  0  0  0  0  0  0  0  0
  -27.4650  -21.5112   20.8640 C   0  0  0  0  0  0  0  0  0  0  0  0
  -27.8309  -20.2088   21.1854 C   0  0  0  0  0  0  0  0  0  0  0  0
  -23.0378   -8.9571   23.9189 C   0  0  0  0  0  0  0  0  0  0  0  0
  -27.3501  -27.2386   19.8177 C   0  0  0  0  0  0  0  0  0  0  0  0
  -21.2213   -7.5186   24.3108 C   0  0  0  0  0  0  0  0  0  0  0  0
  -28.9577  -19.6442   20.5984 C   0  0  0  0  0  0  0  0  0  0  0  0
  -18.7006   -6.5858   23.5635 C   0  0  0  0  0  0  0  0  0  0  0  0
  -21.0420   -6.1724   23.9924 C   0  0  0  0  0  0  0  0  0  0  0  0
  -24.7974  -11.9857   21.5464 C   0  0  0  0  0  0  0  0  0  0  0  0
  -28.2533  -22.2010   19.9570 C   0  0  0  0  0  0  0  0  0  0  0  0
  -25.1628  -13.7931   20.3486 C   0  0  0  0  0  0  0  0  0  0  0  0
  -22.8230  -13.5985   21.2066 C   0  0  0  0  0  0  0  0  0  0  0  0
  -25.4700  -31.8540   21.9688 C   0  0  0  0  0  0  0  0  0  0  0  0
  -23.5993  -30.0614   23.9206 C   0  0  0  0  0  0  0  0  0  0  0  0
  -22.6121  -26.9572   24.9384 C   0  0  0  0  0  0  0  0  0  0  0  0
  -30.8596  -14.8018   20.5554 C   0  0  0  0  0  0  0  0  0  0  0  0
  -24.9815  -36.9164   22.4059 C   0  0  0  0  0  0  0  0  0  0  0  0
  -24.3660  -30.2995   20.3194 C   0  0  0  0  0  0  0  0  0  0  0  0
  -25.4176  -28.8414   22.6673 C   0  0  0  0  0  0  0  0  0  0  0  0
  -24.8850  -35.7243   23.3545 C   0  0  0  0  0  0  0  0  0  0  0  0
  -29.4531  -12.4257   18.3077 C   0  0  0  0  0  0  0  0  0  0  0  0
  -26.4174  -23.4589   22.1992 C   0  0  0  0  0  0  0  0  0  0  0  0
  -26.1459  -22.2075   22.9743 C   0  0  0  0  0  0  0  0  0  0  0  0
  -26.0917  -34.8070   23.1835 C   0  0  0  0  0  0  0  0  0  0  0  0
  -28.0513  -12.1778   18.8675 C   0  0  0  0  0  0  0  0  0  0  0  0
  -30.4771  -12.6329   19.4215 C   0  0  0  0  0  0  0  0  0  0  0  0
  -28.7242  -13.4328   20.9582 C   0  0  0  0  0  0  0  0  0  0  0  0
  -26.2614  -22.1485   21.4741 C   0  0  0  0  0  0  0  0  0  0  0  0
  -26.1543  -34.2372   21.7613 C   0  0  1  0  0  0  0  0  0  0  0  0
  -24.3336  -30.9030   21.7201 C   0  0  1  0  0  0  0  0  0  0  0  0
  -27.6468  -13.2737   19.8719 C   0  0  2  0  0  0  0  0  0  0  0  0
  -27.8295  -19.0216   23.4090 C   0  0  0  0  0  0  0  0  0  0  0  0
  -26.4073  -18.1550   21.5165 C   0  0  0  0  0  0  0  0  0  0  0  0
  -21.0969  -25.8109   26.5778 C   0  0  0  0  0  0  0  0  0  0  0  0
  -25.5665  -30.6818   26.1689 C   0  0  0  0  0  0  0  0  0  0  0  0
  -24.5618  -28.7964   27.4741 C   0  0  0  0  0  0  0  0  0  0  0  0
  -23.1584  -30.7585   26.8391 C   0  0  0  0  0  0  0  0  0  0  0  0
  -21.0598  -25.6634   22.7761 C   0  0  0  0  0  0  0  0  0  0  0  0
  -31.0923  -16.9626   21.7537 C   0  0  0  0  0  0  0  0  0  0  0  0
  -30.7520  -18.0969   20.8036 C   0  0  0  0  0  0  0  0  0  0  0  0
  -28.2679  -25.5399   18.4292 C   0  0  0  0  0  0  0  0  0  1  0  0
  -28.7814  -24.1347   18.6773 C   0  0  0  0  0  0  0  0  0  0  0  0
  -27.0223  -19.4116   22.1580 C   0  0  0  0  0  0  0  0  0  0  0  0
  -23.8519  -29.1026   25.0589 C   0  0  1  0  0  0  0  0  0  0  0  0
  -21.2340  -26.3632   25.1675 C   0  0  2  0  0  0  0  0  0  0  0  0
  -24.2955  -29.8303   26.3593 C   0  0  0  0  0  0  0  0  0  0  0  0
  -29.3547  -21.6860   19.3662 N   0  0  0  0  0  0  0  0  0  0  0  0
  -26.0821  -11.8979   21.1916 N   0  0  0  0  0  0  0  0  0  0  0  0
  -26.2744  -13.0113   20.4640 N   0  0  0  0  0  0  0  0  0  0  0  0
  -24.3877  -29.8880   22.7742 N   0  0  0  0  0  0  0  0  0  0  0  0
  -30.0344  -13.6861   20.3384 N   0  0  0  0  0  0  0  0  0  0  0  0
  -25.1808  -14.9489   19.6513 N   0  0  0  0  0  0  0  0  0  0  0  0
  -21.9384  -12.8125   21.9576 N   0  0  0  0  0  0  0  0  0  0  0  0
  -25.2006  -33.1598   21.6060 N   0  0  0  0  0  0  0  0  0  0  0  0
  -22.6354  -28.3103   25.2028 N   0  0  0  0  0  0  0  0  0  0  0  0
  -30.3619  -15.7563   21.4341 N   0  0  0  0  0  0  0  0  0  0  0  0
  -20.9802  -25.2562   24.2026 N   0  3  0  0  0  0  0  0  0  0  0  0
  -22.4078  -14.6600   20.6827 O   0  0  0  0  0  0  0  0  0  0  0  0
  -26.5135  -31.4344   22.4554 O   0  0  0  0  0  0  0  0  0  0  0  0
  -22.7294  -30.9276   24.0412 O   0  0  0  0  0  0  0  0  0  0  0  0
  -23.5728  -26.2872   24.5660 O   0  0  0  0  0  0  0  0  0  0  0  0
  -31.9562  -14.9399   20.0027 O   0  0  0  0  0  0  0  0  0  0  0  0
  -22.4718   -7.9830   24.6827 O   0  0  0  0  0  0  0  0  0  0  0  0
  -28.2896  -26.2674   19.6567 O   0  0  0  0  0  0  0  0  0  1  0  0
  -29.3534  -18.3767   20.8804 O   0  0  0  0  0  0  0  0  0  0  0  0
  -27.9286  -23.4870   19.6135 O   0  0  0  0  0  0  0  0  0  0  0  0
  -17.4900   -6.1377   23.2061 F   0  0  0  0  0  0  0  0  0  0  0  0
  -22.0766   -5.3223   24.0447 F   0  0  0  0  0  0  0  0  0  0  0  0
  1  2  1  0  0  0  0
  1  5  2  0  0  0  0
  2  6  2  0  0  0  0
  3  8  2  0  0  0  0
  3 16  1  0  0  0  0
  4  9  1  0  0  0  0
  4 16  2  0  0  0  0
  5 18  1  0  0  0  0
  6 20  1  0  0  0  0
  7 10  2  0  0  0  0
  7 19  1  0  0  0  0
  8 24  1  0  0  0  0
  9 24  2  0  0  0  0
 10 25  1  0  0  0  0
 11 12  2  0  0  0  0
 11 26  1  0  0  0  0
 12 28  1  0  0  0  0
 13 21  1  0  0  0  0
 13 25  2  0  0  0  0
 14 28  2  0  0  0  0
 14 29  1  0  0  0  0
 15 27  1  0  0  0  0
 15 68  2  0  0  0  0
 16 30  1  0  0  0  0
 17 30  1  0  0  0  0
 17 32  2  0  0  0  0
 17 33  1  0  0  0  0
 18 20  2  0  0  0  0
 18 38  1  0  0  0  0
 19 21  2  0  0  0  0
 19 39  1  0  0  0  0
 20 50  1  0  0  0  0
 21 40  1  0  0  0  0
 22 23  1  0  0  0  0
 22 31  2  0  0  0  0
 22 49  1  0  0  0  0
 23 27  2  0  0  0  0
 23 64  1  0  0  0  0
 24 84  1  0  0  0  0
 25 85  1  0  0  0  0
 26 29  2  0  0  0  0
 26 84  1  0  0  0  0
 27 86  1  0  0  0  0
 28 88  1  0  0  0  0
 29 89  1  0  0  0  0
 30 69  2  0  0  0  0
 31 68  1  0  0  0  0
 31 87  1  0  0  0  0
 32 70  1  0  0  0  0
 32 73  1  0  0  0  0
 33 74  1  0  0  0  0
 33 79  2  0  0  0  0
 34 51  1  0  0  0  0
 34 75  1  0  0  0  0
 34 80  2  0  0  0  0
 35 65  1  0  0  0  0
 35 71  1  0  0  0  0
 35 81  2  0  0  0  0
 36 66  1  0  0  0  0
 36 76  1  0  0  0  0
 36 82  2  0  0  0  0
 37 72  1  0  0  0  0
 37 77  1  0  0  0  0
 37 83  2  0  0  0  0
 38 41  1  0  0  0  0
 39 51  1  0  0  0  0
 40 71  1  0  0  0  0
 41 45  1  0  0  0  0
 42 46  1  0  0  0  0
 42 47  1  0  0  0  0
 43 44  1  0  0  0  0
 43 49  1  0  0  0  0
 44 49  1  0  0  0  0
 45 50  1  0  0  0  0
 46 52  1  0  0  0  0
 47 72  1  0  0  0  0
 48 52  1  0  0  0  0
 48 72  1  0  0  0  0
 50 75  1  0  0  0  0
 51 71  1  0  0  0  0
 52 70  1  0  0  0  0
 53 64  1  0  0  0  0
 54 64  1  0  0  0  0
 55 66  1  0  0  0  0
 56 67  1  0  0  0  0
 57 67  1  0  0  0  0
 58 67  1  0  0  0  0
 59 78  1  0  0  0  0
 60 61  1  0  0  0  0
 60 77  1  0  0  0  0
 61 86  1  0  0  0  0
 62 63  1  0  0  0  0
 62 85  1  0  0  0  0
 63 87  1  0  0  0  0
 65 67  1  0  0  0  0
 65 76  1  0  0  0  0
 66 78  1  0  0  0  0
 69 70  1  0  0  0  0
M  CHG  1  78   1
M  ISO  4  37 100  62 101  77 100  85 101
M  END
> <Batch ID>
0154

> <Smiles>
CNC(C)C(=O)NC(C(=O)N1Cc2cc([101O:1][101CH2:1]COc3ncc(OCC[100NH:0][100C:0](=O)N4CCCC(n5nc(-c6ccc(Oc7ccc(F)cc7F)cc6)c(C(N)=O)c5N)C4)c(C(C)C)c3C3CC3)ccc2CC1C(=O)NC1CCCc2ccccc21)C(C)(C)C

> <Shape>
0.320

> <Color>
0.189

> <Negative vol penalty>
0.000

$$$$

  -OEChem-04052321513D

 88 98  0     1  0  0  0  0  0999 V2000
  -19.2016  -26.1397   25.5532 C   0  0  0  0  0  0  0  0  0  0  0  0
  -20.5159  -25.9970   25.1201 C   0  0  0  0  0  0  0  0  0  0  0  0
  -24.4275  -10.0996   22.5258 C   0  0  0  0  0  0  0  0  0  0  0  0
  -24.5830  -11.6531   24.3696 C   0  0  0  0  0  0  0  0  0  0  0  0
  -18.3094  -26.9235   24.8227 C   0  0  0  0  0  0  0  0  0  0  0  0
  -20.9385  -26.6371   23.9556 C   0  0  0  0  0  0  0  0  0  0  0  0
  -25.4387  -28.8939   24.5029 C   0  0  0  0  0  0  0  0  0  0  0  0
  -23.9989   -9.1025   23.4020 C   0  0  0  0  0  0  0  0  0  0  0  0
  -24.1544  -10.6560   25.2458 C   0  0  0  0  0  0  0  0  0  0  0  0
  -26.5693  -28.0794   24.4569 C   0  0  0  0  0  0  0  0  0  0  0  0
  -21.1335   -8.2265   24.9688 C   0  0  0  0  0  0  0  0  0  0  0  0
  -20.0476   -7.4431   24.5781 C   0  0  0  0  0  0  0  0  0  0  0  0
  -30.2712  -19.8856   20.7621 C   0  0  0  0  0  0  0  0  0  0  0  0
  -26.9369  -28.7296   22.1631 C   0  0  0  0  0  0  0  0  0  0  0  0
  -27.8620  -20.0422   20.6700 C   0  0  0  0  0  0  0  0  0  0  0  0
  -21.4284   -5.4648   24.7071 C   0  0  0  0  0  0  0  0  0  0  0  0
  -24.7197  -11.3749   23.0096 C   0  0  0  0  0  0  0  0  0  0  0  0
  -24.3594  -13.3216   21.4009 C   0  0  0  0  0  0  0  0  0  0  0  0
  -18.7238  -27.5813   23.6539 C   0  0  0  0  0  0  0  0  0  0  0  0
  -25.0418  -29.6252   23.3741 C   0  0  0  0  0  0  0  0  0  0  0  0
  -20.0506  -27.4293   23.2080 C   0  0  0  0  0  0  0  0  0  0  0  0
  -30.3529  -21.2629   20.9670 C   0  0  0  0  0  0  0  0  0  0  0  0
  -25.8023  -29.5546   22.1982 C   0  0  0  0  0  0  0  0  0  0  0  0
  -29.1892  -22.0299   21.0234 C   0  0  0  0  0  0  0  0  0  0  0  0
  -29.0257  -19.2753   20.6136 C   0  0  0  0  0  0  0  0  0  0  0  0
  -23.8623   -9.3807   24.7620 C   0  0  0  0  0  0  0  0  0  0  0  0
  -27.3169  -27.9949   23.2860 C   0  0  0  0  0  0  0  0  0  0  0  0
  -22.3669   -7.6291   25.2286 C   0  0  0  0  0  0  0  0  0  0  0  0
  -27.9437  -21.4195   20.8749 C   0  0  0  0  0  0  0  0  0  0  0  0
  -20.1950   -6.0622   24.4473 C   0  0  0  0  0  0  0  0  0  0  0  0
  -22.5143   -6.2482   25.0978 C   0  0  0  0  0  0  0  0  0  0  0  0
  -25.1630  -12.4051   22.1051 C   0  0  0  0  0  0  0  0  0  0  0  0
  -25.2519  -14.0823   20.6859 C   0  0  0  0  0  0  0  0  0  0  0  0
  -22.9335  -13.4720   21.3938 C   0  0  0  0  0  0  0  0  0  0  0  0
  -22.4628  -29.6593   21.5164 C   0  0  0  0  0  0  0  0  0  0  0  0
  -23.9436  -32.2131   20.1719 C   0  0  0  0  0  0  0  0  0  0  0  0
  -26.8580  -33.8775   19.5531 C   0  0  0  0  0  0  0  0  0  0  0  0
  -29.9993  -16.9696   20.3269 C   0  0  0  0  0  0  0  0  0  0  0  0
  -17.7107  -28.3794   22.8720 C   0  0  0  0  0  0  0  0  0  0  0  0
  -23.8351  -30.5199   23.4483 C   0  0  0  0  0  0  0  0  0  0  0  0
  -25.4302  -30.3353   20.9651 C   0  0  0  0  0  0  0  0  0  0  0  0
  -18.3374  -29.3274   21.8528 C   0  0  0  0  0  0  0  0  0  0  0  0
  -30.2059  -13.4452   19.8647 C   0  0  0  0  0  0  0  0  0  0  0  0
  -32.3676  -22.4875   19.9109 C   0  0  0  0  0  0  0  0  0  0  0  0
  -32.8956  -21.2205   20.5077 C   0  0  0  0  0  0  0  0  0  0  0  0
  -19.4190  -28.6101   21.0511 C   0  0  0  0  0  0  0  0  0  0  0  0
  -28.8462  -12.9358   20.3484 C   0  0  0  0  0  0  0  0  0  0  0  0
  -29.0399  -23.5281   23.8342 C   0  0  0  0  0  0  0  0  0  0  0  0
  -30.7049  -14.6175   20.7076 C   0  0  0  0  0  0  0  0  0  0  0  0
  -28.3986  -15.2224   21.3273 C   0  0  0  0  0  0  0  0  0  0  0  0
  -31.6972  -21.8941   21.1211 C   0  0  0  0  0  0  0  0  0  0  0  0
  -20.5534  -28.1279   21.9633 C   0  0  1  0  0  0  0  0  0  0  0  0
  -23.2299  -30.8215   22.0808 C   0  0  1  0  0  0  0  0  0  0  0  0
  -29.2250  -24.9646   23.4209 C   0  0  1  0  0  0  0  0  0  0  0  0
  -28.5647  -23.9890   22.4813 C   0  0  1  0  0  0  0  0  0  0  0  0
  -27.8246  -14.0837   20.4686 C   0  0  2  0  0  0  0  0  0  0  0  0
  -28.7776  -24.2908   19.9875 C   0  0  0  0  0  0  0  0  0  0  0  0
  -27.7551  -35.9157   18.3963 C   0  0  0  0  0  0  0  0  0  0  0  0
  -23.6245  -30.8204   17.4759 C   0  0  0  0  0  0  0  0  0  0  0  0
  -25.3310  -32.3948   16.5392 C   0  0  0  0  0  0  0  0  0  0  0  0
  -23.1794  -33.2811   17.4381 C   0  0  0  0  0  0  0  0  0  0  0  0
  -27.9056  -34.9957   22.0851 C   0  0  0  0  0  0  0  0  0  0  0  0
  -25.5682  -21.4451   20.7647 C   0  0  0  0  0  0  0  0  0  0  0  0
  -28.4215  -26.0394   24.0683 C   0  0  0  0  0  0  0  0  0  1  0  0
  -29.2713  -23.5442   21.2479 C   0  0  2  0  0  0  0  0  0  0  0  0
  -24.9266  -32.4065   19.0427 C   0  0  1  0  0  0  0  0  0  0  0  0
  -27.2341  -35.3404   19.7041 C   0  0  2  0  0  0  0  0  0  0  0  0
  -24.2715  -32.2093   17.6464 C   0  0  0  0  0  0  0  0  0  0  0  0
  -26.4659  -12.5669   21.8595 N   0  0  0  0  0  0  0  0  0  0  0  0
  -26.4878  -13.5939   20.9930 N   0  0  0  0  0  0  0  0  0  0  0  0
  -24.2383  -31.1912   21.0855 N   0  0  0  0  0  0  0  0  0  0  0  0
  -29.6866  -15.6681   20.7732 N   0  0  0  0  0  0  0  0  0  0  0  0
  -25.0923  -15.1145   19.8306 N   0  0  0  0  0  0  0  0  0  0  0  0
  -22.1665  -12.6071   22.1863 N   0  0  0  0  0  0  0  0  0  0  0  0
  -28.9426  -17.8759   20.4070 N   0  0  0  0  0  0  0  0  0  0  0  0
  -21.4211  -29.2308   22.3169 N   0  0  0  0  0  0  0  0  0  0  0  0
  -25.5236  -33.7227   19.2421 N   0  0  0  0  0  0  0  0  0  0  0  0
  -28.2920  -35.4988   20.7417 N   0  3  0  0  0  0  0  0  0  0  0  0
  -22.3557  -14.3368   20.6926 O   0  0  0  0  0  0  0  0  0  0  0  0
  -22.7907  -29.1872   20.4342 O   0  0  0  0  0  0  0  0  0  0  0  0
  -22.9544  -32.9465   20.2449 O   0  0  0  0  0  0  0  0  0  0  0  0
  -27.6678  -32.9636   19.6931 O   0  0  0  0  0  0  0  0  0  0  0  0
  -31.1137  -17.2519   19.8793 O   0  0  0  0  0  0  0  0  0  0  0  0
  -23.4438   -8.4081   25.6172 O   0  0  0  0  0  0  0  0  0  0  0  0
  -26.7960  -22.1522   20.9265 O   0  0  0  0  0  0  0  0  0  0  0  0
  -28.4205  -27.2001   23.2381 O   0  0  0  0  0  0  0  0  0  1  0  0
  -19.1517   -5.3099   24.0735 F   0  0  0  0  0  0  0  0  0  0  0  0
  -23.6965   -5.6684   25.3472 F   0  0  0  0  0  0  0  0  0  0  0  0
  1  2  1  0  0  0  0
  1  5  2  0  0  0  0
  2  6  2  0  0  0  0
  3  8  2  0  0  0  0
  3 17  1  0  0  0  0
  4  9  1  0  0  0  0
  4 17  2  0  0  0  0
  5 19  1  0  0  0  0
  6 21  1  0  0  0  0
  7 10  2  0  0  0  0
  7 20  1  0  0  0  0
  8 26  1  0  0  0  0
  9 26  2  0  0  0  0
 10 27  1  0  0  0  0
 11 12  2  0  0  0  0
 11 28  1  0  0  0  0
 12 30  1  0  0  0  0
 13 22  1  0  0  0  0
 13 25  2  0  0  0  0
 14 23  1  0  0  0  0
 14 27  2  0  0  0  0
 15 25  1  0  0  0  0
 15 29  2  0  0  0  0
 16 30  2  0  0  0  0
 16 31  1  0  0  0  0
 17 32  1  0  0  0  0
 18 32  1  0  0  0  0
 18 33  2  0  0  0  0
 18 34  1  0  0  0  0
 19 21  2  0  0  0  0
 19 39  1  0  0  0  0
 20 23  2  0  0  0  0
 20 40  1  0  0  0  0
 21 52  1  0  0  0  0
 22 24  2  0  0  0  0
 22 51  1  0  0  0  0
 23 41  1  0  0  0  0
 24 29  1  0  0  0  0
 24 65  1  0  0  0  0
 25 75  1  0  0  0  0
 26 84  1  0  0  0  0
 27 86  1  0  0  0  0
 28 31  2  0  0  0  0
 28 84  1  0  0  0  0
 29 85  1  0  0  0  0
 30 87  1  0  0  0  0
 31 88  1  0  0  0  0
 32 69  2  0  0  0  0
 33 70  1  0  0  0  0
 33 73  1  0  0  0  0
 34 74  1  0  0  0  0
 34 79  2  0  0  0  0
 35 53  1  0  0  0  0
 35 76  1  0  0  0  0
 35 80  2  0  0  0  0
 36 66  1  0  0  0  0
 36 71  1  0  0  0  0
 36 81  2  0  0  0  0
 37 67  1  0  0  0  0
 37 77  1  0  0  0  0
 37 82  2  0  0  0  0
 38 72  1  0  0  0  0
 38 75  1  0  0  0  0
 38 83  2  0  0  0  0
 39 42  1  0  0  0  0
 40 53  1  0  0  0  0
 41 71  1  0  0  0  0
 42 46  1  0  0  0  0
 43 47  1  0  0  0  0
 43 49  1  0  0  0  0
 44 45  1  0  0  0  0
 44 51  1  0  0  0  0
 45 51  1  0  0  0  0
 46 52  1  0  0  0  0
 47 56  1  0  0  0  0
 48 54  1  0  0  0  0
 48 55  1  0  0  0  0
 49 72  1  0  0  0  0
 50 56  1  0  0  0  0
 50 72  1  0  0  0  0
 52 76  1  0  0  0  0
 53 71  1  0  0  0  0
 54 55  1  0  0  0  0
 54 64  1  0  0  0  0
 55 65  1  0  0  0  0
 56 70  1  0  0  0  0
 57 65  1  0  0  0  0
 58 67  1  0  0  0  0
 59 68  1  0  0  0  0
 60 68  1  0  0  0  0
 61 68  1  0  0  0  0
 62 78  1  0  0  0  0
 63 85  1  0  0  0  0
 64 86  1  0  0  0  0
 66 68  1  0  0  0  0
 66 77  1  0  0  0  0
 67 78  1  0  0  0  0
 69 70  1  0  0  0  0
M  CHG  1  78   1
M  ISO  4  38 100  64 101  75 100  86 101
M  END
> <Batch ID>
0154

> <Smiles>
CNC(C)C(=O)NC(C(=O)N1Cc2cc([101O:1][101CH2:1]C3CC3C(C)c3c(OC)cc([100NH:0][100C:0](=O)N4CCCC(n5nc(-c6ccc(Oc7ccc(F)cc7F)cc6)c(C(N)=O)c5N)C4)cc3C3CC3)ccc2CC1C(=O)NC1CCCc2ccccc21)C(C)(C)C

> <Shape>
0.255

> <Color>
0.120

> <Negative vol penalty>
0.000

$$$$

  -OEChem-04052321513D

 89 99  0     1  0  0  0  0  0999 V2000
  -41.6311  -31.0289   27.8435 C   0  0  0  0  0  0  0  0  0  0  0  0
  -41.4795  -29.6706   27.5842 C   0  0  0  0  0  0  0  0  0  0  0  0
  -23.2534  -10.1348   22.1650 C   0  0  0  0  0  0  0  0  0  0  0  0
  -23.5067   -9.5591   19.8323 C   0  0  0  0  0  0  0  0  0  0  0  0
  -40.5681  -31.9030   27.6201 C   0  0  0  0  0  0  0  0  0  0  0  0
  -40.2643  -29.1853   27.1024 C   0  0  0  0  0  0  0  0  0  0  0  0
  -39.4456  -24.5671   23.1644 C   0  0  0  0  0  0  0  0  0  0  0  0
  -22.4923   -8.9834   22.3666 C   0  0  0  0  0  0  0  0  0  0  0  0
  -22.7457   -8.4076   20.0339 C   0  0  0  0  0  0  0  0  0  0  0  0
  -39.1207  -23.2238   23.3485 C   0  0  0  0  0  0  0  0  0  0  0  0
  -23.0445   -5.6732   22.7796 C   0  0  0  0  0  0  0  0  0  0  0  0
  -23.3268   -4.8983   23.9044 C   0  0  0  0  0  0  0  0  0  0  0  0
  -36.7979  -23.7370   22.9479 C   0  0  0  0  0  0  0  0  0  0  0  0
  -21.0702   -5.2318   24.7005 C   0  0  0  0  0  0  0  0  0  0  0  0
  -32.1054  -16.3688   22.6822 C   0  0  0  0  0  0  0  0  0  0  0  0
  -23.7606  -10.4227   20.8978 C   0  0  0  0  0  0  0  0  0  0  0  0
  -24.1429  -12.9449   20.8966 C   0  0  0  0  0  0  0  0  0  0  0  0
  -39.3423  -31.4296   27.1262 C   0  0  0  0  0  0  0  0  0  0  0  0
  -38.4459  -25.5088   22.8809 C   0  0  0  0  0  0  0  0  0  0  0  0
  -39.1834  -30.0537   26.8734 C   0  0  0  0  0  0  0  0  0  0  0  0
  -37.1130  -25.0912   22.7581 C   0  0  0  0  0  0  0  0  0  0  0  0
  -30.6524  -18.0408   24.2756 C   0  0  0  0  0  0  0  0  0  0  0  0
  -29.9942  -17.2331   23.3549 C   0  0  0  0  0  0  0  0  0  0  0  0
  -30.7273  -16.3784   22.5392 C   0  0  0  0  0  0  0  0  0  0  0  0
  -22.2385   -8.1198   21.3010 C   0  0  0  0  0  0  0  0  0  0  0  0
  -37.7963  -22.8091   23.2431 C   0  0  0  0  0  0  0  0  0  0  0  0
  -21.7750   -6.2276   22.6151 C   0  0  0  0  0  0  0  0  0  0  0  0
  -22.3396   -4.6776   24.8649 C   0  0  0  0  0  0  0  0  0  0  0  0
  -20.7879   -6.0068   23.5756 C   0  0  0  0  0  0  0  0  0  0  0  0
  -24.5463  -11.6123   20.6889 C   0  0  0  0  0  0  0  0  0  0  0  0
  -32.0339  -17.9567   24.3411 C   0  0  0  0  0  0  0  0  0  0  0  0
  -25.2431  -13.6936   20.5568 C   0  0  0  0  0  0  0  0  0  0  0  0
  -22.8861  -13.4600   21.3558 C   0  0  0  0  0  0  0  0  0  0  0  0
  -37.3325  -28.1055   24.3374 C   0  0  0  0  0  0  0  0  0  0  0  0
  -35.5920  -28.4097   21.6170 C   0  0  0  0  0  0  0  0  0  0  0  0
  -34.1928  -26.9094   18.8897 C   0  0  0  0  0  0  0  0  0  0  0  0
  -30.7276  -14.6415   20.7145 C   0  0  0  0  0  0  0  0  0  0  0  0
  -38.2069  -32.4057   26.9452 C   0  0  0  0  0  0  0  0  0  0  0  0
  -38.8163  -26.9496   22.6587 C   0  0  0  0  0  0  0  0  0  0  0  0
  -36.0052  -26.0592   22.4354 C   0  0  0  0  0  0  0  0  0  0  0  0
  -37.0721  -31.8661   26.0785 C   0  0  0  0  0  0  0  0  0  0  0  0
  -29.5458  -12.3645   18.2455 C   0  0  0  0  0  0  0  0  0  0  0  0
  -28.9642  -19.9778   24.5440 C   0  0  0  0  0  0  0  0  0  0  0  0
  -30.2474  -20.4330   25.1656 C   0  0  0  0  0  0  0  0  0  0  0  0
  -36.7028  -30.4486   26.5042 C   0  0  0  0  0  0  0  0  0  0  0  0
  -34.0510  -19.9545   23.4556 C   0  0  0  0  0  0  0  0  0  0  0  0
  -34.9653  -20.0222   25.8126 C   0  0  0  0  0  0  0  0  0  0  0  0
  -28.1066  -12.0754   18.6782 C   0  0  0  0  0  0  0  0  0  0  0  0
  -35.4105  -20.3932   22.9197 C   0  0  0  0  0  0  0  0  0  0  0  0
  -36.3221  -20.4612   25.2702 C   0  0  0  0  0  0  0  0  0  0  0  0
  -30.4785  -12.5196   19.4454 C   0  0  0  0  0  0  0  0  0  0  0  0
  -28.6000  -13.2062   20.8838 C   0  0  0  0  0  0  0  0  0  0  0  0
  -29.8939  -18.9696   25.1649 C   0  0  0  0  0  0  0  0  0  0  0  0
  -37.8886  -29.4927   26.3266 C   0  0  1  0  0  0  0  0  0  0  0  0
  -37.6503  -27.9076   22.8822 C   0  0  1  0  0  0  0  0  0  0  0  0
  -34.1852  -19.1939   24.7822 C   0  0  0  0  0  0  0  0  0  0  0  0
  -27.6108  -13.1064   19.7111 C   0  0  2  0  0  0  0  0  0  0  0  0
  -36.1845  -21.2134   23.9482 C   0  0  0  0  0  0  0  0  0  1  0  0
  -28.5029  -17.2832   23.2432 C   0  0  0  0  0  0  0  0  0  0  0  0
  -32.9312  -18.1260   26.6906 C   0  0  0  0  0  0  0  0  0  0  0  0
  -32.7979  -27.4104   16.8647 C   0  0  0  0  0  0  0  0  0  0  0  0
  -33.1051  -28.5840   23.3762 C   0  0  0  0  0  0  0  0  0  0  0  0
  -31.7192  -28.1267   21.3419 C   0  0  0  0  0  0  0  0  0  0  0  0
  -33.1339  -30.1784   21.4497 C   0  0  0  0  0  0  0  0  0  0  0  0
  -36.3355  -26.0222   17.0510 C   0  0  0  0  0  0  0  0  0  0  0  0
  -32.8099  -18.8125   25.3266 C   0  0  2  0  0  0  0  0  0  0  0  0
  -34.2400  -27.9244   21.1529 C   0  0  1  0  0  0  0  0  0  0  0  0
  -34.2086  -27.2795   17.4176 C   0  0  2  0  0  0  0  0  0  0  0  0
  -33.0699  -28.6852   21.8382 C   0  0  0  0  0  0  0  0  0  0  0  0
  -32.7800  -17.1387   23.5653 N   0  0  0  0  0  0  0  0  0  0  0  0
  -25.8045  -11.5167   20.2508 N   0  0  0  0  0  0  0  0  0  0  0  0
  -26.2012  -12.7988   20.1804 N   0  0  0  0  0  0  0  0  0  0  0  0
  -36.4171  -27.4581   22.2331 N   0  0  0  0  0  0  0  0  0  0  0  0
  -29.9469  -13.5152   20.3788 N   0  0  0  0  0  0  0  0  0  0  0  0
  -25.4748  -15.0235   20.5460 N   0  0  0  0  0  0  0  0  0  0  0  0
  -21.9000  -13.7601   20.4063 N   0  0  0  0  0  0  0  0  0  0  0  0
  -30.1052  -15.5358   21.5849 N   0  0  0  0  0  0  0  0  0  0  0  0
  -38.0416  -29.1305   24.9338 N   0  0  0  0  0  0  0  0  0  0  0  0
  -34.2474  -28.0255   19.6976 N   0  0  0  0  0  0  0  0  0  0  0  0
  -34.9275  -26.2388   16.6295 N   0  3  0  0  0  0  0  0  0  0  0  0
  -22.6507  -13.6639   22.5709 O   0  0  0  0  0  0  0  0  0  0  0  0
  -36.5040  -27.3826   24.8786 O   0  0  0  0  0  0  0  0  0  0  0  0
  -35.9074  -29.5880   21.4330 O   0  0  0  0  0  0  0  0  0  0  0  0
  -34.1339  -25.7467   19.2837 O   0  0  0  0  0  0  0  0  0  0  0  0
  -31.8539  -14.8148   20.2417 O   0  0  0  0  0  0  0  0  0  0  0  0
  -21.4961   -6.9960   21.4974 O   0  0  0  0  0  0  0  0  0  0  0  0
  -37.4763  -21.4987   23.4230 O   0  0  0  0  0  0  0  0  0  1  0  0
  -22.6104   -3.9321   25.9443 F   0  0  0  0  0  0  0  0  0  0  0  0
  -19.5662   -6.5357   23.4225 F   0  0  0  0  0  0  0  0  0  0  0  0
  1  2  1  0  0  0  0
  1  5  2  0  0  0  0
  2  6  2  0  0  0  0
  3  8  2  0  0  0  0
  3 16  1  0  0  0  0
  4  9  1  0  0  0  0
  4 16  2  0  0  0  0
  5 18  1  0  0  0  0
  6 20  1  0  0  0  0
  7 10  2  0  0  0  0
  7 19  1  0  0  0  0
  8 25  1  0  0  0  0
  9 25  2  0  0  0  0
 10 26  1  0  0  0  0
 11 12  2  0  0  0  0
 11 27  1  0  0  0  0
 12 28  1  0  0  0  0
 13 21  1  0  0  0  0
 13 26  2  0  0  0  0
 14 28  2  0  0  0  0
 14 29  1  0  0  0  0
 15 24  1  0  0  0  0
 15 70  2  0  0  0  0
 16 30  1  0  0  0  0
 17 30  1  0  0  0  0
 17 32  2  0  0  0  0
 17 33  1  0  0  0  0
 18 20  2  0  0  0  0
 18 38  1  0  0  0  0
 19 21  2  0  0  0  0
 19 39  1  0  0  0  0
 20 54  1  0  0  0  0
 21 40  1  0  0  0  0
 22 23  1  0  0  0  0
 22 31  2  0  0  0  0
 22 53  1  0  0  0  0
 23 24  2  0  0  0  0
 23 59  1  0  0  0  0
 24 77  1  0  0  0  0
 25 86  1  0  0  0  0
 26 87  1  0  0  0  0
 27 29  2  0  0  0  0
 27 86  1  0  0  0  0
 28 88  1  0  0  0  0
 29 89  1  0  0  0  0
 30 71  2  0  0  0  0
 31 66  1  0  0  0  0
 31 70  1  0  0  0  0
 32 72  1  0  0  0  0
 32 75  1  0  0  0  0
 33 76  1  0  0  0  0
 33 81  2  0  0  0  0
 34 55  1  0  0  0  0
 34 78  1  0  0  0  0
 34 82  2  0  0  0  0
 35 67  1  0  0  0  0
 35 73  1  0  0  0  0
 35 83  2  0  0  0  0
 36 68  1  0  0  0  0
 36 79  1  0  0  0  0
 36 84  2  0  0  0  0
 37 74  1  0  0  0  0
 37 77  1  0  0  0  0
 37 85  2  0  0  0  0
 38 41  1  0  0  0  0
 39 55  1  0  0  0  0
 40 73  1  0  0  0  0
 41 45  1  0  0  0  0
 42 48  1  0  0  0  0
 42 51  1  0  0  0  0
 43 44  1  0  0  0  0
 43 53  1  0  0  0  0
 44 53  1  0  0  0  0
 45 54  1  0  0  0  0
 46 49  1  0  0  0  0
 46 56  1  0  0  0  0
 47 50  1  0  0  0  0
 47 56  1  0  0  0  0
 48 57  1  0  0  0  0
 49 58  1  0  0  0  0
 50 58  1  0  0  0  0
 51 74  1  0  0  0  0
 52 57  1  0  0  0  0
 52 74  1  0  0  0  0
 54 78  1  0  0  0  0
 55 73  1  0  0  0  0
 56 66  1  0  0  0  0
 57 72  1  0  0  0  0
 58 87  1  0  0  0  0
 60 66  1  0  0  0  0
 61 68  1  0  0  0  0
 62 69  1  0  0  0  0
 63 69  1  0  0  0  0
 64 69  1  0  0  0  0
 65 80  1  0  0  0  0
 67 69  1  0  0  0  0
 67 79  1  0  0  0  0
 68 80  1  0  0  0  0
 71 72  1  0  0  0  0
M  CHG  1  80   1
M  ISO  4  37 100  58 101  77 100  87 101
M  END
> <Batch ID>
0154

> <Smiles>
CNC(C)C(=O)NC(C(=O)N1Cc2cc([101O:1][101CH:1]3CCC(C(C)c4ncc([100NH:0][100C:0](=O)N5CCCC(n6nc(-c7ccc(Oc8ccc(F)cc8F)cc7)c(C(N)=O)c6N)C5)c(C)c4C4CC4)CC3)ccc2CC1C(=O)NC1CCCc2ccccc21)C(C)(C)C

> <Shape>
0.166

> <Color>
0.173

> <Negative vol penalty>
0.000

$$$$

  -OEChem-04052321513D

 86 95  0     1  0  0  0  0  0999 V2000
  -32.9830  -37.2569   20.6881 C   0  0  0  0  0  0  0  0  0  0  0  0
  -32.8373  -35.9361   20.2761 C   0  0  0  0  0  0  0  0  0  0  0  0
  -24.2534   -8.8697   21.7606 C   0  0  0  0  0  0  0  0  0  0  0  0
  -23.9669   -8.1892   19.4602 C   0  0  0  0  0  0  0  0  0  0  0  0
  -32.4303  -37.6733   21.8985 C   0  0  0  0  0  0  0  0  0  0  0  0
  -32.1397  -35.0307   21.0748 C   0  0  0  0  0  0  0  0  0  0  0  0
  -28.6179  -30.3959   19.1718 C   0  0  0  0  0  0  0  0  0  0  0  0
  -23.1740   -8.0682   22.1321 C   0  0  0  0  0  0  0  0  0  0  0  0
  -22.8875   -7.3877   19.8317 C   0  0  0  0  0  0  0  0  0  0  0  0
  -28.8594  -29.0298   19.0334 C   0  0  0  0  0  0  0  0  0  0  0  0
  -22.5881   -4.7877   22.7048 C   0  0  0  0  0  0  0  0  0  0  0  0
  -22.7341   -3.9885   23.8386 C   0  0  0  0  0  0  0  0  0  0  0  0
  -27.8806  -28.6430   21.2040 C   0  0  0  0  0  0  0  0  0  0  0  0
  -29.7847  -23.9837   21.3480 C   0  0  0  0  0  0  0  0  0  0  0  0
  -20.8678   -5.1190   24.8759 C   0  0  0  0  0  0  0  0  0  0  0  0
  -24.6499   -8.9302   20.4246 C   0  0  0  0  0  0  0  0  0  0  0  0
  -27.1206   -9.3851   19.9814 C   0  0  0  0  0  0  0  0  0  0  0  0
  -31.7172  -36.7748   22.7078 C   0  0  0  0  0  0  0  0  0  0  0  0
  -28.0148  -30.8979   20.3340 C   0  0  0  0  0  0  0  0  0  0  0  0
  -31.5781  -35.4351   22.2978 C   0  0  0  0  0  0  0  0  0  0  0  0
  -27.6302  -30.0156   21.3536 C   0  0  0  0  0  0  0  0  0  0  0  0
  -28.6987  -24.5667   20.7046 C   0  0  0  0  0  0  0  0  0  0  0  0
  -30.1263  -22.6655   21.0674 C   0  0  0  0  0  0  0  0  0  0  0  0
  -22.4910   -7.3272   21.1677 C   0  0  0  0  0  0  0  0  0  0  0  0
  -28.4934  -28.1534   20.0508 C   0  0  0  0  0  0  0  0  0  0  0  0
  -21.5820   -5.7526   22.6565 C   0  0  0  0  0  0  0  0  0  0  0  0
  -21.8740   -4.1541   24.9241 C   0  0  0  0  0  0  0  0  0  0  0  0
  -20.7218   -5.9183   23.7420 C   0  0  0  0  0  0  0  0  0  0  0  0
  -25.7645   -9.7585   20.0401 C   0  0  0  0  0  0  0  0  0  0  0  0
  -27.9923  -23.7950   19.7962 C   0  0  0  0  0  0  0  0  0  0  0  0
  -29.3558  -21.9788   20.1429 C   0  0  0  0  0  0  0  0  0  0  0  0
  -27.7714  -10.5202   19.5638 C   0  0  0  0  0  0  0  0  0  0  0  0
  -27.7368   -8.1250   20.2779 C   0  0  0  0  0  0  0  0  0  0  0  0
  -28.8973  -32.9137   22.6278 C   0  0  0  0  0  0  0  0  0  0  0  0
  -25.8311  -32.5238   23.6121 C   0  0  0  0  0  0  0  0  0  0  0  0
  -23.0238  -30.5835   23.6463 C   0  0  0  0  0  0  0  0  0  0  0  0
  -28.7376  -15.7987   19.6933 C   0  0  0  0  0  0  0  0  0  0  0  0
  -31.1783  -37.2597   24.0304 C   0  0  0  0  0  0  0  0  0  0  0  0
  -27.7368  -32.3711   20.4564 C   0  0  0  0  0  0  0  0  0  0  0  0
  -26.9613  -30.5017   22.6125 C   0  0  0  0  0  0  0  0  0  0  0  0
  -30.1326  -36.3294   24.6399 C   0  0  0  0  0  0  0  0  0  0  0  0
  -25.9768  -14.8727   17.7330 C   0  0  0  0  0  0  0  0  0  0  0  0
  -30.6052  -34.8805   24.5763 C   0  0  0  0  0  0  0  0  0  0  0  0
  -25.7797  -13.4169   18.1551 C   0  0  0  0  0  0  0  0  0  0  0  0
  -29.6423  -19.0123   18.0803 C   0  0  0  0  0  0  0  0  0  0  0  0
  -27.6335  -19.3780   19.5772 C   0  0  0  0  0  0  0  0  0  0  0  0
  -26.3247  -15.7716   18.9208 C   0  0  0  0  0  0  0  0  0  0  0  0
  -29.9910  -17.7671   18.8941 C   0  0  0  0  0  0  0  0  0  0  0  0
  -28.0301  -18.1274   20.3585 C   0  0  0  0  0  0  0  0  0  0  0  0
  -27.2835  -13.8428   20.1362 C   0  0  0  0  0  0  0  0  0  0  0  0
  -30.8070  -34.4292   23.1247 C   0  0  1  0  0  0  0  0  0  0  0  0
  -27.5839  -32.8321   21.9026 C   0  0  1  0  0  0  0  0  0  0  0  0
  -26.9906  -12.9047   18.9551 C   0  0  1  0  0  0  0  0  0  0  0  0
  -28.8283  -20.0305   18.8797 C   0  0  0  0  0  0  0  0  0  0  0  0
  -31.2866  -22.0301   21.7517 C   0  0  0  0  0  0  0  0  0  0  0  0
  -26.8178  -24.3700   19.0743 C   0  0  0  0  0  0  0  0  0  0  0  0
  -20.6901  -30.5116   24.5660 C   0  0  0  0  0  0  0  0  0  0  0  0
  -26.9384  -31.7843   26.3575 C   0  0  0  0  0  0  0  0  0  0  0  0
  -24.6967  -30.8252   26.9261 C   0  0  0  0  0  0  0  0  0  0  0  0
  -24.9169  -33.2558   26.4097 C   0  0  0  0  0  0  0  0  0  0  0  0
  -21.8335  -30.5326   20.9372 C   0  0  0  0  0  0  0  0  0  0  0  0
  -28.3278  -25.9791   20.9999 C   0  0  0  0  0  0  0  0  0  1  0  0
  -25.1190  -31.5678   24.5384 C   0  0  1  0  0  0  0  0  0  0  0  0
  -21.5653  -30.9176   23.3905 C   0  0  2  0  0  0  0  0  0  0  0  0
  -25.4321  -31.8490   26.0351 C   0  0  0  0  0  0  0  0  0  0  0  0
  -25.5644  -11.0312   19.6880 N   0  0  0  0  0  0  0  0  0  0  0  0
  -28.2939  -22.5115   19.4977 N   0  0  0  0  0  0  0  0  0  0  0  0
  -26.8033  -11.4676   19.4042 N   0  0  0  0  0  0  0  0  0  0  0  0
  -26.7166  -31.9515   22.6878 N   0  0  0  0  0  0  0  0  0  0  0  0
  -27.4590  -15.2216   19.6751 N   0  0  0  0  0  0  0  0  0  0  0  0
  -28.8074  -17.1930   19.5332 N   0  0  0  0  0  0  0  0  0  0  0  0
  -29.0716  -10.7904   19.3212 N   0  0  0  0  0  0  0  0  0  0  0  0
  -26.9212   -7.0639   20.6941 N   0  0  0  0  0  0  0  0  0  0  0  0
  -29.5327  -34.1347   22.5052 N   0  0  0  0  0  0  0  0  0  0  0  0
  -23.7026  -31.6491   24.1986 N   0  0  0  0  0  0  0  0  0  0  0  0
  -21.0771  -30.2084   22.1740 N   0  3  0  0  0  0  0  0  0  0  0  0
  -28.9760   -7.9499   20.1925 O   0  0  0  0  0  0  0  0  0  0  0  0
  -29.3035  -31.9415   23.2534 O   0  0  0  0  0  0  0  0  0  0  0  0
  -25.6046  -33.7331   23.7004 O   0  0  0  0  0  0  0  0  0  0  0  0
  -23.5113  -29.4858   23.3860 O   0  0  0  0  0  0  0  0  0  0  0  0
  -29.7566  -15.1122   19.8399 O   0  0  0  0  0  0  0  0  0  0  0  0
  -21.4378   -6.5448   21.5299 O   0  0  0  0  0  0  0  0  0  0  0  0
  -28.7302  -26.8106   19.9177 O   0  0  0  0  0  0  0  0  0  1  0  0
  -29.6612  -20.6783   19.8388 O   0  0  0  0  0  0  0  0  0  0  0  0
  -22.0133   -3.3855   26.0123 F   0  0  0  0  0  0  0  0  0  0  0  0
  -19.7526   -6.8428   23.7010 F   0  0  0  0  0  0  0  0  0  0  0  0
  1  2  1  0  0  0  0
  1  5  2  0  0  0  0
  2  6  2  0  0  0  0
  3  8  2  0  0  0  0
  3 16  1  0  0  0  0
  4  9  1  0  0  0  0
  4 16  2  0  0  0  0
  5 18  1  0  0  0  0
  6 20  1  0  0  0  0
  7 10  2  0  0  0  0
  7 19  1  0  0  0  0
  8 24  1  0  0  0  0
  9 24  2  0  0  0  0
 10 25  1  0  0  0  0
 11 12  2  0  0  0  0
 11 26  1  0  0  0  0
 12 27  1  0  0  0  0
 13 21  1  0  0  0  0
 13 25  2  0  0  0  0
 14 22  1  0  0  0  0
 14 23  2  0  0  0  0
 15 27  2  0  0  0  0
 15 28  1  0  0  0  0
 16 29  1  0  0  0  0
 17 29  1  0  0  0  0
 17 32  2  0  0  0  0
 17 33  1  0  0  0  0
 18 20  2  0  0  0  0
 18 38  1  0  0  0  0
 19 21  2  0  0  0  0
 19 39  1  0  0  0  0
 20 51  1  0  0  0  0
 21 40  1  0  0  0  0
 22 30  2  0  0  0  0
 22 62  1  0  0  0  0
 23 31  1  0  0  0  0
 23 55  1  0  0  0  0
 24 82  1  0  0  0  0
 25 83  1  0  0  0  0
 26 28  2  0  0  0  0
 26 82  1  0  0  0  0
 27 85  1  0  0  0  0
 28 86  1  0  0  0  0
 29 66  2  0  0  0  0
 30 56  1  0  0  0  0
 30 67  1  0  0  0  0
 31 67  2  0  0  0  0
 31 84  1  0  0  0  0
 32 68  1  0  0  0  0
 32 72  1  0  0  0  0
 33 73  1  0  0  0  0
 33 77  2  0  0  0  0
 34 52  1  0  0  0  0
 34 74  1  0  0  0  0
 34 78  2  0  0  0  0
 35 63  1  0  0  0  0
 35 69  1  0  0  0  0
 35 79  2  0  0  0  0
 36 64  1  0  0  0  0
 36 75  1  0  0  0  0
 36 80  2  0  0  0  0
 37 70  1  0  0  0  0
 37 71  1  0  0  0  0
 37 81  2  0  0  0  0
 38 41  1  0  0  0  0
 39 52  1  0  0  0  0
 40 69  1  0  0  0  0
 41 43  1  0  0  0  0
 42 44  1  0  0  0  0
 42 47  1  0  0  0  0
 43 51  1  0  0  0  0
 44 53  1  0  0  0  0
 45 48  1  0  0  0  0
 45 54  1  0  0  0  0
 46 49  1  0  0  0  0
 46 54  1  0  0  0  0
 47 70  1  0  0  0  0
 48 71  1  0  0  0  0
 49 71  1  0  0  0  0
 50 53  1  0  0  0  0
 50 70  1  0  0  0  0
 51 74  1  0  0  0  0
 52 69  1  0  0  0  0
 53 68  1  0  0  0  0
 54 84  1  0  0  0  0
 57 64  1  0  0  0  0
 58 65  1  0  0  0  0
 59 65  1  0  0  0  0
 60 65  1  0  0  0  0
 61 76  1  0  0  0  0
 62 83  1  0  0  0  0
 63 65  1  0  0  0  0
 63 75  1  0  0  0  0
 64 76  1  0  0  0  0
 66 68  1  0  0  0  0
M  CHG  1  76   1
M  ISO  4  37 100  62 101  71 100  83 101
M  END
> <Batch ID>
0154

> <Smiles>
CNC(C)C(=O)NC(C(=O)N1Cc2cc([101O:1][101CH2:1]c3cc(C)c(OC4CC[100N:0]([100C:0](=O)N5CCCC(n6nc(-c7ccc(Oc8ccc(F)cc8F)cc7)c(C(N)=O)c6N)C5)CC4)nc3C)ccc2CC1C(=O)NC1CCCc2ccccc21)C(C)(C)C

> <Shape>
0.268

> <Color>
0.107

> <Negative vol penalty>
0.000

$$$$

  -OEChem-04052321513D

 87 96  0     1  0  0  0  0  0999 V2000
  -28.8098  -36.6289   24.1352 C   0  0  0  0  0  0  0  0  0  0  0  0
  -29.0653  -35.8244   23.0293 C   0  0  0  0  0  0  0  0  0  0  0  0
  -24.1170   -9.2191   19.7221 C   0  0  0  0  0  0  0  0  0  0  0  0
  -24.2152   -9.7008   22.0876 C   0  0  0  0  0  0  0  0  0  0  0  0
  -28.1998  -36.0856   25.2650 C   0  0  0  0  0  0  0  0  0  0  0  0
  -28.7120  -34.4757   23.0531 C   0  0  0  0  0  0  0  0  0  0  0  0
  -26.4497  -29.2204   18.7427 C   0  0  0  0  0  0  0  0  0  0  0  0
  -23.0152   -8.3911   19.9365 C   0  0  0  0  0  0  0  0  0  0  0  0
  -23.1134   -8.8728   22.3020 C   0  0  0  0  0  0  0  0  0  0  0  0
  -26.7673  -27.9118   18.3815 C   0  0  0  0  0  0  0  0  0  0  0  0
  -22.4987   -5.5572   22.5460 C   0  0  0  0  0  0  0  0  0  0  0  0
  -22.5573   -4.6645   23.6162 C   0  0  0  0  0  0  0  0  0  0  0  0
  -25.6467  -27.1007   20.3577 C   0  0  0  0  0  0  0  0  0  0  0  0
  -23.4354  -19.2743   16.1260 C   0  0  0  0  0  0  0  0  0  0  0  0
  -24.6743  -19.0101   18.1832 C   0  0  0  0  0  0  0  0  0  0  0  0
  -20.6094   -5.7076   24.5931 C   0  0  0  0  0  0  0  0  0  0  0  0
  -24.7171   -9.8739   20.7977 C   0  0  0  0  0  0  0  0  0  0  0  0
  -27.0991  -10.3638   20.0272 C   0  0  0  0  0  0  0  0  0  0  0  0
  -27.8300  -34.7318   25.2990 C   0  0  0  0  0  0  0  0  0  0  0  0
  -25.7364  -29.4802   19.9217 C   0  0  0  0  0  0  0  0  0  0  0  0
  -28.0976  -33.9134   24.1850 C   0  0  0  0  0  0  0  0  0  0  0  0
  -25.3191  -28.4133   20.7303 C   0  0  0  0  0  0  0  0  0  0  0  0
  -23.7610  -17.9677   15.7621 C   0  0  0  0  0  0  0  0  0  0  0  0
  -24.5432  -17.1823   16.6088 C   0  0  0  0  0  0  0  0  0  0  0  0
  -24.9999  -17.7034   17.8194 C   0  0  0  0  0  0  0  0  0  0  0  0
  -22.5133   -8.2179   21.2264 C   0  0  0  0  0  0  0  0  0  0  0  0
  -26.3683  -26.8519   19.1905 C   0  0  0  0  0  0  0  0  0  0  0  0
  -21.4954   -6.5252   22.4994 C   0  0  0  0  0  0  0  0  0  0  0  0
  -23.8921  -19.7955   17.3365 C   0  0  0  0  0  0  0  0  0  0  0  0
  -21.6127   -4.7396   24.6397 C   0  0  0  0  0  0  0  0  0  0  0  0
  -20.5507   -6.6004   23.5230 C   0  0  0  0  0  0  0  0  0  0  0  0
  -25.8556  -10.7290   20.5770 C   0  0  0  0  0  0  0  0  0  0  0  0
  -27.8308  -11.5262   20.0309 C   0  0  0  0  0  0  0  0  0  0  0  0
  -27.5522   -9.0880   19.5554 C   0  0  0  0  0  0  0  0  0  0  0  0
  -26.3432  -31.0705   22.6062 C   0  0  0  0  0  0  0  0  0  0  0  0
  -23.2339  -30.4025   23.2450 C   0  0  0  0  0  0  0  0  0  0  0  0
  -21.0164  -27.5808   22.8729 C   0  0  0  0  0  0  0  0  0  0  0  0
  -26.3138  -17.3049   19.9315 C   0  0  0  0  0  0  0  0  0  0  0  0
  -27.2159  -34.1785   26.5605 C   0  0  0  0  0  0  0  0  0  0  0  0
  -25.3785  -30.8956   20.2835 C   0  0  0  0  0  0  0  0  0  0  0  0
  -24.5337  -28.6375   21.9958 C   0  0  0  0  0  0  0  0  0  0  0  0
  -26.5326  -32.8277   26.3636 C   0  0  0  0  0  0  0  0  0  0  0  0
  -28.2790  -15.6615   22.4042 C   0  0  0  0  0  0  0  0  0  0  0  0
  -27.4280  -31.8883   25.5620 C   0  0  0  0  0  0  0  0  0  0  0  0
  -27.9985  -14.1766   22.1623 C   0  0  0  0  0  0  0  0  0  0  0  0
  -25.6278  -24.1938   17.1846 C   0  0  0  0  0  0  0  0  0  0  0  0
  -25.6916  -23.5118   19.6160 C   0  0  0  0  0  0  0  0  0  0  0  0
  -24.5596  -23.1406   16.9167 C   0  0  0  0  0  0  0  0  0  0  0  0
  -24.6227  -22.4592   19.3483 C   0  0  0  0  0  0  0  0  0  0  0  0
  -27.0351  -16.5183   22.1756 C   0  0  0  0  0  0  0  0  0  0  0  0
  -26.0978  -14.8402   20.6345 C   0  0  0  0  0  0  0  0  0  0  0  0
  -27.7066  -32.4517   24.1632 C   0  0  1  0  0  0  0  0  0  0  0  0
  -25.0941  -31.0784   21.7712 C   0  0  1  0  0  0  0  0  0  0  0  0
  -27.3376  -13.9443   20.7894 C   0  0  2  0  0  0  0  0  0  0  0  0
  -25.5910  -24.6779   18.6330 C   0  0  0  0  0  0  0  0  0  1  0  0
  -24.6597  -21.9748   17.9001 C   0  0  0  0  0  0  0  0  0  0  0  0
  -23.2585  -17.4339   14.4606 C   0  0  0  0  0  0  0  0  0  0  0  0
  -26.3199  -15.6607   15.7062 C   0  0  0  0  0  0  0  0  0  0  0  0
  -18.5235  -27.4896   22.6007 C   0  0  0  0  0  0  0  0  0  0  0  0
  -23.2060  -30.0582   26.2766 C   0  0  0  0  0  0  0  0  0  0  0  0
  -21.3221  -28.4318   26.0048 C   0  0  0  0  0  0  0  0  0  0  0  0
  -21.0319  -30.8045   25.2915 C   0  0  0  0  0  0  0  0  0  0  0  0
  -21.2302  -26.0050   20.3768 C   0  0  0  0  0  0  0  0  0  0  0  0
  -24.8877  -15.7802   16.2146 C   0  0  0  0  0  0  0  0  0  0  0  0
  -22.5010  -29.2692   23.9215 C   0  0  1  0  0  0  0  0  0  0  0  0
  -19.8672  -27.4516   21.8896 C   0  0  2  0  0  0  0  0  0  0  0  0
  -22.0400  -29.6367   25.3602 C   0  0  0  0  0  0  0  0  0  0  0  0
  -25.7971  -12.0221   20.9061 N   0  0  0  0  0  0  0  0  0  0  0  0
  -27.0130  -12.4797   20.5622 N   0  0  0  0  0  0  0  0  0  0  0  0
  -24.2137  -30.0397   22.3100 N   0  0  0  0  0  0  0  0  0  0  0  0
  -26.4658  -16.2479   20.8536 N   0  0  0  0  0  0  0  0  0  0  0  0
  -29.0874  -11.8154   19.6314 N   0  0  0  0  0  0  0  0  0  0  0  0
  -26.6724   -7.9992   19.6243 N   0  0  0  0  0  0  0  0  0  0  0  0
  -25.7926  -16.9219   18.6961 N   0  0  0  0  0  0  0  0  0  0  0  0
  -26.5644  -32.2457   23.2987 N   0  0  0  0  0  0  0  0  0  0  0  0
  -21.4144  -28.8923   23.0239 N   0  0  0  0  0  0  0  0  0  0  0  0
  -19.9670  -26.1662   21.1420 N   0  3  0  0  0  0  0  0  0  0  0  0
  -28.7088   -8.9149   19.1017 O   0  0  0  0  0  0  0  0  0  0  0  0
  -27.0529  -30.0716   22.6223 O   0  0  0  0  0  0  0  0  0  0  0  0
  -22.9426  -31.5667   23.5302 O   0  0  0  0  0  0  0  0  0  0  0  0
  -21.5092  -26.6152   23.4521 O   0  0  0  0  0  0  0  0  0  0  0  0
  -26.6487  -18.4598   20.2073 O   0  0  0  0  0  0  0  0  0  0  0  0
  -21.4380   -7.4102   21.4359 O   0  0  0  0  0  0  0  0  0  0  0  0
  -26.6776  -25.5737   18.8406 O   0  0  0  0  0  0  0  0  0  1  0  0
  -23.5731  -21.0789   17.6927 O   0  0  0  0  0  0  0  0  0  0  0  0
  -21.6682   -3.8813   25.6665 F   0  0  0  0  0  0  0  0  0  0  0  0
  -19.5839   -7.5274   23.4831 F   0  0  0  0  0  0  0  0  0  0  0  0
  1  2  1  0  0  0  0
  1  5  2  0  0  0  0
  2  6  2  0  0  0  0
  3  8  2  0  0  0  0
  3 17  1  0  0  0  0
  4  9  1  0  0  0  0
  4 17  2  0  0  0  0
  5 19  1  0  0  0  0
  6 21  1  0  0  0  0
  7 10  2  0  0  0  0
  7 20  1  0  0  0  0
  8 26  1  0  0  0  0
  9 26  2  0  0  0  0
 10 27  1  0  0  0  0
 11 12  2  0  0  0  0
 11 28  1  0  0  0  0
 12 30  1  0  0  0  0
 13 22  1  0  0  0  0
 13 27  2  0  0  0  0
 14 23  2  0  0  0  0
 14 29  1  0  0  0  0
 15 25  1  0  0  0  0
 15 29  2  0  0  0  0
 16 30  2  0  0  0  0
 16 31  1  0  0  0  0
 17 32  1  0  0  0  0
 18 32  1  0  0  0  0
 18 33  2  0  0  0  0
 18 34  1  0  0  0  0
 19 21  2  0  0  0  0
 19 39  1  0  0  0  0
 20 22  2  0  0  0  0
 20 40  1  0  0  0  0
 21 52  1  0  0  0  0
 22 41  1  0  0  0  0
 23 24  1  0  0  0  0
 23 57  1  0  0  0  0
 24 25  2  0  0  0  0
 24 64  1  0  0  0  0
 25 74  1  0  0  0  0
 26 83  1  0  0  0  0
 27 84  1  0  0  0  0
 28 31  2  0  0  0  0
 28 83  1  0  0  0  0
 29 85  1  0  0  0  0
 30 86  1  0  0  0  0
 31 87  1  0  0  0  0
 32 68  2  0  0  0  0
 33 69  1  0  0  0  0
 33 72  1  0  0  0  0
 34 73  1  0  0  0  0
 34 78  2  0  0  0  0
 35 53  1  0  0  0  0
 35 75  1  0  0  0  0
 35 79  2  0  0  0  0
 36 65  1  0  0  0  0
 36 70  1  0  0  0  0
 36 80  2  0  0  0  0
 37 66  1  0  0  0  0
 37 76  1  0  0  0  0
 37 81  2  0  0  0  0
 38 71  1  0  0  0  0
 38 74  1  0  0  0  0
 38 82  2  0  0  0  0
 39 42  1  0  0  0  0
 40 53  1  0  0  0  0
 41 70  1  0  0  0  0
 42 44  1  0  0  0  0
 43 45  1  0  0  0  0
 43 50  1  0  0  0  0
 44 52  1  0  0  0  0
 45 54  1  0  0  0  0
 46 48  1  0  0  0  0
 46 55  1  0  0  0  0
 47 49  1  0  0  0  0
 47 55  1  0  0  0  0
 48 56  1  0  0  0  0
 49 56  1  0  0  0  0
 50 71  1  0  0  0  0
 51 54  1  0  0  0  0
 51 71  1  0  0  0  0
 52 75  1  0  0  0  0
 53 70  1  0  0  0  0
 54 69  1  0  0  0  0
 55 84  1  0  0  0  0
 56 85  1  0  0  0  0
 58 64  1  0  0  0  0
 59 66  1  0  0  0  0
 60 67  1  0  0  0  0
 61 67  1  0  0  0  0
 62 67  1  0  0  0  0
 63 77  1  0  0  0  0
 65 67  1  0  0  0  0
 65 76  1  0  0  0  0
 66 77  1  0  0  0  0
 68 69  1  0  0  0  0
M  CHG  1  77   1
M  ISO  4  38 100  55 101  74 100  84 101
M  END
> <Batch ID>
0154

> <Smiles>
CCc1c(C)cc(OC2CC[101CH:1]([101O:1]c3ccc4c(c3)CN(C(=O)C(NC(=O)C(C)NC)C(C)(C)C)C(C(=O)NC3CCCc5ccccc53)C4)CC2)cc1[100NH:0][100C:0](=O)N1CCCC(n2nc(-c3ccc(Oc4ccc(F)cc4F)cc3)c(C(N)=O)c2N)C1

> <Shape>
0.267

> <Color>
0.111

> <Negative vol penalty>
0.000

$$$$

  -OEChem-04052321513D

 88 97  0     1  0  0  0  0  0999 V2000
  -27.6886  -35.2291   27.1026 C   0  0  0  0  0  0  0  0  0  0  0  0
  -27.7747  -33.8410   27.1368 C   0  0  0  0  0  0  0  0  0  0  0  0
  -22.7217  -10.9646   22.2970 C   0  0  0  0  0  0  0  0  0  0  0  0
  -23.5204   -9.3141   20.7239 C   0  0  0  0  0  0  0  0  0  0  0  0
  -26.9498  -35.8561   26.1001 C   0  0  0  0  0  0  0  0  0  0  0  0
  -27.1211  -33.0790   26.1690 C   0  0  0  0  0  0  0  0  0  0  0  0
  -30.7765  -28.5540   21.9201 C   0  0  0  0  0  0  0  0  0  0  0  0
  -21.9323   -9.9944   22.9143 C   0  0  0  0  0  0  0  0  0  0  0  0
  -22.7310   -8.3438   21.3412 C   0  0  0  0  0  0  0  0  0  0  0  0
  -31.3754  -27.5117   21.2122 C   0  0  0  0  0  0  0  0  0  0  0  0
  -22.8683   -6.4186   24.1152 C   0  0  0  0  0  0  0  0  0  0  0  0
  -23.4517   -5.1779   24.3720 C   0  0  0  0  0  0  0  0  0  0  0  0
  -29.3467  -19.7710   20.2583 C   0  0  0  0  0  0  0  0  0  0  0  0
  -29.2801  -27.0515   20.0961 C   0  0  0  0  0  0  0  0  0  0  0  0
  -21.7877   -4.1084   22.9847 C   0  0  0  0  0  0  0  0  0  0  0  0
  -23.5157  -10.6245   21.2017 C   0  0  0  0  0  0  0  0  0  0  0  0
  -23.8923  -12.8167   19.9526 C   0  0  0  0  0  0  0  0  0  0  0  0
  -26.2948  -35.1018   25.1139 C   0  0  0  0  0  0  0  0  0  0  0  0
  -29.4294  -28.8592   21.7071 C   0  0  0  0  0  0  0  0  0  0  0  0
  -26.3718  -33.6965   25.1531 C   0  0  0  0  0  0  0  0  0  0  0  0
  -30.6736  -20.0703   19.9700 C   0  0  0  0  0  0  0  0  0  0  0  0
  -28.6780  -28.1024   20.7931 C   0  0  0  0  0  0  0  0  0  0  0  0
  -28.9527  -18.4445   20.3939 C   0  0  0  0  0  0  0  0  0  0  0  0
  -21.9370   -8.6839   22.4364 C   0  0  0  0  0  0  0  0  0  0  0  0
  -30.6290  -26.7622   20.3026 C   0  0  0  0  0  0  0  0  0  0  0  0
  -21.7446   -6.5042   23.2932 C   0  0  0  0  0  0  0  0  0  0  0  0
  -22.9114   -4.0229   23.8067 C   0  0  0  0  0  0  0  0  0  0  0  0
  -21.2043   -5.3492   22.7279 C   0  0  0  0  0  0  0  0  0  0  0  0
  -24.3309  -11.6265   20.5633 C   0  0  0  0  0  0  0  0  0  0  0  0
  -29.9164  -17.4620   20.2331 C   0  0  0  0  0  0  0  0  0  0  0  0
  -31.5603  -19.0150   19.8284 C   0  0  0  0  0  0  0  0  0  0  0  0
  -25.0432  -13.4154   19.5016 C   0  0  0  0  0  0  0  0  0  0  0  0
  -22.5635  -13.3347   19.8063 C   0  0  0  0  0  0  0  0  0  0  0  0
  -26.5151  -31.0593   22.5690 C   0  0  0  0  0  0  0  0  0  0  0  0
  -26.4172  -30.5975   19.5379 C   0  0  0  0  0  0  0  0  0  0  0  0
  -25.9516  -30.8470   16.1677 C   0  0  0  0  0  0  0  0  0  0  0  0
  -30.3353  -14.9779   20.2466 C   0  0  0  0  0  0  0  0  0  0  0  0
  -25.4692  -35.8224   24.0777 C   0  0  0  0  0  0  0  0  0  0  0  0
  -28.7272  -29.9334   22.4925 C   0  0  0  0  0  0  0  0  0  0  0  0
  -27.2231  -28.4443   20.6218 C   0  0  0  0  0  0  0  0  0  0  0  0
  -25.1153  -34.9568   22.8711 C   0  0  0  0  0  0  0  0  0  0  0  0
  -29.7690  -11.6337   19.1638 C   0  0  0  0  0  0  0  0  0  0  0  0
  -30.9273  -22.3097   21.1241 C   0  0  0  0  0  0  0  0  0  0  0  0
  -30.4106  -22.2094   18.6418 C   0  0  0  0  0  0  0  0  0  0  0  0
  -24.6144  -33.5890   23.3239 C   0  0  0  0  0  0  0  0  0  0  0  0
  -28.2676  -11.4316   19.3812 C   0  0  0  0  0  0  0  0  0  0  0  0
  -31.3826  -23.7579   20.9643 C   0  0  0  0  0  0  0  0  0  0  0  0
  -30.8691  -23.6580   18.4948 C   0  0  0  0  0  0  0  0  0  0  0  0
  -30.3904  -12.4936   20.2629 C   0  0  0  0  0  0  0  0  0  0  0  0
  -28.2255  -13.5814   20.7092 C   0  0  0  0  0  0  0  0  0  0  0  0
  -31.1160  -21.5144   19.8200 C   0  0  0  0  0  0  0  0  0  0  0  0
  -25.6973  -32.8363   24.1065 C   0  0  1  0  0  0  0  0  0  0  0  0
  -27.6573  -30.6780   21.6738 C   0  0  1  0  0  0  0  0  0  0  0  0
  -27.5428  -12.7754   19.5921 C   0  0  2  0  0  0  0  0  0  0  0  0
  -30.6839  -24.4430   19.7912 C   0  0  0  0  0  0  0  0  0  1  0  0
  -26.5666  -18.5983   19.5962 C   0  0  0  0  0  0  0  0  0  0  0  0
  -27.0801  -18.6976   22.0623 C   0  0  0  0  0  0  0  0  0  0  0  0
  -24.1693  -31.2637   14.4509 C   0  0  0  0  0  0  0  0  0  0  0  0
  -25.3686  -27.7620   19.9438 C   0  0  0  0  0  0  0  0  0  0  0  0
  -24.3191  -27.9014   17.6750 C   0  0  0  0  0  0  0  0  0  0  0  0
  -23.6031  -29.4708   19.4770 C   0  0  0  0  0  0  0  0  0  0  0  0
  -27.3222  -33.2704   15.1639 C   0  0  0  0  0  0  0  0  0  0  0  0
  -33.7321  -18.1402   19.4115 C   0  0  0  0  0  0  0  0  0  0  0  0
  -27.5291  -18.1275   20.7032 C   0  0  0  0  0  0  0  0  0  0  0  0
  -25.8714  -29.7706   18.4013 C   0  0  1  0  0  0  0  0  0  0  0  0
  -25.2454  -31.8920   15.3228 C   0  0  2  0  0  0  0  0  0  0  0  0
  -24.8185  -28.7303   18.8775 C   0  0  0  0  0  0  0  0  0  0  0  0
  -25.6569  -11.4763   20.5069 N   0  0  0  0  0  0  0  0  0  0  0  0
  -31.2147  -17.7140   19.9528 N   0  0  0  0  0  0  0  0  0  0  0  0
  -26.0614  -12.5799   19.8554 N   0  0  0  0  0  0  0  0  0  0  0  0
  -27.0523  -29.9049   20.5759 N   0  0  0  0  0  0  0  0  0  0  0  0
  -29.6545  -13.7521   20.4029 N   0  0  0  0  0  0  0  0  0  0  0  0
  -25.2734  -14.5699   18.8407 N   0  0  0  0  0  0  0  0  0  0  0  0
  -21.8315  -12.9834   18.6639 N   0  0  0  0  0  0  0  0  0  0  0  0
  -29.5259  -16.1068   20.3694 N   0  0  0  0  0  0  0  0  0  0  0  0
  -26.6783  -32.2770   23.2015 N   0  0  0  0  0  0  0  0  0  0  0  0
  -25.3703  -30.7177   17.4113 N   0  0  0  0  0  0  0  0  0  0  0  0
  -26.2212  -32.5877   14.4369 N   0  3  0  0  0  0  0  0  0  0  0  0
  -22.0467  -14.1001   20.6552 O   0  0  0  0  0  0  0  0  0  0  0  0
  -25.5549  -30.3057   22.6776 O   0  0  0  0  0  0  0  0  0  0  0  0
  -26.2804  -31.8238   19.5114 O   0  0  0  0  0  0  0  0  0  0  0  0
  -26.9197  -30.2067   15.7634 O   0  0  0  0  0  0  0  0  0  0  0  0
  -31.5419  -15.0224   19.9935 O   0  0  0  0  0  0  0  0  0  0  0  0
  -21.1670   -7.7368   23.0387 O   0  0  0  0  0  0  0  0  0  0  0  0
  -31.2211  -25.7490   19.6115 O   0  0  0  0  0  0  0  0  0  1  0  0
  -32.8768  -19.2691   19.5436 O   0  0  0  0  0  0  0  0  0  0  0  0
  -23.4727   -2.8317   24.0521 F   0  0  0  0  0  0  0  0  0  0  0  0
  -20.1256   -5.4252   21.9365 F   0  0  0  0  0  0  0  0  0  0  0  0
  1  2  1  0  0  0  0
  1  5  2  0  0  0  0
  2  6  2  0  0  0  0
  3  8  2  0  0  0  0
  3 16  1  0  0  0  0
  4  9  1  0  0  0  0
  4 16  2  0  0  0  0
  5 18  1  0  0  0  0
  6 20  1  0  0  0  0
  7 10  2  0  0  0  0
  7 19  1  0  0  0  0
  8 24  1  0  0  0  0
  9 24  2  0  0  0  0
 10 25  1  0  0  0  0
 11 12  2  0  0  0  0
 11 26  1  0  0  0  0
 12 27  1  0  0  0  0
 13 21  1  0  0  0  0
 13 23  2  0  0  0  0
 14 22  1  0  0  0  0
 14 25  2  0  0  0  0
 15 27  2  0  0  0  0
 15 28  1  0  0  0  0
 16 29  1  0  0  0  0
 17 29  1  0  0  0  0
 17 32  2  0  0  0  0
 17 33  1  0  0  0  0
 18 20  2  0  0  0  0
 18 38  1  0  0  0  0
 19 22  2  0  0  0  0
 19 39  1  0  0  0  0
 20 52  1  0  0  0  0
 21 31  2  0  0  0  0
 21 51  1  0  0  0  0
 22 40  1  0  0  0  0
 23 30  1  0  0  0  0
 23 64  1  0  0  0  0
 24 84  1  0  0  0  0
 25 85  1  0  0  0  0
 26 28  2  0  0  0  0
 26 84  1  0  0  0  0
 27 87  1  0  0  0  0
 28 88  1  0  0  0  0
 29 68  2  0  0  0  0
 30 69  2  0  0  0  0
 30 75  1  0  0  0  0
 31 69  1  0  0  0  0
 31 86  1  0  0  0  0
 32 70  1  0  0  0  0
 32 73  1  0  0  0  0
 33 74  1  0  0  0  0
 33 79  2  0  0  0  0
 34 53  1  0  0  0  0
 34 76  1  0  0  0  0
 34 80  2  0  0  0  0
 35 65  1  0  0  0  0
 35 71  1  0  0  0  0
 35 81  2  0  0  0  0
 36 66  1  0  0  0  0
 36 77  1  0  0  0  0
 36 82  2  0  0  0  0
 37 72  1  0  0  0  0
 37 75  1  0  0  0  0
 37 83  2  0  0  0  0
 38 41  1  0  0  0  0
 39 53  1  0  0  0  0
 40 71  1  0  0  0  0
 41 45  1  0  0  0  0
 42 46  1  0  0  0  0
 42 49  1  0  0  0  0
 43 47  1  0  0  0  0
 43 51  1  0  0  0  0
 44 48  1  0  0  0  0
 44 51  1  0  0  0  0
 45 52  1  0  0  0  0
 46 54  1  0  0  0  0
 47 55  1  0  0  0  0
 48 55  1  0  0  0  0
 49 72  1  0  0  0  0
 50 54  1  0  0  0  0
 50 72  1  0  0  0  0
 52 76  1  0  0  0  0
 53 71  1  0  0  0  0
 54 70  1  0  0  0  0
 55 85  1  0  0  0  0
 56 64  1  0  0  0  0
 57 64  1  0  0  0  0
 58 66  1  0  0  0  0
 59 67  1  0  0  0  0
 60 67  1  0  0  0  0
 61 67  1  0  0  0  0
 62 78  1  0  0  0  0
 63 86  1  0  0  0  0
 65 67  1  0  0  0  0
 65 77  1  0  0  0  0
 66 78  1  0  0  0  0
 68 70  1  0  0  0  0
M  CHG  1  78   1
M  ISO  4  37 100  55 101  75 100  85 101
M  END
> <Batch ID>
0154

> <Smiles>
CNC(C)C(=O)NC(C(=O)N1Cc2cc([101O:1][101CH:1]3CCC(c4cc(C(C)C)c([100NH:0][100C:0](=O)N5CCCC(n6nc(-c7ccc(Oc8ccc(F)cc8F)cc7)c(C(N)=O)c6N)C5)nc4OC)CC3)ccc2CC1C(=O)NC1CCCc2ccccc21)C(C)(C)C

> <Shape>
0.338

> <Color>
0.122

> <Negative vol penalty>
0.000

$$$$

  -OEChem-04052321513D

 88 97  0     1  0  0  0  0  0999 V2000
  -23.4880   -7.9541   21.1932 C   0  0  0  0  0  0  0  0  0  0  0  0
  -24.3836   -9.0183   21.1613 C   0  0  0  0  0  0  0  0  0  0  0  0
  -22.9428  -28.4693   22.3595 C   0  0  0  0  0  0  0  0  0  0  0  0
  -24.9843  -29.2815   21.3547 C   0  0  0  0  0  0  0  0  0  0  0  0
  -22.1213   -8.1902   21.0508 C   0  0  0  0  0  0  0  0  0  0  0  0
  -23.9130  -10.3191   20.9858 C   0  0  0  0  0  0  0  0  0  0  0  0
  -26.0884  -13.6161   24.1547 C   0  0  0  0  0  0  0  0  0  0  0  0
  -22.7967  -29.6781   23.0400 C   0  0  0  0  0  0  0  0  0  0  0  0
  -24.8383  -30.4903   22.0352 C   0  0  0  0  0  0  0  0  0  0  0  0
  -27.3763  -14.0473   23.8396 C   0  0  0  0  0  0  0  0  0  0  0  0
  -25.1951  -33.6556   23.7856 C   0  0  0  0  0  0  0  0  0  0  0  0
  -26.3236  -34.1900   24.4073 C   0  0  0  0  0  0  0  0  0  0  0  0
  -31.0232  -15.8364   17.4632 C   0  0  0  0  0  0  0  0  0  0  0  0
  -26.4645  -16.0876   22.9314 C   0  0  0  0  0  0  0  0  0  0  0  0
  -30.3251  -18.1246   17.8004 C   0  0  0  0  0  0  0  0  0  0  0  0
  -26.5063  -32.2091   25.7783 C   0  0  0  0  0  0  0  0  0  0  0  0
  -24.0366  -28.2710   21.5169 C   0  0  0  0  0  0  0  0  0  0  0  0
  -30.4672  -16.6152   19.6815 C   0  0  0  0  0  0  0  0  0  0  0  0
  -23.6892  -26.6989   19.5381 C   0  0  0  0  0  0  0  0  0  0  0  0
  -21.6329   -9.4956   20.8831 C   0  0  0  0  0  0  0  0  0  0  0  0
  -24.9762  -14.4141   23.8502 C   0  0  0  0  0  0  0  0  0  0  0  0
  -22.5386  -10.5727   20.8396 C   0  0  0  0  0  0  0  0  0  0  0  0
  -30.8853  -15.5929   18.8296 C   0  0  0  0  0  0  0  0  0  0  0  0
  -25.1638  -15.6655   23.2460 C   0  0  0  0  0  0  0  0  0  0  0  0
  -23.7445  -30.6886   22.8778 C   0  0  0  0  0  0  0  0  0  0  0  0
  -27.5643  -15.2819   23.2252 C   0  0  0  0  0  0  0  0  0  0  0  0
  -24.7222  -32.3979   24.1603 C   0  0  0  0  0  0  0  0  0  0  0  0
  -30.7431  -17.1022   16.9485 C   0  0  0  0  0  0  0  0  0  0  0  0
  -30.1871  -17.8811   19.1669 C   0  0  0  0  0  0  0  0  0  0  0  0
  -26.9792  -33.4668   25.4037 C   0  0  0  0  0  0  0  0  0  0  0  0
  -25.3778  -31.6747   25.1566 C   0  0  0  0  0  0  0  0  0  0  0  0
  -24.1883  -27.0223   20.8141 C   0  0  0  0  0  0  0  0  0  0  0  0
  -24.1004  -25.4056   19.3262 C   0  0  0  0  0  0  0  0  0  0  0  0
  -30.3178  -16.3634   21.1437 C   0  0  0  0  0  0  0  0  0  0  0  0
  -22.9226  -27.4962   18.6259 C   0  0  0  0  0  0  0  0  0  0  0  0
  -22.4155  -14.0796   21.9969 C   0  0  0  0  0  0  0  0  0  0  0  0
  -21.5420  -16.8893   23.3627 C   0  0  0  0  0  0  0  0  0  0  0  0
  -22.4922  -19.7650   24.9356 C   0  0  0  0  0  0  0  0  0  0  0  0
  -28.6680  -22.3314   21.4576 C   0  0  0  0  0  0  0  0  0  0  0  0
  -20.1512   -9.6965   20.6859 C   0  0  0  0  0  0  0  0  0  0  0  0
  -23.5955  -13.9465   24.2208 C   0  0  0  0  0  0  0  0  0  0  0  0
  -24.0045  -16.5688   22.9166 C   0  0  0  0  0  0  0  0  0  0  0  0
  -19.7016  -11.1424   20.8793 C   0  0  0  0  0  0  0  0  0  0  0  0
  -25.1823  -21.3856   21.6878 C   0  0  0  0  0  0  0  0  0  0  0  0
  -30.4782  -13.0427   18.7603 C   0  0  0  0  0  0  0  0  0  0  0  0
  -30.1409  -13.4973   20.1459 C   0  0  0  0  0  0  0  0  0  0  0  0
  -20.6325  -12.0949   20.1357 C   0  0  0  0  0  0  0  0  0  0  0  0
  -24.4861  -22.7089   21.3644 C   0  0  0  0  0  0  0  0  0  0  0  0
  -26.4426  -21.6124   22.5175 C   0  0  0  0  0  0  0  0  0  0  0  0
  -26.7309  -23.8728   21.5788 C   0  0  0  0  0  0  0  0  0  0  0  0
  -31.1913  -14.2280   19.3534 C   0  0  0  0  0  0  0  0  0  0  0  0
  -22.0646  -12.0005   20.6759 C   0  0  1  0  0  0  0  0  0  0  0  0
  -22.4977  -14.6144   23.3987 C   0  0  1  0  0  0  0  0  0  0  0  0
  -25.4616  -23.7130   20.7224 C   0  0  2  0  0  0  0  0  0  0  0  0
  -21.5571  -21.8863   25.8963 C   0  0  0  0  0  0  0  0  0  0  0  0
  -21.1773  -18.0017   20.5450 C   0  0  0  0  0  0  0  0  0  0  0  0
  -21.1830  -20.3041   21.5284 C   0  0  0  0  0  0  0  0  0  0  0  0
  -19.4029  -18.6794   22.1719 C   0  0  0  0  0  0  0  0  0  0  0  0
  -23.4939  -19.1168   27.6440 C   0  0  0  0  0  0  0  0  0  0  0  0
  -30.5741  -18.6567   15.1566 C   0  0  0  0  0  0  0  0  0  0  0  0
  -28.9567  -16.5600   21.7818 C   0  0  0  0  0  0  0  0  0  1  0  0
  -30.5190  -20.6797   21.4093 C   0  0  0  0  0  0  0  0  0  0  0  0
  -30.5968  -20.0609   20.0251 C   0  0  0  0  0  0  0  0  0  0  0  0
  -21.7552  -18.3479   23.0374 C   0  0  1  0  0  0  0  0  0  0  0  0
  -21.9678  -20.4507   26.1843 C   0  0  2  0  0  0  0  0  0  0  0  0
  -20.9015  -18.8156   21.8250 C   0  0  0  0  0  0  0  0  0  0  0  0
  -24.8647  -26.0156   21.3736 N   0  0  0  0  0  0  0  0  0  0  0  0
  -24.7935  -25.0469   20.4448 N   0  0  0  0  0  0  0  0  0  0  0  0
  -22.6735  -16.0643   23.2929 N   0  0  0  0  0  0  0  0  0  0  0  0
  -27.3369  -22.5633   21.8421 N   0  0  0  0  0  0  0  0  0  0  0  0
  -23.9331  -24.5517   18.2942 N   0  0  0  0  0  0  0  0  0  0  0  0
  -22.5863  -28.8040   19.0014 N   0  0  0  0  0  0  0  0  0  0  0  0
  -22.1814  -12.7196   21.9264 N   0  0  0  0  0  0  0  0  0  0  0  0
  -21.4953  -19.0833   24.2703 N   0  0  0  0  0  0  0  0  0  0  0  0
  -29.1683  -21.0684   21.7492 N   0  0  0  0  0  0  0  0  0  0  0  0
  -23.0141  -20.4651   27.2455 N   0  3  0  0  0  0  0  0  0  0  0  0
  -31.2923  -16.0030   21.8000 O   0  0  0  0  0  0  0  0  0  0  0  0
  -22.5329  -27.0563   17.5177 O   0  0  0  0  0  0  0  0  0  0  0  0
  -22.5528  -14.8446   21.0494 O   0  0  0  0  0  0  0  0  0  0  0  0
  -20.4146  -16.4976   23.6744 O   0  0  0  0  0  0  0  0  0  0  0  0
  -23.6679  -19.8309   24.5834 O   0  0  0  0  0  0  0  0  0  0  0  0
  -29.3584  -23.1855   20.8910 O   0  0  0  0  0  0  0  0  0  0  0  0
  -23.6022  -31.8684   23.5415 O   0  0  0  0  0  0  0  0  0  0  0  0
  -30.8771  -17.3400   15.6150 O   0  0  0  0  0  0  0  0  0  0  0  0
  -28.8202  -15.7048   22.9159 O   0  0  0  0  0  0  0  0  0  1  0  0
  -29.7776  -18.8946   19.9810 O   0  0  0  0  0  0  0  0  0  0  0  0
  -28.0638  -33.9795   25.9995 F   0  0  0  0  0  0  0  0  0  0  0  0
  -24.9289  -30.4655   25.5200 F   0  0  0  0  0  0  0  0  0  0  0  0
  1  2  1  0  0  0  0
  1  5  2  0  0  0  0
  2  6  2  0  0  0  0
  3  8  2  0  0  0  0
  3 17  1  0  0  0  0
  4  9  1  0  0  0  0
  4 17  2  0  0  0  0
  5 20  1  0  0  0  0
  6 22  1  0  0  0  0
  7 10  2  0  0  0  0
  7 21  1  0  0  0  0
  8 25  1  0  0  0  0
  9 25  2  0  0  0  0
 10 26  1  0  0  0  0
 11 12  2  0  0  0  0
 11 27  1  0  0  0  0
 12 30  1  0  0  0  0
 13 23  1  0  0  0  0
 13 28  2  0  0  0  0
 14 24  1  0  0  0  0
 14 26  2  0  0  0  0
 15 28  1  0  0  0  0
 15 29  2  0  0  0  0
 16 30  2  0  0  0  0
 16 31  1  0  0  0  0
 17 32  1  0  0  0  0
 18 23  2  0  0  0  0
 18 29  1  0  0  0  0
 18 34  1  0  0  0  0
 19 32  1  0  0  0  0
 19 33  2  0  0  0  0
 19 35  1  0  0  0  0
 20 22  2  0  0  0  0
 20 40  1  0  0  0  0
 21 24  2  0  0  0  0
 21 41  1  0  0  0  0
 22 52  1  0  0  0  0
 23 51  1  0  0  0  0
 24 42  1  0  0  0  0
 25 83  1  0  0  0  0
 26 85  1  0  0  0  0
 27 31  2  0  0  0  0
 27 83  1  0  0  0  0
 28 84  1  0  0  0  0
 29 86  1  0  0  0  0
 30 87  1  0  0  0  0
 31 88  1  0  0  0  0
 32 67  2  0  0  0  0
 33 68  1  0  0  0  0
 33 71  1  0  0  0  0
 34 61  1  0  0  0  0
 34 77  2  0  0  0  0
 35 72  1  0  0  0  0
 35 78  2  0  0  0  0
 36 53  1  0  0  0  0
 36 73  1  0  0  0  0
 36 79  2  0  0  0  0
 37 64  1  0  0  0  0
 37 69  1  0  0  0  0
 37 80  2  0  0  0  0
 38 65  1  0  0  0  0
 38 74  1  0  0  0  0
 38 81  2  0  0  0  0
 39 70  1  0  0  0  0
 39 75  1  0  0  0  0
 39 82  2  0  0  0  0
 40 43  1  0  0  0  0
 41 53  1  0  0  0  0
 42 69  1  0  0  0  0
 43 47  1  0  0  0  0
 44 48  1  0  0  0  0
 44 49  1  0  0  0  0
 45 46  1  0  0  0  0
 45 51  1  0  0  0  0
 46 51  1  0  0  0  0
 47 52  1  0  0  0  0
 48 54  1  0  0  0  0
 49 70  1  0  0  0  0
 50 54  1  0  0  0  0
 50 70  1  0  0  0  0
 52 73  1  0  0  0  0
 53 69  1  0  0  0  0
 54 68  1  0  0  0  0
 55 65  1  0  0  0  0
 56 66  1  0  0  0  0
 57 66  1  0  0  0  0
 58 66  1  0  0  0  0
 59 76  1  0  0  0  0
 60 84  1  0  0  0  0
 61 85  1  0  0  0  0
 62 63  1  0  0  0  0
 62 75  1  0  0  0  0
 63 86  1  0  0  0  0
 64 66  1  0  0  0  0
 64 74  1  0  0  0  0
 65 76  1  0  0  0  0
 67 68  1  0  0  0  0
M  CHG  1  76   1
M  ISO  4  39 100  61 101  75 100  85 101
M  END
> <Batch ID>
0154

> <Smiles>
CNC(C)C(=O)NC(C(=O)N1Cc2cc([101O:1][101CH2:1]C(=O)c3c(OCC[100NH:0][100C:0](=O)N4CCCC(n5nc(-c6ccc(Oc7ccc(F)cc7F)cc6)c(C(N)=O)c5N)C4)cc(OC)cc3C3CC3)ccc2CC1C(=O)NC1CCCc2ccccc21)C(C)(C)C

> <Shape>
0.210

> <Color>
0.074

> <Negative vol penalty>
0.000

$$$$

  -OEChem-04052321513D

 93102  0     1  0  0  0  0  0999 V2000
  -28.1068  -20.3232   15.4449 C   0  0  0  0  0  0  0  0  0  0  0  0
  -28.8006  -19.8958   16.5725 C   0  0  0  0  0  0  0  0  0  0  0  0
  -23.1937   -9.8125   19.9324 C   0  0  0  0  0  0  0  0  0  0  0  0
  -23.5757   -9.9945   22.3111 C   0  0  0  0  0  0  0  0  0  0  0  0
  -28.5460  -21.4436   14.7408 C   0  0  0  0  0  0  0  0  0  0  0  0
  -29.9347  -20.5879   16.9959 C   0  0  0  0  0  0  0  0  0  0  0  0
  -31.7748  -21.4562   22.7722 C   0  0  0  0  0  0  0  0  0  0  0  0
  -22.4314   -8.6635   20.1427 C   0  0  0  0  0  0  0  0  0  0  0  0
  -22.8134   -8.8455   22.5214 C   0  0  0  0  0  0  0  0  0  0  0  0
  -32.7212  -20.8059   23.5630 C   0  0  0  0  0  0  0  0  0  0  0  0
  -23.2244   -5.5000   22.2571 C   0  0  0  0  0  0  0  0  0  0  0  0
  -23.7274   -4.5404   23.1355 C   0  0  0  0  0  0  0  0  0  0  0  0
  -34.3518  -22.4864   22.9829 C   0  0  0  0  0  0  0  0  0  0  0  0
  -32.0882  -15.6108   24.7711 C   0  0  0  0  0  0  0  0  0  0  0  0
  -21.7725   -4.7945   24.5323 C   0  0  0  0  0  0  0  0  0  0  0  0
  -23.7659  -10.4780   21.0166 C   0  0  0  0  0  0  0  0  0  0  0  0
  -24.0963  -12.9957   20.7719 C   0  0  0  0  0  0  0  0  0  0  0  0
  -29.6804  -22.1554   15.1613 C   0  0  0  0  0  0  0  0  0  0  0  0
  -32.1135  -22.6224   22.0710 C   0  0  0  0  0  0  0  0  0  0  0  0
  -30.3902  -21.7180   16.2959 C   0  0  0  0  0  0  0  0  0  0  0  0
  -33.4072  -23.1510   22.1860 C   0  0  0  0  0  0  0  0  0  0  0  0
  -32.0210  -15.1260   26.0772 C   0  0  0  0  0  0  0  0  0  0  0  0
  -31.4735  -13.8676   26.3268 C   0  0  0  0  0  0  0  0  0  0  0  0
  -30.9931  -13.0940   25.2701 C   0  0  0  0  0  0  0  0  0  0  0  0
  -31.0603  -13.5788   23.9639 C   0  0  0  0  0  0  0  0  0  0  0  0
  -22.2412   -8.1800   21.4372 C   0  0  0  0  0  0  0  0  0  0  0  0
  -34.0107  -21.3193   23.6661 C   0  0  0  0  0  0  0  0  0  0  0  0
  -21.9955   -6.1070   22.5163 C   0  0  0  0  0  0  0  0  0  0  0  0
  -31.6078  -14.8373   23.7144 C   0  0  0  0  0  0  0  0  0  0  0  0
  -23.0014   -4.1876   24.2731 C   0  0  0  0  0  0  0  0  0  0  0  0
  -21.2696   -5.7542   23.6539 C   0  0  0  0  0  0  0  0  0  0  0  0
  -24.5540  -11.6646   20.8000 C   0  0  0  0  0  0  0  0  0  0  0  0
  -25.2248  -13.7418   20.5344 C   0  0  0  0  0  0  0  0  0  0  0  0
  -22.7698  -13.5114   20.9450 C   0  0  0  0  0  0  0  0  0  0  0  0
  -32.2218  -23.4429   19.0020 C   0  0  0  0  0  0  0  0  0  0  0  0
  -32.8665  -26.3824   20.2127 C   0  0  0  0  0  0  0  0  0  0  0  0
  -34.0582  -28.2485   22.8097 C   0  0  0  0  0  0  0  0  0  0  0  0
  -31.0341  -12.7995   21.5685 C   0  0  0  0  0  0  0  0  0  0  0  0
  -30.1444  -23.3326   14.3405 C   0  0  0  0  0  0  0  0  0  0  0  0
  -31.0736  -23.3269   21.2435 C   0  0  0  0  0  0  0  0  0  0  0  0
  -33.8154  -24.4113   21.4695 C   0  0  0  0  0  0  0  0  0  0  0  0
  -31.1378  -24.2316   15.0720 C   0  0  0  0  0  0  0  0  0  0  0  0
  -29.5138  -13.4759   18.4207 C   0  0  0  0  0  0  0  0  0  0  0  0
  -32.2176  -23.3937   15.7494 C   0  0  0  0  0  0  0  0  0  0  0  0
  -28.0270  -13.2152   18.6727 C   0  0  0  0  0  0  0  0  0  0  0  0
  -34.0457  -16.2431   26.9938 C   0  0  0  0  0  0  0  0  0  0  0  0
  -31.7643  -17.2955   27.2666 C   0  0  0  0  0  0  0  0  0  0  0  0
  -30.3994  -12.4937   19.1855 C   0  0  0  0  0  0  0  0  0  0  0  0
  -28.6437  -12.1470   20.8786 C   0  0  0  0  0  0  0  0  0  0  0  0
  -34.5927  -17.1734   28.0689 C   0  0  0  0  0  0  0  0  0  0  0  0
  -32.3287  -18.2175   28.3399 C   0  0  0  0  0  0  0  0  0  0  0  0
  -32.5452  -15.9736   27.1913 C   0  0  0  0  0  0  0  0  0  0  0  0
  -31.6105  -22.4570   16.8008 C   0  0  1  0  0  0  0  0  0  0  0  0
  -31.6746  -24.2222   20.1643 C   0  0  1  0  0  0  0  0  0  0  0  0
  -27.7134  -13.1525   20.1805 C   0  0  2  0  0  0  0  0  0  0  0  0
  -31.4044  -13.3501   27.7288 C   0  0  0  0  0  0  0  0  0  0  0  0
  -30.4097  -11.7421   25.5410 C   0  0  0  0  0  0  0  0  0  0  0  0
  -34.4948  -30.6239   23.4912 C   0  0  0  0  0  0  0  0  0  0  0  0
  -36.2388  -21.1850   29.3480 C   0  0  0  0  0  0  0  0  0  0  0  0
  -35.3420  -26.4363   18.4299 C   0  0  0  0  0  0  0  0  0  0  0  0
  -36.2138  -28.3299   19.8164 C   0  0  0  0  0  0  0  0  0  0  0  0
  -34.0879  -28.5972   18.5391 C   0  0  0  0  0  0  0  0  0  0  0  0
  -32.1856  -28.0596   25.0938 C   0  0  0  0  0  0  0  0  0  0  0  0
  -30.5721  -16.0925   21.9803 C   0  0  0  0  0  0  0  0  0  0  0  0
  -34.3746  -19.4617   29.0335 C   0  0  0  0  0  0  0  0  0  0  0  0
  -35.9445  -21.4971   25.0390 C   0  0  0  0  0  0  0  0  0  1  0  0
  -36.3818  -20.8572   26.3423 C   0  0  0  0  0  0  0  0  0  0  0  0
  -34.1212  -27.1288   20.5969 C   0  0  1  0  0  0  0  0  0  0  0  0
  -33.4992  -29.4745   23.5090 C   0  0  2  0  0  0  0  0  0  0  0  0
  -35.6069  -20.1373   28.4409 C   0  0  1  0  0  0  0  0  0  0  0  0
  -34.9344  -27.5982   19.3577 C   0  0  0  0  0  0  0  0  0  0  0  0
  -25.8705  -11.5676   20.5965 N   0  0  0  0  0  0  0  0  0  0  0  0
  -26.2497  -12.8472   20.4381 N   0  0  0  0  0  0  0  0  0  0  0  0
  -32.7649  -25.0601   20.6677 N   0  0  0  0  0  0  0  0  0  0  0  0
  -30.0482  -12.4914   20.6073 N   0  0  0  0  0  0  0  0  0  0  0  0
  -25.4303  -15.0693   20.4006 N   0  0  0  0  0  0  0  0  0  0  0  0
  -21.7264  -12.6060   21.1811 N   0  0  0  0  0  0  0  0  0  0  0  0
  -30.5757  -12.7980   22.8855 N   0  0  0  0  0  0  0  0  0  0  0  0
  -31.2953  -23.1895   18.0085 N   0  0  0  0  0  0  0  0  0  0  0  0
  -33.6984  -28.2111   21.4792 N   0  0  0  0  0  0  0  0  0  0  0  0
  -33.8039  -18.4693   28.0890 N   0  3  0  0  0  0  0  0  0  0  0  0
  -33.1726  -29.1575   24.9281 N   0  3  0  0  0  0  0  0  0  0  0  0
  -22.5147  -14.7377   20.8756 O   0  0  0  0  0  0  0  0  0  0  0  0
  -33.3978  -23.0984   19.0055 O   0  0  0  0  0  0  0  0  0  0  0  0
  -32.0049  -26.9540   19.5400 O   0  0  0  0  0  0  0  0  0  0  0  0
  -34.7482  -27.4101   23.3853 O   0  0  0  0  0  0  0  0  0  0  0  0
  -32.1927  -13.0731   21.2450 O   0  0  0  0  0  0  0  0  0  0  0  0
  -21.4972   -7.0589   21.6428 O   0  0  0  0  0  0  0  0  0  0  0  0
  -31.6840  -15.3314   22.4462 O   0  0  0  0  0  0  0  0  0  0  0  0
  -34.9365  -20.6862   24.4368 O   0  0  0  0  0  0  0  0  0  1  0  0
  -35.2541  -20.7331   27.2003 O   0  0  0  0  0  0  0  0  0  0  0  0
  -23.4838   -3.2649   25.1158 F   0  0  0  0  0  0  0  0  0  0  0  0
  -20.0878   -6.3329   23.9076 F   0  0  0  0  0  0  0  0  0  0  0  0
  1  2  1  0  0  0  0
  1  5  2  0  0  0  0
  2  6  2  0  0  0  0
  3  8  2  0  0  0  0
  3 16  1  0  0  0  0
  4  9  1  0  0  0  0
  4 16  2  0  0  0  0
  5 18  1  0  0  0  0
  6 20  1  0  0  0  0
  7 10  2  0  0  0  0
  7 19  1  0  0  0  0
  8 26  1  0  0  0  0
  9 26  2  0  0  0  0
 10 27  1  0  0  0  0
 11 12  2  0  0  0  0
 11 28  1  0  0  0  0
 12 30  1  0  0  0  0
 13 21  1  0  0  0  0
 13 27  2  0  0  0  0
 14 22  1  0  0  0  0
 14 29  2  0  0  0  0
 15 30  2  0  0  0  0
 15 31  1  0  0  0  0
 16 32  1  0  0  0  0
 17 32  1  0  0  0  0
 17 33  2  0  0  0  0
 17 34  1  0  0  0  0
 18 20  2  0  0  0  0
 18 39  1  0  0  0  0
 19 21  2  0  0  0  0
 19 40  1  0  0  0  0
 20 53  1  0  0  0  0
 21 41  1  0  0  0  0
 22 23  2  0  0  0  0
 22 52  1  0  0  0  0
 23 24  1  0  0  0  0
 23 56  1  0  0  0  0
 24 25  2  0  0  0  0
 24 57  1  0  0  0  0
 25 29  1  0  0  0  0
 25 78  1  0  0  0  0
 26 88  1  0  0  0  0
 27 90  1  0  0  0  0
 28 31  2  0  0  0  0
 28 88  1  0  0  0  0
 29 89  1  0  0  0  0
 30 92  1  0  0  0  0
 31 93  1  0  0  0  0
 32 72  2  0  0  0  0
 33 73  1  0  0  0  0
 33 76  1  0  0  0  0
 34 77  1  0  0  0  0
 34 83  2  0  0  0  0
 35 54  1  0  0  0  0
 35 79  1  0  0  0  0
 35 84  2  0  0  0  0
 36 68  1  0  0  0  0
 36 74  1  0  0  0  0
 36 85  2  0  0  0  0
 37 69  1  0  0  0  0
 37 80  1  0  0  0  0
 37 86  2  0  0  0  0
 38 75  1  0  0  0  0
 38 78  1  0  0  0  0
 38 87  2  0  0  0  0
 39 42  1  0  0  0  0
 40 54  1  0  0  0  0
 41 74  1  0  0  0  0
 42 44  1  0  0  0  0
 43 45  1  0  0  0  0
 43 48  1  0  0  0  0
 44 53  1  0  0  0  0
 45 55  1  0  0  0  0
 46 50  1  0  0  0  0
 46 52  1  0  0  0  0
 47 51  1  0  0  0  0
 47 52  1  0  0  0  0
 48 75  1  0  0  0  0
 49 55  1  0  0  0  0
 49 75  1  0  0  0  0
 50 81  1  0  0  0  0
 51 81  1  0  0  0  0
 53 79  1  0  0  0  0
 54 74  1  0  0  0  0
 55 73  1  0  0  0  0
 58 69  1  0  0  0  0
 59 70  1  0  0  0  0
 60 71  1  0  0  0  0
 61 71  1  0  0  0  0
 62 71  1  0  0  0  0
 63 82  1  0  0  0  0
 64 89  1  0  0  0  0
 65 70  1  0  0  0  0
 65 81  1  0  0  0  0
 66 67  1  0  0  0  0
 66 90  1  0  0  0  0
 67 91  1  0  0  0  0
 68 71  1  0  0  0  0
 68 80  1  0  0  0  0
 69 82  1  0  0  0  0
 70 91  1  0  0  0  0
 72 73  1  0  0  0  0
M  CHG  2  81   1  82   1
M  ISO  4  38 100  66 101  78 100  90 101
M  END
> <Batch ID>
0154

> <Smiles>
CNC(C)C(=O)NC(C(=O)N1Cc2cc([101O:1][101CH2:1]COC(C)CN3CCC(c4cc(OC)c([100NH:0][100C:0](=O)N5CCCC(n6nc(-c7ccc(Oc8ccc(F)cc8F)cc7)c(C(N)=O)c6N)C5)c(C)c4C)CC3)ccc2CC1C(=O)NC1CCCc2ccccc21)C(C)(C)C

> <Shape>
0.168

> <Color>
0.172

> <Negative vol penalty>
0.000

$$$$

  -OEChem-04052321513D

 89 98  0     1  0  0  0  0  0999 V2000
  -21.8076   -8.6269   20.9302 C   0  0  0  0  0  0  0  0  0  0  0  0
  -21.9147   -9.9769   21.2489 C   0  0  0  0  0  0  0  0  0  0  0  0
  -28.8771  -26.8270   19.0029 C   0  0  0  0  0  0  0  0  0  0  0  0
  -26.9044  -25.5145   18.5307 C   0  0  0  0  0  0  0  0  0  0  0  0
  -22.9349   -7.8082   20.9816 C   0  0  0  0  0  0  0  0  0  0  0  0
  -23.1490  -10.5086   21.6204 C   0  0  0  0  0  0  0  0  0  0  0  0
  -24.1187  -14.9335   19.3565 C   0  0  0  0  0  0  0  0  0  0  0  0
  -29.6502  -25.6660   19.0004 C   0  0  0  0  0  0  0  0  0  0  0  0
  -27.6775  -24.3535   18.5282 C   0  0  0  0  0  0  0  0  0  0  0  0
  -23.4851  -16.0640   19.8706 C   0  0  0  0  0  0  0  0  0  0  0  0
  -29.0609  -22.2766   20.8093 C   0  0  0  0  0  0  0  0  0  0  0  0
  -28.5665  -21.1674   21.4954 C   0  0  0  0  0  0  0  0  0  0  0  0
  -25.5035  -16.6493   21.0548 C   0  0  0  0  0  0  0  0  0  0  0  0
  -20.1365  -22.9794   23.7605 C   0  0  0  0  0  0  0  0  0  0  0  0
  -22.2777  -24.0944   23.6670 C   0  0  0  0  0  0  0  0  0  0  0  0
  -28.5764  -19.8933   19.4427 C   0  0  0  0  0  0  0  0  0  0  0  0
  -27.5042  -26.7512   18.7681 C   0  0  0  0  0  0  0  0  0  0  0  0
  -26.4148  -28.7812   17.6725 C   0  0  0  0  0  0  0  0  0  0  0  0
  -24.1857   -8.3322   21.3445 C   0  0  0  0  0  0  0  0  0  0  0  0
  -25.4483  -14.6460   19.6970 C   0  0  0  0  0  0  0  0  0  0  0  0
  -24.2939   -9.6958   21.6780 C   0  0  0  0  0  0  0  0  0  0  0  0
  -26.1525  -15.5159   20.5417 C   0  0  0  0  0  0  0  0  0  0  0  0
  -22.1196  -21.7380   23.1578 C   0  0  0  0  0  0  0  0  0  0  0  0
  -20.9029  -24.1365   23.8991 C   0  0  0  0  0  0  0  0  0  0  0  0
  -20.7449  -21.7801   23.3899 C   0  0  0  0  0  0  0  0  0  0  0  0
  -29.0504  -24.4292   18.7630 C   0  0  0  0  0  0  0  0  0  0  0  0
  -24.1766  -16.9206   20.7222 C   0  0  0  0  0  0  0  0  0  0  0  0
  -29.3129  -22.1942   19.4398 C   0  0  0  0  0  0  0  0  0  0  0  0
  -22.8861  -22.8951   23.2964 C   0  0  0  0  0  0  0  0  0  0  0  0
  -28.3243  -19.9757   20.8122 C   0  0  0  0  0  0  0  0  0  0  0  0
  -29.0707  -21.0025   18.7566 C   0  0  0  0  0  0  0  0  0  0  0  0
  -26.7050  -27.9502   18.7711 C   0  0  0  0  0  0  0  0  0  0  0  0
  -25.6262  -29.7773   18.1943 C   0  0  0  0  0  0  0  0  0  0  0  0
  -26.8217  -28.6632   16.3027 C   0  0  0  0  0  0  0  0  0  0  0  0
  -26.9134  -12.2570   21.1970 C   0  0  0  0  0  0  0  0  0  0  0  0
  -29.5911  -13.8576   20.3079 C   0  0  0  0  0  0  0  0  0  0  0  0
  -31.0326  -16.8164   19.4055 C   0  0  0  0  0  0  0  0  0  0  0  0
  -22.0340  -30.0502   22.9769 C   0  0  0  0  0  0  0  0  0  0  0  0
  -25.3665   -7.3980   21.4317 C   0  0  0  0  0  0  0  0  0  0  0  0
  -26.1258  -13.4369   19.1128 C   0  0  0  0  0  0  0  0  0  0  0  0
  -27.5878  -15.2630   20.9219 C   0  0  0  0  0  0  0  0  0  0  0  0
  -26.7116   -8.1188   21.4720 C   0  0  0  0  0  0  0  0  0  0  0  0
  -24.8085  -32.1632   22.2599 C   0  0  0  0  0  0  0  0  0  0  0  0
  -23.8398  -19.9366   23.7572 C   0  0  0  0  0  0  0  0  0  0  0  0
  -26.6692   -9.2728   22.4686 C   0  0  0  0  0  0  0  0  0  0  0  0
  -25.5830  -31.3981   21.1854 C   0  0  0  0  0  0  0  0  0  0  0  0
  -24.8365  -19.0865   22.9602 C   0  0  0  0  0  0  0  0  0  0  0  0
  -23.5596  -20.4323   21.4276 C   0  0  0  0  0  0  0  0  0  0  0  0
  -24.1946  -31.2202   23.2923 C   0  0  0  0  0  0  0  0  0  0  0  0
  -24.1310  -29.3804   21.6538 C   0  0  0  0  0  0  0  0  0  0  0  0
  -22.7850  -20.4390   22.7544 C   0  0  2  0  0  0  0  0  0  0  0  0
  -25.6205  -10.3149   22.0615 C   0  0  1  0  0  0  0  0  0  0  0  0
  -27.3206  -12.9654   19.9360 C   0  0  1  0  0  0  0  0  0  0  0  0
  -24.7216  -30.2851   20.5588 C   0  0  2  0  0  0  0  0  0  0  0  0
  -24.3812  -19.1530   21.5075 C   0  0  2  0  0  0  0  0  0  1  0  0
  -19.9023  -20.5547   23.2496 C   0  0  0  0  0  0  0  0  0  0  0  0
  -32.8174  -18.3884   18.6051 C   0  0  0  0  0  0  0  0  0  0  0  0
  -30.4468  -13.7999   23.2361 C   0  0  0  0  0  0  0  0  0  0  0  0
  -32.1196  -15.5869   22.7102 C   0  0  0  0  0  0  0  0  0  0  0  0
  -32.2880  -13.3582   21.6023 C   0  0  0  0  0  0  0  0  0  0  0  0
  -30.3212  -16.3642   16.5686 C   0  0  0  0  0  0  0  0  0  0  0  0
  -24.9342  -24.1024   23.2378 C   0  0  0  0  0  0  0  0  0  0  0  0
  -20.2524  -25.4183   24.2967 C   0  0  0  0  0  0  0  0  0  0  0  0
  -19.9394  -28.7929   22.5400 C   0  0  0  0  0  0  0  0  0  0  0  0
  -19.7248  -27.7696   23.6396 C   0  0  0  0  0  0  0  0  0  0  0  0
  -30.4405  -14.9442   20.9217 C   0  0  1  0  0  0  0  0  0  0  0  0
  -31.9667  -17.1750   18.2638 C   0  0  2  0  0  0  0  0  0  0  0  0
  -31.2961  -14.4263   22.1121 C   0  0  0  0  0  0  0  0  0  0  0  0
  -26.1463  -28.3810   19.9053 N   0  0  0  0  0  0  0  0  0  0  0  0
  -25.4972  -29.4936   19.5221 N   0  0  0  0  0  0  0  0  0  0  0  0
  -28.2045  -14.0643   20.3300 N   0  0  0  0  0  0  0  0  0  0  0  0
  -23.3889  -30.1895   22.6332 N   0  0  0  0  0  0  0  0  0  0  0  0
  -25.0375  -30.8595   17.6423 N   0  0  0  0  0  0  0  0  0  0  0  0
  -27.6314  -27.5791   15.9373 N   0  0  0  0  0  0  0  0  0  0  0  0
  -26.1223  -11.1438   20.9865 N   0  0  0  0  0  0  0  0  0  0  0  0
  -31.2203  -15.5181   19.8304 N   0  0  0  0  0  0  0  0  0  0  0  0
  -21.3413  -29.0535   22.3004 N   0  0  0  0  0  0  0  0  0  0  0  0
  -31.1855  -17.4801   17.0319 N   0  3  0  0  0  0  0  0  0  0  0  0
  -20.4145  -26.5012   23.2875 N   0  3  0  0  0  0  0  0  0  0  0  0
  -26.4911  -29.5034   15.4320 O   0  0  0  0  0  0  0  0  0  0  0  0
  -27.2903  -12.6877   22.2805 O   0  0  0  0  0  0  0  0  0  0  0  0
  -30.1381  -12.8653   19.8202 O   0  0  0  0  0  0  0  0  0  0  0  0
  -30.2205  -17.6099   19.8760 O   0  0  0  0  0  0  0  0  0  0  0  0
  -21.4813  -30.7648   23.8199 O   0  0  0  0  0  0  0  0  0  0  0  0
  -29.8045  -23.2961   18.7602 O   0  0  0  0  0  0  0  0  0  0  0  0
  -23.5604  -18.0244   21.2258 O   0  0  0  0  0  0  0  0  0  1  0  0
  -24.2299  -22.8733   23.0728 O   0  0  0  0  0  0  0  0  0  0  0  0
  -27.8510  -18.9101   21.4715 F   0  0  0  0  0  0  0  0  0  0  0  0
  -29.3120  -20.9170   17.4412 F   0  0  0  0  0  0  0  0  0  0  0  0
  1  2  1  0  0  0  0
  1  5  2  0  0  0  0
  2  6  2  0  0  0  0
  3  8  2  0  0  0  0
  3 17  1  0  0  0  0
  4  9  1  0  0  0  0
  4 17  2  0  0  0  0
  5 19  1  0  0  0  0
  6 21  1  0  0  0  0
  7 10  2  0  0  0  0
  7 20  1  0  0  0  0
  8 26  1  0  0  0  0
  9 26  2  0  0  0  0
 10 27  1  0  0  0  0
 11 12  2  0  0  0  0
 11 28  1  0  0  0  0
 12 30  1  0  0  0  0
 13 22  1  0  0  0  0
 13 27  2  0  0  0  0
 14 24  1  0  0  0  0
 14 25  2  0  0  0  0
 15 24  2  0  0  0  0
 15 29  1  0  0  0  0
 16 30  2  0  0  0  0
 16 31  1  0  0  0  0
 17 32  1  0  0  0  0
 18 32  1  0  0  0  0
 18 33  2  0  0  0  0
 18 34  1  0  0  0  0
 19 21  2  0  0  0  0
 19 39  1  0  0  0  0
 20 22  2  0  0  0  0
 20 40  1  0  0  0  0
 21 52  1  0  0  0  0
 22 41  1  0  0  0  0
 23 25  1  0  0  0  0
 23 29  2  0  0  0  0
 23 51  1  0  0  0  0
 24 63  1  0  0  0  0
 25 56  1  0  0  0  0
 26 85  1  0  0  0  0
 27 86  1  0  0  0  0
 28 31  2  0  0  0  0
 28 85  1  0  0  0  0
 29 87  1  0  0  0  0
 30 88  1  0  0  0  0
 31 89  1  0  0  0  0
 32 69  2  0  0  0  0
 33 70  1  0  0  0  0
 33 73  1  0  0  0  0
 34 74  1  0  0  0  0
 34 80  2  0  0  0  0
 35 53  1  0  0  0  0
 35 75  1  0  0  0  0
 35 81  2  0  0  0  0
 36 66  1  0  0  0  0
 36 71  1  0  0  0  0
 36 82  2  0  0  0  0
 37 67  1  0  0  0  0
 37 76  1  0  0  0  0
 37 83  2  0  0  0  0
 38 72  1  0  0  0  0
 38 77  1  0  0  0  0
 38 84  2  0  0  0  0
 39 42  1  0  0  0  0
 40 53  1  0  0  0  0
 41 71  1  0  0  0  0
 42 45  1  0  0  0  0
 43 46  1  0  0  0  0
 43 49  1  0  0  0  0
 44 47  1  0  0  0  0
 44 51  1  0  0  0  0
 45 52  1  0  0  0  0
 46 54  1  0  0  0  0
 47 55  1  0  0  0  0
 48 51  1  0  0  0  0
 48 55  1  0  0  0  0
 49 72  1  0  0  0  0
 50 54  1  0  0  0  0
 50 72  1  0  0  0  0
 52 75  1  0  0  0  0
 53 71  1  0  0  0  0
 54 70  1  0  0  0  0
 55 86  1  0  0  0  0
 57 67  1  0  0  0  0
 58 68  1  0  0  0  0
 59 68  1  0  0  0  0
 60 68  1  0  0  0  0
 61 78  1  0  0  0  0
 62 87  1  0  0  0  0
 63 79  1  0  0  0  0
 64 65  1  0  0  0  0
 64 77  1  0  0  0  0
 65 79  1  0  0  0  0
 66 68  1  0  0  0  0
 66 76  1  0  0  0  0
 67 78  1  0  0  0  0
 69 70  1  0  0  0  0
M  CHG  2  78   1  79   1
M  ISO  4  38 100  55 101  77 100  86 101
M  END
> <Batch ID>
0154

> <Smiles>
CNC(C)C(=O)NC(C(=O)N1Cc2cc([101O:1][101CH:1]3CCC(c4c(C)cc(CNCC[100NH:0][100C:0](=O)N5CCCC(n6nc(-c7ccc(Oc8ccc(F)cc8F)cc7)c(C(N)=O)c6N)C5)cc4OC)C3)ccc2CC1C(=O)NC1CCCc2ccccc21)C(C)(C)C

> <Shape>
0.270

> <Color>
0.068

> <Negative vol penalty>
0.000

$$$$

  -OEChem-04052321513D

 83 91  0     1  0  0  0  0  0999 V2000
  -17.4847  -27.2663   22.8986 C   0  0  0  0  0  0  0  0  0  0  0  0
  -18.6428  -26.5090   23.0422 C   0  0  0  0  0  0  0  0  0  0  0  0
  -28.0803  -12.9301   20.4733 C   0  0  0  0  0  0  0  0  0  0  0  0
  -29.9959  -13.4744   19.1054 C   0  0  0  0  0  0  0  0  0  0  0  0
  -17.5377  -28.5047   22.2603 C   0  0  0  0  0  0  0  0  0  0  0  0
  -19.8545  -26.9892   22.5466 C   0  0  0  0  0  0  0  0  0  0  0  0
  -26.8836  -26.8859   23.9242 C   0  0  0  0  0  0  0  0  0  0  0  0
  -28.2560  -11.5776   20.1811 C   0  0  0  0  0  0  0  0  0  0  0  0
  -30.1716  -12.1219   18.8132 C   0  0  0  0  0  0  0  0  0  0  0  0
  -28.0988  -26.6018   23.3028 C   0  0  0  0  0  0  0  0  0  0  0  0
  -27.9844   -8.0149   19.5048 C   0  0  0  0  0  0  0  0  0  0  0  0
  -26.8539   -7.2705   19.1681 C   0  0  0  0  0  0  0  0  0  0  0  0
  -28.0850  -28.7904   22.2884 C   0  0  0  0  0  0  0  0  0  0  0  0
  -30.5870  -23.2697   19.6879 C   0  0  0  0  0  0  0  0  0  0  0  0
  -26.4553   -8.7283   17.2832 C   0  0  0  0  0  0  0  0  0  0  0  0
  -28.9503  -13.8786   19.9354 C   0  0  0  0  0  0  0  0  0  0  0  0
  -29.3309  -15.9944   21.3088 C   0  0  0  0  0  0  0  0  0  0  0  0
  -18.7524  -29.0047   21.7652 C   0  0  0  0  0  0  0  0  0  0  0  0
  -26.2534  -28.1224   23.7234 C   0  0  0  0  0  0  0  0  0  0  0  0
  -19.9236  -28.2348   21.8999 C   0  0  0  0  0  0  0  0  0  0  0  0
  -26.8630  -29.0887   22.9105 C   0  0  0  0  0  0  0  0  0  0  0  0
  -31.1401  -24.5146   19.9664 C   0  0  0  0  0  0  0  0  0  0  0  0
  -30.5140  -25.6665   19.5034 C   0  0  0  0  0  0  0  0  0  0  0  0
  -29.3016  -11.1734   19.3511 C   0  0  0  0  0  0  0  0  0  0  0  0
  -28.6983  -27.5530   22.4825 C   0  0  0  0  0  0  0  0  0  0  0  0
  -28.3503   -9.1161   18.7308 C   0  0  0  0  0  0  0  0  0  0  0  0
  -26.0894   -7.6271   18.0573 C   0  0  0  0  0  0  0  0  0  0  0  0
  -27.5858   -9.4728   17.6199 C   0  0  0  0  0  0  0  0  0  0  0  0
  -28.7690  -15.2759   20.2364 C   0  0  0  0  0  0  0  0  0  0  0  0
  -29.4159  -23.2310   18.9484 C   0  0  0  0  0  0  0  0  0  0  0  0
  -29.3462  -25.5206   18.7721 C   0  0  0  0  0  0  0  0  0  0  0  0
  -28.8561  -17.2735   21.1514 C   0  0  0  0  0  0  0  0  0  0  0  0
  -30.2041  -15.5456   22.3537 C   0  0  0  0  0  0  0  0  0  0  0  0
  -23.4810  -29.0508   22.4762 C   0  0  0  0  0  0  0  0  0  0  0  0
  -24.4237  -31.9664   23.5404 C   0  0  0  0  0  0  0  0  0  0  0  0
  -26.9864  -34.0325   24.4408 C   0  0  0  0  0  0  0  0  0  0  0  0
  -27.6995  -21.6803   17.9506 C   0  0  0  0  0  0  0  0  0  0  0  0
  -18.7516  -30.3275   21.0406 C   0  0  0  0  0  0  0  0  0  0  0  0
  -24.9559  -28.4235   24.4222 C   0  0  0  0  0  0  0  0  0  0  0  0
  -26.2374  -30.4391   22.6786 C   0  0  0  0  0  0  0  0  0  0  0  0
  -20.1433  -30.9326   20.8760 C   0  0  0  0  0  0  0  0  0  0  0  0
  -25.2534  -19.0974   18.0992 C   0  0  0  0  0  0  0  0  0  0  0  0
  -21.1297  -29.8774   20.3856 C   0  0  0  0  0  0  0  0  0  0  0  0
  -25.9962  -17.9320   18.7567 C   0  0  0  0  0  0  0  0  0  0  0  0
  -26.1618  -19.8937   17.1641 C   0  0  0  0  0  0  0  0  0  0  0  0
  -28.1601  -19.1945   18.4241 C   0  0  0  0  0  0  0  0  0  0  0  0
  -21.2614  -28.7328   21.3976 C   0  0  1  0  0  0  0  0  0  0  0  0
  -24.1490  -29.5220   23.7369 C   0  0  1  0  0  0  0  0  0  0  0  0
  -27.3032  -18.4020   19.4248 C   0  0  2  0  0  0  0  0  0  0  0  0
  -32.4021  -24.5889   20.7607 C   0  0  0  0  0  0  0  0  0  0  0  0
  -31.4786  -27.7585   18.4912 C   0  0  0  0  0  0  0  0  0  0  0  0
  -27.4484  -36.3695   25.2296 C   0  0  0  0  0  0  0  0  0  0  0  0
  -23.9598  -33.0104   20.7111 C   0  0  0  0  0  0  0  0  0  0  0  0
  -25.3075  -35.0332   21.3113 C   0  0  0  0  0  0  0  0  0  0  0  0
  -23.1860  -34.5439   22.5288 C   0  0  0  0  0  0  0  0  0  0  0  0
  -28.1828  -33.0666   26.9696 C   0  0  0  0  0  0  0  0  0  0  0  0
  -27.5062  -26.4082   17.5546 C   0  0  0  0  0  0  0  0  0  0  0  0
  -30.1314  -27.9085   20.6181 C   0  0  0  0  0  0  0  0  0  1  0  0
  -31.0911  -27.0441   19.7889 C   0  0  1  0  0  0  0  0  0  0  0  0
  -25.2223  -33.1091   22.9611 C   0  0  1  0  0  0  0  0  0  0  0  0
  -27.1778  -34.9327   25.6480 C   0  0  2  0  0  0  0  0  0  0  0  0
  -24.4300  -33.8981   21.8807 C   0  0  0  0  0  0  0  0  0  0  0  0
  -27.9962  -16.0355   19.4556 N   0  0  0  0  0  0  0  0  0  0  0  0
  -28.7790  -24.3283   18.4817 N   0  0  0  0  0  0  0  0  0  0  0  0
  -28.0690  -17.2445   20.0379 N   0  0  0  0  0  0  0  0  0  0  0  0
  -24.9657  -30.6835   23.3789 N   0  0  0  0  0  0  0  0  0  0  0  0
  -27.3779  -20.3091   17.8666 N   0  0  0  0  0  0  0  0  0  0  0  0
  -29.0391  -18.4090   21.8582 N   0  0  0  0  0  0  0  0  0  0  0  0
  -30.5945  -14.1996   22.3662 N   0  0  0  0  0  0  0  0  0  0  0  0
  -28.8613  -21.9571   18.6705 N   0  0  0  0  0  0  0  0  0  0  0  0
  -22.1019  -29.1323   22.5060 N   0  0  0  0  0  0  0  0  0  0  0  0
  -25.6567  -33.9191   24.0940 N   0  0  0  0  0  0  0  0  0  0  0  0
  -28.3264  -34.4586   26.4708 N   0  3  0  0  0  0  0  0  0  0  0  0
  -30.6124  -16.3116   23.2592 O   0  0  0  0  0  0  0  0  0  0  0  0
  -24.1661  -28.6447   21.5448 O   0  0  0  0  0  0  0  0  0  0  0  0
  -23.3617  -32.2042   24.1212 O   0  0  0  0  0  0  0  0  0  0  0  0
  -27.9231  -33.4875   23.8611 O   0  0  0  0  0  0  0  0  0  0  0  0
  -26.9814  -22.5474   17.4460 O   0  0  0  0  0  0  0  0  0  0  0  0
  -29.4734   -9.8537   19.0659 O   0  0  0  0  0  0  0  0  0  0  0  0
  -29.8842  -27.2780   21.8742 O   0  0  0  0  0  0  0  0  0  1  0  0
  -28.6986  -26.6316   18.2971 O   0  0  0  0  0  0  0  0  0  0  0  0
  -25.0047   -6.9112   17.7332 F   0  0  0  0  0  0  0  0  0  0  0  0
  -27.9331  -10.5289   16.8718 F   0  0  0  0  0  0  0  0  0  0  0  0
  1  2  1  0  0  0  0
  1  5  2  0  0  0  0
  2  6  2  0  0  0  0
  3  8  2  0  0  0  0
  3 16  1  0  0  0  0
  4  9  1  0  0  0  0
  4 16  2  0  0  0  0
  5 18  1  0  0  0  0
  6 20  1  0  0  0  0
  7 10  2  0  0  0  0
  7 19  1  0  0  0  0
  8 24  1  0  0  0  0
  9 24  2  0  0  0  0
 10 25  1  0  0  0  0
 11 12  2  0  0  0  0
 11 26  1  0  0  0  0
 12 27  1  0  0  0  0
 13 21  1  0  0  0  0
 13 25  2  0  0  0  0
 14 22  2  0  0  0  0
 14 30  1  0  0  0  0
 15 27  2  0  0  0  0
 15 28  1  0  0  0  0
 16 29  1  0  0  0  0
 17 29  1  0  0  0  0
 17 32  2  0  0  0  0
 17 33  1  0  0  0  0
 18 20  2  0  0  0  0
 18 38  1  0  0  0  0
 19 21  2  0  0  0  0
 19 39  1  0  0  0  0
 20 47  1  0  0  0  0
 21 40  1  0  0  0  0
 22 23  1  0  0  0  0
 22 50  1  0  0  0  0
 23 31  2  0  0  0  0
 23 59  1  0  0  0  0
 24 79  1  0  0  0  0
 25 80  1  0  0  0  0
 26 28  2  0  0  0  0
 26 79  1  0  0  0  0
 27 82  1  0  0  0  0
 28 83  1  0  0  0  0
 29 63  2  0  0  0  0
 30 64  2  0  0  0  0
 30 70  1  0  0  0  0
 31 64  1  0  0  0  0
 31 81  1  0  0  0  0
 32 65  1  0  0  0  0
 32 68  1  0  0  0  0
 33 69  1  0  0  0  0
 33 74  2  0  0  0  0
 34 48  1  0  0  0  0
 34 71  1  0  0  0  0
 34 75  2  0  0  0  0
 35 60  1  0  0  0  0
 35 66  1  0  0  0  0
 35 76  2  0  0  0  0
 36 61  1  0  0  0  0
 36 72  1  0  0  0  0
 36 77  2  0  0  0  0
 37 67  1  0  0  0  0
 37 70  1  0  0  0  0
 37 78  2  0  0  0  0
 38 41  1  0  0  0  0
 39 48  1  0  0  0  0
 40 66  1  0  0  0  0
 41 43  1  0  0  0  0
 42 44  1  0  0  0  0
 42 45  1  0  0  0  0
 43 47  1  0  0  0  0
 44 49  1  0  0  0  0
 45 67  1  0  0  0  0
 46 49  1  0  0  0  0
 46 67  1  0  0  0  0
 47 71  1  0  0  0  0
 48 66  1  0  0  0  0
 49 65  1  0  0  0  0
 51 59  1  0  0  0  0
 52 61  1  0  0  0  0
 53 62  1  0  0  0  0
 54 62  1  0  0  0  0
 55 62  1  0  0  0  0
 56 73  1  0  0  0  0
 57 81  1  0  0  0  0
 58 59  1  0  0  0  0
 58 80  1  0  0  0  0
 60 62  1  0  0  0  0
 60 72  1  0  0  0  0
 61 73  1  0  0  0  0
 63 65  1  0  0  0  0
M  CHG  1  73   1
M  ISO  4  37 100  58 101  70 100  80 101
M  END
> <Batch ID>
0154

> <Smiles>
CNC(C)C(=O)NC(C(=O)N1Cc2cc([101O:1][101CH2:1]C(C)c3c(C)cc([100NH:0][100C:0](=O)N4CCCC(n5nc(-c6ccc(Oc7ccc(F)cc7F)cc6)c(C(N)=O)c5N)C4)nc3OC)ccc2CC1C(=O)NC1CCCc2ccccc21)C(C)(C)C

> <Shape>
0.273

> <Color>
0.080

> <Negative vol penalty>
0.000

$$$$

  -OEChem-04052321513D

 87 96  0     1  0  0  0  0  0999 V2000
  -38.0868  -29.4481   22.6861 C   0  0  0  0  0  0  0  0  0  0  0  0
  -37.3493  -28.3111   23.0002 C   0  0  0  0  0  0  0  0  0  0  0  0
  -23.2878   -9.7952   19.9153 C   0  0  0  0  0  0  0  0  0  0  0  0
  -23.7451   -9.9366   22.2834 C   0  0  0  0  0  0  0  0  0  0  0  0
  -37.5736  -30.3849   21.7900 C   0  0  0  0  0  0  0  0  0  0  0  0
  -36.0975  -28.1108   22.4193 C   0  0  0  0  0  0  0  0  0  0  0  0
  -35.4551  -23.3636   20.7773 C   0  0  0  0  0  0  0  0  0  0  0  0
  -22.5645   -8.6212   20.1250 C   0  0  0  0  0  0  0  0  0  0  0  0
  -23.0217   -8.7626   22.4932 C   0  0  0  0  0  0  0  0  0  0  0  0
  -35.1583  -22.3937   21.7339 C   0  0  0  0  0  0  0  0  0  0  0  0
  -19.7771   -7.8449   22.7197 C   0  0  0  0  0  0  0  0  0  0  0  0
  -18.8778   -7.8214   23.7857 C   0  0  0  0  0  0  0  0  0  0  0  0
  -32.8255  -22.5240   21.1335 C   0  0  0  0  0  0  0  0  0  0  0  0
  -32.1421  -16.3679   23.5206 C   0  0  0  0  0  0  0  0  0  0  0  0
  -20.0902   -5.9766   24.7677 C   0  0  0  0  0  0  0  0  0  0  0  0
  -23.8782  -10.4529   20.9944 C   0  0  0  0  0  0  0  0  0  0  0  0
  -24.1318  -12.9834   20.7952 C   0  0  0  0  0  0  0  0  0  0  0  0
  -36.3192  -30.1912   21.1904 C   0  0  0  0  0  0  0  0  0  0  0  0
  -34.4361  -23.9298   19.9979 C   0  0  0  0  0  0  0  0  0  0  0  0
  -35.5665  -29.0466   21.5154 C   0  0  0  0  0  0  0  0  0  0  0  0
  -33.1123  -23.4991   20.1660 C   0  0  0  0  0  0  0  0  0  0  0  0
  -29.7770  -16.0429   23.4972 C   0  0  0  0  0  0  0  0  0  0  0  0
  -29.6194  -17.2322   22.7758 C   0  0  0  0  0  0  0  0  0  0  0  0
  -31.0329  -15.5949   23.8707 C   0  0  0  0  0  0  0  0  0  0  0  0
  -22.4313   -8.1049   21.4140 C   0  0  0  0  0  0  0  0  0  0  0  0
  -33.8430  -21.9758   21.9141 C   0  0  0  0  0  0  0  0  0  0  0  0
  -20.8329   -6.9343   22.6777 C   0  0  0  0  0  0  0  0  0  0  0  0
  -31.9840  -17.5609   22.7975 C   0  0  0  0  0  0  0  0  0  0  0  0
  -30.7143  -17.9983   22.4137 C   0  0  0  0  0  0  0  0  0  0  0  0
  -19.0344   -6.8872   24.8097 C   0  0  0  0  0  0  0  0  0  0  0  0
  -20.9894   -6.0001   23.7016 C   0  0  0  0  0  0  0  0  0  0  0  0
  -24.6261  -11.6654   20.7783 C   0  0  0  0  0  0  0  0  0  0  0  0
  -25.2310  -13.7656   20.5371 C   0  0  0  0  0  0  0  0  0  0  0  0
  -22.7985  -13.4583   21.0238 C   0  0  0  0  0  0  0  0  0  0  0  0
  -33.2673  -26.8615   19.6201 C   0  0  0  0  0  0  0  0  0  0  0  0
  -31.5228  -25.4437   17.2815 C   0  0  0  0  0  0  0  0  0  0  0  0
  -30.1574  -22.5838   16.0153 C   0  0  0  0  0  0  0  0  0  0  0  0
  -31.1060  -12.9346   21.3399 C   0  0  0  0  0  0  0  0  0  0  0  0
  -35.7854  -31.2550   20.2640 C   0  0  0  0  0  0  0  0  0  0  0  0
  -34.7763  -24.9557   18.9518 C   0  0  0  0  0  0  0  0  0  0  0  0
  -28.4564  -15.3769   23.7217 C   0  0  0  0  0  0  0  0  0  0  0  0
  -28.1789  -17.4709   22.4500 C   0  0  0  0  0  0  0  0  0  0  0  0
  -31.9847  -24.0609   19.3407 C   0  0  0  0  0  0  0  0  0  0  0  0
  -34.6149  -30.7832   19.4051 C   0  0  0  0  0  0  0  0  0  0  0  0
  -27.4882  -16.5401   23.4580 C   0  0  0  0  0  0  0  0  0  0  0  0
  -29.4468  -13.6707   18.2769 C   0  0  0  0  0  0  0  0  0  0  0  0
  -33.5950  -30.0346   20.2573 C   0  0  0  0  0  0  0  0  0  0  0  0
  -27.9786  -13.3592   18.5722 C   0  0  0  0  0  0  0  0  0  0  0  0
  -30.3841  -12.6932   18.9826 C   0  0  0  0  0  0  0  0  0  0  0  0
  -28.7034  -12.2603   20.7323 C   0  0  0  0  0  0  0  0  0  0  0  0
  -34.2156  -28.7816   20.8869 C   0  0  1  0  0  0  0  0  0  0  0  0
  -33.5903  -25.8361   18.5704 C   0  0  1  0  0  0  0  0  0  0  0  0
  -27.7215  -13.2535   20.0875 C   0  0  2  0  0  0  0  0  0  0  0  0
  -28.7537  -21.7463   14.1111 C   0  0  0  0  0  0  0  0  0  0  0  0
  -29.0315  -26.5951   18.6148 C   0  0  0  0  0  0  0  0  0  0  0  0
  -27.6570  -24.9855   17.2776 C   0  0  0  0  0  0  0  0  0  0  0  0
  -29.0282  -26.7160   16.1168 C   0  0  0  0  0  0  0  0  0  0  0  0
  -32.3195  -20.8083   15.0500 C   0  0  0  0  0  0  0  0  0  0  0  0
  -30.5837  -19.0352   20.2774 C   0  0  0  0  0  0  0  0  0  0  0  0
  -31.2142  -14.3222   24.6220 C   0  0  0  0  0  0  0  0  0  0  0  0
  -31.6743  -13.1493   23.7462 C   0  0  0  0  0  0  0  0  0  0  0  0
  -34.5605  -20.0621   23.1301 C   0  0  0  0  0  0  0  0  0  1  0  0
  -33.8987  -18.7606   23.5395 C   0  0  0  0  0  0  0  0  0  0  0  0
  -30.1816  -24.7538   17.2174 C   0  0  1  0  0  0  0  0  0  0  0  0
  -30.1664  -21.9974   14.6151 C   0  0  2  0  0  0  0  0  0  0  0  0
  -28.9953  -25.7532   17.3237 C   0  0  0  0  0  0  0  0  0  0  0  0
  -25.9371  -11.6094   20.5290 N   0  0  0  0  0  0  0  0  0  0  0  0
  -26.2760  -12.9021   20.3868 N   0  0  0  0  0  0  0  0  0  0  0  0
  -32.3672  -25.0660   18.3352 N   0  0  0  0  0  0  0  0  0  0  0  0
  -30.0891  -12.6411   20.4165 N   0  0  0  0  0  0  0  0  0  0  0  0
  -25.3959  -15.1008   20.4262 N   0  0  0  0  0  0  0  0  0  0  0  0
  -21.7885  -12.5193   21.2742 N   0  0  0  0  0  0  0  0  0  0  0  0
  -34.3115  -27.7192   19.9088 N   0  0  0  0  0  0  0  0  0  0  0  0
  -30.1880  -23.9621   15.9920 N   0  0  0  0  0  0  0  0  0  0  0  0
  -30.7403  -12.8682   22.6788 N   0  0  0  0  0  0  0  0  0  0  0  0
  -30.9076  -20.7046   14.5998 N   0  3  0  0  0  0  0  0  0  0  0  0
  -22.5080  -14.6782   20.9904 O   0  0  0  0  0  0  0  0  0  0  0  0
  -32.1527  -26.8746   20.1292 O   0  0  0  0  0  0  0  0  0  0  0  0
  -31.8135  -26.2815   16.4241 O   0  0  0  0  0  0  0  0  0  0  0  0
  -30.1226  -21.8887   17.0283 O   0  0  0  0  0  0  0  0  0  0  0  0
  -32.2534  -13.2387   20.9965 O   0  0  0  0  0  0  0  0  0  0  0  0
  -21.7253   -6.9594   21.6191 O   0  0  0  0  0  0  0  0  0  0  0  0
  -30.5564  -19.1440   21.7009 O   0  0  0  0  0  0  0  0  0  0  0  0
  -33.5505  -21.0297   22.8475 O   0  0  0  0  0  0  0  0  0  1  0  0
  -33.0954  -18.2895   22.4643 O   0  0  0  0  0  0  0  0  0  0  0  0
  -18.1716   -6.8657   25.8341 F   0  0  0  0  0  0  0  0  0  0  0  0
  -22.0025   -5.1235   23.6673 F   0  0  0  0  0  0  0  0  0  0  0  0
  1  2  1  0  0  0  0
  1  5  2  0  0  0  0
  2  6  2  0  0  0  0
  3  8  2  0  0  0  0
  3 16  1  0  0  0  0
  4  9  1  0  0  0  0
  4 16  2  0  0  0  0
  5 18  1  0  0  0  0
  6 20  1  0  0  0  0
  7 10  2  0  0  0  0
  7 19  1  0  0  0  0
  8 25  1  0  0  0  0
  9 25  2  0  0  0  0
 10 26  1  0  0  0  0
 11 12  2  0  0  0  0
 11 27  1  0  0  0  0
 12 30  1  0  0  0  0
 13 21  1  0  0  0  0
 13 26  2  0  0  0  0
 14 24  2  0  0  0  0
 14 28  1  0  0  0  0
 15 30  2  0  0  0  0
 15 31  1  0  0  0  0
 16 32  1  0  0  0  0
 17 32  1  0  0  0  0
 17 33  2  0  0  0  0
 17 34  1  0  0  0  0
 18 20  2  0  0  0  0
 18 39  1  0  0  0  0
 19 21  2  0  0  0  0
 19 40  1  0  0  0  0
 20 51  1  0  0  0  0
 21 43  1  0  0  0  0
 22 23  2  0  0  0  0
 22 24  1  0  0  0  0
 22 41  1  0  0  0  0
 23 29  1  0  0  0  0
 23 42  1  0  0  0  0
 24 60  1  0  0  0  0
 25 82  1  0  0  0  0
 26 84  1  0  0  0  0
 27 31  2  0  0  0  0
 27 82  1  0  0  0  0
 28 29  2  0  0  0  0
 28 85  1  0  0  0  0
 29 83  1  0  0  0  0
 30 86  1  0  0  0  0
 31 87  1  0  0  0  0
 32 67  2  0  0  0  0
 33 68  1  0  0  0  0
 33 71  1  0  0  0  0
 34 72  1  0  0  0  0
 34 77  2  0  0  0  0
 35 52  1  0  0  0  0
 35 73  1  0  0  0  0
 35 78  2  0  0  0  0
 36 64  1  0  0  0  0
 36 69  1  0  0  0  0
 36 79  2  0  0  0  0
 37 65  1  0  0  0  0
 37 74  1  0  0  0  0
 37 80  2  0  0  0  0
 38 70  1  0  0  0  0
 38 75  1  0  0  0  0
 38 81  2  0  0  0  0
 39 44  1  0  0  0  0
 40 52  1  0  0  0  0
 41 45  1  0  0  0  0
 42 45  1  0  0  0  0
 43 69  1  0  0  0  0
 44 47  1  0  0  0  0
 46 48  1  0  0  0  0
 46 49  1  0  0  0  0
 47 51  1  0  0  0  0
 48 53  1  0  0  0  0
 49 70  1  0  0  0  0
 50 53  1  0  0  0  0
 50 70  1  0  0  0  0
 51 73  1  0  0  0  0
 52 69  1  0  0  0  0
 53 68  1  0  0  0  0
 54 65  1  0  0  0  0
 55 66  1  0  0  0  0
 56 66  1  0  0  0  0
 57 66  1  0  0  0  0
 58 76  1  0  0  0  0
 59 83  1  0  0  0  0
 60 61  1  0  0  0  0
 61 75  1  0  0  0  0
 62 63  1  0  0  0  0
 62 84  1  0  0  0  0
 63 85  1  0  0  0  0
 64 66  1  0  0  0  0
 64 74  1  0  0  0  0
 65 76  1  0  0  0  0
 67 68  1  0  0  0  0
M  CHG  1  76   1
M  ISO  4  38 100  62 101  75 100  84 101
M  END
> <Batch ID>
0154

> <Smiles>
CNC(C)C(=O)NC(C(=O)N1Cc2cc([101O:1][101CH2:1]COc3cc(CC[100NH:0][100C:0](=O)N4CCCC(n5nc(-c6ccc(Oc7ccc(F)cc7F)cc6)c(C(N)=O)c5N)C4)c4c(c3OC)CCC4)ccc2CC1C(=O)NC1CCCc2ccccc21)C(C)(C)C

> <Shape>
0.194

> <Color>
0.171

> <Negative vol penalty>
0.000

$$$$

  -OEChem-04052321513D

 85 93  0     1  0  0  0  0  0999 V2000
  -29.2384  -31.9116   25.9662 C   0  0  0  0  0  0  0  0  0  0  0  0
  -29.1756  -30.8703   25.0457 C   0  0  0  0  0  0  0  0  0  0  0  0
  -23.9086   -9.2590   21.2652 C   0  0  0  0  0  0  0  0  0  0  0  0
  -22.9655  -11.4476   21.6620 C   0  0  0  0  0  0  0  0  0  0  0  0
  -28.1189  -32.2306   26.7336 C   0  0  0  0  0  0  0  0  0  0  0  0
  -27.9935  -30.1467   24.8929 C   0  0  0  0  0  0  0  0  0  0  0  0
  -26.8045  -29.3724   20.0316 C   0  0  0  0  0  0  0  0  0  0  0  0
  -23.0752   -8.7218   22.2462 C   0  0  0  0  0  0  0  0  0  0  0  0
  -22.1319  -10.9104   22.6431 C   0  0  0  0  0  0  0  0  0  0  0  0
  -27.4982  -28.3674   19.3588 C   0  0  0  0  0  0  0  0  0  0  0  0
  -19.8414   -7.7730   22.5210 C   0  0  0  0  0  0  0  0  0  0  0  0
  -19.1817   -6.5794   22.2286 C   0  0  0  0  0  0  0  0  0  0  0  0
  -25.6277  -26.8763   19.6700 C   0  0  0  0  0  0  0  0  0  0  0  0
  -27.5416  -18.2678   20.8575 C   0  0  0  0  0  0  0  0  0  0  0  0
  -20.2780   -5.5150   24.1000 C   0  0  0  0  0  0  0  0  0  0  0  0
  -23.8538  -10.6218   20.9731 C   0  0  0  0  0  0  0  0  0  0  0  0
  -24.4375  -11.3072   18.5862 C   0  0  0  0  0  0  0  0  0  0  0  0
  -26.9195  -31.5168   26.5831 C   0  0  0  0  0  0  0  0  0  0  0  0
  -25.5194  -29.1330   20.5391 C   0  0  0  0  0  0  0  0  0  0  0  0
  -26.8573  -30.4556   25.6599 C   0  0  0  0  0  0  0  0  0  0  0  0
  -24.9188  -27.8806   20.3467 C   0  0  0  0  0  0  0  0  0  0  0  0
  -27.5500  -19.6538   20.9680 C   0  0  0  0  0  0  0  0  0  0  0  0
  -28.7556  -20.3435   20.9041 C   0  0  0  0  0  0  0  0  0  0  0  0
  -22.1868   -9.5476   22.9351 C   0  0  0  0  0  0  0  0  0  0  0  0
  -26.9109  -27.1183   19.1804 C   0  0  0  0  0  0  0  0  0  0  0  0
  -20.7195   -7.8377   23.6028 C   0  0  0  0  0  0  0  0  0  0  0  0
  -19.4000   -5.4504   23.0181 C   0  0  0  0  0  0  0  0  0  0  0  0
  -20.9378   -6.7087   24.3924 C   0  0  0  0  0  0  0  0  0  0  0  0
  -24.7150  -11.1774   19.9602 C   0  0  0  0  0  0  0  0  0  0  0  0
  -29.9159  -19.6065   20.7300 C   0  0  0  0  0  0  0  0  0  0  0  0
  -28.7563  -17.6237   20.6853 C   0  0  0  0  0  0  0  0  0  0  0  0
  -25.5655  -11.8893   18.0616 C   0  0  0  0  0  0  0  0  0  0  0  0
  -23.2649  -10.9349   17.8499 C   0  0  0  0  0  0  0  0  0  0  0  0
  -24.2160  -29.1362   23.4383 C   0  0  0  0  0  0  0  0  0  0  0  0
  -21.4657  -28.6928   21.7766 C   0  0  0  0  0  0  0  0  0  0  0  0
  -19.9505  -27.6013   18.9200 C   0  0  0  0  0  0  0  0  0  0  0  0
  -29.8297  -15.3629   20.3975 C   0  0  0  0  0  0  0  0  0  0  0  0
  -25.7501  -31.8676   27.4686 C   0  0  0  0  0  0  0  0  0  0  0  0
  -24.7738  -30.2358   21.2392 C   0  0  0  0  0  0  0  0  0  0  0  0
  -23.5333  -27.5792   20.8545 C   0  0  0  0  0  0  0  0  0  0  0  0
  -24.4222  -31.2954   26.9790 C   0  0  0  0  0  0  0  0  0  0  0  0
  -30.2881  -12.2231   18.7823 C   0  0  0  0  0  0  0  0  0  0  0  0
  -24.5823  -29.8276   26.5958 C   0  0  0  0  0  0  0  0  0  0  0  0
  -28.8846  -11.6131   18.7706 C   0  0  0  0  0  0  0  0  0  0  0  0
  -30.5542  -13.0093   20.0649 C   0  0  0  0  0  0  0  0  0  0  0  0
  -28.1450  -13.4195   20.3758 C   0  0  0  0  0  0  0  0  0  0  0  0
  -25.5854  -29.6635   25.4476 C   0  0  1  0  0  0  0  0  0  0  0  0
  -23.6752  -29.7209   22.1641 C   0  0  1  0  0  0  0  0  0  0  0  0
  -27.8072  -12.6723   19.0754 C   0  0  2  0  0  0  0  0  0  0  0  0
  -26.2567  -20.3761   21.1549 C   0  0  0  0  0  0  0  0  0  0  0  0
  -31.2408  -20.2931   20.6552 C   0  0  0  0  0  0  0  0  0  0  0  0
  -29.5741  -22.2919   22.2707 C   0  0  0  0  0  0  0  0  0  0  0  0
  -17.6872  -27.3319   17.8700 C   0  0  0  0  0  0  0  0  0  0  0  0
  -20.9409  -26.2575   23.5384 C   0  0  0  0  0  0  0  0  0  0  0  0
  -19.2307  -25.5067   21.8710 C   0  0  0  0  0  0  0  0  0  0  0  0
  -18.9266  -27.6672   23.0803 C   0  0  0  0  0  0  0  0  0  0  0  0
  -20.6419  -29.4171   16.6876 C   0  0  0  0  0  0  0  0  0  0  0  0
  -29.5369  -24.7307   18.5843 C   0  0  0  0  0  0  0  0  0  0  0  0
  -29.3791  -22.5401   19.7739 C   0  0  0  0  0  0  0  0  0  0  0  0
  -29.0099  -26.1517   18.6182 C   0  0  0  0  0  0  0  0  0  1  0  0
  -28.7965  -21.8625   21.0210 C   0  0  1  0  0  0  0  0  0  0  0  0
  -20.6964  -27.4911   21.2835 C   0  0  1  0  0  0  0  0  0  0  0  0
  -18.8973  -28.2387   18.0317 C   0  0  2  0  0  0  0  0  0  0  0  0
  -19.9756  -26.7354   22.4353 C   0  0  0  0  0  0  0  0  0  0  0  0
  -25.9245  -11.6397   20.2880 N   0  0  0  0  0  0  0  0  0  0  0  0
  -29.9474  -18.2596   20.6185 N   0  0  0  0  0  0  0  0  0  0  0  0
  -26.4170  -12.0656   19.1123 N   0  0  0  0  0  0  0  0  0  0  0  0
  -22.8473  -28.6881   21.5381 N   0  0  0  0  0  0  0  0  0  0  0  0
  -29.4954  -13.9966   20.2863 N   0  0  0  0  0  0  0  0  0  0  0  0
  -25.9021  -12.2624   16.8087 N   0  0  0  0  0  0  0  0  0  0  0  0
  -22.1981  -10.3484   18.5444 N   0  0  0  0  0  0  0  0  0  0  0  0
  -28.7371  -16.2113   20.5739 N   0  0  0  0  0  0  0  0  0  0  0  0
  -24.9720  -30.0188   24.1859 N   0  0  0  0  0  0  0  0  0  0  0  0
  -19.8034  -27.9789   20.2380 N   0  0  0  0  0  0  0  0  0  0  0  0
  -19.4596  -28.5175   16.6800 N   0  3  0  0  0  0  0  0  0  0  0  0
  -28.9570  -23.9658   19.7169 N   0  3  0  0  0  0  0  0  0  0  0  0
  -23.1726  -11.1019   16.6101 O   0  0  0  0  0  0  0  0  0  0  0  0
  -23.9647  -27.9711   23.7228 O   0  0  0  0  0  0  0  0  0  0  0  0
  -20.8618  -29.6054   22.3458 O   0  0  0  0  0  0  0  0  0  0  0  0
  -20.8147  -26.8414   18.4886 O   0  0  0  0  0  0  0  0  0  0  0  0
  -30.9965  -15.7545   20.3130 O   0  0  0  0  0  0  0  0  0  0  0  0
  -21.3731   -9.0237   23.8923 O   0  0  0  0  0  0  0  0  0  0  0  0
  -27.5861  -26.1354   18.5246 O   0  0  0  0  0  0  0  0  0  1  0  0
  -18.7652   -4.3046   22.7382 F   0  0  0  0  0  0  0  0  0  0  0  0
  -21.7793   -6.7651   25.4338 F   0  0  0  0  0  0  0  0  0  0  0  0
  1  2  1  0  0  0  0
  1  5  2  0  0  0  0
  2  6  2  0  0  0  0
  3  8  2  0  0  0  0
  3 16  1  0  0  0  0
  4  9  1  0  0  0  0
  4 16  2  0  0  0  0
  5 18  1  0  0  0  0
  6 20  1  0  0  0  0
  7 10  2  0  0  0  0
  7 19  1  0  0  0  0
  8 24  1  0  0  0  0
  9 24  2  0  0  0  0
 10 25  1  0  0  0  0
 11 12  2  0  0  0  0
 11 26  1  0  0  0  0
 12 27  1  0  0  0  0
 13 21  1  0  0  0  0
 13 25  2  0  0  0  0
 14 22  2  0  0  0  0
 14 31  1  0  0  0  0
 15 27  2  0  0  0  0
 15 28  1  0  0  0  0
 16 29  1  0  0  0  0
 17 29  1  0  0  0  0
 17 32  2  0  0  0  0
 17 33  1  0  0  0  0
 18 20  2  0  0  0  0
 18 38  1  0  0  0  0
 19 21  2  0  0  0  0
 19 39  1  0  0  0  0
 20 47  1  0  0  0  0
 21 40  1  0  0  0  0
 22 23  1  0  0  0  0
 22 50  1  0  0  0  0
 23 30  2  0  0  0  0
 23 61  1  0  0  0  0
 24 82  1  0  0  0  0
 25 83  1  0  0  0  0
 26 28  2  0  0  0  0
 26 82  1  0  0  0  0
 27 84  1  0  0  0  0
 28 85  1  0  0  0  0
 29 65  2  0  0  0  0
 30 51  1  0  0  0  0
 30 66  1  0  0  0  0
 31 66  2  0  0  0  0
 31 72  1  0  0  0  0
 32 67  1  0  0  0  0
 32 70  1  0  0  0  0
 33 71  1  0  0  0  0
 33 77  2  0  0  0  0
 34 48  1  0  0  0  0
 34 73  1  0  0  0  0
 34 78  2  0  0  0  0
 35 62  1  0  0  0  0
 35 68  1  0  0  0  0
 35 79  2  0  0  0  0
 36 63  1  0  0  0  0
 36 74  1  0  0  0  0
 36 80  2  0  0  0  0
 37 69  1  0  0  0  0
 37 72  1  0  0  0  0
 37 81  2  0  0  0  0
 38 41  1  0  0  0  0
 39 48  1  0  0  0  0
 40 68  1  0  0  0  0
 41 43  1  0  0  0  0
 42 44  1  0  0  0  0
 42 45  1  0  0  0  0
 43 47  1  0  0  0  0
 44 49  1  0  0  0  0
 45 69  1  0  0  0  0
 46 49  1  0  0  0  0
 46 69  1  0  0  0  0
 47 73  1  0  0  0  0
 48 68  1  0  0  0  0
 49 67  1  0  0  0  0
 52 61  1  0  0  0  0
 53 63  1  0  0  0  0
 54 64  1  0  0  0  0
 55 64  1  0  0  0  0
 56 64  1  0  0  0  0
 57 75  1  0  0  0  0
 58 60  1  0  0  0  0
 58 76  1  0  0  0  0
 59 61  1  0  0  0  0
 59 76  1  0  0  0  0
 60 83  1  0  0  0  0
 62 64  1  0  0  0  0
 62 74  1  0  0  0  0
 63 75  1  0  0  0  0
 65 67  1  0  0  0  0
M  CHG  2  75   1  76   1
M  ISO  4  37 100  60 101  72 100  83 101
M  END
> <Batch ID>
0154

> <Smiles>
CNC(C)C(=O)NC(C(=O)N1Cc2cc([101O:1][101CH2:1]CNCC(C)c3c(C)cc([100NH:0][100C:0](=O)N4CCCC(n5nc(-c6ccc(Oc7ccc(F)cc7F)cc6)c(C(N)=O)c5N)C4)nc3C)ccc2CC1C(=O)NC1CCCc2ccccc21)C(C)(C)C

> <Shape>
0.338

> <Color>
0.077

> <Negative vol penalty>
0.000

$$$$

  -OEChem-04052321513D

 87 96  0     1  0  0  0  0  0999 V2000
  -30.7339  -34.4761   20.0115 C   0  0  0  0  0  0  0  0  0  0  0  0
  -30.5311  -33.1115   19.8316 C   0  0  0  0  0  0  0  0  0  0  0  0
  -22.9913   -9.9765   20.4858 C   0  0  0  0  0  0  0  0  0  0  0  0
  -23.7297  -10.3629   22.7535 C   0  0  0  0  0  0  0  0  0  0  0  0
  -30.2284  -35.1113   21.1450 C   0  0  0  0  0  0  0  0  0  0  0  0
  -29.8236  -32.3812   20.7858 C   0  0  0  0  0  0  0  0  0  0  0  0
  -26.0921  -27.6336   19.7650 C   0  0  0  0  0  0  0  0  0  0  0  0
  -22.2100   -8.9068   20.9224 C   0  0  0  0  0  0  0  0  0  0  0  0
  -22.9483   -9.2932   23.1902 C   0  0  0  0  0  0  0  0  0  0  0  0
  -26.2818  -26.2553   19.8546 C   0  0  0  0  0  0  0  0  0  0  0  0
  -19.6916   -8.7062   23.8758 C   0  0  0  0  0  0  0  0  0  0  0  0
  -18.9230   -8.8936   25.0245 C   0  0  0  0  0  0  0  0  0  0  0  0
  -25.3478  -26.2775   22.0787 C   0  0  0  0  0  0  0  0  0  0  0  0
  -29.9308  -19.0123   22.4029 C   0  0  0  0  0  0  0  0  0  0  0  0
  -20.0971   -7.0801   26.1060 C   0  0  0  0  0  0  0  0  0  0  0  0
  -23.7513  -10.7045   21.4013 C   0  0  0  0  0  0  0  0  0  0  0  0
  -24.1720  -13.1588   20.8471 C   0  0  0  0  0  0  0  0  0  0  0  0
  -29.5060  -34.3903   22.1088 C   0  0  0  0  0  0  0  0  0  0  0  0
  -25.5380  -28.3471   20.8375 C   0  0  0  0  0  0  0  0  0  0  0  0
  -29.3091  -33.0072   21.9339 C   0  0  0  0  0  0  0  0  0  0  0  0
  -25.1498  -27.6644   21.9991 C   0  0  0  0  0  0  0  0  0  0  0  0
  -28.2849  -20.3865   21.2897 C   0  0  0  0  0  0  0  0  0  0  0  0
  -29.0752  -20.1139   22.4063 C   0  0  0  0  0  0  0  0  0  0  0  0
  -29.9962  -18.1833   21.2830 C   0  0  0  0  0  0  0  0  0  0  0  0
  -28.3502  -19.5576   20.1697 C   0  0  0  0  0  0  0  0  0  0  0  0
  -29.2059  -18.4559   20.1664 C   0  0  0  0  0  0  0  0  0  0  0  0
  -22.1884   -8.5651   22.2746 C   0  0  0  0  0  0  0  0  0  0  0  0
  -25.9123  -25.5774   21.0127 C   0  0  0  0  0  0  0  0  0  0  0  0
  -20.6630   -7.7057   23.8421 C   0  0  0  0  0  0  0  0  0  0  0  0
  -19.1257   -8.0806   26.1396 C   0  0  0  0  0  0  0  0  0  0  0  0
  -20.8658   -6.8927   24.9572 C   0  0  0  0  0  0  0  0  0  0  0  0
  -24.5591  -11.8093   20.9508 C   0  0  0  0  0  0  0  0  0  0  0  0
  -25.2900  -13.8015   20.3744 C   0  0  0  0  0  0  0  0  0  0  0  0
  -22.9142  -13.7763   21.1510 C   0  0  0  0  0  0  0  0  0  0  0  0
  -26.5511  -30.6838   22.7393 C   0  0  0  0  0  0  0  0  0  0  0  0
  -23.5003  -30.5850   23.8370 C   0  0  0  0  0  0  0  0  0  0  0  0
  -20.6285  -28.7893   24.2554 C   0  0  0  0  0  0  0  0  0  0  0  0
  -30.8006  -14.6797   20.4616 C   0  0  0  0  0  0  0  0  0  0  0  0
  -29.0195  -35.1113   23.3409 C   0  0  0  0  0  0  0  0  0  0  0  0
  -25.3152  -29.8295   20.7148 C   0  0  0  0  0  0  0  0  0  0  0  0
  -24.5319  -28.3810   23.1710 C   0  0  0  0  0  0  0  0  0  0  0  0
  -27.9584  -34.3383   24.1199 C   0  0  0  0  0  0  0  0  0  0  0  0
  -29.6122  -11.9479   18.5117 C   0  0  0  0  0  0  0  0  0  0  0  0
  -28.3780  -32.8820   24.2925 C   0  0  0  0  0  0  0  0  0  0  0  0
  -28.1625  -11.7760   18.9683 C   0  0  0  0  0  0  0  0  0  0  0  0
  -30.5245  -12.3491   19.6688 C   0  0  0  0  0  0  0  0  0  0  0  0
  -28.6334  -13.3659   20.8786 C   0  0  0  0  0  0  0  0  0  0  0  0
  -26.1500  -22.8137   23.0308 C   0  0  0  0  0  0  0  0  0  0  0  0
  -28.5254  -32.1855   22.9343 C   0  0  1  0  0  0  0  0  0  0  0  0
  -27.3730  -21.5626   21.2958 C   0  0  2  0  0  0  0  0  0  0  0  0
  -25.2169  -30.5328   22.0650 C   0  0  1  0  0  0  0  0  0  0  0  0
  -28.0843  -22.8862   21.6261 C   0  0  2  0  0  0  0  0  0  0  0  0
  -27.6653  -13.0160   19.7355 C   0  0  2  0  0  0  0  0  0  0  0  0
  -26.9449  -23.7619   22.1501 C   0  0  1  0  0  0  0  0  0  1  0  0
  -29.0238  -20.9853   23.6184 C   0  0  0  0  0  0  0  0  0  0  0  0
  -27.5029  -19.8504   18.9718 C   0  0  0  0  0  0  0  0  0  0  0  0
  -29.2774  -17.5647   18.9670 C   0  0  0  0  0  0  0  0  0  0  0  0
  -28.8306  -23.4695   20.4329 C   0  0  0  0  0  0  0  0  0  0  0  0
  -18.3188  -28.9642   25.2209 C   0  0  0  0  0  0  0  0  0  0  0  0
  -24.6532  -30.2749   26.6450 C   0  0  0  0  0  0  0  0  0  0  0  0
  -22.3951  -29.5134   27.4127 C   0  0  0  0  0  0  0  0  0  0  0  0
  -22.6867  -31.8121   26.4886 C   0  0  0  0  0  0  0  0  0  0  0  0
  -19.3658  -28.3300   21.6184 C   0  0  0  0  0  0  0  0  0  0  0  0
  -30.9213  -17.0107   21.3047 C   0  0  0  0  0  0  0  0  0  0  0  0
  -22.7799  -29.8269   24.9257 C   0  0  1  0  0  0  0  0  0  0  0  0
  -19.1763  -29.1323   23.9762 C   0  0  2  0  0  0  0  0  0  0  0  0
  -23.1421  -30.3433   26.3468 C   0  0  0  0  0  0  0  0  0  0  0  0
  -25.8242  -11.6054   20.5741 N   0  0  0  0  0  0  0  0  0  0  0  0
  -26.2417  -12.8354   20.2290 N   0  0  0  0  0  0  0  0  0  0  0  0
  -24.3403  -29.8313   23.0051 N   0  0  0  0  0  0  0  0  0  0  0  0
  -29.9978  -13.5322   20.3534 N   0  0  0  0  0  0  0  0  0  0  0  0
  -25.5421  -15.0930   20.0731 N   0  0  0  0  0  0  0  0  0  0  0  0
  -21.8716  -12.9697   21.6271 N   0  0  0  0  0  0  0  0  0  0  0  0
  -27.2255  -31.8410   22.3994 N   0  0  0  0  0  0  0  0  0  0  0  0
  -21.3586  -29.9052   24.6058 N   0  0  0  0  0  0  0  0  0  0  0  0
  -30.2226  -15.7583   21.1197 N   0  0  0  0  0  0  0  0  0  0  0  0
  -26.3021  -21.4687   22.3686 N   0  3  0  0  0  0  0  0  0  0  0  0
  -18.6315  -28.2483   22.9073 N   0  3  0  0  0  0  0  0  0  0  0  0
  -22.7155  -15.0042   20.9890 O   0  0  0  0  0  0  0  0  0  0  0  0
  -26.9393  -29.8155   23.5120 O   0  0  0  0  0  0  0  0  0  0  0  0
  -23.3187  -31.7999   23.7243 O   0  0  0  0  0  0  0  0  0  0  0  0
  -21.0701  -27.6452   24.1746 O   0  0  0  0  0  0  0  0  0  0  0  0
  -31.9456  -14.7403   20.0009 O   0  0  0  0  0  0  0  0  0  0  0  0
  -21.4259   -7.5215   22.7011 O   0  0  0  0  0  0  0  0  0  0  0  0
  -26.0970  -24.2322   21.1031 O   0  0  0  0  0  0  0  0  0  1  0  0
  -18.3885   -8.2616   27.2433 F   0  0  0  0  0  0  0  0  0  0  0  0
  -21.7983   -5.9306   24.9312 F   0  0  0  0  0  0  0  0  0  0  0  0
  1  2  1  0  0  0  0
  1  5  2  0  0  0  0
  2  6  2  0  0  0  0
  3  8  2  0  0  0  0
  3 16  1  0  0  0  0
  4  9  1  0  0  0  0
  4 16  2  0  0  0  0
  5 18  1  0  0  0  0
  6 20  1  0  0  0  0
  7 10  2  0  0  0  0
  7 19  1  0  0  0  0
  8 27  1  0  0  0  0
  9 27  2  0  0  0  0
 10 28  1  0  0  0  0
 11 12  2  0  0  0  0
 11 29  1  0  0  0  0
 12 30  1  0  0  0  0
 13 21  1  0  0  0  0
 13 28  2  0  0  0  0
 14 23  2  0  0  0  0
 14 24  1  0  0  0  0
 15 30  2  0  0  0  0
 15 31  1  0  0  0  0
 16 32  1  0  0  0  0
 17 32  1  0  0  0  0
 17 33  2  0  0  0  0
 17 34  1  0  0  0  0
 18 20  2  0  0  0  0
 18 39  1  0  0  0  0
 19 21  2  0  0  0  0
 19 40  1  0  0  0  0
 20 49  1  0  0  0  0
 21 41  1  0  0  0  0
 22 23  1  0  0  0  0
 22 25  2  0  0  0  0
 22 50  1  0  0  0  0
 23 55  1  0  0  0  0
 24 26  2  0  0  0  0
 24 64  1  0  0  0  0
 25 26  1  0  0  0  0
 25 56  1  0  0  0  0
 26 57  1  0  0  0  0
 27 84  1  0  0  0  0
 28 85  1  0  0  0  0
 29 31  2  0  0  0  0
 29 84  1  0  0  0  0
 30 86  1  0  0  0  0
 31 87  1  0  0  0  0
 32 68  2  0  0  0  0
 33 69  1  0  0  0  0
 33 72  1  0  0  0  0
 34 73  1  0  0  0  0
 34 79  2  0  0  0  0
 35 51  1  0  0  0  0
 35 74  1  0  0  0  0
 35 80  2  0  0  0  0
 36 65  1  0  0  0  0
 36 70  1  0  0  0  0
 36 81  2  0  0  0  0
 37 66  1  0  0  0  0
 37 75  1  0  0  0  0
 37 82  2  0  0  0  0
 38 71  1  0  0  0  0
 38 76  1  0  0  0  0
 38 83  2  0  0  0  0
 39 42  1  0  0  0  0
 40 51  1  0  0  0  0
 41 70  1  0  0  0  0
 42 44  1  0  0  0  0
 43 45  1  0  0  0  0
 43 46  1  0  0  0  0
 44 49  1  0  0  0  0
 45 53  1  0  0  0  0
 46 71  1  0  0  0  0
 47 53  1  0  0  0  0
 47 71  1  0  0  0  0
 48 54  1  0  0  0  0
 48 77  1  0  0  0  0
 49 74  1  0  0  0  0
 50 52  1  0  0  0  0
 50 77  1  0  0  0  0
 51 70  1  0  0  0  0
 52 54  1  0  0  0  0
 52 58  1  0  0  0  0
 53 69  1  0  0  0  0
 54 85  1  0  0  0  0
 59 66  1  0  0  0  0
 60 67  1  0  0  0  0
 61 67  1  0  0  0  0
 62 67  1  0  0  0  0
 63 78  1  0  0  0  0
 64 76  1  0  0  0  0
 65 67  1  0  0  0  0
 65 75  1  0  0  0  0
 66 78  1  0  0  0  0
 68 69  1  0  0  0  0
M  CHG  2  77   1  78   1
M  ISO  4  38 100  54 101  76 100  85 101
M  END
> <Batch ID>
0154

> <Smiles>
CNC(C)C(=O)NC(C(=O)N1Cc2cc([101O:1][101CH:1]3CNC(c4c(C)cc(C[100NH:0][100C:0](=O)N5CCCC(n6nc(-c7ccc(Oc8ccc(F)cc8F)cc7)c(C(N)=O)c6N)C5)c(C)c4C)C3C)ccc2CC1C(=O)NC1CCCc2ccccc21)C(C)(C)C

> <Shape>
0.324

> <Color>
0.185

> <Negative vol penalty>
0.000

$$$$

  -OEChem-04052321513D

 87 96  0     1  0  0  0  0  0999 V2000
  -17.4297  -22.2544   30.6901 C   0  0  0  0  0  0  0  0  0  0  0  0
  -18.3670  -21.9693   29.7024 C   0  0  0  0  0  0  0  0  0  0  0  0
  -23.0170   -9.9141   19.9344 C   0  0  0  0  0  0  0  0  0  0  0  0
  -23.8259   -9.8340   22.2095 C   0  0  0  0  0  0  0  0  0  0  0  0
  -16.4550  -23.2256   30.4650 C   0  0  0  0  0  0  0  0  0  0  0  0
  -18.3295  -22.6545   28.4885 C   0  0  0  0  0  0  0  0  0  0  0  0
  -22.9152  -24.1817   26.9773 C   0  0  0  0  0  0  0  0  0  0  0  0
  -22.2701   -8.7577   20.1592 C   0  0  0  0  0  0  0  0  0  0  0  0
  -23.0790   -8.6776   22.4344 C   0  0  0  0  0  0  0  0  0  0  0  0
  -23.7481  -23.2229   26.4020 C   0  0  0  0  0  0  0  0  0  0  0  0
  -23.3333   -5.3758   21.7529 C   0  0  0  0  0  0  0  0  0  0  0  0
  -23.9564   -4.3214   22.4204 C   0  0  0  0  0  0  0  0  0  0  0  0
  -23.1608  -24.0375   24.2087 C   0  0  0  0  0  0  0  0  0  0  0  0
  -27.2105  -20.9856   23.7206 C   0  0  0  0  0  0  0  0  0  0  0  0
  -22.2933   -4.4452   24.1685 C   0  0  0  0  0  0  0  0  0  0  0  0
  -23.7950  -10.4522   20.9595 C   0  0  0  0  0  0  0  0  0  0  0  0
  -24.1528  -12.9777   20.9221 C   0  0  0  0  0  0  0  0  0  0  0  0
  -16.4115  -23.9299   29.2515 C   0  0  0  0  0  0  0  0  0  0  0  0
  -22.1893  -25.0699   26.1708 C   0  0  0  0  0  0  0  0  0  0  0  0
  -17.3525  -23.6351   28.2465 C   0  0  0  0  0  0  0  0  0  0  0  0
  -22.3214  -25.0083   24.7762 C   0  0  0  0  0  0  0  0  0  0  0  0
  -26.0940  -19.0122   24.6094 C   0  0  0  0  0  0  0  0  0  0  0  0
  -26.9507  -18.1946   23.8475 C   0  0  0  0  0  0  0  0  0  0  0  0
  -26.2362  -20.4086   24.5344 C   0  0  0  0  0  0  0  0  0  0  0  0
  -28.0586  -20.1758   22.9726 C   0  0  0  0  0  0  0  0  0  0  0  0
  -22.3011   -8.1395   21.4092 C   0  0  0  0  0  0  0  0  0  0  0  0
  -23.8687  -23.1488   25.0175 C   0  0  0  0  0  0  0  0  0  0  0  0
  -22.1902   -5.9650   22.2932 C   0  0  0  0  0  0  0  0  0  0  0  0
  -27.9332  -18.7890   23.0392 C   0  0  0  0  0  0  0  0  0  0  0  0
  -23.4365   -3.8561   23.6281 C   0  0  0  0  0  0  0  0  0  0  0  0
  -21.6702   -5.4997   23.5010 C   0  0  0  0  0  0  0  0  0  0  0  0
  -24.5671  -11.6464   20.7277 C   0  0  0  0  0  0  0  0  0  0  0  0
  -25.2425  -13.7325   20.5621 C   0  0  0  0  0  0  0  0  0  0  0  0
  -22.8955  -13.4867   21.3866 C   0  0  0  0  0  0  0  0  0  0  0  0
  -19.1015  -25.6547   25.6940 C   0  0  0  0  0  0  0  0  0  0  0  0
  -20.2424  -28.0916   23.8823 C   0  0  0  0  0  0  0  0  0  0  0  0
  -22.8134  -29.3765   22.0423 C   0  0  0  0  0  0  0  0  0  0  0  0
  -30.7364  -14.7077   20.6677 C   0  0  0  0  0  0  0  0  0  0  0  0
  -15.3102  -24.9376   29.0361 C   0  0  0  0  0  0  0  0  0  0  0  0
  -21.3158  -26.1158   26.8076 C   0  0  0  0  0  0  0  0  0  0  0  0
  -26.8941  -16.6896   23.9254 C   0  0  0  0  0  0  0  0  0  0  0  0
  -21.5792  -25.9520   23.8668 C   0  0  0  0  0  0  0  0  0  0  0  0
  -15.5696  -25.8826   27.8657 C   0  0  0  0  0  0  0  0  0  0  0  0
  -25.6029  -16.1557   24.5382 C   0  0  0  0  0  0  0  0  0  0  0  0
  -29.5302  -12.4177   18.2227 C   0  0  0  0  0  0  0  0  0  0  0  0
  -25.2469  -16.9375   25.7969 C   0  0  0  0  0  0  0  0  0  0  0  0
  -16.0395  -25.1013   26.6427 C   0  0  0  0  0  0  0  0  0  0  0  0
  -28.1003  -12.1182   18.6760 C   0  0  0  0  0  0  0  0  0  0  0  0
  -30.4745  -12.5893   19.4106 C   0  0  0  0  0  0  0  0  0  0  0  0
  -28.6084  -13.2829   20.8632 C   0  0  0  0  0  0  0  0  0  0  0  0
  -25.0067  -18.4251   25.4906 C   0  0  2  0  0  0  0  0  0  0  0  0
  -17.3597  -24.3745   26.9261 C   0  0  1  0  0  0  0  0  0  0  0  0
  -20.2266  -26.6342   25.8736 C   0  0  1  0  0  0  0  0  0  0  0  0
  -27.6079  -13.1570   19.7015 C   0  0  2  0  0  0  0  0  0  0  0  0
  -29.1007  -20.8107   22.1118 C   0  0  0  0  0  0  0  0  0  0  0  0
  -23.6263  -18.6449   24.8586 C   0  0  0  0  0  0  0  0  0  0  0  0
  -23.4365  -31.3703   20.6516 C   0  0  0  0  0  0  0  0  0  0  0  0
  -18.5216  -27.0319   21.5964 C   0  0  0  0  0  0  0  0  0  0  0  0
  -19.8742  -28.4318   20.0219 C   0  0  0  0  0  0  0  0  0  0  0  0
  -18.5366  -29.5224   21.8229 C   0  0  0  0  0  0  0  0  0  0  0  0
  -25.0541  -30.0783   23.8438 C   0  0  0  0  0  0  0  0  0  0  0  0
  -25.3790  -21.3402   25.3398 C   0  0  0  0  0  0  0  0  0  1  0  0
  -30.8447  -16.8122   21.9786 C   0  0  0  0  0  0  0  0  0  0  0  0
  -30.0054  -17.6258   22.9476 C   0  0  0  0  0  0  0  0  0  0  0  0
  -20.6362  -28.2536   22.4340 C   0  0  1  0  0  0  0  0  0  0  0  0
  -23.4626  -30.7487   22.0393 C   0  0  2  0  0  0  0  0  0  0  0  0
  -19.4048  -28.2907   21.4856 C   0  0  0  0  0  0  0  0  0  0  0  0
  -25.8220  -11.5572   20.2790 N   0  0  0  0  0  0  0  0  0  0  0  0
  -26.2055  -12.8420   20.1883 N   0  0  0  0  0  0  0  0  0  0  0  0
  -20.7328  -26.9529   24.5371 N   0  0  0  0  0  0  0  0  0  0  0  0
  -29.9507  -13.5891   20.3443 N   0  0  0  0  0  0  0  0  0  0  0  0
  -25.4611  -15.0643   20.5320 N   0  0  0  0  0  0  0  0  0  0  0  0
  -21.8843  -12.5727   21.7131 N   0  0  0  0  0  0  0  0  0  0  0  0
  -18.4692  -25.3021   26.8710 N   0  0  0  0  0  0  0  0  0  0  0  0
  -21.4758  -29.4450   22.3701 N   0  0  0  0  0  0  0  0  0  0  0  0
  -30.1623  -15.6098   21.5550 N   0  0  0  0  0  0  0  0  0  0  0  0
  -24.8816  -30.6514   22.4842 N   0  3  0  0  0  0  0  0  0  0  0  0
  -22.6696  -14.7160   21.4928 O   0  0  0  0  0  0  0  0  0  0  0  0
  -18.8263  -25.2500   24.5705 O   0  0  0  0  0  0  0  0  0  0  0  0
  -19.5319  -28.9477   24.4152 O   0  0  0  0  0  0  0  0  0  0  0  0
  -23.4302  -28.3472   21.7765 O   0  0  0  0  0  0  0  0  0  0  0  0
  -31.8636  -14.8917   20.1961 O   0  0  0  0  0  0  0  0  0  0  0  0
  -21.5723   -7.0112   21.6290 O   0  0  0  0  0  0  0  0  0  0  0  0
  -24.6805  -22.2135   24.4534 O   0  0  0  0  0  0  0  0  0  1  0  0
  -28.7892  -18.0094   22.3133 O   0  0  0  0  0  0  0  0  0  0  0  0
  -24.0341   -2.8425   24.2682 F   0  0  0  0  0  0  0  0  0  0  0  0
  -20.5716   -6.0609   24.0244 F   0  0  0  0  0  0  0  0  0  0  0  0
  1  2  1  0  0  0  0
  1  5  2  0  0  0  0
  2  6  2  0  0  0  0
  3  8  2  0  0  0  0
  3 16  1  0  0  0  0
  4  9  1  0  0  0  0
  4 16  2  0  0  0  0
  5 18  1  0  0  0  0
  6 20  1  0  0  0  0
  7 10  2  0  0  0  0
  7 19  1  0  0  0  0
  8 26  1  0  0  0  0
  9 26  2  0  0  0  0
 10 27  1  0  0  0  0
 11 12  2  0  0  0  0
 11 28  1  0  0  0  0
 12 30  1  0  0  0  0
 13 21  1  0  0  0  0
 13 27  2  0  0  0  0
 14 24  1  0  0  0  0
 14 25  2  0  0  0  0
 15 30  2  0  0  0  0
 15 31  1  0  0  0  0
 16 32  1  0  0  0  0
 17 32  1  0  0  0  0
 17 33  2  0  0  0  0
 17 34  1  0  0  0  0
 18 20  2  0  0  0  0
 18 39  1  0  0  0  0
 19 21  2  0  0  0  0
 19 40  1  0  0  0  0
 20 52  1  0  0  0  0
 21 42  1  0  0  0  0
 22 23  1  0  0  0  0
 22 24  2  0  0  0  0
 22 51  1  0  0  0  0
 23 29  2  0  0  0  0
 23 41  1  0  0  0  0
 24 62  1  0  0  0  0
 25 29  1  0  0  0  0
 25 55  1  0  0  0  0
 26 83  1  0  0  0  0
 27 84  1  0  0  0  0
 28 31  2  0  0  0  0
 28 83  1  0  0  0  0
 29 85  1  0  0  0  0
 30 86  1  0  0  0  0
 31 87  1  0  0  0  0
 32 68  2  0  0  0  0
 33 69  1  0  0  0  0
 33 72  1  0  0  0  0
 34 73  1  0  0  0  0
 34 78  2  0  0  0  0
 35 53  1  0  0  0  0
 35 74  1  0  0  0  0
 35 79  2  0  0  0  0
 36 65  1  0  0  0  0
 36 70  1  0  0  0  0
 36 80  2  0  0  0  0
 37 66  1  0  0  0  0
 37 75  1  0  0  0  0
 37 81  2  0  0  0  0
 38 71  1  0  0  0  0
 38 76  1  0  0  0  0
 38 82  2  0  0  0  0
 39 43  1  0  0  0  0
 40 53  1  0  0  0  0
 41 44  1  0  0  0  0
 42 70  1  0  0  0  0
 43 47  1  0  0  0  0
 44 46  1  0  0  0  0
 45 48  1  0  0  0  0
 45 49  1  0  0  0  0
 46 51  1  0  0  0  0
 47 52  1  0  0  0  0
 48 54  1  0  0  0  0
 49 71  1  0  0  0  0
 50 54  1  0  0  0  0
 50 71  1  0  0  0  0
 51 56  1  0  0  0  0
 52 74  1  0  0  0  0
 53 70  1  0  0  0  0
 54 69  1  0  0  0  0
 57 66  1  0  0  0  0
 58 67  1  0  0  0  0
 59 67  1  0  0  0  0
 60 67  1  0  0  0  0
 61 77  1  0  0  0  0
 62 84  1  0  0  0  0
 63 64  1  0  0  0  0
 63 76  1  0  0  0  0
 64 85  1  0  0  0  0
 65 67  1  0  0  0  0
 65 75  1  0  0  0  0
 66 77  1  0  0  0  0
 68 69  1  0  0  0  0
M  CHG  1  77   1
M  ISO  4  38 100  62 101  76 100  84 101
M  END
> <Batch ID>
0154

> <Smiles>
CNC(C)C(=O)NC(C(=O)N1Cc2cc([101O:1][101CH2:1]c3cc(C)c(OCC[100NH:0][100C:0](=O)N4CCCC(n5nc(-c6ccc(Oc7ccc(F)cc7F)cc6)c(C(N)=O)c5N)C4)c4c3C(C)CCC4)ccc2CC1C(=O)NC1CCCc2ccccc21)C(C)(C)C

> <Shape>
0.260

> <Color>
0.221

> <Negative vol penalty>
0.000

$$$$

  -OEChem-04052321513D

 93103  0     1  0  0  0  0  0999 V2000
  -25.8244  -35.3043   23.7083 C   0  0  0  0  0  0  0  0  0  0  0  0
  -26.4213  -34.0932   23.3733 C   0  0  0  0  0  0  0  0  0  0  0  0
  -22.4775  -15.0074   23.1771 C   0  0  0  0  0  0  0  0  0  0  0  0
  -21.9412  -15.4176   20.8574 C   0  0  0  0  0  0  0  0  0  0  0  0
  -30.5254  -21.6615   18.6101 C   0  0  0  0  0  0  0  0  0  0  0  0
  -24.5316  -35.3222   24.2303 C   0  0  0  0  0  0  0  0  0  0  0  0
  -25.7262  -32.8991   23.5611 C   0  0  0  0  0  0  0  0  0  0  0  0
  -30.3250  -20.5027   17.8601 C   0  0  0  0  0  0  0  0  0  0  0  0
  -26.1298  -29.7723   19.5980 C   0  0  0  0  0  0  0  0  0  0  0  0
  -21.3303  -15.6996   23.5648 C   0  0  0  0  0  0  0  0  0  0  0  0
  -20.7939  -16.1098   21.2451 C   0  0  0  0  0  0  0  0  0  0  0  0
  -27.3175  -29.0529   19.4730 C   0  0  0  0  0  0  0  0  0  0  0  0
  -20.3567  -18.9195   23.8942 C   0  0  0  0  0  0  0  0  0  0  0  0
  -20.4759  -19.8370   24.9380 C   0  0  0  0  0  0  0  0  0  0  0  0
  -32.0468  -19.3819   19.1315 C   0  0  0  0  0  0  0  0  0  0  0  0
  -26.2367  -27.1156   20.4206 C   0  0  0  0  0  0  0  0  0  0  0  0
  -18.8532  -18.5887   26.2207 C   0  0  0  0  0  0  0  0  0  0  0  0
  -22.7830  -14.8664   21.8234 C   0  0  0  0  0  0  0  0  0  0  0  0
  -31.4866  -21.6806   19.6208 C   0  0  0  0  0  0  0  0  0  0  0  0
  -24.0802  -12.7747   21.1527 C   0  0  0  0  0  0  0  0  0  0  0  0
  -31.0857  -19.3629   18.1207 C   0  0  0  0  0  0  0  0  0  0  0  0
  -23.8167  -34.1284   24.4156 C   0  0  0  0  0  0  0  0  0  0  0  0
  -24.9878  -29.1710   20.1463 C   0  0  0  0  0  0  0  0  0  0  0  0
  -24.4232  -32.9009   24.0873 C   0  0  0  0  0  0  0  0  0  0  0  0
  -25.0351  -27.8288   20.5492 C   0  0  0  0  0  0  0  0  0  0  0  0
  -32.2472  -20.5408   19.8815 C   0  0  0  0  0  0  0  0  0  0  0  0
  -20.4885  -16.2508   22.5988 C   0  0  0  0  0  0  0  0  0  0  0  0
  -27.3719  -27.7253   19.8869 C   0  0  0  0  0  0  0  0  0  0  0  0
  -19.4856  -17.8366   24.0136 C   0  0  0  0  0  0  0  0  0  0  0  0
  -19.7243  -19.6716   26.1013 C   0  0  0  0  0  0  0  0  0  0  0  0
  -18.7339  -17.6712   25.1769 C   0  0  0  0  0  0  0  0  0  0  0  0
  -23.9682  -14.1519   21.4224 C   0  0  0  0  0  0  0  0  0  0  0  0
  -25.3997  -12.5971   20.8154 C   0  0  0  0  0  0  0  0  0  0  0  0
  -31.6753  -22.9040   20.3887 C   0  0  0  0  0  0  0  0  0  0  0  0
  -23.0808  -11.7478   21.2027 C   0  0  0  0  0  0  0  0  0  0  0  0
  -23.1770  -29.7099   22.7026 C   0  0  0  0  0  0  0  0  0  0  0  0
  -21.3359  -27.3738   21.4081 C   0  0  0  0  0  0  0  0  0  0  0  0
  -21.1264  -24.6476   19.3659 C   0  0  0  0  0  0  0  0  0  0  0  0
  -29.2077  -16.9120   18.7443 C   0  0  0  0  0  0  0  0  0  0  0  0
  -22.4397  -34.1943   25.0271 C   0  0  0  0  0  0  0  0  0  0  0  0
  -23.7069  -29.9527   20.2498 C   0  0  0  0  0  0  0  0  0  0  0  0
  -23.8312  -27.1309   21.1255 C   0  0  0  0  0  0  0  0  0  0  0  0
  -21.6303  -32.9129   24.8450 C   0  0  0  0  0  0  0  0  0  0  0  0
  -31.9745  -16.1428   16.4939 C   0  0  0  0  0  0  0  0  0  0  0  0
  -29.5167  -14.9220   21.9020 C   0  0  0  0  0  0  0  0  0  0  0  0
  -32.1440  -17.6524   16.5890 C   0  0  0  0  0  0  0  0  0  0  0  0
  -22.4793  -31.6923   25.1856 C   0  0  0  0  0  0  0  0  0  0  0  0
  -32.3454  -27.3516   21.4090 C   0  0  0  0  0  0  0  0  0  0  0  0
  -31.3492  -28.1733   20.6394 C   0  0  0  0  0  0  0  0  0  0  0  0
  -28.3032  -13.9929   21.8774 C   0  0  0  0  0  0  0  0  0  0  0  0
  -30.0157  -15.2629   20.5020 C   0  0  0  0  0  0  0  0  0  0  0  0
  -31.2995  -15.7900   17.8104 C   0  0  0  0  0  0  0  0  0  0  0  0
  -27.5815  -15.5985   20.0435 C   0  0  0  0  0  0  0  0  0  0  0  0
  -30.8676  -18.1062   17.3082 C   0  0  1  0  0  0  0  0  0  0  0  0
  -23.6921  -31.5863   24.2532 C   0  0  1  0  0  0  0  0  0  0  0  0
  -22.7489  -29.3939   21.2974 C   0  0  1  0  0  0  0  0  0  0  0  0
  -30.8738  -27.0802   21.5558 C   0  0  0  0  0  0  0  0  0  0  0  0
  -27.4249  -14.1879   20.6278 C   0  0  2  0  0  0  0  0  0  0  0  0
  -33.2826  -20.5334   20.9584 C   0  0  0  0  0  0  0  0  0  0  0  0
  -30.0058  -23.2354   23.9616 C   0  0  0  0  0  0  0  0  0  0  0  0
  -19.4981  -22.9271   18.5378 C   0  0  0  0  0  0  0  0  0  0  0  0
  -21.5002  -25.9305   24.0913 C   0  0  0  0  0  0  0  0  0  0  0  0
  -20.7022  -23.8533   22.9440 C   0  0  0  0  0  0  0  0  0  0  0  0
  -19.2440  -25.8760   23.0139 C   0  0  0  0  0  0  0  0  0  0  0  0
  -21.4784  -25.4994   16.5535 C   0  0  0  0  0  0  0  0  0  0  0  0
  -29.6715  -24.4578   23.1136 C   0  0  0  0  0  0  0  0  0  0  0  0
  -28.7644  -25.9895   20.7260 C   0  0  0  0  0  0  0  0  0  1  0  0
  -21.2832  -25.8692   21.5193 C   0  0  1  0  0  0  0  0  0  0  0  0
  -20.1382  -24.2810   18.2734 C   0  0  2  0  0  0  0  0  0  0  0  0
  -30.2702  -25.8140   20.9834 C   0  0  2  0  0  0  0  0  0  0  0  0
  -30.5918  -24.5936   21.8873 C   0  0  2  0  0  0  0  0  0  0  0  0
  -20.7058  -25.3957   22.8831 C   0  0  0  0  0  0  0  0  0  0  0  0
  -25.1244  -14.8029   21.2696 N   0  0  0  0  0  0  0  0  0  0  0  0
  -25.9755  -13.8306   20.9005 N   0  0  0  0  0  0  0  0  0  0  0  0
  -22.6039  -27.9393   21.2120 N   0  0  0  0  0  0  0  0  0  0  0  0
  -28.9727  -15.8902   19.6777 N   0  0  0  0  0  0  0  0  0  0  0  0
  -30.4518  -16.9439   18.1098 N   0  0  0  0  0  0  0  0  0  0  0  0
  -26.1121  -11.5077   20.4573 N   0  0  0  0  0  0  0  0  0  0  0  0
  -21.7753  -12.1033   21.5682 N   0  0  0  0  0  0  0  0  0  0  0  0
  -30.5696  -23.3824   21.0992 N   0  0  0  0  0  0  0  0  0  0  0  0
  -23.2945  -31.0616   22.9644 N   0  0  0  0  0  0  0  0  0  0  0  0
  -20.5347  -25.4000   20.3583 N   0  0  0  0  0  0  0  0  0  0  0  0
  -20.8241  -24.2264   16.9515 N   0  3  0  0  0  0  0  0  0  0  0  0
  -32.7716  -23.4889   20.3804 O   0  0  0  0  0  0  0  0  0  0  0  0
  -23.3416  -10.5477   20.9472 O   0  0  0  0  0  0  0  0  0  0  0  0
  -23.3838  -28.7951   23.4913 O   0  0  0  0  0  0  0  0  0  0  0  0
  -20.2898  -28.0229   21.4849 O   0  0  0  0  0  0  0  0  0  0  0  0
  -22.3045  -24.2981   19.3431 O   0  0  0  0  0  0  0  0  0  0  0  0
  -28.3402  -17.7587   18.4903 O   0  0  0  0  0  0  0  0  0  0  0  0
  -19.3688  -16.9262   22.9767 O   0  0  0  0  0  0  0  0  0  0  0  0
  -28.5373  -27.0166   19.7658 O   0  0  0  0  0  0  0  0  0  1  0  0
  -19.8401  -20.5519   27.1042 F   0  0  0  0  0  0  0  0  0  0  0  0
  -17.8963  -16.6322   25.2979 F   0  0  0  0  0  0  0  0  0  0  0  0
  1  2  1  0  0  0  0
  1  6  2  0  0  0  0
  2  7  2  0  0  0  0
  3 10  2  0  0  0  0
  3 18  1  0  0  0  0
  4 11  1  0  0  0  0
  4 18  2  0  0  0  0
  5  8  2  0  0  0  0
  5 19  1  0  0  0  0
  6 22  1  0  0  0  0
  7 24  1  0  0  0  0
  8 21  1  0  0  0  0
  9 12  2  0  0  0  0
  9 23  1  0  0  0  0
 10 27  1  0  0  0  0
 11 27  2  0  0  0  0
 12 28  1  0  0  0  0
 13 14  2  0  0  0  0
 13 29  1  0  0  0  0
 14 30  1  0  0  0  0
 15 21  2  0  0  0  0
 15 26  1  0  0  0  0
 16 25  1  0  0  0  0
 16 28  2  0  0  0  0
 17 30  2  0  0  0  0
 17 31  1  0  0  0  0
 18 32  1  0  0  0  0
 19 26  2  0  0  0  0
 19 34  1  0  0  0  0
 20 32  1  0  0  0  0
 20 33  2  0  0  0  0
 20 35  1  0  0  0  0
 21 54  1  0  0  0  0
 22 24  2  0  0  0  0
 22 40  1  0  0  0  0
 23 25  2  0  0  0  0
 23 41  1  0  0  0  0
 24 55  1  0  0  0  0
 25 42  1  0  0  0  0
 26 59  1  0  0  0  0
 27 90  1  0  0  0  0
 28 91  1  0  0  0  0
 29 31  2  0  0  0  0
 29 90  1  0  0  0  0
 30 92  1  0  0  0  0
 31 93  1  0  0  0  0
 32 73  2  0  0  0  0
 33 74  1  0  0  0  0
 33 78  1  0  0  0  0
 34 80  1  0  0  0  0
 34 84  2  0  0  0  0
 35 79  1  0  0  0  0
 35 85  2  0  0  0  0
 36 56  1  0  0  0  0
 36 81  1  0  0  0  0
 36 86  2  0  0  0  0
 37 68  1  0  0  0  0
 37 75  1  0  0  0  0
 37 87  2  0  0  0  0
 38 69  1  0  0  0  0
 38 82  1  0  0  0  0
 38 88  2  0  0  0  0
 39 76  1  0  0  0  0
 39 77  1  0  0  0  0
 39 89  2  0  0  0  0
 40 43  1  0  0  0  0
 41 56  1  0  0  0  0
 42 75  1  0  0  0  0
 43 47  1  0  0  0  0
 44 46  1  0  0  0  0
 44 52  1  0  0  0  0
 45 50  1  0  0  0  0
 45 51  1  0  0  0  0
 46 54  1  0  0  0  0
 47 55  1  0  0  0  0
 48 49  1  0  0  0  0
 48 57  1  0  0  0  0
 49 57  1  0  0  0  0
 50 58  1  0  0  0  0
 51 76  1  0  0  0  0
 52 77  1  0  0  0  0
 53 58  1  0  0  0  0
 53 76  1  0  0  0  0
 54 77  1  0  0  0  0
 55 81  1  0  0  0  0
 56 75  1  0  0  0  0
 57 70  1  0  0  0  0
 58 74  1  0  0  0  0
 60 66  1  0  0  0  0
 61 69  1  0  0  0  0
 62 72  1  0  0  0  0
 63 72  1  0  0  0  0
 64 72  1  0  0  0  0
 65 83  1  0  0  0  0
 66 71  1  0  0  0  0
 67 70  1  0  0  0  0
 67 91  1  0  0  0  0
 68 72  1  0  0  0  0
 68 82  1  0  0  0  0
 69 83  1  0  0  0  0
 70 71  1  0  0  0  0
 71 80  1  0  0  0  0
 73 74  1  0  0  0  0
M  CHG  1  83   1
M  ISO  4  39 100  67 101  77 100  91 101
M  END
> <Batch ID>
0154

> <Smiles>
CCC(NC(=O)c1ccc(C2CCC[100N:0]2[100C:0](=O)N2CCCC(n3nc(-c4ccc(Oc5ccc(F)cc5F)cc4)c(C(N)=O)c3N)C2)cc1C)C(C1CC1)[101CH2:1][101O:1]c1ccc2c(c1)CN(C(=O)C(NC(=O)C(C)NC)C(C)(C)C)C(C(=O)NC1CCCc3ccccc31)C2

> <Shape>
0.235

> <Color>
0.093

> <Negative vol penalty>
0.000

$$$$

  -OEChem-04052321513D

 88 97  0     1  0  0  0  0  0999 V2000
  -29.5851  -20.9838   24.1458 C   0  0  0  0  0  0  0  0  0  0  0  0
  -29.0550  -21.0889   22.8639 C   0  0  0  0  0  0  0  0  0  0  0  0
  -23.3178   -9.8130   19.9011 C   0  0  0  0  0  0  0  0  0  0  0  0
  -23.7300   -9.9608   22.2771 C   0  0  0  0  0  0  0  0  0  0  0  0
  -29.8517  -22.1353   24.8853 C   0  0  0  0  0  0  0  0  0  0  0  0
  -28.7901  -22.3458   22.3211 C   0  0  0  0  0  0  0  0  0  0  0  0
  -30.3649  -22.7623   17.5262 C   0  0  0  0  0  0  0  0  0  0  0  0
  -22.5956   -8.6364   20.0995 C   0  0  0  0  0  0  0  0  0  0  0  0
  -23.0076   -8.7842   22.4756 C   0  0  0  0  0  0  0  0  0  0  0  0
  -29.5696  -22.1775   16.5417 C   0  0  0  0  0  0  0  0  0  0  0  0
  -20.3377   -5.7883   20.0214 C   0  0  0  0  0  0  0  0  0  0  0  0
  -19.1217   -5.6531   19.3517 C   0  0  0  0  0  0  0  0  0  0  0  0
  -24.7031  -18.0670   17.7941 C   0  0  0  0  0  0  0  0  0  0  0  0
  -28.6252  -24.3374   16.0300 C   0  0  0  0  0  0  0  0  0  0  0  0
  -23.7975  -19.8405   15.8403 C   0  0  0  0  0  0  0  0  0  0  0  0
  -18.2848   -7.6224   20.4736 C   0  0  0  0  0  0  0  0  0  0  0  0
  -23.8851  -10.4752   20.9898 C   0  0  0  0  0  0  0  0  0  0  0  0
  -24.1319  -13.0064   20.7905 C   0  0  0  0  0  0  0  0  0  0  0  0
  -29.5989  -23.4072   24.3476 C   0  0  0  0  0  0  0  0  0  0  0  0
  -30.2883  -24.1397   17.7778 C   0  0  0  0  0  0  0  0  0  0  0  0
  -29.0523  -23.5154   23.0546 C   0  0  0  0  0  0  0  0  0  0  0  0
  -25.4807  -18.3149   16.6630 C   0  0  0  0  0  0  0  0  0  0  0  0
  -29.4225  -24.9377   17.0165 C   0  0  0  0  0  0  0  0  0  0  0  0
  -23.4727  -18.7057   17.9483 C   0  0  0  0  0  0  0  0  0  0  0  0
  -23.0199  -19.5925   16.9715 C   0  0  0  0  0  0  0  0  0  0  0  0
  -22.4404   -8.1220   21.3868 C   0  0  0  0  0  0  0  0  0  0  0  0
  -28.6975  -22.9646   15.7954 C   0  0  0  0  0  0  0  0  0  0  0  0
  -20.5273   -6.8406   20.9173 C   0  0  0  0  0  0  0  0  0  0  0  0
  -25.0279  -19.2017   15.6861 C   0  0  0  0  0  0  0  0  0  0  0  0
  -18.0952   -6.5701   19.5778 C   0  0  0  0  0  0  0  0  0  0  0  0
  -19.5009   -7.7576   21.1434 C   0  0  0  0  0  0  0  0  0  0  0  0
  -24.6318  -11.6904   20.7854 C   0  0  0  0  0  0  0  0  0  0  0  0
  -25.2324  -13.7927   20.5515 C   0  0  0  0  0  0  0  0  0  0  0  0
  -22.7925  -13.4761   20.9931 C   0  0  0  0  0  0  0  0  0  0  0  0
  -29.4733  -25.9206   20.2814 C   0  0  0  0  0  0  0  0  0  0  0  0
  -30.4684  -28.3541   18.3814 C   0  0  0  0  0  0  0  0  0  0  0  0
  -31.0486  -29.5141   15.2247 C   0  0  0  0  0  0  0  0  0  0  0  0
  -29.8931  -14.9596   17.9380 C   0  0  0  0  0  0  0  0  0  0  0  0
  -29.8592  -24.6218   25.2030 C   0  0  0  0  0  0  0  0  0  0  0  0
  -31.1724  -24.7595   18.8250 C   0  0  0  0  0  0  0  0  0  0  0  0
  -29.3175  -26.4244   17.2337 C   0  0  0  0  0  0  0  0  0  0  0  0
  -29.9001  -25.9266   24.4117 C   0  0  0  0  0  0  0  0  0  0  0  0
  -30.1564  -12.6664   20.5116 C   0  0  0  0  0  0  0  0  0  0  0  0
  -28.7222  -26.0021   23.4455 C   0  0  0  0  0  0  0  0  0  0  0  0
  -28.7042  -12.3057   20.8246 C   0  0  0  0  0  0  0  0  0  0  0  0
  -27.7991  -17.9956   17.6336 C   0  0  0  0  0  0  0  0  0  0  0  0
  -26.6583  -16.0840   16.4314 C   0  0  0  0  0  0  0  0  0  0  0  0
  -30.3796  -12.7791   19.0077 C   0  0  0  0  0  0  0  0  0  0  0  0
  -29.1307  -17.2632   17.4863 C   0  0  0  0  0  0  0  0  0  0  0  0
  -28.0149  -15.3960   16.3096 C   0  0  0  0  0  0  0  0  0  0  0  0
  -28.0166  -13.4070   18.6386 C   0  0  0  0  0  0  0  0  0  0  0  0
  -26.8172  -17.6125   16.5129 C   0  0  0  0  0  0  0  0  0  0  0  0
  -28.7744  -24.8616   22.4217 C   0  0  1  0  0  0  0  0  0  0  0  0
  -30.6379  -26.0896   19.3472 C   0  0  1  0  0  0  0  0  0  0  0  0
  -27.7331  -13.2903   20.1496 C   0  0  1  0  0  0  0  0  0  0  0  0
  -22.6569  -18.4224   19.1669 C   0  0  0  0  0  0  0  0  0  0  0  0
  -21.7051  -20.2861   17.1146 C   0  0  0  0  0  0  0  0  0  0  0  0
  -31.8245  -31.5549   13.9876 C   0  0  0  0  0  0  0  0  0  0  0  0
  -26.2630  -21.0344   12.8598 C   0  0  0  0  0  0  0  0  0  0  0  0
  -27.7623  -29.6762   18.8702 C   0  0  0  0  0  0  0  0  0  0  0  0
  -28.2174  -31.1707   16.9138 C   0  0  0  0  0  0  0  0  0  0  0  0
  -29.7112  -31.2429   18.9102 C   0  0  0  0  0  0  0  0  0  0  0  0
  -33.3551  -28.0723   14.0583 C   0  0  0  0  0  0  0  0  0  0  0  0
  -27.5238  -21.0399   15.0378 C   0  0  0  0  0  0  0  0  0  1  0  0
  -29.8115  -29.2493   17.3586 C   0  0  1  0  0  0  0  0  0  0  0  0
  -32.2395  -30.2354   14.6196 C   0  0  2  0  0  0  0  0  0  0  0  0
  -26.1796  -20.8050   14.3599 C   0  0  2  0  0  0  0  0  0  0  0  0
  -28.8759  -30.3065   18.0102 C   0  0  0  0  0  0  0  0  0  0  0  0
  -25.9475  -11.6395   20.5609 N   0  0  0  0  0  0  0  0  0  0  0  0
  -26.2836  -12.9333   20.4225 N   0  0  0  0  0  0  0  0  0  0  0  0
  -30.1978  -26.9826   18.2734 N   0  0  0  0  0  0  0  0  0  0  0  0
  -29.4345  -13.7179   18.4036 N   0  0  0  0  0  0  0  0  0  0  0  0
  -28.9351  -15.8183   17.3743 N   0  0  0  0  0  0  0  0  0  0  0  0
  -25.3938  -15.1285   20.4411 N   0  0  0  0  0  0  0  0  0  0  0  0
  -21.7819  -12.5334   21.2263 N   0  0  0  0  0  0  0  0  0  0  0  0
  -29.7516  -25.1495   21.3938 N   0  0  0  0  0  0  0  0  0  0  0  0
  -30.8918  -29.8185   16.5604 N   0  0  0  0  0  0  0  0  0  0  0  0
  -32.8776  -29.3916   13.5700 N   0  3  0  0  0  0  0  0  0  0  0  0
  -22.4976  -14.6947   20.9519 O   0  0  0  0  0  0  0  0  0  0  0  0
  -28.4019  -26.4517   20.0136 O   0  0  0  0  0  0  0  0  0  0  0  0
  -31.2006  -28.8525   19.2399 O   0  0  0  0  0  0  0  0  0  0  0  0
  -30.3273  -28.7592   14.5763 O   0  0  0  0  0  0  0  0  0  0  0  0
  -31.0835  -15.2858   18.0245 O   0  0  0  0  0  0  0  0  0  0  0  0
  -21.7355   -6.9739   21.5808 O   0  0  0  0  0  0  0  0  0  0  0  0
  -27.9145  -22.3925   14.8281 O   0  0  0  0  0  0  0  0  0  1  0  0
  -25.7748  -19.4546   14.5750 O   0  0  0  0  0  0  0  0  0  0  0  0
  -16.9281   -6.4410   18.9334 F   0  0  0  0  0  0  0  0  0  0  0  0
  -19.6775   -8.7712   22.0020 F   0  0  0  0  0  0  0  0  0  0  0  0
  1  2  1  0  0  0  0
  1  5  2  0  0  0  0
  2  6  2  0  0  0  0
  3  8  2  0  0  0  0
  3 17  1  0  0  0  0
  4  9  1  0  0  0  0
  4 17  2  0  0  0  0
  5 19  1  0  0  0  0
  6 21  1  0  0  0  0
  7 10  2  0  0  0  0
  7 20  1  0  0  0  0
  8 26  1  0  0  0  0
  9 26  2  0  0  0  0
 10 27  1  0  0  0  0
 11 12  2  0  0  0  0
 11 28  1  0  0  0  0
 12 30  1  0  0  0  0
 13 22  1  0  0  0  0
 13 24  2  0  0  0  0
 14 23  1  0  0  0  0
 14 27  2  0  0  0  0
 15 25  2  0  0  0  0
 15 29  1  0  0  0  0
 16 30  2  0  0  0  0
 16 31  1  0  0  0  0
 17 32  1  0  0  0  0
 18 32  1  0  0  0  0
 18 33  2  0  0  0  0
 18 34  1  0  0  0  0
 19 21  2  0  0  0  0
 19 39  1  0  0  0  0
 20 23  2  0  0  0  0
 20 40  1  0  0  0  0
 21 53  1  0  0  0  0
 22 29  2  0  0  0  0
 22 52  1  0  0  0  0
 23 41  1  0  0  0  0
 24 25  1  0  0  0  0
 24 56  1  0  0  0  0
 25 57  1  0  0  0  0
 26 84  1  0  0  0  0
 27 85  1  0  0  0  0
 28 31  2  0  0  0  0
 28 84  1  0  0  0  0
 29 86  1  0  0  0  0
 30 87  1  0  0  0  0
 31 88  1  0  0  0  0
 32 69  2  0  0  0  0
 33 70  1  0  0  0  0
 33 74  1  0  0  0  0
 34 75  1  0  0  0  0
 34 79  2  0  0  0  0
 35 54  1  0  0  0  0
 35 76  1  0  0  0  0
 35 80  2  0  0  0  0
 36 65  1  0  0  0  0
 36 71  1  0  0  0  0
 36 81  2  0  0  0  0
 37 66  1  0  0  0  0
 37 77  1  0  0  0  0
 37 82  2  0  0  0  0
 38 72  1  0  0  0  0
 38 73  1  0  0  0  0
 38 83  2  0  0  0  0
 39 42  1  0  0  0  0
 40 54  1  0  0  0  0
 41 71  1  0  0  0  0
 42 44  1  0  0  0  0
 43 45  1  0  0  0  0
 43 48  1  0  0  0  0
 44 53  1  0  0  0  0
 45 55  1  0  0  0  0
 46 49  1  0  0  0  0
 46 52  1  0  0  0  0
 47 50  1  0  0  0  0
 47 52  1  0  0  0  0
 48 72  1  0  0  0  0
 49 73  1  0  0  0  0
 50 73  1  0  0  0  0
 51 55  1  0  0  0  0
 51 72  1  0  0  0  0
 53 76  1  0  0  0  0
 54 71  1  0  0  0  0
 55 70  1  0  0  0  0
 58 66  1  0  0  0  0
 59 67  1  0  0  0  0
 60 68  1  0  0  0  0
 61 68  1  0  0  0  0
 62 68  1  0  0  0  0
 63 78  1  0  0  0  0
 64 67  1  0  0  0  0
 64 85  1  0  0  0  0
 65 68  1  0  0  0  0
 65 77  1  0  0  0  0
 66 78  1  0  0  0  0
 67 86  1  0  0  0  0
 69 70  1  0  0  0  0
M  CHG  1  78   1
M  ISO  4  38 100  64 101  73 100  85 101
M  END
> <Batch ID>
0154

> <Smiles>
CNC(C)C(=O)NC(C(=O)N1Cc2cc([101O:1][101CH2:1]C(C)Oc3cc(C)c(C)cc3C3CC[100N:0]([100C:0](=O)N4CCCC(n5nc(-c6ccc(Oc7ccc(F)cc7F)cc6)c(C(N)=O)c5N)C4)CC3)ccc2CC1C(=O)NC1CCCc2ccccc21)C(C)(C)C

> <Shape>
0.179

> <Color>
0.200

> <Negative vol penalty>
0.000

$$$$

  -OEChem-04052321513D

 88 97  0     1  0  0  0  0  0999 V2000
  -16.5980  -29.7196   23.0936 C   0  0  0  0  0  0  0  0  0  0  0  0
  -17.6158  -30.5848   23.4821 C   0  0  0  0  0  0  0  0  0  0  0  0
  -27.6683  -17.8447   19.9982 C   0  0  0  0  0  0  0  0  0  0  0  0
  -26.1516  -19.4851   20.9179 C   0  0  0  0  0  0  0  0  0  0  0  0
  -16.8960  -28.3982   22.7635 C   0  0  0  0  0  0  0  0  0  0  0  0
  -18.9322  -30.1286   23.5418 C   0  0  0  0  0  0  0  0  0  0  0  0
  -25.6666  -32.3698   22.5714 C   0  0  0  0  0  0  0  0  0  0  0  0
  -27.0079  -16.8387   20.7033 C   0  0  0  0  0  0  0  0  0  0  0  0
  -25.4911  -18.4790   21.6230 C   0  0  0  0  0  0  0  0  0  0  0  0
  -26.8965  -32.4007   23.2272 C   0  0  0  0  0  0  0  0  0  0  0  0
  -24.1619  -15.0388   20.3970 C   0  0  0  0  0  0  0  0  0  0  0  0
  -23.8618  -13.8594   19.7155 C   0  0  0  0  0  0  0  0  0  0  0  0
  -27.3038  -30.1191   22.5580 C   0  0  0  0  0  0  0  0  0  0  0  0
  -25.1937  -12.6076   21.2954 C   0  0  0  0  0  0  0  0  0  0  0  0
  -27.2403  -19.1680   20.1055 C   0  0  0  0  0  0  0  0  0  0  0  0
  -27.6321  -20.6675   18.0793 C   0  0  0  0  0  0  0  0  0  0  0  0
  -18.2179  -27.9282   22.8099 C   0  0  0  0  0  0  0  0  0  0  0  0
  -25.2405  -31.2078   21.9120 C   0  0  0  0  0  0  0  0  0  0  0  0
  -19.2479  -28.7993   23.2133 C   0  0  0  0  0  0  0  0  0  0  0  0
  -26.0692  -30.0769   21.8924 C   0  0  0  0  0  0  0  0  0  0  0  0
  -32.5669  -29.4497   19.2916 C   0  0  0  0  0  0  0  0  0  0  0  0
  -32.7548  -28.1937   19.9026 C   0  0  0  0  0  0  0  0  0  0  0  0
  -25.9192  -17.1558   21.5157 C   0  0  0  0  0  0  0  0  0  0  0  0
  -27.7140  -31.2743   23.2230 C   0  0  0  0  0  0  0  0  0  0  0  0
  -24.9780  -15.0026   21.5277 C   0  0  0  0  0  0  0  0  0  0  0  0
  -24.3776  -12.6438   20.1646 C   0  0  0  0  0  0  0  0  0  0  0  0
  -25.4938  -13.7870   21.9769 C   0  0  0  0  0  0  0  0  0  0  0  0
  -27.9225  -20.2078   19.3778 C   0  0  0  0  0  0  0  0  0  0  0  0
  -32.2139  -30.3519   20.2781 C   0  0  0  0  0  0  0  0  0  0  0  0
  -32.5166  -28.3568   21.2469 C   0  0  0  0  0  0  0  0  0  0  0  0
  -28.5590  -21.6547   17.8493 C   0  0  0  0  0  0  0  0  0  0  0  0
  -31.9111  -31.7577   20.2513 C   0  0  0  0  0  0  0  0  0  0  0  0
  -31.6233  -32.3724   21.4342 C   0  0  0  0  0  0  0  0  0  0  0  0
  -31.5488  -31.6103   22.7128 C   0  0  0  0  0  0  0  0  0  0  0  0
  -31.8651  -30.2905   22.7184 C   0  0  0  0  0  0  0  0  0  0  0  0
  -26.6154  -20.2405   17.1630 C   0  0  0  0  0  0  0  0  0  0  0  0
  -22.7897  -29.2110   22.2442 C   0  0  0  0  0  0  0  0  0  0  0  0
  -23.9905  -27.9037   19.5291 C   0  0  0  0  0  0  0  0  0  0  0  0
  -26.6872  -27.4158   17.4953 C   0  0  0  0  0  0  0  0  0  0  0  0
  -31.5272  -25.1964   21.5238 C   0  0  0  0  0  0  0  0  0  0  0  0
  -18.4848  -26.4788   22.4895 C   0  0  0  0  0  0  0  0  0  0  0  0
  -23.9228  -31.1994   21.1866 C   0  0  0  0  0  0  0  0  0  0  0  0
  -25.6669  -28.8113   21.1818 C   0  0  0  0  0  0  0  0  0  0  0  0
  -19.9560  -26.1760   22.2175 C   0  0  0  0  0  0  0  0  0  0  0  0
  -32.9936  -22.9841   19.0635 C   0  0  0  0  0  0  0  0  0  0  0  0
  -20.8394  -26.8223   23.2799 C   0  0  0  0  0  0  0  0  0  0  0  0
  -31.8162  -22.0611   18.7442 C   0  0  0  0  0  0  0  0  0  0  0  0
  -33.0216  -23.3526   20.5439 C   0  0  0  0  0  0  0  0  0  0  0  0
  -30.5835  -23.0458   20.7319 C   0  0  0  0  0  0  0  0  0  0  0  0
  -20.6916  -28.3486   23.2664 C   0  0  1  0  0  0  0  0  0  0  0  0
  -23.3615  -29.7954   20.9836 C   0  0  1  0  0  0  0  0  0  0  0  0
  -30.4866  -22.6550   19.2460 C   0  0  2  0  0  0  0  0  0  0  0  0
  -32.7175  -29.7085   17.8427 C   0  0  0  0  0  0  0  0  0  0  0  0
  -33.1389  -26.9366   19.2268 C   0  0  0  0  0  0  0  0  0  0  0  0
  -31.9083  -32.5255   18.9420 C   0  0  0  0  0  0  0  0  0  0  0  0
  -31.4035  -33.8681   21.5298 C   0  0  0  0  0  0  0  0  0  0  0  0
  -31.8983  -29.4237   23.9536 C   0  0  0  0  0  0  0  0  0  0  0  0
  -27.3686  -26.2732   15.3675 C   0  0  0  0  0  0  0  0  0  0  0  0
  -24.0139  -25.2200   20.9806 C   0  0  0  0  0  0  0  0  0  0  0  0
  -25.5455  -24.3500   19.2014 C   0  0  0  0  0  0  0  0  0  0  0  0
  -23.2473  -25.1132   18.6025 C   0  0  0  0  0  0  0  0  0  0  0  0
  -27.4306  -29.9808   16.2197 C   0  0  0  0  0  0  0  0  0  0  0  0
  -32.6151  -27.2957   22.2765 C   0  0  0  0  0  0  0  0  0  0  0  0
  -31.0844  -32.3548   23.9423 C   0  0  0  0  0  0  0  0  0  0  0  0
  -29.5827  -32.5591   23.9395 C   0  0  0  0  0  0  0  0  0  1  0  0
  -25.0015  -26.8268   19.2175 C   0  0  1  0  0  0  0  0  0  0  0  0
  -26.8556  -27.5607   15.9935 C   0  0  2  0  0  0  0  0  0  0  0  0
  -24.4591  -25.4006   19.5156 C   0  0  0  0  0  0  0  0  0  0  0  0
  -28.9533  -20.8500   19.9337 N   0  0  0  0  0  0  0  0  0  0  0  0
  -32.1905  -29.6790   21.4925 N   0  0  0  0  0  0  0  0  0  0  0  0
  -29.3188  -21.7233   18.9799 N   0  0  0  0  0  0  0  0  0  0  0  0
  -24.3666  -28.8505   20.4925 N   0  0  0  0  0  0  0  0  0  0  0  0
  -31.7332  -23.9294   20.9531 N   0  0  0  0  0  0  0  0  0  0  0  0
  -28.7900  -22.4620   16.7923 N   0  0  0  0  0  0  0  0  0  0  0  0
  -25.7470  -19.2143   17.5593 N   0  0  0  0  0  0  0  0  0  0  0  0
  -21.4412  -28.9193   22.1678 N   0  0  0  0  0  0  0  0  0  0  0  0
  -25.4053  -27.0349   17.8311 N   0  0  0  0  0  0  0  0  0  0  0  0
  -32.6683  -25.9680   21.7061 N   0  0  0  0  0  0  0  0  0  0  0  0
  -27.8222  -28.6518   15.6836 N   0  3  0  0  0  0  0  0  0  0  0  0
  -26.4914  -20.7426   16.0201 O   0  0  0  0  0  0  0  0  0  0  0  0
  -23.5184  -29.0362   23.2138 O   0  0  0  0  0  0  0  0  0  0  0  0
  -22.9098  -27.9090   18.9344 O   0  0  0  0  0  0  0  0  0  0  0  0
  -27.6024  -27.6166   18.2906 O   0  0  0  0  0  0  0  0  0  0  0  0
  -30.4079  -25.6119   21.8425 O   0  0  0  0  0  0  0  0  0  0  0  0
  -25.2744  -16.1743   22.2037 O   0  0  0  0  0  0  0  0  0  0  0  0
  -28.9233  -31.3017   23.8675 O   0  0  0  0  0  0  0  0  0  1  0  0
  -24.0881  -11.5111   19.5110 F   0  0  0  0  0  0  0  0  0  0  0  0
  -26.2774  -13.7458   23.0632 F   0  0  0  0  0  0  0  0  0  0  0  0
  1  2  1  0  0  0  0
  1  5  2  0  0  0  0
  2  6  2  0  0  0  0
  3  8  2  0  0  0  0
  3 15  1  0  0  0  0
  4  9  1  0  0  0  0
  4 15  2  0  0  0  0
  5 17  1  0  0  0  0
  6 19  1  0  0  0  0
  7 10  2  0  0  0  0
  7 18  1  0  0  0  0
  8 23  1  0  0  0  0
  9 23  2  0  0  0  0
 10 24  1  0  0  0  0
 11 12  2  0  0  0  0
 11 25  1  0  0  0  0
 12 26  1  0  0  0  0
 13 20  1  0  0  0  0
 13 24  2  0  0  0  0
 14 26  2  0  0  0  0
 14 27  1  0  0  0  0
 15 28  1  0  0  0  0
 16 28  1  0  0  0  0
 16 31  2  0  0  0  0
 16 36  1  0  0  0  0
 17 19  2  0  0  0  0
 17 41  1  0  0  0  0
 18 20  2  0  0  0  0
 18 42  1  0  0  0  0
 19 50  1  0  0  0  0
 20 43  1  0  0  0  0
 21 22  1  0  0  0  0
 21 29  2  0  0  0  0
 21 53  1  0  0  0  0
 22 30  2  0  0  0  0
 22 54  1  0  0  0  0
 23 85  1  0  0  0  0
 24 86  1  0  0  0  0
 25 27  2  0  0  0  0
 25 85  1  0  0  0  0
 26 87  1  0  0  0  0
 27 88  1  0  0  0  0
 28 69  2  0  0  0  0
 29 32  1  0  0  0  0
 29 70  1  0  0  0  0
 30 63  1  0  0  0  0
 30 70  1  0  0  0  0
 31 71  1  0  0  0  0
 31 74  1  0  0  0  0
 32 33  2  0  0  0  0
 32 55  1  0  0  0  0
 33 34  1  0  0  0  0
 33 56  1  0  0  0  0
 34 35  2  0  0  0  0
 34 64  1  0  0  0  0
 35 57  1  0  0  0  0
 35 70  1  0  0  0  0
 36 75  1  0  0  0  0
 36 80  2  0  0  0  0
 37 51  1  0  0  0  0
 37 76  1  0  0  0  0
 37 81  2  0  0  0  0
 38 66  1  0  0  0  0
 38 72  1  0  0  0  0
 38 82  2  0  0  0  0
 39 67  1  0  0  0  0
 39 77  1  0  0  0  0
 39 83  2  0  0  0  0
 40 73  1  0  0  0  0
 40 78  1  0  0  0  0
 40 84  2  0  0  0  0
 41 44  1  0  0  0  0
 42 51  1  0  0  0  0
 43 72  1  0  0  0  0
 44 46  1  0  0  0  0
 45 47  1  0  0  0  0
 45 48  1  0  0  0  0
 46 50  1  0  0  0  0
 47 52  1  0  0  0  0
 48 73  1  0  0  0  0
 49 52  1  0  0  0  0
 49 73  1  0  0  0  0
 50 76  1  0  0  0  0
 51 72  1  0  0  0  0
 52 71  1  0  0  0  0
 58 67  1  0  0  0  0
 59 68  1  0  0  0  0
 60 68  1  0  0  0  0
 61 68  1  0  0  0  0
 62 79  1  0  0  0  0
 63 78  1  0  0  0  0
 64 65  1  0  0  0  0
 65 86  1  0  0  0  0
 66 68  1  0  0  0  0
 66 77  1  0  0  0  0
 67 79  1  0  0  0  0
 69 71  1  0  0  0  0
M  CHG  1  79   1
M  ISO  4  40 100  65 101  78 100  86 101
M  END
> <Batch ID>
0154

> <Smiles>
CNC(C)C(=O)NC(C(=O)N1Cc2cc([101O:1][101CH2:1]Cc3c(C)c(C)c4c(C)c(C)c(C[100NH:0][100C:0](=O)N5CCCC(n6nc(-c7ccc(Oc8ccc(F)cc8F)cc7)c(C(N)=O)c6N)C5)n4c3C)ccc2CC1C(=O)NC1CCCc2ccccc21)C(C)(C)C

> <Shape>
0.230

> <Color>
0.107

> <Negative vol penalty>
0.000

$$$$

  -OEChem-04052321513D

 88 98  0     1  0  0  0  0  0999 V2000
  -21.3408   -8.6548   24.5364 C   0  0  0  0  0  0  0  0  0  0  0  0
  -22.5516   -9.2592   24.8591 C   0  0  0  0  0  0  0  0  0  0  0  0
  -22.8926  -32.1084   21.9175 C   0  0  0  0  0  0  0  0  0  0  0  0
  -22.8308  -30.6831   23.8673 C   0  0  0  0  0  0  0  0  0  0  0  0
  -21.0178   -8.4125   23.2019 C   0  0  0  0  0  0  0  0  0  0  0  0
  -23.4406   -9.6206   23.8474 C   0  0  0  0  0  0  0  0  0  0  0  0
  -25.5692  -16.4560   23.0488 C   0  0  0  0  0  0  0  0  0  0  0  0
  -21.5058  -32.2462   21.9742 C   0  0  0  0  0  0  0  0  0  0  0  0
  -21.4440  -30.8210   23.9241 C   0  0  0  0  0  0  0  0  0  0  0  0
  -26.1869  -17.7038   22.9621 C   0  0  0  0  0  0  0  0  0  0  0  0
  -18.7458  -29.5347   22.3443 C   0  0  0  0  0  0  0  0  0  0  0  0
  -17.9883  -28.3833   22.5594 C   0  0  0  0  0  0  0  0  0  0  0  0
  -29.6033  -23.6405   19.9336 C   0  0  0  0  0  0  0  0  0  0  0  0
  -27.4191  -16.9705   21.0148 C   0  0  0  0  0  0  0  0  0  0  0  0
  -31.2111  -24.8078   21.8919 C   0  0  0  0  0  0  0  0  0  0  0  0
  -17.0916  -29.3513   24.5832 C   0  0  0  0  0  0  0  0  0  0  0  0
  -23.5552  -31.3268   22.8640 C   0  0  0  0  0  0  0  0  0  0  0  0
  -25.9487  -32.2088   22.8904 C   0  0  0  0  0  0  0  0  0  0  0  0
  -21.8990   -8.7799   22.1728 C   0  0  0  0  0  0  0  0  0  0  0  0
  -25.8629  -15.4646   22.1085 C   0  0  0  0  0  0  0  0  0  0  0  0
  -23.1296   -9.3818   22.4980 C   0  0  0  0  0  0  0  0  0  0  0  0
  -29.9460  -22.9180   21.0764 C   0  0  0  0  0  0  0  0  0  0  0  0
  -26.7941  -15.7228   21.0892 C   0  0  0  0  0  0  0  0  0  0  0  0
  -30.0646  -24.9467   19.7698 C   0  0  0  0  0  0  0  0  0  0  0  0
  -30.7499  -23.5016   22.0556 C   0  0  0  0  0  0  0  0  0  0  0  0
  -30.8685  -25.5303   20.7490 C   0  0  0  0  0  0  0  0  0  0  0  0
  -20.7814  -31.6026   22.9776 C   0  0  0  0  0  0  0  0  0  0  0  0
  -27.1097  -17.9603   21.9478 C   0  0  0  0  0  0  0  0  0  0  0  0
  -18.6762  -30.5943   23.2488 C   0  0  0  0  0  0  0  0  0  0  0  0
  -17.1612  -28.2916   23.6788 C   0  0  0  0  0  0  0  0  0  0  0  0
  -17.8491  -30.5026   24.3682 C   0  0  0  0  0  0  0  0  0  0  0  0
  -24.9877  -31.1836   22.8055 C   0  0  0  0  0  0  0  0  0  0  0  0
  -27.1541  -31.5593   22.7828 C   0  0  0  0  0  0  0  0  0  0  0  0
  -25.7680  -33.6219   23.0522 C   0  0  0  0  0  0  0  0  0  0  0  0
  -25.2240  -11.9714   20.8979 C   0  0  0  0  0  0  0  0  0  0  0  0
  -25.4353  -13.7523   18.4091 C   0  0  0  0  0  0  0  0  0  0  0  0
  -25.3163  -16.1175   15.9537 C   0  0  0  0  0  0  0  0  0  0  0  0
  -30.4578  -27.9673   20.4753 C   0  0  0  0  0  0  0  0  0  0  0  0
  -21.5269   -8.4548   20.7479 C   0  0  0  0  0  0  0  0  0  0  0  0
  -25.2676  -14.0858   22.1996 C   0  0  0  0  0  0  0  0  0  0  0  0
  -27.1051  -14.6148   20.1204 C   0  0  0  0  0  0  0  0  0  0  0  0
  -22.3594   -9.2085   19.7138 C   0  0  0  0  0  0  0  0  0  0  0  0
  -34.6441  -27.2031   19.7698 C   0  0  0  0  0  0  0  0  0  0  0  0
  -28.2807  -26.6383   22.9405 C   0  0  0  0  0  0  0  0  0  0  0  0
  -30.3900  -20.4251   20.6863 C   0  0  0  0  0  0  0  0  0  0  0  0
  -23.8408   -9.1453   20.0723 C   0  0  0  0  0  0  0  0  0  0  0  0
  -27.2951  -27.7910   23.1288 C   0  0  0  0  0  0  0  0  0  0  0  0
  -33.4027  -28.1189   19.7829 C   0  0  0  0  0  0  0  0  0  0  0  0
  -33.7068  -26.0517   20.1887 C   0  0  0  0  0  0  0  0  0  0  0  0
  -29.5234  -19.2211   20.2982 C   0  0  0  0  0  0  0  0  0  0  0  0
  -28.1108  -21.1552   20.5315 C   0  0  0  0  0  0  0  0  0  0  0  0
  -28.6723  -26.4537   21.4737 C   0  0  0  0  0  0  0  0  0  0  0  0
  -28.1965  -28.8387   21.0169 C   0  0  0  0  0  0  0  0  0  0  0  0
  -29.4337  -21.5015   21.2319 C   0  0  2  0  0  0  0  0  0  0  0  0
  -24.1093   -9.8109   21.4274 C   0  0  1  0  0  0  0  0  0  0  0  0
  -24.9978  -13.4528   20.8227 C   0  0  1  0  0  0  0  0  0  0  0  0
  -27.8291  -29.0846   22.4885 C   0  0  1  0  0  0  0  0  0  0  0  0
  -32.7758  -27.1290   20.7923 C   0  0  0  0  0  0  0  0  0  0  0  0
  -28.0817  -19.6334   20.5695 C   0  0  2  0  0  0  0  0  0  1  0  0
  -29.6819  -25.6972   18.5356 C   0  0  0  0  0  0  0  0  0  0  0  0
  -31.1298  -22.7473   23.2873 C   0  0  0  0  0  0  0  0  0  0  0  0
  -25.0348  -16.3687   13.4728 C   0  0  0  0  0  0  0  0  0  0  0  0
  -28.2995  -12.7906   17.9904 C   0  0  0  0  0  0  0  0  0  0  0  0
  -28.2805  -13.9289   15.7606 C   0  0  0  0  0  0  0  0  0  0  0  0
  -26.6865  -12.0664   16.2218 C   0  0  0  0  0  0  0  0  0  0  0  0
  -22.8688  -17.7491   16.2797 C   0  0  0  0  0  0  0  0  0  0  0  0
  -26.3220  -14.3116   17.3255 C   0  0  1  0  0  0  0  0  0  0  0  0
  -24.3316  -16.3452   14.8210 C   0  0  2  0  0  0  0  0  0  0  0  0
  -27.3917  -13.2890   16.8484 C   0  0  0  0  0  0  0  0  0  0  0  0
  -25.5354  -29.9746   22.6553 N   0  0  0  0  0  0  0  0  0  0  0  0
  -26.8535  -30.2361   22.6450 N   0  0  0  0  0  0  0  0  0  0  0  0
  -25.8650  -13.9258   19.7304 N   0  0  0  0  0  0  0  0  0  0  0  0
  -29.1369  -27.7222   20.8955 N   0  0  0  0  0  0  0  0  0  0  0  0
  -28.4312  -31.9966   22.7935 N   0  0  0  0  0  0  0  0  0  0  0  0
  -25.7201  -34.1449   24.3516 N   0  0  0  0  0  0  0  0  0  0  0  0
  -24.1119  -11.2517   21.2912 N   0  0  0  0  0  0  0  0  0  0  0  0
  -25.4306  -14.7802   16.2699 N   0  0  0  0  0  0  0  0  0  0  0  0
  -31.3561  -26.8820   20.5981 N   0  0  0  0  0  0  0  0  0  0  0  0
  -23.6227  -17.6432   15.0040 N   0  3  0  0  0  0  0  0  0  0  0  0
  -25.6359  -34.3956   22.0737 O   0  0  0  0  0  0  0  0  0  0  0  0
  -26.3258  -11.5135   20.6184 O   0  0  0  0  0  0  0  0  0  0  0  0
  -24.3923  -13.1719   18.0952 O   0  0  0  0  0  0  0  0  0  0  0  0
  -25.9261  -17.0338   16.5005 O   0  0  0  0  0  0  0  0  0  0  0  0
  -30.7974  -29.0548   19.9943 O   0  0  0  0  0  0  0  0  0  0  0  0
  -19.4282  -31.7370   23.0334 O   0  0  0  0  0  0  0  0  0  0  0  0
  -27.7057  -19.1821   21.8663 O   0  0  0  0  0  0  0  0  0  1  0  0
  -16.4328  -27.1865   23.8844 F   0  0  0  0  0  0  0  0  0  0  0  0
  -17.7771  -31.5179   25.2399 F   0  0  0  0  0  0  0  0  0  0  0  0
  1  2  1  0  0  0  0
  1  5  2  0  0  0  0
  2  6  2  0  0  0  0
  3  8  2  0  0  0  0
  3 17  1  0  0  0  0
  4  9  1  0  0  0  0
  4 17  2  0  0  0  0
  5 19  1  0  0  0  0
  6 21  1  0  0  0  0
  7 10  2  0  0  0  0
  7 20  1  0  0  0  0
  8 27  1  0  0  0  0
  9 27  2  0  0  0  0
 10 28  1  0  0  0  0
 11 12  2  0  0  0  0
 11 29  1  0  0  0  0
 12 30  1  0  0  0  0
 13 22  1  0  0  0  0
 13 24  2  0  0  0  0
 14 23  1  0  0  0  0
 14 28  2  0  0  0  0
 15 25  1  0  0  0  0
 15 26  2  0  0  0  0
 16 30  2  0  0  0  0
 16 31  1  0  0  0  0
 17 32  1  0  0  0  0
 18 32  1  0  0  0  0
 18 33  2  0  0  0  0
 18 34  1  0  0  0  0
 19 21  2  0  0  0  0
 19 39  1  0  0  0  0
 20 23  2  0  0  0  0
 20 40  1  0  0  0  0
 21 55  1  0  0  0  0
 22 25  2  0  0  0  0
 22 54  1  0  0  0  0
 23 41  1  0  0  0  0
 24 26  1  0  0  0  0
 24 60  1  0  0  0  0
 25 61  1  0  0  0  0
 26 78  1  0  0  0  0
 27 85  1  0  0  0  0
 28 86  1  0  0  0  0
 29 31  2  0  0  0  0
 29 85  1  0  0  0  0
 30 87  1  0  0  0  0
 31 88  1  0  0  0  0
 32 70  2  0  0  0  0
 33 71  1  0  0  0  0
 33 74  1  0  0  0  0
 34 75  1  0  0  0  0
 34 80  2  0  0  0  0
 35 56  1  0  0  0  0
 35 76  1  0  0  0  0
 35 81  2  0  0  0  0
 36 67  1  0  0  0  0
 36 72  1  0  0  0  0
 36 82  2  0  0  0  0
 37 68  1  0  0  0  0
 37 77  1  0  0  0  0
 37 83  2  0  0  0  0
 38 73  1  0  0  0  0
 38 78  1  0  0  0  0
 38 84  2  0  0  0  0
 39 42  1  0  0  0  0
 40 56  1  0  0  0  0
 41 72  1  0  0  0  0
 42 46  1  0  0  0  0
 43 48  1  0  0  0  0
 43 49  1  0  0  0  0
 44 47  1  0  0  0  0
 44 52  1  0  0  0  0
 45 50  1  0  0  0  0
 45 54  1  0  0  0  0
 46 55  1  0  0  0  0
 47 57  1  0  0  0  0
 48 58  1  0  0  0  0
 49 58  1  0  0  0  0
 50 59  1  0  0  0  0
 51 54  1  0  0  0  0
 51 59  1  0  0  0  0
 52 73  1  0  0  0  0
 53 57  1  0  0  0  0
 53 73  1  0  0  0  0
 55 76  1  0  0  0  0
 56 72  1  0  0  0  0
 57 71  1  0  0  0  0
 58 78  1  0  0  0  0
 59 86  1  0  0  0  0
 62 68  1  0  0  0  0
 63 69  1  0  0  0  0
 64 69  1  0  0  0  0
 65 69  1  0  0  0  0
 66 79  1  0  0  0  0
 67 69  1  0  0  0  0
 67 77  1  0  0  0  0
 68 79  1  0  0  0  0
 70 71  1  0  0  0  0
M  CHG  1  79   1
M  ISO  4  38 100  59 101  78 100  86 101
M  END
> <Batch ID>
0154

> <Smiles>
CNC(C)C(=O)NC(C(=O)N1Cc2cc([101O:1][101CH:1]3CCC(c4cc(C)c([100N:0](C5CCC5)[100C:0](=O)N5CCCC(n6nc(-c7ccc(Oc8ccc(F)cc8F)cc7)c(C(N)=O)c6N)C5)cc4C)C3)ccc2CC1C(=O)NC1CCCc2ccccc21)C(C)(C)C

> <Shape>
0.267

> <Color>
0.076

> <Negative vol penalty>
0.000

$$$$

  -OEChem-04052321513D

 91100  0     1  0  0  0  0  0999 V2000
  -27.8843  -17.5217   24.2720 C   0  0  0  0  0  0  0  0  0  0  0  0
  -28.0471  -18.8733   24.5542 C   0  0  0  0  0  0  0  0  0  0  0  0
  -26.3064  -12.9762   21.7734 C   0  0  0  0  0  0  0  0  0  0  0  0
  -26.0280  -13.1302   19.3785 C   0  0  0  0  0  0  0  0  0  0  0  0
  -26.9100  -17.1159   23.3626 C   0  0  0  0  0  0  0  0  0  0  0  0
  -27.2278  -19.8185   23.9362 C   0  0  0  0  0  0  0  0  0  0  0  0
  -27.6304  -24.4736   25.4762 C   0  0  0  0  0  0  0  0  0  0  0  0
  -25.0205  -12.4485   21.8890 C   0  0  0  0  0  0  0  0  0  0  0  0
  -24.7421  -12.6025   19.4940 C   0  0  0  0  0  0  0  0  0  0  0  0
  -28.7360  -25.2711   25.1842 C   0  0  0  0  0  0  0  0  0  0  0  0
  -23.3275   -9.5620   19.9125 C   0  0  0  0  0  0  0  0  0  0  0  0
  -22.9542   -8.5654   19.0109 C   0  0  0  0  0  0  0  0  0  0  0  0
  -30.7163  -24.2060   18.5785 C   0  0  0  0  0  0  0  0  0  0  0  0
  -27.4489  -26.4303   23.5052 C   0  0  0  0  0  0  0  0  0  0  0  0
  -29.0909  -23.4664   16.9534 C   0  0  0  0  0  0  0  0  0  0  0  0
  -21.1481   -9.9601   18.2171 C   0  0  0  0  0  0  0  0  0  0  0  0
  -26.8102  -13.3171   20.5181 C   0  0  0  0  0  0  0  0  0  0  0  0
  -29.3373  -13.1487   20.2127 C   0  0  0  0  0  0  0  0  0  0  0  0
  -26.0870  -18.0583   22.7241 C   0  0  0  0  0  0  0  0  0  0  0  0
  -26.4269  -24.6414   24.7762 C   0  0  0  0  0  0  0  0  0  0  0  0
  -26.2226  -19.4270   23.0334 C   0  0  0  0  0  0  0  0  0  0  0  0
  -30.0583  -25.4390   18.6980 C   0  0  0  0  0  0  0  0  0  0  0  0
  -26.3287  -25.6353   23.7920 C   0  0  0  0  0  0  0  0  0  0  0  0
  -30.2341  -23.2252   17.7115 C   0  0  0  0  0  0  0  0  0  0  0  0
  -28.4264  -24.6865   17.0649 C   0  0  0  0  0  0  0  0  0  0  0  0
  -28.8997  -25.6657   17.9426 C   0  0  0  0  0  0  0  0  0  0  0  0
  -24.2383  -12.2616   20.7493 C   0  0  0  0  0  0  0  0  0  0  0  0
  -28.6463  -26.2477   24.1966 C   0  0  0  0  0  0  0  0  0  0  0  0
  -22.6111  -10.7577   19.9665 C   0  0  0  0  0  0  0  0  0  0  0  0
  -21.8645   -8.7644   18.1631 C   0  0  0  0  0  0  0  0  0  0  0  0
  -21.5215  -10.9567   19.1188 C   0  0  0  0  0  0  0  0  0  0  0  0
  -28.1384  -13.8628   20.3982 C   0  0  0  0  0  0  0  0  0  0  0  0
  -30.3095  -14.1175   20.1611 C   0  0  0  0  0  0  0  0  0  0  0  0
  -29.5528  -11.7359   20.0972 C   0  0  0  0  0  0  0  0  0  0  0  0
  -24.6642  -22.8046   22.8728 C   0  0  0  0  0  0  0  0  0  0  0  0
  -22.5958  -25.2984   23.0302 C   0  0  0  0  0  0  0  0  0  0  0  0
  -22.1139  -28.6329   23.5738 C   0  0  0  0  0  0  0  0  0  0  0  0
  -30.1148  -19.8059   18.5926 C   0  0  0  0  0  0  0  0  0  0  0  0
  -25.0432  -17.5633   21.7542 C   0  0  0  0  0  0  0  0  0  0  0  0
  -25.2353  -23.7910   25.1215 C   0  0  0  0  0  0  0  0  0  0  0  0
  -25.0533  -25.8692   23.0257 C   0  0  0  0  0  0  0  0  0  0  0  0
  -24.5293  -18.6575   20.8243 C   0  0  0  0  0  0  0  0  0  0  0  0
  -31.2992  -18.5185   21.7608 C   0  0  0  0  0  0  0  0  0  0  0  0
  -24.1421  -19.8870   21.6324 C   0  0  0  0  0  0  0  0  0  0  0  0
  -30.7284  -17.0993   21.7450 C   0  0  0  0  0  0  0  0  0  0  0  0
  -30.3259  -19.5129   21.1348 C   0  0  0  0  0  0  0  0  0  0  0  0
  -29.3279  -17.7500   19.7313 C   0  0  0  0  0  0  0  0  0  0  0  0
  -25.3634  -20.4755   22.3502 C   0  0  1  0  0  0  0  0  0  0  0  0
  -30.5950  -26.4899   19.6348 C   0  0  1  0  0  0  0  0  0  0  0  0
  -24.2157  -23.7034   23.9902 C   0  0  1  0  0  0  0  0  0  0  0  0
  -29.9778  -27.8709   19.3336 C   0  0  2  0  0  0  0  0  0  0  0  0
  -30.2743  -16.6938   20.3302 C   0  0  2  0  0  0  0  0  0  0  0  0
  -28.4650  -27.6938   19.0890 C   0  0  1  0  0  0  0  0  0  0  0  0
  -30.7026  -28.5264   18.1458 C   0  0  0  0  0  0  0  0  0  0  0  0
  -27.7468  -29.0163   18.8335 C   0  0  0  0  0  0  0  0  0  0  0  0
  -26.0725  -23.9325   16.5709 C   0  0  0  0  0  0  0  0  0  0  0  0
  -27.5052  -24.8816   14.7266 C   0  0  0  0  0  0  0  0  0  0  0  0
  -20.3186  -30.3862   23.5944 C   0  0  0  0  0  0  0  0  0  0  0  0
  -32.0391  -26.6033   24.4485 C   0  0  0  0  0  0  0  0  0  0  0  0
  -22.5860  -25.3207   19.9791 C   0  0  0  0  0  0  0  0  0  0  0  0
  -21.5809  -27.6121   20.0685 C   0  0  0  0  0  0  0  0  0  0  0  0
  -20.3448  -25.6714   21.0321 C   0  0  0  0  0  0  0  0  0  0  0  0
  -22.5753  -29.2372   26.4341 C   0  0  0  0  0  0  0  0  0  0  0  0
  -30.9459  -21.9199   17.5940 C   0  0  0  0  0  0  0  0  0  0  0  0
  -31.2156  -26.7990   22.0345 C   0  0  0  0  0  0  0  0  0  0  0  0
  -27.2049  -24.9196   16.2358 C   0  0  0  0  0  0  0  0  0  0  0  0
  -22.3830  -26.5629   22.2334 C   0  0  1  0  0  0  0  0  0  0  0  0
  -21.1006  -29.3790   24.4231 C   0  0  2  0  0  0  0  0  0  0  0  0
  -30.9053  -26.3585   23.4614 C   0  0  2  0  0  0  0  0  0  1  0  0
  -21.7484  -26.2863   20.8412 C   0  0  0  0  0  0  0  0  0  0  0  0
  -28.3291  -15.1834   20.4604 N   0  0  0  0  0  0  0  0  0  0  0  0
  -29.6592  -15.3067   20.3133 N   0  0  0  0  0  0  0  0  0  0  0  0
  -23.9179  -25.0080   23.3954 N   0  0  0  0  0  0  0  0  0  0  0  0
  -29.9478  -19.0782   19.7826 N   0  0  0  0  0  0  0  0  0  0  0  0
  -31.6487  -14.0597   20.0010 N   0  0  0  0  0  0  0  0  0  0  0  0
  -28.4436  -10.8825   20.1720 N   0  0  0  0  0  0  0  0  0  0  0  0
  -24.9224  -21.5051   23.2652 N   0  0  0  0  0  0  0  0  0  0  0  0
  -21.5978  -27.4527   23.0819 N   0  0  0  0  0  0  0  0  0  0  0  0
  -30.7033  -21.0572   18.7289 N   0  0  0  0  0  0  0  0  0  0  0  0
  -30.3083  -26.1412   21.0648 N   0  3  0  0  0  0  0  0  0  0  0  0
  -21.7868  -30.1095   25.5260 N   0  3  0  0  0  0  0  0  0  0  0  0
  -30.6971  -11.2439   19.9491 O   0  0  0  0  0  0  0  0  0  0  0  0
  -24.7670  -23.2563   21.7383 O   0  0  0  0  0  0  0  0  0  0  0  0
  -21.6238  -24.5980   23.3241 O   0  0  0  0  0  0  0  0  0  0  0  0
  -23.2484  -29.0567   23.3645 O   0  0  0  0  0  0  0  0  0  0  0  0
  -29.7698  -19.3702   17.4889 O   0  0  0  0  0  0  0  0  0  0  0  0
  -28.1943  -26.8410   17.9668 O   0  0  0  0  0  0  0  0  0  0  0  0
  -22.9835  -11.7465   20.8617 O   0  0  0  0  0  0  0  0  0  0  0  0
  -29.7304  -27.0316   23.9075 O   0  0  0  0  0  0  0  0  0  1  0  0
  -21.5071   -7.8079   17.2963 F   0  0  0  0  0  0  0  0  0  0  0  0
  -20.8301  -12.1038   19.1652 F   0  0  0  0  0  0  0  0  0  0  0  0
  1  2  1  0  0  0  0
  1  5  2  0  0  0  0
  2  6  2  0  0  0  0
  3  8  2  0  0  0  0
  3 17  1  0  0  0  0
  4  9  1  0  0  0  0
  4 17  2  0  0  0  0
  5 19  1  0  0  0  0
  6 21  1  0  0  0  0
  7 10  2  0  0  0  0
  7 20  1  0  0  0  0
  8 27  1  0  0  0  0
  9 27  2  0  0  0  0
 10 28  1  0  0  0  0
 11 12  2  0  0  0  0
 11 29  1  0  0  0  0
 12 30  1  0  0  0  0
 13 22  1  0  0  0  0
 13 24  2  0  0  0  0
 14 23  1  0  0  0  0
 14 28  2  0  0  0  0
 15 24  1  0  0  0  0
 15 25  2  0  0  0  0
 16 30  2  0  0  0  0
 16 31  1  0  0  0  0
 17 32  1  0  0  0  0
 18 32  1  0  0  0  0
 18 33  2  0  0  0  0
 18 34  1  0  0  0  0
 19 21  2  0  0  0  0
 19 39  1  0  0  0  0
 20 23  2  0  0  0  0
 20 40  1  0  0  0  0
 21 48  1  0  0  0  0
 22 26  2  0  0  0  0
 22 49  1  0  0  0  0
 23 41  1  0  0  0  0
 24 64  1  0  0  0  0
 25 26  1  0  0  0  0
 25 66  1  0  0  0  0
 26 87  1  0  0  0  0
 27 88  1  0  0  0  0
 28 89  1  0  0  0  0
 29 31  2  0  0  0  0
 29 88  1  0  0  0  0
 30 90  1  0  0  0  0
 31 91  1  0  0  0  0
 32 71  2  0  0  0  0
 33 72  1  0  0  0  0
 33 75  1  0  0  0  0
 34 76  1  0  0  0  0
 34 82  2  0  0  0  0
 35 50  1  0  0  0  0
 35 77  1  0  0  0  0
 35 83  2  0  0  0  0
 36 67  1  0  0  0  0
 36 73  1  0  0  0  0
 36 84  2  0  0  0  0
 37 68  1  0  0  0  0
 37 78  1  0  0  0  0
 37 85  2  0  0  0  0
 38 74  1  0  0  0  0
 38 79  1  0  0  0  0
 38 86  2  0  0  0  0
 39 42  1  0  0  0  0
 40 50  1  0  0  0  0
 41 73  1  0  0  0  0
 42 44  1  0  0  0  0
 43 45  1  0  0  0  0
 43 46  1  0  0  0  0
 44 48  1  0  0  0  0
 45 52  1  0  0  0  0
 46 74  1  0  0  0  0
 47 52  1  0  0  0  0
 47 74  1  0  0  0  0
 48 77  1  0  0  0  0
 49 51  1  0  0  0  0
 49 80  1  0  0  0  0
 50 73  1  0  0  0  0
 51 53  1  0  0  0  0
 51 54  1  0  0  0  0
 52 72  1  0  0  0  0
 53 55  1  0  0  0  0
 53 87  1  0  0  0  0
 56 66  1  0  0  0  0
 57 66  1  0  0  0  0
 58 68  1  0  0  0  0
 59 69  1  0  0  0  0
 60 70  1  0  0  0  0
 61 70  1  0  0  0  0
 62 70  1  0  0  0  0
 63 81  1  0  0  0  0
 64 79  1  0  0  0  0
 65 69  1  0  0  0  0
 65 80  1  0  0  0  0
 67 70  1  0  0  0  0
 67 78  1  0  0  0  0
 68 81  1  0  0  0  0
 69 89  1  0  0  0  0
 71 72  1  0  0  0  0
M  CHG  2  80   1  81   1
M  ISO  4  38 100  69 101  79 100  89 101
M  END
> <Batch ID>
0154

> <Smiles>
CNC(C)C(=O)NC(C(=O)N1Cc2cc([101O:1][101CH:1](C)CNC3c4cc(C[100NH:0][100C:0](=O)N5CCCC(n6nc(-c7ccc(Oc8ccc(F)cc8F)cc7)c(C(N)=O)c6N)C5)cc(C(C)C)c4OC(C)C3C)ccc2CC1C(=O)NC1CCCc2ccccc21)C(C)(C)C

> <Shape>
0.208

> <Color>
0.046

> <Negative vol penalty>
0.000

$$$$

  -OEChem-04052321513D

 90 99  0     1  0  0  0  0  0999 V2000
  -26.5326  -38.1290   22.3938 C   0  0  0  0  0  0  0  0  0  0  0  0
  -27.2039  -37.1653   21.6481 C   0  0  0  0  0  0  0  0  0  0  0  0
  -22.3609  -14.7507   19.9465 C   0  0  0  0  0  0  0  0  0  0  0  0
  -22.2562  -14.0203   22.2470 C   0  0  0  0  0  0  0  0  0  0  0  0
  -25.7787  -37.7498   23.5036 C   0  0  0  0  0  0  0  0  0  0  0  0
  -27.1225  -35.8218   22.0126 C   0  0  0  0  0  0  0  0  0  0  0  0
  -27.0539  -29.2551   19.1506 C   0  0  0  0  0  0  0  0  0  0  0  0
  -21.0900  -15.3126   20.0670 C   0  0  0  0  0  0  0  0  0  0  0  0
  -20.9853  -14.5823   22.3676 C   0  0  0  0  0  0  0  0  0  0  0  0
  -27.6972  -28.0235   19.2652 C   0  0  0  0  0  0  0  0  0  0  0  0
  -19.7197  -18.1177   21.3657 C   0  0  0  0  0  0  0  0  0  0  0  0
  -19.5253  -19.3982   20.8478 C   0  0  0  0  0  0  0  0  0  0  0  0
  -26.3007  -27.4767   21.1546 C   0  0  0  0  0  0  0  0  0  0  0  0
  -29.4138  -23.5935   22.3038 C   0  0  0  0  0  0  0  0  0  0  0  0
  -28.1784  -22.8417   20.3685 C   0  0  0  0  0  0  0  0  0  0  0  0
  -17.8284  -18.5382   19.3584 C   0  0  0  0  0  0  0  0  0  0  0  0
  -22.9440  -14.1045   21.0365 C   0  0  0  0  0  0  0  0  0  0  0  0
  -24.6570  -12.5104   20.0205 C   0  0  0  0  0  0  0  0  0  0  0  0
  -25.6802  -36.4000   23.8761 C   0  0  0  0  0  0  0  0  0  0  0  0
  -26.0349  -29.6119   20.0455 C   0  0  0  0  0  0  0  0  0  0  0  0
  -26.3677  -35.4243   23.1292 C   0  0  0  0  0  0  0  0  0  0  0  0
  -25.6443  -28.7124   21.0477 C   0  0  0  0  0  0  0  0  0  0  0  0
  -29.9872  -21.4999   21.2431 C   0  0  0  0  0  0  0  0  0  0  0  0
  -28.3991  -23.7901   21.3672 C   0  0  0  0  0  0  0  0  0  0  0  0
  -30.2079  -22.4484   22.2417 C   0  0  0  0  0  0  0  0  0  0  0  0
  -20.4022  -15.2285   21.2775 C   0  0  0  0  0  0  0  0  0  0  0  0
  -27.3226  -27.1353   20.2690 C   0  0  0  0  0  0  0  0  0  0  0  0
  -18.9685  -17.0474   20.8798 C   0  0  0  0  0  0  0  0  0  0  0  0
  -28.9725  -21.6965   20.3065 C   0  0  0  0  0  0  0  0  0  0  0  0
  -18.5797  -19.6084   19.8442 C   0  0  0  0  0  0  0  0  0  0  0  0
  -18.0229  -17.2577   19.8762 C   0  0  0  0  0  0  0  0  0  0  0  0
  -24.2566  -13.5233   20.9124 C   0  0  0  0  0  0  0  0  0  0  0  0
  -25.9881  -12.3154   20.2975 C   0  0  0  0  0  0  0  0  0  0  0  0
  -23.8940  -11.8086   19.0300 C   0  0  0  0  0  0  0  0  0  0  0  0
  -25.6404  -31.9258   22.1888 C   0  0  0  0  0  0  0  0  0  0  0  0
  -22.6588  -30.6694   22.4205 C   0  0  0  0  0  0  0  0  0  0  0  0
  -20.6144  -27.9665   22.0182 C   0  0  0  0  0  0  0  0  0  0  0  0
  -30.2507  -15.6803   22.5744 C   0  0  0  0  0  0  0  0  0  0  0  0
  -24.8917  -36.0435   25.1114 C   0  0  0  0  0  0  0  0  0  0  0  0
  -25.3327  -30.9331   19.8919 C   0  0  0  0  0  0  0  0  0  0  0  0
  -24.5424  -29.0392   22.0210 C   0  0  0  0  0  0  0  0  0  0  0  0
  -24.5521  -34.5585   25.2098 C   0  0  0  0  0  0  0  0  0  0  0  0
  -29.1713  -12.6386   23.8430 C   0  0  0  0  0  0  0  0  0  0  0  0
  -25.7817  -33.7084   24.9063 C   0  0  0  0  0  0  0  0  0  0  0  0
  -27.8245  -12.4118   23.1579 C   0  0  0  0  0  0  0  0  0  0  0  0
  -31.6174  -17.6349   19.9924 C   0  0  0  0  0  0  0  0  0  0  0  0
  -32.4786  -18.8760   19.7876 C   0  0  0  0  0  0  0  0  0  0  0  0
  -29.9953  -18.9834   21.3813 C   0  0  0  0  0  0  0  0  0  0  0  0
  -29.3381  -14.0990   24.2457 C   0  0  0  0  0  0  0  0  0  0  0  0
  -27.8597  -14.8431   22.4068 C   0  0  0  0  0  0  0  0  0  0  0  0
  -30.8501  -20.2482   21.1712 C   0  0  1  0  0  0  0  0  0  0  0  0
  -26.2836  -33.9542   23.4783 C   0  0  1  0  0  0  0  0  0  0  0  0
  -24.6593  -31.4048   21.1770 C   0  0  1  0  0  0  0  0  0  0  0  0
  -27.6378  -13.3788   21.9756 C   0  0  2  0  0  0  0  0  0  0  0  0
  -30.8449  -17.7113   21.3097 C   0  0  1  0  0  0  0  0  0  0  0  0
  -31.6577  -20.1658   19.8597 C   0  0  1  0  0  0  0  0  0  0  0  0
  -31.2889  -22.2619   23.2556 C   0  0  0  0  0  0  0  0  0  0  0  0
  -18.2344  -27.2334   22.3272 C   0  0  0  0  0  0  0  0  0  0  0  0
  -23.1167  -30.4595   25.4299 C   0  0  0  0  0  0  0  0  0  0  0  0
  -21.1678  -28.8923   25.5467 C   0  0  0  0  0  0  0  0  0  0  0  0
  -20.8331  -31.2404   24.7741 C   0  0  0  0  0  0  0  0  0  0  0  0
  -28.8150  -16.4751   20.6478 C   0  0  0  0  0  0  0  0  0  0  0  0
  -20.2916  -27.4019   19.1310 C   0  0  0  0  0  0  0  0  0  0  0  0
  -27.6840  -21.0631   18.4106 C   0  0  0  0  0  0  0  0  0  0  0  0
  -32.9536  -21.5370   18.4588 C   0  0  0  0  0  0  0  0  0  0  0  0
  -27.5460  -25.0227   21.4334 C   0  0  0  0  0  0  0  0  0  1  0  0
  -22.0141  -29.5943   23.2616 C   0  0  1  0  0  0  0  0  0  0  0  0
  -19.2526  -27.8222   21.3632 C   0  0  2  0  0  0  0  0  0  0  0  0
  -21.8050  -30.0410   24.7361 C   0  0  0  0  0  0  0  0  0  0  0  0
  -25.2527  -13.9423   21.6975 N   0  0  0  0  0  0  0  0  0  0  0  0
  -26.2921  -13.1890   21.2998 N   0  0  0  0  0  0  0  0  0  0  0  0
  -23.8904  -30.3458   21.8338 N   0  0  0  0  0  0  0  0  0  0  0  0
  -29.1489  -14.9892   23.1000 N   0  0  0  0  0  0  0  0  0  0  0  0
  -26.9164  -11.4834   19.7792 N   0  0  0  0  0  0  0  0  0  0  0  0
  -23.2392  -10.6273   19.4043 N   0  0  0  0  0  0  0  0  0  0  0  0
  -25.4526  -33.2534   22.5229 N   0  0  0  0  0  0  0  0  0  0  0  0
  -20.7851  -29.2181   22.5712 N   0  0  0  0  0  0  0  0  0  0  0  0
  -30.0146  -16.5277   21.4814 N   0  0  0  0  0  0  0  0  0  0  0  0
  -19.3425  -26.9308   20.1723 N   0  3  0  0  0  0  0  0  0  0  0  0
  -23.8093  -12.2082   17.8440 O   0  0  0  0  0  0  0  0  0  0  0  0
  -26.5029  -31.1782   22.6346 O   0  0  0  0  0  0  0  0  0  0  0  0
  -22.0871  -31.7539   22.2832 O   0  0  0  0  0  0  0  0  0  0  0  0
  -21.4424  -27.0586   22.0405 O   0  0  0  0  0  0  0  0  0  0  0  0
  -31.3826  -15.5540   23.0591 O   0  0  0  0  0  0  0  0  0  0  0  0
  -19.1621  -15.7769   21.3956 O   0  0  0  0  0  0  0  0  0  0  0  0
  -28.7416  -20.7805   19.3246 O   0  0  0  0  0  0  0  0  0  0  0  0
  -27.9492  -25.9328   20.3835 O   0  0  0  0  0  0  0  0  0  1  0  0
  -32.5549  -21.2743   19.7949 O   0  0  0  0  0  0  0  0  0  0  0  0
  -18.3920  -20.8384   19.3480 F   0  0  0  0  0  0  0  0  0  0  0  0
  -17.2974  -16.2336   19.4064 F   0  0  0  0  0  0  0  0  0  0  0  0
  1  2  1  0  0  0  0
  1  5  2  0  0  0  0
  2  6  2  0  0  0  0
  3  8  2  0  0  0  0
  3 17  1  0  0  0  0
  4  9  1  0  0  0  0
  4 17  2  0  0  0  0
  5 19  1  0  0  0  0
  6 21  1  0  0  0  0
  7 10  2  0  0  0  0
  7 20  1  0  0  0  0
  8 26  1  0  0  0  0
  9 26  2  0  0  0  0
 10 27  1  0  0  0  0
 11 12  2  0  0  0  0
 11 28  1  0  0  0  0
 12 30  1  0  0  0  0
 13 22  1  0  0  0  0
 13 27  2  0  0  0  0
 14 24  1  0  0  0  0
 14 25  2  0  0  0  0
 15 24  2  0  0  0  0
 15 29  1  0  0  0  0
 16 30  2  0  0  0  0
 16 31  1  0  0  0  0
 17 32  1  0  0  0  0
 18 32  1  0  0  0  0
 18 33  2  0  0  0  0
 18 34  1  0  0  0  0
 19 21  2  0  0  0  0
 19 39  1  0  0  0  0
 20 22  2  0  0  0  0
 20 40  1  0  0  0  0
 21 52  1  0  0  0  0
 22 41  1  0  0  0  0
 23 25  1  0  0  0  0
 23 29  2  0  0  0  0
 23 51  1  0  0  0  0
 24 66  1  0  0  0  0
 25 57  1  0  0  0  0
 26 85  1  0  0  0  0
 27 87  1  0  0  0  0
 28 31  2  0  0  0  0
 28 85  1  0  0  0  0
 29 86  1  0  0  0  0
 30 89  1  0  0  0  0
 31 90  1  0  0  0  0
 32 70  2  0  0  0  0
 33 71  1  0  0  0  0
 33 74  1  0  0  0  0
 34 75  1  0  0  0  0
 34 80  2  0  0  0  0
 35 53  1  0  0  0  0
 35 76  1  0  0  0  0
 35 81  2  0  0  0  0
 36 67  1  0  0  0  0
 36 72  1  0  0  0  0
 36 82  2  0  0  0  0
 37 68  1  0  0  0  0
 37 77  1  0  0  0  0
 37 83  2  0  0  0  0
 38 73  1  0  0  0  0
 38 78  1  0  0  0  0
 38 84  2  0  0  0  0
 39 42  1  0  0  0  0
 40 53  1  0  0  0  0
 41 72  1  0  0  0  0
 42 44  1  0  0  0  0
 43 45  1  0  0  0  0
 43 49  1  0  0  0  0
 44 52  1  0  0  0  0
 45 54  1  0  0  0  0
 46 47  1  0  0  0  0
 46 55  1  0  0  0  0
 47 56  1  0  0  0  0
 48 51  1  0  0  0  0
 48 55  1  0  0  0  0
 49 73  1  0  0  0  0
 50 54  1  0  0  0  0
 50 73  1  0  0  0  0
 51 56  1  0  0  0  0
 52 76  1  0  0  0  0
 53 72  1  0  0  0  0
 54 71  1  0  0  0  0
 55 78  1  0  0  0  0
 56 88  1  0  0  0  0
 58 68  1  0  0  0  0
 59 69  1  0  0  0  0
 60 69  1  0  0  0  0
 61 69  1  0  0  0  0
 62 78  1  0  0  0  0
 63 79  1  0  0  0  0
 64 86  1  0  0  0  0
 65 88  1  0  0  0  0
 66 87  1  0  0  0  0
 67 69  1  0  0  0  0
 67 77  1  0  0  0  0
 68 79  1  0  0  0  0
 70 71  1  0  0  0  0
M  CHG  1  79   1
M  ISO  4  38 100  66 101  78 100  87 101
M  END
> <Batch ID>
0154

> <Smiles>
CNC(C)C(=O)NC(C(=O)N1Cc2cc([101O:1][101CH2:1]c3cc(C)c(C4CC([100N:0](C)[100C:0](=O)N5CCCC(n6nc(-c7ccc(Oc8ccc(F)cc8F)cc7)c(C(N)=O)c6N)C5)CCC4OC)c(OC)c3)ccc2CC1C(=O)NC1CCCc2ccccc21)C(C)(C)C

> <Shape>
0.283

> <Color>
0.078

> <Negative vol penalty>
0.000

$$$$

  -OEChem-04052321513D

 84 92  0     1  0  0  0  0  0999 V2000
  -30.8939  -32.0612   25.7828 C   0  0  0  0  0  0  0  0  0  0  0  0
  -30.9471  -30.9178   24.9921 C   0  0  0  0  0  0  0  0  0  0  0  0
  -23.0170   -9.9053   20.1133 C   0  0  0  0  0  0  0  0  0  0  0  0
  -23.7690  -10.0571   22.4043 C   0  0  0  0  0  0  0  0  0  0  0  0
  -29.8021  -32.2762   26.6228 C   0  0  0  0  0  0  0  0  0  0  0  0
  -29.9090  -29.9882   25.0418 C   0  0  0  0  0  0  0  0  0  0  0  0
  -27.7701  -26.6067   20.4054 C   0  0  0  0  0  0  0  0  0  0  0  0
  -22.2214   -8.8093   20.4471 C   0  0  0  0  0  0  0  0  0  0  0  0
  -22.9733   -8.9611   22.7381 C   0  0  0  0  0  0  0  0  0  0  0  0
  -28.0087  -25.2890   20.0173 C   0  0  0  0  0  0  0  0  0  0  0  0
  -19.7108   -8.3569   23.3791 C   0  0  0  0  0  0  0  0  0  0  0  0
  -18.9490   -8.4419   24.5444 C   0  0  0  0  0  0  0  0  0  0  0  0
  -26.0285  -24.5876   21.2032 C   0  0  0  0  0  0  0  0  0  0  0  0
  -28.2381  -20.8693   17.6182 C   0  0  0  0  0  0  0  0  0  0  0  0
  -20.1000   -6.5145   25.4375 C   0  0  0  0  0  0  0  0  0  0  0  0
  -23.7908  -10.5292   21.0919 C   0  0  0  0  0  0  0  0  0  0  0  0
  -24.2458  -13.0196   20.7784 C   0  0  0  0  0  0  0  0  0  0  0  0
  -28.7455  -31.3535   26.6756 C   0  0  0  0  0  0  0  0  0  0  0  0
  -26.6630  -26.9236   21.2057 C   0  0  0  0  0  0  0  0  0  0  0  0
  -28.8027  -30.1904   25.8843 C   0  0  0  0  0  0  0  0  0  0  0  0
  -25.7767  -25.9104   21.5979 C   0  0  0  0  0  0  0  0  0  0  0  0
  -28.2890  -19.5155   17.2863 C   0  0  0  0  0  0  0  0  0  0  0  0
  -28.5862  -21.2860   18.9031 C   0  0  0  0  0  0  0  0  0  0  0  0
  -28.6879  -18.5783   18.2393 C   0  0  0  0  0  0  0  0  0  0  0  0
  -28.9851  -20.3488   19.8561 C   0  0  0  0  0  0  0  0  0  0  0  0
  -22.1995   -8.3372   21.7595 C   0  0  0  0  0  0  0  0  0  0  0  0
  -27.1395  -24.2788   20.4186 C   0  0  0  0  0  0  0  0  0  0  0  0
  -20.6671   -7.3506   23.2429 C   0  0  0  0  0  0  0  0  0  0  0  0
  -29.0360  -18.9949   19.5242 C   0  0  0  0  0  0  0  0  0  0  0  0
  -19.1436   -7.5208   25.5736 C   0  0  0  0  0  0  0  0  0  0  0  0
  -20.8617   -6.4294   24.2720 C   0  0  0  0  0  0  0  0  0  0  0  0
  -24.6133  -11.6610   20.7477 C   0  0  0  0  0  0  0  0  0  0  0  0
  -25.3716  -13.6893   20.3654 C   0  0  0  0  0  0  0  0  0  0  0  0
  -22.9984  -13.6224   21.1475 C   0  0  0  0  0  0  0  0  0  0  0  0
  -26.2736  -28.1685   24.1043 C   0  0  0  0  0  0  0  0  0  0  0  0
  -23.1355  -28.1026   23.2852 C   0  0  0  0  0  0  0  0  0  0  0  0
  -20.6701  -26.7274   21.3676 C   0  0  0  0  0  0  0  0  0  0  0  0
  -30.8949  -14.4753   20.5108 C   0  0  0  0  0  0  0  0  0  0  0  0
  -27.6088  -31.6058   27.6342 C   0  0  0  0  0  0  0  0  0  0  0  0
  -26.4048  -28.3538   21.5935 C   0  0  0  0  0  0  0  0  0  0  0  0
  -24.5626  -26.2012   22.4404 C   0  0  0  0  0  0  0  0  0  0  0  0
  -26.3723  -30.7569   27.3497 C   0  0  0  0  0  0  0  0  0  0  0  0
  -29.6593  -11.9650   18.3089 C   0  0  0  0  0  0  0  0  0  0  0  0
  -26.7663  -29.3023   27.1133 C   0  0  0  0  0  0  0  0  0  0  0  0
  -28.2088  -11.7701   18.7537 C   0  0  0  0  0  0  0  0  0  0  0  0
  -30.5815  -12.2378   19.4951 C   0  0  0  0  0  0  0  0  0  0  0  0
  -28.7100  -13.1584   20.8080 C   0  0  0  0  0  0  0  0  0  0  0  0
  -27.6843  -29.1709   25.8920 C   0  0  1  0  0  0  0  0  0  0  0  0
  -25.5316  -28.4873   22.8372 C   0  0  1  0  0  0  0  0  0  0  0  0
  -27.7328  -12.9360   19.6409 C   0  0  2  0  0  0  0  0  0  0  0  0
  -27.9129  -19.0954   15.9032 C   0  0  0  0  0  0  0  0  0  0  0  0
  -28.7444  -17.1257   17.8868 C   0  0  0  0  0  0  0  0  0  0  0  0
  -29.3593  -20.7920   21.2347 C   0  0  0  0  0  0  0  0  0  0  0  0
  -18.1990  -26.8530   20.9488 C   0  0  0  0  0  0  0  0  0  0  0  0
  -22.6217  -26.5667   25.8711 C   0  0  0  0  0  0  0  0  0  0  0  0
  -20.3870  -25.9083   24.9541 C   0  0  0  0  0  0  0  0  0  0  0  0
  -20.9149  -28.3157   25.3398 C   0  0  0  0  0  0  0  0  0  0  0  0
  -21.0714  -27.5129   18.5426 C   0  0  0  0  0  0  0  0  0  0  0  0
  -28.5220  -22.7478   19.2353 C   0  0  0  0  0  0  0  0  0  1  0  0
  -31.0530  -16.7106   21.5774 C   0  0  0  0  0  0  0  0  0  0  0  0
  -30.8185  -17.7806   20.5260 C   0  0  0  0  0  0  0  0  0  0  0  0
  -22.0169  -27.0976   23.4179 C   0  0  1  0  0  0  0  0  0  0  0  0
  -19.5711  -27.3609   20.5337 C   0  0  2  0  0  0  0  0  0  0  0  0
  -21.5090  -26.9660   24.8815 C   0  0  0  0  0  0  0  0  0  0  0  0
  -25.8740  -11.4768   20.3466 N   0  0  0  0  0  0  0  0  0  0  0  0
  -26.3084  -12.7285   20.1215 N   0  0  0  0  0  0  0  0  0  0  0  0
  -24.3566  -27.6141   22.7993 N   0  0  0  0  0  0  0  0  0  0  0  0
  -30.0748  -13.3556   20.2948 N   0  0  0  0  0  0  0  0  0  0  0  0
  -25.6417  -15.0004   20.1906 N   0  0  0  0  0  0  0  0  0  0  0  0
  -21.9457  -12.7881   21.5476 N   0  0  0  0  0  0  0  0  0  0  0  0
  -26.9142  -29.2546   24.6695 N   0  0  0  0  0  0  0  0  0  0  0  0
  -20.9903  -27.5012   22.4631 N   0  0  0  0  0  0  0  0  0  0  0  0
  -30.3352  -15.4926   21.2742 N   0  0  0  0  0  0  0  0  0  0  0  0
  -19.7709  -27.0486   19.0903 N   0  3  0  0  0  0  0  0  0  0  0  0
  -22.8173  -14.8631   21.1075 O   0  0  0  0  0  0  0  0  0  0  0  0
  -26.2642  -27.0224   24.5379 O   0  0  0  0  0  0  0  0  0  0  0  0
  -22.9313  -29.2792   23.5944 O   0  0  0  0  0  0  0  0  0  0  0  0
  -21.1897  -25.6519   21.0784 O   0  0  0  0  0  0  0  0  0  0  0  0
  -32.0390  -14.5643   20.0526 O   0  0  0  0  0  0  0  0  0  0  0  0
  -21.4231   -7.2679   22.0856 O   0  0  0  0  0  0  0  0  0  0  0  0
  -27.3704  -22.9917   20.0418 O   0  0  0  0  0  0  0  0  0  1  0  0
  -29.4263  -18.0783   20.4559 O   0  0  0  0  0  0  0  0  0  0  0  0
  -18.4131   -7.6035   26.6933 F   0  0  0  0  0  0  0  0  0  0  0  0
  -21.7798   -5.4612   24.1474 F   0  0  0  0  0  0  0  0  0  0  0  0
  1  2  1  0  0  0  0
  1  5  2  0  0  0  0
  2  6  2  0  0  0  0
  3  8  2  0  0  0  0
  3 16  1  0  0  0  0
  4  9  1  0  0  0  0
  4 16  2  0  0  0  0
  5 18  1  0  0  0  0
  6 20  1  0  0  0  0
  7 10  2  0  0  0  0
  7 19  1  0  0  0  0
  8 26  1  0  0  0  0
  9 26  2  0  0  0  0
 10 27  1  0  0  0  0
 11 12  2  0  0  0  0
 11 28  1  0  0  0  0
 12 30  1  0  0  0  0
 13 21  1  0  0  0  0
 13 27  2  0  0  0  0
 14 22  2  0  0  0  0
 14 23  1  0  0  0  0
 15 30  2  0  0  0  0
 15 31  1  0  0  0  0
 16 32  1  0  0  0  0
 17 32  1  0  0  0  0
 17 33  2  0  0  0  0
 17 34  1  0  0  0  0
 18 20  2  0  0  0  0
 18 39  1  0  0  0  0
 19 21  2  0  0  0  0
 19 40  1  0  0  0  0
 20 48  1  0  0  0  0
 21 41  1  0  0  0  0
 22 24  1  0  0  0  0
 22 51  1  0  0  0  0
 23 25  2  0  0  0  0
 23 59  1  0  0  0  0
 24 29  2  0  0  0  0
 24 52  1  0  0  0  0
 25 29  1  0  0  0  0
 25 53  1  0  0  0  0
 26 80  1  0  0  0  0
 27 81  1  0  0  0  0
 28 31  2  0  0  0  0
 28 80  1  0  0  0  0
 29 82  1  0  0  0  0
 30 83  1  0  0  0  0
 31 84  1  0  0  0  0
 32 65  2  0  0  0  0
 33 66  1  0  0  0  0
 33 69  1  0  0  0  0
 34 70  1  0  0  0  0
 34 75  2  0  0  0  0
 35 49  1  0  0  0  0
 35 71  1  0  0  0  0
 35 76  2  0  0  0  0
 36 62  1  0  0  0  0
 36 67  1  0  0  0  0
 36 77  2  0  0  0  0
 37 63  1  0  0  0  0
 37 72  1  0  0  0  0
 37 78  2  0  0  0  0
 38 68  1  0  0  0  0
 38 73  1  0  0  0  0
 38 79  2  0  0  0  0
 39 42  1  0  0  0  0
 40 49  1  0  0  0  0
 41 67  1  0  0  0  0
 42 44  1  0  0  0  0
 43 45  1  0  0  0  0
 43 46  1  0  0  0  0
 44 48  1  0  0  0  0
 45 50  1  0  0  0  0
 46 68  1  0  0  0  0
 47 50  1  0  0  0  0
 47 68  1  0  0  0  0
 48 71  1  0  0  0  0
 49 67  1  0  0  0  0
 50 66  1  0  0  0  0
 54 63  1  0  0  0  0
 55 64  1  0  0  0  0
 56 64  1  0  0  0  0
 57 64  1  0  0  0  0
 58 74  1  0  0  0  0
 59 81  1  0  0  0  0
 60 61  1  0  0  0  0
 60 73  1  0  0  0  0
 61 82  1  0  0  0  0
 62 64  1  0  0  0  0
 62 72  1  0  0  0  0
 63 74  1  0  0  0  0
 65 66  1  0  0  0  0
M  CHG  1  74   1
M  ISO  4  38 100  59 101  73 100  81 101
M  END
> <Batch ID>
0154

> <Smiles>
CNC(C)C(=O)NC(C(=O)N1Cc2cc([101O:1][101CH2:1]c3cc(C)c(C)c(OCC[100NH:0][100C:0](=O)N4CCCC(n5nc(-c6ccc(Oc7ccc(F)cc7F)cc6)c(C(N)=O)c5N)C4)c3C)ccc2CC1C(=O)NC1CCCc2ccccc21)C(C)(C)C

> <Shape>
0.311

> <Color>
0.202

> <Negative vol penalty>
0.000

$$$$

  -OEChem-04052321513D

 85 94  0     1  0  0  0  0  0999 V2000
  -24.5215   -6.8677   24.2685 C   0  0  0  0  0  0  0  0  0  0  0  0
  -25.6910   -7.3832   23.7190 C   0  0  0  0  0  0  0  0  0  0  0  0
  -21.7259  -30.3391   21.5007 C   0  0  0  0  0  0  0  0  0  0  0  0
  -22.6517  -28.1080   21.5472 C   0  0  0  0  0  0  0  0  0  0  0  0
  -23.2984   -7.0919   23.6378 C   0  0  0  0  0  0  0  0  0  0  0  0
  -25.6381   -8.1224   22.5377 C   0  0  0  0  0  0  0  0  0  0  0  0
  -28.0506  -14.9057   22.2970 C   0  0  0  0  0  0  0  0  0  0  0  0
  -20.4442  -29.8105   21.6534 C   0  0  0  0  0  0  0  0  0  0  0  0
  -21.3700  -27.5794   21.6999 C   0  0  0  0  0  0  0  0  0  0  0  0
  -28.6845  -16.1353   22.1171 C   0  0  0  0  0  0  0  0  0  0  0  0
  -18.5373  -28.5863   24.1631 C   0  0  0  0  0  0  0  0  0  0  0  0
  -17.6897  -29.1978   25.0867 C   0  0  0  0  0  0  0  0  0  0  0  0
  -27.9366  -16.1966   19.8182 C   0  0  0  0  0  0  0  0  0  0  0  0
  -16.1141  -29.6818   23.3202 C   0  0  0  0  0  0  0  0  0  0  0  0
  -22.8297  -29.4879   21.4475 C   0  0  0  0  0  0  0  0  0  0  0  0
  -24.8118  -30.9317   22.1506 C   0  0  0  0  0  0  0  0  0  0  0  0
  -23.2294   -7.8423   22.4535 C   0  0  0  0  0  0  0  0  0  0  0  0
  -27.3434  -14.3236   21.2414 C   0  0  0  0  0  0  0  0  0  0  0  0
  -24.4131   -8.3557   21.8899 C   0  0  0  0  0  0  0  0  0  0  0  0
  -27.2892  -14.9711   19.9961 C   0  0  0  0  0  0  0  0  0  0  0  0
  -20.2662  -28.4306   21.7531 C   0  0  0  0  0  0  0  0  0  0  0  0
  -28.6278  -16.7790   20.8807 C   0  0  0  0  0  0  0  0  0  0  0  0
  -18.1734  -28.5225   22.8180 C   0  0  0  0  0  0  0  0  0  0  0  0
  -16.4781  -29.7456   24.6653 C   0  0  0  0  0  0  0  0  0  0  0  0
  -16.9618  -29.0703   22.3966 C   0  0  0  0  0  0  0  0  0  0  0  0
  -24.1538  -30.0334   21.2892 C   0  0  0  0  0  0  0  0  0  0  0  0
  -26.0348  -31.1394   21.5610 C   0  0  0  0  0  0  0  0  0  0  0  0
  -24.3581  -31.5252   23.3744 C   0  0  0  0  0  0  0  0  0  0  0  0
  -31.2851  -22.1505   20.5626 C   0  0  0  0  0  0  0  0  0  0  0  0
  -25.2498  -11.4479   20.0484 C   0  0  0  0  0  0  0  0  0  0  0  0
  -24.0215  -13.9965   18.8627 C   0  0  0  0  0  0  0  0  0  0  0  0
  -22.7339  -17.0625   18.1018 C   0  0  0  0  0  0  0  0  0  0  0  0
  -29.3593  -27.8683   17.8062 C   0  0  0  0  0  0  0  0  0  0  0  0
  -21.8901   -8.0182   21.7825 C   0  0  0  0  0  0  0  0  0  0  0  0
  -26.6972  -12.9711   21.3719 C   0  0  0  0  0  0  0  0  0  0  0  0
  -26.5461  -14.2909   18.8790 C   0  0  0  0  0  0  0  0  0  0  0  0
  -21.8746   -9.1290   20.7356 C   0  0  0  0  0  0  0  0  0  0  0  0
  -28.1683  -31.1818   17.2788 C   0  0  0  0  0  0  0  0  0  0  0  0
  -23.0940   -9.0220   19.8255 C   0  0  0  0  0  0  0  0  0  0  0  0
  -29.4351  -20.7906   19.6577 C   0  0  0  0  0  0  0  0  0  0  0  0
  -31.6432  -19.7169   20.2633 C   0  0  0  0  0  0  0  0  0  0  0  0
  -27.0637  -31.3443   18.3245 C   0  0  0  0  0  0  0  0  0  0  0  0
  -29.0406  -19.5385   18.8739 C   0  0  0  0  0  0  0  0  0  0  0  0
  -31.2487  -18.4641   19.4801 C   0  0  0  0  0  0  0  0  0  0  0  0
  -30.0491  -24.6966   18.2695 C   0  0  0  0  0  0  0  0  0  0  0  0
  -30.6654  -25.6881   20.5066 C   0  0  0  0  0  0  0  0  0  0  0  0
  -28.2030  -29.7650   16.7100 C   0  0  0  0  0  0  0  0  0  0  0  0
  -31.0996  -23.6087   18.4886 C   0  0  0  0  0  0  0  0  0  0  0  0
  -31.7060  -24.5840   20.6796 C   0  0  0  0  0  0  0  0  0  0  0  0
  -27.1918  -28.8568   18.7658 C   0  0  0  0  0  0  0  0  0  0  0  0
  -24.3936   -9.1835   20.6233 C   0  0  1  0  0  0  0  0  0  0  0  0
  -30.9535  -20.9643   19.7101 C   0  0  0  0  0  0  0  0  0  0  0  0
  -25.3888  -12.8476   20.5707 C   0  0  1  0  0  0  0  0  0  0  0  0
  -27.1534  -30.2537   19.4089 C   0  0  2  0  0  0  0  0  0  0  0  0
  -30.4085  -25.9784   19.0255 C   0  0  0  0  0  0  0  0  0  0  0  0
  -29.7326  -18.2834   19.4075 C   0  0  0  0  0  0  0  0  0  1  0  0
  -20.8327  -18.1523   16.8789 C   0  0  0  0  0  0  0  0  0  0  0  0
  -25.3909  -13.3942   16.2045 C   0  0  0  0  0  0  0  0  0  0  0  0
  -24.0472  -15.2391   15.1754 C   0  0  0  0  0  0  0  0  0  0  0  0
  -22.8947  -13.2522   16.1483 C   0  0  0  0  0  0  0  0  0  0  0  0
  -21.7280  -18.3456   20.5718 C   0  0  0  0  0  0  0  0  0  0  0  0
  -23.9614  -14.9458   17.6928 C   0  0  1  0  0  0  0  0  0  0  0  0
  -21.3268  -17.6208   18.2154 C   0  0  2  0  0  0  0  0  0  0  0  0
  -24.0903  -14.2129   16.3277 C   0  0  0  0  0  0  0  0  0  0  0  0
  -24.8972  -29.6940   20.2327 N   0  0  0  0  0  0  0  0  0  0  0  0
  -26.0349  -30.3827   20.4263 N   0  0  0  0  0  0  0  0  0  0  0  0
  -31.3384  -23.3876   19.9200 N   0  0  0  0  0  0  0  0  0  0  0  0
  -25.2896  -13.7182   19.3869 N   0  0  0  0  0  0  0  0  0  0  0  0
  -28.2900  -28.7789   17.7898 N   0  0  0  0  0  0  0  0  0  0  0  0
  -27.0993  -31.8938   21.9076 N   0  0  0  0  0  0  0  0  0  0  0  0
  -24.6130  -30.8532   24.5776 N   0  0  0  0  0  0  0  0  0  0  0  0
  -24.6306  -10.5787   20.9262 N   0  0  0  0  0  0  0  0  0  0  0  0
  -22.7267  -15.7072   17.8480 N   0  0  0  0  0  0  0  0  0  0  0  0
  -29.3697  -26.9718   18.8678 N   0  0  0  0  0  0  0  0  0  0  0  0
  -21.2894  -18.7333   19.2063 N   0  3  0  0  0  0  0  0  0  0  0  0
  -23.7304  -32.6109   23.3986 O   0  0  0  0  0  0  0  0  0  0  0  0
  -31.4895  -21.9871   21.7683 O   0  0  0  0  0  0  0  0  0  0  0  0
  -25.6716  -11.1755   18.9305 O   0  0  0  0  0  0  0  0  0  0  0  0
  -22.9746  -13.5091   19.2983 O   0  0  0  0  0  0  0  0  0  0  0  0
  -23.7389  -17.7597   18.2221 O   0  0  0  0  0  0  0  0  0  0  0  0
  -30.2425  -27.8586   16.9420 O   0  0  0  0  0  0  0  0  0  0  0  0
  -19.0157  -27.9144   21.9024 O   0  0  0  0  0  0  0  0  0  0  0  0
  -29.2452  -17.9814   20.7133 O   0  0  0  0  0  0  0  0  0  1  0  0
  -15.6634  -30.3314   25.5526 F   0  0  0  0  0  0  0  0  0  0  0  0
  -16.6062  -29.0111   21.1059 F   0  0  0  0  0  0  0  0  0  0  0  0
  1  2  1  0  0  0  0
  1  5  2  0  0  0  0
  2  6  2  0  0  0  0
  3  8  2  0  0  0  0
  3 15  1  0  0  0  0
  4  9  1  0  0  0  0
  4 15  2  0  0  0  0
  5 17  1  0  0  0  0
  6 19  1  0  0  0  0
  7 10  2  0  0  0  0
  7 18  1  0  0  0  0
  8 21  1  0  0  0  0
  9 21  2  0  0  0  0
 10 22  1  0  0  0  0
 11 12  2  0  0  0  0
 11 23  1  0  0  0  0
 12 24  1  0  0  0  0
 13 20  1  0  0  0  0
 13 22  2  0  0  0  0
 14 24  2  0  0  0  0
 14 25  1  0  0  0  0
 15 26  1  0  0  0  0
 16 26  1  0  0  0  0
 16 27  2  0  0  0  0
 16 28  1  0  0  0  0
 17 19  2  0  0  0  0
 17 34  1  0  0  0  0
 18 20  2  0  0  0  0
 18 35  1  0  0  0  0
 19 51  1  0  0  0  0
 20 36  1  0  0  0  0
 21 82  1  0  0  0  0
 22 83  1  0  0  0  0
 23 25  2  0  0  0  0
 23 82  1  0  0  0  0
 24 84  1  0  0  0  0
 25 85  1  0  0  0  0
 26 65  2  0  0  0  0
 27 66  1  0  0  0  0
 27 70  1  0  0  0  0
 28 71  1  0  0  0  0
 28 76  2  0  0  0  0
 29 52  1  0  0  0  0
 29 67  1  0  0  0  0
 29 77  2  0  0  0  0
 30 53  1  0  0  0  0
 30 72  1  0  0  0  0
 30 78  2  0  0  0  0
 31 62  1  0  0  0  0
 31 68  1  0  0  0  0
 31 79  2  0  0  0  0
 32 63  1  0  0  0  0
 32 73  1  0  0  0  0
 32 80  2  0  0  0  0
 33 69  1  0  0  0  0
 33 74  1  0  0  0  0
 33 81  2  0  0  0  0
 34 37  1  0  0  0  0
 35 53  1  0  0  0  0
 36 68  1  0  0  0  0
 37 39  1  0  0  0  0
 38 42  1  0  0  0  0
 38 47  1  0  0  0  0
 39 51  1  0  0  0  0
 40 43  1  0  0  0  0
 40 52  1  0  0  0  0
 41 44  1  0  0  0  0
 41 52  1  0  0  0  0
 42 54  1  0  0  0  0
 43 56  1  0  0  0  0
 44 56  1  0  0  0  0
 45 48  1  0  0  0  0
 45 55  1  0  0  0  0
 46 49  1  0  0  0  0
 46 55  1  0  0  0  0
 47 69  1  0  0  0  0
 48 67  1  0  0  0  0
 49 67  1  0  0  0  0
 50 54  1  0  0  0  0
 50 69  1  0  0  0  0
 51 72  1  0  0  0  0
 53 68  1  0  0  0  0
 54 66  1  0  0  0  0
 55 74  1  0  0  0  0
 56 83  1  0  0  0  0
 57 63  1  0  0  0  0
 58 64  1  0  0  0  0
 59 64  1  0  0  0  0
 60 64  1  0  0  0  0
 61 75  1  0  0  0  0
 62 64  1  0  0  0  0
 62 73  1  0  0  0  0
 63 75  1  0  0  0  0
 65 66  1  0  0  0  0
M  CHG  1  75   1
M  ISO  4  33 100  56 101  74 100  83 101
M  END
> <Batch ID>
0154

> <Smiles>
CNC(C)C(=O)NC(C(=O)N1Cc2cc([101O:1][101CH:1]3CCC(C(=O)N4CCC([100NH:0][100C:0](=O)N5CCCC(n6nc(-c7ccc(Oc8ccc(F)cc8F)cc7)c(C(N)=O)c6N)C5)CC4)CC3)ccc2CC1C(=O)NC1CCCc2ccccc21)C(C)(C)C

> <Shape>
0.271

> <Color>
0.057

> <Negative vol penalty>
0.000

$$$$

  -OEChem-04052321513D

 91101  0     1  0  0  0  0  0999 V2000
  -19.2562  -25.1853   23.2228 C   0  0  0  0  0  0  0  0  0  0  0  0
  -20.3978  -25.2667   22.4319 C   0  0  0  0  0  0  0  0  0  0  0  0
  -23.6970  -18.3834   20.8038 C   0  0  0  0  0  0  0  0  0  0  0  0
  -25.6693  -18.0695   19.4442 C   0  0  0  0  0  0  0  0  0  0  0  0
  -18.4586  -26.3131   23.4118 C   0  0  0  0  0  0  0  0  0  0  0  0
  -20.7418  -26.4759   21.8286 C   0  0  0  0  0  0  0  0  0  0  0  0
  -25.6719  -27.5402   22.2827 C   0  0  0  0  0  0  0  0  0  0  0  0
  -24.0884  -19.6957   21.0687 C   0  0  0  0  0  0  0  0  0  0  0  0
  -26.0607  -19.3819   19.7091 C   0  0  0  0  0  0  0  0  0  0  0  0
  -26.5487  -26.8728   21.4285 C   0  0  0  0  0  0  0  0  0  0  0  0
  -26.2832  -21.2794   23.0934 C   0  0  0  0  0  0  0  0  0  0  0  0
  -26.1936  -21.7282   24.4110 C   0  0  0  0  0  0  0  0  0  0  0  0
  -29.6777  -20.5161   18.1042 C   0  0  0  0  0  0  0  0  0  0  0  0
  -29.4751  -20.8548   20.4877 C   0  0  0  0  0  0  0  0  0  0  0  0
  -26.6376  -28.8204   20.0079 C   0  0  0  0  0  0  0  0  0  0  0  0
  -24.6635  -23.4639   23.7157 C   0  0  0  0  0  0  0  0  0  0  0  0
  -24.4874  -17.5703   19.9916 C   0  0  0  0  0  0  0  0  0  0  0  0
  -22.8970  -15.7908   19.0906 C   0  0  0  0  0  0  0  0  0  0  0  0
  -18.7983  -27.5391   22.8184 C   0  0  0  0  0  0  0  0  0  0  0  0
  -25.2622  -28.8511   21.9997 C   0  0  0  0  0  0  0  0  0  0  0  0
  -19.9473  -27.6209   22.0087 C   0  0  0  0  0  0  0  0  0  0  0  0
  -29.4022  -21.3518   19.1864 C   0  0  0  0  0  0  0  0  0  0  0  0
  -25.7575  -29.5032   20.8615 C   0  0  0  0  0  0  0  0  0  0  0  0
  -30.0259  -19.1832   18.3232 C   0  0  0  0  0  0  0  0  0  0  0  0
  -29.8233  -19.5220   20.7067 C   0  0  0  0  0  0  0  0  0  0  0  0
  -25.2703  -20.1950   20.5213 C   0  0  0  0  0  0  0  0  0  0  0  0
  -27.0294  -27.5119   20.2894 C   0  0  0  0  0  0  0  0  0  0  0  0
  -25.5630  -21.9228   22.0869 C   0  0  0  0  0  0  0  0  0  0  0  0
  -30.0988  -18.6862   19.6245 C   0  0  0  0  0  0  0  0  0  0  0  0
  -25.3837  -22.8204   24.7222 C   0  0  0  0  0  0  0  0  0  0  0  0
  -24.7531  -23.0151   22.3981 C   0  0  0  0  0  0  0  0  0  0  0  0
  -24.0839  -16.2144   19.7181 C   0  0  0  0  0  0  0  0  0  0  0  0
  -22.9898  -14.4206   19.0698 C   0  0  0  0  0  0  0  0  0  0  0  0
  -21.8081  -16.5666   18.5729 C   0  0  0  0  0  0  0  0  0  0  0  0
  -22.4721  -30.2470   21.3911 C   0  0  0  0  0  0  0  0  0  0  0  0
  -24.2481  -32.9593   21.4978 C   0  0  0  0  0  0  0  0  0  0  0  0
  -27.3125  -34.4298   21.1906 C   0  0  0  0  0  0  0  0  0  0  0  0
  -28.0493  -13.8901   21.2098 C   0  0  0  0  0  0  0  0  0  0  0  0
  -17.8794  -28.7191   23.0131 C   0  0  0  0  0  0  0  0  0  0  0  0
  -24.3369  -29.5666   22.9453 C   0  0  0  0  0  0  0  0  0  0  0  0
  -25.3642  -30.9172   20.5234 C   0  0  0  0  0  0  0  0  0  0  0  0
  -18.5178  -30.0557   22.6437 C   0  0  0  0  0  0  0  0  0  0  0  0
  -24.9630  -12.5649   22.4287 C   0  0  0  0  0  0  0  0  0  0  0  0
  -30.7978  -13.1207   18.9729 C   0  0  0  0  0  0  0  0  0  0  0  0
  -30.0483  -23.7708   19.5634 C   0  0  0  0  0  0  0  0  0  0  0  0
  -27.6007  -23.1111   19.4493 C   0  0  0  0  0  0  0  0  0  0  0  0
  -19.2337  -29.9522   21.3007 C   0  0  0  0  0  0  0  0  0  0  0  0
  -24.2194  -12.0972   21.1826 C   0  0  0  0  0  0  0  0  0  0  0  0
  -29.6613  -25.2257   19.3111 C   0  0  0  0  0  0  0  0  0  0  0  0
  -27.2266  -24.5693   19.1971 C   0  0  0  0  0  0  0  0  0  0  0  0
  -30.9429  -14.6354   19.0161 C   0  0  0  0  0  0  0  0  0  0  0  0
  -26.4587  -12.3339   22.2785 C   0  0  0  0  0  0  0  0  0  0  0  0
  -29.3107  -12.9221   19.2221 C   0  0  0  0  0  0  0  0  0  0  0  0
  -26.3112  -12.6529   19.8163 C   0  0  0  0  0  0  0  0  0  0  0  0
  -29.0228  -22.8020   18.9482 C   0  0  0  0  0  0  0  0  0  0  0  0
  -20.3671  -28.9209   21.3577 C   0  0  1  0  0  0  0  0  0  0  0  0
  -23.5828  -30.7178   22.2868 C   0  0  1  0  0  0  0  0  0  0  0  0
  -24.7691  -12.7319   19.8952 C   0  0  2  0  0  0  0  0  0  0  0  0
  -28.2477  -25.5275   19.8055 C   0  0  0  0  0  0  0  0  0  1  0  0
  -29.9756  -15.0496   20.1284 C   0  0  1  0  0  0  0  0  0  0  0  0
  -30.3174  -18.3041   17.1518 C   0  0  0  0  0  0  0  0  0  0  0  0
  -29.8964  -19.0084   22.1070 C   0  0  0  0  0  0  0  0  0  0  0  0
  -28.4431  -36.6676   21.2965 C   0  0  0  0  0  0  0  0  0  0  0  0
  -23.1231  -33.6552   18.7483 C   0  0  0  0  0  0  0  0  0  0  0  0
  -24.9557  -35.3432   18.5027 C   0  0  0  0  0  0  0  0  0  0  0  0
  -23.2766  -35.5850   20.3316 C   0  0  0  0  0  0  0  0  0  0  0  0
  -29.0377  -33.5812   23.4406 C   0  0  0  0  0  0  0  0  0  0  0  0
  -29.3854  -16.4324   19.8836 C   0  0  0  0  0  0  0  0  0  0  0  0
  -25.0271  -33.7676   20.4884 C   0  0  1  0  0  0  0  0  0  0  0  0
  -28.0466  -35.4222   22.0741 C   0  0  2  0  0  0  0  0  0  0  0  0
  -24.1017  -34.5604   19.5228 C   0  0  0  0  0  0  0  0  0  0  0  0
  -24.8727  -15.1957   20.0705 N   0  0  0  0  0  0  0  0  0  0  0  0
  -24.1801  -14.1185   19.6632 N   0  0  0  0  0  0  0  0  0  0  0  0
  -24.4523  -31.5724   21.4756 N   0  0  0  0  0  0  0  0  0  0  0  0
  -26.9937  -12.9757   21.0776 N   0  0  0  0  0  0  0  0  0  0  0  0
  -28.9539  -13.9958   20.1508 N   0  0  0  0  0  0  0  0  0  0  0  0
  -22.1684  -13.4568   18.6020 N   0  0  0  0  0  0  0  0  0  0  0  0
  -21.8606  -16.9826   17.2356 N   0  0  0  0  0  0  0  0  0  0  0  0
  -21.5215  -29.4753   22.0317 N   0  0  0  0  0  0  0  0  0  0  0  0
  -25.9459  -34.6020   21.2552 N   0  0  0  0  0  0  0  0  0  0  0  0
  -29.2822  -34.8035   22.6323 N   0  3  0  0  0  0  0  0  0  0  0  0
  -20.8255  -16.8954   19.2800 O   0  0  0  0  0  0  0  0  0  0  0  0
  -22.4763  -30.5620   20.2068 O   0  0  0  0  0  0  0  0  0  0  0  0
  -23.4919  -33.5380   22.2820 O   0  0  0  0  0  0  0  0  0  0  0  0
  -27.8933  -33.5885   20.5083 O   0  0  0  0  0  0  0  0  0  0  0  0
  -28.1839  -14.5748   22.2326 O   0  0  0  0  0  0  0  0  0  0  0  0
  -25.6524  -21.4756   20.7794 O   0  0  0  0  0  0  0  0  0  0  0  0
  -27.8903  -26.8583   19.4481 O   0  0  0  0  0  0  0  0  0  1  0  0
  -30.4422  -17.3748   19.8400 O   0  0  0  0  0  0  0  0  0  0  0  0
  -25.2966  -23.2503   25.9878 F   0  0  0  0  0  0  0  0  0  0  0  0
  -24.0580  -23.6365   21.4356 F   0  0  0  0  0  0  0  0  0  0  0  0
  1  2  1  0  0  0  0
  1  5  2  0  0  0  0
  2  6  2  0  0  0  0
  3  8  2  0  0  0  0
  3 17  1  0  0  0  0
  4  9  1  0  0  0  0
  4 17  2  0  0  0  0
  5 19  1  0  0  0  0
  6 21  1  0  0  0  0
  7 10  2  0  0  0  0
  7 20  1  0  0  0  0
  8 26  1  0  0  0  0
  9 26  2  0  0  0  0
 10 27  1  0  0  0  0
 11 12  2  0  0  0  0
 11 28  1  0  0  0  0
 12 30  1  0  0  0  0
 13 22  1  0  0  0  0
 13 24  2  0  0  0  0
 14 22  2  0  0  0  0
 14 25  1  0  0  0  0
 15 23  1  0  0  0  0
 15 27  2  0  0  0  0
 16 30  2  0  0  0  0
 16 31  1  0  0  0  0
 17 32  1  0  0  0  0
 18 32  1  0  0  0  0
 18 33  2  0  0  0  0
 18 34  1  0  0  0  0
 19 21  2  0  0  0  0
 19 39  1  0  0  0  0
 20 23  2  0  0  0  0
 20 40  1  0  0  0  0
 21 56  1  0  0  0  0
 22 55  1  0  0  0  0
 23 41  1  0  0  0  0
 24 29  1  0  0  0  0
 24 61  1  0  0  0  0
 25 29  2  0  0  0  0
 25 62  1  0  0  0  0
 26 87  1  0  0  0  0
 27 88  1  0  0  0  0
 28 31  2  0  0  0  0
 28 87  1  0  0  0  0
 29 89  1  0  0  0  0
 30 90  1  0  0  0  0
 31 91  1  0  0  0  0
 32 72  2  0  0  0  0
 33 73  1  0  0  0  0
 33 77  1  0  0  0  0
 34 78  1  0  0  0  0
 34 82  2  0  0  0  0
 35 57  1  0  0  0  0
 35 79  1  0  0  0  0
 35 83  2  0  0  0  0
 36 69  1  0  0  0  0
 36 74  1  0  0  0  0
 36 84  2  0  0  0  0
 37 70  1  0  0  0  0
 37 80  1  0  0  0  0
 37 85  2  0  0  0  0
 38 75  1  0  0  0  0
 38 76  1  0  0  0  0
 38 86  2  0  0  0  0
 39 42  1  0  0  0  0
 40 57  1  0  0  0  0
 41 74  1  0  0  0  0
 42 47  1  0  0  0  0
 43 48  1  0  0  0  0
 43 52  1  0  0  0  0
 44 51  1  0  0  0  0
 44 53  1  0  0  0  0
 45 49  1  0  0  0  0
 45 55  1  0  0  0  0
 46 50  1  0  0  0  0
 46 55  1  0  0  0  0
 47 56  1  0  0  0  0
 48 58  1  0  0  0  0
 49 59  1  0  0  0  0
 50 59  1  0  0  0  0
 51 60  1  0  0  0  0
 52 75  1  0  0  0  0
 53 76  1  0  0  0  0
 54 58  1  0  0  0  0
 54 75  1  0  0  0  0
 56 79  1  0  0  0  0
 57 74  1  0  0  0  0
 58 73  1  0  0  0  0
 59 88  1  0  0  0  0
 60 68  1  0  0  0  0
 60 76  1  0  0  0  0
 63 70  1  0  0  0  0
 64 71  1  0  0  0  0
 65 71  1  0  0  0  0
 66 71  1  0  0  0  0
 67 81  1  0  0  0  0
 68 89  1  0  0  0  0
 69 71  1  0  0  0  0
 69 80  1  0  0  0  0
 70 81  1  0  0  0  0
 72 73  1  0  0  0  0
M  CHG  1  81   1
M  ISO  4  38 100  59 101  76 100  88 101
M  END
> <Batch ID>
0154

> <Smiles>
CNC(C)C(=O)NC(C(=O)N1Cc2cc([101O:1][101CH:1]3CCC(c4cc(C)c(OCC5CCC[100N:0]5[100C:0](=O)N5CCCC(n6nc(-c7ccc(Oc8ccc(F)cc8F)cc7)c(C(N)=O)c6N)C5)c(C)c4)CC3)ccc2CC1C(=O)NC1CCCc2ccccc21)C(C)(C)C

> <Shape>
0.252

> <Color>
0.103

> <Negative vol penalty>
0.000

$$$$

  -OEChem-04052321513D

 91101  0     1  0  0  0  0  0999 V2000
  -32.3757  -15.1745   20.6811 C   0  0  0  0  0  0  0  0  0  0  0  0
  -31.3701  -16.1219   20.8444 C   0  0  0  0  0  0  0  0  0  0  0  0
  -23.8880  -29.4320   22.9394 C   0  0  0  0  0  0  0  0  0  0  0  0
  -24.6157  -28.1559   24.8574 C   0  0  0  0  0  0  0  0  0  0  0  0
  -32.0580  -13.8922   20.2354 C   0  0  0  0  0  0  0  0  0  0  0  0
  -30.0463  -15.7878   20.5609 C   0  0  0  0  0  0  0  0  0  0  0  0
  -26.8283  -17.4122   24.1176 C   0  0  0  0  0  0  0  0  0  0  0  0
  -22.8904  -28.4894   22.6906 C   0  0  0  0  0  0  0  0  0  0  0  0
  -23.6181  -27.2132   24.6087 C   0  0  0  0  0  0  0  0  0  0  0  0
  -26.4844  -18.7632   24.0961 C   0  0  0  0  0  0  0  0  0  0  0  0
  -19.8297  -27.7219   23.9056 C   0  0  0  0  0  0  0  0  0  0  0  0
  -18.5518  -28.1941   23.6065 C   0  0  0  0  0  0  0  0  0  0  0  0
  -26.8978  -26.4817   21.1696 C   0  0  0  0  0  0  0  0  0  0  0  0
  -28.4615  -24.7606   20.5145 C   0  0  0  0  0  0  0  0  0  0  0  0
  -24.4098  -18.2113   22.9957 C   0  0  0  0  0  0  0  0  0  0  0  0
  -18.6414  -27.0796   21.4647 C   0  0  0  0  0  0  0  0  0  0  0  0
  -24.7507  -29.2652   24.0227 C   0  0  0  0  0  0  0  0  0  0  0  0
  -28.8370  -27.0518   19.8463 C   0  0  0  0  0  0  0  0  0  0  0  0
  -25.6086  -31.6089   24.5509 C   0  0  0  0  0  0  0  0  0  0  0  0
  -30.7284  -13.5393   19.9555 C   0  0  0  0  0  0  0  0  0  0  0  0
  -25.9690  -16.4502   23.5677 C   0  0  0  0  0  0  0  0  0  0  0  0
  -29.7107  -14.5000   20.1096 C   0  0  0  0  0  0  0  0  0  0  0  0
  -27.2938  -25.1443   21.1740 C   0  0  0  0  0  0  0  0  0  0  0  0
  -24.7440  -16.8486   23.0138 C   0  0  0  0  0  0  0  0  0  0  0  0
  -27.6693  -27.4355   20.5057 C   0  0  0  0  0  0  0  0  0  0  0  0
  -29.2332  -25.7143   19.8506 C   0  0  0  0  0  0  0  0  0  0  0  0
  -22.7554  -27.3800   23.5253 C   0  0  0  0  0  0  0  0  0  0  0  0
  -25.2764  -19.1632   23.5325 C   0  0  0  0  0  0  0  0  0  0  0  0
  -20.5136  -26.9287   22.9843 C   0  0  0  0  0  0  0  0  0  0  0  0
  -17.9576  -27.8729   22.3860 C   0  0  0  0  0  0  0  0  0  0  0  0
  -19.9194  -26.6075   21.7638 C   0  0  0  0  0  0  0  0  0  0  0  0
  -25.7817  -30.2383   24.2798 C   0  0  0  0  0  0  0  0  0  0  0  0
  -26.8841  -32.0891   24.7209 C   0  0  0  0  0  0  0  0  0  0  0  0
  -30.6476  -28.6997   19.7167 C   0  0  0  0  0  0  0  0  0  0  0  0
  -29.6293  -28.0310   19.1650 C   0  0  0  0  0  0  0  0  0  0  0  0
  -24.4026  -32.3790   24.6411 C   0  0  0  0  0  0  0  0  0  0  0  0
  -26.1805  -14.3505   21.1906 C   0  0  0  0  0  0  0  0  0  0  0  0
  -23.2954  -13.3793   22.3109 C   0  0  0  0  0  0  0  0  0  0  0  0
  -20.1575  -12.2021   22.9550 C   0  0  0  0  0  0  0  0  0  0  0  0
  -32.0549  -30.3754   22.6618 C   0  0  0  0  0  0  0  0  0  0  0  0
  -30.4398  -12.1551   19.4308 C   0  0  0  0  0  0  0  0  0  0  0  0
  -26.3424  -14.9942   23.6228 C   0  0  0  0  0  0  0  0  0  0  0  0
  -23.7771  -15.8531   22.4285 C   0  0  0  0  0  0  0  0  0  0  0  0
  -31.4872  -29.7264   19.0214 C   0  0  0  0  0  0  0  0  0  0  0  0
  -28.9651  -11.7687   19.5107 C   0  0  0  0  0  0  0  0  0  0  0  0
  -31.2460  -30.7627   26.1151 C   0  0  0  0  0  0  0  0  0  0  0  0
  -27.2272  -23.4471   23.0518 C   0  0  0  0  0  0  0  0  0  0  0  0
  -25.8974  -23.0469   20.9280 C   0  0  0  0  0  0  0  0  0  0  0  0
  -28.0873  -12.9018   18.9889 C   0  0  0  0  0  0  0  0  0  0  0  0
  -29.7207  -30.7669   26.0655 C   0  0  0  0  0  0  0  0  0  0  0  0
  -26.3709  -22.4112   23.7755 C   0  0  0  0  0  0  0  0  0  0  0  0
  -25.0477  -22.0136   21.6630 C   0  0  0  0  0  0  0  0  0  0  0  0
  -31.7243  -30.7278   20.1397 C   0  0  0  0  0  0  0  0  0  0  0  0
  -31.8604  -29.7814   25.1141 C   0  0  0  0  0  0  0  0  0  0  0  0
  -29.8437  -29.9695   23.6822 C   0  0  0  0  0  0  0  0  0  0  0  0
  -26.4540  -24.1064   21.8958 C   0  0  0  0  0  0  0  0  0  0  0  0
  -28.2598  -14.1683   19.8362 C   0  0  1  0  0  0  0  0  0  0  0  0
  -31.0507  -28.6371   21.1664 C   0  0  1  0  0  0  0  0  0  0  0  0
  -25.6241  -14.1529   22.5722 C   0  0  1  0  0  0  0  0  0  0  0  0
  -29.2266  -31.0068   24.6301 C   0  0  1  0  0  0  0  0  0  0  0  0
  -25.8165  -21.3641   22.8112 C   0  0  0  0  0  0  0  0  0  1  0  0
  -27.2111  -28.8590   20.5245 C   0  0  0  0  0  0  0  0  0  0  0  0
  -30.4776  -25.2628   19.1547 C   0  0  0  0  0  0  0  0  0  0  0  0
  -32.0746  -27.5196   21.3773 C   0  0  0  0  0  0  0  0  0  0  0  0
  -18.2501  -10.9830   21.8720 C   0  0  0  0  0  0  0  0  0  0  0  0
  -22.5359  -15.9173   20.7971 C   0  0  0  0  0  0  0  0  0  0  0  0
  -20.2265  -14.9865   20.5351 C   0  0  0  0  0  0  0  0  0  0  0  0
  -22.1715  -13.7953   19.5248 C   0  0  0  0  0  0  0  0  0  0  0  0
  -20.3246   -9.9763   24.8984 C   0  0  0  0  0  0  0  0  0  0  0  0
  -21.8596  -13.7540   22.0334 C   0  0  1  0  0  0  0  0  0  0  0  0
  -19.5176  -10.8491   22.7016 C   0  0  2  0  0  0  0  0  0  0  0  0
  -21.7098  -14.6165   20.7484 C   0  0  0  0  0  0  0  0  0  0  0  0
  -27.0660  -29.8716   24.2766 N   0  0  0  0  0  0  0  0  0  0  0  0
  -27.7115  -31.0187   24.5477 N   0  0  0  0  0  0  0  0  0  0  0  0
  -24.1903  -14.4418   22.5005 N   0  0  0  0  0  0  0  0  0  0  0  0
  -31.3057  -29.9636   23.7695 N   0  0  0  0  0  0  0  0  0  0  0  0
  -31.6094  -29.9779   21.3963 N   0  0  0  0  0  0  0  0  0  0  0  0
  -27.3675  -33.3182   25.0000 N   0  0  0  0  0  0  0  0  0  0  0  0
  -23.7731  -32.4910   25.8883 N   0  0  0  0  0  0  0  0  0  0  0  0
  -27.5245  -14.0501   21.0771 N   0  0  0  0  0  0  0  0  0  0  0  0
  -21.1096  -12.5029   22.0040 N   0  0  0  0  0  0  0  0  0  0  0  0
  -19.1671  -10.1920   23.9925 N   0  3  0  0  0  0  0  0  0  0  0  0
  -23.8893  -32.9374   23.6420 O   0  0  0  0  0  0  0  0  0  0  0  0
  -25.4447  -14.7449   20.2936 O   0  0  0  0  0  0  0  0  0  0  0  0
  -23.6099  -12.1877   22.3647 O   0  0  0  0  0  0  0  0  0  0  0  0
  -19.8416  -12.9220   23.8997 O   0  0  0  0  0  0  0  0  0  0  0  0
  -33.0376  -31.1143   22.8035 O   0  0  0  0  0  0  0  0  0  0  0  0
  -21.7819  -26.4601   23.2831 O   0  0  0  0  0  0  0  0  0  0  0  0
  -24.9364  -20.4898   23.5094 O   0  0  0  0  0  0  0  0  0  1  0  0
  -16.7297  -28.3251   22.0995 F   0  0  0  0  0  0  0  0  0  0  0  0
  -20.5710  -25.8449   20.8752 F   0  0  0  0  0  0  0  0  0  0  0  0
  1  2  1  0  0  0  0
  1  5  2  0  0  0  0
  2  6  2  0  0  0  0
  3  8  2  0  0  0  0
  3 17  1  0  0  0  0
  4  9  1  0  0  0  0
  4 17  2  0  0  0  0
  5 20  1  0  0  0  0
  6 22  1  0  0  0  0
  7 10  2  0  0  0  0
  7 21  1  0  0  0  0
  8 27  1  0  0  0  0
  9 27  2  0  0  0  0
 10 28  1  0  0  0  0
 11 12  2  0  0  0  0
 11 29  1  0  0  0  0
 12 30  1  0  0  0  0
 13 23  1  0  0  0  0
 13 25  2  0  0  0  0
 14 23  2  0  0  0  0
 14 26  1  0  0  0  0
 15 24  1  0  0  0  0
 15 28  2  0  0  0  0
 16 30  2  0  0  0  0
 16 31  1  0  0  0  0
 17 32  1  0  0  0  0
 18 25  1  0  0  0  0
 18 26  2  0  0  0  0
 18 35  1  0  0  0  0
 19 32  1  0  0  0  0
 19 33  2  0  0  0  0
 19 36  1  0  0  0  0
 20 22  2  0  0  0  0
 20 41  1  0  0  0  0
 21 24  2  0  0  0  0
 21 42  1  0  0  0  0
 22 57  1  0  0  0  0
 23 56  1  0  0  0  0
 24 43  1  0  0  0  0
 25 62  1  0  0  0  0
 26 63  1  0  0  0  0
 27 88  1  0  0  0  0
 28 89  1  0  0  0  0
 29 31  2  0  0  0  0
 29 88  1  0  0  0  0
 30 90  1  0  0  0  0
 31 91  1  0  0  0  0
 32 73  2  0  0  0  0
 33 74  1  0  0  0  0
 33 78  1  0  0  0  0
 34 35  2  0  0  0  0
 34 44  1  0  0  0  0
 34 58  1  0  0  0  0
 36 79  1  0  0  0  0
 36 83  2  0  0  0  0
 37 59  1  0  0  0  0
 37 80  1  0  0  0  0
 37 84  2  0  0  0  0
 38 70  1  0  0  0  0
 38 75  1  0  0  0  0
 38 85  2  0  0  0  0
 39 71  1  0  0  0  0
 39 81  1  0  0  0  0
 39 86  2  0  0  0  0
 40 76  1  0  0  0  0
 40 77  1  0  0  0  0
 40 87  2  0  0  0  0
 41 45  1  0  0  0  0
 42 59  1  0  0  0  0
 43 75  1  0  0  0  0
 44 53  1  0  0  0  0
 45 49  1  0  0  0  0
 46 50  1  0  0  0  0
 46 54  1  0  0  0  0
 47 51  1  0  0  0  0
 47 56  1  0  0  0  0
 48 52  1  0  0  0  0
 48 56  1  0  0  0  0
 49 57  1  0  0  0  0
 50 60  1  0  0  0  0
 51 61  1  0  0  0  0
 52 61  1  0  0  0  0
 53 77  1  0  0  0  0
 54 76  1  0  0  0  0
 55 60  1  0  0  0  0
 55 76  1  0  0  0  0
 57 80  1  0  0  0  0
 58 64  1  0  0  0  0
 58 77  1  0  0  0  0
 59 75  1  0  0  0  0
 60 74  1  0  0  0  0
 61 89  1  0  0  0  0
 65 71  1  0  0  0  0
 66 72  1  0  0  0  0
 67 72  1  0  0  0  0
 68 72  1  0  0  0  0
 69 82  1  0  0  0  0
 70 72  1  0  0  0  0
 70 81  1  0  0  0  0
 71 82  1  0  0  0  0
 73 74  1  0  0  0  0
M  CHG  1  82   1
M  ISO  4  40 100  61 101  77 100  89 101
M  END
> <Batch ID>
0154

> <Smiles>
CNC(C)C(=O)NC(C(=O)N1Cc2cc([101O:1][101CH:1]3CCC(c4cc(C)c(C=C5CC[100N:0]([100C:0](=O)N6CCCC(n7nc(-c8ccc(Oc9ccc(F)cc9F)cc8)c(C(N)=O)c7N)C6)C5C)c(C)c4)CC3)ccc2CC1C(=O)NC1CCCc2ccccc21)C(C)(C)C

> <Shape>
0.248

> <Color>
0.065

> <Negative vol penalty>
0.000

$$$$

  -OEChem-04052321513D

 86 94  0     1  0  0  0  0  0999 V2000
  -27.2848  -34.3906   25.4136 C   0  0  0  0  0  0  0  0  0  0  0  0
  -27.6017  -33.1550   24.8583 C   0  0  0  0  0  0  0  0  0  0  0  0
  -25.5078  -11.9867   21.1283 C   0  0  0  0  0  0  0  0  0  0  0  0
  -26.3096  -12.5687   18.9248 C   0  0  0  0  0  0  0  0  0  0  0  0
  -25.9726  -34.6659   25.7958 C   0  0  0  0  0  0  0  0  0  0  0  0
  -26.6065  -32.1936   24.6859 C   0  0  0  0  0  0  0  0  0  0  0  0
  -26.8320  -29.9562   20.1484 C   0  0  0  0  0  0  0  0  0  0  0  0
  -25.2727  -10.6809   20.6979 C   0  0  0  0  0  0  0  0  0  0  0  0
  -26.0745  -11.2629   18.4943 C   0  0  0  0  0  0  0  0  0  0  0  0
  -27.8034  -28.9721   19.9714 C   0  0  0  0  0  0  0  0  0  0  0  0
  -22.9209   -9.0312   18.9168 C   0  0  0  0  0  0  0  0  0  0  0  0
  -21.7106   -8.4389   19.2770 C   0  0  0  0  0  0  0  0  0  0  0  0
  -26.1315  -27.2679   20.3174 C   0  0  0  0  0  0  0  0  0  0  0  0
  -27.7099  -23.1048   17.3201 C   0  0  0  0  0  0  0  0  0  0  0  0
  -22.9106   -6.6946   20.4408 C   0  0  0  0  0  0  0  0  0  0  0  0
  -26.0262  -12.9306   20.2417 C   0  0  0  0  0  0  0  0  0  0  0  0
  -27.4533  -14.7887   21.2508 C   0  0  0  0  0  0  0  0  0  0  0  0
  -24.9590  -33.7109   25.6192 C   0  0  0  0  0  0  0  0  0  0  0  0
  -25.5028  -29.6032   20.4226 C   0  0  0  0  0  0  0  0  0  0  0  0
  -25.2798  -32.4559   25.0674 C   0  0  0  0  0  0  0  0  0  0  0  0
  -25.1445  -28.2495   20.4950 C   0  0  0  0  0  0  0  0  0  0  0  0
  -28.9250  -21.0272   17.2185 C   0  0  0  0  0  0  0  0  0  0  0  0
  -27.7179  -21.7190   17.1927 C   0  0  0  0  0  0  0  0  0  0  0  0
  -25.5560  -10.3190   19.3809 C   0  0  0  0  0  0  0  0  0  0  0  0
  -27.4539  -27.6277   20.0587 C   0  0  0  0  0  0  0  0  0  0  0  0
  -24.1262   -8.4552   19.3184 C   0  0  0  0  0  0  0  0  0  0  0  0
  -21.7054   -7.2706   20.0390 C   0  0  0  0  0  0  0  0  0  0  0  0
  -24.1210   -7.2869   20.0805 C   0  0  0  0  0  0  0  0  0  0  0  0
  -26.2688  -14.2798   20.6856 C   0  0  0  0  0  0  0  0  0  0  0  0
  -30.1031  -21.7442   17.3723 C   0  0  0  0  0  0  0  0  0  0  0  0
  -27.1754  -16.1109   21.4980 C   0  0  0  0  0  0  0  0  0  0  0  0
  -28.9187  -23.7692   17.4715 C   0  0  0  0  0  0  0  0  0  0  0  0
  -28.6941  -14.1256   21.5276 C   0  0  0  0  0  0  0  0  0  0  0  0
  -23.5041  -30.0986   22.8440 C   0  0  0  0  0  0  0  0  0  0  0  0
  -21.3626  -28.6923   20.8544 C   0  0  0  0  0  0  0  0  0  0  0  0
  -20.7985  -26.6120   18.2085 C   0  0  0  0  0  0  0  0  0  0  0  0
  -23.3001  -19.9835   19.0821 C   0  0  0  0  0  0  0  0  0  0  0  0
  -23.5642  -34.0368   26.0912 C   0  0  0  0  0  0  0  0  0  0  0  0
  -24.4615  -30.6765   20.5845 C   0  0  0  0  0  0  0  0  0  0  0  0
  -23.7275  -27.8177   20.7670 C   0  0  0  0  0  0  0  0  0  0  0  0
  -22.4968  -33.1012   25.5294 C   0  0  0  0  0  0  0  0  0  0  0  0
  -23.5351  -19.0464   22.5089 C   0  0  0  0  0  0  0  0  0  0  0  0
  -22.9443  -31.6479   25.6491 C   0  0  0  0  0  0  0  0  0  0  0  0
  -24.3693  -17.7645   22.4812 C   0  0  0  0  0  0  0  0  0  0  0  0
  -22.6020  -19.1387   21.3037 C   0  0  0  0  0  0  0  0  0  0  0  0
  -24.0989  -17.7085   19.9668 C   0  0  0  0  0  0  0  0  0  0  0  0
  -24.2233  -31.3961   24.8415 C   0  0  1  0  0  0  0  0  0  0  0  0
  -23.2393  -30.2097   21.3692 C   0  0  1  0  0  0  0  0  0  0  0  0
  -25.0957  -17.5972   21.1331 C   0  0  2  0  0  0  0  0  0  0  0  0
  -31.4422  -21.0994   17.4122 C   0  0  0  0  0  0  0  0  0  0  0  0
  -28.5551  -18.8327   18.3733 C   0  0  0  0  0  0  0  0  0  0  0  0
  -18.9413  -25.6276   16.8376 C   0  0  0  0  0  0  0  0  0  0  0  0
  -20.7275  -26.7461   23.1169 C   0  0  0  0  0  0  0  0  0  0  0  0
  -19.6234  -25.2579   21.4333 C   0  0  0  0  0  0  0  0  0  0  0  0
  -18.7319  -27.5515   21.8427 C   0  0  0  0  0  0  0  0  0  0  0  0
  -21.7973  -27.8843   15.7300 C   0  0  0  0  0  0  0  0  0  0  0  0
  -28.9600  -19.5401   17.0837 C   0  0  0  0  0  0  0  0  0  0  0  0
  -25.2298  -21.7013   17.0062 C   0  0  0  0  0  0  0  0  0  0  0  0
  -24.0971  -20.6993   16.8434 C   0  0  0  0  0  0  0  0  0  0  0  0
  -29.4918  -26.9745   19.0214 C   0  0  0  0  0  0  0  0  0  1  0  0
  -29.9835  -25.6973   18.3684 C   0  0  0  0  0  0  0  0  0  0  0  0
  -20.9142  -27.2741   20.5965 C   0  0  1  0  0  0  0  0  0  0  0  0
  -19.9365  -26.7700   16.9689 C   0  0  2  0  0  0  0  0  0  0  0  0
  -20.0264  -26.7152   21.7441 C   0  0  0  0  0  0  0  0  0  0  0  0
  -25.3096  -15.2033   20.5799 N   0  0  0  0  0  0  0  0  0  0  0  0
  -25.8911  -16.3059   21.0822 N   0  0  0  0  0  0  0  0  0  0  0  0
  -30.0666  -23.0783   17.4929 N   0  3  0  0  0  0  0  0  0  0  0  0
  -22.7468  -28.9044   20.9243 N   0  0  0  0  0  0  0  0  0  0  0  0
  -23.3534  -18.9737   20.0570 N   0  0  0  0  0  0  0  0  0  0  0  0
  -27.9067  -17.1141   22.0283 N   0  0  0  0  0  0  0  0  0  0  0  0
  -28.8097  -12.7652   21.2112 N   0  0  0  0  0  0  0  0  0  0  0  0
  -26.4932  -21.0335   17.0384 N   0  0  0  0  0  0  0  0  0  0  0  0
  -23.9163  -31.2792   23.4321 N   0  0  0  0  0  0  0  0  0  0  0  0
  -20.2660  -27.2822   19.2895 N   0  0  0  0  0  0  0  0  0  0  0  0
  -24.0463  -19.7505   17.9333 N   0  0  0  0  0  0  0  0  0  0  0  0
  -20.7877  -26.7946   15.7458 N   0  3  0  0  0  0  0  0  0  0  0  0
  -29.6657  -14.7179   22.0555 O   0  0  0  0  0  0  0  0  0  0  0  0
  -23.3447  -29.0219   23.4071 O   0  0  0  0  0  0  0  0  0  0  0  0
  -20.5161  -29.5805   20.9818 O   0  0  0  0  0  0  0  0  0  0  0  0
  -21.8380  -25.9564   18.2179 O   0  0  0  0  0  0  0  0  0  0  0  0
  -22.6411  -21.0187   19.2271 O   0  0  0  0  0  0  0  0  0  0  0  0
  -25.3270   -9.0449   18.9606 O   0  0  0  0  0  0  0  0  0  0  0  0
  -28.4003  -26.6651   19.8869 O   0  0  0  0  0  0  0  0  0  1  0  0
  -28.9289  -25.1333   17.5983 O   0  0  0  0  0  0  0  0  0  0  0  0
  -20.5430   -6.7028   20.3862 F   0  0  0  0  0  0  0  0  0  0  0  0
  -25.2756   -6.7295   20.4703 F   0  0  0  0  0  0  0  0  0  0  0  0
  1  2  1  0  0  0  0
  1  5  2  0  0  0  0
  2  6  2  0  0  0  0
  3  8  2  0  0  0  0
  3 16  1  0  0  0  0
  4  9  1  0  0  0  0
  4 16  2  0  0  0  0
  5 18  1  0  0  0  0
  6 20  1  0  0  0  0
  7 10  2  0  0  0  0
  7 19  1  0  0  0  0
  8 24  1  0  0  0  0
  9 24  2  0  0  0  0
 10 25  1  0  0  0  0
 11 12  2  0  0  0  0
 11 26  1  0  0  0  0
 12 27  1  0  0  0  0
 13 21  1  0  0  0  0
 13 25  2  0  0  0  0
 14 23  2  0  0  0  0
 14 32  1  0  0  0  0
 15 27  2  0  0  0  0
 15 28  1  0  0  0  0
 16 29  1  0  0  0  0
 17 29  1  0  0  0  0
 17 31  2  0  0  0  0
 17 33  1  0  0  0  0
 18 20  2  0  0  0  0
 18 38  1  0  0  0  0
 19 21  2  0  0  0  0
 19 39  1  0  0  0  0
 20 47  1  0  0  0  0
 21 40  1  0  0  0  0
 22 23  1  0  0  0  0
 22 30  2  0  0  0  0
 22 57  1  0  0  0  0
 23 72  1  0  0  0  0
 24 82  1  0  0  0  0
 25 83  1  0  0  0  0
 26 28  2  0  0  0  0
 26 82  1  0  0  0  0
 27 85  1  0  0  0  0
 28 86  1  0  0  0  0
 29 65  2  0  0  0  0
 30 50  1  0  0  0  0
 30 67  1  0  0  0  0
 31 66  1  0  0  0  0
 31 70  1  0  0  0  0
 32 67  2  0  0  0  0
 32 84  1  0  0  0  0
 33 71  1  0  0  0  0
 33 77  2  0  0  0  0
 34 48  1  0  0  0  0
 34 73  1  0  0  0  0
 34 78  2  0  0  0  0
 35 62  1  0  0  0  0
 35 68  1  0  0  0  0
 35 79  2  0  0  0  0
 36 63  1  0  0  0  0
 36 74  1  0  0  0  0
 36 80  2  0  0  0  0
 37 69  1  0  0  0  0
 37 75  1  0  0  0  0
 37 81  2  0  0  0  0
 38 41  1  0  0  0  0
 39 48  1  0  0  0  0
 40 68  1  0  0  0  0
 41 43  1  0  0  0  0
 42 44  1  0  0  0  0
 42 45  1  0  0  0  0
 43 47  1  0  0  0  0
 44 49  1  0  0  0  0
 45 69  1  0  0  0  0
 46 49  1  0  0  0  0
 46 69  1  0  0  0  0
 47 73  1  0  0  0  0
 48 68  1  0  0  0  0
 49 66  1  0  0  0  0
 51 57  1  0  0  0  0
 52 63  1  0  0  0  0
 53 64  1  0  0  0  0
 54 64  1  0  0  0  0
 55 64  1  0  0  0  0
 56 76  1  0  0  0  0
 58 59  1  0  0  0  0
 58 72  1  0  0  0  0
 59 75  1  0  0  0  0
 60 61  1  0  0  0  0
 60 83  1  0  0  0  0
 61 84  1  0  0  0  0
 62 64  1  0  0  0  0
 62 74  1  0  0  0  0
 63 76  1  0  0  0  0
 65 66  1  0  0  0  0
M  CHG  2  67   1  76   1
M  ISO  4  37 100  60 101  75 100  83 101
M  END
> <Batch ID>
0154

> <Smiles>
CCc1c(NCC[100NH:0][100C:0](=O)N2CCCC(n3nc(-c4ccc(Oc5ccc(F)cc5F)cc4)c(C(N)=O)c3N)C2)cc(OC[101CH2:1][101O:1]c2ccc3c(c2)CN(C(=O)C(NC(=O)C(C)NC)C(C)(C)C)C(C(=O)NC2CCCc4ccccc42)C3)nc1C

> <Shape>
0.252

> <Color>
0.075

> <Negative vol penalty>
0.000

$$$$

  -OEChem-04052321513D

 85 94  0     1  0  0  0  0  0999 V2000
  -27.3835  -36.8913   21.8114 C   0  0  0  0  0  0  0  0  0  0  0  0
  -28.2484  -35.8533   22.1431 C   0  0  0  0  0  0  0  0  0  0  0  0
  -23.1086   -9.9826   21.3808 C   0  0  0  0  0  0  0  0  0  0  0  0
  -23.8799  -10.8719   23.4907 C   0  0  0  0  0  0  0  0  0  0  0  0
  -26.1462  -36.9957   22.4455 C   0  0  0  0  0  0  0  0  0  0  0  0
  -27.8768  -34.9196   23.1098 C   0  0  0  0  0  0  0  0  0  0  0  0
  -27.4109  -27.1365   22.6284 C   0  0  0  0  0  0  0  0  0  0  0  0
  -22.3834   -9.0029   22.0589 C   0  0  0  0  0  0  0  0  0  0  0  0
  -23.1546   -9.8921   24.1687 C   0  0  0  0  0  0  0  0  0  0  0  0
  -27.1386  -25.7683   22.6190 C   0  0  0  0  0  0  0  0  0  0  0  0
  -19.4548   -8.7840   23.7347 C   0  0  0  0  0  0  0  0  0  0  0  0
  -18.1464   -8.5408   23.3173 C   0  0  0  0  0  0  0  0  0  0  0  0
  -25.4996  -26.0716   24.3710 C   0  0  0  0  0  0  0  0  0  0  0  0
  -30.1382  -18.7006   22.6489 C   0  0  0  0  0  0  0  0  0  0  0  0
  -28.8860  -18.7695   20.5840 C   0  0  0  0  0  0  0  0  0  0  0  0
  -18.7285   -6.2473   22.8289 C   0  0  0  0  0  0  0  0  0  0  0  0
  -23.8569  -10.9171   22.0967 C   0  0  0  0  0  0  0  0  0  0  0  0
  -24.1602  -13.2100   21.0205 C   0  0  0  0  0  0  0  0  0  0  0  0
  -25.7552  -36.0573   23.4135 C   0  0  0  0  0  0  0  0  0  0  0  0
  -26.7167  -27.9807   23.4994 C   0  0  0  0  0  0  0  0  0  0  0  0
  -26.6336  -35.0124   23.7584 C   0  0  0  0  0  0  0  0  0  0  0  0
  -25.7592  -27.4447   24.3762 C   0  0  0  0  0  0  0  0  0  0  0  0
  -28.2959  -20.2444   22.4043 C   0  0  0  0  0  0  0  0  0  0  0  0
  -29.9175  -18.2320   21.3539 C   0  0  0  0  0  0  0  0  0  0  0  0
  -29.3274  -19.7068   23.1742 C   0  0  0  0  0  0  0  0  0  0  0  0
  -28.0752  -19.7758   21.1092 C   0  0  0  0  0  0  0  0  0  0  0  0
  -22.4064   -8.9576   23.4528 C   0  0  0  0  0  0  0  0  0  0  0  0
  -26.1855  -25.2372   23.4883 C   0  0  0  0  0  0  0  0  0  0  0  0
  -20.4002   -7.7589   23.6992 C   0  0  0  0  0  0  0  0  0  0  0  0
  -17.7832   -7.2725   22.8644 C   0  0  0  0  0  0  0  0  0  0  0  0
  -20.0370   -6.4906   23.2464 C   0  0  0  0  0  0  0  0  0  0  0  0
  -24.6067  -11.9291   21.3969 C   0  0  0  0  0  0  0  0  0  0  0  0
  -25.2391  -13.7776   20.3878 C   0  0  0  0  0  0  0  0  0  0  0  0
  -22.8842  -13.8313   21.2246 C   0  0  0  0  0  0  0  0  0  0  0  0
  -26.1641  -31.4798   24.7349 C   0  0  0  0  0  0  0  0  0  0  0  0
  -23.4042  -30.1531   24.5521 C   0  0  0  0  0  0  0  0  0  0  0  0
  -20.5305  -28.4713   23.8104 C   0  0  0  0  0  0  0  0  0  0  0  0
  -30.7312  -14.8308   20.2921 C   0  0  0  0  0  0  0  0  0  0  0  0
  -24.4276  -36.2387   24.1058 C   0  0  0  0  0  0  0  0  0  0  0  0
  -27.0213  -29.4516   23.5869 C   0  0  0  0  0  0  0  0  0  0  0  0
  -25.0618  -28.3858   25.3200 C   0  0  0  0  0  0  0  0  0  0  0  0
  -23.9534  -34.9929   24.8498 C   0  0  0  0  0  0  0  0  0  0  0  0
  -29.5864  -11.7502   18.8091 C   0  0  0  0  0  0  0  0  0  0  0  0
  -25.9195  -20.9744   23.0518 C   0  0  0  0  0  0  0  0  0  0  0  0
  -25.0892  -34.4015   25.6787 C   0  0  0  0  0  0  0  0  0  0  0  0
  -28.1654  -11.6096   19.3537 C   0  0  0  0  0  0  0  0  0  0  0  0
  -25.1973  -21.9942   22.1733 C   0  0  0  0  0  0  0  0  0  0  0  0
  -27.4922  -22.6415   22.1567 C   0  0  0  0  0  0  0  0  0  0  0  0
  -30.5140  -12.4026   19.8291 C   0  0  0  0  0  0  0  0  0  0  0  0
  -28.6020  -13.5924   20.8711 C   0  0  0  0  0  0  0  0  0  0  0  0
  -27.4173  -21.3356   22.9739 C   0  0  2  0  0  0  0  0  0  0  0  0
  -26.2561  -33.9658   24.7842 C   0  0  1  0  0  0  0  0  0  0  0  0
  -25.7771  -30.3091   23.8800 C   0  0  1  0  0  0  0  0  0  0  0  0
  -27.6311  -12.9620   19.8579 C   0  0  2  0  0  0  0  0  0  0  0  0
  -26.0880  -23.2257   22.2304 C   0  0  2  0  0  0  0  0  0  1  0  0
  -29.5854  -20.1918   24.5634 C   0  0  0  0  0  0  0  0  0  0  0  0
  -26.9774  -20.3349   20.2642 C   0  0  0  0  0  0  0  0  0  0  0  0
  -18.0335  -28.7085   23.8876 C   0  0  0  0  0  0  0  0  0  0  0  0
  -23.4561  -29.6795   27.5649 C   0  0  0  0  0  0  0  0  0  0  0  0
  -21.0539  -28.9878   27.4260 C   0  0  0  0  0  0  0  0  0  0  0  0
  -21.7207  -31.3070   26.7941 C   0  0  0  0  0  0  0  0  0  0  0  0
  -20.2955  -28.1758   20.8750 C   0  0  0  0  0  0  0  0  0  0  0  0
  -30.7839  -17.1557   20.7926 C   0  0  0  0  0  0  0  0  0  0  0  0
  -22.3203  -29.3848   25.2651 C   0  0  1  0  0  0  0  0  0  0  0  0
  -19.2872  -28.8891   23.0460 C   0  0  2  0  0  0  0  0  0  0  0  0
  -22.1576  -29.8266   26.7469 C   0  0  0  0  0  0  0  0  0  0  0  0
  -25.8707  -11.6963   21.0335 N   0  0  0  0  0  0  0  0  0  0  0  0
  -26.2277  -12.8386   20.4221 N   0  0  0  0  0  0  0  0  0  0  0  0
  -24.6999  -29.6263   24.6166 N   0  0  0  0  0  0  0  0  0  0  0  0
  -29.9595  -13.6649   20.3167 N   0  0  0  0  0  0  0  0  0  0  0  0
  -25.4291  -14.9832   19.8110 N   0  0  0  0  0  0  0  0  0  0  0  0
  -21.8878  -13.1071   21.8932 N   0  0  0  0  0  0  0  0  0  0  0  0
  -25.9538  -32.7074   24.1364 N   0  0  0  0  0  0  0  0  0  0  0  0
  -21.1137  -29.5388   24.4597 N   0  0  0  0  0  0  0  0  0  0  0  0
  -19.1428  -28.0742   21.8067 N   0  3  0  0  0  0  0  0  0  0  0  0
  -22.6298  -14.9880   20.8114 O   0  0  0  0  0  0  0  0  0  0  0  0
  -26.6188  -31.2852   25.8561 O   0  0  0  0  0  0  0  0  0  0  0  0
  -23.1139  -31.1954   23.9583 O   0  0  0  0  0  0  0  0  0  0  0  0
  -20.9410  -27.3130   23.8324 O   0  0  0  0  0  0  0  0  0  0  0  0
  -31.8873  -14.8877   19.8770 O   0  0  0  0  0  0  0  0  0  0  0  0
  -21.6987   -8.0018   24.1147 O   0  0  0  0  0  0  0  0  0  0  0  0
  -25.9213  -23.9013   23.4708 O   0  0  0  0  0  0  0  0  0  1  0  0
  -30.0607  -15.9194   20.7836 O   0  0  0  0  0  0  0  0  0  0  0  0
  -16.5262   -7.0386   22.4650 F   0  0  0  0  0  0  0  0  0  0  0  0
  -20.9405   -5.5016   23.2111 F   0  0  0  0  0  0  0  0  0  0  0  0
  1  2  1  0  0  0  0
  1  5  2  0  0  0  0
  2  6  2  0  0  0  0
  3  8  2  0  0  0  0
  3 17  1  0  0  0  0
  4  9  1  0  0  0  0
  4 17  2  0  0  0  0
  5 19  1  0  0  0  0
  6 21  1  0  0  0  0
  7 10  2  0  0  0  0
  7 20  1  0  0  0  0
  8 27  1  0  0  0  0
  9 27  2  0  0  0  0
 10 28  1  0  0  0  0
 11 12  2  0  0  0  0
 11 29  1  0  0  0  0
 12 30  1  0  0  0  0
 13 22  1  0  0  0  0
 13 28  2  0  0  0  0
 14 24  1  0  0  0  0
 14 25  2  0  0  0  0
 15 24  2  0  0  0  0
 15 26  1  0  0  0  0
 16 30  2  0  0  0  0
 16 31  1  0  0  0  0
 17 32  1  0  0  0  0
 18 32  1  0  0  0  0
 18 33  2  0  0  0  0
 18 34  1  0  0  0  0
 19 21  2  0  0  0  0
 19 39  1  0  0  0  0
 20 22  2  0  0  0  0
 20 40  1  0  0  0  0
 21 52  1  0  0  0  0
 22 41  1  0  0  0  0
 23 25  1  0  0  0  0
 23 26  2  0  0  0  0
 23 51  1  0  0  0  0
 24 63  1  0  0  0  0
 25 56  1  0  0  0  0
 26 57  1  0  0  0  0
 27 81  1  0  0  0  0
 28 82  1  0  0  0  0
 29 31  2  0  0  0  0
 29 81  1  0  0  0  0
 30 84  1  0  0  0  0
 31 85  1  0  0  0  0
 32 67  2  0  0  0  0
 33 68  1  0  0  0  0
 33 71  1  0  0  0  0
 34 72  1  0  0  0  0
 34 76  2  0  0  0  0
 35 53  1  0  0  0  0
 35 73  1  0  0  0  0
 35 77  2  0  0  0  0
 36 64  1  0  0  0  0
 36 69  1  0  0  0  0
 36 78  2  0  0  0  0
 37 65  1  0  0  0  0
 37 74  1  0  0  0  0
 37 79  2  0  0  0  0
 38 70  1  0  0  0  0
 38 80  2  0  0  0  0
 38 83  1  0  0  0  0
 39 42  1  0  0  0  0
 40 53  1  0  0  0  0
 41 69  1  0  0  0  0
 42 45  1  0  0  0  0
 43 46  1  0  0  0  0
 43 49  1  0  0  0  0
 44 47  1  0  0  0  0
 44 51  1  0  0  0  0
 45 52  1  0  0  0  0
 46 54  1  0  0  0  0
 47 55  1  0  0  0  0
 48 51  1  0  0  0  0
 48 55  1  0  0  0  0
 49 70  1  0  0  0  0
 50 54  1  0  0  0  0
 50 70  1  0  0  0  0
 52 73  1  0  0  0  0
 53 69  1  0  0  0  0
 54 68  1  0  0  0  0
 55 82  1  0  0  0  0
 58 65  1  0  0  0  0
 59 66  1  0  0  0  0
 60 66  1  0  0  0  0
 61 66  1  0  0  0  0
 62 75  1  0  0  0  0
 63 83  1  0  0  0  0
 64 66  1  0  0  0  0
 64 74  1  0  0  0  0
 65 75  1  0  0  0  0
 67 68  1  0  0  0  0
M  CHG  1  75   1
M  ISO  4  38 100  55 101  82 101  83 100
M  END
> <Batch ID>
0154

> <Smiles>
CNC(C)C(=O)NC(C(=O)N1Cc2cc([101O:1][101CH:1]3CCC(c4c(C)cc(C[100O:0][100C:0](=O)N5CCCC(n6nc(-c7ccc(Oc8ccc(F)cc8F)cc7)c(C(N)=O)c6N)C5)cc4C)C3)ccc2CC1C(=O)NC1CCCc2ccccc21)C(C)(C)C

> <Shape>
0.287

> <Color>
0.154

> <Negative vol penalty>
0.000

$$$$

  -OEChem-04052321513D

 96106  0     1  0  0  0  0  0999 V2000
  -31.5766  -27.1242   10.1785 C   0  0  0  0  0  0  0  0  0  0  0  0
  -31.3412  -26.9613   11.5400 C   0  0  0  0  0  0  0  0  0  0  0  0
  -23.3137  -10.1175   22.2251 C   0  0  0  0  0  0  0  0  0  0  0  0
  -23.5953   -9.5213   19.9008 C   0  0  0  0  0  0  0  0  0  0  0  0
  -30.5179  -27.4142    9.3190 C   0  0  0  0  0  0  0  0  0  0  0  0
  -30.0470  -27.0895   12.0428 C   0  0  0  0  0  0  0  0  0  0  0  0
  -28.8700  -23.4259   15.3348 C   0  0  0  0  0  0  0  0  0  0  0  0
  -22.5778   -8.9514   22.4351 C   0  0  0  0  0  0  0  0  0  0  0  0
  -22.8593   -8.3551   20.1108 C   0  0  0  0  0  0  0  0  0  0  0  0
  -29.3766  -23.5452   16.6282 C   0  0  0  0  0  0  0  0  0  0  0  0
  -19.4300   -7.8575   21.8702 C   0  0  0  0  0  0  0  0  0  0  0  0
  -18.2510   -7.9602   22.6084 C   0  0  0  0  0  0  0  0  0  0  0  0
  -30.1866  -19.1339   22.9453 C   0  0  0  0  0  0  0  0  0  0  0  0
  -30.7046  -19.1660   20.5858 C   0  0  0  0  0  0  0  0  0  0  0  0
  -27.2465  -24.3938   17.3778 C   0  0  0  0  0  0  0  0  0  0  0  0
  -32.7390  -18.9346   16.8376 C   0  0  0  0  0  0  0  0  0  0  0  0
  -30.3955  -19.2230   16.3259 C   0  0  0  0  0  0  0  0  0  0  0  0
  -19.1369   -6.4129   24.2388 C   0  0  0  0  0  0  0  0  0  0  0  0
  -23.8224  -10.4025   20.9579 C   0  0  0  0  0  0  0  0  0  0  0  0
  -24.1473  -12.9326   20.9301 C   0  0  0  0  0  0  0  0  0  0  0  0
  -29.2085  -27.5365    9.8102 C   0  0  0  0  0  0  0  0  0  0  0  0
  -27.5489  -23.8005   15.0505 C   0  0  0  0  0  0  0  0  0  0  0  0
  -28.9699  -27.3828   11.1892 C   0  0  0  0  0  0  0  0  0  0  0  0
  -30.5254  -19.8422   21.7925 C   0  0  0  0  0  0  0  0  0  0  0  0
  -26.7247  -24.2758   16.0805 C   0  0  0  0  0  0  0  0  0  0  0  0
  -30.0270  -17.7492   22.8915 C   0  0  0  0  0  0  0  0  0  0  0  0
  -31.7360  -19.4677   16.0280 C   0  0  0  0  0  0  0  0  0  0  0  0
  -32.4014  -18.1566   17.9451 C   0  0  0  0  0  0  0  0  0  0  0  0
  -30.0579  -18.4451   17.4335 C   0  0  0  0  0  0  0  0  0  0  0  0
  -30.2062  -17.0729   21.6848 C   0  0  0  0  0  0  0  0  0  0  0  0
  -22.3506   -8.0702   21.3780 C   0  0  0  0  0  0  0  0  0  0  0  0
  -28.5657  -24.0319   17.6493 C   0  0  0  0  0  0  0  0  0  0  0  0
  -20.4625   -7.0324   22.3162 C   0  0  0  0  0  0  0  0  0  0  0  0
  -30.5450  -17.7813   20.5319 C   0  0  0  0  0  0  0  0  0  0  0  0
  -31.0609  -17.9119   18.2430 C   0  0  0  0  0  0  0  0  0  0  0  0
  -18.1044   -7.2380   23.7927 C   0  0  0  0  0  0  0  0  0  0  0  0
  -20.3159   -6.3102   23.5005 C   0  0  0  0  0  0  0  0  0  0  0  0
  -24.5823  -11.6072   20.7402 C   0  0  0  0  0  0  0  0  0  0  0  0
  -25.2324  -13.7023   20.5885 C   0  0  0  0  0  0  0  0  0  0  0  0
  -22.8762  -13.4240   21.3755 C   0  0  0  0  0  0  0  0  0  0  0  0
  -26.1886  -25.9749   13.1729 C   0  0  0  0  0  0  0  0  0  0  0  0
  -23.4526  -24.5082   14.1138 C   0  0  0  0  0  0  0  0  0  0  0  0
  -21.8378  -22.6073   16.4432 C   0  0  0  0  0  0  0  0  0  0  0  0
  -30.6928  -14.7768   20.7696 C   0  0  0  0  0  0  0  0  0  0  0  0
  -28.1035  -27.8977    8.8493 C   0  0  0  0  0  0  0  0  0  0  0  0
  -27.0094  -23.6405   13.6556 C   0  0  0  0  0  0  0  0  0  0  0  0
  -25.2932  -24.6724   15.8315 C   0  0  0  0  0  0  0  0  0  0  0  0
  -26.7050  -27.6469    9.4074 C   0  0  0  0  0  0  0  0  0  0  0  0
  -29.5792  -12.4456   18.3196 C   0  0  0  0  0  0  0  0  0  0  0  0
  -26.5910  -28.1926   10.8273 C   0  0  0  0  0  0  0  0  0  0  0  0
  -29.3832  -22.0711   21.5568 C   0  0  0  0  0  0  0  0  0  0  0  0
  -28.1441  -12.1287   18.7466 C   0  0  0  0  0  0  0  0  0  0  0  0
  -29.5977  -23.5834   21.5105 C   0  0  0  0  0  0  0  0  0  0  0  0
  -30.5002  -12.6355   19.5235 C   0  0  0  0  0  0  0  0  0  0  0  0
  -28.5973  -13.2954   20.9421 C   0  0  0  0  0  0  0  0  0  0  0  0
  -32.0058  -23.1257   20.9705 C   0  0  0  0  0  0  0  0  0  0  0  0
  -27.5762  -27.4897   11.7691 C   0  0  1  0  0  0  0  0  0  0  0  0
  -30.7003  -21.3441   21.8501 C   0  0  2  0  0  0  0  0  0  0  0  0
  -25.8066  -24.5357   13.3739 C   0  0  1  0  0  0  0  0  0  0  0  0
  -27.6183  -13.1597   19.7645 C   0  0  2  0  0  0  0  0  0  0  0  0
  -30.7796  -23.9806   20.6008 C   0  0  2  0  0  0  0  0  0  0  0  0
  -29.6649  -17.0175   24.1433 C   0  0  0  0  0  0  0  0  0  0  0  0
  -32.0967  -20.2991   14.8436 C   0  0  0  0  0  0  0  0  0  0  0  0
  -33.4894  -17.5947   18.7999 C   0  0  0  0  0  0  0  0  0  0  0  0
  -28.6173  -18.1945   17.7364 C   0  0  0  0  0  0  0  0  0  0  0  0
  -31.1077  -25.4678   20.8047 C   0  0  0  0  0  0  0  0  0  0  0  0
  -19.5957  -21.6035   16.9558 C   0  0  0  0  0  0  0  0  0  0  0  0
  -22.4201  -27.2521   14.9592 C   0  0  0  0  0  0  0  0  0  0  0  0
  -20.6457  -26.0959   16.2944 C   0  0  0  0  0  0  0  0  0  0  0  0
  -20.7279  -25.8069   13.8181 C   0  0  0  0  0  0  0  0  0  0  0  0
  -22.9281  -19.8564   16.3913 C   0  0  0  0  0  0  0  0  0  0  0  0
  -30.4138  -23.7569   19.1207 C   0  0  0  0  0  0  0  0  0  1  0  0
  -22.4813  -24.6880   15.2554 C   0  0  1  0  0  0  0  0  0  0  0  0
  -20.9523  -21.3820   16.3052 C   0  0  2  0  0  0  0  0  0  0  0  0
  -21.5963  -25.9552   15.0864 C   0  0  0  0  0  0  0  0  0  0  0  0
  -25.8451  -11.5354   20.3111 N   0  0  0  0  0  0  0  0  0  0  0  0
  -26.2130  -12.8253   20.2285 N   0  0  0  0  0  0  0  0  0  0  0  0
  -24.8138  -24.5036   14.4498 N   0  0  0  0  0  0  0  0  0  0  0  0
  -29.9401  -13.6292   20.4420 N   0  0  0  0  0  0  0  0  0  0  0  0
  -25.4338  -15.0369   20.5640 N   0  0  0  0  0  0  0  0  0  0  0  0
  -21.8897  -13.6908   20.4164 N   0  0  0  0  0  0  0  0  0  0  0  0
  -30.0446  -15.6664   21.6257 N   0  0  0  0  0  0  0  0  0  0  0  0
  -27.0785  -26.1813   12.1361 N   0  0  0  0  0  0  0  0  0  0  0  0
  -21.7286  -23.4419   15.3511 N   0  0  0  0  0  0  0  0  0  0  0  0
  -21.5958  -20.2026   16.9500 N   0  3  0  0  0  0  0  0  0  0  0  0
  -22.6283  -13.6362   22.5867 O   0  0  0  0  0  0  0  0  0  0  0  0
  -25.7102  -26.8346   13.9034 O   0  0  0  0  0  0  0  0  0  0  0  0
  -23.0193  -24.3694   12.9673 O   0  0  0  0  0  0  0  0  0  0  0  0
  -22.5519  -22.8061   17.4235 O   0  0  0  0  0  0  0  0  0  0  0  0
  -31.8179  -14.9703   20.3019 O   0  0  0  0  0  0  0  0  0  0  0  0
  -31.7084  -21.7298   20.9084 O   0  0  0  0  0  0  0  0  0  0  0  0
  -21.6327   -6.9321   21.5826 O   0  0  0  0  0  0  0  0  0  0  0  0
  -30.7262  -17.1408   19.3422 O   0  0  0  0  0  0  0  0  0  0  0  0
  -29.0579  -24.1500   18.9125 O   0  0  0  0  0  0  0  0  0  1  0  0
  -16.9728   -7.3380   24.5023 F   0  0  0  0  0  0  0  0  0  0  0  0
  -21.3048   -5.5168   23.9347 F   0  0  0  0  0  0  0  0  0  0  0  0
  1  2  1  0  0  0  0
  1  5  2  0  0  0  0
  2  6  2  0  0  0  0
  3  8  2  0  0  0  0
  3 19  1  0  0  0  0
  4  9  1  0  0  0  0
  4 19  2  0  0  0  0
  5 21  1  0  0  0  0
  6 23  1  0  0  0  0
  7 10  2  0  0  0  0
  7 22  1  0  0  0  0
  8 31  1  0  0  0  0
  9 31  2  0  0  0  0
 10 32  1  0  0  0  0
 11 12  2  0  0  0  0
 11 33  1  0  0  0  0
 12 36  1  0  0  0  0
 13 24  1  0  0  0  0
 13 26  2  0  0  0  0
 14 24  2  0  0  0  0
 14 34  1  0  0  0  0
 15 25  1  0  0  0  0
 15 32  2  0  0  0  0
 16 27  1  0  0  0  0
 16 28  2  0  0  0  0
 17 27  2  0  0  0  0
 17 29  1  0  0  0  0
 18 36  2  0  0  0  0
 18 37  1  0  0  0  0
 19 38  1  0  0  0  0
 20 38  1  0  0  0  0
 20 39  2  0  0  0  0
 20 40  1  0  0  0  0
 21 23  2  0  0  0  0
 21 45  1  0  0  0  0
 22 25  2  0  0  0  0
 22 46  1  0  0  0  0
 23 57  1  0  0  0  0
 24 58  1  0  0  0  0
 25 47  1  0  0  0  0
 26 30  1  0  0  0  0
 26 62  1  0  0  0  0
 27 63  1  0  0  0  0
 28 35  1  0  0  0  0
 28 64  1  0  0  0  0
 29 35  2  0  0  0  0
 29 65  1  0  0  0  0
 30 34  2  0  0  0  0
 30 82  1  0  0  0  0
 31 92  1  0  0  0  0
 32 94  1  0  0  0  0
 33 37  2  0  0  0  0
 33 92  1  0  0  0  0
 34 93  1  0  0  0  0
 35 93  1  0  0  0  0
 36 95  1  0  0  0  0
 37 96  1  0  0  0  0
 38 76  2  0  0  0  0
 39 77  1  0  0  0  0
 39 80  1  0  0  0  0
 40 81  1  0  0  0  0
 40 86  2  0  0  0  0
 41 59  1  0  0  0  0
 41 83  1  0  0  0  0
 41 87  2  0  0  0  0
 42 73  1  0  0  0  0
 42 78  1  0  0  0  0
 42 88  2  0  0  0  0
 43 74  1  0  0  0  0
 43 84  1  0  0  0  0
 43 89  2  0  0  0  0
 44 79  1  0  0  0  0
 44 82  1  0  0  0  0
 44 90  2  0  0  0  0
 45 48  1  0  0  0  0
 46 59  1  0  0  0  0
 47 78  1  0  0  0  0
 48 50  1  0  0  0  0
 49 52  1  0  0  0  0
 49 54  1  0  0  0  0
 50 57  1  0  0  0  0
 51 53  1  0  0  0  0
 51 58  1  0  0  0  0
 52 60  1  0  0  0  0
 53 61  1  0  0  0  0
 54 79  1  0  0  0  0
 55 60  1  0  0  0  0
 55 79  1  0  0  0  0
 56 61  1  0  0  0  0
 56 91  1  0  0  0  0
 57 83  1  0  0  0  0
 58 91  1  0  0  0  0
 59 78  1  0  0  0  0
 60 77  1  0  0  0  0
 61 66  1  0  0  0  0
 61 72  1  0  0  0  0
 67 74  1  0  0  0  0
 68 75  1  0  0  0  0
 69 75  1  0  0  0  0
 70 75  1  0  0  0  0
 71 85  1  0  0  0  0
 72 94  1  0  0  0  0
 73 75  1  0  0  0  0
 73 84  1  0  0  0  0
 74 85  1  0  0  0  0
 76 77  1  0  0  0  0
M  CHG  1  85   1
M  ISO  4  44 100  72 101  82 100  94 101
M  END
> <Batch ID>
0154

> <Smiles>
CNC(C)C(=O)NC(C(=O)N1Cc2cc([101O:1][101CH2:1]C3(C)CCC(c4cc(C)c([100NH:0][100C:0](=O)N5CCCC(n6nc(-c7ccc(Oc8ccc(F)cc8F)cc7)c(C(N)=O)c6N)C5)c(Oc5c(C)cc(C)cc5C)c4)OC3)ccc2CC1C(=O)NC1CCCc2ccccc21)C(C)(C)C

> <Shape>
0.204

> <Color>
0.168

> <Negative vol penalty>
0.000

$$$$

  -OEChem-04052321513D

 84 92  0     1  0  0  0  0  0999 V2000
  -38.1727  -29.6712   27.1068 C   0  0  0  0  0  0  0  0  0  0  0  0
  -37.4038  -28.5122   27.1355 C   0  0  0  0  0  0  0  0  0  0  0  0
  -23.0043   -9.8792   20.0019 C   0  0  0  0  0  0  0  0  0  0  0  0
  -23.7160   -9.9743   22.3087 C   0  0  0  0  0  0  0  0  0  0  0  0
  -37.6831  -30.8159   26.4793 C   0  0  0  0  0  0  0  0  0  0  0  0
  -36.1441  -28.4976   26.5375 C   0  0  0  0  0  0  0  0  0  0  0  0
  -35.3561  -24.3311   23.7690 C   0  0  0  0  0  0  0  0  0  0  0  0
  -22.2384   -8.7483   20.2848 C   0  0  0  0  0  0  0  0  0  0  0  0
  -22.9500   -8.8434   22.5916 C   0  0  0  0  0  0  0  0  0  0  0  0
  -35.0355  -23.1612   24.4563 C   0  0  0  0  0  0  0  0  0  0  0  0
  -23.2034   -5.4968   22.1830 C   0  0  0  0  0  0  0  0  0  0  0  0
  -23.7885   -4.4948   22.9572 C   0  0  0  0  0  0  0  0  0  0  0  0
  -32.7048  -23.5008   23.9348 C   0  0  0  0  0  0  0  0  0  0  0  0
  -32.0334  -16.6019   22.5139 C   0  0  0  0  0  0  0  0  0  0  0  0
  -29.8497  -17.5038   23.0185 C   0  0  0  0  0  0  0  0  0  0  0  0
  -22.0545   -4.7652   24.6177 C   0  0  0  0  0  0  0  0  0  0  0  0
  -23.7431  -10.4922   21.0139 C   0  0  0  0  0  0  0  0  0  0  0  0
  -31.8126  -18.4237   24.0852 C   0  0  0  0  0  0  0  0  0  0  0  0
  -24.1247  -13.0049   20.7935 C   0  0  0  0  0  0  0  0  0  0  0  0
  -36.4208  -30.8125   25.8650 C   0  0  0  0  0  0  0  0  0  0  0  0
  -34.3506  -25.1017   23.1678 C   0  0  0  0  0  0  0  0  0  0  0  0
  -35.6366  -29.6437   25.9024 C   0  0  0  0  0  0  0  0  0  0  0  0
  -33.0156  -24.6787   23.2383 C   0  0  0  0  0  0  0  0  0  0  0  0
  -30.6512  -16.5958   22.3266 C   0  0  0  0  0  0  0  0  0  0  0  0
  -22.2112   -8.2304   21.5796 C   0  0  0  0  0  0  0  0  0  0  0  0
  -33.7094  -22.7474   24.5417 C   0  0  0  0  0  0  0  0  0  0  0  0
  -22.0439   -6.1330   22.6262 C   0  0  0  0  0  0  0  0  0  0  0  0
  -32.6141  -17.5158   23.3932 C   0  0  0  0  0  0  0  0  0  0  0  0
  -30.4304  -18.4178   23.8979 C   0  0  0  0  0  0  0  0  0  0  0  0
  -23.2140   -4.1290   24.1745 C   0  0  0  0  0  0  0  0  0  0  0  0
  -21.4694   -5.7672   23.8435 C   0  0  0  0  0  0  0  0  0  0  0  0
  -24.5350  -11.6601   20.7222 C   0  0  0  0  0  0  0  0  0  0  0  0
  -25.2352  -13.7228   20.4222 C   0  0  0  0  0  0  0  0  0  0  0  0
  -32.4339  -19.4015   25.0243 C   0  0  0  0  0  0  0  0  0  0  0  0
  -22.8535  -13.5558   21.1626 C   0  0  0  0  0  0  0  0  0  0  0  0
  -33.2661  -28.0653   23.5481 C   0  0  0  0  0  0  0  0  0  0  0  0
  -31.4705  -27.3253   20.9500 C   0  0  0  0  0  0  0  0  0  0  0  0
  -30.0165  -24.9111   19.0253 C   0  0  0  0  0  0  0  0  0  0  0  0
  -30.7114  -14.6990   20.6699 C   0  0  0  0  0  0  0  0  0  0  0  0
  -35.9141  -32.0882   25.2400 C   0  0  0  0  0  0  0  0  0  0  0  0
  -34.7158  -26.3470   22.4073 C   0  0  0  0  0  0  0  0  0  0  0  0
  -31.9011  -25.4595   22.5928 C   0  0  0  0  0  0  0  0  0  0  0  0
  -34.7265  -31.8781   24.3042 C   0  0  0  0  0  0  0  0  0  0  0  0
  -29.6112  -12.2013   18.3834 C   0  0  0  0  0  0  0  0  0  0  0  0
  -33.6891  -30.9681   24.9542 C   0  0  0  0  0  0  0  0  0  0  0  0
  -28.1588  -11.9484   18.7939 C   0  0  0  0  0  0  0  0  0  0  0  0
  -30.5043  -12.4688   19.5936 C   0  0  0  0  0  0  0  0  0  0  0  0
  -28.5798  -13.2784   20.9012 C   0  0  0  0  0  0  0  0  0  0  0  0
  -34.2757  -29.5811   25.2434 C   0  0  1  0  0  0  0  0  0  0  0  0
  -33.5543  -27.3267   22.2718 C   0  0  1  0  0  0  0  0  0  0  0  0
  -27.6293  -13.0682   19.7112 C   0  0  2  0  0  0  0  0  0  0  0  0
  -28.5805  -24.6149   16.9888 C   0  0  0  0  0  0  0  0  0  0  0  0
  -29.0198  -28.1738   22.5576 C   0  0  0  0  0  0  0  0  0  0  0  0
  -27.5929  -26.9876   20.8768 C   0  0  0  0  0  0  0  0  0  0  0  0
  -29.0089  -28.9156   20.1693 C   0  0  0  0  0  0  0  0  0  0  0  0
  -32.1216  -23.3756   17.6218 C   0  0  0  0  0  0  0  0  0  0  0  0
  -34.7342  -18.3339   22.6921 C   0  0  0  0  0  0  0  0  0  0  0  0
  -29.1227  -18.8791   25.8300 C   0  0  0  0  0  0  0  0  0  0  0  0
  -32.2492  -20.8831   24.7611 C   0  0  0  0  0  0  0  0  0  1  0  0
  -30.1094  -26.7099   20.7311 C   0  0  1  0  0  0  0  0  0  0  0  0
  -30.0022  -24.6935   17.5230 C   0  0  2  0  0  0  0  0  0  0  0  0
  -28.9533  -27.6828   21.0976 C   0  0  0  0  0  0  0  0  0  0  0  0
  -25.8068  -11.5288   20.3357 N   0  0  0  0  0  0  0  0  0  0  0  0
  -26.2052  -12.8003   20.1608 N   0  0  0  0  0  0  0  0  0  0  0  0
  -32.3083  -26.6733   21.8659 N   0  0  0  0  0  0  0  0  0  0  0  0
  -29.9424  -13.5441   20.4139 N   0  0  0  0  0  0  0  0  0  0  0  0
  -25.4668  -15.0468   20.2970 N   0  0  0  0  0  0  0  0  0  0  0  0
  -21.8214  -12.6761   21.5165 N   0  0  0  0  0  0  0  0  0  0  0  0
  -30.0608  -15.6672   21.4339 N   0  0  0  0  0  0  0  0  0  0  0  0
  -34.3362  -28.7949   24.0299 N   0  0  0  0  0  0  0  0  0  0  0  0
  -30.0872  -26.2501   19.3468 N   0  0  0  0  0  0  0  0  0  0  0  0
  -30.7052  -23.4260   17.1764 N   0  3  0  0  0  0  0  0  0  0  0  0
  -33.0784  -18.9925   25.9873 O   0  0  0  0  0  0  0  0  0  0  0  0
  -22.6343  -14.7909   21.1622 O   0  0  0  0  0  0  0  0  0  0  0  0
  -32.1547  -27.9808   24.0574 O   0  0  0  0  0  0  0  0  0  0  0  0
  -31.7816  -28.3427   20.3258 O   0  0  0  0  0  0  0  0  0  0  0  0
  -29.9660  -23.9860   19.8328 O   0  0  0  0  0  0  0  0  0  0  0  0
  -31.8524  -14.8318   20.2199 O   0  0  0  0  0  0  0  0  0  0  0  0
  -21.4637   -7.1270   21.8561 O   0  0  0  0  0  0  0  0  0  0  0  0
  -33.9667  -17.5047   23.5618 O   0  0  0  0  0  0  0  0  0  0  0  0
  -29.6286  -19.2962   24.5638 O   0  0  0  0  0  0  0  0  0  0  0  0
  -33.3936  -21.6062   25.2124 O   0  0  0  0  0  0  0  0  0  1  0  0
  -23.7752   -3.1658   24.9171 F   0  0  0  0  0  0  0  0  0  0  0  0
  -20.3548   -6.3741   24.2739 F   0  0  0  0  0  0  0  0  0  0  0  0
  1  2  1  0  0  0  0
  1  5  2  0  0  0  0
  2  6  2  0  0  0  0
  3  8  2  0  0  0  0
  3 17  1  0  0  0  0
  4  9  1  0  0  0  0
  4 17  2  0  0  0  0
  5 20  1  0  0  0  0
  6 22  1  0  0  0  0
  7 10  2  0  0  0  0
  7 21  1  0  0  0  0
  8 25  1  0  0  0  0
  9 25  2  0  0  0  0
 10 26  1  0  0  0  0
 11 12  2  0  0  0  0
 11 27  1  0  0  0  0
 12 30  1  0  0  0  0
 13 23  1  0  0  0  0
 13 26  2  0  0  0  0
 14 24  1  0  0  0  0
 14 28  2  0  0  0  0
 15 24  2  0  0  0  0
 15 29  1  0  0  0  0
 16 30  2  0  0  0  0
 16 31  1  0  0  0  0
 17 32  1  0  0  0  0
 18 28  1  0  0  0  0
 18 29  2  0  0  0  0
 18 34  1  0  0  0  0
 19 32  1  0  0  0  0
 19 33  2  0  0  0  0
 19 35  1  0  0  0  0
 20 22  2  0  0  0  0
 20 40  1  0  0  0  0
 21 23  2  0  0  0  0
 21 41  1  0  0  0  0
 22 49  1  0  0  0  0
 23 42  1  0  0  0  0
 24 69  1  0  0  0  0
 25 79  1  0  0  0  0
 26 82  1  0  0  0  0
 27 31  2  0  0  0  0
 27 79  1  0  0  0  0
 28 80  1  0  0  0  0
 29 81  1  0  0  0  0
 30 83  1  0  0  0  0
 31 84  1  0  0  0  0
 32 63  2  0  0  0  0
 33 64  1  0  0  0  0
 33 67  1  0  0  0  0
 34 59  1  0  0  0  0
 34 73  2  0  0  0  0
 35 68  1  0  0  0  0
 35 74  2  0  0  0  0
 36 50  1  0  0  0  0
 36 70  1  0  0  0  0
 36 75  2  0  0  0  0
 37 60  1  0  0  0  0
 37 65  1  0  0  0  0
 37 76  2  0  0  0  0
 38 61  1  0  0  0  0
 38 71  1  0  0  0  0
 38 77  2  0  0  0  0
 39 66  1  0  0  0  0
 39 69  1  0  0  0  0
 39 78  2  0  0  0  0
 40 43  1  0  0  0  0
 41 50  1  0  0  0  0
 42 65  1  0  0  0  0
 43 45  1  0  0  0  0
 44 46  1  0  0  0  0
 44 47  1  0  0  0  0
 45 49  1  0  0  0  0
 46 51  1  0  0  0  0
 47 66  1  0  0  0  0
 48 51  1  0  0  0  0
 48 66  1  0  0  0  0
 49 70  1  0  0  0  0
 50 65  1  0  0  0  0
 51 64  1  0  0  0  0
 52 61  1  0  0  0  0
 53 62  1  0  0  0  0
 54 62  1  0  0  0  0
 55 62  1  0  0  0  0
 56 72  1  0  0  0  0
 57 80  1  0  0  0  0
 58 81  1  0  0  0  0
 59 82  1  0  0  0  0
 60 62  1  0  0  0  0
 60 71  1  0  0  0  0
 61 72  1  0  0  0  0
 63 64  1  0  0  0  0
M  CHG  1  72   1
M  ISO  4  39 100  59 101  69 100  82 101
M  END
> <Batch ID>
0154

> <Smiles>
CNC(C)C(=O)NC(C(=O)N1Cc2cc([101O:1][101CH2:1]C(=O)c3c(OC)cc([100NH:0][100C:0](=O)N4CCCC(n5nc(-c6ccc(Oc7ccc(F)cc7F)cc6)c(C(N)=O)c5N)C4)cc3OC)ccc2CC1C(=O)NC1CCCc2ccccc21)C(C)(C)C

> <Shape>
0.243

> <Color>
0.196

> <Negative vol penalty>
0.000

$$$$

  -OEChem-04052321513D

 93102  0     1  0  0  0  0  0999 V2000
  -26.5367  -32.5533   27.2787 C   0  0  0  0  0  0  0  0  0  0  0  0
  -25.9290  -31.4498   26.6884 C   0  0  0  0  0  0  0  0  0  0  0  0
  -23.0657   -9.8650   19.9747 C   0  0  0  0  0  0  0  0  0  0  0  0
  -23.8697   -9.8947   22.2529 C   0  0  0  0  0  0  0  0  0  0  0  0
  -27.6940  -33.0927   26.7188 C   0  0  0  0  0  0  0  0  0  0  0  0
  -26.4778  -30.8857   25.5372 C   0  0  0  0  0  0  0  0  0  0  0  0
  -26.6481  -25.8287   25.7429 C   0  0  0  0  0  0  0  0  0  0  0  0
  -22.3292   -8.7129   20.2497 C   0  0  0  0  0  0  0  0  0  0  0  0
  -23.1330   -8.7425   22.5278 C   0  0  0  0  0  0  0  0  0  0  0  0
  -25.4588  -25.1413   25.5041 C   0  0  0  0  0  0  0  0  0  0  0  0
  -19.4111   -7.9243   21.7648 C   0  0  0  0  0  0  0  0  0  0  0  0
  -18.0952   -7.8712   21.3053 C   0  0  0  0  0  0  0  0  0  0  0  0
  -26.1728  -24.7044   23.2416 C   0  0  0  0  0  0  0  0  0  0  0  0
  -26.9510  -18.3446   20.2687 C   0  0  0  0  0  0  0  0  0  0  0  0
  -27.5968  -19.3380   22.3742 C   0  0  0  0  0  0  0  0  0  0  0  0
  -18.6332   -5.9169   19.9906 C   0  0  0  0  0  0  0  0  0  0  0  0
  -23.8360  -10.4559   20.9763 C   0  0  0  0  0  0  0  0  0  0  0  0
  -24.1704  -12.9805   20.8264 C   0  0  0  0  0  0  0  0  0  0  0  0
  -28.2627  -32.5291   25.5657 C   0  0  0  0  0  0  0  0  0  0  0  0
  -27.6054  -25.9687   24.7279 C   0  0  0  0  0  0  0  0  0  0  0  0
  -27.6430  -31.4190   24.9607 C   0  0  0  0  0  0  0  0  0  0  0  0
  -27.3745  -25.3918   23.4709 C   0  0  0  0  0  0  0  0  0  0  0  0
  -25.3391  -19.6025   21.5557 C   0  0  0  0  0  0  0  0  0  0  0  0
  -25.6611  -18.8520   20.4249 C   0  0  0  0  0  0  0  0  0  0  0  0
  -22.3628   -8.1516   21.5262 C   0  0  0  0  0  0  0  0  0  0  0  0
  -25.2198  -24.5815   24.2524 C   0  0  0  0  0  0  0  0  0  0  0  0
  -20.3381   -6.9738   21.3371 C   0  0  0  0  0  0  0  0  0  0  0  0
  -27.9188  -18.5875   21.2434 C   0  0  0  0  0  0  0  0  0  0  0  0
  -26.3069  -19.8455   22.5304 C   0  0  0  0  0  0  0  0  0  0  0  0
  -17.7062   -6.8675   20.4182 C   0  0  0  0  0  0  0  0  0  0  0  0
  -19.9492   -5.9701   20.4500 C   0  0  0  0  0  0  0  0  0  0  0  0
  -24.5976  -11.6458   20.6928 C   0  0  0  0  0  0  0  0  0  0  0  0
  -25.2538  -13.7286   20.4352 C   0  0  0  0  0  0  0  0  0  0  0  0
  -22.9071  -13.4978   21.2650 C   0  0  0  0  0  0  0  0  0  0  0  0
  -28.8957  -28.4303   23.1854 C   0  0  0  0  0  0  0  0  0  0  0  0
  -30.7763  -26.1289   21.8857 C   0  0  0  0  0  0  0  0  0  0  0  0
  -31.1860  -22.8403   21.0709 C   0  0  0  0  0  0  0  0  0  0  0  0
  -30.7624  -14.6696   20.6609 C   0  0  0  0  0  0  0  0  0  0  0  0
  -29.4879  -33.1761   24.9699 C   0  0  0  0  0  0  0  0  0  0  0  0
  -28.8948  -26.6901   25.0096 C   0  0  0  0  0  0  0  0  0  0  0  0
  -28.3791  -25.4964   22.3537 C   0  0  0  0  0  0  0  0  0  0  0  0
  -30.2166  -32.2893   23.9636 C   0  0  0  0  0  0  0  0  0  0  0  0
  -29.5520  -12.3778   18.1544 C   0  0  0  0  0  0  0  0  0  0  0  0
  -29.2250  -31.6607   22.9897 C   0  0  0  0  0  0  0  0  0  0  0  0
  -28.1334  -12.0632   18.6275 C   0  0  0  0  0  0  0  0  0  0  0  0
  -30.4992  -12.5914   19.3307 C   0  0  0  0  0  0  0  0  0  0  0  0
  -28.6168  -13.3327   20.7674 C   0  0  0  0  0  0  0  0  0  0  0  0
  -23.8644  -21.4849   22.4972 C   0  0  0  0  0  0  0  0  0  0  0  0
  -23.9340  -20.1594   21.7310 C   0  0  2  0  0  0  0  0  0  0  0  0
  -28.2221  -30.7639   23.7255 C   0  0  1  0  0  0  0  0  0  0  0  0
  -29.5745  -27.2137   23.7481 C   0  0  1  0  0  0  0  0  0  0  0  0
  -27.6268  -13.1376   19.6062 C   0  0  2  0  0  0  0  0  0  0  0  0
  -23.0943  -19.6513   23.9692 C   0  0  2  0  0  0  0  0  0  0  0  0
  -22.9149  -19.2535   22.4829 C   0  0  0  0  0  0  0  0  0  0  0  0
  -24.6428  -18.5775   19.3673 C   0  0  0  0  0  0  0  0  0  0  0  0
  -21.4776  -19.6149   22.0270 C   0  0  0  0  0  0  0  0  0  0  0  0
  -23.0964  -17.7488   22.2230 C   0  0  0  0  0  0  0  0  0  0  0  0
  -32.3482  -20.7703   20.2574 C   0  0  0  0  0  0  0  0  0  0  0  0
  -29.9605  -27.1872   19.1426 C   0  0  0  0  0  0  0  0  0  0  0  0
  -30.8129  -25.0555   18.1439 C   0  0  0  0  0  0  0  0  0  0  0  0
  -32.3775  -26.5790   19.3496 C   0  0  0  0  0  0  0  0  0  0  0  0
  -32.2649  -22.2482   23.7625 C   0  0  0  0  0  0  0  0  0  0  0  0
  -27.0614  -20.7749   24.5853 C   0  0  0  0  0  0  0  0  0  0  0  0
  -22.6462  -22.0648   24.6312 C   0  0  0  0  0  0  0  0  0  0  0  0
  -23.4557  -23.2471   25.1261 C   0  0  0  0  0  0  0  0  0  1  0  0
  -29.9003  -17.7780   22.2799 C   0  0  0  0  0  0  0  0  0  0  0  0
  -30.8597  -16.6402   21.9897 C   0  0  0  0  0  0  0  0  0  0  0  0
  -30.6897  -25.2377   20.6703 C   0  0  1  0  0  0  0  0  0  0  0  0
  -32.3442  -21.8844   21.2926 C   0  0  2  0  0  0  0  0  0  0  0  0
  -30.9402  -26.0144   19.3468 C   0  0  0  0  0  0  0  0  0  0  0  0
  -25.8543  -11.5484   20.2511 N   0  0  0  0  0  0  0  0  0  0  0  0
  -26.2261  -12.8314   20.1037 N   0  0  0  0  0  0  0  0  0  0  0  0
  -29.6217  -26.2170   22.6763 N   0  0  0  0  0  0  0  0  0  0  0  0
  -29.9708  -13.5886   20.2608 N   0  0  0  0  0  0  0  0  0  0  0  0
  -25.4600  -15.0597   20.3459 N   0  0  0  0  0  0  0  0  0  0  0  0
  -21.9038  -12.5899   21.6301 N   0  0  0  0  0  0  0  0  0  0  0  0
  -28.8316  -29.4955   24.0634 N   0  0  0  0  0  0  0  0  0  0  0  0
  -31.6200  -24.1383   20.9032 N   0  0  0  0  0  0  0  0  0  0  0  0
  -23.5538  -21.1039   23.9289 N   0  3  2  0  0  0  0  0  0  0  0  0
  -32.2550  -21.2677   22.6464 N   0  3  0  0  0  0  0  0  0  0  0  0
  -22.6695  -14.7285   21.3155 O   0  0  0  0  0  0  0  0  0  0  0  0
  -28.4635  -28.4051   22.0390 O   0  0  0  0  0  0  0  0  0  0  0  0
  -31.8317  -26.7194   22.1287 O   0  0  0  0  0  0  0  0  0  0  0  0
  -30.0138  -22.4718   21.0452 O   0  0  0  0  0  0  0  0  0  0  0  0
  -31.9160  -14.8618   20.2805 O   0  0  0  0  0  0  0  0  0  0  0  0
  -24.0092  -18.8028   24.6531 O   0  0  0  0  0  0  0  0  0  0  0  0
  -21.6440   -7.0275   21.7949 O   0  0  0  0  0  0  0  0  0  0  0  0
  -26.0108  -20.5765   23.6417 O   0  0  0  0  0  0  0  0  0  0  0  0
  -24.0596  -23.9107   24.0164 O   0  0  0  0  0  0  0  0  0  1  0  0
  -29.1777  -18.0930   21.0907 O   0  0  0  0  0  0  0  0  0  0  0  0
  -30.1151  -15.5056   21.5316 O   0  0  0  0  0  0  0  0  0  0  0  0
  -16.4421   -6.8156   19.9783 F   0  0  0  0  0  0  0  0  0  0  0  0
  -20.8350   -5.0535   20.0366 F   0  0  0  0  0  0  0  0  0  0  0  0
  1  2  1  0  0  0  0
  1  5  2  0  0  0  0
  2  6  2  0  0  0  0
  3  8  2  0  0  0  0
  3 17  1  0  0  0  0
  4  9  1  0  0  0  0
  4 17  2  0  0  0  0
  5 19  1  0  0  0  0
  6 21  1  0  0  0  0
  7 10  2  0  0  0  0
  7 20  1  0  0  0  0
  8 25  1  0  0  0  0
  9 25  2  0  0  0  0
 10 26  1  0  0  0  0
 11 12  2  0  0  0  0
 11 27  1  0  0  0  0
 12 30  1  0  0  0  0
 13 22  1  0  0  0  0
 13 26  2  0  0  0  0
 14 24  2  0  0  0  0
 14 28  1  0  0  0  0
 15 28  2  0  0  0  0
 15 29  1  0  0  0  0
 16 30  2  0  0  0  0
 16 31  1  0  0  0  0
 17 32  1  0  0  0  0
 18 32  1  0  0  0  0
 18 33  2  0  0  0  0
 18 34  1  0  0  0  0
 19 21  2  0  0  0  0
 19 39  1  0  0  0  0
 20 22  2  0  0  0  0
 20 40  1  0  0  0  0
 21 50  1  0  0  0  0
 22 41  1  0  0  0  0
 23 24  1  0  0  0  0
 23 29  2  0  0  0  0
 23 49  1  0  0  0  0
 24 55  1  0  0  0  0
 25 87  1  0  0  0  0
 26 89  1  0  0  0  0
 27 31  2  0  0  0  0
 27 87  1  0  0  0  0
 28 90  1  0  0  0  0
 29 88  1  0  0  0  0
 30 92  1  0  0  0  0
 31 93  1  0  0  0  0
 32 71  2  0  0  0  0
 33 72  1  0  0  0  0
 33 75  1  0  0  0  0
 34 76  1  0  0  0  0
 34 81  2  0  0  0  0
 35 51  1  0  0  0  0
 35 77  1  0  0  0  0
 35 82  2  0  0  0  0
 36 68  1  0  0  0  0
 36 73  1  0  0  0  0
 36 83  2  0  0  0  0
 37 69  1  0  0  0  0
 37 78  1  0  0  0  0
 37 84  2  0  0  0  0
 38 74  1  0  0  0  0
 38 85  2  0  0  0  0
 38 91  1  0  0  0  0
 39 42  1  0  0  0  0
 40 51  1  0  0  0  0
 41 73  1  0  0  0  0
 42 44  1  0  0  0  0
 43 45  1  0  0  0  0
 43 46  1  0  0  0  0
 44 50  1  0  0  0  0
 45 52  1  0  0  0  0
 46 74  1  0  0  0  0
 47 52  1  0  0  0  0
 47 74  1  0  0  0  0
 48 49  1  0  0  0  0
 48 79  1  0  0  0  0
 49 54  1  0  0  0  0
 50 77  1  0  0  0  0
 51 73  1  0  0  0  0
 52 72  1  0  0  0  0
 53 54  1  0  0  0  0
 53 79  1  0  0  0  0
 53 86  1  0  0  0  0
 54 56  1  0  0  0  0
 54 57  1  0  0  0  0
 58 69  1  0  0  0  0
 59 70  1  0  0  0  0
 60 70  1  0  0  0  0
 61 70  1  0  0  0  0
 62 80  1  0  0  0  0
 63 88  1  0  0  0  0
 64 65  1  0  0  0  0
 64 79  1  0  0  0  0
 65 89  1  0  0  0  0
 66 67  1  0  0  0  0
 66 90  1  0  0  0  0
 67 91  1  0  0  0  0
 68 70  1  0  0  0  0
 68 78  1  0  0  0  0
 69 80  1  0  0  0  0
 71 72  1  0  0  0  0
M  CHG  2  79   1  80   1
M  ISO  4  38 100  65 101  89 101  91 100
M  END
> <Batch ID>
0154

> <Smiles>
CNC(C)C(=O)NC(C(=O)N1Cc2cc([101O:1][101CH2:1]CN3CC(c4c(C)cc(OCC[100O:0][100C:0](=O)N5CCCC(n6nc(-c7ccc(Oc8ccc(F)cc8F)cc7)c(C(N)=O)c6N)C5)cc4OC)C(C)(C)C3O)ccc2CC1C(=O)NC1CCCc2ccccc21)C(C)(C)C

> <Shape>
0.249

> <Color>
0.173

> <Negative vol penalty>
0.000

$$$$

  -OEChem-04052321513D

 86 95  0     1  0  0  0  0  0999 V2000
  -29.2574  -33.9992   27.5049 C   0  0  0  0  0  0  0  0  0  0  0  0
  -28.9339  -32.8356   26.8143 C   0  0  0  0  0  0  0  0  0  0  0  0
  -26.5528   -8.3321   22.0973 C   0  0  0  0  0  0  0  0  0  0  0  0
  -24.7529   -8.0210   20.5160 C   0  0  0  0  0  0  0  0  0  0  0  0
  -28.3216  -35.0270   27.6136 C   0  0  0  0  0  0  0  0  0  0  0  0
  -27.6739  -32.6988   26.2327 C   0  0  0  0  0  0  0  0  0  0  0  0
  -27.8963  -30.8232   21.5341 C   0  0  0  0  0  0  0  0  0  0  0  0
  -26.0735   -7.2624   22.8533 C   0  0  0  0  0  0  0  0  0  0  0  0
  -24.2736   -6.9512   21.2719 C   0  0  0  0  0  0  0  0  0  0  0  0
  -28.0968  -29.4494   21.4057 C   0  0  0  0  0  0  0  0  0  0  0  0
  -22.4690   -6.5073   24.0963 C   0  0  0  0  0  0  0  0  0  0  0  0
  -21.0965   -6.4478   24.3377 C   0  0  0  0  0  0  0  0  0  0  0  0
  -25.7352  -29.1472   21.0175 C   0  0  0  0  0  0  0  0  0  0  0  0
  -29.0221  -24.4892   21.9950 C   0  0  0  0  0  0  0  0  0  0  0  0
  -28.1801  -23.3610   19.5865 C   0  0  0  0  0  0  0  0  0  0  0  0
  -20.9924   -4.3090   23.2188 C   0  0  0  0  0  0  0  0  0  0  0  0
  -25.8924   -8.7115   20.9287 C   0  0  0  0  0  0  0  0  0  0  0  0
  -27.3203   -9.7639   19.0952 C   0  0  0  0  0  0  0  0  0  0  0  0
  -27.0529  -34.9066   27.0248 C   0  0  0  0  0  0  0  0  0  0  0  0
  -26.6100  -31.3689   21.4158 C   0  0  0  0  0  0  0  0  0  0  0  0
  -26.7198  -33.7254   26.3347 C   0  0  0  0  0  0  0  0  0  0  0  0
  -25.5215  -30.5284   21.1423 C   0  0  0  0  0  0  0  0  0  0  0  0
  -28.5683  -25.3091   20.9619 C   0  0  0  0  0  0  0  0  0  0  0  0
  -29.0551  -23.1052   21.8239 C   0  0  0  0  0  0  0  0  0  0  0  0
  -28.1472  -24.7450   19.7576 C   0  0  0  0  0  0  0  0  0  0  0  0
  -24.9339   -6.5719   22.4406 C   0  0  0  0  0  0  0  0  0  0  0  0
  -27.0158  -28.6109   21.1503 C   0  0  0  0  0  0  0  0  0  0  0  0
  -23.1033   -5.4676   23.4161 C   0  0  0  0  0  0  0  0  0  0  0  0
  -28.6340  -22.5412   20.6197 C   0  0  0  0  0  0  0  0  0  0  0  0
  -20.3582   -5.3486   23.8990 C   0  0  0  0  0  0  0  0  0  0  0  0
  -22.3650   -4.3685   22.9774 C   0  0  0  0  0  0  0  0  0  0  0  0
  -26.3867   -9.8168   20.1476 C   0  0  0  0  0  0  0  0  0  0  0  0
  -27.4521  -11.0687   18.6872 C   0  0  0  0  0  0  0  0  0  0  0  0
  -28.0068   -8.6360   18.5364 C   0  0  0  0  0  0  0  0  0  0  0  0
  -24.6729  -32.9861   23.3487 C   0  0  0  0  0  0  0  0  0  0  0  0
  -22.8423  -33.2187   20.6809 C   0  0  0  0  0  0  0  0  0  0  0  0
  -21.9937  -31.9475   17.6295 C   0  0  0  0  0  0  0  0  0  0  0  0
  -28.0598  -16.3239   19.5965 C   0  0  0  0  0  0  0  0  0  0  0  0
  -26.0580  -36.0250   27.2093 C   0  0  0  0  0  0  0  0  0  0  0  0
  -26.4144  -32.8558   21.5303 C   0  0  0  0  0  0  0  0  0  0  0  0
  -24.1235  -31.0668   20.9863 C   0  0  0  0  0  0  0  0  0  0  0  0
  -24.8770  -35.9549   26.2445 C   0  0  0  0  0  0  0  0  0  0  0  0
  -24.7504  -15.1787   19.8383 C   0  0  0  0  0  0  0  0  0  0  0  0
  -24.3186  -34.5366   26.1863 C   0  0  0  0  0  0  0  0  0  0  0  0
  -24.9540  -13.6639   19.8563 C   0  0  0  0  0  0  0  0  0  0  0  0
  -27.4642  -19.8897   18.7732 C   0  0  0  0  0  0  0  0  0  0  0  0
  -27.0793  -19.5403   21.2510 C   0  0  0  0  0  0  0  0  0  0  0  0
  -25.8041  -15.9085   20.6731 C   0  0  0  0  0  0  0  0  0  0  0  0
  -28.3242  -18.6270   18.7539 C   0  0  0  0  0  0  0  0  0  0  0  0
  -27.9506  -18.2886   21.1757 C   0  0  0  0  0  0  0  0  0  0  0  0
  -27.4017  -14.0518   20.3318 C   0  0  0  0  0  0  0  0  0  0  0  0
  -25.3722  -33.5497   25.6690 C   0  0  1  0  0  0  0  0  0  0  0  0
  -24.9865  -33.2438   21.9020 C   0  0  1  0  0  0  0  0  0  0  0  0
  -26.3930  -13.2950   19.4538 C   0  0  1  0  0  0  0  0  0  0  0  0
  -27.4159  -20.5494   20.1518 C   0  0  0  0  0  0  0  0  0  0  0  0
  -29.5430  -22.2427   22.9408 C   0  0  0  0  0  0  0  0  0  0  0  0
  -27.6572  -25.6022   18.6371 C   0  0  0  0  0  0  0  0  0  0  0  0
  -20.4375  -32.3322   15.6989 C   0  0  0  0  0  0  0  0  0  0  0  0
  -20.5342  -32.0754   22.3167 C   0  0  0  0  0  0  0  0  0  0  0  0
  -19.3394  -31.5994   20.1686 C   0  0  0  0  0  0  0  0  0  0  0  0
  -19.9008  -33.9499   20.7872 C   0  0  0  0  0  0  0  0  0  0  0  0
  -24.2419  -32.3375   15.7448 C   0  0  0  0  0  0  0  0  0  0  0  0
  -28.5434  -26.7882   21.1669 C   0  0  0  0  0  0  0  0  0  1  0  0
  -21.7481  -32.3849   20.0591 C   0  0  1  0  0  0  0  0  0  0  0  0
  -21.8167  -32.6111   16.2758 C   0  0  2  0  0  0  0  0  0  0  0  0
  -20.4065  -32.4917   20.8377 C   0  0  0  0  0  0  0  0  0  0  0  0
  -25.9561  -11.0571   20.3930 N   0  0  0  0  0  0  0  0  0  0  0  0
  -26.6221  -11.7956   19.4891 N   0  0  0  0  0  0  0  0  0  0  0  0
  -23.9825  -32.5268   21.1132 N   0  0  0  0  0  0  0  0  0  0  0  0
  -27.1576  -15.4947   20.2799 N   0  0  0  0  0  0  0  0  0  0  0  0
  -27.9519  -17.7058   19.8271 N   0  0  0  0  0  0  0  0  0  0  0  0
  -28.1959  -11.6537   17.7245 N   0  0  0  0  0  0  0  0  0  0  0  0
  -27.7546   -7.3666   19.0743 N   0  0  0  0  0  0  0  0  0  0  0  0
  -25.4999  -33.6544   24.2313 N   0  0  0  0  0  0  0  0  0  0  0  0
  -21.6632  -32.7987   18.6627 N   0  0  0  0  0  0  0  0  0  0  0  0
  -22.8386  -32.1081   15.3147 N   0  3  0  0  0  0  0  0  0  0  0  0
  -28.8322   -8.7527   17.5990 O   0  0  0  0  0  0  0  0  0  0  0  0
  -23.7482  -32.2376   23.6424 O   0  0  0  0  0  0  0  0  0  0  0  0
  -22.6938  -34.4398   20.7730 O   0  0  0  0  0  0  0  0  0  0  0  0
  -22.3825  -30.7886   17.7576 O   0  0  0  0  0  0  0  0  0  0  0  0
  -28.9084  -15.8608   18.8242 O   0  0  0  0  0  0  0  0  0  0  0  0
  -24.4661   -5.5278   23.1779 O   0  0  0  0  0  0  0  0  0  0  0  0
  -28.6612  -21.1840   20.4345 O   0  0  0  0  0  0  0  0  0  0  0  0
  -27.2099  -27.2601   21.0243 O   0  0  0  0  0  0  0  0  0  1  0  0
  -19.0405   -5.2909   24.1322 F   0  0  0  0  0  0  0  0  0  0  0  0
  -22.9689   -3.3662   22.3244 F   0  0  0  0  0  0  0  0  0  0  0  0
  1  2  1  0  0  0  0
  1  5  2  0  0  0  0
  2  6  2  0  0  0  0
  3  8  2  0  0  0  0
  3 17  1  0  0  0  0
  4  9  1  0  0  0  0
  4 17  2  0  0  0  0
  5 19  1  0  0  0  0
  6 21  1  0  0  0  0
  7 10  2  0  0  0  0
  7 20  1  0  0  0  0
  8 26  1  0  0  0  0
  9 26  2  0  0  0  0
 10 27  1  0  0  0  0
 11 12  2  0  0  0  0
 11 28  1  0  0  0  0
 12 30  1  0  0  0  0
 13 22  1  0  0  0  0
 13 27  2  0  0  0  0
 14 23  1  0  0  0  0
 14 24  2  0  0  0  0
 15 25  1  0  0  0  0
 15 29  2  0  0  0  0
 16 30  2  0  0  0  0
 16 31  1  0  0  0  0
 17 32  1  0  0  0  0
 18 32  1  0  0  0  0
 18 33  2  0  0  0  0
 18 34  1  0  0  0  0
 19 21  2  0  0  0  0
 19 39  1  0  0  0  0
 20 22  2  0  0  0  0
 20 40  1  0  0  0  0
 21 52  1  0  0  0  0
 22 41  1  0  0  0  0
 23 25  2  0  0  0  0
 23 63  1  0  0  0  0
 24 29  1  0  0  0  0
 24 56  1  0  0  0  0
 25 57  1  0  0  0  0
 26 82  1  0  0  0  0
 27 84  1  0  0  0  0
 28 31  2  0  0  0  0
 28 82  1  0  0  0  0
 29 83  1  0  0  0  0
 30 85  1  0  0  0  0
 31 86  1  0  0  0  0
 32 67  2  0  0  0  0
 33 68  1  0  0  0  0
 33 72  1  0  0  0  0
 34 73  1  0  0  0  0
 34 77  2  0  0  0  0
 35 53  1  0  0  0  0
 35 74  1  0  0  0  0
 35 78  2  0  0  0  0
 36 64  1  0  0  0  0
 36 69  1  0  0  0  0
 36 79  2  0  0  0  0
 37 65  1  0  0  0  0
 37 75  1  0  0  0  0
 37 80  2  0  0  0  0
 38 70  1  0  0  0  0
 38 71  1  0  0  0  0
 38 81  2  0  0  0  0
 39 42  1  0  0  0  0
 40 53  1  0  0  0  0
 41 69  1  0  0  0  0
 42 44  1  0  0  0  0
 43 45  1  0  0  0  0
 43 48  1  0  0  0  0
 44 52  1  0  0  0  0
 45 54  1  0  0  0  0
 46 49  1  0  0  0  0
 46 55  1  0  0  0  0
 47 50  1  0  0  0  0
 47 55  1  0  0  0  0
 48 70  1  0  0  0  0
 49 71  1  0  0  0  0
 50 71  1  0  0  0  0
 51 54  1  0  0  0  0
 51 70  1  0  0  0  0
 52 74  1  0  0  0  0
 53 69  1  0  0  0  0
 54 68  1  0  0  0  0
 55 83  1  0  0  0  0
 58 65  1  0  0  0  0
 59 66  1  0  0  0  0
 60 66  1  0  0  0  0
 61 66  1  0  0  0  0
 62 76  1  0  0  0  0
 63 84  1  0  0  0  0
 64 66  1  0  0  0  0
 64 75  1  0  0  0  0
 65 76  1  0  0  0  0
 67 68  1  0  0  0  0
M  CHG  1  76   1
M  ISO  4  38 100  63 101  71 100  84 101
M  END
> <Batch ID>
0154

> <Smiles>
CNC(C)C(=O)NC(C(=O)N1Cc2cc([101O:1][101CH2:1]c3cc(C)c(OC4CC[100N:0]([100C:0](=O)N5CCCC(n6nc(-c7ccc(Oc8ccc(F)cc8F)cc7)c(C(N)=O)c6N)C5)CC4)cc3C)ccc2CC1C(=O)NC1CCCc2ccccc21)C(C)(C)C

> <Shape>
0.231

> <Color>
0.076

> <Negative vol penalty>
0.000

$$$$

  -OEChem-04052321513D

 89 98  0     1  0  0  0  0  0999 V2000
  -25.4050  -38.3586   22.2929 C   0  0  0  0  0  0  0  0  0  0  0  0
  -26.0907  -37.4911   21.4487 C   0  0  0  0  0  0  0  0  0  0  0  0
  -24.5357   -9.0828   21.4973 C   0  0  0  0  0  0  0  0  0  0  0  0
  -22.6861  -10.5169   20.8977 C   0  0  0  0  0  0  0  0  0  0  0  0
  -24.8590  -37.8834   23.4846 C   0  0  0  0  0  0  0  0  0  0  0  0
  -26.2318  -36.1481   21.7962 C   0  0  0  0  0  0  0  0  0  0  0  0
  -26.6333  -29.6312   18.8491 C   0  0  0  0  0  0  0  0  0  0  0  0
  -23.6725   -7.9880   21.5415 C   0  0  0  0  0  0  0  0  0  0  0  0
  -21.8229   -9.4222   20.9419 C   0  0  0  0  0  0  0  0  0  0  0  0
  -27.4393  -28.4936   18.8564 C   0  0  0  0  0  0  0  0  0  0  0  0
  -21.8903   -4.8799   22.1638 C   0  0  0  0  0  0  0  0  0  0  0  0
  -22.0033   -4.0063   23.2454 C   0  0  0  0  0  0  0  0  0  0  0  0
  -26.3861  -27.7679   20.9017 C   0  0  0  0  0  0  0  0  0  0  0  0
  -31.1715  -22.5726   19.3829 C   0  0  0  0  0  0  0  0  0  0  0  0
  -31.1637  -24.9793   19.1713 C   0  0  0  0  0  0  0  0  0  0  0  0
  -21.5077   -5.8203   24.7623 C   0  0  0  0  0  0  0  0  0  0  0  0
  -24.0425  -10.3473   21.1754 C   0  0  0  0  0  0  0  0  0  0  0  0
  -25.6572  -11.9468   20.0170 C   0  0  0  0  0  0  0  0  0  0  0  0
  -24.9852  -36.5318   23.8422 C   0  0  0  0  0  0  0  0  0  0  0  0
  -25.7037  -29.8514   19.8756 C   0  0  0  0  0  0  0  0  0  0  0  0
  -25.6882  -35.6547   22.9944 C   0  0  0  0  0  0  0  0  0  0  0  0
  -25.5677  -28.9077   20.9038 C   0  0  0  0  0  0  0  0  0  0  0  0
  -31.8612  -23.7845   19.3496 C   0  0  0  0  0  0  0  0  0  0  0  0
  -29.7842  -22.5554   19.2380 C   0  0  0  0  0  0  0  0  0  0  0  0
  -29.7765  -24.9621   19.0264 C   0  0  0  0  0  0  0  0  0  0  0  0
  -29.0867  -23.7501   19.0597 C   0  0  0  0  0  0  0  0  0  0  0  0
  -22.3161   -8.1577   21.2639 C   0  0  0  0  0  0  0  0  0  0  0  0
  -27.3178  -27.5632   19.8843 C   0  0  0  0  0  0  0  0  0  0  0  0
  -21.5861   -6.2237   22.3815 C   0  0  0  0  0  0  0  0  0  0  0  0
  -21.8120   -4.4765   24.5446 C   0  0  0  0  0  0  0  0  0  0  0  0
  -21.3948   -6.6939   23.6808 C   0  0  0  0  0  0  0  0  0  0  0  0
  -24.9336  -11.4786   21.1301 C   0  0  0  0  0  0  0  0  0  0  0  0
  -26.3475  -13.0361   20.4896 C   0  0  0  0  0  0  0  0  0  0  0  0
  -25.7013  -11.4422   18.6757 C   0  0  0  0  0  0  0  0  0  0  0  0
  -25.3002  -32.0922   22.0937 C   0  0  0  0  0  0  0  0  0  0  0  0
  -22.5620  -30.4584   22.6898 C   0  0  0  0  0  0  0  0  0  0  0  0
  -20.8479  -27.5129   22.5088 C   0  0  0  0  0  0  0  0  0  0  0  0
  -26.1528  -17.8273   23.4722 C   0  0  0  0  0  0  0  0  0  0  0  0
  -24.4190  -36.0746   25.1632 C   0  0  0  0  0  0  0  0  0  0  0  0
  -24.8230  -31.0702   19.8390 C   0  0  0  0  0  0  0  0  0  0  0  0
  -24.5708  -29.0874   22.0184 C   0  0  0  0  0  0  0  0  0  0  0  0
  -24.2894  -34.5579   25.2781 C   0  0  0  0  0  0  0  0  0  0  0  0
  -27.0530  -14.7162   25.2055 C   0  0  0  0  0  0  0  0  0  0  0  0
  -25.5675  -33.8753   24.8014 C   0  0  0  0  0  0  0  0  0  0  0  0
  -26.5921  -13.6368   24.2253 C   0  0  0  0  0  0  0  0  0  0  0  0
  -28.6857  -18.6019   20.9876 C   0  0  0  0  0  0  0  0  0  0  0  0
  -26.1978  -15.9774   25.1093 C   0  0  0  0  0  0  0  0  0  0  0  0
  -27.7818  -17.5085   21.5443 C   0  0  0  0  0  0  0  0  0  0  0  0
  -25.6204  -15.4529   22.7690 C   0  0  0  0  0  0  0  0  0  0  0  0
  -25.8410  -34.1858   23.3248 C   0  0  1  0  0  0  0  0  0  0  0  0
  -24.2698  -31.4491   21.2093 C   0  0  1  0  0  0  0  0  0  0  0  0
  -26.4974  -14.1932   22.7926 C   0  0  2  0  0  0  0  0  0  0  0  0
  -27.6786  -19.6949   20.6674 C   0  0  1  0  0  0  0  0  0  0  0  0
  -26.7070  -19.6471   21.8484 C   0  0  1  0  0  0  0  0  0  0  0  0
  -33.3444  -23.8029   19.5039 C   0  0  0  0  0  0  0  0  0  0  0  0
  -27.5993  -23.7314   18.9048 C   0  0  0  0  0  0  0  0  0  0  0  0
  -18.6439  -26.4761   23.1124 C   0  0  0  0  0  0  0  0  0  0  0  0
  -24.5094  -19.0209   20.7855 C   0  0  0  0  0  0  0  0  0  0  0  0
  -23.4357  -30.3068   25.6094 C   0  0  0  0  0  0  0  0  0  0  0  0
  -21.7375  -28.4992   25.9511 C   0  0  0  0  0  0  0  0  0  0  0  0
  -21.0042  -30.7846   25.2715 C   0  0  0  0  0  0  0  0  0  0  0  0
  -20.2230  -26.9139   19.6787 C   0  0  0  0  0  0  0  0  0  0  0  0
  -29.0662  -21.2387   19.2787 C   0  0  0  0  0  0  0  0  0  0  0  0
  -29.0530  -26.2553   18.8369 C   0  0  0  0  0  0  0  0  0  1  0  0
  -22.1777  -29.3076   23.5882 C   0  0  1  0  0  0  0  0  0  0  0  0
  -19.4417  -27.1933   22.0346 C   0  0  2  0  0  0  0  0  0  0  0  0
  -25.3107  -20.1208   21.4625 C   0  0  1  0  0  0  0  0  0  0  0  0
  -22.1090  -29.7218   25.0852 C   0  0  0  0  0  0  0  0  0  0  0  0
  -25.1448  -12.2105   22.2273 N   0  0  0  0  0  0  0  0  0  0  0  0
  -26.0089  -13.1495   21.8059 N   0  0  0  0  0  0  0  0  0  0  0  0
  -23.7369  -30.2983   21.9416 N   0  0  0  0  0  0  0  0  0  0  0  0
  -26.1111  -16.4502   23.7275 N   0  0  0  0  0  0  0  0  0  0  0  0
  -26.7337  -18.2369   22.2683 N   0  0  0  0  0  0  0  0  0  0  0  0
  -27.2051  -13.8983   19.9035 N   0  0  0  0  0  0  0  0  0  0  0  0
  -24.9305  -10.3150   18.3602 N   0  0  0  0  0  0  0  0  0  0  0  0
  -24.9886  -33.3838   22.4734 N   0  0  0  0  0  0  0  0  0  0  0  0
  -20.9273  -28.7754   23.0574 N   0  0  0  0  0  0  0  0  0  0  0  0
  -28.3377  -21.0094   20.5605 N   0  3  0  0  0  0  0  0  0  0  0  0
  -19.4880  -26.3223   20.8262 N   0  3  0  0  0  0  0  0  0  0  0  0
  -26.4161  -11.9653   17.7875 O   0  0  0  0  0  0  0  0  0  0  0  0
  -26.3031  -31.4627   22.4095 O   0  0  0  0  0  0  0  0  0  0  0  0
  -21.8424  -31.4594   22.6479 O   0  0  0  0  0  0  0  0  0  0  0  0
  -21.7817  -26.7203   22.4064 O   0  0  0  0  0  0  0  0  0  0  0  0
  -25.7235  -18.6493   24.2918 O   0  0  0  0  0  0  0  0  0  0  0  0
  -24.6250  -20.5515   22.6330 O   0  0  0  0  0  0  0  0  0  0  0  0
  -21.4736   -7.0896   21.3067 O   0  0  0  0  0  0  0  0  0  0  0  0
  -28.1193  -26.4303   19.8944 O   0  0  0  0  0  0  0  0  0  1  0  0
  -21.9189   -3.6372   25.5830 F   0  0  0  0  0  0  0  0  0  0  0  0
  -21.1012   -7.9836   23.8961 F   0  0  0  0  0  0  0  0  0  0  0  0
  1  2  1  0  0  0  0
  1  5  2  0  0  0  0
  2  6  2  0  0  0  0
  3  8  2  0  0  0  0
  3 17  1  0  0  0  0
  4  9  1  0  0  0  0
  4 17  2  0  0  0  0
  5 19  1  0  0  0  0
  6 21  1  0  0  0  0
  7 10  2  0  0  0  0
  7 20  1  0  0  0  0
  8 27  1  0  0  0  0
  9 27  2  0  0  0  0
 10 28  1  0  0  0  0
 11 12  2  0  0  0  0
 11 29  1  0  0  0  0
 12 30  1  0  0  0  0
 13 22  1  0  0  0  0
 13 28  2  0  0  0  0
 14 23  1  0  0  0  0
 14 24  2  0  0  0  0
 15 23  2  0  0  0  0
 15 25  1  0  0  0  0
 16 30  2  0  0  0  0
 16 31  1  0  0  0  0
 17 32  1  0  0  0  0
 18 32  1  0  0  0  0
 18 33  2  0  0  0  0
 18 34  1  0  0  0  0
 19 21  2  0  0  0  0
 19 39  1  0  0  0  0
 20 22  2  0  0  0  0
 20 40  1  0  0  0  0
 21 50  1  0  0  0  0
 22 41  1  0  0  0  0
 23 55  1  0  0  0  0
 24 26  1  0  0  0  0
 24 63  1  0  0  0  0
 25 26  2  0  0  0  0
 25 64  1  0  0  0  0
 26 56  1  0  0  0  0
 27 86  1  0  0  0  0
 28 87  1  0  0  0  0
 29 31  2  0  0  0  0
 29 86  1  0  0  0  0
 30 88  1  0  0  0  0
 31 89  1  0  0  0  0
 32 69  2  0  0  0  0
 33 70  1  0  0  0  0
 33 74  1  0  0  0  0
 34 75  1  0  0  0  0
 34 80  2  0  0  0  0
 35 51  1  0  0  0  0
 35 76  1  0  0  0  0
 35 81  2  0  0  0  0
 36 65  1  0  0  0  0
 36 71  1  0  0  0  0
 36 82  2  0  0  0  0
 37 66  1  0  0  0  0
 37 77  1  0  0  0  0
 37 83  2  0  0  0  0
 38 72  1  0  0  0  0
 38 73  1  0  0  0  0
 38 84  2  0  0  0  0
 39 42  1  0  0  0  0
 40 51  1  0  0  0  0
 41 71  1  0  0  0  0
 42 44  1  0  0  0  0
 43 45  1  0  0  0  0
 43 47  1  0  0  0  0
 44 50  1  0  0  0  0
 45 52  1  0  0  0  0
 46 48  1  0  0  0  0
 46 53  1  0  0  0  0
 47 72  1  0  0  0  0
 48 73  1  0  0  0  0
 49 52  1  0  0  0  0
 49 72  1  0  0  0  0
 50 76  1  0  0  0  0
 51 71  1  0  0  0  0
 52 70  1  0  0  0  0
 53 54  1  0  0  0  0
 53 78  1  0  0  0  0
 54 67  1  0  0  0  0
 54 73  1  0  0  0  0
 57 66  1  0  0  0  0
 58 67  1  0  0  0  0
 59 68  1  0  0  0  0
 60 68  1  0  0  0  0
 61 68  1  0  0  0  0
 62 79  1  0  0  0  0
 63 78  1  0  0  0  0
 64 87  1  0  0  0  0
 65 68  1  0  0  0  0
 65 77  1  0  0  0  0
 66 79  1  0  0  0  0
 67 85  1  0  0  0  0
 69 70  1  0  0  0  0
M  CHG  2  78   1  79   1
M  ISO  4  38 100  64 101  73 100  87 101
M  END
> <Batch ID>
0154

> <Smiles>
CNC(C)C(=O)NC(C(=O)N1Cc2cc([101O:1][101CH2:1]c3cc(C)cc(CNC4CC[100N:0]([100C:0](=O)N5CCCC(n6nc(-c7ccc(Oc8ccc(F)cc8F)cc7)c(C(N)=O)c6N)C5)C4C(C)O)c3C)ccc2CC1C(=O)NC1CCCc2ccccc21)C(C)(C)C

> <Shape>
0.351

> <Color>
0.124

> <Negative vol penalty>
0.000

$$$$

  -OEChem-04052321513D

 87 96  0     1  0  0  0  0  0999 V2000
  -26.9015  -38.4035   23.6063 C   0  0  0  0  0  0  0  0  0  0  0  0
  -27.5053  -37.4731   22.7666 C   0  0  0  0  0  0  0  0  0  0  0  0
  -24.2987   -9.2339   22.0466 C   0  0  0  0  0  0  0  0  0  0  0  0
  -24.7327   -8.1499   19.9315 C   0  0  0  0  0  0  0  0  0  0  0  0
  -26.1267  -37.9708   24.6816 C   0  0  0  0  0  0  0  0  0  0  0  0
  -27.3355  -36.1092   23.0024 C   0  0  0  0  0  0  0  0  0  0  0  0
  -26.8227  -29.8645   19.5301 C   0  0  0  0  0  0  0  0  0  0  0  0
  -23.1517   -8.4569   22.2094 C   0  0  0  0  0  0  0  0  0  0  0  0
  -23.5858   -7.3729   20.0943 C   0  0  0  0  0  0  0  0  0  0  0  0
  -27.3828  -28.5878   19.5215 C   0  0  0  0  0  0  0  0  0  0  0  0
  -22.3948   -5.3014   23.1595 C   0  0  0  0  0  0  0  0  0  0  0  0
  -22.1776   -4.7201   24.4086 C   0  0  0  0  0  0  0  0  0  0  0  0
  -25.9576  -27.9567   21.3626 C   0  0  0  0  0  0  0  0  0  0  0  0
  -20.0899   -5.9202   24.6041 C   0  0  0  0  0  0  0  0  0  0  0  0
  -25.0892   -9.0804   20.9076 C   0  0  0  0  0  0  0  0  0  0  0  0
  -27.5789   -9.5728   21.1653 C   0  0  0  0  0  0  0  0  0  0  0  0
  -25.9394  -36.6010   24.9251 C   0  0  0  0  0  0  0  0  0  0  0  0
  -25.8319  -30.2008   20.4637 C   0  0  0  0  0  0  0  0  0  0  0  0
  -26.5585  -35.6578   24.0828 C   0  0  0  0  0  0  0  0  0  0  0  0
  -25.3847  -29.2376   21.3793 C   0  0  0  0  0  0  0  0  0  0  0  0
  -29.7880  -24.3008   20.6135 C   0  0  0  0  0  0  0  0  0  0  0  0
  -28.9573  -24.7063   19.5749 C   0  0  0  0  0  0  0  0  0  0  0  0
  -30.1925  -22.9729   20.6948 C   0  0  0  0  0  0  0  0  0  0  0  0
  -22.7953   -7.5264   21.2333 C   0  0  0  0  0  0  0  0  0  0  0  0
  -26.9523  -27.6346   20.4396 C   0  0  0  0  0  0  0  0  0  0  0  0
  -21.4596   -6.1922   22.6326 C   0  0  0  0  0  0  0  0  0  0  0  0
  -21.0251   -5.0295   25.1310 C   0  0  0  0  0  0  0  0  0  0  0  0
  -20.3072   -6.5016   23.3549 C   0  0  0  0  0  0  0  0  0  0  0  0
  -26.2737   -9.8831   20.7386 C   0  0  0  0  0  0  0  0  0  0  0  0
  -28.5622  -23.7529   18.6505 C   0  0  0  0  0  0  0  0  0  0  0  0
  -29.7418  -22.0970   19.7204 C   0  0  0  0  0  0  0  0  0  0  0  0
  -28.3348  -10.6486   20.7681 C   0  0  0  0  0  0  0  0  0  0  0  0
  -28.0645   -8.4155   21.8585 C   0  0  0  0  0  0  0  0  0  0  0  0
  -25.5976  -32.3207   22.8206 C   0  0  0  0  0  0  0  0  0  0  0  0
  -22.5395  -31.2477   22.9581 C   0  0  0  0  0  0  0  0  0  0  0  0
  -20.3187  -28.7365   22.3187 C   0  0  0  0  0  0  0  0  0  0  0  0
  -29.2502  -15.9102   20.2293 C   0  0  0  0  0  0  0  0  0  0  0  0
  -25.1320  -36.1812   26.1278 C   0  0  0  0  0  0  0  0  0  0  0  0
  -25.2188  -31.5742   20.4426 C   0  0  0  0  0  0  0  0  0  0  0  0
  -24.3094  -29.5421   22.3889 C   0  0  0  0  0  0  0  0  0  0  0  0
  -24.6944  -34.7193   26.0875 C   0  0  0  0  0  0  0  0  0  0  0  0
  -27.2244  -14.5216   17.7214 C   0  0  0  0  0  0  0  0  0  0  0  0
  -25.8639  -33.8226   25.6938 C   0  0  0  0  0  0  0  0  0  0  0  0
  -26.8963  -13.1536   18.3191 C   0  0  0  0  0  0  0  0  0  0  0  0
  -30.6314  -18.8346   18.4161 C   0  0  0  0  0  0  0  0  0  0  0  0
  -28.2609  -19.3555   19.1363 C   0  0  0  0  0  0  0  0  0  0  0  0
  -27.1942  -15.6297   18.7754 C   0  0  0  0  0  0  0  0  0  0  0  0
  -30.7029  -17.7689   19.5087 C   0  0  0  0  0  0  0  0  0  0  0  0
  -28.3878  -18.2812   20.2140 C   0  0  0  0  0  0  0  0  0  0  0  0
  -27.7169  -13.9919   20.5533 C   0  0  0  0  0  0  0  0  0  0  0  0
  -26.3776  -34.1699   24.2913 C   0  0  1  0  0  0  0  0  0  0  0  0
  -24.5816  -31.9646   21.7725 C   0  0  1  0  0  0  0  0  0  0  0  0
  -27.7970  -12.8490   19.5293 C   0  0  1  0  0  0  0  0  0  0  0  0
  -29.6173  -19.9348   18.7308 C   0  0  0  0  0  0  0  0  0  0  0  0
  -30.2449  -25.2884   21.6395 C   0  0  0  0  0  0  0  0  0  0  0  0
  -31.0832  -22.5020   21.7948 C   0  0  0  0  0  0  0  0  0  0  0  0
  -27.6705  -24.1291   17.5127 C   0  0  0  0  0  0  0  0  0  0  0  0
  -17.8959  -28.1361   22.5774 C   0  0  0  0  0  0  0  0  0  0  0  0
  -22.9897  -30.7219   25.9297 C   0  0  0  0  0  0  0  0  0  0  0  0
  -20.9411  -29.2827   25.9142 C   0  0  0  0  0  0  0  0  0  0  0  0
  -20.7616  -31.7108   25.3712 C   0  0  0  0  0  0  0  0  0  0  0  0
  -19.9520  -28.4724   19.3938 C   0  0  0  0  0  0  0  0  0  0  0  0
  -28.5063  -26.1240   19.4603 C   0  0  0  0  0  0  0  0  0  1  0  0
  -21.8267  -30.1421   23.6987 C   0  0  1  0  0  0  0  0  0  0  0  0
  -18.9487  -28.7456   21.6648 C   0  0  2  0  0  0  0  0  0  0  0  0
  -21.6514  -30.4589   25.2108 C   0  0  0  0  0  0  0  0  0  0  0  0
  -26.2011  -11.0637   20.1181 N   0  0  0  0  0  0  0  0  0  0  0  0
  -28.9343  -22.4540   18.6966 N   0  0  0  0  0  0  0  0  0  0  0  0
  -27.4701  -11.5047   20.1520 N   0  0  0  0  0  0  0  0  0  0  0  0
  -23.7454  -30.9009   22.3324 N   0  0  0  0  0  0  0  0  0  0  0  0
  -28.0359  -15.2762   19.9263 N   0  0  0  0  0  0  0  0  0  0  0  0
  -29.3757  -17.2570   19.8487 N   0  0  0  0  0  0  0  0  0  0  0  0
  -29.6482  -10.9363   20.8894 N   0  0  0  0  0  0  0  0  0  0  0  0
  -27.1529   -7.4041   22.1906 N   0  0  0  0  0  0  0  0  0  0  0  0
  -25.4995  -33.6199   23.2810 N   0  0  0  0  0  0  0  0  0  0  0  0
  -20.5737  -29.9155   22.9866 N   0  0  0  0  0  0  0  0  0  0  0  0
  -18.9761  -27.9679   20.3939 N   0  3  0  0  0  0  0  0  0  0  0  0
  -29.2682   -8.2898   22.1886 O   0  0  0  0  0  0  0  0  0  0  0  0
  -26.4095  -31.4786   23.1858 O   0  0  0  0  0  0  0  0  0  0  0  0
  -22.0410  -32.3757   22.9294 O   0  0  0  0  0  0  0  0  0  0  0  0
  -21.0845  -27.7778   22.2473 O   0  0  0  0  0  0  0  0  0  0  0  0
  -30.1691  -15.3110   20.8016 O   0  0  0  0  0  0  0  0  0  0  0  0
  -21.6764   -6.7680   21.3920 O   0  0  0  0  0  0  0  0  0  0  0  0
  -27.5016  -26.3791   20.4338 O   0  0  0  0  0  0  0  0  0  1  0  0
  -30.1173  -20.7802   19.7646 O   0  0  0  0  0  0  0  0  0  0  0  0
  -20.8159   -4.4699   26.3299 F   0  0  0  0  0  0  0  0  0  0  0  0
  -19.4045   -7.3558   22.8535 F   0  0  0  0  0  0  0  0  0  0  0  0
  1  2  1  0  0  0  0
  1  5  2  0  0  0  0
  2  6  2  0  0  0  0
  3  8  2  0  0  0  0
  3 15  1  0  0  0  0
  4  9  1  0  0  0  0
  4 15  2  0  0  0  0
  5 17  1  0  0  0  0
  6 19  1  0  0  0  0
  7 10  2  0  0  0  0
  7 18  1  0  0  0  0
  8 24  1  0  0  0  0
  9 24  2  0  0  0  0
 10 25  1  0  0  0  0
 11 12  2  0  0  0  0
 11 26  1  0  0  0  0
 12 27  1  0  0  0  0
 13 20  1  0  0  0  0
 13 25  2  0  0  0  0
 14 27  2  0  0  0  0
 14 28  1  0  0  0  0
 15 29  1  0  0  0  0
 16 29  1  0  0  0  0
 16 32  2  0  0  0  0
 16 33  1  0  0  0  0
 17 19  2  0  0  0  0
 17 38  1  0  0  0  0
 18 20  2  0  0  0  0
 18 39  1  0  0  0  0
 19 51  1  0  0  0  0
 20 40  1  0  0  0  0
 21 22  2  0  0  0  0
 21 23  1  0  0  0  0
 21 55  1  0  0  0  0
 22 30  1  0  0  0  0
 22 63  1  0  0  0  0
 23 31  2  0  0  0  0
 23 56  1  0  0  0  0
 24 83  1  0  0  0  0
 25 84  1  0  0  0  0
 26 28  2  0  0  0  0
 26 83  1  0  0  0  0
 27 86  1  0  0  0  0
 28 87  1  0  0  0  0
 29 67  2  0  0  0  0
 30 57  1  0  0  0  0
 30 68  2  0  0  0  0
 31 68  1  0  0  0  0
 31 85  1  0  0  0  0
 32 69  1  0  0  0  0
 32 73  1  0  0  0  0
 33 74  1  0  0  0  0
 33 78  2  0  0  0  0
 34 52  1  0  0  0  0
 34 75  1  0  0  0  0
 34 79  2  0  0  0  0
 35 64  1  0  0  0  0
 35 70  1  0  0  0  0
 35 80  2  0  0  0  0
 36 65  1  0  0  0  0
 36 76  1  0  0  0  0
 36 81  2  0  0  0  0
 37 71  1  0  0  0  0
 37 72  1  0  0  0  0
 37 82  2  0  0  0  0
 38 41  1  0  0  0  0
 39 52  1  0  0  0  0
 40 70  1  0  0  0  0
 41 43  1  0  0  0  0
 42 44  1  0  0  0  0
 42 47  1  0  0  0  0
 43 51  1  0  0  0  0
 44 53  1  0  0  0  0
 45 48  1  0  0  0  0
 45 54  1  0  0  0  0
 46 49  1  0  0  0  0
 46 54  1  0  0  0  0
 47 71  1  0  0  0  0
 48 72  1  0  0  0  0
 49 72  1  0  0  0  0
 50 53  1  0  0  0  0
 50 71  1  0  0  0  0
 51 75  1  0  0  0  0
 52 70  1  0  0  0  0
 53 69  1  0  0  0  0
 54 85  1  0  0  0  0
 58 65  1  0  0  0  0
 59 66  1  0  0  0  0
 60 66  1  0  0  0  0
 61 66  1  0  0  0  0
 62 77  1  0  0  0  0
 63 84  1  0  0  0  0
 64 66  1  0  0  0  0
 64 76  1  0  0  0  0
 65 77  1  0  0  0  0
 67 69  1  0  0  0  0
M  CHG  1  77   1
M  ISO  4  37 100  63 101  72 100  84 101
M  END
> <Batch ID>
0154

> <Smiles>
CNC(C)C(=O)NC(C(=O)N1Cc2cc([101O:1][101CH2:1]c3c(C)nc(OC4CC[100N:0]([100C:0](=O)N5CCCC(n6nc(-c7ccc(Oc8ccc(F)cc8F)cc7)c(C(N)=O)c6N)C5)CC4)c(C)c3C)ccc2CC1C(=O)NC1CCCc2ccccc21)C(C)(C)C

> <Shape>
0.340

> <Color>
0.116

> <Negative vol penalty>
0.000

$$$$

  -OEChem-04052321513D

 90100  0     1  0  0  0  0  0999 V2000
  -22.8978  -32.0375   23.9542 C   0  0  0  0  0  0  0  0  0  0  0  0
  -22.1090  -30.9902   23.4890 C   0  0  0  0  0  0  0  0  0  0  0  0
  -28.5924  -13.0438   21.4512 C   0  0  0  0  0  0  0  0  0  0  0  0
  -27.9983  -13.3999   19.1366 C   0  0  0  0  0  0  0  0  0  0  0  0
  -24.0708  -32.3774   23.2815 C   0  0  0  0  0  0  0  0  0  0  0  0
  -22.4922  -30.2828   22.3501 C   0  0  0  0  0  0  0  0  0  0  0  0
  -21.6508  -24.3142   21.2669 C   0  0  0  0  0  0  0  0  0  0  0  0
  -29.9246  -13.3301   21.1533 C   0  0  0  0  0  0  0  0  0  0  0  0
  -29.3306  -13.6863   18.8387 C   0  0  0  0  0  0  0  0  0  0  0  0
  -20.6894  -23.6205   20.5332 C   0  0  0  0  0  0  0  0  0  0  0  0
  -32.5149  -14.8638   17.5381 C   0  0  0  0  0  0  0  0  0  0  0  0
  -32.7761  -15.9697   16.7292 C   0  0  0  0  0  0  0  0  0  0  0  0
  -22.1818  -23.5680   18.6387 C   0  0  0  0  0  0  0  0  0  0  0  0
  -17.6701  -16.8814   18.4557 C   0  0  0  0  0  0  0  0  0  0  0  0
  -31.7105  -17.4081   18.3517 C   0  0  0  0  0  0  0  0  0  0  0  0
  -27.6292  -13.0786   20.4428 C   0  0  0  0  0  0  0  0  0  0  0  0
  -25.2552  -13.6930   21.1458 C   0  0  0  0  0  0  0  0  0  0  0  0
  -24.4736  -31.6675   22.1393 C   0  0  0  0  0  0  0  0  0  0  0  0
  -22.8828  -24.6502   20.6874 C   0  0  0  0  0  0  0  0  0  0  0  0
  -23.6710  -30.6143   21.6607 C   0  0  0  0  0  0  0  0  0  0  0  0
  -23.1581  -24.2638   19.3680 C   0  0  0  0  0  0  0  0  0  0  0  0
  -18.6974  -19.0462   18.1476 C   0  0  0  0  0  0  0  0  0  0  0  0
  -17.5900  -18.2733   18.4967 C   0  0  0  0  0  0  0  0  0  0  0  0
  -19.8851  -18.4271   17.7577 C   0  0  0  0  0  0  0  0  0  0  0  0
  -19.9652  -17.0352   17.7168 C   0  0  0  0  0  0  0  0  0  0  0  0
  -30.2937  -13.6515   19.8471 C   0  0  0  0  0  0  0  0  0  0  0  0
  -20.9538  -23.2498   19.2180 C   0  0  0  0  0  0  0  0  0  0  0  0
  -31.8515  -15.0300   18.7538 C   0  0  0  0  0  0  0  0  0  0  0  0
  -18.8577  -16.2623   18.0658 C   0  0  0  0  0  0  0  0  0  0  0  0
  -32.3739  -17.2418   17.1360 C   0  0  0  0  0  0  0  0  0  0  0  0
  -31.4492  -16.3022   19.1606 C   0  0  0  0  0  0  0  0  0  0  0  0
  -26.2530  -12.7823   20.7498 C   0  0  0  0  0  0  0  0  0  0  0  0
  -24.1323  -12.9203   21.3142 C   0  0  0  0  0  0  0  0  0  0  0  0
  -25.3362  -15.1108   21.3436 C   0  0  0  0  0  0  0  0  0  0  0  0
  -24.3871  -27.3736   20.0366 C   0  0  0  0  0  0  0  0  0  0  0  0
  -26.8118  -25.3836   19.2102 C   0  0  0  0  0  0  0  0  0  0  0  0
  -27.7900  -22.2803   18.1807 C   0  0  0  0  0  0  0  0  0  0  0  0
  -20.7082   -8.9295   19.7910 C   0  0  0  0  0  0  0  0  0  0  0  0
  -25.7250  -32.1021   21.4184 C   0  0  0  0  0  0  0  0  0  0  0  0
  -23.9195  -25.3754   21.5009 C   0  0  0  0  0  0  0  0  0  0  0  0
  -24.4730  -24.5827   18.7063 C   0  0  0  0  0  0  0  0  0  0  0  0
  -26.2548  -31.0606   20.4360 C   0  0  0  0  0  0  0  0  0  0  0  0
  -23.5628   -7.9027   21.4497 C   0  0  0  0  0  0  0  0  0  0  0  0
  -25.1199  -30.5097   19.5785 C   0  0  0  0  0  0  0  0  0  0  0  0
  -24.4466   -9.1499   21.4569 C   0  0  0  0  0  0  0  0  0  0  0  0
  -18.5619  -11.9096   20.2801 C   0  0  0  0  0  0  0  0  0  0  0  0
  -20.1672  -12.3594   18.3907 C   0  0  0  0  0  0  0  0  0  0  0  0
  -18.1765  -21.2037   19.4705 C   0  0  0  0  0  0  0  0  0  0  0  0
  -22.8577   -7.7411   20.1078 C   0  0  0  0  0  0  0  0  0  0  0  0
  -18.7539  -10.4114   20.0618 C   0  0  0  0  0  0  0  0  0  0  0  0
  -20.3245  -10.8538   18.2045 C   0  0  0  0  0  0  0  0  0  0  0  0
  -22.9109  -10.1815   19.7117 C   0  0  0  0  0  0  0  0  0  0  0  0
  -18.6089  -20.5389   18.1923 C   0  0  1  0  0  0  0  0  0  0  0  0
  -24.0661  -29.8072   20.4431 C   0  0  1  0  0  0  0  0  0  0  0  0
  -24.9413  -26.1157   20.6435 C   0  0  1  0  0  0  0  0  0  0  0  0
  -18.7975  -12.7058   18.9901 C   0  0  0  0  0  0  0  0  0  0  0  0
  -23.6436  -10.3985   21.0510 C   0  0  2  0  0  0  0  0  0  0  0  0
  -19.6044  -21.3007   19.0276 C   0  0  1  0  0  0  0  0  0  1  0  0
  -16.3056  -18.9093   18.9181 C   0  0  0  0  0  0  0  0  0  0  0  0
  -21.0746  -19.2540   17.3827 C   0  0  0  0  0  0  0  0  0  0  0  0
  -21.2348  -16.3632   17.3002 C   0  0  0  0  0  0  0  0  0  0  0  0
  -29.8337  -20.9664   17.5529 C   0  0  0  0  0  0  0  0  0  0  0  0
  -26.9012  -26.8142   16.5166 C   0  0  0  0  0  0  0  0  0  0  0  0
  -28.2460  -24.9006   15.6234 C   0  0  0  0  0  0  0  0  0  0  0  0
  -29.1426  -26.2876   17.4930 C   0  0  0  0  0  0  0  0  0  0  0  0
  -27.3563  -20.3382   20.3714 C   0  0  0  0  0  0  0  0  0  0  0  0
  -18.6812  -14.2062   19.2478 C   0  0  0  0  0  0  0  0  0  0  0  0
  -27.2374  -24.6868   17.9404 C   0  0  1  0  0  0  0  0  0  0  0  0
  -28.8849  -21.3532   18.6767 C   0  0  2  0  0  0  0  0  0  0  0  0
  -27.8562  -25.6678   16.9049 C   0  0  0  0  0  0  0  0  0  0  0  0
  -25.8035  -11.5269   20.6714 N   0  0  0  0  0  0  0  0  0  0  0  0
  -24.5110  -11.6434   21.0207 N   0  0  0  0  0  0  0  0  0  0  0  0
  -25.4520  -25.2987   19.5409 N   0  0  0  0  0  0  0  0  0  0  0  0
  -22.1107   -8.9486   19.7562 N   0  0  0  0  0  0  0  0  0  0  0  0
  -20.0489  -10.1215   19.4478 N   0  0  0  0  0  0  0  0  0  0  0  0
  -22.8678  -13.2153   21.6834 N   0  0  0  0  0  0  0  0  0  0  0  0
  -26.5663  -15.7465   21.1265 N   0  0  0  0  0  0  0  0  0  0  0  0
  -24.5281  -28.4928   20.8346 N   0  0  0  0  0  0  0  0  0  0  0  0
  -28.1295  -23.6063   18.3469 N   0  0  0  0  0  0  0  0  0  0  0  0
  -28.2926  -20.1076   19.2413 N   0  3  0  0  0  0  0  0  0  0  0  0
  -24.3512  -15.7912   21.7182 O   0  0  0  0  0  0  0  0  0  0  0  0
  -23.8712  -27.3321   18.9258 O   0  0  0  0  0  0  0  0  0  0  0  0
  -27.6562  -25.9752   19.8875 O   0  0  0  0  0  0  0  0  0  0  0  0
  -26.7402  -21.8693   17.6912 O   0  0  0  0  0  0  0  0  0  0  0  0
  -20.0809   -7.9127   20.1131 O   0  0  0  0  0  0  0  0  0  0  0  0
  -31.5936  -13.9312   19.5562 O   0  0  0  0  0  0  0  0  0  0  0  0
  -20.0149  -22.5717   18.4979 O   0  0  0  0  0  0  0  0  0  1  0  0
  -18.9174  -14.8908   18.0316 O   0  0  0  0  0  0  0  0  0  0  0  0
  -32.6261  -18.3039   16.3598 F   0  0  0  0  0  0  0  0  0  0  0  0
  -30.8125  -16.4683   20.3280 F   0  0  0  0  0  0  0  0  0  0  0  0
  1  2  1  0  0  0  0
  1  5  2  0  0  0  0
  2  6  2  0  0  0  0
  3  8  2  0  0  0  0
  3 16  1  0  0  0  0
  4  9  1  0  0  0  0
  4 16  2  0  0  0  0
  5 18  1  0  0  0  0
  6 20  1  0  0  0  0
  7 10  2  0  0  0  0
  7 19  1  0  0  0  0
  8 26  1  0  0  0  0
  9 26  2  0  0  0  0
 10 27  1  0  0  0  0
 11 12  2  0  0  0  0
 11 28  1  0  0  0  0
 12 30  1  0  0  0  0
 13 21  1  0  0  0  0
 13 27  2  0  0  0  0
 14 23  2  0  0  0  0
 14 29  1  0  0  0  0
 15 30  2  0  0  0  0
 15 31  1  0  0  0  0
 16 32  1  0  0  0  0
 17 32  1  0  0  0  0
 17 33  2  0  0  0  0
 17 34  1  0  0  0  0
 18 20  2  0  0  0  0
 18 39  1  0  0  0  0
 19 21  2  0  0  0  0
 19 40  1  0  0  0  0
 20 54  1  0  0  0  0
 21 41  1  0  0  0  0
 22 23  1  0  0  0  0
 22 24  2  0  0  0  0
 22 53  1  0  0  0  0
 23 59  1  0  0  0  0
 24 25  1  0  0  0  0
 24 60  1  0  0  0  0
 25 29  2  0  0  0  0
 25 61  1  0  0  0  0
 26 86  1  0  0  0  0
 27 87  1  0  0  0  0
 28 31  2  0  0  0  0
 28 86  1  0  0  0  0
 29 88  1  0  0  0  0
 30 89  1  0  0  0  0
 31 90  1  0  0  0  0
 32 71  2  0  0  0  0
 33 72  1  0  0  0  0
 33 76  1  0  0  0  0
 34 77  1  0  0  0  0
 34 81  2  0  0  0  0
 35 55  1  0  0  0  0
 35 78  1  0  0  0  0
 35 82  2  0  0  0  0
 36 68  1  0  0  0  0
 36 73  1  0  0  0  0
 36 83  2  0  0  0  0
 37 69  1  0  0  0  0
 37 79  1  0  0  0  0
 37 84  2  0  0  0  0
 38 74  1  0  0  0  0
 38 75  1  0  0  0  0
 38 85  2  0  0  0  0
 39 42  1  0  0  0  0
 40 55  1  0  0  0  0
 41 73  1  0  0  0  0
 42 44  1  0  0  0  0
 43 45  1  0  0  0  0
 43 49  1  0  0  0  0
 44 54  1  0  0  0  0
 45 57  1  0  0  0  0
 46 50  1  0  0  0  0
 46 56  1  0  0  0  0
 47 51  1  0  0  0  0
 47 56  1  0  0  0  0
 48 53  1  0  0  0  0
 48 58  1  0  0  0  0
 49 74  1  0  0  0  0
 50 75  1  0  0  0  0
 51 75  1  0  0  0  0
 52 57  1  0  0  0  0
 52 74  1  0  0  0  0
 53 58  1  0  0  0  0
 54 78  1  0  0  0  0
 55 73  1  0  0  0  0
 56 67  1  0  0  0  0
 57 72  1  0  0  0  0
 58 87  1  0  0  0  0
 62 69  1  0  0  0  0
 63 70  1  0  0  0  0
 64 70  1  0  0  0  0
 65 70  1  0  0  0  0
 66 80  1  0  0  0  0
 67 88  1  0  0  0  0
 68 70  1  0  0  0  0
 68 79  1  0  0  0  0
 69 80  1  0  0  0  0
 71 72  1  0  0  0  0
M  CHG  1  80   1
M  ISO  4  38 100  58 101  75 100  87 101
M  END
> <Batch ID>
0154

> <Smiles>
CNC(C)C(=O)NC(C(=O)N1Cc2cc([101O:1][101CH:1]3CC3c3c(C)cc(OCC4CC[100N:0]([100C:0](=O)N5CCCC(n6nc(-c7ccc(Oc8ccc(F)cc8F)cc7)c(C(N)=O)c6N)C5)CC4)c(C)c3C)ccc2CC1C(=O)NC1CCCc2ccccc21)C(C)(C)C

> <Shape>
0.213

> <Color>
0.097

> <Negative vol penalty>
0.000

$$$$

  -OEChem-04052321513D

 85 93  0     1  0  0  0  0  0999 V2000
  -29.9904  -23.8865   15.1638 C   0  0  0  0  0  0  0  0  0  0  0  0
  -28.6728  -23.9779   15.6009 C   0  0  0  0  0  0  0  0  0  0  0  0
  -25.7387  -14.5589   19.3196 C   0  0  0  0  0  0  0  0  0  0  0  0
  -24.3362  -14.4798   21.2853 C   0  0  0  0  0  0  0  0  0  0  0  0
  -31.0371  -24.1119   16.0568 C   0  0  0  0  0  0  0  0  0  0  0  0
  -28.4012  -24.2936   16.9317 C   0  0  0  0  0  0  0  0  0  0  0  0
  -23.7013  -27.6028   19.0450 C   0  0  0  0  0  0  0  0  0  0  0  0
  -20.5750  -24.6272   23.9455 C   0  0  0  0  0  0  0  0  0  0  0  0
  -25.9839  -13.1911   19.4394 C   0  0  0  0  0  0  0  0  0  0  0  0
  -24.5814  -13.1119   21.4051 C   0  0  0  0  0  0  0  0  0  0  0  0
  -22.4745  -27.2417   19.6002 C   0  0  0  0  0  0  0  0  0  0  0  0
  -21.3948  -23.8892   24.7992 C   0  0  0  0  0  0  0  0  0  0  0  0
  -23.4952  -10.2530   19.9672 C   0  0  0  0  0  0  0  0  0  0  0  0
  -22.4065   -9.4216   20.2304 C   0  0  0  0  0  0  0  0  0  0  0  0
  -23.4080  -27.4913   21.8105 C   0  0  0  0  0  0  0  0  0  0  0  0
  -23.4561   -8.6968   22.2822 C   0  0  0  0  0  0  0  0  0  0  0  0
  -24.9149  -15.2033   20.2426 C   0  0  0  0  0  0  0  0  0  0  0  0
  -23.6202  -17.2342   19.4017 C   0  0  0  0  0  0  0  0  0  0  0  0
  -30.7782  -24.4401   17.3969 C   0  0  0  0  0  0  0  0  0  0  0  0
  -24.7957  -27.9008   19.8697 C   0  0  0  0  0  0  0  0  0  0  0  0
  -29.4455  -24.5223   17.8438 C   0  0  0  0  0  0  0  0  0  0  0  0
  -24.6470  -27.8584   21.2633 C   0  0  0  0  0  0  0  0  0  0  0  0
  -20.4103  -24.2281   22.6191 C   0  0  0  0  0  0  0  0  0  0  0  0
  -21.0655  -23.0911   22.1464 C   0  0  0  0  0  0  0  0  0  0  0  0
  -25.4052  -12.4675   20.4822 C   0  0  0  0  0  0  0  0  0  0  0  0
  -22.3285  -27.1831   20.9830 C   0  0  0  0  0  0  0  0  0  0  0  0
  -22.0501  -22.7522   24.3265 C   0  0  0  0  0  0  0  0  0  0  0  0
  -24.5644  -10.3062   20.8616 C   0  0  0  0  0  0  0  0  0  0  0  0
  -21.8855  -22.3531   23.0001 C   0  0  0  0  0  0  0  0  0  0  0  0
  -22.3870   -8.6435   21.3879 C   0  0  0  0  0  0  0  0  0  0  0  0
  -24.5448   -9.5281   22.0191 C   0  0  0  0  0  0  0  0  0  0  0  0
  -24.6617  -16.6164   20.1196 C   0  0  0  0  0  0  0  0  0  0  0  0
  -23.8182  -18.5790   19.5982 C   0  0  0  0  0  0  0  0  0  0  0  0
  -22.5677  -16.6450   18.6265 C   0  0  0  0  0  0  0  0  0  0  0  0
  -27.6869  -26.6517   20.2986 C   0  0  0  0  0  0  0  0  0  0  0  0
  -28.0851  -29.2253   22.2326 C   0  0  0  0  0  0  0  0  0  0  0  0
  -26.6541  -31.6339   24.1814 C   0  0  0  0  0  0  0  0  0  0  0  0
  -26.5200  -21.7130   23.9260 C   0  0  0  0  0  0  0  0  0  0  0  0
  -31.9429  -24.6285   18.3363 C   0  0  0  0  0  0  0  0  0  0  0  0
  -26.1049  -28.3146   19.2556 C   0  0  0  0  0  0  0  0  0  0  0  0
  -25.7852  -28.1887   22.1927 C   0  0  0  0  0  0  0  0  0  0  0  0
  -31.5666  -25.3262   19.6409 C   0  0  0  0  0  0  0  0  0  0  0  0
  -27.2813  -21.7689   20.4483 C   0  0  0  0  0  0  0  0  0  0  0  0
  -30.2987  -24.7137   20.2274 C   0  0  0  0  0  0  0  0  0  0  0  0
  -26.6023  -20.5105   19.9050 C   0  0  0  0  0  0  0  0  0  0  0  0
  -27.8541  -21.5425   21.8457 C   0  0  0  0  0  0  0  0  0  0  0  0
  -26.2126  -19.7584   22.2885 C   0  0  0  0  0  0  0  0  0  0  0  0
  -29.1103  -24.8868   19.2738 C   0  0  1  0  0  0  0  0  0  0  0  0
  -27.2955  -28.0979   20.1844 C   0  0  1  0  0  0  0  0  0  0  0  0
  -25.5704  -19.9541   20.9044 C   0  0  2  0  0  0  0  0  0  0  0  0
  -20.8916  -22.6594   20.7251 C   0  0  0  0  0  0  0  0  0  0  0  0
  -27.2382  -33.5716   25.6651 C   0  0  0  0  0  0  0  0  0  0  0  0
  -28.9205  -27.2847   24.4340 C   0  0  0  0  0  0  0  0  0  0  0  0
  -28.5676  -29.1252   26.0942 C   0  0  0  0  0  0  0  0  0  0  0  0
  -30.2915  -29.3726   24.3082 C   0  0  0  0  0  0  0  0  0  0  0  0
  -25.1859  -33.5431   22.4615 C   0  0  0  0  0  0  0  0  0  0  0  0
  -21.8399  -19.9990   22.6654 C   0  0  0  0  0  0  0  0  0  0  0  0
  -19.5177  -25.0443   21.7160 C   0  0  0  0  0  0  0  0  0  0  0  0
  -25.0996  -21.7525   25.9607 C   0  0  0  0  0  0  0  0  0  0  0  0
  -20.3119  -25.9403   20.7718 C   0  0  0  0  0  0  0  0  0  1  0  0
  -23.9556  -22.7280   25.7492 C   0  0  0  0  0  0  0  0  0  0  0  0
  -27.8427  -29.5114   23.6949 C   0  0  1  0  0  0  0  0  0  0  0  0
  -26.8760  -33.1338   24.2545 C   0  0  2  0  0  0  0  0  0  0  0  0
  -28.8845  -28.8153   24.6156 C   0  0  0  0  0  0  0  0  0  0  0  0
  -25.4621  -17.4966   20.7268 N   0  0  0  0  0  0  0  0  0  0  0  0
  -24.9235  -18.6811   20.3907 N   0  0  0  0  0  0  0  0  0  0  0  0
  -27.0471  -28.5816   21.5440 N   0  0  0  0  0  0  0  0  0  0  0  0
  -26.8245  -21.0161   22.7450 N   0  0  0  0  0  0  0  0  0  0  0  0
  -23.1531  -19.6724   19.1685 N   0  0  0  0  0  0  0  0  0  0  0  0
  -22.5113  -15.2480   18.5291 N   0  0  0  0  0  0  0  0  0  0  0  0
  -28.5978  -26.2384   19.3452 N   0  0  0  0  0  0  0  0  0  0  0  0
  -27.8056  -30.9639   23.8260 N   0  0  0  0  0  0  0  0  0  0  0  0
  -25.5278  -21.1489   24.7185 N   0  0  0  0  0  0  0  0  0  0  0  0
  -25.6431  -33.8607   23.8388 N   0  3  0  0  0  0  0  0  0  0  0  0
  -21.7126  -17.3374   18.0242 O   0  0  0  0  0  0  0  0  0  0  0  0
  -27.1998  -25.9622   21.1869 O   0  0  0  0  0  0  0  0  0  0  0  0
  -29.1530  -29.5670   21.7184 O   0  0  0  0  0  0  0  0  0  0  0  0
  -25.5687  -31.1087   24.4197 O   0  0  0  0  0  0  0  0  0  0  0  0
  -27.0864  -22.7632   24.2474 O   0  0  0  0  0  0  0  0  0  0  0  0
  -25.6441  -11.1327   20.5993 O   0  0  0  0  0  0  0  0  0  0  0  0
  -22.5294  -21.2407   22.5438 O   0  0  0  0  0  0  0  0  0  0  0  0
  -21.1323  -26.8303   21.5275 O   0  0  0  0  0  0  0  0  0  1  0  0
  -22.8477  -22.0407   25.1713 O   0  0  0  0  0  0  0  0  0  0  0  0
  -21.3408   -7.8464   21.6412 F   0  0  0  0  0  0  0  0  0  0  0  0
  -25.5684   -9.5759   22.8826 F   0  0  0  0  0  0  0  0  0  0  0  0
  1  2  1  0  0  0  0
  1  5  2  0  0  0  0
  2  6  2  0  0  0  0
  3  9  2  0  0  0  0
  3 17  1  0  0  0  0
  4 10  1  0  0  0  0
  4 17  2  0  0  0  0
  5 19  1  0  0  0  0
  6 21  1  0  0  0  0
  7 11  2  0  0  0  0
  7 20  1  0  0  0  0
  8 12  2  0  0  0  0
  8 23  1  0  0  0  0
  9 25  1  0  0  0  0
 10 25  2  0  0  0  0
 11 26  1  0  0  0  0
 12 27  1  0  0  0  0
 13 14  2  0  0  0  0
 13 28  1  0  0  0  0
 14 30  1  0  0  0  0
 15 22  1  0  0  0  0
 15 26  2  0  0  0  0
 16 30  2  0  0  0  0
 16 31  1  0  0  0  0
 17 32  1  0  0  0  0
 18 32  1  0  0  0  0
 18 33  2  0  0  0  0
 18 34  1  0  0  0  0
 19 21  2  0  0  0  0
 19 39  1  0  0  0  0
 20 22  2  0  0  0  0
 20 40  1  0  0  0  0
 21 48  1  0  0  0  0
 22 41  1  0  0  0  0
 23 24  2  0  0  0  0
 23 58  1  0  0  0  0
 24 29  1  0  0  0  0
 24 51  1  0  0  0  0
 25 80  1  0  0  0  0
 26 82  1  0  0  0  0
 27 29  2  0  0  0  0
 27 83  1  0  0  0  0
 28 31  2  0  0  0  0
 28 80  1  0  0  0  0
 29 81  1  0  0  0  0
 30 84  1  0  0  0  0
 31 85  1  0  0  0  0
 32 65  2  0  0  0  0
 33 66  1  0  0  0  0
 33 69  1  0  0  0  0
 34 70  1  0  0  0  0
 34 75  2  0  0  0  0
 35 49  1  0  0  0  0
 35 71  1  0  0  0  0
 35 76  2  0  0  0  0
 36 62  1  0  0  0  0
 36 67  1  0  0  0  0
 36 77  2  0  0  0  0
 37 63  1  0  0  0  0
 37 72  1  0  0  0  0
 37 78  2  0  0  0  0
 38 68  1  0  0  0  0
 38 73  1  0  0  0  0
 38 79  2  0  0  0  0
 39 42  1  0  0  0  0
 40 49  1  0  0  0  0
 41 67  1  0  0  0  0
 42 44  1  0  0  0  0
 43 45  1  0  0  0  0
 43 46  1  0  0  0  0
 44 48  1  0  0  0  0
 45 50  1  0  0  0  0
 46 68  1  0  0  0  0
 47 50  1  0  0  0  0
 47 68  1  0  0  0  0
 48 71  1  0  0  0  0
 49 67  1  0  0  0  0
 50 66  1  0  0  0  0
 52 63  1  0  0  0  0
 53 64  1  0  0  0  0
 54 64  1  0  0  0  0
 55 64  1  0  0  0  0
 56 74  1  0  0  0  0
 57 81  1  0  0  0  0
 58 60  1  0  0  0  0
 59 61  1  0  0  0  0
 59 73  1  0  0  0  0
 60 82  1  0  0  0  0
 61 83  1  0  0  0  0
 62 64  1  0  0  0  0
 62 72  1  0  0  0  0
 63 74  1  0  0  0  0
 65 66  1  0  0  0  0
M  CHG  1  74   1
M  ISO  4  38 100  60 101  73 100  82 101
M  END
> <Batch ID>
0154

> <Smiles>
CNC(C)C(=O)NC(C(=O)N1Cc2cc([101O:1][101CH2:1]Cc3ccc(OCC[100NH:0][100C:0](=O)N4CCCC(n5nc(-c6ccc(Oc7ccc(F)cc7F)cc6)c(C(N)=O)c5N)C4)c(OC)c3C)ccc2CC1C(=O)NC1CCCc2ccccc21)C(C)(C)C

> <Shape>
0.224

> <Color>
0.064

> <Negative vol penalty>
0.000

$$$$

  -OEChem-04052321513D

 89 98  0     1  0  0  0  0  0999 V2000
  -15.7285  -27.3902   22.1709 C   0  0  0  0  0  0  0  0  0  0  0  0
  -16.0569  -26.6717   21.0258 C   0  0  0  0  0  0  0  0  0  0  0  0
  -30.1463  -25.7166   17.3970 C   0  0  0  0  0  0  0  0  0  0  0  0
  -30.0090  -25.7630   19.8086 C   0  0  0  0  0  0  0  0  0  0  0  0
  -16.7261  -27.7534   23.0747 C   0  0  0  0  0  0  0  0  0  0  0  0
  -17.3835  -26.3169   20.7833 C   0  0  0  0  0  0  0  0  0  0  0  0
  -19.2974  -19.4131   20.0309 C   0  0  0  0  0  0  0  0  0  0  0  0
  -29.3993  -26.8928   17.3318 C   0  0  0  0  0  0  0  0  0  0  0  0
  -29.2620  -26.9392   19.7435 C   0  0  0  0  0  0  0  0  0  0  0  0
  -19.7077  -18.1307   19.6660 C   0  0  0  0  0  0  0  0  0  0  0  0
  -27.0132  -29.7577   20.2000 C   0  0  0  0  0  0  0  0  0  0  0  0
  -25.8816  -29.8528   21.0100 C   0  0  0  0  0  0  0  0  0  0  0  0
  -21.9897  -18.9059   19.4670 C   0  0  0  0  0  0  0  0  0  0  0  0
  -27.5939  -12.5074   20.4261 C   0  0  0  0  0  0  0  0  0  0  0  0
  -24.9317  -27.9232   19.9094 C   0  0  0  0  0  0  0  0  0  0  0  0
  -30.4511  -25.1517   18.6354 C   0  0  0  0  0  0  0  0  0  0  0  0
  -32.6229  -23.8219   18.7855 C   0  0  0  0  0  0  0  0  0  0  0  0
  -18.0642  -27.3945   22.8479 C   0  0  0  0  0  0  0  0  0  0  0  0
  -20.2353  -20.4445   20.1304 C   0  0  0  0  0  0  0  0  0  0  0  0
  -18.4001  -26.6768   21.6842 C   0  0  0  0  0  0  0  0  0  0  0  0
  -21.5865  -20.1896   19.8442 C   0  0  0  0  0  0  0  0  0  0  0  0
  -25.8775  -13.6829   21.6546 C   0  0  0  0  0  0  0  0  0  0  0  0
  -28.4904  -13.5437   20.6870 C   0  0  0  0  0  0  0  0  0  0  0  0
  -26.7740  -14.7192   21.9155 C   0  0  0  0  0  0  0  0  0  0  0  0
  -28.0804  -14.6496   21.4317 C   0  0  0  0  0  0  0  0  0  0  0  0
  -28.9572  -27.5041   18.5050 C   0  0  0  0  0  0  0  0  0  0  0  0
  -21.0505  -17.8778   19.3845 C   0  0  0  0  0  0  0  0  0  0  0  0
  -27.1040  -28.7454   19.2447 C   0  0  0  0  0  0  0  0  0  0  0  0
  -26.2874  -12.5771   20.9099 C   0  0  0  0  0  0  0  0  0  0  0  0
  -24.8408  -28.9355   20.8647 C   0  0  0  0  0  0  0  0  0  0  0  0
  -26.0633  -27.8281   19.0994 C   0  0  0  0  0  0  0  0  0  0  0  0
  -31.2222  -23.9364   18.7034 C   0  0  0  0  0  0  0  0  0  0  0  0
  -32.8550  -22.4688   18.8256 C   0  0  0  0  0  0  0  0  0  0  0  0
  -33.6247  -24.8470   18.8224 C   0  0  0  0  0  0  0  0  0  0  0  0
  -20.8873  -24.0556   20.9118 C   0  0  0  0  0  0  0  0  0  0  0  0
  -23.2039  -22.4497   22.1220 C   0  0  0  0  0  0  0  0  0  0  0  0
  -25.3443  -20.2860   23.6630 C   0  0  0  0  0  0  0  0  0  0  0  0
  -29.5192  -17.9586   20.6657 C   0  0  0  0  0  0  0  0  0  0  0  0
  -19.1144  -27.8505   23.8296 C   0  0  0  0  0  0  0  0  0  0  0  0
  -19.8288  -21.8551   20.4602 C   0  0  0  0  0  0  0  0  0  0  0  0
  -22.5548  -21.3377   19.9305 C   0  0  0  0  0  0  0  0  0  0  0  0
  -20.4427  -27.1117   23.6875 C   0  0  0  0  0  0  0  0  0  0  0  0
  -30.9910  -18.3051   17.3776 C   0  0  0  0  0  0  0  0  0  0  0  0
  -23.8837  -12.5285   22.9694 C   0  0  0  0  0  0  0  0  0  0  0  0
  -20.8558  -27.0333   22.2212 C   0  0  0  0  0  0  0  0  0  0  0  0
  -31.3507  -19.7919   17.3605 C   0  0  0  0  0  0  0  0  0  0  0  0
  -22.5122  -12.8211   22.3366 C   0  0  0  0  0  0  0  0  0  0  0  0
  -29.6714  -18.0639   18.1047 C   0  0  0  0  0  0  0  0  0  0  0  0
  -29.9864  -20.0844   19.4802 C   0  0  0  0  0  0  0  0  0  0  0  0
  -24.4383  -13.7524   22.1843 C   0  0  2  0  0  0  0  0  0  0  0  0
  -19.8242  -26.2520   21.3985 C   0  0  1  0  0  0  0  0  0  0  0  0
  -20.8795  -22.6057   21.2979 C   0  0  1  0  0  0  0  0  0  0  0  0
  -31.3219  -20.3917   18.7788 C   0  0  2  0  0  0  0  0  0  0  0  0
  -23.2691  -13.5040   21.1758 C   0  0  2  0  0  0  0  0  0  0  0  0
  -29.8842  -13.4425   20.1594 C   0  0  0  0  0  0  0  0  0  0  0  0
  -26.3314  -15.9022   22.7164 C   0  0  0  0  0  0  0  0  0  0  0  0
  -27.3734  -20.2387   25.1388 C   0  0  0  0  0  0  0  0  0  0  0  0
  -24.9496  -23.2138   19.7402 C   0  0  0  0  0  0  0  0  0  0  0  0
  -26.9113  -22.2459   20.9580 C   0  0  0  0  0  0  0  0  0  0  0  0
  -25.6800  -24.1881   21.9246 C   0  0  0  0  0  0  0  0  0  0  0  0
  -23.9009  -18.8302   25.7974 C   0  0  0  0  0  0  0  0  0  0  0  0
  -25.9250  -10.4647   19.8792 C   0  0  0  0  0  0  0  0  0  0  0  0
  -29.0438  -15.7593   21.7117 C   0  0  0  0  0  0  0  0  0  0  0  0
  -20.6962  -15.5332   19.5707 C   0  0  0  0  0  0  0  0  0  1  0  0
  -21.6114  -14.3349   19.7319 C   0  0  0  0  0  0  0  0  0  0  0  0
  -24.5971  -21.9035   21.9368 C   0  0  1  0  0  0  0  0  0  0  0  0
  -25.8535  -20.2186   25.0915 C   0  0  2  0  0  0  0  0  0  0  0  0
  -25.5115  -22.8720   21.1346 C   0  0  0  0  0  0  0  0  0  0  0  0
  -30.6077  -22.7506   18.6916 N   0  0  0  0  0  0  0  0  0  0  0  0
  -31.6271  -21.8781   18.7669 N   0  0  0  0  0  0  0  0  0  0  0  0
  -22.2684  -22.1476   21.1250 N   0  0  0  0  0  0  0  0  0  0  0  0
  -29.7166  -18.6429   19.4548 N   0  0  0  0  0  0  0  0  0  0  0  0
  -33.9876  -21.7385   18.9048 N   0  0  0  0  0  0  0  0  0  0  0  0
  -33.2128  -26.1858   18.7725 N   0  0  0  0  0  0  0  0  0  0  0  0
  -19.9808  -24.8291   21.6115 N   0  0  0  0  0  0  0  0  0  0  0  0
  -25.0909  -21.5837   23.2718 N   0  0  0  0  0  0  0  0  0  0  0  0
  -29.2621  -16.5977   20.5539 N   0  0  0  0  0  0  0  0  0  0  0  0
  -25.3792  -18.9697   25.7521 N   0  3  0  0  0  0  0  0  0  0  0  0
  -34.8496  -24.5834   18.8809 O   0  0  0  0  0  0  0  0  0  0  0  0
  -21.6597  -24.4456   20.0441 O   0  0  0  0  0  0  0  0  0  0  0  0
  -22.9507  -23.1307   23.1197 O   0  0  0  0  0  0  0  0  0  0  0  0
  -25.1905  -19.2877   22.9628 O   0  0  0  0  0  0  0  0  0  0  0  0
  -29.5734  -18.5182   21.7661 O   0  0  0  0  0  0  0  0  0  0  0  0
  -28.2284  -28.6519   18.4418 O   0  0  0  0  0  0  0  0  0  0  0  0
  -25.4238  -11.5567   20.6476 O   0  0  0  0  0  0  0  0  0  0  0  0
  -21.4450  -16.6225   19.0332 O   0  0  0  0  0  0  0  0  0  1  0  0
  -22.6573  -14.6675   20.6368 O   0  0  0  0  0  0  0  0  0  0  0  0
  -23.7549  -29.0260   21.6437 F   0  0  0  0  0  0  0  0  0  0  0  0
  -26.1453  -26.8527   18.1841 F   0  0  0  0  0  0  0  0  0  0  0  0
  1  2  1  0  0  0  0
  1  5  2  0  0  0  0
  2  6  2  0  0  0  0
  3  8  2  0  0  0  0
  3 16  1  0  0  0  0
  4  9  1  0  0  0  0
  4 16  2  0  0  0  0
  5 18  1  0  0  0  0
  6 20  1  0  0  0  0
  7 10  2  0  0  0  0
  7 19  1  0  0  0  0
  8 26  1  0  0  0  0
  9 26  2  0  0  0  0
 10 27  1  0  0  0  0
 11 12  2  0  0  0  0
 11 28  1  0  0  0  0
 12 30  1  0  0  0  0
 13 21  1  0  0  0  0
 13 27  2  0  0  0  0
 14 23  1  0  0  0  0
 14 29  2  0  0  0  0
 15 30  2  0  0  0  0
 15 31  1  0  0  0  0
 16 32  1  0  0  0  0
 17 32  1  0  0  0  0
 17 33  2  0  0  0  0
 17 34  1  0  0  0  0
 18 20  2  0  0  0  0
 18 39  1  0  0  0  0
 19 21  2  0  0  0  0
 19 40  1  0  0  0  0
 20 51  1  0  0  0  0
 21 41  1  0  0  0  0
 22 24  2  0  0  0  0
 22 29  1  0  0  0  0
 22 50  1  0  0  0  0
 23 25  2  0  0  0  0
 23 55  1  0  0  0  0
 24 25  1  0  0  0  0
 24 56  1  0  0  0  0
 25 63  1  0  0  0  0
 26 84  1  0  0  0  0
 27 86  1  0  0  0  0
 28 31  2  0  0  0  0
 28 84  1  0  0  0  0
 29 85  1  0  0  0  0
 30 88  1  0  0  0  0
 31 89  1  0  0  0  0
 32 69  2  0  0  0  0
 33 70  1  0  0  0  0
 33 73  1  0  0  0  0
 34 74  1  0  0  0  0
 34 79  2  0  0  0  0
 35 52  1  0  0  0  0
 35 75  1  0  0  0  0
 35 80  2  0  0  0  0
 36 66  1  0  0  0  0
 36 71  1  0  0  0  0
 36 81  2  0  0  0  0
 37 67  1  0  0  0  0
 37 76  1  0  0  0  0
 37 82  2  0  0  0  0
 38 72  1  0  0  0  0
 38 77  1  0  0  0  0
 38 83  2  0  0  0  0
 39 42  1  0  0  0  0
 40 52  1  0  0  0  0
 41 71  1  0  0  0  0
 42 45  1  0  0  0  0
 43 46  1  0  0  0  0
 43 48  1  0  0  0  0
 44 47  1  0  0  0  0
 44 50  1  0  0  0  0
 45 51  1  0  0  0  0
 46 53  1  0  0  0  0
 47 54  1  0  0  0  0
 48 72  1  0  0  0  0
 49 53  1  0  0  0  0
 49 72  1  0  0  0  0
 50 54  1  0  0  0  0
 51 75  1  0  0  0  0
 52 71  1  0  0  0  0
 53 70  1  0  0  0  0
 54 87  1  0  0  0  0
 57 67  1  0  0  0  0
 58 68  1  0  0  0  0
 59 68  1  0  0  0  0
 60 68  1  0  0  0  0
 61 78  1  0  0  0  0
 62 85  1  0  0  0  0
 63 77  1  0  0  0  0
 64 65  1  0  0  0  0
 64 86  1  0  0  0  0
 65 87  1  0  0  0  0
 66 68  1  0  0  0  0
 66 76  1  0  0  0  0
 67 78  1  0  0  0  0
 69 70  1  0  0  0  0
M  CHG  1  78   1
M  ISO  4  38 100  64 101  77 100  86 101
M  END
> <Batch ID>
0154

> <Smiles>
CNC(C)C(=O)NC(C(=O)N1Cc2cc([101O:1][101CH2:1]COC3CCC3c3c(OC)cc(C)c(C[100NH:0][100C:0](=O)N4CCCC(n5nc(-c6ccc(Oc7ccc(F)cc7F)cc6)c(C(N)=O)c5N)C4)c3C)ccc2CC1C(=O)NC1CCCc2ccccc21)C(C)(C)C

> <Shape>
0.225

> <Color>
0.059

> <Negative vol penalty>
0.000

$$$$

  -OEChem-04052321513D

 86 95  0     1  0  0  0  0  0999 V2000
  -38.2678  -33.1940   23.4899 C   0  0  0  0  0  0  0  0  0  0  0  0
  -38.0701  -31.8380   23.7304 C   0  0  0  0  0  0  0  0  0  0  0  0
  -23.1135   -9.8526   20.0048 C   0  0  0  0  0  0  0  0  0  0  0  0
  -23.8307   -9.9740   22.3087 C   0  0  0  0  0  0  0  0  0  0  0  0
  -37.1724  -34.0519   23.4008 C   0  0  0  0  0  0  0  0  0  0  0  0
  -36.7768  -31.3395   23.8829 C   0  0  0  0  0  0  0  0  0  0  0  0
  -34.7126  -25.8542   22.1063 C   0  0  0  0  0  0  0  0  0  0  0  0
  -22.3753   -8.7053   20.2950 C   0  0  0  0  0  0  0  0  0  0  0  0
  -23.0924   -8.8267   22.5990 C   0  0  0  0  0  0  0  0  0  0  0  0
  -34.5141  -24.6585   22.7952 C   0  0  0  0  0  0  0  0  0  0  0  0
  -19.8607   -8.0269   23.1797 C   0  0  0  0  0  0  0  0  0  0  0  0
  -19.0825   -8.0344   24.3373 C   0  0  0  0  0  0  0  0  0  0  0  0
  -32.1911  -25.2299   23.1055 C   0  0  0  0  0  0  0  0  0  0  0  0
  -31.0973  -18.6261   23.5587 C   0  0  0  0  0  0  0  0  0  0  0  0
  -20.3270   -6.1455   25.1861 C   0  0  0  0  0  0  0  0  0  0  0  0
  -23.8413  -10.4869   21.0117 C   0  0  0  0  0  0  0  0  0  0  0  0
  -24.1632  -13.0069   20.7796 C   0  0  0  0  0  0  0  0  0  0  0  0
  -35.8645  -33.5620   23.5427 C   0  0  0  0  0  0  0  0  0  0  0  0
  -33.6525  -26.7533   21.9209 C   0  0  0  0  0  0  0  0  0  0  0  0
  -35.6629  -32.1919   23.7969 C   0  0  0  0  0  0  0  0  0  0  0  0
  -32.3781  -26.4352   22.4116 C   0  0  0  0  0  0  0  0  0  0  0  0
  -30.9010  -18.0227   20.8421 C   0  0  0  0  0  0  0  0  0  0  0  0
  -30.6207  -17.3793   23.1539 C   0  0  0  0  0  0  0  0  0  0  0  0
  -31.3776  -19.2695   21.2469 C   0  0  0  0  0  0  0  0  0  0  0  0
  -30.5225  -17.0776   21.7956 C   0  0  0  0  0  0  0  0  0  0  0  0
  -22.3647   -8.1923   21.5921 C   0  0  0  0  0  0  0  0  0  0  0  0
  -33.2539  -24.3475   23.2975 C   0  0  0  0  0  0  0  0  0  0  0  0
  -20.8720   -7.0786   23.0252 C   0  0  0  0  0  0  0  0  0  0  0  0
  -31.4758  -19.5713   22.6052 C   0  0  0  0  0  0  0  0  0  0  0  0
  -19.3157   -7.0938   25.3405 C   0  0  0  0  0  0  0  0  0  0  0  0
  -21.1051   -6.1380   24.0285 C   0  0  0  0  0  0  0  0  0  0  0  0
  -24.6046  -11.6718   20.7123 C   0  0  0  0  0  0  0  0  0  0  0  0
  -25.2553  -13.7490   20.4014 C   0  0  0  0  0  0  0  0  0  0  0  0
  -22.8807  -13.5295   21.1508 C   0  0  0  0  0  0  0  0  0  0  0  0
  -33.0723  -29.7503   22.8067 C   0  0  0  0  0  0  0  0  0  0  0  0
  -30.4552  -29.3881   20.9247 C   0  0  0  0  0  0  0  0  0  0  0  0
  -28.2035  -27.2772   19.4686 C   0  0  0  0  0  0  0  0  0  0  0  0
  -30.7079  -14.8541   20.6259 C   0  0  0  0  0  0  0  0  0  0  0  0
  -34.7143  -34.5358   23.4854 C   0  0  0  0  0  0  0  0  0  0  0  0
  -33.8769  -28.0266   21.1522 C   0  0  0  0  0  0  0  0  0  0  0  0
  -31.2024  -27.3571   22.2217 C   0  0  0  0  0  0  0  0  0  0  0  0
  -33.3577  -33.8650   23.2859 C   0  0  0  0  0  0  0  0  0  0  0  0
  -29.6588  -12.3217   18.3536 C   0  0  0  0  0  0  0  0  0  0  0  0
  -29.9998  -18.6205   18.4959 C   0  0  0  0  0  0  0  0  0  0  0  0
  -29.4708  -17.2606   18.8291 C   0  0  0  0  0  0  0  0  0  0  0  0
  -33.2076  -32.6738   24.2269 C   0  0  0  0  0  0  0  0  0  0  0  0
  -28.2140  -12.0367   18.7702 C   0  0  0  0  0  0  0  0  0  0  0  0
  -30.5494  -12.6152   19.5596 C   0  0  0  0  0  0  0  0  0  0  0  0
  -28.6109  -13.3850   20.8706 C   0  0  0  0  0  0  0  0  0  0  0  0
  -30.7962  -17.7044   19.3827 C   0  0  0  0  0  0  0  0  0  0  0  0
  -34.2741  -31.6090   23.9433 C   0  0  1  0  0  0  0  0  0  0  0  0
  -32.8455  -29.1052   21.4688 C   0  0  1  0  0  0  0  0  0  0  0  0
  -27.6617  -13.1476   19.6848 C   0  0  2  0  0  0  0  0  0  0  0  0
  -30.2231  -16.3881   24.1994 C   0  0  0  0  0  0  0  0  0  0  0  0
  -33.1504  -19.9862   19.6251 C   0  0  0  0  0  0  0  0  0  0  0  0
  -26.1552  -27.2774   18.0188 C   0  0  0  0  0  0  0  0  0  0  0  0
  -28.7729  -30.2885   23.3057 C   0  0  0  0  0  0  0  0  0  0  0  0
  -26.7562  -29.3733   22.1380 C   0  0  0  0  0  0  0  0  0  0  0  0
  -28.0561  -31.2348   21.1045 C   0  0  0  0  0  0  0  0  0  0  0  0
  -29.5560  -25.7048   17.3575 C   0  0  0  0  0  0  0  0  0  0  0  0
  -31.7855  -20.2908   20.2327 C   0  0  0  0  0  0  0  0  0  0  0  0
  -33.8772  -22.0728   23.6028 C   0  0  0  0  0  0  0  0  0  1  0  0
  -33.1065  -20.7879   23.8365 C   0  0  0  0  0  0  0  0  0  0  0  0
  -29.0410  -28.9066   21.1414 C   0  0  1  0  0  0  0  0  0  0  0  0
  -27.6734  -27.1937   18.0486 C   0  0  2  0  0  0  0  0  0  0  0  0
  -28.1789  -29.9341   21.9278 C   0  0  0  0  0  0  0  0  0  0  0  0
  -25.8778  -11.5687   20.3220 N   0  0  0  0  0  0  0  0  0  0  0  0
  -26.2457  -12.8484   20.1405 N   0  0  0  0  0  0  0  0  0  0  0  0
  -31.4737  -28.5929   21.4689 N   0  0  0  0  0  0  0  0  0  0  0  0
  -29.9653  -13.6804   20.3774 N   0  0  0  0  0  0  0  0  0  0  0  0
  -25.4553  -15.0776   20.2699 N   0  0  0  0  0  0  0  0  0  0  0  0
  -21.8707  -12.6273   21.5119 N   0  0  0  0  0  0  0  0  0  0  0  0
  -30.0374  -15.8101   21.3882 N   0  0  0  0  0  0  0  0  0  0  0  0
  -33.9210  -30.8402   22.7691 N   0  0  0  0  0  0  0  0  0  0  0  0
  -28.5167  -28.5728   19.8215 N   0  0  0  0  0  0  0  0  0  0  0  0
  -28.0857  -25.9086   17.4166 N   0  3  0  0  0  0  0  0  0  0  0  0
  -22.6326  -14.7591   21.1461 O   0  0  0  0  0  0  0  0  0  0  0  0
  -32.5173  -29.2940   23.7994 O   0  0  0  0  0  0  0  0  0  0  0  0
  -30.6495  -30.4277   20.2897 O   0  0  0  0  0  0  0  0  0  0  0  0
  -28.3238  -26.2921   20.1937 O   0  0  0  0  0  0  0  0  0  0  0  0
  -31.8440  -15.0116   20.1714 O   0  0  0  0  0  0  0  0  0  0  0  0
  -21.6442   -7.0729   21.8758 O   0  0  0  0  0  0  0  0  0  0  0  0
  -33.0575  -23.1814   23.9709 O   0  0  0  0  0  0  0  0  0  1  0  0
  -31.9404  -20.7909   23.0220 O   0  0  0  0  0  0  0  0  0  0  0  0
  -18.5694   -7.1021   26.4527 F   0  0  0  0  0  0  0  0  0  0  0  0
  -22.0760   -5.2253   23.8863 F   0  0  0  0  0  0  0  0  0  0  0  0
  1  2  1  0  0  0  0
  1  5  2  0  0  0  0
  2  6  2  0  0  0  0
  3  8  2  0  0  0  0
  3 16  1  0  0  0  0
  4  9  1  0  0  0  0
  4 16  2  0  0  0  0
  5 18  1  0  0  0  0
  6 20  1  0  0  0  0
  7 10  2  0  0  0  0
  7 19  1  0  0  0  0
  8 26  1  0  0  0  0
  9 26  2  0  0  0  0
 10 27  1  0  0  0  0
 11 12  2  0  0  0  0
 11 28  1  0  0  0  0
 12 30  1  0  0  0  0
 13 21  1  0  0  0  0
 13 27  2  0  0  0  0
 14 23  1  0  0  0  0
 14 29  2  0  0  0  0
 15 30  2  0  0  0  0
 15 31  1  0  0  0  0
 16 32  1  0  0  0  0
 17 32  1  0  0  0  0
 17 33  2  0  0  0  0
 17 34  1  0  0  0  0
 18 20  2  0  0  0  0
 18 39  1  0  0  0  0
 19 21  2  0  0  0  0
 19 40  1  0  0  0  0
 20 51  1  0  0  0  0
 21 41  1  0  0  0  0
 22 24  2  0  0  0  0
 22 25  1  0  0  0  0
 22 50  1  0  0  0  0
 23 25  2  0  0  0  0
 23 54  1  0  0  0  0
 24 29  1  0  0  0  0
 24 61  1  0  0  0  0
 25 73  1  0  0  0  0
 26 82  1  0  0  0  0
 27 83  1  0  0  0  0
 28 31  2  0  0  0  0
 28 82  1  0  0  0  0
 29 84  1  0  0  0  0
 30 85  1  0  0  0  0
 31 86  1  0  0  0  0
 32 67  2  0  0  0  0
 33 68  1  0  0  0  0
 33 71  1  0  0  0  0
 34 72  1  0  0  0  0
 34 77  2  0  0  0  0
 35 52  1  0  0  0  0
 35 74  1  0  0  0  0
 35 78  2  0  0  0  0
 36 64  1  0  0  0  0
 36 69  1  0  0  0  0
 36 79  2  0  0  0  0
 37 65  1  0  0  0  0
 37 75  1  0  0  0  0
 37 80  2  0  0  0  0
 38 70  1  0  0  0  0
 38 73  1  0  0  0  0
 38 81  2  0  0  0  0
 39 42  1  0  0  0  0
 40 52  1  0  0  0  0
 41 69  1  0  0  0  0
 42 46  1  0  0  0  0
 43 47  1  0  0  0  0
 43 48  1  0  0  0  0
 44 45  1  0  0  0  0
 44 50  1  0  0  0  0
 45 50  1  0  0  0  0
 46 51  1  0  0  0  0
 47 53  1  0  0  0  0
 48 70  1  0  0  0  0
 49 53  1  0  0  0  0
 49 70  1  0  0  0  0
 51 74  1  0  0  0  0
 52 69  1  0  0  0  0
 53 68  1  0  0  0  0
 55 61  1  0  0  0  0
 56 65  1  0  0  0  0
 57 66  1  0  0  0  0
 58 66  1  0  0  0  0
 59 66  1  0  0  0  0
 60 76  1  0  0  0  0
 62 63  1  0  0  0  0
 62 83  1  0  0  0  0
 63 84  1  0  0  0  0
 64 66  1  0  0  0  0
 64 75  1  0  0  0  0
 65 76  1  0  0  0  0
 67 68  1  0  0  0  0
M  CHG  1  76   1
M  ISO  4  38 100  62 101  73 100  83 101
M  END
> <Batch ID>
0154

> <Smiles>
CCc1c(OC[101CH2:1][101O:1]c2ccc3c(c2)CN(C(=O)C(NC(=O)C(C)NC)C(C)(C)C)C(C(=O)NC2CCCc4ccccc42)C3)cc(C)c([100NH:0][100C:0](=O)N2CCCC(n3nc(-c4ccc(Oc5ccc(F)cc5F)cc4)c(C(N)=O)c3N)C2)c1C1CC1

> <Shape>
0.234

> <Color>
0.209

> <Negative vol penalty>
0.000

$$$$

  -OEChem-04052321513D

 86 94  0     1  0  0  0  0  0999 V2000
  -28.1586  -32.7898   21.5000 C   0  0  0  0  0  0  0  0  0  0  0  0
  -28.6785  -31.5280   21.2299 C   0  0  0  0  0  0  0  0  0  0  0  0
  -23.1302   -9.7544   19.9350 C   0  0  0  0  0  0  0  0  0  0  0  0
  -23.8606   -9.8118   22.2373 C   0  0  0  0  0  0  0  0  0  0  0  0
  -26.7780  -32.9833   21.5231 C   0  0  0  0  0  0  0  0  0  0  0  0
  -27.8180  -30.4587   20.9838 C   0  0  0  0  0  0  0  0  0  0  0  0
  -27.3673  -24.4231   17.1517 C   0  0  0  0  0  0  0  0  0  0  0  0
  -22.4122   -8.5864   20.1919 C   0  0  0  0  0  0  0  0  0  0  0  0
  -23.1426   -8.6438   22.4942 C   0  0  0  0  0  0  0  0  0  0  0  0
  -27.1004  -23.0639   17.3104 C   0  0  0  0  0  0  0  0  0  0  0  0
  -19.9280   -7.7734   23.0680 C   0  0  0  0  0  0  0  0  0  0  0  0
  -19.1575   -7.7305   24.2299 C   0  0  0  0  0  0  0  0  0  0  0  0
  -24.7342  -23.5334   17.2984 C   0  0  0  0  0  0  0  0  0  0  0  0
  -20.4375   -5.8351   25.0086 C   0  0  0  0  0  0  0  0  0  0  0  0
  -23.8544  -10.3671   20.9577 C   0  0  0  0  0  0  0  0  0  0  0  0
  -24.1346  -12.8981   20.8067 C   0  0  0  0  0  0  0  0  0  0  0  0
  -25.9003  -31.9179   21.2677 C   0  0  0  0  0  0  0  0  0  0  0  0
  -26.3181  -25.3504   17.0760 C   0  0  0  0  0  0  0  0  0  0  0  0
  -26.4244  -30.6378   21.0049 C   0  0  0  0  0  0  0  0  0  0  0  0
  -24.9905  -24.9035   17.1361 C   0  0  0  0  0  0  0  0  0  0  0  0
  -25.8261  -20.2205   21.0596 C   0  0  0  0  0  0  0  0  0  0  0  0
  -27.0787  -19.8641   21.6173 C   0  0  0  0  0  0  0  0  0  0  0  0
  -22.4184   -8.0312   21.4715 C   0  0  0  0  0  0  0  0  0  0  0  0
  -25.7837  -22.6192   17.3867 C   0  0  0  0  0  0  0  0  0  0  0  0
  -20.9532   -6.8472   22.8763 C   0  0  0  0  0  0  0  0  0  0  0  0
  -19.4123   -6.7613   25.2002 C   0  0  0  0  0  0  0  0  0  0  0  0
  -21.2080   -5.8780   23.8466 C   0  0  0  0  0  0  0  0  0  0  0  0
  -24.5967  -11.5733   20.6929 C   0  0  0  0  0  0  0  0  0  0  0  0
  -25.6834  -19.5158   19.8847 C   0  0  0  0  0  0  0  0  0  0  0  0
  -25.2122  -13.6698   20.4464 C   0  0  0  0  0  0  0  0  0  0  0  0
  -27.6635  -18.9526   20.7660 C   0  0  0  0  0  0  0  0  0  0  0  0
  -22.8464  -13.3875   21.2027 C   0  0  0  0  0  0  0  0  0  0  0  0
  -25.3934  -27.8389   18.8240 C   0  0  0  0  0  0  0  0  0  0  0  0
  -23.2487  -28.2330   16.4225 C   0  0  0  0  0  0  0  0  0  0  0  0
  -21.4744  -26.8349   13.8643 C   0  0  0  0  0  0  0  0  0  0  0  0
  -30.6660  -14.8289   20.6880 C   0  0  0  0  0  0  0  0  0  0  0  0
  -24.4149  -32.1654   21.3504 C   0  0  0  0  0  0  0  0  0  0  0  0
  -26.6223  -26.8101   16.8780 C   0  0  0  0  0  0  0  0  0  0  0  0
  -23.8279  -25.8562   17.0396 C   0  0  0  0  0  0  0  0  0  0  0  0
  -23.5770  -31.0619   20.7095 C   0  0  0  0  0  0  0  0  0  0  0  0
  -29.6186  -12.3842   18.3210 C   0  0  0  0  0  0  0  0  0  0  0  0
  -24.0740  -29.6892   21.1517 C   0  0  0  0  0  0  0  0  0  0  0  0
  -28.1835  -12.0603   18.7402 C   0  0  0  0  0  0  0  0  0  0  0  0
  -30.5146  -12.6443   19.5299 C   0  0  0  0  0  0  0  0  0  0  0  0
  -28.5778  -13.3462   20.8826 C   0  0  0  0  0  0  0  0  0  0  0  0
  -25.5238  -29.4583   20.7086 C   0  0  1  0  0  0  0  0  0  0  0  0
  -25.4867  -27.7236   17.3288 C   0  0  1  0  0  0  0  0  0  0  0  0
  -27.6233  -13.1312   19.6956 C   0  0  2  0  0  0  0  0  0  0  0  0
  -24.8506  -21.1719   21.6305 C   0  0  0  0  0  0  0  0  0  0  0  0
  -27.6528  -20.3757   22.8794 C   0  0  0  0  0  0  0  0  0  0  0  0
  -23.2488  -18.9947   19.5203 C   0  0  0  0  0  0  0  0  0  0  0  0
  -19.7746  -27.3996   12.1067 C   0  0  0  0  0  0  0  0  0  0  0  0
  -31.5159  -16.7979   23.1442 C   0  0  0  0  0  0  0  0  0  0  0  0
  -21.0600  -28.2505   18.5484 C   0  0  0  0  0  0  0  0  0  0  0  0
  -19.3859  -27.8591   16.7284 C   0  0  0  0  0  0  0  0  0  0  0  0
  -20.7609  -29.9404   16.7293 C   0  0  0  0  0  0  0  0  0  0  0  0
  -27.0434  -17.8602   18.5965 C   0  0  0  0  0  0  0  0  0  0  0  0
  -23.3244  -26.1004   11.6741 C   0  0  0  0  0  0  0  0  0  0  0  0
  -29.6319  -18.1188   22.0528 C   0  0  0  0  0  0  0  0  0  0  0  0
  -24.3235  -20.8882   18.2469 C   0  0  0  0  0  0  0  0  0  1  0  0
  -24.5420  -19.5072   18.8801 C   0  0  1  0  0  0  0  0  0  0  0  0
  -21.8507  -27.7351   16.1452 C   0  0  1  0  0  0  0  0  0  0  0  0
  -21.2559  -27.2793   12.4293 C   0  0  2  0  0  0  0  0  0  0  0  0
  -30.6624  -16.9971   21.8955 C   0  0  2  0  0  0  0  0  0  0  0  0
  -20.7861  -28.4283   17.0416 C   0  0  0  0  0  0  0  0  0  0  0  0
  -25.8688  -11.5036   20.2916 N   0  0  0  0  0  0  0  0  0  0  0  0
  -26.8065  -18.7487   19.7162 N   0  0  0  0  0  0  0  0  0  0  0  0
  -26.2151  -12.7943   20.1500 N   0  0  0  0  0  0  0  0  0  0  0  0
  -24.1769  -27.2742   16.8527 N   0  0  0  0  0  0  0  0  0  0  0  0
  -29.9274  -13.6707   20.3945 N   0  0  0  0  0  0  0  0  0  0  0  0
  -25.3902  -15.0050   20.3574 N   0  0  0  0  0  0  0  0  0  0  0  0
  -21.8533  -12.4579   21.5401 N   0  0  0  0  0  0  0  0  0  0  0  0
  -28.8487  -18.3058   20.8315 N   0  0  0  0  0  0  0  0  0  0  0  0
  -25.5749  -29.1228   19.3017 N   0  0  0  0  0  0  0  0  0  0  0  0
  -21.6317  -27.9099   14.7135 N   0  0  0  0  0  0  0  0  0  0  0  0
  -30.0332  -15.7538   21.5096 N   0  0  0  0  0  0  0  0  0  0  0  0
  -21.8643  -26.2996   11.4854 N   0  3  0  0  0  0  0  0  0  0  0  0
  -22.5788  -14.6125   21.2399 O   0  0  0  0  0  0  0  0  0  0  0  0
  -25.1715  -26.8375   19.4946 O   0  0  0  0  0  0  0  0  0  0  0  0
  -23.5094  -29.4272   16.2565 O   0  0  0  0  0  0  0  0  0  0  0  0
  -21.4991  -25.6527   14.1991 O   0  0  0  0  0  0  0  0  0  0  0  0
  -31.8028  -15.0266   20.2460 O   0  0  0  0  0  0  0  0  0  0  0  0
  -21.7177   -6.8916   21.7225 O   0  0  0  0  0  0  0  0  0  0  0  0
  -25.5204  -21.2932   17.5422 O   0  0  0  0  0  0  0  0  0  1  0  0
  -18.6733   -6.7212   26.3167 F   0  0  0  0  0  0  0  0  0  0  0  0
  -22.1923   -4.9863   23.6686 F   0  0  0  0  0  0  0  0  0  0  0  0
  1  2  1  0  0  0  0
  1  5  2  0  0  0  0
  2  6  2  0  0  0  0
  3  8  2  0  0  0  0
  3 15  1  0  0  0  0
  4  9  1  0  0  0  0
  4 15  2  0  0  0  0
  5 17  1  0  0  0  0
  6 19  1  0  0  0  0
  7 10  2  0  0  0  0
  7 18  1  0  0  0  0
  8 23  1  0  0  0  0
  9 23  2  0  0  0  0
 10 24  1  0  0  0  0
 11 12  2  0  0  0  0
 11 25  1  0  0  0  0
 12 26  1  0  0  0  0
 13 20  1  0  0  0  0
 13 24  2  0  0  0  0
 14 26  2  0  0  0  0
 14 27  1  0  0  0  0
 15 28  1  0  0  0  0
 16 28  1  0  0  0  0
 16 30  2  0  0  0  0
 16 32  1  0  0  0  0
 17 19  2  0  0  0  0
 17 37  1  0  0  0  0
 18 20  2  0  0  0  0
 18 38  1  0  0  0  0
 19 46  1  0  0  0  0
 20 39  1  0  0  0  0
 21 22  1  0  0  0  0
 21 29  2  0  0  0  0
 21 49  1  0  0  0  0
 22 31  2  0  0  0  0
 22 50  1  0  0  0  0
 23 83  1  0  0  0  0
 24 84  1  0  0  0  0
 25 27  2  0  0  0  0
 25 83  1  0  0  0  0
 26 85  1  0  0  0  0
 27 86  1  0  0  0  0
 28 66  2  0  0  0  0
 29 61  1  0  0  0  0
 29 67  1  0  0  0  0
 30 68  1  0  0  0  0
 30 71  1  0  0  0  0
 31 67  1  0  0  0  0
 31 73  1  0  0  0  0
 32 72  1  0  0  0  0
 32 78  2  0  0  0  0
 33 47  1  0  0  0  0
 33 74  1  0  0  0  0
 33 79  2  0  0  0  0
 34 62  1  0  0  0  0
 34 69  1  0  0  0  0
 34 80  2  0  0  0  0
 35 63  1  0  0  0  0
 35 75  1  0  0  0  0
 35 81  2  0  0  0  0
 36 70  1  0  0  0  0
 36 76  1  0  0  0  0
 36 82  2  0  0  0  0
 37 40  1  0  0  0  0
 38 47  1  0  0  0  0
 39 69  1  0  0  0  0
 40 42  1  0  0  0  0
 41 43  1  0  0  0  0
 41 44  1  0  0  0  0
 42 46  1  0  0  0  0
 43 48  1  0  0  0  0
 44 70  1  0  0  0  0
 45 48  1  0  0  0  0
 45 70  1  0  0  0  0
 46 74  1  0  0  0  0
 47 69  1  0  0  0  0
 48 68  1  0  0  0  0
 51 61  1  0  0  0  0
 52 63  1  0  0  0  0
 53 64  1  0  0  0  0
 54 65  1  0  0  0  0
 55 65  1  0  0  0  0
 56 65  1  0  0  0  0
 57 67  1  0  0  0  0
 58 77  1  0  0  0  0
 59 64  1  0  0  0  0
 59 73  1  0  0  0  0
 60 61  1  0  0  0  0
 60 84  1  0  0  0  0
 62 65  1  0  0  0  0
 62 75  1  0  0  0  0
 63 77  1  0  0  0  0
 64 76  1  0  0  0  0
 66 68  1  0  0  0  0
M  CHG  1  77   1
M  ISO  4  36 100  60 101  76 100  84 101
M  END
> <Batch ID>
0154

> <Smiles>
CNC(C)C(=O)NC(C(=O)N1Cc2cc([101O:1][101CH2:1]C(C)c3c(C)c(C)c(NCC(C)[100NH:0][100C:0](=O)N4CCCC(n5nc(-c6ccc(Oc7ccc(F)cc7F)cc6)c(C(N)=O)c5N)C4)n3C)ccc2CC1C(=O)NC1CCCc2ccccc21)C(C)(C)C

> <Shape>
0.254

> <Color>
0.204

> <Negative vol penalty>
0.000

$$$$

  -OEChem-04052321513D

 88 96  0     1  0  0  0  0  0999 V2000
  -17.9882  -26.3707   20.5281 C   0  0  0  0  0  0  0  0  0  0  0  0
  -19.2749  -25.8815   20.7294 C   0  0  0  0  0  0  0  0  0  0  0  0
  -24.0099   -9.5414   21.3955 C   0  0  0  0  0  0  0  0  0  0  0  0
  -24.7303  -10.5556   23.4666 C   0  0  0  0  0  0  0  0  0  0  0  0
  -17.7944  -27.7205   20.2374 C   0  0  0  0  0  0  0  0  0  0  0  0
  -20.3687  -26.7417   20.6391 C   0  0  0  0  0  0  0  0  0  0  0  0
  -25.5260  -26.4971   23.9327 C   0  0  0  0  0  0  0  0  0  0  0  0
  -23.5882   -8.4111   22.0955 C   0  0  0  0  0  0  0  0  0  0  0  0
  -24.3086   -9.4252   24.1667 C   0  0  0  0  0  0  0  0  0  0  0  0
  -26.7897  -25.9753   23.6594 C   0  0  0  0  0  0  0  0  0  0  0  0
  -20.9388   -7.4972   23.9871 C   0  0  0  0  0  0  0  0  0  0  0  0
  -19.6908   -6.9636   23.6655 C   0  0  0  0  0  0  0  0  0  0  0  0
  -27.5410  -28.1653   22.9822 C   0  0  0  0  0  0  0  0  0  0  0  0
  -28.6021  -19.1828   21.1396 C   0  0  0  0  0  0  0  0  0  0  0  0
  -30.9344  -18.7385   20.6920 C   0  0  0  0  0  0  0  0  0  0  0  0
  -20.7408   -4.8742   23.0581 C   0  0  0  0  0  0  0  0  0  0  0  0
  -24.5810  -10.6137   22.0810 C   0  0  0  0  0  0  0  0  0  0  0  0
  -24.2588  -12.9293   21.0602 C   0  0  0  0  0  0  0  0  0  0  0  0
  -18.8856  -28.5996   20.1531 C   0  0  0  0  0  0  0  0  0  0  0  0
  -25.2568  -27.8571   23.7221 C   0  0  0  0  0  0  0  0  0  0  0  0
  -20.1894  -28.1042   20.3458 C   0  0  0  0  0  0  0  0  0  0  0  0
  -26.2739  -28.7024   23.2561 C   0  0  0  0  0  0  0  0  0  0  0  0
  -28.9360  -20.4474   21.6242 C   0  0  0  0  0  0  0  0  0  0  0  0
  -30.2691  -20.8576   21.6426 C   0  0  0  0  0  0  0  0  0  0  0  0
  -29.6013  -18.3283   20.6735 C   0  0  0  0  0  0  0  0  0  0  0  0
  -23.7375   -8.3530   23.4812 C   0  0  0  0  0  0  0  0  0  0  0  0
  -27.7965  -26.8088   23.1813 C   0  0  0  0  0  0  0  0  0  0  0  0
  -22.0878   -6.7193   23.8442 C   0  0  0  0  0  0  0  0  0  0  0  0
  -31.2683  -20.0031   21.1765 C   0  0  0  0  0  0  0  0  0  0  0  0
  -19.5918   -5.6521   23.2010 C   0  0  0  0  0  0  0  0  0  0  0  0
  -21.9888   -5.4078   23.3797 C   0  0  0  0  0  0  0  0  0  0  0  0
  -25.0173  -11.7813   21.3583 C   0  0  0  0  0  0  0  0  0  0  0  0
  -25.1219  -13.7398   20.3642 C   0  0  0  0  0  0  0  0  0  0  0  0
  -22.8960  -13.2355   21.3838 C   0  0  0  0  0  0  0  0  0  0  0  0
  -23.2647  -29.4869   21.8569 C   0  0  0  0  0  0  0  0  0  0  0  0
  -24.4018  -32.0270   23.5235 C   0  0  0  0  0  0  0  0  0  0  0  0
  -26.9194  -33.3728   25.3936 C   0  0  0  0  0  0  0  0  0  0  0  0
  -30.1308  -16.0739   19.6816 C   0  0  0  0  0  0  0  0  0  0  0  0
  -18.6303  -30.0410   19.7899 C   0  0  0  0  0  0  0  0  0  0  0  0
  -23.8962  -28.4099   24.0472 C   0  0  0  0  0  0  0  0  0  0  0  0
  -26.0419  -30.1737   23.0324 C   0  0  0  0  0  0  0  0  0  0  0  0
  -19.8126  -30.9613   20.0818 C   0  0  0  0  0  0  0  0  0  0  0  0
  -29.6908  -12.7778   18.4092 C   0  0  0  0  0  0  0  0  0  0  0  0
  -21.1103  -30.3408   19.5740 C   0  0  0  0  0  0  0  0  0  0  0  0
  -28.3733  -12.3191   19.0385 C   0  0  0  0  0  0  0  0  0  0  0  0
  -30.5094  -13.6377   19.3705 C   0  0  0  0  0  0  0  0  0  0  0  0
  -28.4728  -14.3226   20.5758 C   0  0  0  0  0  0  0  0  0  0  0  0
  -21.3993  -29.0109   20.2807 C   0  0  1  0  0  0  0  0  0  0  0  0
  -23.5864  -29.7079   23.3079 C   0  0  1  0  0  0  0  0  0  0  0  0
  -27.5840  -13.5072   19.6225 C   0  0  2  0  0  0  0  0  0  0  0  0
  -27.8479  -21.3437   22.1179 C   0  0  0  0  0  0  0  0  0  0  0  0
  -31.5848  -24.2901   18.9058 C   0  0  0  0  0  0  0  0  0  0  0  0
  -27.5787  -35.4817   26.5832 C   0  0  0  0  0  0  0  0  0  0  0  0
  -25.0696  -33.3264   20.8448 C   0  0  0  0  0  0  0  0  0  0  0  0
  -26.5452  -34.9344   22.0717 C   0  0  0  0  0  0  0  0  0  0  0  0
  -24.0965  -34.8813   22.5447 C   0  0  0  0  0  0  0  0  0  0  0  0
  -27.0412  -31.9961   28.0106 C   0  0  0  0  0  0  0  0  0  0  0  0
  -33.5296  -19.4491   20.6915 C   0  0  0  0  0  0  0  0  0  0  0  0
  -31.7017  -23.2921   20.0522 C   0  0  0  0  0  0  0  0  0  0  0  0
  -30.3093  -24.7609   21.5923 C   0  0  0  0  0  0  0  0  0  0  0  0
  -31.9886  -22.3255   22.9135 C   0  0  0  0  0  0  0  0  0  0  0  0
  -29.0966  -24.9376   22.4999 C   0  0  0  0  0  0  0  0  0  1  0  0
  -30.6411  -22.2445   22.1709 C   0  0  1  0  0  0  0  0  0  0  0  0
  -25.5572  -32.9843   23.3570 C   0  0  1  0  0  0  0  0  0  0  0  0
  -26.9034  -34.1252   26.7120 C   0  0  2  0  0  0  0  0  0  0  0  0
  -30.5073  -23.3261   21.0409 C   0  0  2  0  0  0  0  0  0  0  0  0
  -25.3212  -34.0035   22.2068 C   0  0  0  0  0  0  0  0  0  0  0  0
  -26.2660  -11.8524   20.8897 N   0  0  0  0  0  0  0  0  0  0  0  0
  -26.2989  -13.0547   20.2901 N   0  0  0  0  0  0  0  0  0  0  0  0
  -24.6931  -30.6654   23.3589 N   0  0  0  0  0  0  0  0  0  0  0  0
  -29.6983  -14.7456   19.8801 N   0  0  0  0  0  0  0  0  0  0  0  0
  -24.9812  -14.9647   19.8142 N   0  0  0  0  0  0  0  0  0  0  0  0
  -22.1519  -12.2912   22.1041 N   0  0  0  0  0  0  0  0  0  0  0  0
  -29.2620  -17.0438   20.1807 N   0  0  0  0  0  0  0  0  0  0  0  0
  -21.9268  -29.2477   21.6074 N   0  0  0  0  0  0  0  0  0  0  0  0
  -25.7713  -33.5968   24.6637 N   0  0  0  0  0  0  0  0  0  0  0  0
  -31.9515  -21.4836   24.1395 N   0  3  0  0  0  0  0  0  0  0  0  0
  -27.6147  -33.3439   27.7630 N   0  3  0  0  0  0  0  0  0  0  0  0
  -22.3493  -14.3076   21.0299 O   0  0  0  0  0  0  0  0  0  0  0  0
  -24.1635  -29.5317   21.0252 O   0  0  0  0  0  0  0  0  0  0  0  0
  -23.2836  -32.4703   23.7968 O   0  0  0  0  0  0  0  0  0  0  0  0
  -27.8583  -32.6607   25.0445 O   0  0  0  0  0  0  0  0  0  0  0  0
  -31.1803  -16.3327   19.0870 O   0  0  0  0  0  0  0  0  0  0  0  0
  -23.3260   -7.2503   24.1647 O   0  0  0  0  0  0  0  0  0  0  0  0
  -32.5758  -20.3865   21.1867 O   0  0  0  0  0  0  0  0  0  0  0  0
  -29.0306  -26.3019   22.9131 O   0  0  0  0  0  0  0  0  0  1  0  0
  -18.3932   -5.1393   22.8936 F   0  0  0  0  0  0  0  0  0  0  0  0
  -23.0889   -4.6553   23.2414 F   0  0  0  0  0  0  0  0  0  0  0  0
  1  2  1  0  0  0  0
  1  5  2  0  0  0  0
  2  6  2  0  0  0  0
  3  8  2  0  0  0  0
  3 17  1  0  0  0  0
  4  9  1  0  0  0  0
  4 17  2  0  0  0  0
  5 19  1  0  0  0  0
  6 21  1  0  0  0  0
  7 10  2  0  0  0  0
  7 20  1  0  0  0  0
  8 26  1  0  0  0  0
  9 26  2  0  0  0  0
 10 27  1  0  0  0  0
 11 12  2  0  0  0  0
 11 28  1  0  0  0  0
 12 30  1  0  0  0  0
 13 22  1  0  0  0  0
 13 27  2  0  0  0  0
 14 23  2  0  0  0  0
 14 25  1  0  0  0  0
 15 25  2  0  0  0  0
 15 29  1  0  0  0  0
 16 30  2  0  0  0  0
 16 31  1  0  0  0  0
 17 32  1  0  0  0  0
 18 32  1  0  0  0  0
 18 33  2  0  0  0  0
 18 34  1  0  0  0  0
 19 21  2  0  0  0  0
 19 39  1  0  0  0  0
 20 22  2  0  0  0  0
 20 40  1  0  0  0  0
 21 48  1  0  0  0  0
 22 41  1  0  0  0  0
 23 24  1  0  0  0  0
 23 51  1  0  0  0  0
 24 29  2  0  0  0  0
 24 63  1  0  0  0  0
 25 74  1  0  0  0  0
 26 84  1  0  0  0  0
 27 86  1  0  0  0  0
 28 31  2  0  0  0  0
 28 84  1  0  0  0  0
 29 85  1  0  0  0  0
 30 87  1  0  0  0  0
 31 88  1  0  0  0  0
 32 68  2  0  0  0  0
 33 69  1  0  0  0  0
 33 72  1  0  0  0  0
 34 73  1  0  0  0  0
 34 79  2  0  0  0  0
 35 49  1  0  0  0  0
 35 75  1  0  0  0  0
 35 80  2  0  0  0  0
 36 64  1  0  0  0  0
 36 70  1  0  0  0  0
 36 81  2  0  0  0  0
 37 65  1  0  0  0  0
 37 76  1  0  0  0  0
 37 82  2  0  0  0  0
 38 71  1  0  0  0  0
 38 74  1  0  0  0  0
 38 83  2  0  0  0  0
 39 42  1  0  0  0  0
 40 49  1  0  0  0  0
 41 70  1  0  0  0  0
 42 44  1  0  0  0  0
 43 45  1  0  0  0  0
 43 46  1  0  0  0  0
 44 48  1  0  0  0  0
 45 50  1  0  0  0  0
 46 71  1  0  0  0  0
 47 50  1  0  0  0  0
 47 71  1  0  0  0  0
 48 75  1  0  0  0  0
 49 70  1  0  0  0  0
 50 69  1  0  0  0  0
 52 59  1  0  0  0  0
 53 65  1  0  0  0  0
 54 67  1  0  0  0  0
 55 67  1  0  0  0  0
 56 67  1  0  0  0  0
 57 78  1  0  0  0  0
 58 85  1  0  0  0  0
 59 66  1  0  0  0  0
 60 62  1  0  0  0  0
 60 66  1  0  0  0  0
 61 63  1  0  0  0  0
 61 77  1  0  0  0  0
 62 86  1  0  0  0  0
 63 66  1  0  0  0  0
 64 67  1  0  0  0  0
 64 76  1  0  0  0  0
 65 78  1  0  0  0  0
 68 69  1  0  0  0  0
M  CHG  2  77   1  78   1
M  ISO  4  38 100  62 101  74 100  86 101
M  END
> <Batch ID>
0154

> <Smiles>
CCC(C[101CH2:1][101O:1]c1ccc2c(c1)CN(C(=O)C(NC(=O)C(C)NC)C(C)(C)C)C(C(=O)NC1CCCc3ccccc31)C2)C(CN)c1c(C)cc([100NH:0][100C:0](=O)N2CCCC(n3nc(-c4ccc(Oc5ccc(F)cc5F)cc4)c(C(N)=O)c3N)C2)cc1OC

> <Shape>
0.297

> <Color>
0.140

> <Negative vol penalty>
0.000

$$$$

  -OEChem-04052321513D

 83 92  0     1  0  0  0  0  0999 V2000
  -33.7687  -25.4570   20.8427 C   0  0  0  0  0  0  0  0  0  0  0  0
  -32.3863  -25.3005   20.8496 C   0  0  0  0  0  0  0  0  0  0  0  0
  -24.6140   -8.6012   20.6543 C   0  0  0  0  0  0  0  0  0  0  0  0
  -22.9162  -10.3188   20.5880 C   0  0  0  0  0  0  0  0  0  0  0  0
  -34.3680  -26.3872   21.6909 C   0  0  0  0  0  0  0  0  0  0  0  0
  -31.6026  -26.0734   21.7056 C   0  0  0  0  0  0  0  0  0  0  0  0
  -27.5029  -27.9628   19.4104 C   0  0  0  0  0  0  0  0  0  0  0  0
  -23.6561   -7.6697   21.0544 C   0  0  0  0  0  0  0  0  0  0  0  0
  -21.9582   -9.3872   20.9880 C   0  0  0  0  0  0  0  0  0  0  0  0
  -26.4263  -27.0983   19.2170 C   0  0  0  0  0  0  0  0  0  0  0  0
  -21.7234   -4.9193   22.4414 C   0  0  0  0  0  0  0  0  0  0  0  0
  -22.0525   -4.0565   23.4868 C   0  0  0  0  0  0  0  0  0  0  0  0
  -25.3278  -28.0445   21.1450 C   0  0  0  0  0  0  0  0  0  0  0  0
  -24.5910  -19.8253   20.5306 C   0  0  0  0  0  0  0  0  0  0  0  0
  -22.3764   -5.9520   24.9494 C   0  0  0  0  0  0  0  0  0  0  0  0
  -23.2438  -18.4726   19.3367 C   0  0  0  0  0  0  0  0  0  0  0  0
  -24.2441   -9.9258   20.4211 C   0  0  0  0  0  0  0  0  0  0  0  0
  -26.0315  -10.8441   18.8496 C   0  0  0  0  0  0  0  0  0  0  0  0
  -33.5904  -27.1788   22.5507 C   0  0  0  0  0  0  0  0  0  0  0  0
  -27.5049  -28.8686   20.4809 C   0  0  0  0  0  0  0  0  0  0  0  0
  -32.1922  -27.0142   22.5670 C   0  0  0  0  0  0  0  0  0  0  0  0
  -26.4045  -28.9211   21.3484 C   0  0  0  0  0  0  0  0  0  0  0  0
  -24.3033  -18.4740   20.2169 C   0  0  0  0  0  0  0  0  0  0  0  0
  -22.3281   -8.0626   21.2213 C   0  0  0  0  0  0  0  0  0  0  0  0
  -25.3398  -27.1371   20.0860 C   0  0  0  0  0  0  0  0  0  0  0  0
  -21.7208   -6.2986   22.6500 C   0  0  0  0  0  0  0  0  0  0  0  0
  -22.3790   -4.5728   24.7407 C   0  0  0  0  0  0  0  0  0  0  0  0
  -22.0473   -6.8149   23.9040 C   0  0  0  0  0  0  0  0  0  0  0  0
  -25.2333  -10.8887   20.0084 C   0  0  0  0  0  0  0  0  0  0  0  0
  -23.6983  -20.6085   19.8327 C   0  0  0  0  0  0  0  0  0  0  0  0
  -26.8003  -11.9802   18.9183 C   0  0  0  0  0  0  0  0  0  0  0  0
  -26.0741   -9.8633   17.8046 C   0  0  0  0  0  0  0  0  0  0  0  0
  -29.3406  -29.3166   23.0369 C   0  0  0  0  0  0  0  0  0  0  0  0
  -27.4796  -31.9442   23.4301 C   0  0  0  0  0  0  0  0  0  0  0  0
  -23.9781  -32.7601   23.1291 C   0  0  0  0  0  0  0  0  0  0  0  0
  -26.0379  -17.2698   21.5908 C   0  0  0  0  0  0  0  0  0  0  0  0
  -34.2872  -28.1376   23.4834 C   0  0  0  0  0  0  0  0  0  0  0  0
  -28.6619  -29.8129   20.6601 C   0  0  0  0  0  0  0  0  0  0  0  0
  -26.3488  -29.8892   22.5009 C   0  0  0  0  0  0  0  0  0  0  0  0
  -33.3546  -29.1822   24.0912 C   0  0  0  0  0  0  0  0  0  0  0  0
  -28.7393  -15.0039   22.0856 C   0  0  0  0  0  0  0  0  0  0  0  0
  -32.0782  -28.5238   24.6051 C   0  0  0  0  0  0  0  0  0  0  0  0
  -24.3567  -22.7428   18.6399 C   0  0  0  0  0  0  0  0  0  0  0  0
  -23.9236  -22.7648   21.1401 C   0  0  0  0  0  0  0  0  0  0  0  0
  -28.2217  -13.6889   21.4982 C   0  0  0  0  0  0  0  0  0  0  0  0
  -24.1955  -24.2604   18.6051 C   0  0  0  0  0  0  0  0  0  0  0  0
  -23.7641  -24.2821   21.0921 C   0  0  0  0  0  0  0  0  0  0  0  0
  -27.6312  -15.7860   22.7886 C   0  0  0  0  0  0  0  0  0  0  0  0
  -25.9118  -14.7086   21.3914 C   0  0  0  0  0  0  0  0  0  0  0  0
  -31.3060  -27.8516   23.4635 C   0  0  1  0  0  0  0  0  0  0  0  0
  -23.5515  -22.1187   19.7936 C   0  0  0  0  0  0  0  0  0  0  0  0
  -28.7874  -30.3402   22.0861 C   0  0  1  0  0  0  0  0  0  0  0  0
  -26.9777  -13.9163   20.6170 C   0  0  2  0  0  0  0  0  0  0  0  0
  -24.5612  -24.8976   19.9445 C   0  0  0  0  0  0  0  0  0  1  0  0
  -22.8492  -34.9434   22.6229 C   0  0  0  0  0  0  0  0  0  0  0  0
  -27.3125  -32.2293   26.4634 C   0  0  0  0  0  0  0  0  0  0  0  0
  -25.0405  -33.2403   26.1733 C   0  0  0  0  0  0  0  0  0  0  0  0
  -27.0397  -34.3690   25.1979 C   0  0  0  0  0  0  0  0  0  0  0  0
  -21.8067  -20.1887   18.2387 C   0  0  0  0  0  0  0  0  0  0  0  0
  -22.5050  -31.6004   20.8392 C   0  0  0  0  0  0  0  0  0  0  0  0
  -26.1814  -32.2379   24.1425 C   0  0  1  0  0  0  0  0  0  0  0  0
  -23.3340  -33.6184   22.0554 C   0  0  2  0  0  0  0  0  0  0  0  0
  -26.3993  -32.9933   25.4839 C   0  0  0  0  0  0  0  0  0  0  0  0
  -25.4730  -11.9677   20.7583 N   0  0  0  0  0  0  0  0  0  0  0  0
  -22.8841  -19.7756   19.1106 N   0  0  0  0  0  0  0  0  0  0  0  0
  -26.4305  -12.6115   20.0693 N   0  0  0  0  0  0  0  0  0  0  0  0
  -27.5070  -30.7876   22.6381 N   0  0  0  0  0  0  0  0  0  0  0  0
  -26.4873  -15.9668   21.8920 N   0  0  0  0  0  0  0  0  0  0  0  0
  -27.7499  -12.4907   18.1058 N   0  0  0  0  0  0  0  0  0  0  0  0
  -25.2297  -10.0287   16.6983 N   0  0  0  0  0  0  0  0  0  0  0  0
  -24.9644  -17.3184   20.7020 N   0  0  0  0  0  0  0  0  0  0  0  0
  -30.5897  -28.8406   22.6867 N   0  0  0  0  0  0  0  0  0  0  0  0
  -25.3426  -32.9505   23.1849 N   0  0  0  0  0  0  0  0  0  0  0  0
  -22.1683  -32.9094   21.4556 N   0  3  0  0  0  0  0  0  0  0  0  0
  -26.8266   -8.8611   17.8582 O   0  0  0  0  0  0  0  0  0  0  0  0
  -28.6835  -28.9843   24.0164 O   0  0  0  0  0  0  0  0  0  0  0  0
  -28.4320  -32.7164   23.5656 O   0  0  0  0  0  0  0  0  0  0  0  0
  -23.3346  -31.9998   23.8491 O   0  0  0  0  0  0  0  0  0  0  0  0
  -26.5837  -18.2701   22.0637 O   0  0  0  0  0  0  0  0  0  0  0  0
  -21.3930   -7.1538   21.6114 O   0  0  0  0  0  0  0  0  0  0  0  0
  -24.2880  -26.2939   19.8998 O   0  0  0  0  0  0  0  0  0  1  0  0
  -22.6936   -3.7440   25.7449 F   0  0  0  0  0  0  0  0  0  0  0  0
  -22.0454   -8.1389   24.1108 F   0  0  0  0  0  0  0  0  0  0  0  0
  1  2  1  0  0  0  0
  1  5  2  0  0  0  0
  2  6  2  0  0  0  0
  3  8  2  0  0  0  0
  3 17  1  0  0  0  0
  4  9  1  0  0  0  0
  4 17  2  0  0  0  0
  5 19  1  0  0  0  0
  6 21  1  0  0  0  0
  7 10  2  0  0  0  0
  7 20  1  0  0  0  0
  8 24  1  0  0  0  0
  9 24  2  0  0  0  0
 10 25  1  0  0  0  0
 11 12  2  0  0  0  0
 11 26  1  0  0  0  0
 12 27  1  0  0  0  0
 13 22  1  0  0  0  0
 13 25  2  0  0  0  0
 14 23  1  0  0  0  0
 14 30  2  0  0  0  0
 15 27  2  0  0  0  0
 15 28  1  0  0  0  0
 16 23  2  0  0  0  0
 16 65  1  0  0  0  0
 17 29  1  0  0  0  0
 18 29  1  0  0  0  0
 18 31  2  0  0  0  0
 18 32  1  0  0  0  0
 19 21  2  0  0  0  0
 19 37  1  0  0  0  0
 20 22  2  0  0  0  0
 20 38  1  0  0  0  0
 21 50  1  0  0  0  0
 22 39  1  0  0  0  0
 23 71  1  0  0  0  0
 24 80  1  0  0  0  0
 25 81  1  0  0  0  0
 26 28  2  0  0  0  0
 26 80  1  0  0  0  0
 27 82  1  0  0  0  0
 28 83  1  0  0  0  0
 29 64  2  0  0  0  0
 30 51  1  0  0  0  0
 30 65  1  0  0  0  0
 31 66  1  0  0  0  0
 31 69  1  0  0  0  0
 32 70  1  0  0  0  0
 32 75  2  0  0  0  0
 33 52  1  0  0  0  0
 33 72  1  0  0  0  0
 33 76  2  0  0  0  0
 34 61  1  0  0  0  0
 34 67  1  0  0  0  0
 34 77  2  0  0  0  0
 35 62  1  0  0  0  0
 35 73  1  0  0  0  0
 35 78  2  0  0  0  0
 36 68  1  0  0  0  0
 36 71  1  0  0  0  0
 36 79  2  0  0  0  0
 37 40  1  0  0  0  0
 38 52  1  0  0  0  0
 39 67  1  0  0  0  0
 40 42  1  0  0  0  0
 41 45  1  0  0  0  0
 41 48  1  0  0  0  0
 42 50  1  0  0  0  0
 43 46  1  0  0  0  0
 43 51  1  0  0  0  0
 44 47  1  0  0  0  0
 44 51  1  0  0  0  0
 45 53  1  0  0  0  0
 46 54  1  0  0  0  0
 47 54  1  0  0  0  0
 48 68  1  0  0  0  0
 49 53  1  0  0  0  0
 49 68  1  0  0  0  0
 50 72  1  0  0  0  0
 52 67  1  0  0  0  0
 53 66  1  0  0  0  0
 54 81  1  0  0  0  0
 55 62  1  0  0  0  0
 56 63  1  0  0  0  0
 57 63  1  0  0  0  0
 58 63  1  0  0  0  0
 59 65  1  0  0  0  0
 60 74  1  0  0  0  0
 61 63  1  0  0  0  0
 61 73  1  0  0  0  0
 62 74  1  0  0  0  0
 64 66  1  0  0  0  0
M  CHG  1  74   1
M  ISO  4  36 100  54 101  71 100  81 101
M  END
> <Batch ID>
0154

> <Smiles>
CNC(C)C(=O)NC(C(=O)N1Cc2cc([101O:1][101CH:1]3CCC(c4cc([100NH:0][100C:0](=O)N5CCCC(n6nc(-c7ccc(Oc8ccc(F)cc8F)cc7)c(C(N)=O)c6N)C5)cn4C)CC3)ccc2CC1C(=O)NC1CCCc2ccccc21)C(C)(C)C

> <Shape>
0.219

> <Color>
0.104

> <Negative vol penalty>
0.000

$$$$

  -OEChem-04052321513D

 88 98  0     1  0  0  0  0  0999 V2000
  -23.8391  -35.6465   21.3564 C   0  0  0  0  0  0  0  0  0  0  0  0
  -24.7641  -34.6101   21.4317 C   0  0  0  0  0  0  0  0  0  0  0  0
  -24.1057   -9.3192   21.9628 C   0  0  0  0  0  0  0  0  0  0  0  0
  -23.4500   -9.0428   19.6540 C   0  0  0  0  0  0  0  0  0  0  0  0
  -22.5440  -35.4597   21.8375 C   0  0  0  0  0  0  0  0  0  0  0  0
  -24.3947  -33.3865   21.9893 C   0  0  0  0  0  0  0  0  0  0  0  0
  -25.9868  -29.4405   19.2435 C   0  0  0  0  0  0  0  0  0  0  0  0
  -23.1167   -8.4158   22.3519 C   0  0  0  0  0  0  0  0  0  0  0  0
  -22.4611   -8.1392   20.0430 C   0  0  0  0  0  0  0  0  0  0  0  0
  -27.3287  -29.0817   19.3630 C   0  0  0  0  0  0  0  0  0  0  0  0
  -22.6885   -5.0622   22.4062 C   0  0  0  0  0  0  0  0  0  0  0  0
  -23.0349   -4.0831   23.3373 C   0  0  0  0  0  0  0  0  0  0  0  0
  -26.7130  -27.3071   20.8767 C   0  0  0  0  0  0  0  0  0  0  0  0
  -28.9270  -24.9365   22.7106 C   0  0  0  0  0  0  0  0  0  0  0  0
  -21.3499   -4.9255   24.8500 C   0  0  0  0  0  0  0  0  0  0  0  0
  -29.3609  -23.6355   20.3517 C   0  0  0  0  0  0  0  0  0  0  0  0
  -24.2723   -9.6328   20.6139 C   0  0  0  0  0  0  0  0  0  0  0  0
  -26.6264  -10.2723   19.8678 C   0  0  0  0  0  0  0  0  0  0  0  0
  -22.1557  -34.2301   22.3925 C   0  0  0  0  0  0  0  0  0  0  0  0
  -24.9974  -28.7411   19.9494 C   0  0  0  0  0  0  0  0  0  0  0  0
  -23.0935  -33.1836   22.4795 C   0  0  0  0  0  0  0  0  0  0  0  0
  -25.3590  -27.6575   20.7624 C   0  0  0  0  0  0  0  0  0  0  0  0
  -28.8092  -23.5518   22.6636 C   0  0  0  0  0  0  0  0  0  0  0  0
  -22.2945   -7.8258   21.3920 C   0  0  0  0  0  0  0  0  0  0  0  0
  -27.6923  -28.0167   20.1820 C   0  0  0  0  0  0  0  0  0  0  0  0
  -21.6728   -5.9730   22.6970 C   0  0  0  0  0  0  0  0  0  0  0  0
  -29.0287  -22.8813   21.4655 C   0  0  0  0  0  0  0  0  0  0  0  0
  -22.3656   -4.0148   24.5592 C   0  0  0  0  0  0  0  0  0  0  0  0
  -21.0035   -5.9046   23.9189 C   0  0  0  0  0  0  0  0  0  0  0  0
  -25.2933  -10.5664   20.2114 C   0  0  0  0  0  0  0  0  0  0  0  0
  -29.2639  -25.5986   21.5411 C   0  0  0  0  0  0  0  0  0  0  0  0
  -27.1797  -11.4921   19.5638 C   0  0  0  0  0  0  0  0  0  0  0  0
  -27.3041   -9.0095   19.8271 C   0  0  0  0  0  0  0  0  0  0  0  0
  -22.8730  -29.5068   22.1865 C   0  0  0  0  0  0  0  0  0  0  0  0
  -21.8472  -26.4681   21.7008 C   0  0  0  0  0  0  0  0  0  0  0  0
  -22.5616  -23.3034   20.6417 C   0  0  0  0  0  0  0  0  0  0  0  0
  -28.0676  -16.7039   20.4921 C   0  0  0  0  0  0  0  0  0  0  0  0
  -20.7583  -34.0909   22.9425 C   0  0  0  0  0  0  0  0  0  0  0  0
  -23.5516  -29.1238   19.7888 C   0  0  0  0  0  0  0  0  0  0  0  0
  -24.3331  -26.8615   21.5256 C   0  0  0  0  0  0  0  0  0  0  0  0
  -20.3376  -32.6424   23.1772 C   0  0  0  0  0  0  0  0  0  0  0  0
  -25.0336  -16.0117   18.8680 C   0  0  0  0  0  0  0  0  0  0  0  0
  -29.2921  -22.9815   25.1366 C   0  0  0  0  0  0  0  0  0  0  0  0
  -29.3505  -21.6937   24.3761 C   0  0  0  0  0  0  0  0  0  0  0  0
  -21.4424  -31.8754   23.8968 C   0  0  0  0  0  0  0  0  0  0  0  0
  -24.9335  -14.4968   19.0448 C   0  0  0  0  0  0  0  0  0  0  0  0
  -28.6374  -20.1900   19.3650 C   0  0  0  0  0  0  0  0  0  0  0  0
  -26.9013  -20.1927   21.2077 C   0  0  0  0  0  0  0  0  0  0  0  0
  -25.5603  -16.7020   20.1273 C   0  0  0  0  0  0  0  0  0  0  0  0
  -29.1375  -18.8382   19.8719 C   0  0  0  0  0  0  0  0  0  0  0  0
  -27.4432  -18.8435   21.6744 C   0  0  0  0  0  0  0  0  0  0  0  0
  -26.7401  -14.6355   20.8012 C   0  0  0  0  0  0  0  0  0  0  0  0
  -28.4484  -22.8025   23.9021 C   0  0  0  0  0  0  0  0  0  0  0  0
  -22.7234  -31.8337   23.0549 C   0  0  1  0  0  0  0  0  0  0  0  0
  -22.6799  -28.6680   20.9549 C   0  0  1  0  0  0  0  0  0  0  0  0
  -26.2693  -13.9079   19.5323 C   0  0  1  0  0  0  0  0  0  0  0  0
  -27.9519  -21.0124   20.4567 C   0  0  0  0  0  0  0  0  0  0  0  0
  -30.8232  -27.5510   21.8574 C   0  0  0  0  0  0  0  0  0  0  0  0
  -21.5327  -21.0273   20.4012 C   0  0  0  0  0  0  0  0  0  0  0  0
  -22.1301  -26.0252   24.7064 C   0  0  0  0  0  0  0  0  0  0  0  0
  -22.0228  -23.5600   24.2828 C   0  0  0  0  0  0  0  0  0  0  0  0
  -20.0821  -25.0111   23.6907 C   0  0  0  0  0  0  0  0  0  0  0  0
  -22.9428  -23.3138   17.7068 C   0  0  0  0  0  0  0  0  0  0  0  0
  -29.3971  -27.0850   21.5536 C   0  0  1  0  0  0  0  0  0  1  0  0
  -22.1836  -25.1192   22.2893 C   0  0  1  0  0  0  0  0  0  0  0  0
  -21.8145  -22.3572   19.7194 C   0  0  2  0  0  0  0  0  0  0  0  0
  -21.6244  -24.9449   23.7296 C   0  0  0  0  0  0  0  0  0  0  0  0
  -29.4846  -24.9817   20.3586 N   0  0  0  0  0  0  0  0  0  0  0  0
  -25.0164  -11.8707   20.1333 N   0  0  0  0  0  0  0  0  0  0  0  0
  -26.1833  -12.4071   19.7373 N   0  0  0  0  0  0  0  0  0  0  0  0
  -22.9333  -27.2784   21.3407 N   0  0  0  0  0  0  0  0  0  0  0  0
  -26.8135  -16.0806   20.5759 N   0  0  0  0  0  0  0  0  0  0  0  0
  -28.0868  -18.1063   20.5787 N   0  0  0  0  0  0  0  0  0  0  0  0
  -28.4165  -11.8606   19.1677 N   0  0  0  0  0  0  0  0  0  0  0  0
  -26.5869   -7.8551   20.1698 N   0  0  0  0  0  0  0  0  0  0  0  0
  -22.6036  -30.8493   22.0008 N   0  0  0  0  0  0  0  0  0  0  0  0
  -21.7001  -24.1260   21.3363 N   0  0  0  0  0  0  0  0  0  0  0  0
  -22.6134  -22.0946   18.4890 N   0  3  0  0  0  0  0  0  0  0  0  0
  -28.5143   -8.9096   19.5125 O   0  0  0  0  0  0  0  0  0  0  0  0
  -23.2380  -28.9751   23.2285 O   0  0  0  0  0  0  0  0  0  0  0  0
  -20.6643  -26.7880   21.5589 O   0  0  0  0  0  0  0  0  0  0  0  0
  -23.7868  -23.3096   20.7392 O   0  0  0  0  0  0  0  0  0  0  0  0
  -29.1078  -16.0502   20.3452 O   0  0  0  0  0  0  0  0  0  0  0  0
  -21.3295   -6.9439   21.7712 O   0  0  0  0  0  0  0  0  0  0  0  0
  -28.9226  -21.5187   21.3703 O   0  0  0  0  0  0  0  0  0  0  0  0
  -29.0054  -27.6636   20.3013 O   0  0  0  0  0  0  0  0  0  1  0  0
  -22.6974   -3.0736   25.4527 F   0  0  0  0  0  0  0  0  0  0  0  0
  -20.0261   -6.7761   24.2034 F   0  0  0  0  0  0  0  0  0  0  0  0
  1  2  1  0  0  0  0
  1  5  2  0  0  0  0
  2  6  2  0  0  0  0
  3  8  2  0  0  0  0
  3 17  1  0  0  0  0
  4  9  1  0  0  0  0
  4 17  2  0  0  0  0
  5 19  1  0  0  0  0
  6 21  1  0  0  0  0
  7 10  2  0  0  0  0
  7 20  1  0  0  0  0
  8 24  1  0  0  0  0
  9 24  2  0  0  0  0
 10 25  1  0  0  0  0
 11 12  2  0  0  0  0
 11 26  1  0  0  0  0
 12 28  1  0  0  0  0
 13 22  1  0  0  0  0
 13 25  2  0  0  0  0
 14 23  2  0  0  0  0
 14 31  1  0  0  0  0
 15 28  2  0  0  0  0
 15 29  1  0  0  0  0
 16 27  2  0  0  0  0
 16 68  1  0  0  0  0
 17 30  1  0  0  0  0
 18 30  1  0  0  0  0
 18 32  2  0  0  0  0
 18 33  1  0  0  0  0
 19 21  2  0  0  0  0
 19 38  1  0  0  0  0
 20 22  2  0  0  0  0
 20 39  1  0  0  0  0
 21 54  1  0  0  0  0
 22 40  1  0  0  0  0
 23 27  1  0  0  0  0
 23 53  1  0  0  0  0
 24 84  1  0  0  0  0
 25 86  1  0  0  0  0
 26 29  2  0  0  0  0
 26 84  1  0  0  0  0
 27 85  1  0  0  0  0
 28 87  1  0  0  0  0
 29 88  1  0  0  0  0
 30 69  2  0  0  0  0
 31 64  1  0  0  0  0
 31 68  2  0  0  0  0
 32 70  1  0  0  0  0
 32 74  1  0  0  0  0
 33 75  1  0  0  0  0
 33 79  2  0  0  0  0
 34 55  1  0  0  0  0
 34 76  1  0  0  0  0
 34 80  2  0  0  0  0
 35 65  1  0  0  0  0
 35 71  1  0  0  0  0
 35 81  2  0  0  0  0
 36 66  1  0  0  0  0
 36 77  1  0  0  0  0
 36 82  2  0  0  0  0
 37 72  1  0  0  0  0
 37 73  1  0  0  0  0
 37 83  2  0  0  0  0
 38 41  1  0  0  0  0
 39 55  1  0  0  0  0
 40 71  1  0  0  0  0
 41 45  1  0  0  0  0
 42 46  1  0  0  0  0
 42 49  1  0  0  0  0
 43 44  1  0  0  0  0
 43 53  1  0  0  0  0
 44 53  1  0  0  0  0
 45 54  1  0  0  0  0
 46 56  1  0  0  0  0
 47 50  1  0  0  0  0
 47 57  1  0  0  0  0
 48 51  1  0  0  0  0
 48 57  1  0  0  0  0
 49 72  1  0  0  0  0
 50 73  1  0  0  0  0
 51 73  1  0  0  0  0
 52 56  1  0  0  0  0
 52 72  1  0  0  0  0
 54 76  1  0  0  0  0
 55 71  1  0  0  0  0
 56 70  1  0  0  0  0
 57 85  1  0  0  0  0
 58 64  1  0  0  0  0
 59 66  1  0  0  0  0
 60 67  1  0  0  0  0
 61 67  1  0  0  0  0
 62 67  1  0  0  0  0
 63 78  1  0  0  0  0
 64 86  1  0  0  0  0
 65 67  1  0  0  0  0
 65 77  1  0  0  0  0
 66 78  1  0  0  0  0
 69 70  1  0  0  0  0
M  CHG  1  78   1
M  ISO  4  37 100  64 101  73 100  86 101
M  END
> <Batch ID>
0154

> <Smiles>
CNC(C)C(=O)NC(C(=O)N1Cc2cc([101O:1][101CH:1](C)c3cc(C4CC4)c(OC4CC[100N:0]([100C:0](=O)N5CCCC(n6nc(-c7ccc(Oc8ccc(F)cc8F)cc7)c(C(N)=O)c6N)C5)CC4)cn3)ccc2CC1C(=O)NC1CCCc2ccccc21)C(C)(C)C

> <Shape>
0.262

> <Color>
0.099

> <Negative vol penalty>
0.000

$$$$

  -OEChem-04052321513D

 89 98  0     1  0  0  0  0  0999 V2000
  -28.9163  -23.0655   17.0166 C   0  0  0  0  0  0  0  0  0  0  0  0
  -27.8665  -23.1718   17.9232 C   0  0  0  0  0  0  0  0  0  0  0  0
  -27.8467  -17.3989   19.5554 C   0  0  0  0  0  0  0  0  0  0  0  0
  -28.0253  -16.6942   21.8595 C   0  0  0  0  0  0  0  0  0  0  0  0
  -30.0439  -23.8730   17.1596 C   0  0  0  0  0  0  0  0  0  0  0  0
  -27.9441  -24.0850   18.9741 C   0  0  0  0  0  0  0  0  0  0  0  0
  -23.6494  -26.6937   19.6023 C   0  0  0  0  0  0  0  0  0  0  0  0
  -29.0668  -16.7847   19.2730 C   0  0  0  0  0  0  0  0  0  0  0  0
  -29.2454  -16.0800   21.5770 C   0  0  0  0  0  0  0  0  0  0  0  0
  -22.6000  -26.0457   20.2525 C   0  0  0  0  0  0  0  0  0  0  0  0
  -32.2327  -14.0170   21.3820 C   0  0  0  0  0  0  0  0  0  0  0  0
  -32.4475  -12.7357   21.8897 C   0  0  0  0  0  0  0  0  0  0  0  0
  -23.1636  -27.1965   22.2963 C   0  0  0  0  0  0  0  0  0  0  0  0
  -19.4064  -22.8103   22.5282 C   0  0  0  0  0  0  0  0  0  0  0  0
  -17.5164  -24.4716   23.7326 C   0  0  0  0  0  0  0  0  0  0  0  0
  -30.5331  -11.9267   20.6579 C   0  0  0  0  0  0  0  0  0  0  0  0
  -27.3260  -17.3537   20.8487 C   0  0  0  0  0  0  0  0  0  0  0  0
  -24.7847  -17.4103   21.0640 C   0  0  0  0  0  0  0  0  0  0  0  0
  -30.1312  -24.8033   18.2072 C   0  0  0  0  0  0  0  0  0  0  0  0
  -24.4719  -27.5913   20.2981 C   0  0  0  0  0  0  0  0  0  0  0  0
  -29.0745  -24.9047   19.1321 C   0  0  0  0  0  0  0  0  0  0  0  0
  -24.2211  -27.8566   21.6520 C   0  0  0  0  0  0  0  0  0  0  0  0
  -19.4634  -24.1898   22.3302 C   0  0  0  0  0  0  0  0  0  0  0  0
  -18.4043  -22.2613   23.3283 C   0  0  0  0  0  0  0  0  0  0  0  0
  -18.5184  -25.0205   22.9324 C   0  0  0  0  0  0  0  0  0  0  0  0
  -29.7661  -16.1253   20.2838 C   0  0  0  0  0  0  0  0  0  0  0  0
  -22.3588  -26.2948   21.6004 C   0  0  0  0  0  0  0  0  0  0  0  0
  -31.1680  -14.2532   20.5122 C   0  0  0  0  0  0  0  0  0  0  0  0
  -17.4593  -23.0920   23.9305 C   0  0  0  0  0  0  0  0  0  0  0  0
  -31.5977  -11.6906   21.5276 C   0  0  0  0  0  0  0  0  0  0  0  0
  -30.3182  -13.2080   20.1502 C   0  0  0  0  0  0  0  0  0  0  0  0
  -26.0659  -17.9884   21.1413 C   0  0  0  0  0  0  0  0  0  0  0  0
  -23.9301  -18.4180   21.4393 C   0  0  0  0  0  0  0  0  0  0  0  0
  -24.4013  -16.0813   20.6867 C   0  0  0  0  0  0  0  0  0  0  0  0
  -27.5672  -27.7059   21.0121 C   0  0  0  0  0  0  0  0  0  0  0  0
  -26.7949  -30.6396   22.1607 C   0  0  0  0  0  0  0  0  0  0  0  0
  -24.3944  -32.7280   23.3947 C   0  0  0  0  0  0  0  0  0  0  0  0
  -22.5703  -22.6341   24.8334 C   0  0  0  0  0  0  0  0  0  0  0  0
  -31.3905  -25.6212   18.3486 C   0  0  0  0  0  0  0  0  0  0  0  0
  -25.5830  -28.3025   19.5757 C   0  0  0  0  0  0  0  0  0  0  0  0
  -25.0624  -28.8268   22.4390 C   0  0  0  0  0  0  0  0  0  0  0  0
  -31.2330  -26.8273   19.2711 C   0  0  0  0  0  0  0  0  0  0  0  0
  -24.7669  -23.3590   22.1267 C   0  0  0  0  0  0  0  0  0  0  0  0
  -30.5228  -26.4247   20.5596 C   0  0  0  0  0  0  0  0  0  0  0  0
  -25.1994  -21.9794   21.6271 C   0  0  0  0  0  0  0  0  0  0  0  0
  -19.9835  -19.1883   25.9851 C   0  0  0  0  0  0  0  0  0  0  0  0
  -24.6100  -23.3857   23.6455 C   0  0  0  0  0  0  0  0  0  0  0  0
  -24.1551  -20.9640   23.6953 C   0  0  0  0  0  0  0  0  0  0  0  0
  -19.3634  -18.8363   24.6242 C   0  0  0  0  0  0  0  0  0  0  0  0
  -29.1109  -25.9008   20.2708 C   0  0  1  0  0  0  0  0  0  0  0  0
  -26.6768  -28.8079   20.5114 C   0  0  1  0  0  0  0  0  0  0  0  0
  -24.2723  -20.8725   22.1642 C   0  0  2  0  0  0  0  0  0  0  0  0
  -19.5537  -20.6368   25.6715 C   0  0  1  0  0  0  0  0  0  0  0  0
  -18.5590  -26.5003   22.7353 C   0  0  0  0  0  0  0  0  0  0  0  0
  -18.2170  -19.9959   22.2212 C   0  0  0  0  0  0  0  0  0  0  0  0
  -24.0729  -35.0533   24.2820 C   0  0  0  0  0  0  0  0  0  0  0  0
  -20.9711  -21.7041   27.4388 C   0  0  0  0  0  0  0  0  0  0  0  0
  -28.0860  -29.8093   24.7976 C   0  0  0  0  0  0  0  0  0  0  0  0
  -26.9194  -31.7338   25.8946 C   0  0  0  0  0  0  0  0  0  0  0  0
  -28.5842  -32.1541   24.0850 C   0  0  0  0  0  0  0  0  0  0  0  0
  -22.4862  -33.4119   21.2382 C   0  0  0  0  0  0  0  0  0  0  0  0
  -15.5498  -23.4936   25.2900 C   0  0  0  0  0  0  0  0  0  0  0  0
  -20.5492  -24.7577   21.4642 C   0  0  0  0  0  0  0  0  0  1  0  0
  -18.3588  -20.7826   23.5301 C   0  0  1  0  0  0  0  0  0  0  0  0
  -26.3287  -31.1778   23.4918 C   0  0  1  0  0  0  0  0  0  0  0  0
  -24.0327  -34.1617   23.0507 C   0  0  2  0  0  0  0  0  0  0  0  0
  -20.5592  -21.7296   25.9721 C   0  0  1  0  0  0  0  0  0  0  0  0
  -27.4648  -31.1990   24.5532 C   0  0  0  0  0  0  0  0  0  0  0  0
  -26.0330  -19.2644   21.5346 N   0  0  0  0  0  0  0  0  0  0  0  0
  -24.7207  -19.4965   21.7078 N   0  0  0  0  0  0  0  0  0  0  0  0
  -26.1408  -29.4924   21.6897 N   0  0  0  0  0  0  0  0  0  0  0  0
  -23.7176  -22.3123   24.0898 N   0  0  0  0  0  0  0  0  0  0  0  0
  -22.5872  -18.4779   21.5625 N   0  0  0  0  0  0  0  0  0  0  0  0
  -25.4062  -15.1718   20.3299 N   0  0  0  0  0  0  0  0  0  0  0  0
  -28.2070  -27.0008   20.0107 N   0  0  0  0  0  0  0  0  0  0  0  0
  -25.7404  -32.4849   23.2203 N   0  0  0  0  0  0  0  0  0  0  0  0
  -21.7756  -21.5581   25.2093 N   0  0  0  0  0  0  0  0  0  0  0  0
  -19.5442  -20.2509   24.2388 N   0  3  2  0  0  0  0  0  0  0  0  0
  -22.6620  -34.2249   22.4692 N   0  3  0  0  0  0  0  0  0  0  0  0
  -23.2018  -15.7160   20.6509 O   0  0  0  0  0  0  0  0  0  0  0  0
  -27.6674  -27.5109   22.2177 O   0  0  0  0  0  0  0  0  0  0  0  0
  -27.7010  -31.2200   21.5575 O   0  0  0  0  0  0  0  0  0  0  0  0
  -23.5663  -31.9071   23.7831 O   0  0  0  0  0  0  0  0  0  0  0  0
  -22.2732  -23.7950   25.1352 O   0  0  0  0  0  0  0  0  0  0  0  0
  -30.9566  -15.5256   20.0084 O   0  0  0  0  0  0  0  0  0  0  0  0
  -16.4731  -22.5720   24.7139 O   0  0  0  0  0  0  0  0  0  0  0  0
  -21.3357  -25.6631   22.2376 O   0  0  0  0  0  0  0  0  0  1  0  0
  -31.8051  -10.4599   22.0140 F   0  0  0  0  0  0  0  0  0  0  0  0
  -29.2944  -13.4285   19.3141 F   0  0  0  0  0  0  0  0  0  0  0  0
  1  2  1  0  0  0  0
  1  5  2  0  0  0  0
  2  6  2  0  0  0  0
  3  8  2  0  0  0  0
  3 17  1  0  0  0  0
  4  9  1  0  0  0  0
  4 17  2  0  0  0  0
  5 19  1  0  0  0  0
  6 21  1  0  0  0  0
  7 10  2  0  0  0  0
  7 20  1  0  0  0  0
  8 26  1  0  0  0  0
  9 26  2  0  0  0  0
 10 27  1  0  0  0  0
 11 12  2  0  0  0  0
 11 28  1  0  0  0  0
 12 30  1  0  0  0  0
 13 22  1  0  0  0  0
 13 27  2  0  0  0  0
 14 23  1  0  0  0  0
 14 24  2  0  0  0  0
 15 25  1  0  0  0  0
 15 29  2  0  0  0  0
 16 30  2  0  0  0  0
 16 31  1  0  0  0  0
 17 32  1  0  0  0  0
 18 32  1  0  0  0  0
 18 33  2  0  0  0  0
 18 34  1  0  0  0  0
 19 21  2  0  0  0  0
 19 39  1  0  0  0  0
 20 22  2  0  0  0  0
 20 40  1  0  0  0  0
 21 50  1  0  0  0  0
 22 41  1  0  0  0  0
 23 25  2  0  0  0  0
 23 63  1  0  0  0  0
 24 29  1  0  0  0  0
 24 64  1  0  0  0  0
 25 54  1  0  0  0  0
 26 85  1  0  0  0  0
 27 87  1  0  0  0  0
 28 31  2  0  0  0  0
 28 85  1  0  0  0  0
 29 86  1  0  0  0  0
 30 88  1  0  0  0  0
 31 89  1  0  0  0  0
 32 69  2  0  0  0  0
 33 70  1  0  0  0  0
 33 73  1  0  0  0  0
 34 74  1  0  0  0  0
 34 80  2  0  0  0  0
 35 51  1  0  0  0  0
 35 75  1  0  0  0  0
 35 81  2  0  0  0  0
 36 65  1  0  0  0  0
 36 71  1  0  0  0  0
 36 82  2  0  0  0  0
 37 66  1  0  0  0  0
 37 76  1  0  0  0  0
 37 83  2  0  0  0  0
 38 72  1  0  0  0  0
 38 77  1  0  0  0  0
 38 84  2  0  0  0  0
 39 42  1  0  0  0  0
 40 51  1  0  0  0  0
 41 71  1  0  0  0  0
 42 44  1  0  0  0  0
 43 45  1  0  0  0  0
 43 47  1  0  0  0  0
 44 50  1  0  0  0  0
 45 52  1  0  0  0  0
 46 49  1  0  0  0  0
 46 53  1  0  0  0  0
 47 72  1  0  0  0  0
 48 52  1  0  0  0  0
 48 72  1  0  0  0  0
 49 78  1  0  0  0  0
 50 75  1  0  0  0  0
 51 71  1  0  0  0  0
 52 70  1  0  0  0  0
 53 67  1  0  0  0  0
 53 78  1  0  0  0  0
 55 64  1  0  0  0  0
 56 66  1  0  0  0  0
 57 67  1  0  0  0  0
 58 68  1  0  0  0  0
 59 68  1  0  0  0  0
 60 68  1  0  0  0  0
 61 79  1  0  0  0  0
 62 86  1  0  0  0  0
 63 87  1  0  0  0  0
 64 78  1  0  0  0  0
 65 68  1  0  0  0  0
 65 76  1  0  0  0  0
 66 79  1  0  0  0  0
 67 77  1  0  0  0  0
 69 70  1  0  0  0  0
M  CHG  2  78   1  79   1
M  ISO  4  38 100  63 101  77 100  87 101
M  END
> <Batch ID>
0154

> <Smiles>
CNC(C)C(=O)NC(C(=O)N1Cc2cc([101O:1][101CH2:1]c3cc(C(C)N4CCC4C(C)[100NH:0][100C:0](=O)N4CCCC(n5nc(-c6ccc(Oc7ccc(F)cc7F)cc6)c(C(N)=O)c5N)C4)c(OC)cc3C)ccc2CC1C(=O)NC1CCCc2ccccc21)C(C)(C)C

> <Shape>
0.220

> <Color>
0.052

> <Negative vol penalty>
0.000

$$$$

  -OEChem-04052321513D

 89 98  0     1  0  0  0  0  0999 V2000
  -23.5806  -34.3968   21.3129 C   0  0  0  0  0  0  0  0  0  0  0  0
  -23.3774  -33.0527   21.6085 C   0  0  0  0  0  0  0  0  0  0  0  0
  -23.1672   -9.6863   20.0421 C   0  0  0  0  0  0  0  0  0  0  0  0
  -23.8504   -9.8988   22.3497 C   0  0  0  0  0  0  0  0  0  0  0  0
  -24.1692  -34.7620   20.1028 C   0  0  0  0  0  0  0  0  0  0  0  0
  -23.7616  -32.0729   20.6937 C   0  0  0  0  0  0  0  0  0  0  0  0
  -26.1825  -28.2057   22.8910 C   0  0  0  0  0  0  0  0  0  0  0  0
  -22.4674   -8.5214   20.3565 C   0  0  0  0  0  0  0  0  0  0  0  0
  -23.1506   -8.7338   22.6641 C   0  0  0  0  0  0  0  0  0  0  0  0
  -25.4024  -27.2641   23.5608 C   0  0  0  0  0  0  0  0  0  0  0  0
  -19.9430   -7.8330   23.2302 C   0  0  0  0  0  0  0  0  0  0  0  0
  -19.1506   -7.8446   24.3780 C   0  0  0  0  0  0  0  0  0  0  0  0
  -25.5527  -25.7928   21.6550 C   0  0  0  0  0  0  0  0  0  0  0  0
  -28.9474  -19.1254   21.9163 C   0  0  0  0  0  0  0  0  0  0  0  0
  -29.4246  -17.7816   23.8665 C   0  0  0  0  0  0  0  0  0  0  0  0
  -20.4520   -6.0272   25.2948 C   0  0  0  0  0  0  0  0  0  0  0  0
  -23.8587  -10.3750   21.0387 C   0  0  0  0  0  0  0  0  0  0  0  0
  -24.0919  -12.8975   20.7384 C   0  0  0  0  0  0  0  0  0  0  0  0
  -24.5697  -33.7858   19.1769 C   0  0  0  0  0  0  0  0  0  0  0  0
  -26.6453  -27.9520   21.5918 C   0  0  0  0  0  0  0  0  0  0  0  0
  -24.3549  -32.4254   19.4695 C   0  0  0  0  0  0  0  0  0  0  0  0
  -26.3407  -26.7317   20.9719 C   0  0  0  0  0  0  0  0  0  0  0  0
  -27.9162  -19.6613   24.0344 C   0  0  0  0  0  0  0  0  0  0  0  0
  -29.6093  -18.0509   22.5104 C   0  0  0  0  0  0  0  0  0  0  0  0
  -28.1009  -19.9307   22.6784 C   0  0  0  0  0  0  0  0  0  0  0  0
  -28.5781  -18.5868   24.6285 C   0  0  0  0  0  0  0  0  0  0  0  0
  -22.4591   -8.0452   21.6675 C   0  0  0  0  0  0  0  0  0  0  0  0
  -25.0849  -26.0587   22.9417 C   0  0  0  0  0  0  0  0  0  0  0  0
  -20.9899   -6.9184   23.1146 C   0  0  0  0  0  0  0  0  0  0  0  0
  -19.4051   -6.9418   25.4103 C   0  0  0  0  0  0  0  0  0  0  0  0
  -21.2444   -6.0155   24.1469 C   0  0  0  0  0  0  0  0  0  0  0  0
  -24.5822  -11.5781   20.7144 C   0  0  0  0  0  0  0  0  0  0  0  0
  -25.1611  -13.6682   20.3517 C   0  0  0  0  0  0  0  0  0  0  0  0
  -22.7868  -13.3831   21.0796 C   0  0  0  0  0  0  0  0  0  0  0  0
  -26.2224  -29.3186   18.7533 C   0  0  0  0  0  0  0  0  0  0  0  0
  -28.4600  -27.1645   17.8176 C   0  0  0  0  0  0  0  0  0  0  0  0
  -30.0167  -24.1784   18.3710 C   0  0  0  0  0  0  0  0  0  0  0  0
  -30.5851  -14.9534   20.6235 C   0  0  0  0  0  0  0  0  0  0  0  0
  -25.1586  -34.2310   17.8617 C   0  0  0  0  0  0  0  0  0  0  0  0
  -27.5081  -28.9668   20.8932 C   0  0  0  0  0  0  0  0  0  0  0  0
  -26.8298  -26.4025   19.5860 C   0  0  0  0  0  0  0  0  0  0  0  0
  -25.8792  -33.1158   17.1085 C   0  0  0  0  0  0  0  0  0  0  0  0
  -29.6332  -12.3480   18.3913 C   0  0  0  0  0  0  0  0  0  0  0  0
  -25.0306  -31.8483   17.0913 C   0  0  0  0  0  0  0  0  0  0  0  0
  -28.1968  -12.0204   18.8028 C   0  0  0  0  0  0  0  0  0  0  0  0
  -25.5802  -20.4109   24.2843 C   0  0  0  0  0  0  0  0  0  0  0  0
  -30.4998  -12.6998   19.5985 C   0  0  0  0  0  0  0  0  0  0  0  0
  -28.5231  -13.4420   20.8695 C   0  0  0  0  0  0  0  0  0  0  0  0
  -24.6034  -21.3217   25.0118 C   0  0  0  0  0  0  0  0  0  0  0  0
  -26.4606  -22.8981   25.5771 C   0  0  0  0  0  0  0  0  0  0  0  0
  -27.0069  -20.5257   24.8522 C   0  0  2  0  0  0  0  0  0  0  0  0
  -24.7808  -31.3324   18.5136 C   0  0  1  0  0  0  0  0  0  0  0  0
  -27.4954  -28.8180   19.3749 C   0  0  1  0  0  0  0  0  0  0  0  0
  -27.4800  -22.0029   24.8605 C   0  0  2  0  0  0  0  0  0  0  0  0
  -27.5967  -13.1353   19.6803 C   0  0  2  0  0  0  0  0  0  0  0  0
  -27.4030  -21.0745   22.0179 C   0  0  0  0  0  0  0  0  0  0  0  0
  -28.3972  -18.2771   26.0788 C   0  0  0  0  0  0  0  0  0  0  0  0
  -28.8457  -22.1608   25.5392 C   0  0  0  0  0  0  0  0  0  0  0  0
  -31.7783  -22.6683   17.4150 C   0  0  0  0  0  0  0  0  0  0  0  0
  -26.5139  -26.2758   15.6421 C   0  0  0  0  0  0  0  0  0  0  0  0
  -27.8878  -24.2022   15.3576 C   0  0  0  0  0  0  0  0  0  0  0  0
  -28.8986  -26.4376   14.9060 C   0  0  0  0  0  0  0  0  0  0  0  0
  -31.6757  -24.3749   20.8140 C   0  0  0  0  0  0  0  0  0  0  0  0
  -30.5148  -17.1904   21.6958 C   0  0  0  0  0  0  0  0  0  0  0  0
  -24.1049  -23.7094   25.5149 C   0  0  0  0  0  0  0  0  0  0  0  0
  -24.4182  -25.1064   25.0165 C   0  0  0  0  0  0  0  0  0  1  0  0
  -28.4281  -25.7494   17.2928 C   0  0  1  0  0  0  0  0  0  0  0  0
  -31.4859  -23.7969   18.3914 C   0  0  2  0  0  0  0  0  0  0  0  0
  -27.9211  -25.6730   15.8250 C   0  0  0  0  0  0  0  0  0  0  0  0
  -25.8631  -11.5107   20.3419 N   0  0  0  0  0  0  0  0  0  0  0  0
  -26.1867  -12.7974   20.1281 N   0  0  0  0  0  0  0  0  0  0  0  0
  -27.6649  -27.4296   18.9417 N   0  0  0  0  0  0  0  0  0  0  0  0
  -29.8754  -13.7643   20.3877 N   0  0  0  0  0  0  0  0  0  0  0  0
  -25.3145  -14.9989   20.1846 N   0  0  0  0  0  0  0  0  0  0  0  0
  -21.8057  -12.4551   21.4548 N   0  0  0  0  0  0  0  0  0  0  0  0
  -25.9529  -30.6482   19.0161 N   0  0  0  0  0  0  0  0  0  0  0  0
  -29.7692  -25.2104   17.4906 N   0  0  0  0  0  0  0  0  0  0  0  0
  -29.9180  -15.9131   21.3750 N   0  0  0  0  0  0  0  0  0  0  0  0
  -25.0896  -22.7543   24.9471 N   0  3  2  0  0  0  0  0  0  0  0  0
  -31.8869  -23.3532   19.7565 N   0  3  0  0  0  0  0  0  0  0  0  0
  -22.4944  -14.6022   21.0369 O   0  0  0  0  0  0  0  0  0  0  0  0
  -25.5363  -28.5556   18.0835 O   0  0  0  0  0  0  0  0  0  0  0  0
  -29.1698  -28.0022   17.2554 O   0  0  0  0  0  0  0  0  0  0  0  0
  -29.1724  -23.6146   19.0637 O   0  0  0  0  0  0  0  0  0  0  0  0
  -31.7264  -15.1476   20.1915 O   0  0  0  0  0  0  0  0  0  0  0  0
  -21.7762   -6.9086   21.9747 O   0  0  0  0  0  0  0  0  0  0  0  0
  -24.3231  -25.1382   23.5930 O   0  0  0  0  0  0  0  0  0  1  0  0
  -18.6451   -6.9541   26.5132 F   0  0  0  0  0  0  0  0  0  0  0  0
  -22.2494   -5.1353   24.0421 F   0  0  0  0  0  0  0  0  0  0  0  0
  1  2  1  0  0  0  0
  1  5  2  0  0  0  0
  2  6  2  0  0  0  0
  3  8  2  0  0  0  0
  3 17  1  0  0  0  0
  4  9  1  0  0  0  0
  4 17  2  0  0  0  0
  5 19  1  0  0  0  0
  6 21  1  0  0  0  0
  7 10  2  0  0  0  0
  7 20  1  0  0  0  0
  8 27  1  0  0  0  0
  9 27  2  0  0  0  0
 10 28  1  0  0  0  0
 11 12  2  0  0  0  0
 11 29  1  0  0  0  0
 12 30  1  0  0  0  0
 13 22  1  0  0  0  0
 13 28  2  0  0  0  0
 14 24  1  0  0  0  0
 14 25  2  0  0  0  0
 15 24  2  0  0  0  0
 15 26  1  0  0  0  0
 16 30  2  0  0  0  0
 16 31  1  0  0  0  0
 17 32  1  0  0  0  0
 18 32  1  0  0  0  0
 18 33  2  0  0  0  0
 18 34  1  0  0  0  0
 19 21  2  0  0  0  0
 19 39  1  0  0  0  0
 20 22  2  0  0  0  0
 20 40  1  0  0  0  0
 21 52  1  0  0  0  0
 22 41  1  0  0  0  0
 23 25  1  0  0  0  0
 23 26  2  0  0  0  0
 23 51  1  0  0  0  0
 24 64  1  0  0  0  0
 25 56  1  0  0  0  0
 26 57  1  0  0  0  0
 27 86  1  0  0  0  0
 28 87  1  0  0  0  0
 29 31  2  0  0  0  0
 29 86  1  0  0  0  0
 30 88  1  0  0  0  0
 31 89  1  0  0  0  0
 32 70  2  0  0  0  0
 33 71  1  0  0  0  0
 33 74  1  0  0  0  0
 34 75  1  0  0  0  0
 34 81  2  0  0  0  0
 35 53  1  0  0  0  0
 35 76  1  0  0  0  0
 35 82  2  0  0  0  0
 36 67  1  0  0  0  0
 36 72  1  0  0  0  0
 36 83  2  0  0  0  0
 37 68  1  0  0  0  0
 37 77  1  0  0  0  0
 37 84  2  0  0  0  0
 38 73  1  0  0  0  0
 38 78  1  0  0  0  0
 38 85  2  0  0  0  0
 39 42  1  0  0  0  0
 40 53  1  0  0  0  0
 41 72  1  0  0  0  0
 42 44  1  0  0  0  0
 43 45  1  0  0  0  0
 43 47  1  0  0  0  0
 44 52  1  0  0  0  0
 45 55  1  0  0  0  0
 46 49  1  0  0  0  0
 46 51  1  0  0  0  0
 47 73  1  0  0  0  0
 48 55  1  0  0  0  0
 48 73  1  0  0  0  0
 49 79  1  0  0  0  0
 50 54  1  0  0  0  0
 50 79  1  0  0  0  0
 51 54  1  0  0  0  0
 52 76  1  0  0  0  0
 53 72  1  0  0  0  0
 54 58  1  0  0  0  0
 55 71  1  0  0  0  0
 59 68  1  0  0  0  0
 60 69  1  0  0  0  0
 61 69  1  0  0  0  0
 62 69  1  0  0  0  0
 63 80  1  0  0  0  0
 64 78  1  0  0  0  0
 65 66  1  0  0  0  0
 65 79  1  0  0  0  0
 66 87  1  0  0  0  0
 67 69  1  0  0  0  0
 67 77  1  0  0  0  0
 68 80  1  0  0  0  0
 70 71  1  0  0  0  0
M  CHG  2  79   1  80   1
M  ISO  4  38 100  66 101  78 100  87 101
M  END
> <Batch ID>
0154

> <Smiles>
CNC(C)C(=O)NC(C(=O)N1Cc2cc([101O:1][101CH2:1]CN3CCC(c4c(C)cc(C[100NH:0][100C:0](=O)N5CCCC(n6nc(-c7ccc(Oc8ccc(F)cc8F)cc7)c(C(N)=O)c6N)C5)cc4C)C(C)C3)ccc2CC1C(=O)NC1CCCc2ccccc21)C(C)(C)C

> <Shape>
0.244

> <Color>
0.200

> <Negative vol penalty>
0.000

$$$$

  -OEChem-04052321513D

 85 93  0     1  0  0  0  0  0999 V2000
  -29.9963  -35.8268   23.7952 C   0  0  0  0  0  0  0  0  0  0  0  0
  -30.1917  -34.9464   22.7360 C   0  0  0  0  0  0  0  0  0  0  0  0
  -22.9606  -10.1666   19.9029 C   0  0  0  0  0  0  0  0  0  0  0  0
  -24.0198   -9.5717   21.9913 C   0  0  0  0  0  0  0  0  0  0  0  0
  -29.2436  -35.4304   24.8999 C   0  0  0  0  0  0  0  0  0  0  0  0
  -29.6353  -33.6685   22.7812 C   0  0  0  0  0  0  0  0  0  0  0  0
  -26.8587  -28.6340   18.5081 C   0  0  0  0  0  0  0  0  0  0  0  0
  -22.1956   -9.0017   19.9590 C   0  0  0  0  0  0  0  0  0  0  0  0
  -23.2547   -8.4067   22.0475 C   0  0  0  0  0  0  0  0  0  0  0  0
  -26.9935  -27.2782   18.2123 C   0  0  0  0  0  0  0  0  0  0  0  0
  -20.0977   -7.5400   22.8860 C   0  0  0  0  0  0  0  0  0  0  0  0
  -19.5032   -7.2151   24.1052 C   0  0  0  0  0  0  0  0  0  0  0  0
  -25.6452  -26.7306   20.1363 C   0  0  0  0  0  0  0  0  0  0  0  0
  -28.6607  -21.7734   21.8080 C   0  0  0  0  0  0  0  0  0  0  0  0
  -20.7252   -5.1313   24.1457 C   0  0  0  0  0  0  0  0  0  0  0  0
  -23.8728  -10.4516   20.9191 C   0  0  0  0  0  0  0  0  0  0  0  0
  -24.3317  -12.9165   21.3896 C   0  0  0  0  0  0  0  0  0  0  0  0
  -28.6696  -34.1505   24.9544 C   0  0  0  0  0  0  0  0  0  0  0  0
  -26.1240  -29.0485   19.6283 C   0  0  0  0  0  0  0  0  0  0  0  0
  -28.8753  -33.2542   23.8882 C   0  0  0  0  0  0  0  0  0  0  0  0
  -25.5005  -28.0923   20.4427 C   0  0  0  0  0  0  0  0  0  0  0  0
  -28.9683  -20.5207   22.3272 C   0  0  0  0  0  0  0  0  0  0  0  0
  -29.1051  -19.4339   21.4709 C   0  0  0  0  0  0  0  0  0  0  0  0
  -22.3426   -8.1217   21.0313 C   0  0  0  0  0  0  0  0  0  0  0  0
  -26.3891  -26.3261   19.0281 C   0  0  0  0  0  0  0  0  0  0  0  0
  -21.0060   -6.6606   22.2966 C   0  0  0  0  0  0  0  0  0  0  0  0
  -19.8169   -6.0107   24.7351 C   0  0  0  0  0  0  0  0  0  0  0  0
  -21.3198   -5.4563   22.9265 C   0  0  0  0  0  0  0  0  0  0  0  0
  -24.6638  -11.6546   20.8614 C   0  0  0  0  0  0  0  0  0  0  0  0
  -28.9257  -19.6505   20.1142 C   0  0  0  0  0  0  0  0  0  0  0  0
  -28.5014  -21.8854   20.4361 C   0  0  0  0  0  0  0  0  0  0  0  0
  -25.4044  -13.7140   21.0738 C   0  0  0  0  0  0  0  0  0  0  0  0
  -23.1584  -13.3307   22.1021 C   0  0  0  0  0  0  0  0  0  0  0  0
  -26.8046  -30.6429   22.2926 C   0  0  0  0  0  0  0  0  0  0  0  0
  -23.5970  -30.4787   22.7470 C   0  0  0  0  0  0  0  0  0  0  0  0
  -20.6555  -28.8788   22.0874 C   0  0  0  0  0  0  0  0  0  0  0  0
  -30.9110  -14.5507   20.7250 C   0  0  0  0  0  0  0  0  0  0  0  0
  -27.9034  -33.7505   26.1904 C   0  0  0  0  0  0  0  0  0  0  0  0
  -25.9659  -30.5158   19.9185 C   0  0  0  0  0  0  0  0  0  0  0  0
  -24.6841  -28.4862   21.6455 C   0  0  0  0  0  0  0  0  0  0  0  0
  -27.0346  -32.5109   25.9939 C   0  0  0  0  0  0  0  0  0  0  0  0
  -29.3370  -12.8788   18.0040 C   0  0  0  0  0  0  0  0  0  0  0  0
  -27.8222  -31.4139   25.2846 C   0  0  0  0  0  0  0  0  0  0  0  0
  -27.9566  -12.5102   18.5505 C   0  0  0  0  0  0  0  0  0  0  0  0
  -30.4171  -12.7677   19.0778 C   0  0  0  0  0  0  0  0  0  0  0  0
  -28.7604  -13.1534   20.8611 C   0  0  0  0  0  0  0  0  0  0  0  0
  -28.2672  -31.8684   23.8893 C   0  0  1  0  0  0  0  0  0  0  0  0
  -25.6238  -30.8030   21.3773 C   0  0  1  0  0  0  0  0  0  0  0  0
  -27.6294  -13.3043   19.8293 C   0  0  2  0  0  0  0  0  0  0  0  0
  -29.1466  -20.3688   23.8017 C   0  0  0  0  0  0  0  0  0  0  0  0
  -29.0593  -18.5214   19.1454 C   0  0  0  0  0  0  0  0  0  0  0  0
  -18.2071  -28.9537   22.6323 C   0  0  0  0  0  0  0  0  0  0  0  0
  -24.1733  -29.2751   25.4909 C   0  0  0  0  0  0  0  0  0  0  0  0
  -21.7910  -28.5102   25.5786 C   0  0  0  0  0  0  0  0  0  0  0  0
  -22.3131  -30.9463   25.4547 C   0  0  0  0  0  0  0  0  0  0  0  0
  -19.9194  -29.3082   19.2532 C   0  0  0  0  0  0  0  0  0  0  0  0
  -29.4339  -18.0785   22.0005 C   0  0  0  0  0  0  0  0  0  0  0  0
  -30.9145  -17.6774   21.8510 C   0  0  0  0  0  0  0  0  0  0  0  0
  -31.2581  -16.3108   22.4399 C   0  0  0  0  0  0  0  0  0  0  0  0
  -27.7190  -24.5948   18.0848 C   0  0  0  0  0  0  0  0  0  1  0  0
  -28.0446  -23.1695   18.4873 C   0  0  0  0  0  0  0  0  0  0  0  0
  -22.6600  -29.4988   23.4110 C   0  0  1  0  0  0  0  0  0  0  0  0
  -19.2943  -29.4050   21.6695 C   0  0  2  0  0  0  0  0  0  0  0  0
  -22.7513  -29.5498   24.9623 C   0  0  0  0  0  0  0  0  0  0  0  0
  -25.8543  -11.6461   20.2558 N   0  0  0  0  0  0  0  0  0  0  0  0
  -28.6263  -20.8526   19.5728 N   0  0  0  0  0  0  0  0  0  0  0  0
  -26.2795  -12.9126   20.4015 N   0  0  0  0  0  0  0  0  0  0  0  0
  -24.5641  -29.9328   21.8912 N   0  0  0  0  0  0  0  0  0  0  0  0
  -30.0465  -13.5446   20.2631 N   0  0  0  0  0  0  0  0  0  0  0  0
  -25.6749  -15.0157   21.3082 N   0  0  0  0  0  0  0  0  0  0  0  0
  -22.1530  -12.3841   22.3414 N   0  0  0  0  0  0  0  0  0  0  0  0
  -27.1610  -31.7999   22.9587 N   0  0  0  0  0  0  0  0  0  0  0  0
  -21.3306  -29.7819   22.8810 N   0  0  0  0  0  0  0  0  0  0  0  0
  -30.4811  -15.2434   21.8502 N   0  0  0  0  0  0  0  0  0  0  0  0
  -18.9465  -28.9163   20.3053 N   0  3  0  0  0  0  0  0  0  0  0  0
  -22.9989  -14.5096   22.4999 O   0  0  0  0  0  0  0  0  0  0  0  0
  -27.3509  -29.5501   22.3886 O   0  0  0  0  0  0  0  0  0  0  0  0
  -23.4706  -31.6847   22.9736 O   0  0  0  0  0  0  0  0  0  0  0  0
  -21.0762  -27.7753   21.7471 O   0  0  0  0  0  0  0  0  0  0  0  0
  -31.9839  -14.8159   20.1722 O   0  0  0  0  0  0  0  0  0  0  0  0
  -21.5960   -6.9850   21.0865 O   0  0  0  0  0  0  0  0  0  0  0  0
  -26.5196  -25.0021   18.7420 O   0  0  0  0  0  0  0  0  0  1  0  0
  -28.1975  -23.1091   19.9002 O   0  0  0  0  0  0  0  0  0  0  0  0
  -19.2471   -5.6995   25.9067 F   0  0  0  0  0  0  0  0  0  0  0  0
  -22.1925   -4.6079   22.3657 F   0  0  0  0  0  0  0  0  0  0  0  0
  1  2  1  0  0  0  0
  1  5  2  0  0  0  0
  2  6  2  0  0  0  0
  3  8  2  0  0  0  0
  3 16  1  0  0  0  0
  4  9  1  0  0  0  0
  4 16  2  0  0  0  0
  5 18  1  0  0  0  0
  6 20  1  0  0  0  0
  7 10  2  0  0  0  0
  7 19  1  0  0  0  0
  8 24  1  0  0  0  0
  9 24  2  0  0  0  0
 10 25  1  0  0  0  0
 11 12  2  0  0  0  0
 11 26  1  0  0  0  0
 12 27  1  0  0  0  0
 13 21  1  0  0  0  0
 13 25  2  0  0  0  0
 14 22  2  0  0  0  0
 14 31  1  0  0  0  0
 15 27  2  0  0  0  0
 15 28  1  0  0  0  0
 16 29  1  0  0  0  0
 17 29  1  0  0  0  0
 17 32  2  0  0  0  0
 17 33  1  0  0  0  0
 18 20  2  0  0  0  0
 18 38  1  0  0  0  0
 19 21  2  0  0  0  0
 19 39  1  0  0  0  0
 20 47  1  0  0  0  0
 21 40  1  0  0  0  0
 22 23  1  0  0  0  0
 22 50  1  0  0  0  0
 23 30  2  0  0  0  0
 23 57  1  0  0  0  0
 24 81  1  0  0  0  0
 25 82  1  0  0  0  0
 26 28  2  0  0  0  0
 26 81  1  0  0  0  0
 27 84  1  0  0  0  0
 28 85  1  0  0  0  0
 29 65  2  0  0  0  0
 30 51  1  0  0  0  0
 30 66  1  0  0  0  0
 31 66  2  0  0  0  0
 31 83  1  0  0  0  0
 32 67  1  0  0  0  0
 32 70  1  0  0  0  0
 33 71  1  0  0  0  0
 33 76  2  0  0  0  0
 34 48  1  0  0  0  0
 34 72  1  0  0  0  0
 34 77  2  0  0  0  0
 35 62  1  0  0  0  0
 35 68  1  0  0  0  0
 35 78  2  0  0  0  0
 36 63  1  0  0  0  0
 36 73  1  0  0  0  0
 36 79  2  0  0  0  0
 37 69  1  0  0  0  0
 37 74  1  0  0  0  0
 37 80  2  0  0  0  0
 38 41  1  0  0  0  0
 39 48  1  0  0  0  0
 40 68  1  0  0  0  0
 41 43  1  0  0  0  0
 42 44  1  0  0  0  0
 42 45  1  0  0  0  0
 43 47  1  0  0  0  0
 44 49  1  0  0  0  0
 45 69  1  0  0  0  0
 46 49  1  0  0  0  0
 46 69  1  0  0  0  0
 47 72  1  0  0  0  0
 48 68  1  0  0  0  0
 49 67  1  0  0  0  0
 52 63  1  0  0  0  0
 53 64  1  0  0  0  0
 54 64  1  0  0  0  0
 55 64  1  0  0  0  0
 56 75  1  0  0  0  0
 57 58  1  0  0  0  0
 58 59  1  0  0  0  0
 59 74  1  0  0  0  0
 60 61  1  0  0  0  0
 60 82  1  0  0  0  0
 61 83  1  0  0  0  0
 62 64  1  0  0  0  0
 62 73  1  0  0  0  0
 63 75  1  0  0  0  0
 65 67  1  0  0  0  0
M  CHG  1  75   1
M  ISO  4  37 100  60 101  74 100  82 101
M  END
> <Batch ID>
0154

> <Smiles>
CNC(C)C(=O)NC(C(=O)N1Cc2cc([101O:1][101CH2:1]COc3cc(C)c(CCC[100NH:0][100C:0](=O)N4CCCC(n5nc(-c6ccc(Oc7ccc(F)cc7F)cc6)c(C(N)=O)c5N)C4)c(C)n3)ccc2CC1C(=O)NC1CCCc2ccccc21)C(C)(C)C

> <Shape>
0.393

> <Color>
0.209

> <Negative vol penalty>
0.000

$$$$

  -OEChem-04052321513D

 85 94  0     1  0  0  0  0  0999 V2000
  -34.5119  -31.2398   20.7407 C   0  0  0  0  0  0  0  0  0  0  0  0
  -34.7515  -30.1018   19.9772 C   0  0  0  0  0  0  0  0  0  0  0  0
  -23.2618   -9.7574   20.0348 C   0  0  0  0  0  0  0  0  0  0  0  0
  -23.7384  -10.0074   22.3901 C   0  0  0  0  0  0  0  0  0  0  0  0
  -33.4204  -31.2793   21.6073 C   0  0  0  0  0  0  0  0  0  0  0  0
  -33.9004  -29.0021   20.0808 C   0  0  0  0  0  0  0  0  0  0  0  0
  -32.2943  -25.1545   15.5950 C   0  0  0  0  0  0  0  0  0  0  0  0
  -22.5276   -8.6028   20.3059 C   0  0  0  0  0  0  0  0  0  0  0  0
  -23.0042   -8.8528   22.6612 C   0  0  0  0  0  0  0  0  0  0  0  0
  -32.7578  -23.8905   15.2327 C   0  0  0  0  0  0  0  0  0  0  0  0
  -19.7519   -7.9826   22.9546 C   0  0  0  0  0  0  0  0  0  0  0  0
  -18.8606   -8.0201   24.0267 C   0  0  0  0  0  0  0  0  0  0  0  0
  -30.9674  -22.8791   16.4939 C   0  0  0  0  0  0  0  0  0  0  0  0
  -31.6139  -15.3778   14.8877 C   0  0  0  0  0  0  0  0  0  0  0  0
  -31.8014  -16.8934   16.7599 C   0  0  0  0  0  0  0  0  0  0  0  0
  -20.0607   -6.2115   25.0877 C   0  0  0  0  0  0  0  0  0  0  0  0
  -23.8673  -10.4597   21.0769 C   0  0  0  0  0  0  0  0  0  0  0  0
  -24.1462  -12.9748   20.7543 C   0  0  0  0  0  0  0  0  0  0  0  0
  -32.5499  -30.1832   21.7144 C   0  0  0  0  0  0  0  0  0  0  0  0
  -31.1684  -25.2903   16.4199 C   0  0  0  0  0  0  0  0  0  0  0  0
  -32.7970  -29.0265   20.9507 C   0  0  0  0  0  0  0  0  0  0  0  0
  -30.4901  -24.1460   16.8632 C   0  0  0  0  0  0  0  0  0  0  0  0
  -32.2907  -17.6684   14.5245 C   0  0  0  0  0  0  0  0  0  0  0  0
  -32.0026  -16.3997   14.0215 C   0  0  0  0  0  0  0  0  0  0  0  0
  -22.3988   -8.1505   21.6191 C   0  0  0  0  0  0  0  0  0  0  0  0
  -32.0960  -22.7525   15.6845 C   0  0  0  0  0  0  0  0  0  0  0  0
  -20.7977   -7.0595   22.9489 C   0  0  0  0  0  0  0  0  0  0  0  0
  -31.5133  -15.6246   16.2569 C   0  0  0  0  0  0  0  0  0  0  0  0
  -19.0149   -7.1346   25.0933 C   0  0  0  0  0  0  0  0  0  0  0  0
  -32.1901  -17.9153   15.8937 C   0  0  0  0  0  0  0  0  0  0  0  0
  -20.9521   -6.1740   24.0155 C   0  0  0  0  0  0  0  0  0  0  0  0
  -24.6263  -11.6521   20.7974 C   0  0  0  0  0  0  0  0  0  0  0  0
  -25.2516  -13.7315   20.4512 C   0  0  0  0  0  0  0  0  0  0  0  0
  -22.8197  -13.4747   20.9692 C   0  0  0  0  0  0  0  0  0  0  0  0
  -30.6322  -26.5299   19.2973 C   0  0  0  0  0  0  0  0  0  0  0  0
  -27.5386  -25.8752   18.5739 C   0  0  0  0  0  0  0  0  0  0  0  0
  -25.3159  -24.0219   16.7652 C   0  0  0  0  0  0  0  0  0  0  0  0
  -29.7428  -14.5192   17.3301 C   0  0  0  0  0  0  0  0  0  0  0  0
  -31.4104  -30.2547   22.6999 C   0  0  0  0  0  0  0  0  0  0  0  0
  -30.6653  -26.6613   16.7798 C   0  0  0  0  0  0  0  0  0  0  0  0
  -29.2648  -24.2380   17.7341 C   0  0  0  0  0  0  0  0  0  0  0  0
  -30.3414  -29.1888   22.4734 C   0  0  0  0  0  0  0  0  0  0  0  0
  -30.1542  -12.5265   20.3459 C   0  0  0  0  0  0  0  0  0  0  0  0
  -30.9862  -27.8227   22.2613 C   0  0  0  0  0  0  0  0  0  0  0  0
  -28.7043  -12.1995   20.7023 C   0  0  0  0  0  0  0  0  0  0  0  0
  -31.7285  -19.9737   13.6763 C   0  0  0  0  0  0  0  0  0  0  0  0
  -34.0015  -20.8070   13.5371 C   0  0  0  0  0  0  0  0  0  0  0  0
  -30.3623  -12.5832   18.8352 C   0  0  0  0  0  0  0  0  0  0  0  0
  -27.9851  -13.2058   18.4927 C   0  0  0  0  0  0  0  0  0  0  0  0
  -32.7074  -18.7743   13.6150 C   0  0  1  0  0  0  0  0  0  0  0  0
  -31.8822  -27.8228   21.0168 C   0  0  1  0  0  0  0  0  0  0  0  0
  -29.8135  -26.6720   18.0454 C   0  0  1  0  0  0  0  0  0  0  0  0
  -27.7330  -13.1712   20.0092 C   0  0  1  0  0  0  0  0  0  0  0  0
  -34.0672  -19.3635   14.0146 C   0  0  1  0  0  0  0  0  0  0  0  0
  -32.5893  -21.2143   13.9391 C   0  0  2  0  0  0  0  0  0  1  0  0
  -32.1038  -16.1116   12.5597 C   0  0  0  0  0  0  0  0  0  0  0  0
  -22.8533  -23.6875   16.4172 C   0  0  0  0  0  0  0  0  0  0  0  0
  -27.3756  -24.3492   21.2111 C   0  0  0  0  0  0  0  0  0  0  0  0
  -25.2749  -23.2719   20.3776 C   0  0  0  0  0  0  0  0  0  0  0  0
  -25.3678  -25.7453   20.6879 C   0  0  0  0  0  0  0  0  0  0  0  0
  -25.4981  -24.7827   13.9109 C   0  0  0  0  0  0  0  0  0  0  0  0
  -26.6240  -24.6894   18.7646 C   0  0  1  0  0  0  0  0  0  0  0  0
  -24.1000  -24.4218   15.9490 C   0  0  2  0  0  0  0  0  0  0  0  0
  -26.1848  -24.5118   20.2455 C   0  0  0  0  0  0  0  0  0  0  0  0
  -25.9347  -11.5699   20.5419 N   0  0  0  0  0  0  0  0  0  0  0  0
  -26.2862  -12.8504   20.3352 N   0  0  0  0  0  0  0  0  0  0  0  0
  -28.8155  -25.6006   18.0640 N   0  0  0  0  0  0  0  0  0  0  0  0
  -29.3931  -13.4841   18.2035 N   0  0  0  0  0  0  0  0  0  0  0  0
  -25.4297  -15.0581   20.2750 N   0  0  0  0  0  0  0  0  0  0  0  0
  -21.8018  -12.5599   21.2716 N   0  0  0  0  0  0  0  0  0  0  0  0
  -31.0795  -27.7300   19.8162 N   0  0  0  0  0  0  0  0  0  0  0  0
  -25.5178  -24.8728   17.8312 N   0  0  0  0  0  0  0  0  0  0  0  0
  -35.1766  -18.6448   13.3555 N   0  3  0  0  0  0  0  0  0  0  0  0
  -24.3171  -24.1079   14.5084 N   0  3  0  0  0  0  0  0  0  0  0  0
  -22.5419  -14.6946   20.8792 O   0  0  0  0  0  0  0  0  0  0  0  0
  -30.8412  -25.4143   19.7591 O   0  0  0  0  0  0  0  0  0  0  0  0
  -27.1325  -27.0043   18.8599 O   0  0  0  0  0  0  0  0  0  0  0  0
  -26.0143  -23.0495   16.4872 O   0  0  0  0  0  0  0  0  0  0  0  0
  -28.9339  -15.2781   16.7972 O   0  0  0  0  0  0  0  0  0  0  0  0
  -21.6823   -7.0240   21.8841 O   0  0  0  0  0  0  0  0  0  0  0  0
  -31.1231  -14.6004   17.1256 O   0  0  0  0  0  0  0  0  0  0  0  0
  -32.5467  -21.5175   15.3328 O   0  0  0  0  0  0  0  0  0  1  0  0
  -18.1598   -7.1718   26.1236 F   0  0  0  0  0  0  0  0  0  0  0  0
  -32.4646  -19.1309   16.3874 F   0  0  0  0  0  0  0  0  0  0  0  0
  -21.9554   -5.2857   24.0163 F   0  0  0  0  0  0  0  0  0  0  0  0
  1  2  1  0  0  0  0
  1  5  2  0  0  0  0
  2  6  2  0  0  0  0
  3  8  2  0  0  0  0
  3 17  1  0  0  0  0
  4  9  1  0  0  0  0
  4 17  2  0  0  0  0
  5 19  1  0  0  0  0
  6 21  1  0  0  0  0
  7 10  2  0  0  0  0
  7 20  1  0  0  0  0
  8 25  1  0  0  0  0
  9 25  2  0  0  0  0
 10 26  1  0  0  0  0
 11 12  2  0  0  0  0
 11 27  1  0  0  0  0
 12 29  1  0  0  0  0
 13 22  1  0  0  0  0
 13 26  2  0  0  0  0
 14 24  2  0  0  0  0
 14 28  1  0  0  0  0
 15 28  2  0  0  0  0
 15 30  1  0  0  0  0
 16 29  2  0  0  0  0
 16 31  1  0  0  0  0
 17 32  1  0  0  0  0
 18 32  1  0  0  0  0
 18 33  2  0  0  0  0
 18 34  1  0  0  0  0
 19 21  2  0  0  0  0
 19 39  1  0  0  0  0
 20 22  2  0  0  0  0
 20 40  1  0  0  0  0
 21 51  1  0  0  0  0
 22 41  1  0  0  0  0
 23 24  1  0  0  0  0
 23 30  2  0  0  0  0
 23 50  1  0  0  0  0
 24 56  1  0  0  0  0
 25 80  1  0  0  0  0
 26 82  1  0  0  0  0
 27 31  2  0  0  0  0
 27 80  1  0  0  0  0
 28 81  1  0  0  0  0
 29 83  1  0  0  0  0
 30 84  1  0  0  0  0
 31 85  1  0  0  0  0
 32 65  2  0  0  0  0
 33 66  1  0  0  0  0
 33 69  1  0  0  0  0
 34 70  1  0  0  0  0
 34 75  2  0  0  0  0
 35 52  1  0  0  0  0
 35 71  1  0  0  0  0
 35 76  2  0  0  0  0
 36 62  1  0  0  0  0
 36 67  1  0  0  0  0
 36 77  2  0  0  0  0
 37 63  1  0  0  0  0
 37 72  1  0  0  0  0
 37 78  2  0  0  0  0
 38 68  1  0  0  0  0
 38 79  2  0  0  0  0
 38 81  1  0  0  0  0
 39 42  1  0  0  0  0
 40 52  1  0  0  0  0
 41 67  1  0  0  0  0
 42 44  1  0  0  0  0
 43 45  1  0  0  0  0
 43 48  1  0  0  0  0
 44 51  1  0  0  0  0
 45 53  1  0  0  0  0
 46 50  1  0  0  0  0
 46 55  1  0  0  0  0
 47 54  1  0  0  0  0
 47 55  1  0  0  0  0
 48 68  1  0  0  0  0
 49 53  1  0  0  0  0
 49 68  1  0  0  0  0
 50 54  1  0  0  0  0
 51 71  1  0  0  0  0
 52 67  1  0  0  0  0
 53 66  1  0  0  0  0
 54 73  1  0  0  0  0
 55 82  1  0  0  0  0
 57 63  1  0  0  0  0
 58 64  1  0  0  0  0
 59 64  1  0  0  0  0
 60 64  1  0  0  0  0
 61 74  1  0  0  0  0
 62 64  1  0  0  0  0
 62 72  1  0  0  0  0
 63 74  1  0  0  0  0
 65 66  1  0  0  0  0
M  CHG  2  73   1  74   1
M  ISO  4  38 100  55 101  81 100  82 101
M  END
> <Batch ID>
0154

> <Smiles>
CNC(C)C(=O)NC(C(=O)N1Cc2cc([101O:1][101CH:1]3CC(N)C(c4c(C)cc([100O:0][100C:0](=O)N5CCCC(n6nc(-c7ccc(Oc8ccc(F)cc8F)cc7)c(C(N)=O)c6N)C5)cc4F)C3)ccc2CC1C(=O)NC1CCCc2ccccc21)C(C)(C)C

> <Shape>
0.191

> <Color>
0.192

> <Negative vol penalty>
0.000

$$$$

  -OEChem-04052321513D

 87 95  0     1  0  0  0  0  0999 V2000
  -20.0533  -30.9849   21.7354 C   0  0  0  0  0  0  0  0  0  0  0  0
  -21.1519  -30.3730   21.1402 C   0  0  0  0  0  0  0  0  0  0  0  0
  -25.4461  -17.4171   22.1700 C   0  0  0  0  0  0  0  0  0  0  0  0
  -24.8312  -18.3809   20.0416 C   0  0  0  0  0  0  0  0  0  0  0  0
  -19.1095  -30.2139   22.4127 C   0  0  0  0  0  0  0  0  0  0  0  0
  -21.3078  -28.9898   21.2230 C   0  0  0  0  0  0  0  0  0  0  0  0
  -23.6938  -25.2925   16.9635 C   0  0  0  0  0  0  0  0  0  0  0  0
  -24.8389  -16.2165   21.8018 C   0  0  0  0  0  0  0  0  0  0  0  0
  -24.2241  -17.1803   19.6734 C   0  0  0  0  0  0  0  0  0  0  0  0
  -24.9619  -24.7337   16.8103 C   0  0  0  0  0  0  0  0  0  0  0  0
  -25.5768  -13.5421   19.8689 C   0  0  0  0  0  0  0  0  0  0  0  0
  -26.2720  -12.3597   20.1223 C   0  0  0  0  0  0  0  0  0  0  0  0
  -24.1924  -22.7105   17.8749 C   0  0  0  0  0  0  0  0  0  0  0  0
  -30.6355  -25.8930   17.0320 C   0  0  0  0  0  0  0  0  0  0  0  0
  -24.4632  -11.5981   21.5312 C   0  0  0  0  0  0  0  0  0  0  0  0
  -28.7999  -27.8107   17.6633 C   0  0  0  0  0  0  0  0  0  0  0  0
  -25.4422  -18.4993   21.2900 C   0  0  0  0  0  0  0  0  0  0  0  0
  -27.4076  -20.1173   21.4539 C   0  0  0  0  0  0  0  0  0  0  0  0
  -19.2489  -28.8195   22.4955 C   0  0  0  0  0  0  0  0  0  0  0  0
  -22.6667  -24.5673   17.5845 C   0  0  0  0  0  0  0  0  0  0  0  0
  -20.3657  -28.1996   21.9032 C   0  0  0  0  0  0  0  0  0  0  0  0
  -22.9115  -23.2614   18.0325 C   0  0  0  0  0  0  0  0  0  0  0  0
  -30.0725  -25.9061   18.3032 C   0  0  0  0  0  0  0  0  0  0  0  0
  -24.2279  -16.0981   20.5535 C   0  0  0  0  0  0  0  0  0  0  0  0
  -25.2121  -23.4436   17.2686 C   0  0  0  0  0  0  0  0  0  0  0  0
  -24.3248  -13.7526   20.4468 C   0  0  0  0  0  0  0  0  0  0  0  0
  -29.1364  -26.8799   18.6329 C   0  0  0  0  0  0  0  0  0  0  0  0
  -25.7152  -11.3877   20.9534 C   0  0  0  0  0  0  0  0  0  0  0  0
  -23.7680  -12.7806   21.2779 C   0  0  0  0  0  0  0  0  0  0  0  0
  -26.0687  -19.7399   21.6700 C   0  0  0  0  0  0  0  0  0  0  0  0
  -30.2318  -26.8678   16.1339 C   0  0  0  0  0  0  0  0  0  0  0  0
  -27.5014  -21.3759   21.9958 C   0  0  0  0  0  0  0  0  0  0  0  0
  -28.4714  -19.3948   20.8199 C   0  0  0  0  0  0  0  0  0  0  0  0
  -20.9043  -24.9653   20.1996 C   0  0  0  0  0  0  0  0  0  0  0  0
  -19.3456  -22.3523   19.0749 C   0  0  0  0  0  0  0  0  0  0  0  0
  -19.4247  -19.5399   17.1433 C   0  0  0  0  0  0  0  0  0  0  0  0
  -25.4597  -26.5149   22.7487 C   0  0  0  0  0  0  0  0  0  0  0  0
  -18.2277  -28.0332   23.2789 C   0  0  0  0  0  0  0  0  0  0  0  0
  -21.2971  -25.1744   17.7181 C   0  0  0  0  0  0  0  0  0  0  0  0
  -21.8374  -22.4335   18.6878 C   0  0  0  0  0  0  0  0  0  0  0  0
  -18.2694  -26.5329   22.9999 C   0  0  0  0  0  0  0  0  0  0  0  0
  -24.2732  -23.9517   24.9165 C   0  0  0  0  0  0  0  0  0  0  0  0
  -19.7069  -26.0236   23.0331 C   0  0  0  0  0  0  0  0  0  0  0  0
  -24.7395  -22.6592   24.2441 C   0  0  0  0  0  0  0  0  0  0  0  0
  -23.8616  -25.0050   23.8902 C   0  0  0  0  0  0  0  0  0  0  0  0
  -25.3462  -24.0099   22.1932 C   0  0  0  0  0  0  0  0  0  0  0  0
  -20.5567  -26.6991   21.9500 C   0  0  1  0  0  0  0  0  0  0  0  0
  -20.4665  -24.5367   18.8276 C   0  0  1  0  0  0  0  0  0  0  0  0
  -25.8246  -22.9371   23.1865 C   0  0  2  0  0  0  0  0  0  0  0  0
  -30.8156  -26.8841   14.7603 C   0  0  0  0  0  0  0  0  0  0  0  0
  -31.9819  -24.9642   19.6441 C   0  0  0  0  0  0  0  0  0  0  0  0
  -18.0121  -17.5842   16.4525 C   0  0  0  0  0  0  0  0  0  0  0  0
  -19.8118  -21.0569   21.7978 C   0  0  0  0  0  0  0  0  0  0  0  0
  -19.2566  -18.8457   20.7632 C   0  0  0  0  0  0  0  0  0  0  0  0
  -17.5421  -20.6565   20.8270 C   0  0  0  0  0  0  0  0  0  0  0  0
  -19.5444  -20.3133   14.2891 C   0  0  0  0  0  0  0  0  0  0  0  0
  -27.1230  -27.8963   21.5304 C   0  0  0  0  0  0  0  0  0  0  0  0
  -27.6128  -27.9733   20.0954 C   0  0  0  0  0  0  0  0  0  0  0  0
  -26.8607  -21.9465   18.1034 C   0  0  0  0  0  0  0  0  0  1  0  0
  -28.3682  -22.0114   18.2540 C   0  0  0  0  0  0  0  0  0  0  0  0
  -30.1429  -23.4332   18.8471 C   0  0  0  0  0  0  0  0  0  0  0  0
  -30.4902  -24.8524   19.3169 C   0  0  2  0  0  0  0  0  0  0  0  0
  -19.5015  -20.8601   19.2423 C   0  0  1  0  0  0  0  0  0  0  0  0
  -18.4519  -18.9994   16.1108 C   0  0  2  0  0  0  0  0  0  0  0  0
  -19.0490  -20.3708   20.6470 C   0  0  0  0  0  0  0  0  0  0  0  0
  -29.3254  -27.8298   16.4178 N   0  0  0  0  0  0  0  0  0  0  0  0
  -25.3627  -20.6824   22.3002 N   0  0  0  0  0  0  0  0  0  0  0  0
  -26.2614  -21.6645   22.4848 N   0  0  0  0  0  0  0  0  0  0  0  0
  -20.5164  -23.0735   18.8012 N   0  0  0  0  0  0  0  0  0  0  0  0
  -24.9350  -25.2229   22.9173 N   0  0  0  0  0  0  0  0  0  0  0  0
  -28.5228  -22.2527   22.0970 N   0  0  0  0  0  0  0  0  0  0  0  0
  -28.2030  -18.1139   20.3182 N   0  0  0  0  0  0  0  0  0  0  0  0
  -20.2842  -26.1131   20.6551 N   0  0  0  0  0  0  0  0  0  0  0  0
  -18.7771  -20.2472   18.1341 N   0  0  0  0  0  0  0  0  0  0  0  0
  -26.4785  -26.6327   21.8113 N   0  0  0  0  0  0  0  0  0  0  0  0
  -19.0850  -18.9820   14.7618 N   0  3  0  0  0  0  0  0  0  0  0  0
  -29.6300  -19.8643   20.7163 O   0  0  0  0  0  0  0  0  0  0  0  0
  -21.7415  -24.3028   20.8011 O   0  0  0  0  0  0  0  0  0  0  0  0
  -18.2252  -22.8584   19.1760 O   0  0  0  0  0  0  0  0  0  0  0  0
  -20.6373  -19.3503   17.0794 O   0  0  0  0  0  0  0  0  0  0  0  0
  -25.0541  -27.4901   23.3901 O   0  0  0  0  0  0  0  0  0  0  0  0
  -23.6356  -14.9267   20.1937 O   0  0  0  0  0  0  0  0  0  0  0  0
  -26.4492  -22.8961   17.1209 O   0  0  0  0  0  0  0  0  0  1  0  0
  -28.5617  -26.9314   19.8614 O   0  0  0  0  0  0  0  0  0  0  0  0
  -28.7360  -23.3149   18.6887 O   0  0  0  0  0  0  0  0  0  0  0  0
  -26.3822  -10.2516   21.1953 F   0  0  0  0  0  0  0  0  0  0  0  0
  -22.5650  -12.9766   21.8349 F   0  0  0  0  0  0  0  0  0  0  0  0
  1  2  1  0  0  0  0
  1  5  2  0  0  0  0
  2  6  2  0  0  0  0
  3  8  2  0  0  0  0
  3 17  1  0  0  0  0
  4  9  1  0  0  0  0
  4 17  2  0  0  0  0
  5 19  1  0  0  0  0
  6 21  1  0  0  0  0
  7 10  2  0  0  0  0
  7 20  1  0  0  0  0
  8 24  1  0  0  0  0
  9 24  2  0  0  0  0
 10 25  1  0  0  0  0
 11 12  2  0  0  0  0
 11 26  1  0  0  0  0
 12 28  1  0  0  0  0
 13 22  1  0  0  0  0
 13 25  2  0  0  0  0
 14 23  1  0  0  0  0
 14 31  2  0  0  0  0
 15 28  2  0  0  0  0
 15 29  1  0  0  0  0
 16 27  1  0  0  0  0
 16 66  2  0  0  0  0
 17 30  1  0  0  0  0
 18 30  1  0  0  0  0
 18 32  2  0  0  0  0
 18 33  1  0  0  0  0
 19 21  2  0  0  0  0
 19 38  1  0  0  0  0
 20 22  2  0  0  0  0
 20 39  1  0  0  0  0
 21 47  1  0  0  0  0
 22 40  1  0  0  0  0
 23 27  2  0  0  0  0
 23 62  1  0  0  0  0
 24 82  1  0  0  0  0
 25 83  1  0  0  0  0
 26 29  2  0  0  0  0
 26 82  1  0  0  0  0
 27 84  1  0  0  0  0
 28 86  1  0  0  0  0
 29 87  1  0  0  0  0
 30 67  2  0  0  0  0
 31 50  1  0  0  0  0
 31 66  1  0  0  0  0
 32 68  1  0  0  0  0
 32 71  1  0  0  0  0
 33 72  1  0  0  0  0
 33 77  2  0  0  0  0
 34 48  1  0  0  0  0
 34 73  1  0  0  0  0
 34 78  2  0  0  0  0
 35 63  1  0  0  0  0
 35 69  1  0  0  0  0
 35 79  2  0  0  0  0
 36 64  1  0  0  0  0
 36 74  1  0  0  0  0
 36 80  2  0  0  0  0
 37 70  1  0  0  0  0
 37 75  1  0  0  0  0
 37 81  2  0  0  0  0
 38 41  1  0  0  0  0
 39 48  1  0  0  0  0
 40 69  1  0  0  0  0
 41 43  1  0  0  0  0
 42 44  1  0  0  0  0
 42 45  1  0  0  0  0
 43 47  1  0  0  0  0
 44 49  1  0  0  0  0
 45 70  1  0  0  0  0
 46 49  1  0  0  0  0
 46 70  1  0  0  0  0
 47 73  1  0  0  0  0
 48 69  1  0  0  0  0
 49 68  1  0  0  0  0
 51 62  1  0  0  0  0
 52 64  1  0  0  0  0
 53 65  1  0  0  0  0
 54 65  1  0  0  0  0
 55 65  1  0  0  0  0
 56 76  1  0  0  0  0
 57 58  1  0  0  0  0
 57 75  1  0  0  0  0
 58 84  1  0  0  0  0
 59 60  1  0  0  0  0
 59 83  1  0  0  0  0
 60 85  1  0  0  0  0
 61 62  1  0  0  0  0
 61 85  1  0  0  0  0
 63 65  1  0  0  0  0
 63 74  1  0  0  0  0
 64 76  1  0  0  0  0
 67 68  1  0  0  0  0
M  CHG  1  76   1
M  ISO  4  37 100  59 101  75 100  83 101
M  END
> <Batch ID>
0154

> <Smiles>
CNC(C)C(=O)NC(C(=O)N1Cc2cc([101O:1][101CH2:1]COCC(C)c3cc(C)ncc3OCC[100NH:0][100C:0](=O)N3CCCC(n4nc(-c5ccc(Oc6ccc(F)cc6F)cc5)c(C(N)=O)c4N)C3)ccc2CC1C(=O)NC1CCCc2ccccc21)C(C)(C)C

> <Shape>
0.168

> <Color>
0.078

> <Negative vol penalty>
0.000

$$$$

  -OEChem-04052321513D

 89 99  0     1  0  0  0  0  0999 V2000
  -27.2693  -37.6930   22.6216 C   0  0  0  0  0  0  0  0  0  0  0  0
  -27.6190  -36.3909   22.9647 C   0  0  0  0  0  0  0  0  0  0  0  0
  -24.5449   -9.0847   22.0912 C   0  0  0  0  0  0  0  0  0  0  0  0
  -24.3596   -8.5453   19.7435 C   0  0  0  0  0  0  0  0  0  0  0  0
  -25.9253  -38.0567   22.5498 C   0  0  0  0  0  0  0  0  0  0  0  0
  -26.6248  -35.4520   23.2372 C   0  0  0  0  0  0  0  0  0  0  0  0
  -29.1237  -22.0991   21.8222 C   0  0  0  0  0  0  0  0  0  0  0  0
  -29.1724  -20.7292   21.5640 C   0  0  0  0  0  0  0  0  0  0  0  0
  -27.5049  -30.9890   21.0118 C   0  0  0  0  0  0  0  0  0  0  0  0
  -23.3685   -8.3799   22.3460 C   0  0  0  0  0  0  0  0  0  0  0  0
  -23.1832   -7.8404   19.9982 C   0  0  0  0  0  0  0  0  0  0  0  0
  -28.4474  -30.1540   21.6103 C   0  0  0  0  0  0  0  0  0  0  0  0
  -22.4257   -5.1521   22.7008 C   0  0  0  0  0  0  0  0  0  0  0  0
  -22.4111   -4.2900   23.7972 C   0  0  0  0  0  0  0  0  0  0  0  0
  -31.0114  -21.8849   23.3149 C   0  0  0  0  0  0  0  0  0  0  0  0
  -26.6668  -28.8799   22.6229 C   0  0  0  0  0  0  0  0  0  0  0  0
  -20.5942   -5.5535   24.7666 C   0  0  0  0  0  0  0  0  0  0  0  0
  -25.0404   -9.1675   20.7899 C   0  0  0  0  0  0  0  0  0  0  0  0
  -27.5323   -9.6414   21.0609 C   0  0  0  0  0  0  0  0  0  0  0  0
  -30.0433  -22.6769   22.6976 C   0  0  0  0  0  0  0  0  0  0  0  0
  -24.9139  -37.1192   22.8121 C   0  0  0  0  0  0  0  0  0  0  0  0
  -26.1342  -30.7820   21.2235 C   0  0  0  0  0  0  0  0  0  0  0  0
  -25.2659  -35.8038   23.1701 C   0  0  0  0  0  0  0  0  0  0  0  0
  -30.1405  -19.9371   22.1813 C   0  0  0  0  0  0  0  0  0  0  0  0
  -25.7088  -29.7121   22.0239 C   0  0  0  0  0  0  0  0  0  0  0  0
  -31.0600  -20.5149   23.0567 C   0  0  0  0  0  0  0  0  0  0  0  0
  -22.6877   -7.7577   21.2995 C   0  0  0  0  0  0  0  0  0  0  0  0
  -28.0285  -29.1010   22.4183 C   0  0  0  0  0  0  0  0  0  0  0  0
  -21.5246   -6.2150   22.6373 C   0  0  0  0  0  0  0  0  0  0  0  0
  -21.4954   -4.4906   24.8301 C   0  0  0  0  0  0  0  0  0  0  0  0
  -20.6089   -6.4157   23.6702 C   0  0  0  0  0  0  0  0  0  0  0  0
  -26.2553   -9.8959   20.5260 C   0  0  0  0  0  0  0  0  0  0  0  0
  -28.3366  -10.6048   20.5029 C   0  0  0  0  0  0  0  0  0  0  0  0
  -27.9540   -8.6248   21.9799 C   0  0  0  0  0  0  0  0  0  0  0  0
  -23.7832  -32.4820   22.5223 C   0  0  0  0  0  0  0  0  0  0  0  0
  -21.9436  -30.0403   21.4378 C   0  0  0  0  0  0  0  0  0  0  0  0
  -21.7371  -26.7691   20.4870 C   0  0  0  0  0  0  0  0  0  0  0  0
  -29.3783  -15.7422   18.9081 C   0  0  0  0  0  0  0  0  0  0  0  0
  -23.4757  -37.5714   22.7680 C   0  0  0  0  0  0  0  0  0  0  0  0
  -25.1295  -31.6754   20.5492 C   0  0  0  0  0  0  0  0  0  0  0  0
  -24.2484  -29.4349   22.2664 C   0  0  0  0  0  0  0  0  0  0  0  0
  -22.4765  -36.4190   22.7059 C   0  0  0  0  0  0  0  0  0  0  0  0
  -27.4697  -13.8521   16.7325 C   0  0  0  0  0  0  0  0  0  0  0  0
  -28.6660  -24.5768   23.6488 C   0  0  0  0  0  0  0  0  0  0  0  0
  -30.2470  -24.9988   21.7093 C   0  0  0  0  0  0  0  0  0  0  0  0
  -22.8324  -35.3480   23.7321 C   0  0  0  0  0  0  0  0  0  0  0  0
  -27.0826  -12.6264   17.5597 C   0  0  0  0  0  0  0  0  0  0  0  0
  -28.6263  -26.0759   23.9342 C   0  0  0  0  0  0  0  0  0  0  0  0
  -30.1994  -26.4956   22.0052 C   0  0  0  0  0  0  0  0  0  0  0  0
  -28.7661  -17.8832   21.6208 C   0  0  0  0  0  0  0  0  0  0  0  0
  -31.1212  -18.1129   20.7207 C   0  0  0  0  0  0  0  0  0  0  0  0
  -27.3891  -15.1232   17.5699 C   0  0  0  0  0  0  0  0  0  0  0  0
  -28.8095  -16.3884   21.2913 C   0  0  0  0  0  0  0  0  0  0  0  0
  -31.1189  -16.6134   20.4377 C   0  0  0  0  0  0  0  0  0  0  0  0
  -27.8461  -13.8620   19.6481 C   0  0  0  0  0  0  0  0  0  0  0  0
  -29.9898  -24.1675   22.9788 C   0  0  0  0  0  0  0  0  0  0  0  0
  -30.1728  -18.4495   21.8856 C   0  0  0  0  0  0  0  0  0  0  0  0
  -24.2158  -34.7503   23.4486 C   0  0  1  0  0  0  0  0  0  0  0  0
  -23.7738  -31.6847   21.2487 C   0  0  1  0  0  0  0  0  0  0  0  0
  -27.9171  -12.5441   18.8502 C   0  0  1  0  0  0  0  0  0  0  0  0
  -28.8865  -26.8976   22.6729 C   0  0  0  0  0  0  0  0  0  1  0  0
  -32.1052  -19.6867   23.7294 C   0  0  0  0  0  0  0  0  0  0  0  0
  -20.0930  -25.0501   19.6876 C   0  0  0  0  0  0  0  0  0  0  0  0
  -20.8532  -29.7675   24.2744 C   0  0  0  0  0  0  0  0  0  0  0  0
  -19.9806  -27.5063   23.6469 C   0  0  0  0  0  0  0  0  0  0  0  0
  -19.1366  -29.5376   22.4704 C   0  0  0  0  0  0  0  0  0  0  0  0
  -23.1917  -26.3951   17.9369 C   0  0  0  0  0  0  0  0  0  0  0  0
  -21.4817  -28.7179   22.0008 C   0  0  1  0  0  0  0  0  0  0  0  0
  -21.1023  -26.1104   19.2756 C   0  0  2  0  0  0  0  0  0  0  0  0
  -20.3907  -28.8884   23.0953 C   0  0  0  0  0  0  0  0  0  0  0  0
  -26.2440  -10.9394   19.6924 N   0  0  0  0  0  0  0  0  0  0  0  0
  -27.5239  -11.3491   19.6993 N   0  0  0  0  0  0  0  0  0  0  0  0
  -23.3047  -30.3402   21.5901 N   0  0  0  0  0  0  0  0  0  0  0  0
  -28.1912  -15.0041   18.7874 N   0  0  0  0  0  0  0  0  0  0  0  0
  -29.7607  -16.1241   20.2028 N   0  0  0  0  0  0  0  0  0  0  0  0
  -29.6525  -10.8796   20.6262 N   0  0  0  0  0  0  0  0  0  0  0  0
  -28.3961   -7.3991   21.4637 N   0  0  0  0  0  0  0  0  0  0  0  0
  -24.1437  -33.8054   22.3548 N   0  0  0  0  0  0  0  0  0  0  0  0
  -21.0620  -27.9124   20.8591 N   0  0  0  0  0  0  0  0  0  0  0  0
  -22.1461  -25.4630   18.4316 N   0  3  0  0  0  0  0  0  0  0  0  0
  -27.9235   -8.7924   23.2227 O   0  0  0  0  0  0  0  0  0  0  0  0
  -23.4841  -31.9371   23.5784 O   0  0  0  0  0  0  0  0  0  0  0  0
  -21.1282  -30.7766   20.8770 O   0  0  0  0  0  0  0  0  0  0  0  0
  -22.7302  -26.3129   21.0494 O   0  0  0  0  0  0  0  0  0  0  0  0
  -30.0574  -16.0420   17.9181 O   0  0  0  0  0  0  0  0  0  0  0  0
  -21.5399   -7.0696   21.5478 O   0  0  0  0  0  0  0  0  0  0  0  0
  -28.9524  -28.2796   23.0080 O   0  0  0  0  0  0  0  0  0  1  0  0
  -21.4804   -3.6617   25.8821 F   0  0  0  0  0  0  0  0  0  0  0  0
  -19.7399   -7.4343   23.6142 F   0  0  0  0  0  0  0  0  0  0  0  0
  1  2  1  0  0  0  0
  1  5  2  0  0  0  0
  2  6  2  0  0  0  0
  3 10  2  0  0  0  0
  3 18  1  0  0  0  0
  4 11  1  0  0  0  0
  4 18  2  0  0  0  0
  5 21  1  0  0  0  0
  6 23  1  0  0  0  0
  7  8  2  0  0  0  0
  7 20  1  0  0  0  0
  8 24  1  0  0  0  0
  9 12  2  0  0  0  0
  9 22  1  0  0  0  0
 10 27  1  0  0  0  0
 11 27  2  0  0  0  0
 12 28  1  0  0  0  0
 13 14  2  0  0  0  0
 13 29  1  0  0  0  0
 14 30  1  0  0  0  0
 15 20  2  0  0  0  0
 15 26  1  0  0  0  0
 16 25  1  0  0  0  0
 16 28  2  0  0  0  0
 17 30  2  0  0  0  0
 17 31  1  0  0  0  0
 18 32  1  0  0  0  0
 19 32  1  0  0  0  0
 19 33  2  0  0  0  0
 19 34  1  0  0  0  0
 20 56  1  0  0  0  0
 21 23  2  0  0  0  0
 21 39  1  0  0  0  0
 22 25  2  0  0  0  0
 22 40  1  0  0  0  0
 23 58  1  0  0  0  0
 24 26  2  0  0  0  0
 24 57  1  0  0  0  0
 25 41  1  0  0  0  0
 26 62  1  0  0  0  0
 27 86  1  0  0  0  0
 28 87  1  0  0  0  0
 29 31  2  0  0  0  0
 29 86  1  0  0  0  0
 30 88  1  0  0  0  0
 31 89  1  0  0  0  0
 32 71  2  0  0  0  0
 33 72  1  0  0  0  0
 33 76  1  0  0  0  0
 34 77  1  0  0  0  0
 34 81  2  0  0  0  0
 35 59  1  0  0  0  0
 35 78  1  0  0  0  0
 35 82  2  0  0  0  0
 36 68  1  0  0  0  0
 36 73  1  0  0  0  0
 36 83  2  0  0  0  0
 37 69  1  0  0  0  0
 37 79  1  0  0  0  0
 37 84  2  0  0  0  0
 38 74  1  0  0  0  0
 38 75  1  0  0  0  0
 38 85  2  0  0  0  0
 39 42  1  0  0  0  0
 40 59  1  0  0  0  0
 41 73  1  0  0  0  0
 42 46  1  0  0  0  0
 43 47  1  0  0  0  0
 43 52  1  0  0  0  0
 44 48  1  0  0  0  0
 44 56  1  0  0  0  0
 45 49  1  0  0  0  0
 45 56  1  0  0  0  0
 46 58  1  0  0  0  0
 47 60  1  0  0  0  0
 48 61  1  0  0  0  0
 49 61  1  0  0  0  0
 50 53  1  0  0  0  0
 50 57  1  0  0  0  0
 51 54  1  0  0  0  0
 51 57  1  0  0  0  0
 52 74  1  0  0  0  0
 53 75  1  0  0  0  0
 54 75  1  0  0  0  0
 55 60  1  0  0  0  0
 55 74  1  0  0  0  0
 58 78  1  0  0  0  0
 59 73  1  0  0  0  0
 60 72  1  0  0  0  0
 61 87  1  0  0  0  0
 63 69  1  0  0  0  0
 64 70  1  0  0  0  0
 65 70  1  0  0  0  0
 66 70  1  0  0  0  0
 67 80  1  0  0  0  0
 68 70  1  0  0  0  0
 68 79  1  0  0  0  0
 69 80  1  0  0  0  0
 71 72  1  0  0  0  0
M  CHG  1  80   1
M  ISO  4  38 100  61 101  75 100  87 101
M  END
> <Batch ID>
0154

> <Smiles>
CNC(C)C(=O)NC(C(=O)N1Cc2cc([101O:1][101CH:1]3CCC(c4ccc(C5CC[100N:0]([100C:0](=O)N6CCCC(n7nc(-c8ccc(Oc9ccc(F)cc9F)cc8)c(C(N)=O)c7N)C6)CC5)c(C)c4)CC3)ccc2CC1C(=O)NC1CCCc2ccccc21)C(C)(C)C

> <Shape>
0.283

> <Color>
0.079

> <Negative vol penalty>
0.000

$$$$

  -OEChem-04052321513D

 86 95  0     1  0  0  0  0  0999 V2000
  -30.1118  -35.6728   24.7345 C   0  0  0  0  0  0  0  0  0  0  0  0
  -30.3872  -34.5285   23.9928 C   0  0  0  0  0  0  0  0  0  0  0  0
  -23.7300   -9.6555   21.0028 C   0  0  0  0  0  0  0  0  0  0  0  0
  -24.3201  -10.4812   23.1953 C   0  0  0  0  0  0  0  0  0  0  0  0
  -28.9242  -35.7633   25.4593 C   0  0  0  0  0  0  0  0  0  0  0  0
  -29.4756  -33.4735   23.9763 C   0  0  0  0  0  0  0  0  0  0  0  0
  -26.9944  -28.3059   19.6803 C   0  0  0  0  0  0  0  0  0  0  0  0
  -23.1942   -8.5045   21.5804 C   0  0  0  0  0  0  0  0  0  0  0  0
  -23.7842   -9.3302   23.7730 C   0  0  0  0  0  0  0  0  0  0  0  0
  -26.7866  -26.9274   19.6625 C   0  0  0  0  0  0  0  0  0  0  0  0
  -20.3503   -7.6106   23.1761 C   0  0  0  0  0  0  0  0  0  0  0  0
  -19.1095   -7.1712   22.7149 C   0  0  0  0  0  0  0  0  0  0  0  0
  -24.7312  -27.2275   20.8892 C   0  0  0  0  0  0  0  0  0  0  0  0
  -30.8300  -19.0118   20.4258 C   0  0  0  0  0  0  0  0  0  0  0  0
  -20.1022   -5.0737   22.0424 C   0  0  0  0  0  0  0  0  0  0  0  0
  -28.7896  -19.2471   21.3484 C   0  0  0  0  0  0  0  0  0  0  0  0
  -24.2930  -10.6439   21.8102 C   0  0  0  0  0  0  0  0  0  0  0  0
  -24.1752  -13.0392   20.9408 C   0  0  0  0  0  0  0  0  0  0  0  0
  -27.9931  -34.7128   25.4440 C   0  0  0  0  0  0  0  0  0  0  0  0
  -26.0762  -29.1560   20.3132 C   0  0  0  0  0  0  0  0  0  0  0  0
  -28.2750  -33.5495   24.7026 C   0  0  0  0  0  0  0  0  0  0  0  0
  -24.9284  -28.6166   20.9114 C   0  0  0  0  0  0  0  0  0  0  0  0
  -29.6711  -18.3146   20.8478 C   0  0  0  0  0  0  0  0  0  0  0  0
  -23.2213   -8.3419   22.9655 C   0  0  0  0  0  0  0  0  0  0  0  0
  -25.6564  -26.3877   20.2695 C   0  0  0  0  0  0  0  0  0  0  0  0
  -21.4672   -6.7816   23.0704 C   0  0  0  0  0  0  0  0  0  0  0  0
  -18.9854   -5.9028   22.1480 C   0  0  0  0  0  0  0  0  0  0  0  0
  -21.3431   -5.5132   22.5036 C   0  0  0  0  0  0  0  0  0  0  0  0
  -24.8472  -11.8328   21.2140 C   0  0  0  0  0  0  0  0  0  0  0  0
  -30.6214  -20.3491   20.6816 C   0  0  0  0  0  0  0  0  0  0  0  0
  -25.1340  -13.8468   20.3795 C   0  0  0  0  0  0  0  0  0  0  0  0
  -22.8066  -13.3979   21.1735 C   0  0  0  0  0  0  0  0  0  0  0  0
  -26.2104  -31.1775   22.7626 C   0  0  0  0  0  0  0  0  0  0  0  0
  -23.1868  -31.8949   21.8323 C   0  0  0  0  0  0  0  0  0  0  0  0
  -20.3428  -30.9169   20.2191 C   0  0  0  0  0  0  0  0  0  0  0  0
  -30.2929  -15.9395   20.2835 C   0  0  0  0  0  0  0  0  0  0  0  0
  -26.7448  -34.8370   26.2811 C   0  0  0  0  0  0  0  0  0  0  0  0
  -26.3012  -30.6432   20.3004 C   0  0  0  0  0  0  0  0  0  0  0  0
  -23.9020  -29.4879   21.5865 C   0  0  0  0  0  0  0  0  0  0  0  0
  -25.6601  -33.8288   25.9105 C   0  0  0  0  0  0  0  0  0  0  0  0
  -29.7998  -12.7695   18.7391 C   0  0  0  0  0  0  0  0  0  0  0  0
  -26.2567  -32.4327   25.7633 C   0  0  0  0  0  0  0  0  0  0  0  0
  -28.4121  -12.3425   19.2228 C   0  0  0  0  0  0  0  0  0  0  0  0
  -28.4228  -23.3996   23.5196 C   0  0  0  0  0  0  0  0  0  0  0  0
  -30.5749  -13.5135   19.8251 C   0  0  0  0  0  0  0  0  0  0  0  0
  -28.4792  -14.2255   20.9070 C   0  0  0  0  0  0  0  0  0  0  0  0
  -26.9177  -23.3544   23.2934 C   0  0  0  0  0  0  0  0  0  0  0  0
  -27.2409  -21.6665   21.4591 C   0  0  0  0  0  0  0  0  0  0  0  0
  -27.2997  -32.3941   24.6398 C   0  0  1  0  0  0  0  0  0  0  0  0
  -25.5623  -31.3689   21.4205 C   0  0  1  0  0  0  0  0  0  0  0  0
  -29.1348  -22.0949   23.1235 C   0  0  2  0  0  0  0  0  0  0  0  0
  -27.6358  -13.5293   19.8265 C   0  0  2  0  0  0  0  0  0  0  0  0
  -28.7632  -21.7214   21.6645 C   0  0  1  0  0  0  0  0  0  0  0  0
  -31.5027  -21.5093   20.4376 C   0  0  0  0  0  0  0  0  0  0  0  0
  -28.8358  -20.9805   24.1360 C   0  0  0  0  0  0  0  0  0  0  0  0
  -18.0267  -31.7032   19.6582 C   0  0  0  0  0  0  0  0  0  0  0  0
  -22.3062  -31.3393   24.7004 C   0  0  0  0  0  0  0  0  0  0  0  0
  -19.9460  -31.2052   23.8760 C   0  0  0  0  0  0  0  0  0  0  0  0
  -21.2267  -33.3334   23.6454 C   0  0  0  0  0  0  0  0  0  0  0  0
  -20.8690  -30.7612   17.3108 C   0  0  0  0  0  0  0  0  0  0  0  0
  -25.1615  -23.0402   21.5540 C   0  0  0  0  0  0  0  0  0  0  0  0
  -24.7368  -24.4818   21.3548 C   0  0  0  0  0  0  0  0  0  1  0  0
  -21.8120  -31.3682   22.1665 C   0  0  1  0  0  0  0  0  0  0  0  0
  -19.4728  -31.6222   19.1944 C   0  0  2  0  0  0  0  0  0  0  0  0
  -21.3429  -31.7947   23.5861 C   0  0  0  0  0  0  0  0  0  0  0  0
  -26.1335  -11.8665   20.8557 N   0  0  0  0  0  0  0  0  0  0  0  0
  -29.3780  -20.4804   21.2427 N   0  0  0  0  0  0  0  0  0  0  0  0
  -26.2774  -13.1039   20.3515 N   0  0  0  0  0  0  0  0  0  0  0  0
  -24.1700  -30.9352   21.5529 N   0  0  0  0  0  0  0  0  0  0  0  0
  -29.7793  -14.6268   20.3471 N   0  0  0  0  0  0  0  0  0  0  0  0
  -25.1021  -15.1129   19.9121 N   0  0  0  0  0  0  0  0  0  0  0  0
  -21.9575  -12.4487   21.7587 N   0  0  0  0  0  0  0  0  0  0  0  0
  -29.4339  -16.9193   20.7802 N   0  0  0  0  0  0  0  0  0  0  0  0
  -26.6493  -32.3498   23.3477 N   0  0  0  0  0  0  0  0  0  0  0  0
  -20.9329  -31.8093   21.0890 N   0  0  0  0  0  0  0  0  0  0  0  0
  -26.6150  -22.9943   21.8527 N   0  3  1  0  0  0  0  0  0  0  0  0
  -19.5094  -30.8941   17.8947 N   0  3  0  0  0  0  0  0  0  0  0  0
  -22.3463  -14.5209   20.8565 O   0  0  0  0  0  0  0  0  0  0  0  0
  -26.3038  -30.0498   23.2330 O   0  0  0  0  0  0  0  0  0  0  0  0
  -23.3793  -33.1132   21.8127 O   0  0  0  0  0  0  0  0  0  0  0  0
  -20.4820  -29.6961   20.2474 O   0  0  0  0  0  0  0  0  0  0  0  0
  -31.4010  -16.1800   19.7975 O   0  0  0  0  0  0  0  0  0  0  0  0
  -22.6983   -7.2190   23.5295 O   0  0  0  0  0  0  0  0  0  0  0  0
  -25.4514  -25.0425   20.2542 O   0  0  0  0  0  0  0  0  0  1  0  0
  -17.7934   -5.4804   21.7065 F   0  0  0  0  0  0  0  0  0  0  0  0
  -22.4122   -4.7118   22.4004 F   0  0  0  0  0  0  0  0  0  0  0  0
  1  2  1  0  0  0  0
  1  5  2  0  0  0  0
  2  6  2  0  0  0  0
  3  8  2  0  0  0  0
  3 17  1  0  0  0  0
  4  9  1  0  0  0  0
  4 17  2  0  0  0  0
  5 19  1  0  0  0  0
  6 21  1  0  0  0  0
  7 10  2  0  0  0  0
  7 20  1  0  0  0  0
  8 24  1  0  0  0  0
  9 24  2  0  0  0  0
 10 25  1  0  0  0  0
 11 12  2  0  0  0  0
 11 26  1  0  0  0  0
 12 27  1  0  0  0  0
 13 22  1  0  0  0  0
 13 25  2  0  0  0  0
 14 23  1  0  0  0  0
 14 30  2  0  0  0  0
 15 27  2  0  0  0  0
 15 28  1  0  0  0  0
 16 23  2  0  0  0  0
 16 67  1  0  0  0  0
 17 29  1  0  0  0  0
 18 29  1  0  0  0  0
 18 31  2  0  0  0  0
 18 32  1  0  0  0  0
 19 21  2  0  0  0  0
 19 37  1  0  0  0  0
 20 22  2  0  0  0  0
 20 38  1  0  0  0  0
 21 49  1  0  0  0  0
 22 39  1  0  0  0  0
 23 73  1  0  0  0  0
 24 83  1  0  0  0  0
 25 84  1  0  0  0  0
 26 28  2  0  0  0  0
 26 83  1  0  0  0  0
 27 85  1  0  0  0  0
 28 86  1  0  0  0  0
 29 66  2  0  0  0  0
 30 54  1  0  0  0  0
 30 67  1  0  0  0  0
 31 68  1  0  0  0  0
 31 71  1  0  0  0  0
 32 72  1  0  0  0  0
 32 78  2  0  0  0  0
 33 50  1  0  0  0  0
 33 74  1  0  0  0  0
 33 79  2  0  0  0  0
 34 63  1  0  0  0  0
 34 69  1  0  0  0  0
 34 80  2  0  0  0  0
 35 64  1  0  0  0  0
 35 75  1  0  0  0  0
 35 81  2  0  0  0  0
 36 70  1  0  0  0  0
 36 73  1  0  0  0  0
 36 82  2  0  0  0  0
 37 40  1  0  0  0  0
 38 50  1  0  0  0  0
 39 69  1  0  0  0  0
 40 42  1  0  0  0  0
 41 43  1  0  0  0  0
 41 45  1  0  0  0  0
 42 49  1  0  0  0  0
 43 52  1  0  0  0  0
 44 47  1  0  0  0  0
 44 51  1  0  0  0  0
 45 70  1  0  0  0  0
 46 52  1  0  0  0  0
 46 70  1  0  0  0  0
 47 76  1  0  0  0  0
 48 53  1  0  0  0  0
 48 76  1  0  0  0  0
 49 74  1  0  0  0  0
 50 69  1  0  0  0  0
 51 53  1  0  0  0  0
 51 55  1  0  0  0  0
 52 68  1  0  0  0  0
 53 67  1  0  0  0  0
 56 64  1  0  0  0  0
 57 65  1  0  0  0  0
 58 65  1  0  0  0  0
 59 65  1  0  0  0  0
 60 77  1  0  0  0  0
 61 62  1  0  0  0  0
 61 76  1  0  0  0  0
 62 84  1  0  0  0  0
 63 65  1  0  0  0  0
 63 75  1  0  0  0  0
 64 77  1  0  0  0  0
 66 68  1  0  0  0  0
M  CHG  2  76   1  77   1
M  ISO  4  36 100  62 101  73 100  84 101
M  END
> <Batch ID>
0154

> <Smiles>
CNC(C)C(=O)NC(C(=O)N1Cc2cc([101O:1][101CH2:1]CN3CCC(C)C(n4cc([100NH:0][100C:0](=O)N5CCCC(n6nc(-c7ccc(Oc8ccc(F)cc8F)cc7)c(C(N)=O)c6N)C5)cc4C)C3)ccc2CC1C(=O)NC1CCCc2ccccc21)C(C)(C)C

> <Shape>
0.302

> <Color>
0.151

> <Negative vol penalty>
0.000

$$$$

  -OEChem-04052321513D

 90100  0     1  0  0  0  0  0999 V2000
  -27.5786  -35.0680   25.8808 C   0  0  0  0  0  0  0  0  0  0  0  0
  -27.8026  -33.7749   25.4193 C   0  0  0  0  0  0  0  0  0  0  0  0
  -23.9659   -9.4126   22.2858 C   0  0  0  0  0  0  0  0  0  0  0  0
  -25.2069   -7.4708   21.5603 C   0  0  0  0  0  0  0  0  0  0  0  0
  -26.2781  -35.5655   25.9538 C   0  0  0  0  0  0  0  0  0  0  0  0
  -26.7260  -32.9780   25.0314 C   0  0  0  0  0  0  0  0  0  0  0  0
  -27.5838  -30.5393   20.6769 C   0  0  0  0  0  0  0  0  0  0  0  0
  -22.7739   -8.7008   22.1521 C   0  0  0  0  0  0  0  0  0  0  0  0
  -24.0149   -6.7589   21.4266 C   0  0  0  0  0  0  0  0  0  0  0  0
  -28.3940  -29.4059   20.7307 C   0  0  0  0  0  0  0  0  0  0  0  0
  -21.8295   -5.1611   23.4494 C   0  0  0  0  0  0  0  0  0  0  0  0
  -21.7922   -3.8617   23.9552 C   0  0  0  0  0  0  0  0  0  0  0  0
  -29.8119  -20.3875   20.5706 C   0  0  0  0  0  0  0  0  0  0  0  0
  -29.4327  -20.8390   22.9134 C   0  0  0  0  0  0  0  0  0  0  0  0
  -26.4290  -28.0070   20.6987 C   0  0  0  0  0  0  0  0  0  0  0  0
  -21.2903   -3.0170   21.7481 C   0  0  0  0  0  0  0  0  0  0  0  0
  -25.1825   -8.7976   21.9898 C   0  0  0  0  0  0  0  0  0  0  0  0
  -27.2266   -9.6234   23.2733 C   0  0  0  0  0  0  0  0  0  0  0  0
  -25.1859  -34.7776   25.5575 C   0  0  0  0  0  0  0  0  0  0  0  0
  -26.1874  -30.4150   20.6445 C   0  0  0  0  0  0  0  0  0  0  0  0
  -25.4096  -33.4649   25.1004 C   0  0  0  0  0  0  0  0  0  0  0  0
  -29.6534  -19.9301   21.8787 C   0  0  0  0  0  0  0  0  0  0  0  0
  -25.6034  -29.1402   20.6418 C   0  0  0  0  0  0  0  0  0  0  0  0
  -29.5290  -22.6629   21.3319 C   0  0  0  0  0  0  0  0  0  0  0  0
  -29.7497  -21.7539   20.2971 C   0  0  0  0  0  0  0  0  0  0  0  0
  -22.7983   -7.3739   21.7225 C   0  0  0  0  0  0  0  0  0  0  0  0
  -27.8166  -28.1396   20.7445 C   0  0  0  0  0  0  0  0  0  0  0  0
  -21.5972   -5.3884   22.0929 C   0  0  0  0  0  0  0  0  0  0  0  0
  -29.3705  -22.2055   22.6400 C   0  0  0  0  0  0  0  0  0  0  0  0
  -21.5226   -2.7897   23.1046 C   0  0  0  0  0  0  0  0  0  0  0  0
  -21.3276   -4.3164   21.2423 C   0  0  0  0  0  0  0  0  0  0  0  0
  -26.4142   -9.5326   22.1272 C   0  0  0  0  0  0  0  0  0  0  0  0
  -28.2696  -10.4315   22.8916 C   0  0  0  0  0  0  0  0  0  0  0  0
  -27.0540   -9.0303   24.5671 C   0  0  0  0  0  0  0  0  0  0  0  0
  -23.8095  -31.3272   22.5464 C   0  0  0  0  0  0  0  0  0  0  0  0
  -21.9629  -30.1959   20.1313 C   0  0  0  0  0  0  0  0  0  0  0  0
  -21.6666  -28.1199   17.4389 C   0  0  0  0  0  0  0  0  0  0  0  0
  -30.3402  -14.8225   20.3513 C   0  0  0  0  0  0  0  0  0  0  0  0
  -23.7945  -35.3421   25.6989 C   0  0  0  0  0  0  0  0  0  0  0  0
  -25.3282  -31.6467   20.5595 C   0  0  0  0  0  0  0  0  0  0  0  0
  -24.1100  -28.9522   20.5879 C   0  0  0  0  0  0  0  0  0  0  0  0
  -22.7395  -34.5654   24.9152 C   0  0  0  0  0  0  0  0  0  0  0  0
  -29.6542  -12.1030   18.3309 C   0  0  0  0  0  0  0  0  0  0  0  0
  -30.5223  -24.9905   21.7737 C   0  0  0  0  0  0  0  0  0  0  0  0
  -22.9027  -33.0658   25.1420 C   0  0  0  0  0  0  0  0  0  0  0  0
  -28.8160  -11.1888   19.2243 C   0  0  0  0  0  0  0  0  0  0  0  0
  -29.7451  -25.9680   22.6534 C   0  0  0  0  0  0  0  0  0  0  0  0
  -28.6032  -17.6610   21.4661 C   0  0  0  0  0  0  0  0  0  0  0  0
  -31.1009  -17.8502   21.8337 C   0  0  0  0  0  0  0  0  0  0  0  0
  -28.0978  -24.7597   21.4235 C   0  0  0  0  0  0  0  0  0  0  0  0
  -29.2553  -13.5624   18.5166 C   0  0  0  0  0  0  0  0  0  0  0  0
  -28.6983  -16.1582   21.7444 C   0  0  0  0  0  0  0  0  0  0  0  0
  -31.1329  -16.3533   22.1280 C   0  0  0  0  0  0  0  0  0  0  0  0
  -28.5125  -13.1329   20.8364 C   0  0  0  0  0  0  0  0  0  0  0  0
  -29.7224  -18.4440   22.1759 C   0  0  0  0  0  0  0  0  0  0  0  0
  -29.4598  -24.1454   21.0409 C   0  0  2  0  0  0  0  0  0  0  0  0
  -24.2699  -32.5785   24.6471 C   0  0  1  0  0  0  0  0  0  0  0  0
  -23.9020  -31.4152   21.0493 C   0  0  1  0  0  0  0  0  0  0  0  0
  -28.8797  -11.6419   20.6937 C   0  0  1  0  0  0  0  0  0  0  0  0
  -28.4297  -26.1622   21.9148 C   0  0  2  0  0  0  0  0  0  1  0  0
  -29.9239  -22.2183   18.8882 C   0  0  0  0  0  0  0  0  0  0  0  0
  -20.0251  -27.3861   15.6884 C   0  0  0  0  0  0  0  0  0  0  0  0
  -20.5271  -28.4757   22.2024 C   0  0  0  0  0  0  0  0  0  0  0  0
  -19.5955  -27.1114   20.3211 C   0  0  0  0  0  0  0  0  0  0  0  0
  -19.0268  -29.5334   20.5039 C   0  0  0  0  0  0  0  0  0  0  0  0
  -23.3886  -29.1081   15.2441 C   0  0  0  0  0  0  0  0  0  0  0  0
  -29.0025  -22.5227   24.9681 C   0  0  0  0  0  0  0  0  0  0  0  0
  -21.3552  -28.8576   19.7869 C   0  0  1  0  0  0  0  0  0  0  0  0
  -21.1408  -28.3596   16.0352 C   0  0  2  0  0  0  0  0  0  0  0  0
  -20.1543  -28.4978   20.7066 C   0  0  0  0  0  0  0  0  0  0  0  0
  -26.8992  -10.2277   21.0949 N   0  0  0  0  0  0  0  0  0  0  0  0
  -28.0277  -10.7630   21.5910 N   0  0  0  0  0  0  0  0  0  0  0  0
  -23.3122  -30.1873   20.5121 N   0  0  0  0  0  0  0  0  0  0  0  0
  -29.3252  -13.9529   19.9246 N   0  0  0  0  0  0  0  0  0  0  0  0
  -30.0459  -15.6580   21.4393 N   0  0  0  0  0  0  0  0  0  0  0  0
  -29.3608  -10.8839   23.5451 N   0  0  0  0  0  0  0  0  0  0  0  0
  -25.9267   -8.2277   24.7892 N   0  0  0  0  0  0  0  0  0  0  0  0
  -24.2696  -32.4512   23.2055 N   0  0  0  0  0  0  0  0  0  0  0  0
  -21.0250  -28.9125   18.3669 N   0  0  0  0  0  0  0  0  0  0  0  0
  -22.2351  -28.1951   15.0370 N   0  3  0  0  0  0  0  0  0  0  0  0
  -27.8667   -9.2200   25.5037 O   0  0  0  0  0  0  0  0  0  0  0  0
  -23.3531  -30.3151   23.0651 O   0  0  0  0  0  0  0  0  0  0  0  0
  -21.2679  -31.2125   20.0581 O   0  0  0  0  0  0  0  0  0  0  0  0
  -22.5550  -27.3079   17.6878 O   0  0  0  0  0  0  0  0  0  0  0  0
  -31.4447  -14.8507   19.7941 O   0  0  0  0  0  0  0  0  0  0  0  0
  -21.6353   -6.6789   21.5922 O   0  0  0  0  0  0  0  0  0  0  0  0
  -28.6105  -27.0242   20.7981 O   0  0  0  0  0  0  0  0  0  1  0  0
  -29.1531  -23.0784   23.6633 O   0  0  0  0  0  0  0  0  0  0  0  0
  -21.4883   -1.5418   23.5901 F   0  0  0  0  0  0  0  0  0  0  0  0
  -21.1047   -4.5284   19.9380 F   0  0  0  0  0  0  0  0  0  0  0  0
  1  2  1  0  0  0  0
  1  5  2  0  0  0  0
  2  6  2  0  0  0  0
  3  8  2  0  0  0  0
  3 17  1  0  0  0  0
  4  9  1  0  0  0  0
  4 17  2  0  0  0  0
  5 19  1  0  0  0  0
  6 21  1  0  0  0  0
  7 10  2  0  0  0  0
  7 20  1  0  0  0  0
  8 26  1  0  0  0  0
  9 26  2  0  0  0  0
 10 27  1  0  0  0  0
 11 12  2  0  0  0  0
 11 28  1  0  0  0  0
 12 30  1  0  0  0  0
 13 22  1  0  0  0  0
 13 25  2  0  0  0  0
 14 22  2  0  0  0  0
 14 29  1  0  0  0  0
 15 23  1  0  0  0  0
 15 27  2  0  0  0  0
 16 30  2  0  0  0  0
 16 31  1  0  0  0  0
 17 32  1  0  0  0  0
 18 32  1  0  0  0  0
 18 33  2  0  0  0  0
 18 34  1  0  0  0  0
 19 21  2  0  0  0  0
 19 39  1  0  0  0  0
 20 23  2  0  0  0  0
 20 40  1  0  0  0  0
 21 57  1  0  0  0  0
 22 55  1  0  0  0  0
 23 41  1  0  0  0  0
 24 25  1  0  0  0  0
 24 29  2  0  0  0  0
 24 56  1  0  0  0  0
 25 61  1  0  0  0  0
 26 86  1  0  0  0  0
 27 87  1  0  0  0  0
 28 31  2  0  0  0  0
 28 86  1  0  0  0  0
 29 88  1  0  0  0  0
 30 89  1  0  0  0  0
 31 90  1  0  0  0  0
 32 71  2  0  0  0  0
 33 72  1  0  0  0  0
 33 76  1  0  0  0  0
 34 77  1  0  0  0  0
 34 81  2  0  0  0  0
 35 58  1  0  0  0  0
 35 78  1  0  0  0  0
 35 82  2  0  0  0  0
 36 68  1  0  0  0  0
 36 73  1  0  0  0  0
 36 83  2  0  0  0  0
 37 69  1  0  0  0  0
 37 79  1  0  0  0  0
 37 84  2  0  0  0  0
 38 74  1  0  0  0  0
 38 75  1  0  0  0  0
 38 85  2  0  0  0  0
 39 42  1  0  0  0  0
 40 58  1  0  0  0  0
 41 73  1  0  0  0  0
 42 45  1  0  0  0  0
 43 46  1  0  0  0  0
 43 51  1  0  0  0  0
 44 47  1  0  0  0  0
 44 56  1  0  0  0  0
 45 57  1  0  0  0  0
 46 59  1  0  0  0  0
 47 60  1  0  0  0  0
 48 52  1  0  0  0  0
 48 55  1  0  0  0  0
 49 53  1  0  0  0  0
 49 55  1  0  0  0  0
 50 56  1  0  0  0  0
 50 60  1  0  0  0  0
 51 74  1  0  0  0  0
 52 75  1  0  0  0  0
 53 75  1  0  0  0  0
 54 59  1  0  0  0  0
 54 74  1  0  0  0  0
 57 78  1  0  0  0  0
 58 73  1  0  0  0  0
 59 72  1  0  0  0  0
 60 87  1  0  0  0  0
 62 69  1  0  0  0  0
 63 70  1  0  0  0  0
 64 70  1  0  0  0  0
 65 70  1  0  0  0  0
 66 80  1  0  0  0  0
 67 88  1  0  0  0  0
 68 70  1  0  0  0  0
 68 79  1  0  0  0  0
 69 80  1  0  0  0  0
 71 72  1  0  0  0  0
M  CHG  1  80   1
M  ISO  4  38 100  60 101  75 100  87 101
M  END
> <Batch ID>
0154

> <Smiles>
CNC(C)C(=O)NC(C(=O)N1Cc2cc([101O:1][101CH:1]3CCC(c4c(C)cc(C5CC[100N:0]([100C:0](=O)N6CCCC(n7nc(-c8ccc(Oc9ccc(F)cc9F)cc8)c(C(N)=O)c7N)C6)CC5)cc4OC)C3)ccc2CC1C(=O)NC1CCCc2ccccc21)C(C)(C)C

> <Shape>
0.303

> <Color>
0.088

> <Negative vol penalty>
0.000

$$$$

  -OEChem-04052321513D

 85 94  0     1  0  0  0  0  0999 V2000
  -27.5594  -37.1492   20.9030 C   0  0  0  0  0  0  0  0  0  0  0  0
  -27.9239  -35.8446   21.2200 C   0  0  0  0  0  0  0  0  0  0  0  0
  -24.3620   -9.6288   21.3532 C   0  0  0  0  0  0  0  0  0  0  0  0
  -24.8360  -10.6365   23.4972 C   0  0  0  0  0  0  0  0  0  0  0  0
  -26.2852  -37.6139   21.2264 C   0  0  0  0  0  0  0  0  0  0  0  0
  -27.0147  -35.0042   21.8616 C   0  0  0  0  0  0  0  0  0  0  0  0
  -26.8846  -30.3685   19.8273 C   0  0  0  0  0  0  0  0  0  0  0  0
  -24.0081   -8.4396   21.9904 C   0  0  0  0  0  0  0  0  0  0  0  0
  -24.4820   -9.4473   24.1344 C   0  0  0  0  0  0  0  0  0  0  0  0
  -27.9183  -29.4958   20.1647 C   0  0  0  0  0  0  0  0  0  0  0  0
  -21.3401   -7.2086   23.6636 C   0  0  0  0  0  0  0  0  0  0  0  0
  -20.1760   -6.5678   23.2398 C   0  0  0  0  0  0  0  0  0  0  0  0
  -26.4799  -28.4255   21.7786 C   0  0  0  0  0  0  0  0  0  0  0  0
  -28.9021  -25.6048   22.6921 C   0  0  0  0  0  0  0  0  0  0  0  0
  -27.6145  -25.7023   20.6501 C   0  0  0  0  0  0  0  0  0  0  0  0
  -21.4668   -4.6121   22.6512 C   0  0  0  0  0  0  0  0  0  0  0  0
  -24.7761  -10.7273   22.1066 C   0  0  0  0  0  0  0  0  0  0  0  0
  -24.2958  -13.0343   21.1295 C   0  0  0  0  0  0  0  0  0  0  0  0
  -25.3567  -36.7757   21.8636 C   0  0  0  0  0  0  0  0  0  0  0  0
  -25.6421  -30.2831   20.4719 C   0  0  0  0  0  0  0  0  0  0  0  0
  -25.7274  -35.4585   22.1950 C   0  0  0  0  0  0  0  0  0  0  0  0
  -25.4313  -29.2966   21.4458 C   0  0  0  0  0  0  0  0  0  0  0  0
  -28.5902  -24.2517   22.8241 C   0  0  0  0  0  0  0  0  0  0  0  0
  -27.3026  -24.3492   20.7821 C   0  0  0  0  0  0  0  0  0  0  0  0
  -27.7904  -23.6239   21.8691 C   0  0  0  0  0  0  0  0  0  0  0  0
  -24.0680   -8.3488   23.3810 C   0  0  0  0  0  0  0  0  0  0  0  0
  -27.7169  -28.5261   21.1425 C   0  0  0  0  0  0  0  0  0  0  0  0
  -22.5677   -6.5513   23.5812 C   0  0  0  0  0  0  0  0  0  0  0  0
  -28.4143  -26.3301   21.6051 C   0  0  0  0  0  0  0  0  0  1  0  0
  -20.2393   -5.2695   22.7336 C   0  0  0  0  0  0  0  0  0  0  0  0
  -22.6310   -5.2530   23.0750 C   0  0  0  0  0  0  0  0  0  0  0  0
  -25.1424  -11.9559   21.4490 C   0  0  0  0  0  0  0  0  0  0  0  0
  -25.1195  -13.9482   20.5189 C   0  0  0  0  0  0  0  0  0  0  0  0
  -22.8906  -13.1956   21.3639 C   0  0  0  0  0  0  0  0  0  0  0  0
  -23.9264  -32.2340   22.3033 C   0  0  0  0  0  0  0  0  0  0  0  0
  -21.7000  -29.8895   22.0411 C   0  0  0  0  0  0  0  0  0  0  0  0
  -21.0141  -26.5973   21.4601 C   0  0  0  0  0  0  0  0  0  0  0  0
  -29.9305  -16.7663   20.2791 C   0  0  0  0  0  0  0  0  0  0  0  0
  -24.0074  -37.3376   22.2357 C   0  0  0  0  0  0  0  0  0  0  0  0
  -24.5289  -31.2145   20.0776 C   0  0  0  0  0  0  0  0  0  0  0  0
  -24.1096  -29.1501   22.1530 C   0  0  0  0  0  0  0  0  0  0  0  0
  -22.9752  -36.2665   22.5786 C   0  0  0  0  0  0  0  0  0  0  0  0
  -29.8776  -13.5006   18.8617 C   0  0  0  0  0  0  0  0  0  0  0  0
  -23.5755  -35.2294   23.5225 C   0  0  0  0  0  0  0  0  0  0  0  0
  -28.2630  -21.1606   19.8079 C   0  0  0  0  0  0  0  0  0  0  0  0
  -28.5749  -12.8949   19.3871 C   0  0  0  0  0  0  0  0  0  0  0  0
  -28.6108  -19.7158   19.4344 C   0  0  0  0  0  0  0  0  0  0  0  0
  -28.4449  -19.8325   21.8220 C   0  0  0  0  0  0  0  0  0  0  0  0
  -30.5443  -14.3959   19.9038 C   0  0  0  0  0  0  0  0  0  0  0  0
  -28.3750  -14.8475   20.9827 C   0  0  0  0  0  0  0  0  0  0  0  0
  -24.7607  -34.5089   22.8686 C   0  0  1  0  0  0  0  0  0  0  0  0
  -23.4677  -31.3703   21.1625 C   0  0  1  0  0  0  0  0  0  0  0  0
  -28.4797  -21.2760   21.3223 C   0  0  2  0  0  0  0  0  0  0  0  0
  -27.6373  -13.9813   19.9474 C   0  0  2  0  0  0  0  0  0  0  0  0
  -29.1702  -19.0893   20.7088 C   0  0  1  0  0  0  0  0  0  0  0  0
  -29.1248  -23.4975   23.9974 C   0  0  0  0  0  0  0  0  0  0  0  0
  -26.4445  -23.7009   19.7455 C   0  0  0  0  0  0  0  0  0  0  0  0
  -19.1048  -24.9724   21.3505 C   0  0  0  0  0  0  0  0  0  0  0  0
  -21.5512  -29.8625   25.0885 C   0  0  0  0  0  0  0  0  0  0  0  0
  -20.3954  -27.6463   24.9430 C   0  0  0  0  0  0  0  0  0  0  0  0
  -19.3409  -29.6696   23.9344 C   0  0  0  0  0  0  0  0  0  0  0  0
  -21.5611  -25.9676   18.6205 C   0  0  0  0  0  0  0  0  0  0  0  0
  -27.4563  -22.1728   22.0106 C   0  0  0  0  0  0  0  0  0  0  0  0
  -21.3648  -28.6414   22.8213 C   0  0  1  0  0  0  0  0  0  0  0  0
  -19.9910  -25.9246   20.5626 C   0  0  2  0  0  0  0  0  0  0  0  0
  -20.6887  -28.9587   24.1850 C   0  0  0  0  0  0  0  0  0  0  0  0
  -26.4069  -12.1638   21.0723 N   0  0  0  0  0  0  0  0  0  0  0  0
  -26.3609  -13.3835   20.5097 N   0  0  0  0  0  0  0  0  0  0  0  0
  -23.0542  -30.0884   21.7369 N   0  0  0  0  0  0  0  0  0  0  0  0
  -29.6024  -15.4053   20.3935 N   0  0  0  0  0  0  0  0  0  0  0  0
  -24.8956  -15.1717   19.9941 N   0  0  0  0  0  0  0  0  0  0  0  0
  -22.1966  -12.1594   22.0035 N   0  0  0  0  0  0  0  0  0  0  0  0
  -24.2911  -33.5132   21.9292 N   0  0  0  0  0  0  0  0  0  0  0  0
  -20.5590  -27.8095   21.9342 N   0  0  0  0  0  0  0  0  0  0  0  0
  -28.9796  -17.6570   20.7621 N   0  0  0  0  0  0  0  0  0  0  0  0
  -20.6742  -25.1504   19.4880 N   0  3  0  0  0  0  0  0  0  0  0  0
  -22.2655  -14.2211   21.0017 O   0  0  0  0  0  0  0  0  0  0  0  0
  -23.9466  -31.7743   23.4390 O   0  0  0  0  0  0  0  0  0  0  0  0
  -20.7929  -30.6560   21.7074 O   0  0  0  0  0  0  0  0  0  0  0  0
  -22.1061  -26.0957   21.7180 O   0  0  0  0  0  0  0  0  0  0  0  0
  -30.9899  -17.1588   19.7784 O   0  0  0  0  0  0  0  0  0  0  0  0
  -23.7224   -7.1886   24.0031 O   0  0  0  0  0  0  0  0  0  0  0  0
  -28.7244  -27.6735   21.4741 O   0  0  0  0  0  0  0  0  0  1  0  0
  -19.1211   -4.6537   22.3281 F   0  0  0  0  0  0  0  0  0  0  0  0
  -23.8072   -4.6160   22.9945 F   0  0  0  0  0  0  0  0  0  0  0  0
  1  2  1  0  0  0  0
  1  5  2  0  0  0  0
  2  6  2  0  0  0  0
  3  8  2  0  0  0  0
  3 17  1  0  0  0  0
  4  9  1  0  0  0  0
  4 17  2  0  0  0  0
  5 19  1  0  0  0  0
  6 21  1  0  0  0  0
  7 10  2  0  0  0  0
  7 20  1  0  0  0  0
  8 26  1  0  0  0  0
  9 26  2  0  0  0  0
 10 27  1  0  0  0  0
 11 12  2  0  0  0  0
 11 28  1  0  0  0  0
 12 30  1  0  0  0  0
 13 22  1  0  0  0  0
 13 27  2  0  0  0  0
 14 23  2  0  0  0  0
 14 29  1  0  0  0  0
 15 24  1  0  0  0  0
 15 29  2  0  0  0  0
 16 30  2  0  0  0  0
 16 31  1  0  0  0  0
 17 32  1  0  0  0  0
 18 32  1  0  0  0  0
 18 33  2  0  0  0  0
 18 34  1  0  0  0  0
 19 21  2  0  0  0  0
 19 39  1  0  0  0  0
 20 22  2  0  0  0  0
 20 40  1  0  0  0  0
 21 51  1  0  0  0  0
 22 41  1  0  0  0  0
 23 25  1  0  0  0  0
 23 56  1  0  0  0  0
 24 25  2  0  0  0  0
 24 57  1  0  0  0  0
 25 63  1  0  0  0  0
 26 82  1  0  0  0  0
 27 83  1  0  0  0  0
 28 31  2  0  0  0  0
 28 82  1  0  0  0  0
 29 83  1  0  0  0  0
 30 84  1  0  0  0  0
 31 85  1  0  0  0  0
 32 67  2  0  0  0  0
 33 68  1  0  0  0  0
 33 71  1  0  0  0  0
 34 72  1  0  0  0  0
 34 77  2  0  0  0  0
 35 52  1  0  0  0  0
 35 73  1  0  0  0  0
 35 78  2  0  0  0  0
 36 64  1  0  0  0  0
 36 69  1  0  0  0  0
 36 79  2  0  0  0  0
 37 65  1  0  0  0  0
 37 74  1  0  0  0  0
 37 80  2  0  0  0  0
 38 70  1  0  0  0  0
 38 75  1  0  0  0  0
 38 81  2  0  0  0  0
 39 42  1  0  0  0  0
 40 52  1  0  0  0  0
 41 69  1  0  0  0  0
 42 44  1  0  0  0  0
 43 46  1  0  0  0  0
 43 49  1  0  0  0  0
 44 51  1  0  0  0  0
 45 47  1  0  0  0  0
 45 53  1  0  0  0  0
 46 54  1  0  0  0  0
 47 55  1  0  0  0  0
 48 53  1  0  0  0  0
 48 55  1  0  0  0  0
 49 70  1  0  0  0  0
 50 54  1  0  0  0  0
 50 70  1  0  0  0  0
 51 73  1  0  0  0  0
 52 69  1  0  0  0  0
 53 63  1  0  0  0  0
 54 68  1  0  0  0  0
 55 75  1  0  0  0  0
 58 65  1  0  0  0  0
 59 66  1  0  0  0  0
 60 66  1  0  0  0  0
 61 66  1  0  0  0  0
 62 76  1  0  0  0  0
 64 66  1  0  0  0  0
 64 74  1  0  0  0  0
 65 76  1  0  0  0  0
 67 68  1  0  0  0  0
M  CHG  1  76   1
M  ISO  4  29 101  38 100  75 100  83 101
M  END
> <Batch ID>
0154

> <Smiles>
CNC(C)C(=O)NC(C(=O)N1Cc2cc([101O:1][101c:1]3cc(C)c(CC4CCC([100NH:0][100C:0](=O)N5CCCC(n6nc(-c7ccc(Oc8ccc(F)cc8F)cc7)c(C(N)=O)c6N)C5)C4)c(C)c3)ccc2CC1C(=O)NC1CCCc2ccccc21)C(C)(C)C

> <Shape>
0.341

> <Color>
0.142

> <Negative vol penalty>
0.000

$$$$

  -OEChem-04052321513D

 85 94  0     1  0  0  0  0  0999 V2000
  -32.2245  -14.7621   21.0692 C   0  0  0  0  0  0  0  0  0  0  0  0
  -31.3395  -15.8351   21.0393 C   0  0  0  0  0  0  0  0  0  0  0  0
  -29.8631  -23.9702   21.0068 C   0  0  0  0  0  0  0  0  0  0  0  0
  -27.4803  -23.5946   20.8725 C   0  0  0  0  0  0  0  0  0  0  0  0
  -31.7913  -13.4919   20.6916 C   0  0  0  0  0  0  0  0  0  0  0  0
  -30.0209  -15.6386   20.6305 C   0  0  0  0  0  0  0  0  0  0  0  0
  -25.0428  -18.5059   22.7524 C   0  0  0  0  0  0  0  0  0  0  0  0
  -30.0932  -22.6557   20.6010 C   0  0  0  0  0  0  0  0  0  0  0  0
  -27.7103  -22.2801   20.4666 C   0  0  0  0  0  0  0  0  0  0  0  0
  -24.3051  -19.5859   22.2695 C   0  0  0  0  0  0  0  0  0  0  0  0
  -28.5765  -20.6675   17.6259 C   0  0  0  0  0  0  0  0  0  0  0  0
  -27.8281  -20.1814   16.5539 C   0  0  0  0  0  0  0  0  0  0  0  0
  -18.9650  -27.8581   21.7734 C   0  0  0  0  0  0  0  0  0  0  0  0
  -22.7574  -18.0557   21.2290 C   0  0  0  0  0  0  0  0  0  0  0  0
  -20.7490  -26.2542   23.2702 C   0  0  0  0  0  0  0  0  0  0  0  0
  -26.9224  -18.4479   17.9722 C   0  0  0  0  0  0  0  0  0  0  0  0
  -28.5566  -24.4396   21.1427 C   0  0  0  0  0  0  0  0  0  0  0  0
  -28.7380  -26.9738   20.9134 C   0  0  0  0  0  0  0  0  0  0  0  0
  -30.4641  -13.2778   20.2872 C   0  0  0  0  0  0  0  0  0  0  0  0
  -24.6488  -17.1906   22.4676 C   0  0  0  0  0  0  0  0  0  0  0  0
  -29.5698  -14.3646   20.2458 C   0  0  0  0  0  0  0  0  0  0  0  0
  -19.8565  -28.4255   22.6686 C   0  0  0  0  0  0  0  0  0  0  0  0
  -23.4904  -16.9608   21.7116 C   0  0  0  0  0  0  0  0  0  0  0  0
  -20.7440  -27.6333   23.4096 C   0  0  0  0  0  0  0  0  0  0  0  0
  -18.9770  -26.4709   21.6165 C   0  0  0  0  0  0  0  0  0  0  0  0
  -29.0168  -21.8106   20.3309 C   0  0  0  0  0  0  0  0  0  0  0  0
  -23.1638  -19.3609   21.5052 C   0  0  0  0  0  0  0  0  0  0  0  0
  -28.4980  -20.0437   18.8711 C   0  0  0  0  0  0  0  0  0  0  0  0
  -19.8622  -25.6747   22.3598 C   0  0  0  0  0  0  0  0  0  0  0  0
  -27.0011  -19.0716   16.7270 C   0  0  0  0  0  0  0  0  0  0  0  0
  -27.6709  -18.9339   19.0442 C   0  0  0  0  0  0  0  0  0  0  0  0
  -28.3183  -25.7972   21.5624 C   0  0  0  0  0  0  0  0  0  0  0  0
  -28.2639  -27.9908   21.7055 C   0  0  0  0  0  0  0  0  0  0  0  0
  -29.4893  -27.1333   19.7026 C   0  0  0  0  0  0  0  0  0  0  0  0
  -25.9560  -14.7435   20.9162 C   0  0  0  0  0  0  0  0  0  0  0  0
  -23.3603  -13.1520   22.0349 C   0  0  0  0  0  0  0  0  0  0  0  0
  -20.1473  -13.2901   23.1772 C   0  0  0  0  0  0  0  0  0  0  0  0
  -23.7063  -28.3618   25.5709 C   0  0  0  0  0  0  0  0  0  0  0  0
  -30.0545  -11.8960   19.8428 C   0  0  0  0  0  0  0  0  0  0  0  0
  -25.4404  -16.0363   23.0183 C   0  0  0  0  0  0  0  0  0  0  0  0
  -19.9967  -29.8709   23.0316 C   0  0  0  0  0  0  0  0  0  0  0  0
  -23.0136  -15.5677   21.3949 C   0  0  0  0  0  0  0  0  0  0  0  0
  -28.5419  -11.6997   19.7803 C   0  0  0  0  0  0  0  0  0  0  0  0
  -21.3802  -29.8759   23.7002 C   0  0  0  0  0  0  0  0  0  0  0  0
  -27.1451  -28.9869   26.2494 C   0  0  0  0  0  0  0  0  0  0  0  0
  -27.8795  -12.8774   19.0724 C   0  0  0  0  0  0  0  0  0  0  0  0
  -27.8736  -28.3465   25.0666 C   0  0  0  0  0  0  0  0  0  0  0  0
  -25.9208  -28.1744   26.6651 C   0  0  0  0  0  0  0  0  0  0  0  0
  -25.6975  -27.2467   24.3928 C   0  0  0  0  0  0  0  0  0  0  0  0
  -28.1251  -14.1867   19.8319 C   0  0  1  0  0  0  0  0  0  0  0  0
  -21.5550  -28.4866   24.3398 C   0  0  2  0  0  0  0  0  0  0  0  0
  -25.2356  -14.7434   22.2348 C   0  0  1  0  0  0  0  0  0  0  0  0
  -26.9073  -28.0599   23.9015 C   0  0  2  0  0  0  0  0  0  0  0  0
  -18.0263  -25.8432   20.6498 C   0  0  0  0  0  0  0  0  0  0  0  0
  -18.2766  -11.8218   23.9783 C   0  0  0  0  0  0  0  0  0  0  0  0
  -22.7928  -12.3092   19.1578 C   0  0  0  0  0  0  0  0  0  0  0  0
  -20.4757  -11.6845   19.8714 C   0  0  0  0  0  0  0  0  0  0  0  0
  -22.4424  -10.5109   20.8600 C   0  0  0  0  0  0  0  0  0  0  0  0
  -20.1058  -14.5948   25.8333 C   0  0  0  0  0  0  0  0  0  0  0  0
  -21.1484  -22.3675   21.6053 C   0  0  0  0  0  0  0  0  0  0  0  0
  -22.4500  -21.6087   21.8113 C   0  0  0  0  0  0  0  0  0  1  0  0
  -21.0967  -23.6433   22.4311 C   0  0  0  0  0  0  0  0  0  0  0  0
  -21.9602  -12.9008   21.5291 C   0  0  1  0  0  0  0  0  0  0  0  0
  -19.4797  -12.6583   24.3853 C   0  0  2  0  0  0  0  0  0  0  0  0
  -21.9276  -11.8777   20.3588 C   0  0  0  0  0  0  0  0  0  0  0  0
  -27.6306  -26.0426   22.6808 N   0  0  0  0  0  0  0  0  0  0  0  0
  -27.6146  -27.3851   22.7408 N   0  0  0  0  0  0  0  0  0  0  0  0
  -23.8250  -14.4721   21.9507 N   0  0  0  0  0  0  0  0  0  0  0  0
  -25.0445  -27.9388   25.5151 N   0  0  0  0  0  0  0  0  0  0  0  0
  -28.3433  -29.3351   21.6106 N   0  0  0  0  0  0  0  0  0  0  0  0
  -28.7916  -27.2239   18.4905 N   0  0  0  0  0  0  0  0  0  0  0  0
  -27.2538  -14.2737   20.9841 N   0  0  0  0  0  0  0  0  0  0  0  0
  -21.1713  -12.5052   22.6908 N   0  0  0  0  0  0  0  0  0  0  0  0
  -22.9465  -28.1054   24.4362 N   0  0  0  0  0  0  0  0  0  0  0  0
  -19.0203  -13.7122   25.3335 N   0  3  0  0  0  0  0  0  0  0  0  0
  -30.7429  -27.1771   19.6942 O   0  0  0  0  0  0  0  0  0  0  0  0
  -25.3769  -15.1391   19.9114 O   0  0  0  0  0  0  0  0  0  0  0  0
  -24.0147  -12.2128   22.4947 O   0  0  0  0  0  0  0  0  0  0  0  0
  -19.7932  -14.3700   22.7093 O   0  0  0  0  0  0  0  0  0  0  0  0
  -23.2257  -28.9310   26.5569 O   0  0  0  0  0  0  0  0  0  0  0  0
  -29.2410  -20.5279   19.9346 O   0  0  0  0  0  0  0  0  0  0  0  0
  -22.4423  -20.4133   21.0321 O   0  0  0  0  0  0  0  0  0  1  0  0
  -19.8629  -24.3125   22.2084 O   0  0  0  0  0  0  0  0  0  0  0  0
  -26.2812  -18.6059   15.6979 F   0  0  0  0  0  0  0  0  0  0  0  0
  -27.5904  -18.3312   20.2384 F   0  0  0  0  0  0  0  0  0  0  0  0
  1  2  1  0  0  0  0
  1  5  2  0  0  0  0
  2  6  2  0  0  0  0
  3  8  2  0  0  0  0
  3 17  1  0  0  0  0
  4  9  1  0  0  0  0
  4 17  2  0  0  0  0
  5 19  1  0  0  0  0
  6 21  1  0  0  0  0
  7 10  2  0  0  0  0
  7 20  1  0  0  0  0
  8 26  1  0  0  0  0
  9 26  2  0  0  0  0
 10 27  1  0  0  0  0
 11 12  2  0  0  0  0
 11 28  1  0  0  0  0
 12 30  1  0  0  0  0
 13 22  2  0  0  0  0
 13 25  1  0  0  0  0
 14 23  1  0  0  0  0
 14 27  2  0  0  0  0
 15 24  2  0  0  0  0
 15 29  1  0  0  0  0
 16 30  2  0  0  0  0
 16 31  1  0  0  0  0
 17 32  1  0  0  0  0
 18 32  1  0  0  0  0
 18 33  2  0  0  0  0
 18 34  1  0  0  0  0
 19 21  2  0  0  0  0
 19 39  1  0  0  0  0
 20 23  2  0  0  0  0
 20 40  1  0  0  0  0
 21 50  1  0  0  0  0
 22 24  1  0  0  0  0
 22 41  1  0  0  0  0
 23 42  1  0  0  0  0
 24 51  1  0  0  0  0
 25 29  2  0  0  0  0
 25 54  1  0  0  0  0
 26 81  1  0  0  0  0
 27 82  1  0  0  0  0
 28 31  2  0  0  0  0
 28 81  1  0  0  0  0
 29 83  1  0  0  0  0
 30 84  1  0  0  0  0
 31 85  1  0  0  0  0
 32 66  2  0  0  0  0
 33 67  1  0  0  0  0
 33 70  1  0  0  0  0
 34 71  1  0  0  0  0
 34 76  2  0  0  0  0
 35 52  1  0  0  0  0
 35 72  1  0  0  0  0
 35 77  2  0  0  0  0
 36 63  1  0  0  0  0
 36 68  1  0  0  0  0
 36 78  2  0  0  0  0
 37 64  1  0  0  0  0
 37 73  1  0  0  0  0
 37 79  2  0  0  0  0
 38 69  1  0  0  0  0
 38 74  1  0  0  0  0
 38 80  2  0  0  0  0
 39 43  1  0  0  0  0
 40 52  1  0  0  0  0
 41 44  1  0  0  0  0
 42 68  1  0  0  0  0
 43 46  1  0  0  0  0
 44 51  1  0  0  0  0
 45 47  1  0  0  0  0
 45 48  1  0  0  0  0
 46 50  1  0  0  0  0
 47 53  1  0  0  0  0
 48 69  1  0  0  0  0
 49 53  1  0  0  0  0
 49 69  1  0  0  0  0
 50 72  1  0  0  0  0
 51 74  1  0  0  0  0
 52 68  1  0  0  0  0
 53 67  1  0  0  0  0
 55 64  1  0  0  0  0
 56 65  1  0  0  0  0
 57 65  1  0  0  0  0
 58 65  1  0  0  0  0
 59 75  1  0  0  0  0
 60 61  1  0  0  0  0
 60 62  1  0  0  0  0
 61 82  1  0  0  0  0
 62 83  1  0  0  0  0
 63 65  1  0  0  0  0
 63 73  1  0  0  0  0
 64 75  1  0  0  0  0
 66 67  1  0  0  0  0
M  CHG  1  75   1
M  ISO  4  38 100  61 101  74 100  82 101
M  END
> <Batch ID>
0154

> <Smiles>
CNC(C)C(=O)NC(C(=O)N1Cc2cc([101O:1][101CH2:1]CCOc3cc4c(cc3C)CCC4[100NH:0][100C:0](=O)N3CCCC(n4nc(-c5ccc(Oc6ccc(F)cc6F)cc5)c(C(N)=O)c4N)C3)ccc2CC1C(=O)NC1CCCc2ccccc21)C(C)(C)C

> <Shape>
0.242

> <Color>
0.066

> <Negative vol penalty>
0.000

$$$$

  -OEChem-04052321513D

 83 92  0     1  0  0  0  0  0999 V2000
  -34.1431  -28.9058   26.6284 C   0  0  0  0  0  0  0  0  0  0  0  0
  -34.0069  -27.5402   26.4004 C   0  0  0  0  0  0  0  0  0  0  0  0
  -23.0556  -10.0068   19.8631 C   0  0  0  0  0  0  0  0  0  0  0  0
  -23.9193   -9.7879   22.1088 C   0  0  0  0  0  0  0  0  0  0  0  0
  -33.1225  -29.7790   26.2545 C   0  0  0  0  0  0  0  0  0  0  0  0
  -32.8495  -27.0469   25.7991 C   0  0  0  0  0  0  0  0  0  0  0  0
  -33.8376  -23.6283   22.1961 C   0  0  0  0  0  0  0  0  0  0  0  0
  -22.3238   -8.8312   20.0300 C   0  0  0  0  0  0  0  0  0  0  0  0
  -23.1874   -8.6123   22.2758 C   0  0  0  0  0  0  0  0  0  0  0  0
  -34.1617  -22.3383   22.6140 C   0  0  0  0  0  0  0  0  0  0  0  0
  -19.9899   -7.7441   22.9413 C   0  0  0  0  0  0  0  0  0  0  0  0
  -19.2872   -7.5840   24.1355 C   0  0  0  0  0  0  0  0  0  0  0  0
  -32.1554  -16.4889   22.7172 C   0  0  0  0  0  0  0  0  0  0  0  0
  -31.9034  -21.6275   22.1512 C   0  0  0  0  0  0  0  0  0  0  0  0
  -29.9861  -17.2652   23.4987 C   0  0  0  0  0  0  0  0  0  0  0  0
  -20.5606   -5.5882   24.6174 C   0  0  0  0  0  0  0  0  0  0  0  0
  -23.8535  -10.4851   20.9025 C   0  0  0  0  0  0  0  0  0  0  0  0
  -24.1899  -13.0111   21.0203 C   0  0  0  0  0  0  0  0  0  0  0  0
  -31.9561  -29.2972   25.6396 C   0  0  0  0  0  0  0  0  0  0  0  0
  -32.5389  -23.9307   21.7622 C   0  0  0  0  0  0  0  0  0  0  0  0
  -31.8118  -27.9143   25.4178 C   0  0  0  0  0  0  0  0  0  0  0  0
  -32.7488  -17.2890   23.6793 C   0  0  0  0  0  0  0  0  0  0  0  0
  -31.5661  -22.9215   21.7259 C   0  0  0  0  0  0  0  0  0  0  0  0
  -31.9760  -18.0658   24.5484 C   0  0  0  0  0  0  0  0  0  0  0  0
  -30.7619  -16.4853   22.6265 C   0  0  0  0  0  0  0  0  0  0  0  0
  -22.3896   -8.1339   21.2363 C   0  0  0  0  0  0  0  0  0  0  0  0
  -33.1937  -21.3384   22.5944 C   0  0  0  0  0  0  0  0  0  0  0  0
  -20.9780   -6.8261   22.5851 C   0  0  0  0  0  0  0  0  0  0  0  0
  -30.5931  -18.0594   24.4738 C   0  0  0  0  0  0  0  0  0  0  0  0
  -19.5725   -6.5061   24.9736 C   0  0  0  0  0  0  0  0  0  0  0  0
  -21.2633   -5.7482   23.4232 C   0  0  0  0  0  0  0  0  0  0  0  0
  -24.6102  -11.6992   20.7306 C   0  0  0  0  0  0  0  0  0  0  0  0
  -25.2644  -13.7980   20.6846 C   0  0  0  0  0  0  0  0  0  0  0  0
  -22.9399  -13.4769   21.5459 C   0  0  0  0  0  0  0  0  0  0  0  0
  -30.2417  -25.8907   22.7546 C   0  0  0  0  0  0  0  0  0  0  0  0
  -28.7661  -24.9068   20.0386 C   0  0  0  0  0  0  0  0  0  0  0  0
  -28.4309  -22.5158   17.6266 C   0  0  0  0  0  0  0  0  0  0  0  0
  -30.7331  -14.8449   20.7147 C   0  0  0  0  0  0  0  0  0  0  0  0
  -30.8599  -30.2744   25.2959 C   0  0  0  0  0  0  0  0  0  0  0  0
  -32.2125  -25.3207   21.2893 C   0  0  0  0  0  0  0  0  0  0  0  0
  -34.2070  -17.4295   23.9863 C   0  0  0  0  0  0  0  0  0  0  0  0
  -32.8409  -18.8024   25.5229 C   0  0  0  0  0  0  0  0  0  0  0  0
  -30.1626  -23.1897   21.2496 C   0  0  0  0  0  0  0  0  0  0  0  0
  -29.8258  -29.7126   24.3237 C   0  0  0  0  0  0  0  0  0  0  0  0
  -29.5115  -12.6749   18.1700 C   0  0  0  0  0  0  0  0  0  0  0  0
  -29.3944  -28.3138   24.7528 C   0  0  0  0  0  0  0  0  0  0  0  0
  -28.0929  -12.3356   18.6331 C   0  0  0  0  0  0  0  0  0  0  0  0
  -30.4805  -12.7866   19.3457 C   0  0  0  0  0  0  0  0  0  0  0  0
  -28.6386  -13.3610   20.8776 C   0  0  0  0  0  0  0  0  0  0  0  0
  -30.5819  -27.3437   24.7456 C   0  0  1  0  0  0  0  0  0  0  0  0
  -30.7218  -25.6390   21.3533 C   0  0  1  0  0  0  0  0  0  0  0  0
  -34.2298  -18.7103   24.8511 C   0  0  2  0  0  0  0  0  0  0  0  0
  -27.6130  -13.3020   19.7337 C   0  0  2  0  0  0  0  0  0  0  0  0
  -27.1172  -21.9750   15.5580 C   0  0  0  0  0  0  0  0  0  0  0  0
  -26.3606  -24.1652   21.7630 C   0  0  0  0  0  0  0  0  0  0  0  0
  -25.5010  -22.7952   19.8518 C   0  0  0  0  0  0  0  0  0  0  0  0
  -25.7876  -25.2591   19.5882 C   0  0  0  0  0  0  0  0  0  0  0  0
  -30.8699  -22.4639   15.9511 C   0  0  0  0  0  0  0  0  0  0  0  0
  -28.4198  -18.7297   25.1690 C   0  0  0  0  0  0  0  0  0  0  0  0
  -34.5198  -19.9520   23.9999 C   0  0  0  0  0  0  0  0  0  1  0  0
  -27.8331  -23.7760   19.6782 C   0  0  1  0  0  0  0  0  0  0  0  0
  -28.3818  -22.6123   16.1125 C   0  0  2  0  0  0  0  0  0  0  0  0
  -26.3964  -23.9939   20.2312 C   0  0  0  0  0  0  0  0  0  0  0  0
  -25.8546  -11.6512   20.2478 N   0  0  0  0  0  0  0  0  0  0  0  0
  -26.2255  -12.9428   20.2315 N   0  0  0  0  0  0  0  0  0  0  0  0
  -29.8907  -24.5661   20.8034 N   0  0  0  0  0  0  0  0  0  0  0  0
  -29.9622  -13.7221   20.3462 N   0  0  0  0  0  0  0  0  0  0  0  0
  -25.4715  -15.1310   20.7356 N   0  0  0  0  0  0  0  0  0  0  0  0
  -21.9443  -12.5341   21.8361 N   0  0  0  0  0  0  0  0  0  0  0  0
  -30.1238  -15.6807   21.6501 N   0  0  0  0  0  0  0  0  0  0  0  0
  -30.8894  -26.9312   23.3929 N   0  0  0  0  0  0  0  0  0  0  0  0
  -27.9005  -23.6378   18.2274 N   0  0  0  0  0  0  0  0  0  0  0  0
  -29.5581  -21.9229   15.5111 N   0  3  0  0  0  0  0  0  0  0  0  0
  -22.7067  -14.6946   21.7367 O   0  0  0  0  0  0  0  0  0  0  0  0
  -29.3486  -25.1935   23.2216 O   0  0  0  0  0  0  0  0  0  0  0  0
  -28.5103  -26.0491   19.6495 O   0  0  0  0  0  0  0  0  0  0  0  0
  -28.8901  -21.5408   18.2174 O   0  0  0  0  0  0  0  0  0  0  0  0
  -31.8397  -15.0645   20.2156 O   0  0  0  0  0  0  0  0  0  0  0  0
  -21.6754   -6.9869   21.3996 O   0  0  0  0  0  0  0  0  0  0  0  0
  -29.8380  -18.8015   25.3235 O   0  0  0  0  0  0  0  0  0  0  0  0
  -33.5072  -20.0785   23.0024 O   0  0  0  0  0  0  0  0  0  1  0  0
  -18.8986   -6.3534   26.1210 F   0  0  0  0  0  0  0  0  0  0  0  0
  -22.2122   -4.8638   23.0869 F   0  0  0  0  0  0  0  0  0  0  0  0
  1  2  1  0  0  0  0
  1  5  2  0  0  0  0
  2  6  2  0  0  0  0
  3  8  2  0  0  0  0
  3 17  1  0  0  0  0
  4  9  1  0  0  0  0
  4 17  2  0  0  0  0
  5 19  1  0  0  0  0
  6 21  1  0  0  0  0
  7 10  2  0  0  0  0
  7 20  1  0  0  0  0
  8 26  1  0  0  0  0
  9 26  2  0  0  0  0
 10 27  1  0  0  0  0
 11 12  2  0  0  0  0
 11 28  1  0  0  0  0
 12 30  1  0  0  0  0
 13 22  1  0  0  0  0
 13 25  2  0  0  0  0
 14 23  1  0  0  0  0
 14 27  2  0  0  0  0
 15 25  1  0  0  0  0
 15 29  2  0  0  0  0
 16 30  2  0  0  0  0
 16 31  1  0  0  0  0
 17 32  1  0  0  0  0
 18 32  1  0  0  0  0
 18 33  2  0  0  0  0
 18 34  1  0  0  0  0
 19 21  2  0  0  0  0
 19 39  1  0  0  0  0
 20 23  2  0  0  0  0
 20 40  1  0  0  0  0
 21 50  1  0  0  0  0
 22 24  2  0  0  0  0
 22 41  1  0  0  0  0
 23 43  1  0  0  0  0
 24 29  1  0  0  0  0
 24 42  1  0  0  0  0
 25 70  1  0  0  0  0
 26 79  1  0  0  0  0
 27 81  1  0  0  0  0
 28 31  2  0  0  0  0
 28 79  1  0  0  0  0
 29 80  1  0  0  0  0
 30 82  1  0  0  0  0
 31 83  1  0  0  0  0
 32 64  2  0  0  0  0
 33 65  1  0  0  0  0
 33 68  1  0  0  0  0
 34 69  1  0  0  0  0
 34 74  2  0  0  0  0
 35 51  1  0  0  0  0
 35 71  1  0  0  0  0
 35 75  2  0  0  0  0
 36 61  1  0  0  0  0
 36 66  1  0  0  0  0
 36 76  2  0  0  0  0
 37 62  1  0  0  0  0
 37 72  1  0  0  0  0
 37 77  2  0  0  0  0
 38 67  1  0  0  0  0
 38 70  1  0  0  0  0
 38 78  2  0  0  0  0
 39 44  1  0  0  0  0
 40 51  1  0  0  0  0
 41 52  1  0  0  0  0
 42 52  1  0  0  0  0
 43 66  1  0  0  0  0
 44 46  1  0  0  0  0
 45 47  1  0  0  0  0
 45 48  1  0  0  0  0
 46 50  1  0  0  0  0
 47 53  1  0  0  0  0
 48 67  1  0  0  0  0
 49 53  1  0  0  0  0
 49 67  1  0  0  0  0
 50 71  1  0  0  0  0
 51 66  1  0  0  0  0
 52 60  1  0  0  0  0
 53 65  1  0  0  0  0
 54 62  1  0  0  0  0
 55 63  1  0  0  0  0
 56 63  1  0  0  0  0
 57 63  1  0  0  0  0
 58 73  1  0  0  0  0
 59 80  1  0  0  0  0
 60 81  1  0  0  0  0
 61 63  1  0  0  0  0
 61 72  1  0  0  0  0
 62 73  1  0  0  0  0
 64 65  1  0  0  0  0
M  CHG  1  73   1
M  ISO  4  38 100  60 101  70 100  81 101
M  END
> <Batch ID>
0154

> <Smiles>
CNC(C)C(=O)NC(C(=O)N1Cc2cc([101O:1][101CH2:1]C3Cc4cc([100NH:0][100C:0](=O)N5CCCC(n6nc(-c7ccc(Oc8ccc(F)cc8F)cc7)c(C(N)=O)c6N)C5)cc(OC)c4C3)ccc2CC1C(=O)NC1CCCc2ccccc21)C(C)(C)C

> <Shape>
0.208

> <Color>
0.197

> <Negative vol penalty>
0.000

$$$$

  -OEChem-04052321513D

 85 94  0     1  0  0  0  0  0999 V2000
  -30.7557  -34.3721   19.9592 C   0  0  0  0  0  0  0  0  0  0  0  0
  -30.9456  -32.9943   19.9305 C   0  0  0  0  0  0  0  0  0  0  0  0
  -22.9365  -10.1996   20.2695 C   0  0  0  0  0  0  0  0  0  0  0  0
  -24.2603   -9.3278   22.0929 C   0  0  0  0  0  0  0  0  0  0  0  0
  -29.6494  -34.9087   20.6167 C   0  0  0  0  0  0  0  0  0  0  0  0
  -30.0298  -32.1521   20.5603 C   0  0  0  0  0  0  0  0  0  0  0  0
  -28.3025  -26.5681   18.7327 C   0  0  0  0  0  0  0  0  0  0  0  0
  -22.1734   -9.0320   20.2653 C   0  0  0  0  0  0  0  0  0  0  0  0
  -23.4971   -8.1603   22.0888 C   0  0  0  0  0  0  0  0  0  0  0  0
  -28.6995  -25.2893   19.1213 C   0  0  0  0  0  0  0  0  0  0  0  0
  -20.4724   -7.1596   23.2157 C   0  0  0  0  0  0  0  0  0  0  0  0
  -20.0437   -6.6630   24.4466 C   0  0  0  0  0  0  0  0  0  0  0  0
  -28.8436  -21.1524   22.9376 C   0  0  0  0  0  0  0  0  0  0  0  0
  -26.8258  -25.1745   20.6363 C   0  0  0  0  0  0  0  0  0  0  0  0
  -28.0111  -20.3001   20.8358 C   0  0  0  0  0  0  0  0  0  0  0  0
  -21.2375   -4.6039   24.0317 C   0  0  0  0  0  0  0  0  0  0  0  0
  -23.9800  -10.3475   21.1833 C   0  0  0  0  0  0  0  0  0  0  0  0
  -24.5246  -12.7263   21.9263 C   0  0  0  0  0  0  0  0  0  0  0  0
  -28.7145  -34.0721   21.2466 C   0  0  0  0  0  0  0  0  0  0  0  0
  -27.1684  -27.1649   19.3019 C   0  0  0  0  0  0  0  0  0  0  0  0
  -28.9107  -32.6780   21.2280 C   0  0  0  0  0  0  0  0  0  0  0  0
  -29.4029  -19.9065   23.2213 C   0  0  0  0  0  0  0  0  0  0  0  0
  -26.4150  -26.4598   20.2513 C   0  0  0  0  0  0  0  0  0  0  0  0
  -28.1476  -21.3492   21.7449 C   0  0  0  0  0  0  0  0  0  0  0  0
  -28.5705  -19.0542   21.1194 C   0  0  0  0  0  0  0  0  0  0  0  0
  -22.4537   -8.0124   21.1749 C   0  0  0  0  0  0  0  0  0  0  0  0
  -27.9628  -24.5935   20.0753 C   0  0  0  0  0  0  0  0  0  0  0  0
  -21.2836   -6.3783   22.3927 C   0  0  0  0  0  0  0  0  0  0  0  0
  -29.2664  -18.8574   22.3122 C   0  0  0  0  0  0  0  0  0  0  0  0
  -20.4262   -5.3852   24.8547 C   0  0  0  0  0  0  0  0  0  0  0  0
  -21.6662   -5.1005   22.8008 C   0  0  0  0  0  0  0  0  0  0  0  0
  -24.7691  -11.5531   21.1877 C   0  0  0  0  0  0  0  0  0  0  0  0
  -25.5537  -13.5688   21.5831 C   0  0  0  0  0  0  0  0  0  0  0  0
  -23.4624  -13.0276   22.8410 C   0  0  0  0  0  0  0  0  0  0  0  0
  -26.6415  -29.7674   21.0493 C   0  0  0  0  0  0  0  0  0  0  0  0
  -23.5319  -28.9440   20.6318 C   0  0  0  0  0  0  0  0  0  0  0  0
  -21.2457  -26.4962   19.9770 C   0  0  0  0  0  0  0  0  0  0  0  0
  -30.9722  -14.4906   20.6162 C   0  0  0  0  0  0  0  0  0  0  0  0
  -27.5596  -34.7009   21.9852 C   0  0  0  0  0  0  0  0  0  0  0  0
  -26.7380  -28.5343   18.8525 C   0  0  0  0  0  0  0  0  0  0  0  0
  -25.1781  -27.0480   20.8778 C   0  0  0  0  0  0  0  0  0  0  0  0
  -26.4357  -33.7193   22.3071 C   0  0  0  0  0  0  0  0  0  0  0  0
  -29.0287  -13.2017   17.9258 C   0  0  0  0  0  0  0  0  0  0  0  0
  -29.7227  -18.6058   25.4304 C   0  0  0  0  0  0  0  0  0  0  0  0
  -29.4519  -20.0302   25.8021 C   0  0  0  0  0  0  0  0  0  0  0  0
  -27.0044  -32.4277   22.8860 C   0  0  0  0  0  0  0  0  0  0  0  0
  -27.7304  -12.7492   18.5964 C   0  0  0  0  0  0  0  0  0  0  0  0
  -30.2421  -12.9507   18.8183 C   0  0  0  0  0  0  0  0  0  0  0  0
  -28.8444  -13.0705   20.8446 C   0  0  0  0  0  0  0  0  0  0  0  0
  -30.1439  -19.7143   24.5029 C   0  0  0  0  0  0  0  0  0  0  0  0
  -27.9262  -31.7304   21.8782 C   0  0  1  0  0  0  0  0  0  0  0  0
  -25.8604  -29.2503   19.8745 C   0  0  1  0  0  0  0  0  0  0  0  0
  -27.5867  -13.3546   20.0057 C   0  0  2  0  0  0  0  0  0  0  0  0
  -28.4131  -17.9433   20.1339 C   0  0  0  0  0  0  0  0  0  0  0  0
  -18.7762  -26.1202   19.7380 C   0  0  0  0  0  0  0  0  0  0  0  0
  -23.2220  -29.0673   23.6647 C   0  0  0  0  0  0  0  0  0  0  0  0
  -21.0812  -27.7910   23.4281 C   0  0  0  0  0  0  0  0  0  0  0  0
  -21.3109  -30.0431   22.3803 C   0  0  0  0  0  0  0  0  0  0  0  0
  -21.5351  -25.6098   17.1682 C   0  0  0  0  0  0  0  0  0  0  0  0
  -27.5474  -22.6899   21.4391 C   0  0  0  0  0  0  0  0  0  1  0  0
  -31.5657  -15.9971   22.4969 C   0  0  0  0  0  0  0  0  0  0  0  0
  -31.1501  -17.4150   22.1480 C   0  0  0  0  0  0  0  0  0  0  0  0
  -22.5458  -28.0779   21.3778 C   0  0  1  0  0  0  0  0  0  0  0  0
  -20.0736  -26.4443   19.0138 C   0  0  2  0  0  0  0  0  0  0  0  0
  -22.0643  -28.7342   22.7025 C   0  0  0  0  0  0  0  0  0  0  0  0
  -25.8672  -11.6388   20.4322 N   0  0  0  0  0  0  0  0  0  0  0  0
  -26.3218  -12.8761   20.6942 N   0  0  0  0  0  0  0  0  0  0  0  0
  -24.8016  -28.3922   20.4101 N   0  0  0  0  0  0  0  0  0  0  0  0
  -30.0426  -13.5517   20.1393 N   0  0  0  0  0  0  0  0  0  0  0  0
  -25.8673  -14.8272   21.9580 N   0  0  0  0  0  0  0  0  0  0  0  0
  -22.4881  -12.0487   23.0793 N   0  0  0  0  0  0  0  0  0  0  0  0
  -27.1463  -31.0415   20.8724 N   0  0  0  0  0  0  0  0  0  0  0  0
  -21.4732  -27.7764   20.4361 N   0  0  0  0  0  0  0  0  0  0  0  0
  -30.7050  -15.0161   21.8744 N   0  0  0  0  0  0  0  0  0  0  0  0
  -20.3039  -25.4025   17.9733 N   0  3  0  0  0  0  0  0  0  0  0  0
  -23.3706  -14.1382   23.4169 O   0  0  0  0  0  0  0  0  0  0  0  0
  -26.7751  -29.0632   22.0433 O   0  0  0  0  0  0  0  0  0  0  0  0
  -23.1859  -30.0659   20.2532 O   0  0  0  0  0  0  0  0  0  0  0  0
  -21.8924  -25.5002   20.2935 O   0  0  0  0  0  0  0  0  0  0  0  0
  -31.9639  -14.8389   19.9663 O   0  0  0  0  0  0  0  0  0  0  0  0
  -21.7091   -6.8730   21.1713 O   0  0  0  0  0  0  0  0  0  0  0  0
  -28.3486  -23.3455   20.4569 O   0  0  0  0  0  0  0  0  0  1  0  0
  -29.8128  -17.6383   22.5880 O   0  0  0  0  0  0  0  0  0  0  0  0
  -20.0157   -4.9090   26.0374 F   0  0  0  0  0  0  0  0  0  0  0  0
  -22.4464   -4.3457   22.0150 F   0  0  0  0  0  0  0  0  0  0  0  0
  1  2  1  0  0  0  0
  1  5  2  0  0  0  0
  2  6  2  0  0  0  0
  3  8  2  0  0  0  0
  3 17  1  0  0  0  0
  4  9  1  0  0  0  0
  4 17  2  0  0  0  0
  5 19  1  0  0  0  0
  6 21  1  0  0  0  0
  7 10  2  0  0  0  0
  7 20  1  0  0  0  0
  8 26  1  0  0  0  0
  9 26  2  0  0  0  0
 10 27  1  0  0  0  0
 11 12  2  0  0  0  0
 11 28  1  0  0  0  0
 12 30  1  0  0  0  0
 13 22  1  0  0  0  0
 13 24  2  0  0  0  0
 14 23  1  0  0  0  0
 14 27  2  0  0  0  0
 15 24  1  0  0  0  0
 15 25  2  0  0  0  0
 16 30  2  0  0  0  0
 16 31  1  0  0  0  0
 17 32  1  0  0  0  0
 18 32  1  0  0  0  0
 18 33  2  0  0  0  0
 18 34  1  0  0  0  0
 19 21  2  0  0  0  0
 19 39  1  0  0  0  0
 20 23  2  0  0  0  0
 20 40  1  0  0  0  0
 21 51  1  0  0  0  0
 22 29  2  0  0  0  0
 22 50  1  0  0  0  0
 23 41  1  0  0  0  0
 24 60  1  0  0  0  0
 25 29  1  0  0  0  0
 25 54  1  0  0  0  0
 26 81  1  0  0  0  0
 27 82  1  0  0  0  0
 28 31  2  0  0  0  0
 28 81  1  0  0  0  0
 29 83  1  0  0  0  0
 30 84  1  0  0  0  0
 31 85  1  0  0  0  0
 32 66  2  0  0  0  0
 33 67  1  0  0  0  0
 33 70  1  0  0  0  0
 34 71  1  0  0  0  0
 34 76  2  0  0  0  0
 35 52  1  0  0  0  0
 35 72  1  0  0  0  0
 35 77  2  0  0  0  0
 36 63  1  0  0  0  0
 36 68  1  0  0  0  0
 36 78  2  0  0  0  0
 37 64  1  0  0  0  0
 37 73  1  0  0  0  0
 37 79  2  0  0  0  0
 38 69  1  0  0  0  0
 38 74  1  0  0  0  0
 38 80  2  0  0  0  0
 39 42  1  0  0  0  0
 40 52  1  0  0  0  0
 41 68  1  0  0  0  0
 42 46  1  0  0  0  0
 43 47  1  0  0  0  0
 43 48  1  0  0  0  0
 44 45  1  0  0  0  0
 44 50  1  0  0  0  0
 45 50  1  0  0  0  0
 46 51  1  0  0  0  0
 47 53  1  0  0  0  0
 48 69  1  0  0  0  0
 49 53  1  0  0  0  0
 49 69  1  0  0  0  0
 51 72  1  0  0  0  0
 52 68  1  0  0  0  0
 53 67  1  0  0  0  0
 55 64  1  0  0  0  0
 56 65  1  0  0  0  0
 57 65  1  0  0  0  0
 58 65  1  0  0  0  0
 59 75  1  0  0  0  0
 60 82  1  0  0  0  0
 61 62  1  0  0  0  0
 61 74  1  0  0  0  0
 62 83  1  0  0  0  0
 63 65  1  0  0  0  0
 63 73  1  0  0  0  0
 64 75  1  0  0  0  0
 66 67  1  0  0  0  0
M  CHG  1  75   1
M  ISO  4  38 100  60 101  74 100  82 101
M  END
> <Batch ID>
0154

> <Smiles>
CNC(C)C(=O)NC(C(=O)N1Cc2cc([101O:1][101CH2:1]c3cc(C)c(OCC[100NH:0][100C:0](=O)N4CCCC(n5nc(-c6ccc(Oc7ccc(F)cc7F)cc6)c(C(N)=O)c5N)C4)c(C4CC4)c3)ccc2CC1C(=O)NC1CCCc2ccccc21)C(C)(C)C

> <Shape>
0.328

> <Color>
0.142

> <Negative vol penalty>
0.000

$$$$

  -OEChem-04052321513D

 85 94  0     1  0  0  0  0  0999 V2000
  -28.0812  -36.2766   22.1729 C   0  0  0  0  0  0  0  0  0  0  0  0
  -28.3674  -34.9205   22.0518 C   0  0  0  0  0  0  0  0  0  0  0  0
  -28.3136  -10.3380   21.9203 C   0  0  0  0  0  0  0  0  0  0  0  0
  -26.2339  -11.3078   21.1643 C   0  0  0  0  0  0  0  0  0  0  0  0
  -26.9165  -36.6870   22.8202 C   0  0  0  0  0  0  0  0  0  0  0  0
  -27.4894  -33.9741   22.5789 C   0  0  0  0  0  0  0  0  0  0  0  0
  -26.6373  -30.1292   19.3952 C   0  0  0  0  0  0  0  0  0  0  0  0
  -27.6090   -9.5030   22.7874 C   0  0  0  0  0  0  0  0  0  0  0  0
  -25.5293  -10.4727   22.0314 C   0  0  0  0  0  0  0  0  0  0  0  0
  -27.6250  -29.1499   19.3007 C   0  0  0  0  0  0  0  0  0  0  0  0
  -23.1600   -8.3440   23.7844 C   0  0  0  0  0  0  0  0  0  0  0  0
  -22.0256   -7.7015   23.2884 C   0  0  0  0  0  0  0  0  0  0  0  0
  -26.3479  -27.7285   20.7731 C   0  0  0  0  0  0  0  0  0  0  0  0
  -24.9617  -20.2529   18.4630 C   0  0  0  0  0  0  0  0  0  0  0  0
  -23.3786   -6.6059   21.6132 C   0  0  0  0  0  0  0  0  0  0  0  0
  -27.6260  -11.2404   21.1087 C   0  0  0  0  0  0  0  0  0  0  0  0
  -28.7130  -11.8353   18.8788 C   0  0  0  0  0  0  0  0  0  0  0  0
  -26.0191  -35.7448   23.3471 C   0  0  0  0  0  0  0  0  0  0  0  0
  -25.5007  -29.9196   20.1893 C   0  0  0  0  0  0  0  0  0  0  0  0
  -26.3123  -34.3723   23.2350 C   0  0  0  0  0  0  0  0  0  0  0  0
  -25.3460  -28.7057   20.8739 C   0  0  0  0  0  0  0  0  0  0  0  0
  -25.4190  -21.5658   18.4399 C   0  0  0  0  0  0  0  0  0  0  0  0
  -26.2169   -9.5703   22.8430 C   0  0  0  0  0  0  0  0  0  0  0  0
  -27.4818  -27.9504   19.9921 C   0  0  0  0  0  0  0  0  0  0  0  0
  -24.4037   -8.1175   23.1948 C   0  0  0  0  0  0  0  0  0  0  0  0
  -22.1349   -6.8324   22.2028 C   0  0  0  0  0  0  0  0  0  0  0  0
  -25.7999  -19.2385   18.9120 C   0  0  0  0  0  0  0  0  0  0  0  0
  -24.5130   -7.2484   22.1092 C   0  0  0  0  0  0  0  0  0  0  0  0
  -28.3533  -12.1037   20.2132 C   0  0  0  0  0  0  0  0  0  0  0  0
  -27.0762  -19.5864   19.3239 C   0  0  0  0  0  0  0  0  0  0  0  0
  -26.7124  -21.8096   18.8731 C   0  0  0  0  0  0  0  0  0  0  0  0
  -29.3853  -12.9615   18.4713 C   0  0  0  0  0  0  0  0  0  0  0  0
  -28.4617  -10.6720   18.0792 C   0  0  0  0  0  0  0  0  0  0  0  0
  -24.2592  -31.3390   22.7481 C   0  0  0  0  0  0  0  0  0  0  0  0
  -21.8131  -29.2738   22.2246 C   0  0  0  0  0  0  0  0  0  0  0  0
  -20.7505  -26.3225   20.8803 C   0  0  0  0  0  0  0  0  0  0  0  0
  -29.2367  -18.6679   20.2377 C   0  0  0  0  0  0  0  0  0  0  0  0
  -24.7964  -36.2375   24.0799 C   0  0  0  0  0  0  0  0  0  0  0  0
  -24.4315  -30.9753   20.2593 C   0  0  0  0  0  0  0  0  0  0  0  0
  -24.1350  -28.4233   21.7237 C   0  0  0  0  0  0  0  0  0  0  0  0
  -23.7322  -35.1618   24.2812 C   0  0  0  0  0  0  0  0  0  0  0  0
  -32.0850  -16.5325   20.1726 C   0  0  0  0  0  0  0  0  0  0  0  0
  -24.2732  -23.8425   18.8613 C   0  0  0  0  0  0  0  0  0  0  0  0
  -23.1824  -22.8491   18.6092 C   0  0  0  0  0  0  0  0  0  0  0  0
  -24.3673  -33.8708   24.7879 C   0  0  0  0  0  0  0  0  0  0  0  0
  -31.4842  -15.1304   20.0480 C   0  0  0  0  0  0  0  0  0  0  0  0
  -31.2329  -17.4378   21.0604 C   0  0  0  0  0  0  0  0  0  0  0  0
  -29.2145  -16.1164   20.5614 C   0  0  0  0  0  0  0  0  0  0  0  0
  -24.5301  -22.6612   17.9615 C   0  0  0  0  0  0  0  0  0  0  0  0
  -25.3724  -33.3147   23.7720 C   0  0  1  0  0  0  0  0  0  0  0  0
  -23.5604  -30.8616   21.5066 C   0  0  1  0  0  0  0  0  0  0  0  0
  -30.0034  -15.1875   19.6241 C   0  0  2  0  0  0  0  0  0  0  0  0
  -18.7052  -24.8873   20.6469 C   0  0  0  0  0  0  0  0  0  0  0  0
  -22.1126  -28.3794   25.1264 C   0  0  0  0  0  0  0  0  0  0  0  0
  -20.7499  -26.3542   24.5698 C   0  0  0  0  0  0  0  0  0  0  0  0
  -19.7483  -28.6282   24.3501 C   0  0  0  0  0  0  0  0  0  0  0  0
  -20.8137  -26.5106   17.9274 C   0  0  0  0  0  0  0  0  0  0  0  0
  -28.9273  -24.7346   19.2034 C   0  0  0  0  0  0  0  0  0  0  0  0
  -28.0250  -25.6354   20.0320 C   0  0  0  0  0  0  0  0  0  1  0  0
  -28.5342  -23.2705   19.3229 C   0  0  0  0  0  0  0  0  0  0  0  0
  -21.4835  -27.8710   22.6745 C   0  0  1  0  0  0  0  0  0  0  0  0
  -19.5493  -25.9839   20.0161 C   0  0  2  0  0  0  0  0  0  0  0  0
  -21.0474  -27.8140   24.1658 C   0  0  0  0  0  0  0  0  0  0  0  0
  -28.7633  -13.3060   20.6259 N   0  0  0  0  0  0  0  0  0  0  0  0
  -27.5558  -20.8504   19.3159 N   0  0  0  0  0  0  0  0  0  0  0  0
  -29.3877  -13.8031   19.5446 N   0  0  0  0  0  0  0  0  0  0  0  0
  -23.1202  -29.4892   21.7654 N   0  0  0  0  0  0  0  0  0  0  0  0
  -29.8439  -17.4458   20.5962 N   0  0  0  0  0  0  0  0  0  0  0  0
  -29.9688  -13.3041   17.3032 N   0  0  0  0  0  0  0  0  0  0  0  0
  -27.7565   -9.6058   18.6539 N   0  0  0  0  0  0  0  0  0  0  0  0
  -27.9249  -18.5475   19.7803 N   0  0  0  0  0  0  0  0  0  0  0  0
  -24.6804  -32.6536   22.6863 N   0  0  0  0  0  0  0  0  0  0  0  0
  -20.4832  -27.3670   21.7398 N   0  0  0  0  0  0  0  0  0  0  0  0
  -19.9930  -25.5204   18.6710 N   0  3  0  0  0  0  0  0  0  0  0  0
  -28.8653  -10.5741   16.8956 O   0  0  0  0  0  0  0  0  0  0  0  0
  -24.4041  -30.5720   23.6928 O   0  0  0  0  0  0  0  0  0  0  0  0
  -20.9408  -30.1448   22.2720 O   0  0  0  0  0  0  0  0  0  0  0  0
  -21.8180  -25.7182   20.8033 O   0  0  0  0  0  0  0  0  0  0  0  0
  -29.8453  -19.7390   20.3040 O   0  0  0  0  0  0  0  0  0  0  0  0
  -25.5291   -8.7555   23.6889 O   0  0  0  0  0  0  0  0  0  0  0  0
  -28.4448  -26.9930   19.9022 O   0  0  0  0  0  0  0  0  0  1  0  0
  -27.2006  -23.0903   18.8660 O   0  0  0  0  0  0  0  0  0  0  0  0
  -21.0458   -6.2143   21.7276 F   0  0  0  0  0  0  0  0  0  0  0  0
  -25.3726  -17.9696   18.9404 F   0  0  0  0  0  0  0  0  0  0  0  0
  -25.7053   -7.0259   21.5394 F   0  0  0  0  0  0  0  0  0  0  0  0
  1  2  1  0  0  0  0
  1  5  2  0  0  0  0
  2  6  2  0  0  0  0
  3  8  2  0  0  0  0
  3 16  1  0  0  0  0
  4  9  1  0  0  0  0
  4 16  2  0  0  0  0
  5 18  1  0  0  0  0
  6 20  1  0  0  0  0
  7 10  2  0  0  0  0
  7 19  1  0  0  0  0
  8 23  1  0  0  0  0
  9 23  2  0  0  0  0
 10 24  1  0  0  0  0
 11 12  2  0  0  0  0
 11 25  1  0  0  0  0
 12 26  1  0  0  0  0
 13 21  1  0  0  0  0
 13 24  2  0  0  0  0
 14 22  1  0  0  0  0
 14 27  2  0  0  0  0
 15 26  2  0  0  0  0
 15 28  1  0  0  0  0
 16 29  1  0  0  0  0
 17 29  1  0  0  0  0
 17 32  2  0  0  0  0
 17 33  1  0  0  0  0
 18 20  2  0  0  0  0
 18 38  1  0  0  0  0
 19 21  2  0  0  0  0
 19 39  1  0  0  0  0
 20 50  1  0  0  0  0
 21 40  1  0  0  0  0
 22 31  2  0  0  0  0
 22 49  1  0  0  0  0
 23 80  1  0  0  0  0
 24 81  1  0  0  0  0
 25 28  2  0  0  0  0
 25 80  1  0  0  0  0
 26 83  1  0  0  0  0
 27 30  1  0  0  0  0
 27 84  1  0  0  0  0
 28 85  1  0  0  0  0
 29 64  2  0  0  0  0
 30 65  2  0  0  0  0
 30 71  1  0  0  0  0
 31 65  1  0  0  0  0
 31 82  1  0  0  0  0
 32 66  1  0  0  0  0
 32 69  1  0  0  0  0
 33 70  1  0  0  0  0
 33 75  2  0  0  0  0
 34 51  1  0  0  0  0
 34 72  1  0  0  0  0
 34 76  2  0  0  0  0
 35 61  1  0  0  0  0
 35 67  1  0  0  0  0
 35 77  2  0  0  0  0
 36 62  1  0  0  0  0
 36 73  1  0  0  0  0
 36 78  2  0  0  0  0
 37 68  1  0  0  0  0
 37 71  1  0  0  0  0
 37 79  2  0  0  0  0
 38 41  1  0  0  0  0
 39 51  1  0  0  0  0
 40 67  1  0  0  0  0
 41 45  1  0  0  0  0
 42 46  1  0  0  0  0
 42 47  1  0  0  0  0
 43 44  1  0  0  0  0
 43 49  1  0  0  0  0
 44 49  1  0  0  0  0
 45 50  1  0  0  0  0
 46 52  1  0  0  0  0
 47 68  1  0  0  0  0
 48 52  1  0  0  0  0
 48 68  1  0  0  0  0
 50 72  1  0  0  0  0
 51 67  1  0  0  0  0
 52 66  1  0  0  0  0
 53 62  1  0  0  0  0
 54 63  1  0  0  0  0
 55 63  1  0  0  0  0
 56 63  1  0  0  0  0
 57 74  1  0  0  0  0
 58 59  1  0  0  0  0
 58 60  1  0  0  0  0
 59 81  1  0  0  0  0
 60 82  1  0  0  0  0
 61 63  1  0  0  0  0
 61 73  1  0  0  0  0
 62 74  1  0  0  0  0
 64 66  1  0  0  0  0
M  CHG  1  74   1
M  ISO  4  37 100  59 101  71 100  81 101
M  END
> <Batch ID>
0154

> <Smiles>
CNC(C)C(=O)NC(C(=O)N1Cc2cc([101O:1][101CH2:1]CCOc3nc([100NH:0][100C:0](=O)N4CCCC(n5nc(-c6ccc(Oc7ccc(F)cc7F)cc6)c(C(N)=O)c5N)C4)c(F)cc3C3CC3)ccc2CC1C(=O)NC1CCCc2ccccc21)C(C)(C)C

> <Shape>
0.312

> <Color>
0.072

> <Negative vol penalty>
0.000

$$$$

  -OEChem-04052321513D

 93103  0     1  0  0  0  0  0999 V2000
  -26.2793  -32.5556   28.3411 C   0  0  0  0  0  0  0  0  0  0  0  0
  -26.8301  -31.7872   27.3205 C   0  0  0  0  0  0  0  0  0  0  0  0
  -23.9997  -10.2616   22.7447 C   0  0  0  0  0  0  0  0  0  0  0  0
  -24.4675   -8.4303   21.2399 C   0  0  0  0  0  0  0  0  0  0  0  0
  -24.8993  -32.5621   28.5400 C   0  0  0  0  0  0  0  0  0  0  0  0
  -26.0013  -31.0240   26.4989 C   0  0  0  0  0  0  0  0  0  0  0  0
  -27.2147  -31.4316   21.5993 C   0  0  0  0  0  0  0  0  0  0  0  0
  -22.8141   -9.6386   23.1343 C   0  0  0  0  0  0  0  0  0  0  0  0
  -23.2819   -7.8073   21.6295 C   0  0  0  0  0  0  0  0  0  0  0  0
  -28.3161  -30.7025   21.1533 C   0  0  0  0  0  0  0  0  0  0  0  0
  -20.5569   -5.5611   22.4939 C   0  0  0  0  0  0  0  0  0  0  0  0
  -20.6015   -4.1942   22.7683 C   0  0  0  0  0  0  0  0  0  0  0  0
  -29.6167  -21.0989   19.8166 C   0  0  0  0  0  0  0  0  0  0  0  0
  -30.4901  -21.1354   22.0688 C   0  0  0  0  0  0  0  0  0  0  0  0
  -26.8344  -29.0186   20.2655 C   0  0  0  0  0  0  0  0  0  0  0  0
  -22.2210   -4.5978   24.5151 C   0  0  0  0  0  0  0  0  0  0  0  0
  -24.8264   -9.6575   21.7974 C   0  0  0  0  0  0  0  0  0  0  0  0
  -27.3235  -10.1473   21.9762 C   0  0  0  0  0  0  0  0  0  0  0  0
  -24.0523  -31.8062   27.7143 C   0  0  0  0  0  0  0  0  0  0  0  0
  -25.9129  -30.9536   21.3909 C   0  0  0  0  0  0  0  0  0  0  0  0
  -24.6089  -31.0194   26.6878 C   0  0  0  0  0  0  0  0  0  0  0  0
  -30.0599  -20.4198   20.9515 C   0  0  0  0  0  0  0  0  0  0  0  0
  -25.7180  -29.7448   20.7075 C   0  0  0  0  0  0  0  0  0  0  0  0
  -30.0341  -23.2092   20.9163 C   0  0  0  0  0  0  0  0  0  0  0  0
  -22.4552   -8.4115   22.5767 C   0  0  0  0  0  0  0  0  0  0  0  0
  -28.1262  -29.4944   20.4888 C   0  0  0  0  0  0  0  0  0  0  0  0
  -21.3444   -6.4463   23.2300 C   0  0  0  0  0  0  0  0  0  0  0  0
  -29.6038  -22.4936   19.7990 C   0  0  0  0  0  0  0  0  0  0  0  0
  -30.4773  -22.5302   22.0512 C   0  0  0  0  0  0  0  0  0  0  0  0
  -21.4335   -3.7126   23.7789 C   0  0  0  0  0  0  0  0  0  0  0  0
  -22.1765   -5.9647   24.2406 C   0  0  0  0  0  0  0  0  0  0  0  0
  -26.0510  -10.3008   21.3941 C   0  0  0  0  0  0  0  0  0  0  0  0
  -28.1412  -10.9645   21.2345 C   0  0  0  0  0  0  0  0  0  0  0  0
  -27.7302   -9.3383   23.0879 C   0  0  0  0  0  0  0  0  0  0  0  0
  -23.5116  -30.0873   23.2848 C   0  0  0  0  0  0  0  0  0  0  0  0
  -21.9014  -29.8426   20.4796 C   0  0  0  0  0  0  0  0  0  0  0  0
  -22.0234  -29.3962   17.0983 C   0  0  0  0  0  0  0  0  0  0  0  0
  -29.2516  -15.6471   18.6149 C   0  0  0  0  0  0  0  0  0  0  0  0
  -22.5710  -31.8081   27.9978 C   0  0  0  0  0  0  0  0  0  0  0  0
  -24.7345  -31.7651   21.8546 C   0  0  0  0  0  0  0  0  0  0  0  0
  -24.3403  -29.1979   20.4408 C   0  0  0  0  0  0  0  0  0  0  0  0
  -21.7297  -31.2646   26.8458 C   0  0  0  0  0  0  0  0  0  0  0  0
  -27.3239  -13.3701   16.8691 C   0  0  0  0  0  0  0  0  0  0  0  0
  -30.3173  -25.2308   19.4792 C   0  0  0  0  0  0  0  0  0  0  0  0
  -22.3290  -29.9670   26.3129 C   0  0  0  0  0  0  0  0  0  0  0  0
  -26.9194  -12.3472   17.9304 C   0  0  0  0  0  0  0  0  0  0  0  0
  -30.3434  -26.7570   19.4479 C   0  0  0  0  0  0  0  0  0  0  0  0
  -28.6607  -18.3109   20.8222 C   0  0  0  0  0  0  0  0  0  0  0  0
  -31.0205  -18.3209   19.9053 C   0  0  0  0  0  0  0  0  0  0  0  0
  -28.7388  -26.8295   21.3969 C   0  0  0  0  0  0  0  0  0  0  0  0
  -27.2576  -14.7880   17.4246 C   0  0  0  0  0  0  0  0  0  0  0  0
  -28.6858  -16.7798   20.8098 C   0  0  0  0  0  0  0  0  0  0  0  0
  -30.9998  -16.7954   19.9392 C   0  0  0  0  0  0  0  0  0  0  0  0
  -27.6939  -13.9795   19.7211 C   0  0  0  0  0  0  0  0  0  0  0  0
  -30.0739  -18.9029   20.9707 C   0  0  0  0  0  0  0  0  0  0  0  0
  -30.0198  -24.7040   20.8981 C   0  0  1  0  0  0  0  0  0  0  0  0
  -23.7406  -30.1976   25.7600 C   0  0  1  0  0  0  0  0  0  0  0  0
  -23.4711  -30.9308   22.0420 C   0  0  1  0  0  0  0  0  0  0  0  0
  -28.6978  -25.2926   21.4643 C   0  0  2  0  0  0  0  0  0  0  0  0
  -27.7499  -12.5241   19.2139 C   0  0  1  0  0  0  0  0  0  0  0  0
  -29.0541  -27.3604   19.9978 C   0  0  1  0  0  0  0  0  0  1  0  0
  -27.4357  -24.7565   20.7727 C   0  0  0  0  0  0  0  0  0  0  0  0
  -20.5419  -29.2044   15.0819 C   0  0  0  0  0  0  0  0  0  0  0  0
  -21.1631  -26.9968   21.2957 C   0  0  0  0  0  0  0  0  0  0  0  0
  -20.5310  -26.5522   18.9143 C   0  0  0  0  0  0  0  0  0  0  0  0
  -19.3094  -28.2887   20.2237 C   0  0  0  0  0  0  0  0  0  0  0  0
  -23.2354  -31.7834   15.8369 C   0  0  0  0  0  0  0  0  0  0  0  0
  -28.7462  -22.3302   17.5868 C   0  0  0  0  0  0  0  0  0  0  0  0
  -31.3370  -22.4364   24.2666 C   0  0  0  0  0  0  0  0  0  0  0  0
  -21.6782  -28.7452   19.4672 C   0  0  1  0  0  0  0  0  0  0  0  0
  -21.3550  -30.1440   15.9588 C   0  0  2  0  0  0  0  0  0  0  0  0
  -20.6966  -27.6548   19.9818 C   0  0  0  0  0  0  0  0  0  0  0  0
  -26.0548  -11.1490   20.3623 N   0  0  0  0  0  0  0  0  0  0  0  0
  -27.3398  -11.5359   20.2903 N   0  0  0  0  0  0  0  0  0  0  0  0
  -23.2202  -30.0250   20.9192 N   0  0  0  0  0  0  0  0  0  0  0  0
  -28.0555  -14.9142   18.6441 N   0  0  0  0  0  0  0  0  0  0  0  0
  -29.6360  -16.2844   19.8042 N   0  0  0  0  0  0  0  0  0  0  0  0
  -29.4602  -11.2431   21.3045 N   0  0  0  0  0  0  0  0  0  0  0  0
  -26.7625   -8.5591   23.7365 N   0  0  0  0  0  0  0  0  0  0  0  0
  -23.6766  -30.8107   24.4506 N   0  0  0  0  0  0  0  0  0  0  0  0
  -21.2483  -29.4044   18.2387 N   0  0  0  0  0  0  0  0  0  0  0  0
  -22.3787  -30.8134   15.1075 N   0  3  0  0  0  0  0  0  0  0  0  0
  -28.9133   -9.3199   23.5043 O   0  0  0  0  0  0  0  0  0  0  0  0
  -23.3998  -28.8704   23.1931 O   0  0  0  0  0  0  0  0  0  0  0  0
  -20.9421  -30.5180   20.8607 O   0  0  0  0  0  0  0  0  0  0  0  0
  -23.1215  -28.8556   16.9868 O   0  0  0  0  0  0  0  0  0  0  0  0
  -29.9366  -15.7270   17.5875 O   0  0  0  0  0  0  0  0  0  0  0  0
  -21.2985   -7.8031   22.9568 O   0  0  0  0  0  0  0  0  0  0  0  0
  -29.2061  -28.7760   20.0504 O   0  0  0  0  0  0  0  0  0  1  0  0
  -29.1675  -23.1406   18.6820 O   0  0  0  0  0  0  0  0  0  0  0  0
  -30.9013  -23.2121   23.1521 O   0  0  0  0  0  0  0  0  0  0  0  0
  -21.4751   -2.4001   24.0434 F   0  0  0  0  0  0  0  0  0  0  0  0
  -22.9345   -6.8104   24.9520 F   0  0  0  0  0  0  0  0  0  0  0  0
  1  2  1  0  0  0  0
  1  5  2  0  0  0  0
  2  6  2  0  0  0  0
  3  8  2  0  0  0  0
  3 17  1  0  0  0  0
  4  9  1  0  0  0  0
  4 17  2  0  0  0  0
  5 19  1  0  0  0  0
  6 21  1  0  0  0  0
  7 10  2  0  0  0  0
  7 20  1  0  0  0  0
  8 25  1  0  0  0  0
  9 25  2  0  0  0  0
 10 26  1  0  0  0  0
 11 12  2  0  0  0  0
 11 27  1  0  0  0  0
 12 30  1  0  0  0  0
 13 22  1  0  0  0  0
 13 28  2  0  0  0  0
 14 22  2  0  0  0  0
 14 29  1  0  0  0  0
 15 23  1  0  0  0  0
 15 26  2  0  0  0  0
 16 30  2  0  0  0  0
 16 31  1  0  0  0  0
 17 32  1  0  0  0  0
 18 32  1  0  0  0  0
 18 33  2  0  0  0  0
 18 34  1  0  0  0  0
 19 21  2  0  0  0  0
 19 39  1  0  0  0  0
 20 23  2  0  0  0  0
 20 40  1  0  0  0  0
 21 57  1  0  0  0  0
 22 55  1  0  0  0  0
 23 41  1  0  0  0  0
 24 28  1  0  0  0  0
 24 29  2  0  0  0  0
 24 56  1  0  0  0  0
 25 88  1  0  0  0  0
 26 89  1  0  0  0  0
 27 31  2  0  0  0  0
 27 88  1  0  0  0  0
 28 90  1  0  0  0  0
 29 91  1  0  0  0  0
 30 92  1  0  0  0  0
 31 93  1  0  0  0  0
 32 73  2  0  0  0  0
 33 74  1  0  0  0  0
 33 78  1  0  0  0  0
 34 79  1  0  0  0  0
 34 83  2  0  0  0  0
 35 58  1  0  0  0  0
 35 80  1  0  0  0  0
 35 84  2  0  0  0  0
 36 70  1  0  0  0  0
 36 75  1  0  0  0  0
 36 85  2  0  0  0  0
 37 71  1  0  0  0  0
 37 81  1  0  0  0  0
 37 86  2  0  0  0  0
 38 76  1  0  0  0  0
 38 77  1  0  0  0  0
 38 87  2  0  0  0  0
 39 42  1  0  0  0  0
 40 58  1  0  0  0  0
 41 75  1  0  0  0  0
 42 45  1  0  0  0  0
 43 46  1  0  0  0  0
 43 51  1  0  0  0  0
 44 47  1  0  0  0  0
 44 56  1  0  0  0  0
 45 57  1  0  0  0  0
 46 60  1  0  0  0  0
 47 61  1  0  0  0  0
 48 52  1  0  0  0  0
 48 55  1  0  0  0  0
 49 53  1  0  0  0  0
 49 55  1  0  0  0  0
 50 59  1  0  0  0  0
 50 61  1  0  0  0  0
 51 76  1  0  0  0  0
 52 77  1  0  0  0  0
 53 77  1  0  0  0  0
 54 60  1  0  0  0  0
 54 76  1  0  0  0  0
 56 59  1  0  0  0  0
 57 80  1  0  0  0  0
 58 75  1  0  0  0  0
 59 62  1  0  0  0  0
 60 74  1  0  0  0  0
 61 89  1  0  0  0  0
 63 71  1  0  0  0  0
 64 72  1  0  0  0  0
 65 72  1  0  0  0  0
 66 72  1  0  0  0  0
 67 82  1  0  0  0  0
 68 90  1  0  0  0  0
 69 91  1  0  0  0  0
 70 72  1  0  0  0  0
 70 81  1  0  0  0  0
 71 82  1  0  0  0  0
 73 74  1  0  0  0  0
M  CHG  1  82   1
M  ISO  4  38 100  61 101  77 100  89 101
M  END
> <Batch ID>
0154

> <Smiles>
CNC(C)C(=O)NC(C(=O)N1Cc2cc([101O:1][101CH:1]3CCC(c4c(OC)cc(C5CC[100N:0]([100C:0](=O)N6CCCC(n7nc(-c8ccc(Oc9ccc(F)cc9F)cc8)c(C(N)=O)c7N)C6)CC5)cc4OC)C(C)C3)ccc2CC1C(=O)NC1CCCc2ccccc21)C(C)(C)C

> <Shape>
0.295

> <Color>
0.090

> <Negative vol penalty>
0.000

$$$$

  -OEChem-04052321513D

 89 98  0     1  0  0  0  0  0999 V2000
  -23.1262  -32.6958   14.4340 C   0  0  0  0  0  0  0  0  0  0  0  0
  -24.1159  -31.9111   15.0172 C   0  0  0  0  0  0  0  0  0  0  0  0
  -22.3032  -13.1027   21.8584 C   0  0  0  0  0  0  0  0  0  0  0  0
  -23.7490  -11.7798   23.2715 C   0  0  0  0  0  0  0  0  0  0  0  0
  -22.5822  -33.7681   15.1398 C   0  0  0  0  0  0  0  0  0  0  0  0
  -24.5629  -32.1989   16.3063 C   0  0  0  0  0  0  0  0  0  0  0  0
  -24.9918  -28.0543   19.1843 C   0  0  0  0  0  0  0  0  0  0  0  0
  -21.3648  -13.1766   22.8877 C   0  0  0  0  0  0  0  0  0  0  0  0
  -22.8105  -11.8537   24.3009 C   0  0  0  0  0  0  0  0  0  0  0  0
  -26.1140  -27.2520   18.9821 C   0  0  0  0  0  0  0  0  0  0  0  0
  -18.9815  -11.1924   24.2320 C   0  0  0  0  0  0  0  0  0  0  0  0
  -17.6432  -10.9745   23.9047 C   0  0  0  0  0  0  0  0  0  0  0  0
  -27.1670  -28.2494   20.9097 C   0  0  0  0  0  0  0  0  0  0  0  0
  -28.0169  -20.2994   19.0655 C   0  0  0  0  0  0  0  0  0  0  0  0
  -30.2081  -18.7701   19.8672 C   0  0  0  0  0  0  0  0  0  0  0  0
  -17.0896  -13.1901   24.6930 C   0  0  0  0  0  0  0  0  0  0  0  0
  -23.4953  -12.4043   22.0503 C   0  0  0  0  0  0  0  0  0  0  0  0
  -24.2784  -11.7771   19.7049 C   0  0  0  0  0  0  0  0  0  0  0  0
  -23.0159  -34.0633   16.4418 C   0  0  0  0  0  0  0  0  0  0  0  0
  -24.9532  -28.9694   20.2461 C   0  0  0  0  0  0  0  0  0  0  0  0
  -24.0251  -33.2770   17.0297 C   0  0  0  0  0  0  0  0  0  0  0  0
  -26.0421  -29.0603   21.1248 C   0  0  0  0  0  0  0  0  0  0  0  0
  -29.1951  -20.9272   19.4698 C   0  0  0  0  0  0  0  0  0  0  0  0
  -30.2907  -20.1625   19.8706 C   0  0  0  0  0  0  0  0  0  0  0  0
  -29.0299  -18.1423   19.4629 C   0  0  0  0  0  0  0  0  0  0  0  0
  -21.6184  -12.5521   24.1089 C   0  0  0  0  0  0  0  0  0  0  0  0
  -27.2030  -27.3515   19.8431 C   0  0  0  0  0  0  0  0  0  0  0  0
  -19.3738  -12.4092   24.7899 C   0  0  0  0  0  0  0  0  0  0  0  0
  -27.9343  -18.9070   19.0621 C   0  0  0  0  0  0  0  0  0  0  0  0
  -16.6973  -11.9733   24.1352 C   0  0  0  0  0  0  0  0  0  0  0  0
  -18.4279  -13.4080   25.0204 C   0  0  0  0  0  0  0  0  0  0  0  0
  -24.4649  -12.3271   20.9873 C   0  0  0  0  0  0  0  0  0  0  0  0
  -25.4891  -11.9473   19.0789 C   0  0  0  0  0  0  0  0  0  0  0  0
  -23.1149  -11.1669   19.1308 C   0  0  0  0  0  0  0  0  0  0  0  0
  -24.7073  -32.1303   20.4753 C   0  0  0  0  0  0  0  0  0  0  0  0
  -24.5187  -31.4949   23.6507 C   0  0  0  0  0  0  0  0  0  0  0  0
  -26.1478  -29.2901   25.9964 C   0  0  0  0  0  0  0  0  0  0  0  0
  -29.9651  -15.8330   19.8353 C   0  0  0  0  0  0  0  0  0  0  0  0
  -22.4318  -35.2615   17.1474 C   0  0  0  0  0  0  0  0  0  0  0  0
  -23.7245  -29.8086   20.4665 C   0  0  0  0  0  0  0  0  0  0  0  0
  -26.0422  -30.0125   22.2918 C   0  0  0  0  0  0  0  0  0  0  0  0
  -22.6946  -35.2708   18.6511 C   0  0  0  0  0  0  0  0  0  0  0  0
  -30.1739  -12.2831   20.0140 C   0  0  0  0  0  0  0  0  0  0  0  0
  -28.8726  -23.0380   20.8305 C   0  0  0  0  0  0  0  0  0  0  0  0
  -28.4091  -23.0498   18.3357 C   0  0  0  0  0  0  0  0  0  0  0  0
  -24.1565  -34.9445   18.9396 C   0  0  0  0  0  0  0  0  0  0  0  0
  -28.7161  -11.8411   20.1610 C   0  0  0  0  0  0  0  0  0  0  0  0
  -28.9502  -24.5625   20.8167 C   0  0  0  0  0  0  0  0  0  0  0  0
  -28.4897  -24.5741   18.3349 C   0  0  0  0  0  0  0  0  0  0  0  0
  -30.4516  -13.5820   20.7687 C   0  0  0  0  0  0  0  0  0  0  0  0
  -28.0865  -14.2496   20.5966 C   0  0  0  0  0  0  0  0  0  0  0  0
  -29.2611  -22.4436   19.4650 C   0  0  0  0  0  0  0  0  0  0  0  0
  -24.5187  -33.5423   18.4354 C   0  0  1  0  0  0  0  0  0  0  0  0
  -24.0012  -31.0723   21.2752 C   0  0  1  0  0  0  0  0  0  0  0  0
  -27.7427  -12.9804   19.8001 C   0  0  2  0  0  0  0  0  0  0  0  0
  -28.1072  -25.1604   19.6918 C   0  0  0  0  0  0  0  0  0  1  0  0
  -24.6550  -17.4395   19.3542 C   0  0  0  0  0  0  0  0  0  0  0  0
  -32.7496  -20.4508   19.3975 C   0  0  0  0  0  0  0  0  0  0  0  0
  -31.9096  -20.4951   21.7739 C   0  0  0  0  0  0  0  0  0  0  0  0
  -25.3278  -28.3140   28.1579 C   0  0  0  0  0  0  0  0  0  0  0  0
  -25.8892  -33.9053   24.9240 C   0  0  0  0  0  0  0  0  0  0  0  0
  -26.6127  -32.4146   26.8009 C   0  0  0  0  0  0  0  0  0  0  0  0
  -24.1838  -32.7890   26.3731 C   0  0  0  0  0  0  0  0  0  0  0  0
  -26.7122  -26.5275   25.0972 C   0  0  0  0  0  0  0  0  0  0  0  0
  -25.5990  -18.6216   19.4096 C   0  0  0  0  0  0  0  0  0  0  0  0
  -31.5620  -20.8128   20.3080 C   0  0  0  0  0  0  0  0  0  0  0  0
  -25.5173  -31.3548   24.7741 C   0  0  1  0  0  0  0  0  0  0  0  0
  -25.5414  -28.0732   26.6716 C   0  0  2  0  0  0  0  0  0  0  0  0
  -25.5577  -32.6097   25.6912 C   0  0  0  0  0  0  0  0  0  0  0  0
  -25.6970  -12.8104   21.1669 N   0  0  0  0  0  0  0  0  0  0  0  0
  -26.2958  -12.5646   19.9891 N   0  0  0  0  0  0  0  0  0  0  0  0
  -24.8204  -30.8161   22.4616 N   0  0  0  0  0  0  0  0  0  0  0  0
  -29.4936  -14.6165   20.3726 N   0  0  0  0  0  0  0  0  0  0  0  0
  -25.9316  -11.6276   17.8443 N   0  0  0  0  0  0  0  0  0  0  0  0
  -21.9553  -11.0730   19.9123 N   0  0  0  0  0  0  0  0  0  0  0  0
  -28.9612  -16.7270   19.4646 N   0  0  0  0  0  0  0  0  0  0  0  0
  -24.0208  -32.5336   19.3460 N   0  0  0  0  0  0  0  0  0  0  0  0
  -25.1790  -30.1175   25.4691 N   0  0  0  0  0  0  0  0  0  0  0  0
  -26.4357  -26.8920   26.5106 N   0  3  0  0  0  0  0  0  0  0  0  0
  -23.1089  -10.7034   17.9652 O   0  0  0  0  0  0  0  0  0  0  0  0
  -25.7938  -32.5506   20.8555 O   0  0  0  0  0  0  0  0  0  0  0  0
  -23.5047  -32.1755   23.8244 O   0  0  0  0  0  0  0  0  0  0  0  0
  -27.3596  -29.4888   25.9453 O   0  0  0  0  0  0  0  0  0  0  0  0
  -31.1699  -16.0536   19.6879 O   0  0  0  0  0  0  0  0  0  0  0  0
  -20.7030  -12.6243   25.1136 O   0  0  0  0  0  0  0  0  0  0  0  0
  -28.2998  -26.5701   19.6476 O   0  0  0  0  0  0  0  0  0  1  0  0
  -26.7741  -18.3129   18.6633 O   0  0  0  0  0  0  0  0  0  0  0  0
  -15.4124  -11.7645   23.8194 F   0  0  0  0  0  0  0  0  0  0  0  0
  -18.7990  -14.5795   25.5550 F   0  0  0  0  0  0  0  0  0  0  0  0
  1  2  1  0  0  0  0
  1  5  2  0  0  0  0
  2  6  2  0  0  0  0
  3  8  2  0  0  0  0
  3 17  1  0  0  0  0
  4  9  1  0  0  0  0
  4 17  2  0  0  0  0
  5 19  1  0  0  0  0
  6 21  1  0  0  0  0
  7 10  2  0  0  0  0
  7 20  1  0  0  0  0
  8 26  1  0  0  0  0
  9 26  2  0  0  0  0
 10 27  1  0  0  0  0
 11 12  2  0  0  0  0
 11 28  1  0  0  0  0
 12 30  1  0  0  0  0
 13 22  1  0  0  0  0
 13 27  2  0  0  0  0
 14 23  2  0  0  0  0
 14 29  1  0  0  0  0
 15 24  2  0  0  0  0
 15 25  1  0  0  0  0
 16 30  2  0  0  0  0
 16 31  1  0  0  0  0
 17 32  1  0  0  0  0
 18 32  1  0  0  0  0
 18 33  2  0  0  0  0
 18 34  1  0  0  0  0
 19 21  2  0  0  0  0
 19 39  1  0  0  0  0
 20 22  2  0  0  0  0
 20 40  1  0  0  0  0
 21 53  1  0  0  0  0
 22 41  1  0  0  0  0
 23 24  1  0  0  0  0
 23 52  1  0  0  0  0
 24 66  1  0  0  0  0
 25 29  2  0  0  0  0
 25 76  1  0  0  0  0
 26 85  1  0  0  0  0
 27 86  1  0  0  0  0
 28 31  2  0  0  0  0
 28 85  1  0  0  0  0
 29 87  1  0  0  0  0
 30 88  1  0  0  0  0
 31 89  1  0  0  0  0
 32 70  2  0  0  0  0
 33 71  1  0  0  0  0
 33 74  1  0  0  0  0
 34 75  1  0  0  0  0
 34 80  2  0  0  0  0
 35 54  1  0  0  0  0
 35 77  1  0  0  0  0
 35 81  2  0  0  0  0
 36 67  1  0  0  0  0
 36 72  1  0  0  0  0
 36 82  2  0  0  0  0
 37 68  1  0  0  0  0
 37 78  1  0  0  0  0
 37 83  2  0  0  0  0
 38 73  1  0  0  0  0
 38 76  1  0  0  0  0
 38 84  2  0  0  0  0
 39 42  1  0  0  0  0
 40 54  1  0  0  0  0
 41 72  1  0  0  0  0
 42 46  1  0  0  0  0
 43 47  1  0  0  0  0
 43 50  1  0  0  0  0
 44 48  1  0  0  0  0
 44 52  1  0  0  0  0
 45 49  1  0  0  0  0
 45 52  1  0  0  0  0
 46 53  1  0  0  0  0
 47 55  1  0  0  0  0
 48 56  1  0  0  0  0
 49 56  1  0  0  0  0
 50 73  1  0  0  0  0
 51 55  1  0  0  0  0
 51 73  1  0  0  0  0
 53 77  1  0  0  0  0
 54 72  1  0  0  0  0
 55 71  1  0  0  0  0
 56 86  1  0  0  0  0
 57 65  1  0  0  0  0
 58 66  1  0  0  0  0
 59 66  1  0  0  0  0
 60 68  1  0  0  0  0
 61 69  1  0  0  0  0
 62 69  1  0  0  0  0
 63 69  1  0  0  0  0
 64 79  1  0  0  0  0
 65 87  1  0  0  0  0
 67 69  1  0  0  0  0
 67 78  1  0  0  0  0
 68 79  1  0  0  0  0
 70 71  1  0  0  0  0
M  CHG  1  79   1
M  ISO  4  38 100  56 101  76 100  86 101
M  END
> <Batch ID>
0154

> <Smiles>
CCOc1cc(C2CC[101CH:1]([101O:1]c3ccc4c(c3)CN(C(=O)C(NC(=O)C(C)NC)C(C)(C)C)C(C(=O)NC3CCCc5ccccc53)C4)CC2)c(C(C)C)cc1[100NH:0][100C:0](=O)N1CCCC(n2nc(-c3ccc(Oc4ccc(F)cc4F)cc3)c(C(N)=O)c2N)C1

> <Shape>
0.268

> <Color>
0.100

> <Negative vol penalty>
0.000

$$$$

  -OEChem-04052321513D

 87 96  0     1  0  0  0  0  0999 V2000
  -27.0723  -37.6694   24.1793 C   0  0  0  0  0  0  0  0  0  0  0  0
  -27.7705  -36.6715   23.5069 C   0  0  0  0  0  0  0  0  0  0  0  0
  -23.6458  -10.4798   22.4210 C   0  0  0  0  0  0  0  0  0  0  0  0
  -24.4813   -8.6121   21.1362 C   0  0  0  0  0  0  0  0  0  0  0  0
  -25.9433  -37.3440   24.9298 C   0  0  0  0  0  0  0  0  0  0  0  0
  -27.3408  -35.3473   23.5856 C   0  0  0  0  0  0  0  0  0  0  0  0
  -27.0616  -29.3287   19.7106 C   0  0  0  0  0  0  0  0  0  0  0  0
  -22.5049   -9.7460   22.7457 C   0  0  0  0  0  0  0  0  0  0  0  0
  -23.3404   -7.8783   21.4609 C   0  0  0  0  0  0  0  0  0  0  0  0
  -27.4061  -27.9801   19.7894 C   0  0  0  0  0  0  0  0  0  0  0  0
  -20.8152   -5.3838   22.2479 C   0  0  0  0  0  0  0  0  0  0  0  0
  -20.9873   -4.0577   22.6445 C   0  0  0  0  0  0  0  0  0  0  0  0
  -25.3964  -27.5467   21.0514 C   0  0  0  0  0  0  0  0  0  0  0  0
  -28.7022  -23.3679   21.2911 C   0  0  0  0  0  0  0  0  0  0  0  0
  -28.0865  -23.0541   18.9761 C   0  0  0  0  0  0  0  0  0  0  0  0
  -22.3515   -4.7893   24.4994 C   0  0  0  0  0  0  0  0  0  0  0  0
  -24.6340   -9.9128   21.6162 C   0  0  0  0  0  0  0  0  0  0  0  0
  -27.0241  -10.7201   21.9953 C   0  0  0  0  0  0  0  0  0  0  0  0
  -25.4939  -36.0165   25.0099 C   0  0  0  0  0  0  0  0  0  0  0  0
  -25.8855  -29.7993   20.3120 C   0  0  0  0  0  0  0  0  0  0  0  0
  -26.2055  -35.0036   24.3390 C   0  0  0  0  0  0  0  0  0  0  0  0
  -25.0380  -28.9014   20.9766 C   0  0  0  0  0  0  0  0  0  0  0  0
  -28.6523  -21.1454   20.3450 C   0  0  0  0  0  0  0  0  0  0  0  0
  -28.3084  -23.8995   20.0632 C   0  0  0  0  0  0  0  0  0  0  0  0
  -28.8742  -21.9908   21.4320 C   0  0  0  0  0  0  0  0  0  0  0  0
  -28.2584  -21.6770   19.1170 C   0  0  0  0  0  0  0  0  0  0  0  0
  -22.3521   -8.4453   22.2657 C   0  0  0  0  0  0  0  0  0  0  0  0
  -26.5749  -27.0894   20.4624 C   0  0  0  0  0  0  0  0  0  0  0  0
  -21.4114   -6.4128   22.9771 C   0  0  0  0  0  0  0  0  0  0  0  0
  -21.7553   -3.7604   23.7702 C   0  0  0  0  0  0  0  0  0  0  0  0
  -22.1795   -6.1155   24.1028 C   0  0  0  0  0  0  0  0  0  0  0  0
  -25.8126  -10.6705   21.2800 C   0  0  0  0  0  0  0  0  0  0  0  0
  -27.8173  -11.5739   21.2684 C   0  0  0  0  0  0  0  0  0  0  0  0
  -27.3989  -10.0539   23.2082 C   0  0  0  0  0  0  0  0  0  0  0  0
  -25.2244  -31.8844   22.6183 C   0  0  0  0  0  0  0  0  0  0  0  0
  -22.1593  -31.3046   21.7289 C   0  0  0  0  0  0  0  0  0  0  0  0
  -19.9185  -29.1877   20.2646 C   0  0  0  0  0  0  0  0  0  0  0  0
  -28.6565  -16.1466   18.3689 C   0  0  0  0  0  0  0  0  0  0  0  0
  -24.2959  -35.7065   25.8721 C   0  0  0  0  0  0  0  0  0  0  0  0
  -25.5146  -31.2523   20.1951 C   0  0  0  0  0  0  0  0  0  0  0  0
  -23.7539  -29.3524   21.6217 C   0  0  0  0  0  0  0  0  0  0  0  0
  -23.6883  -34.3329   25.5994 C   0  0  0  0  0  0  0  0  0  0  0  0
  -27.2040  -13.5234   16.6494 C   0  0  0  0  0  0  0  0  0  0  0  0
  -24.7807  -33.2706   25.5275 C   0  0  0  0  0  0  0  0  0  0  0  0
  -26.8079  -12.5413   17.7517 C   0  0  0  0  0  0  0  0  0  0  0  0
  -27.5277  -18.8759   20.2649 C   0  0  0  0  0  0  0  0  0  0  0  0
  -29.9558  -19.1086   19.5866 C   0  0  0  0  0  0  0  0  0  0  0  0
  -26.9151  -14.9600   17.0689 C   0  0  0  0  0  0  0  0  0  0  0  0
  -27.7304  -17.3631   20.3897 C   0  0  0  0  0  0  0  0  0  0  0  0
  -30.1075  -17.5992   19.7521 C   0  0  0  0  0  0  0  0  0  0  0  0
  -27.1913  -14.3874   19.4593 C   0  0  0  0  0  0  0  0  0  0  0  0
  -28.8389  -19.6477   20.4987 C   0  0  0  0  0  0  0  0  0  0  0  0
  -25.7561  -33.5591   24.3800 C   0  0  1  0  0  0  0  0  0  0  0  0
  -24.5523  -31.7129   21.2855 C   0  0  1  0  0  0  0  0  0  0  0  0
  -27.4692  -12.9160   19.0899 C   0  0  1  0  0  0  0  0  0  0  0  0
  -29.2954  -21.4467   22.7580 C   0  0  0  0  0  0  0  0  0  0  0  0
  -28.9743  -21.0926   16.7719 C   0  0  0  0  0  0  0  0  0  0  0  0
  -26.5566  -20.8594   17.4468 C   0  0  0  0  0  0  0  0  0  0  0  0
  -17.4786  -28.9720   19.7190 C   0  0  0  0  0  0  0  0  0  0  0  0
  -21.5655  -30.6580   24.6511 C   0  0  0  0  0  0  0  0  0  0  0  0
  -19.4427  -29.5605   23.9044 C   0  0  0  0  0  0  0  0  0  0  0  0
  -19.7952  -31.9964   23.4982 C   0  0  0  0  0  0  0  0  0  0  0  0
  -20.4623  -29.0404   17.3591 C   0  0  0  0  0  0  0  0  0  0  0  0
  -28.1252  -25.3718   19.9124 C   0  0  0  0  0  0  0  0  0  1  0  0
  -28.0143  -20.7932   17.9376 C   0  0  0  0  0  0  0  0  0  0  0  0
  -21.0977  -30.3115   22.1357 C   0  0  1  0  0  0  0  0  0  0  0  0
  -18.8421  -29.4251   19.2208 C   0  0  2  0  0  0  0  0  0  0  0  0
  -20.5004  -30.6231   23.5370 C   0  0  0  0  0  0  0  0  0  0  0  0
  -25.8299  -11.4323   20.1830 N   0  0  0  0  0  0  0  0  0  0  0  0
  -27.0620  -11.9687   20.2036 N   0  0  0  0  0  0  0  0  0  0  0  0
  -23.4382  -30.7840   21.4855 N   0  0  0  0  0  0  0  0  0  0  0  0
  -27.5568  -15.2757   18.3449 N   0  0  0  0  0  0  0  0  0  0  0  0
  -28.8343  -16.9146   19.5296 N   0  0  0  0  0  0  0  0  0  0  0  0
  -29.0801  -12.0180   21.4426 N   0  0  0  0  0  0  0  0  0  0  0  0
  -26.4632   -9.2121   23.8248 N   0  0  0  0  0  0  0  0  0  0  0  0
  -25.1734  -33.1738   23.1125 N   0  0  0  0  0  0  0  0  0  0  0  0
  -20.1156  -30.2988   21.0569 N   0  0  0  0  0  0  0  0  0  0  0  0
  -19.1583  -28.6771   17.9712 N   0  3  0  0  0  0  0  0  0  0  0  0
  -28.5244  -10.2136   23.7387 O   0  0  0  0  0  0  0  0  0  0  0  0
  -25.7492  -30.9180   23.1591 O   0  0  0  0  0  0  0  0  0  0  0  0
  -21.8630  -32.4975   21.6237 O   0  0  0  0  0  0  0  0  0  0  0  0
  -20.5214  -28.1218   20.3692 O   0  0  0  0  0  0  0  0  0  0  0  0
  -29.4346  -16.2330   17.4106 O   0  0  0  0  0  0  0  0  0  0  0  0
  -21.2390   -7.7289   22.5825 O   0  0  0  0  0  0  0  0  0  0  0  0
  -26.9114  -25.7635   20.5419 O   0  0  0  0  0  0  0  0  0  1  0  0
  -21.9192   -2.4869   24.1518 F   0  0  0  0  0  0  0  0  0  0  0  0
  -22.7537   -7.0998   24.8080 F   0  0  0  0  0  0  0  0  0  0  0  0
  1  2  1  0  0  0  0
  1  5  2  0  0  0  0
  2  6  2  0  0  0  0
  3  8  2  0  0  0  0
  3 17  1  0  0  0  0
  4  9  1  0  0  0  0
  4 17  2  0  0  0  0
  5 19  1  0  0  0  0
  6 21  1  0  0  0  0
  7 10  2  0  0  0  0
  7 20  1  0  0  0  0
  8 27  1  0  0  0  0
  9 27  2  0  0  0  0
 10 28  1  0  0  0  0
 11 12  2  0  0  0  0
 11 29  1  0  0  0  0
 12 30  1  0  0  0  0
 13 22  1  0  0  0  0
 13 28  2  0  0  0  0
 14 24  1  0  0  0  0
 14 25  2  0  0  0  0
 15 24  2  0  0  0  0
 15 26  1  0  0  0  0
 16 30  2  0  0  0  0
 16 31  1  0  0  0  0
 17 32  1  0  0  0  0
 18 32  1  0  0  0  0
 18 33  2  0  0  0  0
 18 34  1  0  0  0  0
 19 21  2  0  0  0  0
 19 39  1  0  0  0  0
 20 22  2  0  0  0  0
 20 40  1  0  0  0  0
 21 53  1  0  0  0  0
 22 41  1  0  0  0  0
 23 25  1  0  0  0  0
 23 26  2  0  0  0  0
 23 52  1  0  0  0  0
 24 64  1  0  0  0  0
 25 56  1  0  0  0  0
 26 65  1  0  0  0  0
 27 84  1  0  0  0  0
 28 85  1  0  0  0  0
 29 31  2  0  0  0  0
 29 84  1  0  0  0  0
 30 86  1  0  0  0  0
 31 87  1  0  0  0  0
 32 69  2  0  0  0  0
 33 70  1  0  0  0  0
 33 74  1  0  0  0  0
 34 75  1  0  0  0  0
 34 79  2  0  0  0  0
 35 54  1  0  0  0  0
 35 76  1  0  0  0  0
 35 80  2  0  0  0  0
 36 66  1  0  0  0  0
 36 71  1  0  0  0  0
 36 81  2  0  0  0  0
 37 67  1  0  0  0  0
 37 77  1  0  0  0  0
 37 82  2  0  0  0  0
 38 72  1  0  0  0  0
 38 73  1  0  0  0  0
 38 83  2  0  0  0  0
 39 42  1  0  0  0  0
 40 54  1  0  0  0  0
 41 71  1  0  0  0  0
 42 44  1  0  0  0  0
 43 45  1  0  0  0  0
 43 48  1  0  0  0  0
 44 53  1  0  0  0  0
 45 55  1  0  0  0  0
 46 49  1  0  0  0  0
 46 52  1  0  0  0  0
 47 50  1  0  0  0  0
 47 52  1  0  0  0  0
 48 72  1  0  0  0  0
 49 73  1  0  0  0  0
 50 73  1  0  0  0  0
 51 55  1  0  0  0  0
 51 72  1  0  0  0  0
 53 76  1  0  0  0  0
 54 71  1  0  0  0  0
 55 70  1  0  0  0  0
 57 65  1  0  0  0  0
 58 65  1  0  0  0  0
 59 67  1  0  0  0  0
 60 68  1  0  0  0  0
 61 68  1  0  0  0  0
 62 68  1  0  0  0  0
 63 78  1  0  0  0  0
 64 85  1  0  0  0  0
 66 68  1  0  0  0  0
 66 77  1  0  0  0  0
 67 78  1  0  0  0  0
 69 70  1  0  0  0  0
M  CHG  1  78   1
M  ISO  4  38 100  64 101  73 100  85 101
M  END
> <Batch ID>
0154

> <Smiles>
CNC(C)C(=O)NC(C(=O)N1Cc2cc([101O:1][101CH2:1]c3cc(C)c(C4CC[100N:0]([100C:0](=O)N5CCCC(n6nc(-c7ccc(Oc8ccc(F)cc8F)cc7)c(C(N)=O)c6N)C5)CC4)c(C(C)C)c3)ccc2CC1C(=O)NC1CCCc2ccccc21)C(C)(C)C

> <Shape>
0.327

> <Color>
0.087

> <Negative vol penalty>
0.000

$$$$

  -OEChem-04052321513D

 85 94  0     1  0  0  0  0  0999 V2000
  -29.2796  -37.0624   21.3981 C   0  0  0  0  0  0  0  0  0  0  0  0
  -29.5494  -35.7604   20.9891 C   0  0  0  0  0  0  0  0  0  0  0  0
  -25.0449   -9.3365   20.2262 C   0  0  0  0  0  0  0  0  0  0  0  0
  -24.4098   -9.7748   22.5156 C   0  0  0  0  0  0  0  0  0  0  0  0
  -28.3715  -37.2935   22.4305 C   0  0  0  0  0  0  0  0  0  0  0  0
  -28.9119  -34.6885   21.6129 C   0  0  0  0  0  0  0  0  0  0  0  0
  -27.1308  -29.4409   19.0060 C   0  0  0  0  0  0  0  0  0  0  0  0
  -24.8619   -7.9699   20.4370 C   0  0  0  0  0  0  0  0  0  0  0  0
  -24.2268   -8.4081   22.7265 C   0  0  0  0  0  0  0  0  0  0  0  0
  -27.7104  -28.1739   18.9570 C   0  0  0  0  0  0  0  0  0  0  0  0
  -23.2442   -5.0655   23.7655 C   0  0  0  0  0  0  0  0  0  0  0  0
  -22.0957   -4.6616   24.4463 C   0  0  0  0  0  0  0  0  0  0  0  0
  -28.8918  -21.9432   18.8205 C   0  0  0  0  0  0  0  0  0  0  0  0
  -31.1435  -22.7274   19.2099 C   0  0  0  0  0  0  0  0  0  0  0  0
  -26.3580  -27.4892   20.8336 C   0  0  0  0  0  0  0  0  0  0  0  0
  -20.7246   -5.6718   22.7326 C   0  0  0  0  0  0  0  0  0  0  0  0
  -24.8188  -10.2389   21.2655 C   0  0  0  0  0  0  0  0  0  0  0  0
  -24.0474  -12.5789   20.6045 C   0  0  0  0  0  0  0  0  0  0  0  0
  -27.7153  -36.2245   23.0608 C   0  0  0  0  0  0  0  0  0  0  0  0
  -26.1667  -29.7455   19.9777 C   0  0  0  0  0  0  0  0  0  0  0  0
  -27.9951  -34.9055   22.6556 C   0  0  0  0  0  0  0  0  0  0  0  0
  -30.2407  -21.6756   19.0537 C   0  0  0  0  0  0  0  0  0  0  0  0
  -25.7659  -28.7601   20.8912 C   0  0  0  0  0  0  0  0  0  0  0  0
  -28.4456  -23.2626   18.7436 C   0  0  0  0  0  0  0  0  0  0  0  0
  -30.6974  -24.0468   19.1330 C   0  0  0  0  0  0  0  0  0  0  0  0
  -29.3484  -24.3144   18.8998 C   0  0  0  0  0  0  0  0  0  0  0  0
  -24.4529   -7.5057   21.6871 C   0  0  0  0  0  0  0  0  0  0  0  0
  -27.3262  -27.1987   19.8727 C   0  0  0  0  0  0  0  0  0  0  0  0
  -23.1329   -5.7726   22.5683 C   0  0  0  0  0  0  0  0  0  0  0  0
  -20.8360   -4.9647   23.9299 C   0  0  0  0  0  0  0  0  0  0  0  0
  -21.8731   -6.0757   22.0518 C   0  0  0  0  0  0  0  0  0  0  0  0
  -25.0082  -11.6507   21.0485 C   0  0  0  0  0  0  0  0  0  0  0  0
  -24.7199  -13.7758   20.5628 C   0  0  0  0  0  0  0  0  0  0  0  0
  -22.6702  -12.3773   20.2606 C   0  0  0  0  0  0  0  0  0  0  0  0
  -25.9782  -31.8221   22.3769 C   0  0  0  0  0  0  0  0  0  0  0  0
  -22.9438  -30.6970   22.5979 C   0  0  0  0  0  0  0  0  0  0  0  0
  -20.7428  -28.1606   21.9902 C   0  0  0  0  0  0  0  0  0  0  0  0
  -29.3948  -16.3743   18.8345 C   0  0  0  0  0  0  0  0  0  0  0  0
  -26.7772  -36.5211   24.2040 C   0  0  0  0  0  0  0  0  0  0  0  0
  -25.5316  -31.1088   20.0004 C   0  0  0  0  0  0  0  0  0  0  0  0
  -24.7203  -29.0303   21.9411 C   0  0  0  0  0  0  0  0  0  0  0  0
  -25.8629  -35.3519   24.5606 C   0  0  0  0  0  0  0  0  0  0  0  0
  -29.2570  -15.0861   22.3464 C   0  0  0  0  0  0  0  0  0  0  0  0
  -26.6617  -34.0550   24.6417 C   0  0  0  0  0  0  0  0  0  0  0  0
  -28.0952  -14.0990   22.2480 C   0  0  0  0  0  0  0  0  0  0  0  0
  -30.0814  -19.4811   20.3102 C   0  0  0  0  0  0  0  0  0  0  0  0
  -30.5114  -19.4805   17.8153 C   0  0  0  0  0  0  0  0  0  0  0  0
  -29.9742  -15.2318   21.0094 C   0  0  0  0  0  0  0  0  0  0  0  0
  -30.5509  -18.0249   20.3689 C   0  0  0  0  0  0  0  0  0  0  0  0
  -30.9939  -18.0379   17.9371 C   0  0  0  0  0  0  0  0  0  0  0  0
  -27.9109  -14.6405   19.7775 C   0  0  0  0  0  0  0  0  0  0  0  0
  -30.7261  -20.2407   19.1367 C   0  0  0  0  0  0  0  0  0  0  0  0
  -27.3051  -33.7180   23.2911 C   0  0  1  0  0  0  0  0  0  0  0  0
  -24.9333  -31.4667   21.3573 C   0  0  1  0  0  0  0  0  0  0  0  0
  -27.1447  -14.4817   21.1010 C   0  0  1  0  0  0  0  0  0  0  0  0
  -26.9958  -23.5222   18.4941 C   0  0  0  0  0  0  0  0  0  0  0  0
  -31.6844  -25.1551   19.3038 C   0  0  0  0  0  0  0  0  0  0  0  0
  -18.3399  -27.5163   22.3194 C   0  0  0  0  0  0  0  0  0  0  0  0
  -23.5019  -30.1298   25.5435 C   0  0  0  0  0  0  0  0  0  0  0  0
  -21.4769  -28.6577   25.5718 C   0  0  0  0  0  0  0  0  0  0  0  0
  -21.2409  -31.0911   25.0764 C   0  0  0  0  0  0  0  0  0  0  0  0
  -20.2823  -27.9387   19.0752 C   0  0  0  0  0  0  0  0  0  0  0  0
  -28.8697  -25.7289   18.8177 C   0  0  0  0  0  0  0  0  0  1  0  0
  -22.2739  -29.5679   23.3430 C   0  0  1  0  0  0  0  0  0  0  0  0
  -19.3517  -28.1580   21.3827 C   0  0  2  0  0  0  0  0  0  0  0  0
  -22.1445  -29.8568   24.8653 C   0  0  0  0  0  0  0  0  0  0  0  0
  -26.2003  -12.2099   21.2726 N   0  0  0  0  0  0  0  0  0  0  0  0
  -25.9931  -13.5023   20.9682 N   0  0  0  0  0  0  0  0  0  0  0  0
  -24.1333  -30.3804   21.9266 N   0  0  0  0  0  0  0  0  0  0  0  0
  -29.0400  -15.5614   19.9241 N   0  0  0  0  0  0  0  0  0  0  0  0
  -30.3596  -17.3651   19.0705 N   0  0  0  0  0  0  0  0  0  0  0  0
  -24.3404  -15.0250   20.2192 N   0  0  0  0  0  0  0  0  0  0  0  0
  -22.1391  -11.0841   20.3600 N   0  0  0  0  0  0  0  0  0  0  0  0
  -26.3214  -33.1606   22.3877 N   0  0  0  0  0  0  0  0  0  0  0  0
  -21.0014  -29.3325   22.6693 N   0  0  0  0  0  0  0  0  0  0  0  0
  -19.3487  -27.4019   20.0985 N   0  3  0  0  0  0  0  0  0  0  0  0
  -21.9367  -13.3131   19.8607 O   0  0  0  0  0  0  0  0  0  0  0  0
  -26.4379  -30.9470   23.1012 O   0  0  0  0  0  0  0  0  0  0  0  0
  -22.4268  -31.8170   22.6051 O   0  0  0  0  0  0  0  0  0  0  0  0
  -21.5209  -27.2159   21.8771 O   0  0  0  0  0  0  0  0  0  0  0  0
  -28.8775  -16.2251   17.7205 O   0  0  0  0  0  0  0  0  0  0  0  0
  -24.2740   -6.1722   21.8932 O   0  0  0  0  0  0  0  0  0  0  0  0
  -27.8950  -25.9523   19.8271 O   0  0  0  0  0  0  0  0  0  1  0  0
  -19.7332   -4.5755   24.5830 F   0  0  0  0  0  0  0  0  0  0  0  0
  -21.7599   -6.7537   20.9015 F   0  0  0  0  0  0  0  0  0  0  0  0
  1  2  1  0  0  0  0
  1  5  2  0  0  0  0
  2  6  2  0  0  0  0
  3  8  2  0  0  0  0
  3 17  1  0  0  0  0
  4  9  1  0  0  0  0
  4 17  2  0  0  0  0
  5 19  1  0  0  0  0
  6 21  1  0  0  0  0
  7 10  2  0  0  0  0
  7 20  1  0  0  0  0
  8 27  1  0  0  0  0
  9 27  2  0  0  0  0
 10 28  1  0  0  0  0
 11 12  2  0  0  0  0
 11 29  1  0  0  0  0
 12 30  1  0  0  0  0
 13 22  1  0  0  0  0
 13 24  2  0  0  0  0
 14 22  2  0  0  0  0
 14 25  1  0  0  0  0
 15 23  1  0  0  0  0
 15 28  2  0  0  0  0
 16 30  2  0  0  0  0
 16 31  1  0  0  0  0
 17 32  1  0  0  0  0
 18 32  1  0  0  0  0
 18 33  2  0  0  0  0
 18 34  1  0  0  0  0
 19 21  2  0  0  0  0
 19 39  1  0  0  0  0
 20 23  2  0  0  0  0
 20 40  1  0  0  0  0
 21 53  1  0  0  0  0
 22 52  1  0  0  0  0
 23 41  1  0  0  0  0
 24 26  1  0  0  0  0
 24 56  1  0  0  0  0
 25 26  2  0  0  0  0
 25 57  1  0  0  0  0
 26 63  1  0  0  0  0
 27 82  1  0  0  0  0
 28 83  1  0  0  0  0
 29 31  2  0  0  0  0
 29 82  1  0  0  0  0
 30 84  1  0  0  0  0
 31 85  1  0  0  0  0
 32 67  2  0  0  0  0
 33 68  1  0  0  0  0
 33 72  1  0  0  0  0
 34 73  1  0  0  0  0
 34 77  2  0  0  0  0
 35 54  1  0  0  0  0
 35 74  1  0  0  0  0
 35 78  2  0  0  0  0
 36 64  1  0  0  0  0
 36 69  1  0  0  0  0
 36 79  2  0  0  0  0
 37 65  1  0  0  0  0
 37 75  1  0  0  0  0
 37 80  2  0  0  0  0
 38 70  1  0  0  0  0
 38 71  1  0  0  0  0
 38 81  2  0  0  0  0
 39 42  1  0  0  0  0
 40 54  1  0  0  0  0
 41 69  1  0  0  0  0
 42 44  1  0  0  0  0
 43 45  1  0  0  0  0
 43 48  1  0  0  0  0
 44 53  1  0  0  0  0
 45 55  1  0  0  0  0
 46 49  1  0  0  0  0
 46 52  1  0  0  0  0
 47 50  1  0  0  0  0
 47 52  1  0  0  0  0
 48 70  1  0  0  0  0
 49 71  1  0  0  0  0
 50 71  1  0  0  0  0
 51 55  1  0  0  0  0
 51 70  1  0  0  0  0
 53 74  1  0  0  0  0
 54 69  1  0  0  0  0
 55 68  1  0  0  0  0
 58 65  1  0  0  0  0
 59 66  1  0  0  0  0
 60 66  1  0  0  0  0
 61 66  1  0  0  0  0
 62 76  1  0  0  0  0
 63 83  1  0  0  0  0
 64 66  1  0  0  0  0
 64 75  1  0  0  0  0
 65 76  1  0  0  0  0
 67 68  1  0  0  0  0
M  CHG  1  76   1
M  ISO  4  38 100  63 101  71 100  83 101
M  END
> <Batch ID>
0154

> <Smiles>
CNC(C)C(=O)NC(C(=O)N1Cc2cc([101O:1][101CH2:1]c3c(C)cc(C4CC[100N:0]([100C:0](=O)N5CCCC(n6nc(-c7ccc(Oc8ccc(F)cc8F)cc7)c(C(N)=O)c6N)C5)CC4)cc3C)ccc2CC1C(=O)NC1CCCc2ccccc21)C(C)(C)C

> <Shape>
0.335

> <Color>
0.114

> <Negative vol penalty>
0.000

$$$$

  -OEChem-04052321513D

 89 99  0     1  0  0  0  0  0999 V2000
  -16.7537  -29.6096   24.1549 C   0  0  0  0  0  0  0  0  0  0  0  0
  -17.9012  -30.0918   24.7763 C   0  0  0  0  0  0  0  0  0  0  0  0
  -25.8159  -14.3016   22.2696 C   0  0  0  0  0  0  0  0  0  0  0  0
  -24.4007  -14.0626   20.3261 C   0  0  0  0  0  0  0  0  0  0  0  0
  -16.8583  -28.6538   23.1452 C   0  0  0  0  0  0  0  0  0  0  0  0
  -19.1541  -29.6177   24.3890 C   0  0  0  0  0  0  0  0  0  0  0  0
  -25.9624  -31.7406   23.7132 C   0  0  0  0  0  0  0  0  0  0  0  0
  -25.1899  -13.2040   22.8604 C   0  0  0  0  0  0  0  0  0  0  0  0
  -23.7747  -12.9650   20.9169 C   0  0  0  0  0  0  0  0  0  0  0  0
  -27.2503  -31.3657   24.0934 C   0  0  0  0  0  0  0  0  0  0  0  0
  -24.4317   -9.6848   21.3958 C   0  0  0  0  0  0  0  0  0  0  0  0
  -24.2203   -8.5570   20.6029 C   0  0  0  0  0  0  0  0  0  0  0  0
  -27.3145  -29.7727   22.2830 C   0  0  0  0  0  0  0  0  0  0  0  0
  -32.1970  -26.8316   25.3546 C   0  0  0  0  0  0  0  0  0  0  0  0
  -30.5088  -25.7812   23.9822 C   0  0  0  0  0  0  0  0  0  0  0  0
  -21.8393   -8.7483   20.9656 C   0  0  0  0  0  0  0  0  0  0  0  0
  -25.4213  -14.7310   21.0024 C   0  0  0  0  0  0  0  0  0  0  0  0
  -27.2058  -15.8510   19.5642 C   0  0  0  0  0  0  0  0  0  0  0  0
  -18.1137  -28.1748   22.7388 C   0  0  0  0  0  0  0  0  0  0  0  0
  -25.3356  -31.1256   22.6199 C   0  0  0  0  0  0  0  0  0  0  0  0
  -19.2755  -28.6536   23.3739 C   0  0  0  0  0  0  0  0  0  0  0  0
  -26.0196  -30.1434   21.8894 C   0  0  0  0  0  0  0  0  0  0  0  0
  -33.1062  -25.8356   24.9986 C   0  0  0  0  0  0  0  0  0  0  0  0
  -31.4180  -24.7852   23.6261 C   0  0  0  0  0  0  0  0  0  0  0  0
  -24.1694  -12.5357   22.1840 C   0  0  0  0  0  0  0  0  0  0  0  0
  -27.9254  -30.3796   23.3801 C   0  0  0  0  0  0  0  0  0  0  0  0
  -23.3470  -10.3444   21.9738 C   0  0  0  0  0  0  0  0  0  0  0  0
  -30.8982  -26.8044   24.8465 C   0  0  0  0  0  0  0  0  0  0  0  0
  -22.9241   -8.0887   20.3877 C   0  0  0  0  0  0  0  0  0  0  0  0
  -22.0508   -9.8762   21.7586 C   0  0  0  0  0  0  0  0  0  0  0  0
  -32.7168  -24.8124   24.1343 C   0  0  0  0  0  0  0  0  0  0  0  0
  -26.0672  -15.8650   20.3919 C   0  0  0  0  0  0  0  0  0  0  0  0
  -27.4164  -17.1708   19.2476 C   0  0  0  0  0  0  0  0  0  0  0  0
  -28.0020  -14.7439   19.1212 C   0  0  0  0  0  0  0  0  0  0  0  0
  -22.7177  -29.3645   22.2342 C   0  0  0  0  0  0  0  0  0  0  0  0
  -23.4614  -29.6484   19.0896 C   0  0  0  0  0  0  0  0  0  0  0  0
  -25.8506  -30.1997   16.7158 C   0  0  0  0  0  0  0  0  0  0  0  0
  -27.6774  -22.4938   20.5197 C   0  0  0  0  0  0  0  0  0  0  0  0
  -18.1737  -27.1068   21.6755 C   0  0  0  0  0  0  0  0  0  0  0  0
  -23.9563  -31.5602   22.2062 C   0  0  0  0  0  0  0  0  0  0  0  0
  -25.3988  -29.4669   20.6955 C   0  0  0  0  0  0  0  0  0  0  0  0
  -19.5620  -26.9319   21.0655 C   0  0  0  0  0  0  0  0  0  0  0  0
  -24.5073  -21.2397   19.9490 C   0  0  0  0  0  0  0  0  0  0  0  0
  -35.2971  -27.1552   25.3631 C   0  0  0  0  0  0  0  0  0  0  0  0
  -35.6624  -25.9052   24.6252 C   0  0  0  0  0  0  0  0  0  0  0  0
  -20.6230  -26.8768   22.1601 C   0  0  0  0  0  0  0  0  0  0  0  0
  -24.7116  -19.7250   19.9417 C   0  0  0  0  0  0  0  0  0  0  0  0
  -29.8031  -22.8618   23.2880 C   0  0  0  0  0  0  0  0  0  0  0  0
  -30.5473  -24.2511   21.3067 C   0  0  0  0  0  0  0  0  0  0  0  0
  -25.3335  -21.8965   21.0488 C   0  0  0  0  0  0  0  0  0  0  0  0
  -29.3135  -21.7819   22.3189 C   0  0  0  0  0  0  0  0  0  0  0  0
  -30.0660  -23.1312   20.3887 C   0  0  0  0  0  0  0  0  0  0  0  0
  -27.0156  -20.0854   20.9578 C   0  0  0  0  0  0  0  0  0  0  0  0
  -34.4877  -25.9031   25.5653 C   0  0  0  0  0  0  0  0  0  0  0  0
  -30.9495  -23.6925   22.6837 C   0  0  0  0  0  0  0  0  0  0  0  0
  -20.6540  -28.1820   22.9646 C   0  0  1  0  0  0  0  0  0  0  0  0
  -23.2164  -30.5040   21.3912 C   0  0  1  0  0  0  0  0  0  0  0  0
  -26.2065  -19.3690   19.8575 C   0  0  1  0  0  0  0  0  0  0  0  0
  -26.1633  -30.3333   14.2295 C   0  0  0  0  0  0  0  0  0  0  0  0
  -23.3254  -26.6054   18.9113 C   0  0  0  0  0  0  0  0  0  0  0  0
  -24.5466  -26.7482   16.7304 C   0  0  0  0  0  0  0  0  0  0  0  0
  -22.3028  -27.8107   16.9733 C   0  0  0  0  0  0  0  0  0  0  0  0
  -26.7487  -33.0158   16.8635 C   0  0  0  0  0  0  0  0  0  0  0  0
  -29.5108  -30.1197   25.1336 C   0  0  0  0  0  0  0  0  0  1  0  0
  -30.5420  -29.0662   25.4893 C   0  0  0  0  0  0  0  0  0  0  0  0
  -24.3007  -28.8591   18.1140 C   0  0  1  0  0  0  0  0  0  0  0  0
  -25.8739  -31.1124   15.5031 C   0  0  2  0  0  0  0  0  0  0  0  0
  -23.6301  -27.5170   17.7059 C   0  0  0  0  0  0  0  0  0  0  0  0
  -25.5880  -17.0961   20.5888 N   0  0  0  0  0  0  0  0  0  0  0  0
  -26.4297  -17.8680   19.8804 N   0  0  0  0  0  0  0  0  0  0  0  0
  -24.0461  -29.9219   20.3343 N   0  0  0  0  0  0  0  0  0  0  0  0
  -26.7455  -21.5314   20.9366 N   0  0  0  0  0  0  0  0  0  0  0  0
  -28.9852  -22.3676   21.0118 N   0  0  0  0  0  0  0  0  0  0  0  0
  -28.3476  -17.7914   18.4924 N   0  0  0  0  0  0  0  0  0  0  0  0
  -27.6457  -13.4548   19.5401 N   0  0  0  0  0  0  0  0  0  0  0  0
  -21.3439  -29.2161   22.2236 N   0  0  0  0  0  0  0  0  0  0  0  0
  -24.5760  -29.7540   16.9952 N   0  0  0  0  0  0  0  0  0  0  0  0
  -26.9229  -32.1589   15.6625 N   0  3  0  0  0  0  0  0  0  0  0  0
  -29.0094  -14.8951   18.3893 O   0  0  0  0  0  0  0  0  0  0  0  0
  -23.5200  -28.6705   22.8476 O   0  0  0  0  0  0  0  0  0  0  0  0
  -22.3316  -30.0150   18.7568 O   0  0  0  0  0  0  0  0  0  0  0  0
  -26.8625  -29.9080   17.3495 O   0  0  0  0  0  0  0  0  0  0  0  0
  -27.3607  -23.4116   19.7525 O   0  0  0  0  0  0  0  0  0  0  0  0
  -23.5585  -11.4645   22.7601 O   0  0  0  0  0  0  0  0  0  0  0  0
  -29.1909  -30.0088   23.7520 O   0  0  0  0  0  0  0  0  0  1  0  0
  -30.0103  -27.7754   25.1944 O   0  0  0  0  0  0  0  0  0  0  0  0
  -22.7211   -7.0065   19.6250 F   0  0  0  0  0  0  0  0  0  0  0  0
  -21.0046  -10.5063   22.3102 F   0  0  0  0  0  0  0  0  0  0  0  0
  -33.8435  -23.5737   23.6902 Cl  0  0  0  0  0  0  0  0  0  0  0  0
  1  2  1  0  0  0  0
  1  5  2  0  0  0  0
  2  6  2  0  0  0  0
  3  8  2  0  0  0  0
  3 17  1  0  0  0  0
  4  9  1  0  0  0  0
  4 17  2  0  0  0  0
  5 19  1  0  0  0  0
  6 21  1  0  0  0  0
  7 10  2  0  0  0  0
  7 20  1  0  0  0  0
  8 25  1  0  0  0  0
  9 25  2  0  0  0  0
 10 26  1  0  0  0  0
 11 12  2  0  0  0  0
 11 27  1  0  0  0  0
 12 29  1  0  0  0  0
 13 22  1  0  0  0  0
 13 26  2  0  0  0  0
 14 23  2  0  0  0  0
 14 28  1  0  0  0  0
 15 24  1  0  0  0  0
 15 28  2  0  0  0  0
 16 29  2  0  0  0  0
 16 30  1  0  0  0  0
 17 32  1  0  0  0  0
 18 32  1  0  0  0  0
 18 33  2  0  0  0  0
 18 34  1  0  0  0  0
 19 21  2  0  0  0  0
 19 39  1  0  0  0  0
 20 22  2  0  0  0  0
 20 40  1  0  0  0  0
 21 56  1  0  0  0  0
 22 41  1  0  0  0  0
 23 31  1  0  0  0  0
 23 54  1  0  0  0  0
 24 31  2  0  0  0  0
 24 55  1  0  0  0  0
 25 84  1  0  0  0  0
 26 85  1  0  0  0  0
 27 30  2  0  0  0  0
 27 84  1  0  0  0  0
 28 86  1  0  0  0  0
 29 87  1  0  0  0  0
 30 88  1  0  0  0  0
 31 89  1  0  0  0  0
 32 69  2  0  0  0  0
 33 70  1  0  0  0  0
 33 74  1  0  0  0  0
 34 75  1  0  0  0  0
 34 79  2  0  0  0  0
 35 57  1  0  0  0  0
 35 76  1  0  0  0  0
 35 80  2  0  0  0  0
 36 66  1  0  0  0  0
 36 71  1  0  0  0  0
 36 81  2  0  0  0  0
 37 67  1  0  0  0  0
 37 77  1  0  0  0  0
 37 82  2  0  0  0  0
 38 72  1  0  0  0  0
 38 73  1  0  0  0  0
 38 83  2  0  0  0  0
 39 42  1  0  0  0  0
 40 57  1  0  0  0  0
 41 71  1  0  0  0  0
 42 46  1  0  0  0  0
 43 47  1  0  0  0  0
 43 50  1  0  0  0  0
 44 45  1  0  0  0  0
 44 54  1  0  0  0  0
 45 54  1  0  0  0  0
 46 56  1  0  0  0  0
 47 58  1  0  0  0  0
 48 51  1  0  0  0  0
 48 55  1  0  0  0  0
 49 52  1  0  0  0  0
 49 55  1  0  0  0  0
 50 72  1  0  0  0  0
 51 73  1  0  0  0  0
 52 73  1  0  0  0  0
 53 58  1  0  0  0  0
 53 72  1  0  0  0  0
 56 76  1  0  0  0  0
 57 71  1  0  0  0  0
 58 70  1  0  0  0  0
 59 67  1  0  0  0  0
 60 68  1  0  0  0  0
 61 68  1  0  0  0  0
 62 68  1  0  0  0  0
 63 78  1  0  0  0  0
 64 65  1  0  0  0  0
 64 85  1  0  0  0  0
 65 86  1  0  0  0  0
 66 68  1  0  0  0  0
 66 77  1  0  0  0  0
 67 78  1  0  0  0  0
 69 70  1  0  0  0  0
M  CHG  1  78   1
M  ISO  4  38 100  64 101  73 100  85 101
M  END
> <Batch ID>
0154

> <Smiles>
CNC(C)C(=O)NC(C(=O)N1Cc2cc([101O:1][101CH2:1]COc3cc(C4CC4)c(Cl)c(C4CC[100N:0]([100C:0](=O)N5CCCC(n6nc(-c7ccc(Oc8ccc(F)cc8F)cc7)c(C(N)=O)c6N)C5)CC4)c3)ccc2CC1C(=O)NC1CCCc2ccccc21)C(C)(C)C

> <Shape>
0.259

> <Color>
0.108

> <Negative vol penalty>
0.000

$$$$

  -OEChem-04052321513D

 85 94  0     1  0  0  0  0  0999 V2000
  -18.6538  -25.8919   19.3356 C   0  0  0  0  0  0  0  0  0  0  0  0
  -19.6965  -26.5365   19.9934 C   0  0  0  0  0  0  0  0  0  0  0  0
  -25.5945  -16.7281   23.5415 C   0  0  0  0  0  0  0  0  0  0  0  0
  -26.1472  -18.2321   21.7333 C   0  0  0  0  0  0  0  0  0  0  0  0
  -18.7819  -24.5514   18.9743 C   0  0  0  0  0  0  0  0  0  0  0  0
  -20.8676  -25.8406   20.2912 C   0  0  0  0  0  0  0  0  0  0  0  0
  -25.0375  -28.5040   19.2129 C   0  0  0  0  0  0  0  0  0  0  0  0
  -25.1520  -15.7808   22.6183 C   0  0  0  0  0  0  0  0  0  0  0  0
  -25.7047  -17.2847   20.8101 C   0  0  0  0  0  0  0  0  0  0  0  0
  -25.4082  -29.4997   20.1156 C   0  0  0  0  0  0  0  0  0  0  0  0
  -26.5278  -13.4960   20.5399 C   0  0  0  0  0  0  0  0  0  0  0  0
  -26.9279  -12.1729   20.7265 C   0  0  0  0  0  0  0  0  0  0  0  0
  -27.0515  -28.0140   21.0703 C   0  0  0  0  0  0  0  0  0  0  0  0
  -27.2203  -29.8299   24.9824 C   0  0  0  0  0  0  0  0  0  0  0  0
  -24.9162  -29.2197   26.4321 C   0  0  0  0  0  0  0  0  0  0  0  0
  -24.6148  -11.4992   20.9084 C   0  0  0  0  0  0  0  0  0  0  0  0
  -26.0920  -17.9538   23.0990 C   0  0  0  0  0  0  0  0  0  0  0  0
  -27.8510  -19.0746   24.5678 C   0  0  0  0  0  0  0  0  0  0  0  0
  -19.9589  -23.8414   19.2592 C   0  0  0  0  0  0  0  0  0  0  0  0
  -25.6646  -27.2500   19.2393 C   0  0  0  0  0  0  0  0  0  0  0  0
  -21.0110  -24.4890   19.9345 C   0  0  0  0  0  0  0  0  0  0  0  0
  -26.6887  -27.0049   20.1652 C   0  0  0  0  0  0  0  0  0  0  0  0
  -26.0408  -30.5363   24.7472 C   0  0  0  0  0  0  0  0  0  0  0  0
  -24.8888  -30.2313   25.4720 C   0  0  0  0  0  0  0  0  0  0  0  0
  -26.0957  -28.5131   26.6672 C   0  0  0  0  0  0  0  0  0  0  0  0
  -25.2071  -16.0590   21.2526 C   0  0  0  0  0  0  0  0  0  0  0  0
  -26.4134  -29.2538   21.0464 C   0  0  0  0  0  0  0  0  0  0  0  0
  -25.1712  -13.8208   20.5376 C   0  0  0  0  0  0  0  0  0  0  0  0
  -27.2477  -28.8182   25.9423 C   0  0  0  0  0  0  0  0  0  0  0  0
  -25.9714  -11.1744   20.9107 C   0  0  0  0  0  0  0  0  0  0  0  0
  -24.2148  -12.8224   20.7218 C   0  0  0  0  0  0  0  0  0  0  0  0
  -26.5487  -18.9331   24.0522 C   0  0  0  0  0  0  0  0  0  0  0  0
  -27.7655  -20.1418   25.4282 C   0  0  0  0  0  0  0  0  0  0  0  0
  -29.0324  -18.3099   24.2935 C   0  0  0  0  0  0  0  0  0  0  0  0
  -24.6953  -24.2679   19.7606 C   0  0  0  0  0  0  0  0  0  0  0  0
  -27.7450  -23.5445   18.9250 C   0  0  0  0  0  0  0  0  0  0  0  0
  -30.9926  -24.5575   18.6539 C   0  0  0  0  0  0  0  0  0  0  0  0
  -26.1252  -25.2454   26.5284 C   0  0  0  0  0  0  0  0  0  0  0  0
  -20.0327  -22.3807   18.8910 C   0  0  0  0  0  0  0  0  0  0  0  0
  -25.2716  -26.1955   18.2413 C   0  0  0  0  0  0  0  0  0  0  0  0
  -27.4070  -25.6823   20.2215 C   0  0  0  0  0  0  0  0  0  0  0  0
  -21.4520  -21.8188   18.9095 C   0  0  0  0  0  0  0  0  0  0  0  0
  -23.7325  -22.6184   27.2149 C   0  0  0  0  0  0  0  0  0  0  0  0
  -22.1797  -22.2484   20.1794 C   0  0  0  0  0  0  0  0  0  0  0  0
  -24.3678  -21.4310   26.4892 C   0  0  0  0  0  0  0  0  0  0  0  0
  -26.9820  -32.7835   23.9065 C   0  0  0  0  0  0  0  0  0  0  0  0
  -25.5141  -32.9804   24.1223 C   0  0  0  0  0  0  0  0  0  0  0  0
  -23.9316  -23.9142   26.4343 C   0  0  0  0  0  0  0  0  0  0  0  0
  -25.9900  -23.0461   25.3938 C   0  0  0  0  0  0  0  0  0  0  0  0
  -22.3067  -23.7749   20.2529 C   0  0  1  0  0  0  0  0  0  0  0  0
  -25.6225  -24.7821   18.6959 C   0  0  1  0  0  0  0  0  0  0  0  0
  -25.8426  -21.7096   26.1435 C   0  0  2  0  0  0  0  0  0  0  0  0
  -26.0341  -31.6129   23.7171 C   0  0  0  0  0  0  0  0  0  0  0  0
  -23.6134  -30.9730   25.2391 C   0  0  0  0  0  0  0  0  0  0  0  0
  -33.2633  -23.7326   17.9748 C   0  0  0  0  0  0  0  0  0  0  0  0
  -27.9615  -21.9922   21.5430 C   0  0  0  0  0  0  0  0  0  0  0  0
  -30.4497  -22.0094   21.2666 C   0  0  0  0  0  0  0  0  0  0  0  0
  -29.0164  -20.8684   19.5736 C   0  0  0  0  0  0  0  0  0  0  0  0
  -31.2129  -26.5809   16.5054 C   0  0  0  0  0  0  0  0  0  0  0  0
  -29.5371  -28.5150   25.3742 C   0  0  0  0  0  0  0  0  0  0  0  0
  -26.1070  -27.4334   27.6985 C   0  0  0  0  0  0  0  0  0  0  0  0
  -25.7680  -31.1522   22.3254 C   0  0  0  0  0  0  0  0  0  1  0  0
  -29.0503  -23.3946   19.6685 C   0  0  1  0  0  0  0  0  0  0  0  0
  -31.9942  -24.4363   17.5196 C   0  0  2  0  0  0  0  0  0  0  0  0
  -29.1048  -22.0905   20.5134 C   0  0  0  0  0  0  0  0  0  0  0  0
  -25.6982  -19.8378   24.5441 N   0  0  0  0  0  0  0  0  0  0  0  0
  -26.4677  -20.5581   25.3779 N   0  0  0  0  0  0  0  0  0  0  0  0
  -26.9826  -24.6812   19.2290 N   0  0  0  0  0  0  0  0  0  0  0  0
  -25.3581  -24.1297   26.1537 N   0  0  0  0  0  0  0  0  0  0  0  0
  -28.6746  -20.7553   26.2154 N   0  0  0  0  0  0  0  0  0  0  0  0
  -28.9442  -17.2474   23.3837 N   0  0  0  0  0  0  0  0  0  0  0  0
  -23.3667  -24.2363   19.3822 N   0  0  0  0  0  0  0  0  0  0  0  0
  -30.1054  -23.5021   18.6667 N   0  0  0  0  0  0  0  0  0  0  0  0
  -25.4500  -26.2298   27.2394 N   0  0  0  0  0  0  0  0  0  0  0  0
  -32.3632  -25.7865   17.0079 N   0  3  0  0  0  0  0  0  0  0  0  0
  -30.1297  -18.5510   24.8513 O   0  0  0  0  0  0  0  0  0  0  0  0
  -25.1517  -23.9239   20.8446 O   0  0  0  0  0  0  0  0  0  0  0  0
  -27.4175  -22.6883   18.0997 O   0  0  0  0  0  0  0  0  0  0  0  0
  -30.9992  -25.4928   19.4512 O   0  0  0  0  0  0  0  0  0  0  0  0
  -27.3253  -25.3538   26.2541 O   0  0  0  0  0  0  0  0  0  0  0  0
  -24.7757  -15.1347   20.3514 O   0  0  0  0  0  0  0  0  0  0  0  0
  -28.4080  -28.1378   26.1596 O   0  0  0  0  0  0  0  0  0  0  0  0
  -26.7767  -30.2238   21.9290 O   0  0  0  0  0  0  0  0  0  1  0  0
  -26.3556   -9.9036   21.0883 F   0  0  0  0  0  0  0  0  0  0  0  0
  -22.9100  -13.1281   20.7194 F   0  0  0  0  0  0  0  0  0  0  0  0
  1  2  1  0  0  0  0
  1  5  2  0  0  0  0
  2  6  2  0  0  0  0
  3  8  2  0  0  0  0
  3 17  1  0  0  0  0
  4  9  1  0  0  0  0
  4 17  2  0  0  0  0
  5 19  1  0  0  0  0
  6 21  1  0  0  0  0
  7 10  2  0  0  0  0
  7 20  1  0  0  0  0
  8 26  1  0  0  0  0
  9 26  2  0  0  0  0
 10 27  1  0  0  0  0
 11 12  2  0  0  0  0
 11 28  1  0  0  0  0
 12 30  1  0  0  0  0
 13 22  1  0  0  0  0
 13 27  2  0  0  0  0
 14 23  1  0  0  0  0
 14 29  2  0  0  0  0
 15 24  1  0  0  0  0
 15 25  2  0  0  0  0
 16 30  2  0  0  0  0
 16 31  1  0  0  0  0
 17 32  1  0  0  0  0
 18 32  1  0  0  0  0
 18 33  2  0  0  0  0
 18 34  1  0  0  0  0
 19 21  2  0  0  0  0
 19 39  1  0  0  0  0
 20 22  2  0  0  0  0
 20 40  1  0  0  0  0
 21 50  1  0  0  0  0
 22 41  1  0  0  0  0
 23 24  2  0  0  0  0
 23 53  1  0  0  0  0
 24 54  1  0  0  0  0
 25 29  1  0  0  0  0
 25 61  1  0  0  0  0
 26 81  1  0  0  0  0
 27 83  1  0  0  0  0
 28 31  2  0  0  0  0
 28 81  1  0  0  0  0
 29 82  1  0  0  0  0
 30 84  1  0  0  0  0
 31 85  1  0  0  0  0
 32 66  2  0  0  0  0
 33 67  1  0  0  0  0
 33 70  1  0  0  0  0
 34 71  1  0  0  0  0
 34 76  2  0  0  0  0
 35 51  1  0  0  0  0
 35 72  1  0  0  0  0
 35 77  2  0  0  0  0
 36 63  1  0  0  0  0
 36 68  1  0  0  0  0
 36 78  2  0  0  0  0
 37 64  1  0  0  0  0
 37 73  1  0  0  0  0
 37 79  2  0  0  0  0
 38 69  1  0  0  0  0
 38 74  1  0  0  0  0
 38 80  2  0  0  0  0
 39 42  1  0  0  0  0
 40 51  1  0  0  0  0
 41 68  1  0  0  0  0
 42 44  1  0  0  0  0
 43 45  1  0  0  0  0
 43 48  1  0  0  0  0
 44 50  1  0  0  0  0
 45 52  1  0  0  0  0
 46 47  1  0  0  0  0
 46 53  1  0  0  0  0
 47 53  1  0  0  0  0
 48 69  1  0  0  0  0
 49 52  1  0  0  0  0
 49 69  1  0  0  0  0
 50 72  1  0  0  0  0
 51 68  1  0  0  0  0
 52 67  1  0  0  0  0
 53 62  1  0  0  0  0
 55 64  1  0  0  0  0
 56 65  1  0  0  0  0
 57 65  1  0  0  0  0
 58 65  1  0  0  0  0
 59 75  1  0  0  0  0
 60 82  1  0  0  0  0
 61 74  1  0  0  0  0
 62 83  1  0  0  0  0
 63 65  1  0  0  0  0
 63 73  1  0  0  0  0
 64 75  1  0  0  0  0
 66 67  1  0  0  0  0
M  CHG  1  75   1
M  ISO  4  38 100  62 101  74 100  83 101
M  END
> <Batch ID>
0154

> <Smiles>
CNC(C)C(=O)NC(C(=O)N1Cc2cc([101O:1][101CH2:1]C3(c4cc(OC)c(C[100NH:0][100C:0](=O)N5CCCC(n6nc(-c7ccc(Oc8ccc(F)cc8F)cc7)c(C(N)=O)c6N)C5)cc4C)CC3)ccc2CC1C(=O)NC1CCCc2ccccc21)C(C)(C)C

> <Shape>
0.200

> <Color>
0.068

> <Negative vol penalty>
0.000

$$$$

  -OEChem-04052321513D

 87 96  0     1  0  0  0  0  0999 V2000
  -30.6265  -35.6101   22.4703 C   0  0  0  0  0  0  0  0  0  0  0  0
  -30.6025  -34.3797   21.8215 C   0  0  0  0  0  0  0  0  0  0  0  0
  -23.5348  -14.6482   20.9600 C   0  0  0  0  0  0  0  0  0  0  0  0
  -25.9480  -14.7611   20.9325 C   0  0  0  0  0  0  0  0  0  0  0  0
  -29.8331  -35.8178   23.5978 C   0  0  0  0  0  0  0  0  0  0  0  0
  -29.7859  -33.3559   22.3005 C   0  0  0  0  0  0  0  0  0  0  0  0
  -26.8431  -29.1350   18.9794 C   0  0  0  0  0  0  0  0  0  0  0  0
  -23.6011  -13.3563   21.4818 C   0  0  0  0  0  0  0  0  0  0  0  0
  -26.0144  -13.4693   21.4544 C   0  0  0  0  0  0  0  0  0  0  0  0
  -27.1454  -27.8109   18.6647 C   0  0  0  0  0  0  0  0  0  0  0  0
  -24.1814  -10.2320   20.3300 C   0  0  0  0  0  0  0  0  0  0  0  0
  -23.3464   -9.2645   19.7713 C   0  0  0  0  0  0  0  0  0  0  0  0
  -25.7665  -27.0664   20.4987 C   0  0  0  0  0  0  0  0  0  0  0  0
  -22.3022   -8.9230   21.9231 C   0  0  0  0  0  0  0  0  0  0  0  0
  -24.7082  -15.3506   20.6853 C   0  0  0  0  0  0  0  0  0  0  0  0
  -24.5922  -17.8924   20.8678 C   0  0  0  0  0  0  0  0  0  0  0  0
  -28.9991  -34.7992   24.0852 C   0  0  0  0  0  0  0  0  0  0  0  0
  -26.0075  -29.4357   20.0647 C   0  0  0  0  0  0  0  0  0  0  0  0
  -28.9816  -33.5498   23.4364 C   0  0  0  0  0  0  0  0  0  0  0  0
  -25.4530  -28.3951   20.8236 C   0  0  0  0  0  0  0  0  0  0  0  0
  -31.3720  -24.7202   19.7980 C   0  0  0  0  0  0  0  0  0  0  0  0
  -30.1643  -24.5020   20.5057 C   0  0  0  0  0  0  0  0  0  0  0  0
  -24.8409  -12.7669   21.7290 C   0  0  0  0  0  0  0  0  0  0  0  0
  -26.6094  -26.7764   19.4262 C   0  0  0  0  0  0  0  0  0  0  0  0
  -24.0769  -10.5450   21.6854 C   0  0  0  0  0  0  0  0  0  0  0  0
  -22.4068   -8.6100   20.5678 C   0  0  0  0  0  0  0  0  0  0  0  0
  -23.1373   -9.8905   22.4818 C   0  0  0  0  0  0  0  0  0  0  0  0
  -24.6403  -16.6849   20.1457 C   0  0  0  0  0  0  0  0  0  0  0  0
  -31.2040  -24.2086   18.5302 C   0  0  0  0  0  0  0  0  0  0  0  0
  -29.2951  -23.8635   19.6489 C   0  0  0  0  0  0  0  0  0  0  0  0
  -24.5364  -18.8678   19.9023 C   0  0  0  0  0  0  0  0  0  0  0  0
  -24.5975  -18.1127   22.2845 C   0  0  0  0  0  0  0  0  0  0  0  0
  -26.3604  -31.0260   22.7942 C   0  0  0  0  0  0  0  0  0  0  0  0
  -23.1720  -30.4936   23.0645 C   0  0  0  0  0  0  0  0  0  0  0  0
  -20.4692  -28.5936   22.2092 C   0  0  0  0  0  0  0  0  0  0  0  0
  -26.0929  -21.0985   15.1576 C   0  0  0  0  0  0  0  0  0  0  0  0
  -28.1950  -35.0553   25.3352 C   0  0  0  0  0  0  0  0  0  0  0  0
  -25.6696  -30.8682   20.3747 C   0  0  0  0  0  0  0  0  0  0  0  0
  -24.5342  -28.6640   21.9863 C   0  0  0  0  0  0  0  0  0  0  0  0
  -27.0756  -34.0415   25.5577 C   0  0  0  0  0  0  0  0  0  0  0  0
  -23.7663  -18.5514   14.9199 C   0  0  0  0  0  0  0  0  0  0  0  0
  -27.5919  -32.6215   25.3476 C   0  0  0  0  0  0  0  0  0  0  0  0
  -23.7710  -17.9255   16.3146 C   0  0  0  0  0  0  0  0  0  0  0  0
  -28.1163  -23.7892   16.6926 C   0  0  0  0  0  0  0  0  0  0  0  0
  -28.9845  -21.5499   17.4879 C   0  0  0  0  0  0  0  0  0  0  0  0
  -25.1816  -18.8997   14.4726 C   0  0  0  0  0  0  0  0  0  0  0  0
  -27.5082  -23.0956   15.4760 C   0  0  0  0  0  0  0  0  0  0  0  0
  -28.3591  -20.9075   16.2531 C   0  0  0  0  0  0  0  0  0  0  0  0
  -25.9201  -19.1887   16.8148 C   0  0  0  0  0  0  0  0  0  0  0  0
  -28.0903  -32.4227   23.9111 C   0  0  1  0  0  0  0  0  0  0  0  0
  -25.2198  -31.0773   21.8174 C   0  0  1  0  0  0  0  0  0  0  0  0
  -24.5097  -18.8259   17.3207 C   0  0  2  0  0  0  0  0  0  0  0  0
  -29.3399  -23.0241   17.2259 C   0  0  0  0  0  0  0  0  0  0  0  0
  -32.5883  -25.3765   20.3204 C   0  0  0  0  0  0  0  0  0  0  0  0
  -29.8866  -24.8844   21.9056 C   0  0  0  0  0  0  0  0  0  0  0  0
  -32.1407  -24.1694   17.3869 C   0  0  0  0  0  0  0  0  0  0  0  0
  -27.8114  -22.3187   20.9695 C   0  0  0  0  0  0  0  0  0  0  0  0
  -18.0023  -28.3809   22.6172 C   0  0  0  0  0  0  0  0  0  0  0  0
  -23.7326  -29.2905   25.8119 C   0  0  0  0  0  0  0  0  0  0  0  0
  -21.4505  -28.2629   25.7506 C   0  0  0  0  0  0  0  0  0  0  0  0
  -21.7006  -30.7444   25.7046 C   0  0  0  0  0  0  0  0  0  0  0  0
  -19.8421  -29.0120   19.3473 C   0  0  0  0  0  0  0  0  0  0  0  0
  -26.9203  -24.5496   20.2010 C   0  0  0  0  0  0  0  0  0  1  0  0
  -27.9079  -23.4009   19.8684 C   0  0  1  0  0  0  0  0  0  0  0  0
  -22.3173  -29.3984   23.6553 C   0  0  1  0  0  0  0  0  0  0  0  0
  -19.0817  -28.9755   21.7261 C   0  0  2  0  0  0  0  0  0  0  0  0
  -22.3191  -29.4187   25.2099 C   0  0  0  0  0  0  0  0  0  0  0  0
  -24.6170  -16.8734   18.8236 N   0  0  0  0  0  0  0  0  0  0  0  0
  -29.9379  -23.6901   18.4510 N   0  0  0  0  0  0  0  0  0  0  0  0
  -24.5535  -18.2107   18.7072 N   0  0  0  0  0  0  0  0  0  0  0  0
  -24.2390  -30.0814   22.2536 N   0  0  0  0  0  0  0  0  0  0  0  0
  -25.8517  -19.7491   15.4570 N   0  0  0  0  0  0  0  0  0  0  0  0
  -27.2197  -21.6889   15.7531 N   0  0  0  0  0  0  0  0  0  0  0  0
  -24.4748  -20.2147   19.9676 N   0  0  0  0  0  0  0  0  0  0  0  0
  -24.6585  -16.9994   23.1336 N   0  0  0  0  0  0  0  0  0  0  0  0
  -26.9730  -32.2459   23.0084 N   0  0  0  0  0  0  0  0  0  0  0  0
  -20.9947  -29.5453   23.0573 N   0  0  0  0  0  0  0  0  0  0  0  0
  -18.8647  -28.4869   20.3351 N   0  3  0  0  0  0  0  0  0  0  0  0
  -24.5330  -19.2621   22.7828 O   0  0  0  0  0  0  0  0  0  0  0  0
  -26.6613  -29.9589   23.3161 O   0  0  0  0  0  0  0  0  0  0  0  0
  -22.8986  -31.6716   23.3076 O   0  0  0  0  0  0  0  0  0  0  0  0
  -21.0292  -27.5531   21.8711 O   0  0  0  0  0  0  0  0  0  0  0  0
  -25.3456  -21.7406   14.4090 O   0  0  0  0  0  0  0  0  0  0  0  0
  -24.9061  -11.5064   22.2384 O   0  0  0  0  0  0  0  0  0  0  0  0
  -26.9054  -25.4746   19.1196 O   0  0  0  0  0  0  0  0  0  1  0  0
  -21.6039   -7.6820   20.0307 F   0  0  0  0  0  0  0  0  0  0  0  0
  -23.0314  -10.1878   23.7842 F   0  0  0  0  0  0  0  0  0  0  0  0
  1  2  1  0  0  0  0
  1  5  2  0  0  0  0
  2  6  2  0  0  0  0
  3  8  2  0  0  0  0
  3 15  1  0  0  0  0
  4  9  1  0  0  0  0
  4 15  2  0  0  0  0
  5 17  1  0  0  0  0
  6 19  1  0  0  0  0
  7 10  2  0  0  0  0
  7 18  1  0  0  0  0
  8 23  1  0  0  0  0
  9 23  2  0  0  0  0
 10 24  1  0  0  0  0
 11 12  2  0  0  0  0
 11 25  1  0  0  0  0
 12 26  1  0  0  0  0
 13 20  1  0  0  0  0
 13 24  2  0  0  0  0
 14 26  2  0  0  0  0
 14 27  1  0  0  0  0
 15 28  1  0  0  0  0
 16 28  1  0  0  0  0
 16 31  2  0  0  0  0
 16 32  1  0  0  0  0
 17 19  2  0  0  0  0
 17 37  1  0  0  0  0
 18 20  2  0  0  0  0
 18 38  1  0  0  0  0
 19 50  1  0  0  0  0
 20 39  1  0  0  0  0
 21 22  1  0  0  0  0
 21 29  2  0  0  0  0
 21 54  1  0  0  0  0
 22 30  2  0  0  0  0
 22 55  1  0  0  0  0
 23 84  1  0  0  0  0
 24 85  1  0  0  0  0
 25 27  2  0  0  0  0
 25 84  1  0  0  0  0
 26 86  1  0  0  0  0
 27 87  1  0  0  0  0
 28 68  2  0  0  0  0
 29 56  1  0  0  0  0
 29 69  1  0  0  0  0
 30 64  1  0  0  0  0
 30 69  1  0  0  0  0
 31 70  1  0  0  0  0
 31 74  1  0  0  0  0
 32 75  1  0  0  0  0
 32 79  2  0  0  0  0
 33 51  1  0  0  0  0
 33 76  1  0  0  0  0
 33 80  2  0  0  0  0
 34 65  1  0  0  0  0
 34 71  1  0  0  0  0
 34 81  2  0  0  0  0
 35 66  1  0  0  0  0
 35 77  1  0  0  0  0
 35 82  2  0  0  0  0
 36 72  1  0  0  0  0
 36 73  1  0  0  0  0
 36 83  2  0  0  0  0
 37 40  1  0  0  0  0
 38 51  1  0  0  0  0
 39 71  1  0  0  0  0
 40 42  1  0  0  0  0
 41 43  1  0  0  0  0
 41 46  1  0  0  0  0
 42 50  1  0  0  0  0
 43 52  1  0  0  0  0
 44 47  1  0  0  0  0
 44 53  1  0  0  0  0
 45 48  1  0  0  0  0
 45 53  1  0  0  0  0
 46 72  1  0  0  0  0
 47 73  1  0  0  0  0
 48 73  1  0  0  0  0
 49 52  1  0  0  0  0
 49 72  1  0  0  0  0
 50 76  1  0  0  0  0
 51 71  1  0  0  0  0
 52 70  1  0  0  0  0
 53 69  1  0  0  0  0
 57 64  1  0  0  0  0
 58 66  1  0  0  0  0
 59 67  1  0  0  0  0
 60 67  1  0  0  0  0
 61 67  1  0  0  0  0
 62 78  1  0  0  0  0
 63 64  1  0  0  0  0
 63 85  1  0  0  0  0
 65 67  1  0  0  0  0
 65 77  1  0  0  0  0
 66 78  1  0  0  0  0
 68 70  1  0  0  0  0
M  CHG  1  78   1
M  ISO  4  36 100  63 101  73 100  85 101
M  END
> <Batch ID>
0154

> <Smiles>
CNC(C)C(=O)NC(C(=O)N1Cc2cc([101O:1][101CH2:1]C(C)c3c(C)c(C)c(C)n3C3CC[100N:0]([100C:0](=O)N4CCCC(n5nc(-c6ccc(Oc7ccc(F)cc7F)cc6)c(C(N)=O)c5N)C4)CC3)ccc2CC1C(=O)NC1CCCc2ccccc21)C(C)(C)C

> <Shape>
0.233

> <Color>
0.066

> <Negative vol penalty>
0.000

$$$$

  -OEChem-04052321513D

 90100  0     1  0  0  0  0  0999 V2000
  -19.1421  -17.9975   20.7112 C   0  0  0  0  0  0  0  0  0  0  0  0
  -20.3531  -18.5990   21.0386 C   0  0  0  0  0  0  0  0  0  0  0  0
  -23.0101   -9.7858   20.2091 C   0  0  0  0  0  0  0  0  0  0  0  0
  -23.5799  -10.2368   22.5133 C   0  0  0  0  0  0  0  0  0  0  0  0
  -18.1719  -18.7189   20.0169 C   0  0  0  0  0  0  0  0  0  0  0  0
  -20.5949  -19.9222   20.6710 C   0  0  0  0  0  0  0  0  0  0  0  0
  -22.6575  -22.6336   24.4178 C   0  0  0  0  0  0  0  0  0  0  0  0
  -22.2024   -8.7241   20.6166 C   0  0  0  0  0  0  0  0  0  0  0  0
  -22.7721   -9.1751   22.9208 C   0  0  0  0  0  0  0  0  0  0  0  0
  -24.0201  -22.4581   24.6553 C   0  0  0  0  0  0  0  0  0  0  0  0
  -21.1449   -6.3590   24.5430 C   0  0  0  0  0  0  0  0  0  0  0  0
  -21.6562   -5.4873   25.5044 C   0  0  0  0  0  0  0  0  0  0  0  0
  -24.4881  -24.4829   23.4303 C   0  0  0  0  0  0  0  0  0  0  0  0
  -23.4850   -4.9307   24.0270 C   0  0  0  0  0  0  0  0  0  0  0  0
  -31.8966  -17.3372   21.1228 C   0  0  0  0  0  0  0  0  0  0  0  0
  -23.6989  -10.5421   21.1574 C   0  0  0  0  0  0  0  0  0  0  0  0
  -24.1509  -12.9828   20.5688 C   0  0  0  0  0  0  0  0  0  0  0  0
  -18.3982  -20.0547   19.6490 C   0  0  0  0  0  0  0  0  0  0  0  0
  -22.2001  -23.7311   23.6742 C   0  0  0  0  0  0  0  0  0  0  0  0
  -19.6273  -20.6618   19.9699 C   0  0  0  0  0  0  0  0  0  0  0  0
  -23.1191  -24.6714   23.1870 C   0  0  0  0  0  0  0  0  0  0  0  0
  -29.9352  -18.0430   21.9740 C   0  0  0  0  0  0  0  0  0  0  0  0
  -30.6107  -16.9340   21.4075 C   0  0  0  0  0  0  0  0  0  0  0  0
  -22.0834   -8.4188   21.9725 C   0  0  0  0  0  0  0  0  0  0  0  0
  -24.9359  -23.3813   24.1590 C   0  0  0  0  0  0  0  0  0  0  0  0
  -21.8036   -6.5166   23.3236 C   0  0  0  0  0  0  0  0  0  0  0  0
  -22.8262   -4.7731   25.2464 C   0  0  0  0  0  0  0  0  0  0  0  0
  -22.9737   -5.8024   23.0656 C   0  0  0  0  0  0  0  0  0  0  0  0
  -24.5338  -11.6386   20.7371 C   0  0  0  0  0  0  0  0  0  0  0  0
  -30.8289  -19.0902   22.0180 C   0  0  0  0  0  0  0  0  0  0  0  0
  -25.2984  -13.6183   20.1616 C   0  0  0  0  0  0  0  0  0  0  0  0
  -22.8723  -13.6016   20.7634 C   0  0  0  0  0  0  0  0  0  0  0  0
  -20.6255  -24.0857   20.9359 C   0  0  0  0  0  0  0  0  0  0  0  0
  -20.6269  -27.2148   21.7911 C   0  0  0  0  0  0  0  0  0  0  0  0
  -22.0822  -29.7276   23.5840 C   0  0  0  0  0  0  0  0  0  0  0  0
  -30.7697  -14.5511   20.6058 C   0  0  0  0  0  0  0  0  0  0  0  0
  -17.3381  -20.7793   18.8580 C   0  0  0  0  0  0  0  0  0  0  0  0
  -20.7250  -23.9204   23.4496 C   0  0  0  0  0  0  0  0  0  0  0  0
  -22.6777  -25.8775   22.4002 C   0  0  0  0  0  0  0  0  0  0  0  0
  -17.5252  -22.2941   18.8336 C   0  0  0  0  0  0  0  0  0  0  0  0
  -29.7561  -11.7361   18.6756 C   0  0  0  0  0  0  0  0  0  0  0  0
  -18.9772  -22.6478   18.5281 C   0  0  0  0  0  0  0  0  0  0  0  0
  -28.2756  -11.5703   19.0260 C   0  0  0  0  0  0  0  0  0  0  0  0
  -33.4437  -20.3264   20.1568 C   0  0  0  0  0  0  0  0  0  0  0  0
  -34.2698  -19.0894   20.3213 C   0  0  0  0  0  0  0  0  0  0  0  0
  -29.5627  -21.2028   21.7073 C   0  0  0  0  0  0  0  0  0  0  0  0
  -30.3029  -20.4738   24.0111 C   0  0  0  0  0  0  0  0  0  0  0  0
  -30.5785  -12.1810   19.8837 C   0  0  0  0  0  0  0  0  0  0  0  0
  -28.5958  -13.2127   20.9200 C   0  0  0  0  0  0  0  0  0  0  0  0
  -29.3115  -22.6066   22.2428 C   0  0  0  0  0  0  0  0  0  0  0  0
  -30.0465  -21.8833   24.5288 C   0  0  0  0  0  0  0  0  0  0  0  0
  -19.9172  -22.1029   19.6103 C   0  0  1  0  0  0  0  0  0  0  0  0
  -30.6521  -20.4779   22.5141 C   0  0  0  0  0  0  0  0  0  0  0  0
  -20.4123  -24.7981   22.2416 C   0  0  1  0  0  0  0  0  0  0  0  0
  -33.2272  -19.4361   21.3581 C   0  0  0  0  0  0  0  0  0  0  0  0
  -27.7163  -12.8283   19.7190 C   0  0  2  0  0  0  0  0  0  0  0  0
  -28.2549  -17.0914   23.5941 C   0  0  0  0  0  0  0  0  0  0  0  0
  -27.5181  -17.8175   21.2952 C   0  0  0  0  0  0  0  0  0  0  0  0
  -21.8822  -32.1849   24.0521 C   0  0  0  0  0  0  0  0  0  0  0  0
  -21.8411  -27.8313   19.0606 C   0  0  0  0  0  0  0  0  0  0  0  0
  -22.4858  -30.0872   19.9342 C   0  0  0  0  0  0  0  0  0  0  0  0
  -20.0795  -29.4421   19.8067 C   0  0  0  0  0  0  0  0  0  0  0  0
  -21.6339  -29.2591   26.4717 C   0  0  0  0  0  0  0  0  0  0  0  0
  -28.5738  -23.8764   24.2573 C   0  0  0  0  0  0  0  0  0  0  0  0
  -27.1488  -24.1963   23.8511 C   0  0  0  0  0  0  0  0  0  1  0  0
  -28.5310  -18.0747   22.4340 C   0  0  0  0  0  0  0  0  0  0  0  0
  -21.5548  -28.3841   21.5663 C   0  0  1  0  0  0  0  0  0  0  0  0
  -21.4914  -30.7848   24.4992 C   0  0  2  0  0  0  0  0  0  0  0  0
  -21.4991  -28.9125   20.1051 C   0  0  0  0  0  0  0  0  0  0  0  0
  -25.8237  -11.4313   20.4592 N   0  0  0  0  0  0  0  0  0  0  0  0
  -32.0178  -18.6498   21.4978 N   0  0  0  0  0  0  0  0  0  0  0  0
  -26.2613  -12.6536   20.1122 N   0  0  0  0  0  0  0  0  0  0  0  0
  -21.2255  -26.0152   22.2017 N   0  0  0  0  0  0  0  0  0  0  0  0
  -29.9917  -13.3801   20.4860 N   0  0  0  0  0  0  0  0  0  0  0  0
  -25.5676  -14.9026   19.8444 N   0  0  0  0  0  0  0  0  0  0  0  0
  -21.8004  -12.8026   21.1840 N   0  0  0  0  0  0  0  0  0  0  0  0
  -30.0955  -15.6367   21.1638 N   0  0  0  0  0  0  0  0  0  0  0  0
  -19.8680  -22.9393   20.7903 N   0  0  0  0  0  0  0  0  0  0  0  0
  -21.2091  -29.3795   22.5753 N   0  0  0  0  0  0  0  0  0  0  0  0
  -28.9511  -22.5467   23.7152 N   0  3  0  0  0  0  0  0  0  0  0  0
  -21.9704  -30.5868   25.8965 N   0  3  0  0  0  0  0  0  0  0  0  0
  -22.6820  -14.8237   20.5541 O   0  0  0  0  0  0  0  0  0  0  0  0
  -21.4174  -24.5432   20.1203 O   0  0  0  0  0  0  0  0  0  0  0  0
  -19.4148  -27.3623   21.6160 O   0  0  0  0  0  0  0  0  0  0  0  0
  -23.2074  -29.2602   23.7456 O   0  0  0  0  0  0  0  0  0  0  0  0
  -31.9391  -14.5960   20.2153 O   0  0  0  0  0  0  0  0  0  0  0  0
  -21.2952   -7.3830   22.3705 O   0  0  0  0  0  0  0  0  0  0  0  0
  -26.2664  -23.2120   24.3888 O   0  0  0  0  0  0  0  0  0  1  0  0
  -23.3179   -3.9372   26.1703 F   0  0  0  0  0  0  0  0  0  0  0  0
  -23.6116   -5.9505   21.8964 F   0  0  0  0  0  0  0  0  0  0  0  0
  1  2  1  0  0  0  0
  1  5  2  0  0  0  0
  2  6  2  0  0  0  0
  3  8  2  0  0  0  0
  3 16  1  0  0  0  0
  4  9  1  0  0  0  0
  4 16  2  0  0  0  0
  5 18  1  0  0  0  0
  6 20  1  0  0  0  0
  7 10  2  0  0  0  0
  7 19  1  0  0  0  0
  8 24  1  0  0  0  0
  9 24  2  0  0  0  0
 10 25  1  0  0  0  0
 11 12  2  0  0  0  0
 11 26  1  0  0  0  0
 12 27  1  0  0  0  0
 13 21  1  0  0  0  0
 13 25  2  0  0  0  0
 14 27  2  0  0  0  0
 14 28  1  0  0  0  0
 15 23  2  0  0  0  0
 15 71  1  0  0  0  0
 16 29  1  0  0  0  0
 17 29  1  0  0  0  0
 17 31  2  0  0  0  0
 17 32  1  0  0  0  0
 18 20  2  0  0  0  0
 18 37  1  0  0  0  0
 19 21  2  0  0  0  0
 19 38  1  0  0  0  0
 20 52  1  0  0  0  0
 21 39  1  0  0  0  0
 22 23  1  0  0  0  0
 22 30  2  0  0  0  0
 22 66  1  0  0  0  0
 23 77  1  0  0  0  0
 24 87  1  0  0  0  0
 25 88  1  0  0  0  0
 26 28  2  0  0  0  0
 26 87  1  0  0  0  0
 27 89  1  0  0  0  0
 28 90  1  0  0  0  0
 29 70  2  0  0  0  0
 30 53  1  0  0  0  0
 30 71  1  0  0  0  0
 31 72  1  0  0  0  0
 31 75  1  0  0  0  0
 32 76  1  0  0  0  0
 32 82  2  0  0  0  0
 33 54  1  0  0  0  0
 33 78  1  0  0  0  0
 33 83  2  0  0  0  0
 34 67  1  0  0  0  0
 34 73  1  0  0  0  0
 34 84  2  0  0  0  0
 35 68  1  0  0  0  0
 35 79  1  0  0  0  0
 35 85  2  0  0  0  0
 36 74  1  0  0  0  0
 36 77  1  0  0  0  0
 36 86  2  0  0  0  0
 37 40  1  0  0  0  0
 38 54  1  0  0  0  0
 39 73  1  0  0  0  0
 40 42  1  0  0  0  0
 41 43  1  0  0  0  0
 41 48  1  0  0  0  0
 42 52  1  0  0  0  0
 43 56  1  0  0  0  0
 44 45  1  0  0  0  0
 44 55  1  0  0  0  0
 45 55  1  0  0  0  0
 46 50  1  0  0  0  0
 46 53  1  0  0  0  0
 47 51  1  0  0  0  0
 47 53  1  0  0  0  0
 48 74  1  0  0  0  0
 49 56  1  0  0  0  0
 49 74  1  0  0  0  0
 50 80  1  0  0  0  0
 51 80  1  0  0  0  0
 52 78  1  0  0  0  0
 54 73  1  0  0  0  0
 55 71  1  0  0  0  0
 56 72  1  0  0  0  0
 57 66  1  0  0  0  0
 58 66  1  0  0  0  0
 59 68  1  0  0  0  0
 60 69  1  0  0  0  0
 61 69  1  0  0  0  0
 62 69  1  0  0  0  0
 63 81  1  0  0  0  0
 64 65  1  0  0  0  0
 64 80  1  0  0  0  0
 65 88  1  0  0  0  0
 67 69  1  0  0  0  0
 67 79  1  0  0  0  0
 68 81  1  0  0  0  0
 70 72  1  0  0  0  0
M  CHG  2  80   1  81   1
M  ISO  4  36 100  65 101  77 100  88 101
M  END
> <Batch ID>
0154

> <Smiles>
CNC(C)C(=O)NC(C(=O)N1Cc2cc([101O:1][101CH2:1]CN3CCC(c4c(C(C)C)c([100NH:0][100C:0](=O)N5CCCC(n6nc(-c7ccc(Oc8ccc(F)cc8F)cc7)c(C(N)=O)c6N)C5)cn4C4CC4)CC3)ccc2CC1C(=O)NC1CCCc2ccccc21)C(C)(C)C

> <Shape>
0.237

> <Color>
0.189

> <Negative vol penalty>
0.000

$$$$

  -OEChem-04052321513D

 89 98  0     1  0  0  0  0  0999 V2000
  -25.9171  -33.0841   26.1499 C   0  0  0  0  0  0  0  0  0  0  0  0
  -25.8819  -31.7239   25.8598 C   0  0  0  0  0  0  0  0  0  0  0  0
  -22.9945  -10.6769   22.4504 C   0  0  0  0  0  0  0  0  0  0  0  0
  -24.5081   -8.9421   21.7177 C   0  0  0  0  0  0  0  0  0  0  0  0
  -25.3390  -33.9985   25.2704 C   0  0  0  0  0  0  0  0  0  0  0  0
  -25.2674  -31.2773   24.6905 C   0  0  0  0  0  0  0  0  0  0  0  0
  -28.0173  -27.7865   22.2621 C   0  0  0  0  0  0  0  0  0  0  0  0
  -22.4434   -9.8011   23.3857 C   0  0  0  0  0  0  0  0  0  0  0  0
  -23.9570   -8.0662   22.6531 C   0  0  0  0  0  0  0  0  0  0  0  0
  -27.9857  -26.4871   22.7665 C   0  0  0  0  0  0  0  0  0  0  0  0
  -22.7058   -5.2641   24.6006 C   0  0  0  0  0  0  0  0  0  0  0  0
  -22.4118   -3.9672   24.1798 C   0  0  0  0  0  0  0  0  0  0  0  0
  -26.6056  -19.5621   24.1420 C   0  0  0  0  0  0  0  0  0  0  0  0
  -26.3859  -25.8734   21.0685 C   0  0  0  0  0  0  0  0  0  0  0  0
  -20.8936   -4.8498   22.5205 C   0  0  0  0  0  0  0  0  0  0  0  0
  -24.0268  -10.2474   21.6163 C   0  0  0  0  0  0  0  0  0  0  0  0
  -23.9276  -11.7956   19.5913 C   0  0  0  0  0  0  0  0  0  0  0  0
  -24.7256  -33.5636   24.0849 C   0  0  0  0  0  0  0  0  0  0  0  0
  -27.2239  -28.1425   21.1621 C   0  0  0  0  0  0  0  0  0  0  0  0
  -24.6793  -32.1866   23.7949 C   0  0  0  0  0  0  0  0  0  0  0  0
  -27.6354  -19.9751   23.2967 C   0  0  0  0  0  0  0  0  0  0  0  0
  -26.4111  -27.1773   20.5505 C   0  0  0  0  0  0  0  0  0  0  0  0
  -25.4712  -20.3584   24.3000 C   0  0  0  0  0  0  0  0  0  0  0  0
  -27.5309  -21.1843   22.6094 C   0  0  0  0  0  0  0  0  0  0  0  0
  -26.3966  -21.9807   22.7674 C   0  0  0  0  0  0  0  0  0  0  0  0
  -22.9246   -8.4958   23.4871 C   0  0  0  0  0  0  0  0  0  0  0  0
  -27.1678  -25.5311   22.1715 C   0  0  0  0  0  0  0  0  0  0  0  0
  -22.0937   -6.3539   23.9814 C   0  0  0  0  0  0  0  0  0  0  0  0
  -25.3668  -21.5677   23.6127 C   0  0  0  0  0  0  0  0  0  0  0  0
  -21.5057   -3.7600   23.1397 C   0  0  0  0  0  0  0  0  0  0  0  0
  -21.1876   -6.1467   22.9414 C   0  0  0  0  0  0  0  0  0  0  0  0
  -24.5962  -11.1514   20.6495 C   0  0  0  0  0  0  0  0  0  0  0  0
  -24.9022  -12.5387   18.9712 C   0  0  0  0  0  0  0  0  0  0  0  0
  -22.5489  -11.7285   19.2036 C   0  0  0  0  0  0  0  0  0  0  0  0
  -24.8599  -30.2114   20.6774 C   0  0  0  0  0  0  0  0  0  0  0  0
  -25.1910  -29.2702   17.5909 C   0  0  0  0  0  0  0  0  0  0  0  0
  -26.2162  -26.8752   15.3864 C   0  0  0  0  0  0  0  0  0  0  0  0
  -30.0926  -14.8473   20.8637 C   0  0  0  0  0  0  0  0  0  0  0  0
  -24.0727  -34.5856   23.1883 C   0  0  0  0  0  0  0  0  0  0  0  0
  -27.2895  -29.5415   20.6135 C   0  0  0  0  0  0  0  0  0  0  0  0
  -25.5555  -27.5034   19.3547 C   0  0  0  0  0  0  0  0  0  0  0  0
  -23.7706  -34.0617   21.7867 C   0  0  0  0  0  0  0  0  0  0  0  0
  -29.6153  -12.5927   18.1497 C   0  0  0  0  0  0  0  0  0  0  0  0
  -23.1130  -32.6874   21.8606 C   0  0  0  0  0  0  0  0  0  0  0  0
  -30.8289  -17.9186   24.2504 C   0  0  0  0  0  0  0  0  0  0  0  0
  -28.2145  -12.0258   18.3872 C   0  0  0  0  0  0  0  0  0  0  0  0
  -30.4079  -16.5972   23.6135 C   0  0  0  0  0  0  0  0  0  0  0  0
  -28.4600  -17.7444   22.4974 C   0  0  0  0  0  0  0  0  0  0  0  0
  -30.3612  -12.8224   19.4624 C   0  0  0  0  0  0  0  0  0  0  0  0
  -28.2378  -13.0796   20.6867 C   0  0  0  0  0  0  0  0  0  0  0  0
  -28.8615  -19.0877   23.1423 C   0  0  2  0  0  0  0  0  0  0  0  0
  -24.0438  -31.6653   22.5243 C   0  0  1  0  0  0  0  0  0  0  0  0
  -26.0521  -29.9263   19.8085 C   0  0  1  0  0  0  0  0  0  0  0  0
  -29.6353  -18.8648   24.4697 C   0  0  2  0  0  0  0  0  0  0  0  0
  -27.4259  -12.8835   19.3949 C   0  0  2  0  0  0  0  0  0  0  0  0
  -29.6697  -16.8290   22.2967 C   0  0  2  0  0  0  0  0  0  0  0  0
  -24.3793  -19.8991   25.2090 C   0  0  0  0  0  0  0  0  0  0  0  0
  -28.6359  -21.6251   21.7025 C   0  0  0  0  0  0  0  0  0  0  0  0
  -30.1408  -20.1821   25.0703 C   0  0  0  0  0  0  0  0  0  0  0  0
  -26.3225  -26.3751   12.9296 C   0  0  0  0  0  0  0  0  0  0  0  0
  -22.2032  -28.6516   17.5900 C   0  0  0  0  0  0  0  0  0  0  0  0
  -22.5536  -27.3043   15.5091 C   0  0  0  0  0  0  0  0  0  0  0  0
  -23.0415  -29.7506   15.5059 C   0  0  0  0  0  0  0  0  0  0  0  0
  -29.1702  -26.7001   15.4317 C   0  0  0  0  0  0  0  0  0  0  0  0
  -24.2907  -23.3149   24.8149 C   0  0  0  0  0  0  0  0  0  0  0  0
  -26.2780  -23.2822   22.0303 C   0  0  0  0  0  0  0  0  0  1  0  0
  -24.5934  -28.1788   16.7360 C   0  0  1  0  0  0  0  0  0  0  0  0
  -27.0572  -26.9604   14.1255 C   0  0  2  0  0  0  0  0  0  0  0  0
  -23.1125  -28.4654   16.3590 C   0  0  0  0  0  0  0  0  0  0  0  0
  -25.8951  -11.4581   20.7016 N   0  0  0  0  0  0  0  0  0  0  0  0
  -26.0506  -12.3032   19.6683 N   0  0  0  0  0  0  0  0  0  0  0  0
  -25.6495  -28.8866   18.8591 N   0  0  0  0  0  0  0  0  0  0  0  0
  -29.5599  -13.6439   20.3729 N   0  0  0  0  0  0  0  0  0  0  0  0
  -24.8804  -13.3638   17.9030 N   0  0  0  0  0  0  0  0  0  0  0  0
  -22.1609  -10.7456   18.2829 N   0  0  0  0  0  0  0  0  0  0  0  0
  -25.0605  -31.2276   21.5920 N   0  0  0  0  0  0  0  0  0  0  0  0
  -25.4828  -28.0250   15.5899 N   0  0  0  0  0  0  0  0  0  0  0  0
  -29.2649  -15.5682   21.7158 N   0  0  0  0  0  0  0  0  0  0  0  0
  -28.3348  -26.2141   14.3036 N   0  3  0  0  0  0  0  0  0  0  0  0
  -21.6896  -12.5272   19.6476 O   0  0  0  0  0  0  0  0  0  0  0  0
  -23.8335  -29.5588   20.5281 O   0  0  0  0  0  0  0  0  0  0  0  0
  -25.2553  -30.4192   17.1469 O   0  0  0  0  0  0  0  0  0  0  0  0
  -26.2076  -25.8860   16.1157 O   0  0  0  0  0  0  0  0  0  0  0  0
  -31.2200  -15.2522   20.5605 O   0  0  0  0  0  0  0  0  0  0  0  0
  -22.3873   -7.6410   24.3998 O   0  0  0  0  0  0  0  0  0  0  0  0
  -24.2576  -22.3462   23.7698 O   0  0  0  0  0  0  0  0  0  0  0  0
  -27.1345  -24.2622   22.6621 O   0  0  0  0  0  0  0  0  0  1  0  0
  -21.2246   -2.5146   22.7347 F   0  0  0  0  0  0  0  0  0  0  0  0
  -20.5973   -7.1898   22.3419 F   0  0  0  0  0  0  0  0  0  0  0  0
  1  2  1  0  0  0  0
  1  5  2  0  0  0  0
  2  6  2  0  0  0  0
  3  8  2  0  0  0  0
  3 16  1  0  0  0  0
  4  9  1  0  0  0  0
  4 16  2  0  0  0  0
  5 18  1  0  0  0  0
  6 20  1  0  0  0  0
  7 10  2  0  0  0  0
  7 19  1  0  0  0  0
  8 26  1  0  0  0  0
  9 26  2  0  0  0  0
 10 27  1  0  0  0  0
 11 12  2  0  0  0  0
 11 28  1  0  0  0  0
 12 30  1  0  0  0  0
 13 21  1  0  0  0  0
 13 23  2  0  0  0  0
 14 22  1  0  0  0  0
 14 27  2  0  0  0  0
 15 30  2  0  0  0  0
 15 31  1  0  0  0  0
 16 32  1  0  0  0  0
 17 32  1  0  0  0  0
 17 33  2  0  0  0  0
 17 34  1  0  0  0  0
 18 20  2  0  0  0  0
 18 39  1  0  0  0  0
 19 22  2  0  0  0  0
 19 40  1  0  0  0  0
 20 52  1  0  0  0  0
 21 24  2  0  0  0  0
 21 51  1  0  0  0  0
 22 41  1  0  0  0  0
 23 29  1  0  0  0  0
 23 57  1  0  0  0  0
 24 25  1  0  0  0  0
 24 58  1  0  0  0  0
 25 29  2  0  0  0  0
 25 66  1  0  0  0  0
 26 85  1  0  0  0  0
 27 87  1  0  0  0  0
 28 31  2  0  0  0  0
 28 85  1  0  0  0  0
 29 86  1  0  0  0  0
 30 88  1  0  0  0  0
 31 89  1  0  0  0  0
 32 70  2  0  0  0  0
 33 71  1  0  0  0  0
 33 74  1  0  0  0  0
 34 75  1  0  0  0  0
 34 80  2  0  0  0  0
 35 53  1  0  0  0  0
 35 76  1  0  0  0  0
 35 81  2  0  0  0  0
 36 67  1  0  0  0  0
 36 72  1  0  0  0  0
 36 82  2  0  0  0  0
 37 68  1  0  0  0  0
 37 77  1  0  0  0  0
 37 83  2  0  0  0  0
 38 73  1  0  0  0  0
 38 78  1  0  0  0  0
 38 84  2  0  0  0  0
 39 42  1  0  0  0  0
 40 53  1  0  0  0  0
 41 72  1  0  0  0  0
 42 44  1  0  0  0  0
 43 46  1  0  0  0  0
 43 49  1  0  0  0  0
 44 52  1  0  0  0  0
 45 47  1  0  0  0  0
 45 54  1  0  0  0  0
 46 55  1  0  0  0  0
 47 56  1  0  0  0  0
 48 51  1  0  0  0  0
 48 56  1  0  0  0  0
 49 73  1  0  0  0  0
 50 55  1  0  0  0  0
 50 73  1  0  0  0  0
 51 54  1  0  0  0  0
 52 76  1  0  0  0  0
 53 72  1  0  0  0  0
 54 59  1  0  0  0  0
 55 71  1  0  0  0  0
 56 78  1  0  0  0  0
 60 68  1  0  0  0  0
 61 69  1  0  0  0  0
 62 69  1  0  0  0  0
 63 69  1  0  0  0  0
 64 79  1  0  0  0  0
 65 86  1  0  0  0  0
 66 87  1  0  0  0  0
 67 69  1  0  0  0  0
 67 77  1  0  0  0  0
 68 79  1  0  0  0  0
 70 71  1  0  0  0  0
M  CHG  1  79   1
M  ISO  4  38 100  66 101  78 100  87 101
M  END
> <Batch ID>
0154

> <Smiles>
CNC(C)C(=O)NC(C(=O)N1Cc2cc([101O:1][101CH2:1]c3c(C)c(C4CC([100NH:0][100C:0](=O)N5CCCC(n6nc(-c7ccc(Oc8ccc(F)cc8F)cc7)c(C(N)=O)c6N)C5)CCC4C)cc(C)c3OC)ccc2CC1C(=O)NC1CCCc2ccccc21)C(C)(C)C

> <Shape>
0.255

> <Color>
0.088

> <Negative vol penalty>
0.000

$$$$

  -OEChem-04052321513D

 87 96  0     1  0  0  0  0  0999 V2000
  -24.7473  -23.6026   16.6098 C   0  0  0  0  0  0  0  0  0  0  0  0
  -25.6129  -22.8791   17.4238 C   0  0  0  0  0  0  0  0  0  0  0  0
  -23.7006   -9.7304   21.2926 C   0  0  0  0  0  0  0  0  0  0  0  0
  -24.3180  -10.6661   23.4328 C   0  0  0  0  0  0  0  0  0  0  0  0
  -25.1284  -24.8539   16.1272 C   0  0  0  0  0  0  0  0  0  0  0  0
  -26.8609  -23.4060   17.7547 C   0  0  0  0  0  0  0  0  0  0  0  0
  -27.9646  -22.8493   22.6656 C   0  0  0  0  0  0  0  0  0  0  0  0
  -23.1604   -8.6166   21.9354 C   0  0  0  0  0  0  0  0  0  0  0  0
  -23.7777   -9.5523   24.0756 C   0  0  0  0  0  0  0  0  0  0  0  0
  -28.3937  -21.5901   23.0830 C   0  0  0  0  0  0  0  0  0  0  0  0
  -21.9403   -5.3589   22.9948 C   0  0  0  0  0  0  0  0  0  0  0  0
  -22.2376   -4.0998   22.4735 C   0  0  0  0  0  0  0  0  0  0  0  0
  -30.3228  -16.3263   26.1565 C   0  0  0  0  0  0  0  0  0  0  0  0
  -30.6793  -22.3602   23.0365 C   0  0  0  0  0  0  0  0  0  0  0  0
  -24.5916   -4.5057   22.8358 C   0  0  0  0  0  0  0  0  0  0  0  0
  -24.2795  -10.7552   22.0413 C   0  0  0  0  0  0  0  0  0  0  0  0
  -24.1740  -13.1019   21.0467 C   0  0  0  0  0  0  0  0  0  0  0  0
  -26.3778  -25.4006   16.4602 C   0  0  0  0  0  0  0  0  0  0  0  0
  -28.8921  -23.8719   22.4196 C   0  0  0  0  0  0  0  0  0  0  0  0
  -27.2597  -24.6652   17.2749 C   0  0  0  0  0  0  0  0  0  0  0  0
  -31.0142  -15.4872   25.2677 C   0  0  0  0  0  0  0  0  0  0  0  0
  -30.2593  -23.6322   22.6185 C   0  0  0  0  0  0  0  0  0  0  0  0
  -31.1172  -15.8524   23.9128 C   0  0  0  0  0  0  0  0  0  0  0  0
  -30.5075  -17.0407   23.4746 C   0  0  0  0  0  0  0  0  0  0  0  0
  -29.8170  -17.8602   24.3667 C   0  0  0  0  0  0  0  0  0  0  0  0
  -23.1989   -8.5276   23.3269 C   0  0  0  0  0  0  0  0  0  0  0  0
  -29.7514  -21.3446   23.2657 C   0  0  0  0  0  0  0  0  0  0  0  0
  -22.9686   -6.1915   23.4365 C   0  0  0  0  0  0  0  0  0  0  0  0
  -29.7251  -17.5032   25.7078 C   0  0  0  0  0  0  0  0  0  0  0  0
  -23.5633   -3.6731   22.3941 C   0  0  0  0  0  0  0  0  0  0  0  0
  -24.2942   -5.7649   23.3571 C   0  0  0  0  0  0  0  0  0  0  0  0
  -24.8383  -11.9057   21.3778 C   0  0  0  0  0  0  0  0  0  0  0  0
  -25.1344  -13.8699   20.4348 C   0  0  0  0  0  0  0  0  0  0  0  0
  -22.8108  -13.4847   21.2720 C   0  0  0  0  0  0  0  0  0  0  0  0
  -29.7240  -25.5805   19.8715 C   0  0  0  0  0  0  0  0  0  0  0  0
  -31.5405  -27.1869   22.0261 C   0  0  0  0  0  0  0  0  0  0  0  0
  -33.1692  -27.1731   25.0250 C   0  0  0  0  0  0  0  0  0  0  0  0
  -31.1124  -13.9490   20.7643 C   0  0  0  0  0  0  0  0  0  0  0  0
  -26.7647  -26.7361   15.8759 C   0  0  0  0  0  0  0  0  0  0  0  0
  -28.4112  -25.2325   21.9955 C   0  0  0  0  0  0  0  0  0  0  0  0
  -31.6810  -14.2495   25.8154 C   0  0  0  0  0  0  0  0  0  0  0  0
  -31.2938  -24.7021   22.3876 C   0  0  0  0  0  0  0  0  0  0  0  0
  -27.9530  -27.3873   16.5790 C   0  0  0  0  0  0  0  0  0  0  0  0
  -29.1354  -13.4945   17.8383 C   0  0  0  0  0  0  0  0  0  0  0  0
  -29.0734  -26.3727   16.7843 C   0  0  0  0  0  0  0  0  0  0  0  0
  -27.7500  -13.1437   18.3837 C   0  0  0  0  0  0  0  0  0  0  0  0
  -30.2479  -12.8952   18.6958 C   0  0  0  0  0  0  0  0  0  0  0  0
  -28.7823  -12.8721   20.6771 C   0  0  0  0  0  0  0  0  0  0  0  0
  -28.6117  -25.2139   17.6762 C   0  0  1  0  0  0  0  0  0  0  0  0
  -31.8326  -14.9774   22.9051 C   0  0  1  0  0  0  0  0  0  0  0  0
  -29.4826  -26.0484   21.2788 C   0  0  1  0  0  0  0  0  0  0  0  0
  -32.1299  -13.2540   24.7349 C   0  0  1  0  0  0  0  0  0  0  0  0
  -32.8174  -13.9745   23.5518 C   0  0  2  0  0  0  0  0  0  0  0  0
  -27.6285  -13.5009   19.8774 C   0  0  2  0  0  0  0  0  0  0  0  0
  -30.5884  -17.4611   22.0374 C   0  0  0  0  0  0  0  0  0  0  0  0
  -32.9991  -12.1542   25.3474 C   0  0  0  0  0  0  0  0  0  0  0  0
  -34.1296  -14.6774   23.9342 C   0  0  0  0  0  0  0  0  0  0  0  0
  -34.5972  -28.6186   26.4978 C   0  0  0  0  0  0  0  0  0  0  0  0
  -33.9313  -26.6827   20.1986 C   0  0  0  0  0  0  0  0  0  0  0  0
  -35.4313  -27.2800   22.1121 C   0  0  0  0  0  0  0  0  0  0  0  0
  -33.8459  -28.9743   21.1964 C   0  0  0  0  0  0  0  0  0  0  0  0
  -31.1843  -27.0994   27.2190 C   0  0  0  0  0  0  0  0  0  0  0  0
  -29.8170  -19.2993   27.2639 C   0  0  0  0  0  0  0  0  0  0  0  0
  -29.1729  -19.1250   23.8939 C   0  0  0  0  0  0  0  0  0  1  0  0
  -32.9461  -27.0432   22.5577 C   0  0  1  0  0  0  0  0  0  0  0  0
  -33.1815  -28.1707   26.1692 C   0  0  2  0  0  0  0  0  0  0  0  0
  -34.0196  -27.4741   21.5188 C   0  0  0  0  0  0  0  0  0  0  0  0
  -26.1214  -11.9087   21.0069 N   0  0  0  0  0  0  0  0  0  0  0  0
  -26.2711  -13.1162   20.4363 N   0  0  0  0  0  0  0  0  0  0  0  0
  -30.7743  -26.0141   21.9677 N   0  0  0  0  0  0  0  0  0  0  0  0
  -30.0753  -13.2731   20.1006 N   0  0  0  0  0  0  0  0  0  0  0  0
  -25.1090  -15.1095   19.9009 N   0  0  0  0  0  0  0  0  0  0  0  0
  -21.9590  -12.5757   21.9143 N   0  0  0  0  0  0  0  0  0  0  0  0
  -28.6021  -25.6185   19.0657 N   0  0  0  0  0  0  0  0  0  0  0  0
  -32.9886  -27.7946   23.8075 N   0  0  0  0  0  0  0  0  0  0  0  0
  -30.8645  -14.2758   22.0919 N   0  0  0  0  0  0  0  0  0  0  0  0
  -32.5849  -27.5634   27.3924 N   0  3  0  0  0  0  0  0  0  0  0  0
  -22.3571  -14.5933   20.8997 O   0  0  0  0  0  0  0  0  0  0  0  0
  -30.8454  -25.2135   19.5408 O   0  0  0  0  0  0  0  0  0  0  0  0
  -31.1348  -28.2999   21.6822 O   0  0  0  0  0  0  0  0  0  0  0  0
  -33.3098  -25.9639   25.1941 O   0  0  0  0  0  0  0  0  0  0  0  0
  -32.1781  -14.2443   20.2130 O   0  0  0  0  0  0  0  0  0  0  0  0
  -22.6716   -7.4410   23.9545 O   0  0  0  0  0  0  0  0  0  0  0  0
  -29.0594  -18.2910   26.5982 O   0  0  0  0  0  0  0  0  0  0  0  0
  -30.1760  -20.1072   23.6754 O   0  0  0  0  0  0  0  0  0  1  0  0
  -23.8486   -2.4633   21.8949 F   0  0  0  0  0  0  0  0  0  0  0  0
  -25.2862   -6.5598   23.7810 F   0  0  0  0  0  0  0  0  0  0  0  0
  1  2  1  0  0  0  0
  1  5  2  0  0  0  0
  2  6  2  0  0  0  0
  3  8  2  0  0  0  0
  3 16  1  0  0  0  0
  4  9  1  0  0  0  0
  4 16  2  0  0  0  0
  5 18  1  0  0  0  0
  6 20  1  0  0  0  0
  7 10  2  0  0  0  0
  7 19  1  0  0  0  0
  8 26  1  0  0  0  0
  9 26  2  0  0  0  0
 10 27  1  0  0  0  0
 11 12  2  0  0  0  0
 11 28  1  0  0  0  0
 12 30  1  0  0  0  0
 13 21  1  0  0  0  0
 13 29  2  0  0  0  0
 14 22  1  0  0  0  0
 14 27  2  0  0  0  0
 15 30  2  0  0  0  0
 15 31  1  0  0  0  0
 16 32  1  0  0  0  0
 17 32  1  0  0  0  0
 17 33  2  0  0  0  0
 17 34  1  0  0  0  0
 18 20  2  0  0  0  0
 18 39  1  0  0  0  0
 19 22  2  0  0  0  0
 19 40  1  0  0  0  0
 20 49  1  0  0  0  0
 21 23  2  0  0  0  0
 21 41  1  0  0  0  0
 22 42  1  0  0  0  0
 23 24  1  0  0  0  0
 23 50  1  0  0  0  0
 24 25  2  0  0  0  0
 24 55  1  0  0  0  0
 25 29  1  0  0  0  0
 25 64  1  0  0  0  0
 26 83  1  0  0  0  0
 27 85  1  0  0  0  0
 28 31  2  0  0  0  0
 28 83  1  0  0  0  0
 29 84  1  0  0  0  0
 30 86  1  0  0  0  0
 31 87  1  0  0  0  0
 32 68  2  0  0  0  0
 33 69  1  0  0  0  0
 33 72  1  0  0  0  0
 34 73  1  0  0  0  0
 34 78  2  0  0  0  0
 35 51  1  0  0  0  0
 35 74  1  0  0  0  0
 35 79  2  0  0  0  0
 36 65  1  0  0  0  0
 36 70  1  0  0  0  0
 36 80  2  0  0  0  0
 37 66  1  0  0  0  0
 37 75  1  0  0  0  0
 37 81  2  0  0  0  0
 38 71  1  0  0  0  0
 38 76  1  0  0  0  0
 38 82  2  0  0  0  0
 39 43  1  0  0  0  0
 40 51  1  0  0  0  0
 41 52  1  0  0  0  0
 42 70  1  0  0  0  0
 43 45  1  0  0  0  0
 44 46  1  0  0  0  0
 44 47  1  0  0  0  0
 45 49  1  0  0  0  0
 46 54  1  0  0  0  0
 47 71  1  0  0  0  0
 48 54  1  0  0  0  0
 48 71  1  0  0  0  0
 49 74  1  0  0  0  0
 50 53  1  0  0  0  0
 50 76  1  0  0  0  0
 51 70  1  0  0  0  0
 52 53  1  0  0  0  0
 52 56  1  0  0  0  0
 53 57  1  0  0  0  0
 54 69  1  0  0  0  0
 58 66  1  0  0  0  0
 59 67  1  0  0  0  0
 60 67  1  0  0  0  0
 61 67  1  0  0  0  0
 62 77  1  0  0  0  0
 63 84  1  0  0  0  0
 64 85  1  0  0  0  0
 65 67  1  0  0  0  0
 65 75  1  0  0  0  0
 66 77  1  0  0  0  0
 68 69  1  0  0  0  0
M  CHG  1  77   1
M  ISO  4  38 100  64 101  76 100  85 101
M  END
> <Batch ID>
0154

> <Smiles>
CNC(C)C(=O)NC(C(=O)N1Cc2cc([101O:1][101CH2:1]c3c(OC)cc4c(c3C)C([100NH:0][100C:0](=O)N3CCCC(n5nc(-c6ccc(Oc7ccc(F)cc7F)cc6)c(C(N)=O)c5N)C3)C(C)C(C)C4)ccc2CC1C(=O)NC1CCCc2ccccc21)C(C)(C)C

> <Shape>
0.180

> <Color>
0.154

> <Negative vol penalty>
0.000

$$$$
