
  -OEChem-04052321543D

 91101  0     1  0  0  0  0  0999 V2000
  -29.1523  -36.2582   23.0763 C   0  0  0  0  0  0  0  0  0  0  0  0
  -28.9133  -34.8963   22.9230 C   0  0  0  0  0  0  0  0  0  0  0  0
  -22.3041   -7.1542   19.1949 C   0  0  0  0  0  0  0  0  0  0  0  0
  -22.6166   -6.4606   21.4881 C   0  0  0  0  0  0  0  0  0  0  0  0
  -28.2074  -37.0635   23.7108 C   0  0  0  0  0  0  0  0  0  0  0  0
  -27.7296  -34.3386   23.4050 C   0  0  0  0  0  0  0  0  0  0  0  0
  -25.5946  -31.1533   20.0974 C   0  0  0  0  0  0  0  0  0  0  0  0
  -22.1453   -5.8219   18.8136 C   0  0  0  0  0  0  0  0  0  0  0  0
  -22.4577   -5.1283   21.1068 C   0  0  0  0  0  0  0  0  0  0  0  0
  -26.1461  -29.8769   19.9958 C   0  0  0  0  0  0  0  0  0  0  0  0
  -19.9082   -3.0419   20.3535 C   0  0  0  0  0  0  0  0  0  0  0  0
  -19.0859   -2.2373   21.1423 C   0  0  0  0  0  0  0  0  0  0  0  0
  -24.3866  -29.0114   21.4010 C   0  0  0  0  0  0  0  0  0  0  0  0
  -26.7768  -25.0100   20.1632 C   0  0  0  0  0  0  0  0  0  0  0  0
  -20.9505   -0.7662   21.5853 C   0  0  0  0  0  0  0  0  0  0  0  0
  -22.5399   -7.4736   20.5322 C   0  0  0  0  0  0  0  0  0  0  0  0
  -21.6965   -9.7435   21.3345 C   0  0  0  0  0  0  0  0  0  0  0  0
  -27.0072  -36.5171   24.1923 C   0  0  0  0  0  0  0  0  0  0  0  0
  -24.4392  -31.3707   20.8618 C   0  0  0  0  0  0  0  0  0  0  0  0
  -26.7684  -35.1371   24.0478 C   0  0  0  0  0  0  0  0  0  0  0  0
  -23.8210  -30.2911   21.5086 C   0  0  0  0  0  0  0  0  0  0  0  0
  -28.4190  -23.2951   19.7170 C   0  0  0  0  0  0  0  0  0  0  0  0
  -27.1458  -23.6649   20.1503 C   0  0  0  0  0  0  0  0  0  0  0  0
  -27.6810  -25.9853   19.7427 C   0  0  0  0  0  0  0  0  0  0  0  0
  -29.3233  -24.2704   19.2966 C   0  0  0  0  0  0  0  0  0  0  0  0
  -28.9543  -25.6156   19.3095 C   0  0  0  0  0  0  0  0  0  0  0  0
  -22.2220   -4.8090   19.7695 C   0  0  0  0  0  0  0  0  0  0  0  0
  -25.5437  -28.8062   20.6500 C   0  0  0  0  0  0  0  0  0  0  0  0
  -21.2516   -2.7086   20.1806 C   0  0  0  0  0  0  0  0  0  0  0  0
  -19.6071   -1.0995   21.7582 C   0  0  0  0  0  0  0  0  0  0  0  0
  -21.7727   -1.5708   20.7965 C   0  0  0  0  0  0  0  0  0  0  0  0
  -22.7046   -8.8496   20.9266 C   0  0  0  0  0  0  0  0  0  0  0  0
  -22.3629  -10.9150   21.5989 C   0  0  0  0  0  0  0  0  0  0  0  0
  -20.2840   -9.5336   21.4631 C   0  0  0  0  0  0  0  0  0  0  0  0
  -23.7442  -33.1049   23.4334 C   0  0  0  0  0  0  0  0  0  0  0  0
  -20.7195  -32.1178   22.8018 C   0  0  0  0  0  0  0  0  0  0  0  0
  -18.6694  -29.8057   21.3532 C   0  0  0  0  0  0  0  0  0  0  0  0
  -26.1320  -14.6343   19.7952 C   0  0  0  0  0  0  0  0  0  0  0  0
  -26.0369  -37.4189   24.9134 C   0  0  0  0  0  0  0  0  0  0  0  0
  -23.8415  -32.7488   20.9395 C   0  0  0  0  0  0  0  0  0  0  0  0
  -22.5677  -30.4679   22.3250 C   0  0  0  0  0  0  0  0  0  0  0  0
  -24.6418  -36.8174   25.0624 C   0  0  0  0  0  0  0  0  0  0  0  0
  -27.3092  -11.8832   21.9862 C   0  0  0  0  0  0  0  0  0  0  0  0
  -24.7320  -35.3733   25.5455 C   0  0  0  0  0  0  0  0  0  0  0  0
  -26.1362  -10.9058   21.8973 C   0  0  0  0  0  0  0  0  0  0  0  0
  -28.1361  -17.0570   21.6993 C   0  0  0  0  0  0  0  0  0  0  0  0
  -28.7581  -21.2743   21.1272 C   0  0  0  0  0  0  0  0  0  0  0  0
  -27.8910  -21.0594   18.7632 C   0  0  0  0  0  0  0  0  0  0  0  0
  -27.4571  -12.6760   20.6941 C   0  0  0  0  0  0  0  0  0  0  0  0
  -27.8372  -15.5803   21.4600 C   0  0  0  0  0  0  0  0  0  0  0  0
  -25.0537  -12.4501   20.1944 C   0  0  0  0  0  0  0  0  0  0  0  0
  -27.2224  -16.8422   19.5083 C   0  0  0  0  0  0  0  0  0  0  0  0
  -29.0732  -19.7840   21.1368 C   0  0  0  0  0  0  0  0  0  0  0  0
  -28.2130  -19.5708   18.7908 C   0  0  0  0  0  0  0  0  0  0  0  0
  -28.8118  -21.8530   19.7041 C   0  0  0  0  0  0  0  0  0  0  0  0
  -25.4854  -34.4996   24.5352 C   0  0  1  0  0  0  0  0  0  0  0  0
  -22.9546  -32.9473   22.1648 C   0  0  1  0  0  0  0  0  0  0  0  0
  -24.8421  -11.6261   21.4769 C   0  0  1  0  0  0  0  0  0  0  0  0
  -28.3075  -17.5725   20.2782 C   0  0  1  0  0  0  0  0  0  0  0  0
  -26.1589  -22.6404   20.6061 C   0  0  0  0  0  0  0  0  0  0  0  0
  -30.6890  -23.8737   18.8313 C   0  0  0  0  0  0  0  0  0  0  0  0
  -29.9223  -26.6638   18.8599 C   0  0  0  0  0  0  0  0  0  0  0  0
  -16.2434  -29.2470   21.0375 C   0  0  0  0  0  0  0  0  0  0  0  0
  -20.5761  -31.1232   25.6828 C   0  0  0  0  0  0  0  0  0  0  0  0
  -18.5714  -29.7675   25.0414 C   0  0  0  0  0  0  0  0  0  0  0  0
  -18.5011  -32.2548   24.8653 C   0  0  0  0  0  0  0  0  0  0  0  0
  -18.8859  -30.0106   18.4087 C   0  0  0  0  0  0  0  0  0  0  0  0
  -27.2606  -27.4185   19.7654 C   0  0  0  0  0  0  0  0  0  1  0  0
  -19.8754  -30.9330   23.2051 C   0  0  1  0  0  0  0  0  0  0  0  0
  -17.4550  -29.9583   20.4553 C   0  0  2  0  0  0  0  0  0  0  0  0
  -19.4057  -31.0163   24.6849 C   0  0  0  0  0  0  0  0  0  0  0  0
  -23.9191   -9.4056   20.9298 N   0  0  0  0  0  0  0  0  0  0  0  0
  -23.6784  -10.6616   21.3429 N   0  0  0  0  0  0  0  0  0  0  0  0
  -22.0251  -31.8356   22.3758 N   0  0  0  0  0  0  0  0  0  0  0  0
  -26.2035  -13.3460   20.3371 N   0  0  0  0  0  0  0  0  0  0  0  0
  -27.0996  -15.5560   20.1925 N   0  0  0  0  0  0  0  0  0  0  0  0
  -21.9461  -12.1270   22.0230 N   0  0  0  0  0  0  0  0  0  0  0  0
  -19.7652   -8.2697   21.1507 N   0  0  0  0  0  0  0  0  0  0  0  0
  -24.6287  -34.1664   23.4174 N   0  0  0  0  0  0  0  0  0  0  0  0
  -18.7873  -30.8583   22.2361 N   0  0  0  0  0  0  0  0  0  0  0  0
  -28.1274  -19.0320   20.2116 N   0  3  0  0  0  0  0  0  0  0  0  0
  -17.7325  -29.3870   19.1071 N   0  3  0  0  0  0  0  0  0  0  0  0
  -19.5030  -10.4449   21.8279 O   0  0  0  0  0  0  0  0  0  0  0  0
  -23.5633  -32.3223   24.3589 O   0  0  0  0  0  0  0  0  0  0  0  0
  -20.2358  -33.2513   22.8557 O   0  0  0  0  0  0  0  0  0  0  0  0
  -19.4347  -28.8467   21.2813 O   0  0  0  0  0  0  0  0  0  0  0  0
  -25.2164  -14.9612   19.0285 O   0  0  0  0  0  0  0  0  0  0  0  0
  -22.0668   -3.5089   19.3978 O   0  0  0  0  0  0  0  0  0  0  0  0
  -26.0842  -27.5505   20.5524 O   0  0  0  0  0  0  0  0  0  1  0  0
  -18.8178   -0.3278   22.5169 F   0  0  0  0  0  0  0  0  0  0  0  0
  -23.0628   -1.2461   20.6350 F   0  0  0  0  0  0  0  0  0  0  0  0
  1  2  1  0  0  0  0
  1  5  2  0  0  0  0
  2  6  2  0  0  0  0
  3  8  2  0  0  0  0
  3 16  1  0  0  0  0
  4  9  1  0  0  0  0
  4 16  2  0  0  0  0
  5 18  1  0  0  0  0
  6 20  1  0  0  0  0
  7 10  2  0  0  0  0
  7 19  1  0  0  0  0
  8 27  1  0  0  0  0
  9 27  2  0  0  0  0
 10 28  1  0  0  0  0
 11 12  2  0  0  0  0
 11 29  1  0  0  0  0
 12 30  1  0  0  0  0
 13 21  1  0  0  0  0
 13 28  2  0  0  0  0
 14 23  2  0  0  0  0
 14 24  1  0  0  0  0
 15 30  2  0  0  0  0
 15 31  1  0  0  0  0
 16 32  1  0  0  0  0
 17 32  1  0  0  0  0
 17 33  2  0  0  0  0
 17 34  1  0  0  0  0
 18 20  2  0  0  0  0
 18 39  1  0  0  0  0
 19 21  2  0  0  0  0
 19 40  1  0  0  0  0
 20 56  1  0  0  0  0
 21 41  1  0  0  0  0
 22 23  1  0  0  0  0
 22 25  2  0  0  0  0
 22 55  1  0  0  0  0
 23 60  1  0  0  0  0
 24 26  2  0  0  0  0
 24 68  1  0  0  0  0
 25 26  1  0  0  0  0
 25 61  1  0  0  0  0
 26 62  1  0  0  0  0
 27 88  1  0  0  0  0
 28 89  1  0  0  0  0
 29 31  2  0  0  0  0
 29 88  1  0  0  0  0
 30 90  1  0  0  0  0
 31 91  1  0  0  0  0
 32 72  2  0  0  0  0
 33 73  1  0  0  0  0
 33 77  1  0  0  0  0
 34 78  1  0  0  0  0
 34 83  2  0  0  0  0
 35 57  1  0  0  0  0
 35 79  1  0  0  0  0
 35 84  2  0  0  0  0
 36 69  1  0  0  0  0
 36 74  1  0  0  0  0
 36 85  2  0  0  0  0
 37 70  1  0  0  0  0
 37 80  1  0  0  0  0
 37 86  2  0  0  0  0
 38 75  1  0  0  0  0
 38 76  1  0  0  0  0
 38 87  2  0  0  0  0
 39 42  1  0  0  0  0
 40 57  1  0  0  0  0
 41 74  1  0  0  0  0
 42 44  1  0  0  0  0
 43 45  1  0  0  0  0
 43 49  1  0  0  0  0
 44 56  1  0  0  0  0
 45 58  1  0  0  0  0
 46 50  1  0  0  0  0
 46 59  1  0  0  0  0
 47 53  1  0  0  0  0
 47 55  1  0  0  0  0
 48 54  1  0  0  0  0
 48 55  1  0  0  0  0
 49 75  1  0  0  0  0
 50 76  1  0  0  0  0
 51 58  1  0  0  0  0
 51 75  1  0  0  0  0
 52 59  1  0  0  0  0
 52 76  1  0  0  0  0
 53 81  1  0  0  0  0
 54 81  1  0  0  0  0
 56 79  1  0  0  0  0
 57 74  1  0  0  0  0
 58 73  1  0  0  0  0
 59 81  1  0  0  0  0
 63 70  1  0  0  0  0
 64 71  1  0  0  0  0
 65 71  1  0  0  0  0
 66 71  1  0  0  0  0
 67 82  1  0  0  0  0
 68 89  1  0  0  0  0
 69 71  1  0  0  0  0
 69 80  1  0  0  0  0
 70 82  1  0  0  0  0
 72 73  1  0  0  0  0
M  CHG  2  81   1  82   1
M  ISO  4  38 100  68 101  76 100  89 101
M  END
> <Batch ID>
0155

> <Smiles>
CNC(C)C(=O)NC(C(=O)N1Cc2cc([101O:1][101CH2:1]c3cc(C)c(C4CCN(C5CC[100N:0]([100C:0](=O)N6CCCC(n7nc(-c8ccc(Oc9ccc(F)cc9F)cc8)c(C(N)=O)c7N)C6)C5)CC4)c(C)c3C)ccc2CC1C(=O)NC1CCCc2ccccc21)C(C)(C)C

> <Shape>
0.284

> <Color>
0.063

> <Negative vol penalty>
0.000

$$$$

  -OEChem-04052321543D

 91101  0     1  0  0  0  0  0999 V2000
  -21.7295  -12.3296   19.7808 C   0  0  0  0  0  0  0  0  0  0  0  0
  -21.7077  -13.5542   20.4406 C   0  0  0  0  0  0  0  0  0  0  0  0
  -29.1811  -26.8566   18.7976 C   0  0  0  0  0  0  0  0  0  0  0  0
  -29.4979  -28.4743   20.5638 C   0  0  0  0  0  0  0  0  0  0  0  0
  -22.9360  -11.6518   19.6112 C   0  0  0  0  0  0  0  0  0  0  0  0
  -22.8924  -14.1011   20.9323 C   0  0  0  0  0  0  0  0  0  0  0  0
  -23.3281  -19.0394   19.8985 C   0  0  0  0  0  0  0  0  0  0  0  0
  -17.8074  -26.8123   22.8034 C   0  0  0  0  0  0  0  0  0  0  0  0
  -30.5407  -26.9227   18.4931 C   0  0  0  0  0  0  0  0  0  0  0  0
  -30.8575  -28.5405   20.2594 C   0  0  0  0  0  0  0  0  0  0  0  0
  -22.5989  -19.9230   20.6931 C   0  0  0  0  0  0  0  0  0  0  0  0
  -17.1253  -25.6019   22.7621 C   0  0  0  0  0  0  0  0  0  0  0  0
  -34.4778  -28.8655   20.1831 C   0  0  0  0  0  0  0  0  0  0  0  0
  -35.3829  -28.8350   21.2440 C   0  0  0  0  0  0  0  0  0  0  0  0
  -24.5842  -20.3950   21.9796 C   0  0  0  0  0  0  0  0  0  0  0  0
  -34.5389  -26.6688   21.9017 C   0  0  0  0  0  0  0  0  0  0  0  0
  -28.6597  -27.6324   19.8329 C   0  0  0  0  0  0  0  0  0  0  0  0
  -19.1304  -24.4477   23.4955 C   0  0  0  0  0  0  0  0  0  0  0  0
  -26.6290  -26.6933   21.0584 C   0  0  0  0  0  0  0  0  0  0  0  0
  -24.1375  -12.1953   20.0925 C   0  0  0  0  0  0  0  0  0  0  0  0
  -24.6906  -18.8184   20.1459 C   0  0  0  0  0  0  0  0  0  0  0  0
  -24.1160  -13.4293   20.7701 C   0  0  0  0  0  0  0  0  0  0  0  0
  -25.3290  -19.5100   21.1852 C   0  0  0  0  0  0  0  0  0  0  0  0
  -19.8360  -25.6661   23.5379 C   0  0  0  0  0  0  0  0  0  0  0  0
  -19.1481  -26.8413   23.1877 C   0  0  0  0  0  0  0  0  0  0  0  0
  -31.3789  -27.7646   19.2240 C   0  0  0  0  0  0  0  0  0  0  0  0
  -23.2262  -20.5988   21.7356 C   0  0  0  0  0  0  0  0  0  0  0  0
  -17.7814  -24.4218   23.1075 C   0  0  0  0  0  0  0  0  0  0  0  0
  -33.6032  -27.7978   19.9816 C   0  0  0  0  0  0  0  0  0  0  0  0
  -35.4135  -27.7366   22.1033 C   0  0  0  0  0  0  0  0  0  0  0  0
  -33.6338  -26.6994   20.8408 C   0  0  0  0  0  0  0  0  0  0  0  0
  -27.2552  -27.5650   20.1475 C   0  0  0  0  0  0  0  0  0  0  0  0
  -25.2981  -27.0265   20.9930 C   0  0  0  0  0  0  0  0  0  0  0  0
  -19.7866  -23.1596   23.8807 C   0  0  0  0  0  0  0  0  0  0  0  0
  -27.1993  -25.6736   21.8895 C   0  0  0  0  0  0  0  0  0  0  0  0
  -26.4415  -16.2943   20.9626 C   0  0  0  0  0  0  0  0  0  0  0  0
  -28.9102  -18.3492   20.5100 C   0  0  0  0  0  0  0  0  0  0  0  0
  -30.0101  -21.5782   20.4052 C   0  0  0  0  0  0  0  0  0  0  0  0
  -21.2430  -30.8569   20.8198 C   0  0  0  0  0  0  0  0  0  0  0  0
  -25.4103  -11.4033   19.9270 C   0  0  0  0  0  0  0  0  0  0  0  0
  -25.4693  -17.8822   19.2628 C   0  0  0  0  0  0  0  0  0  0  0  0
  -26.7943  -19.3233   21.4793 C   0  0  0  0  0  0  0  0  0  0  0  0
  -26.6748  -12.2293   20.1479 C   0  0  0  0  0  0  0  0  0  0  0  0
  -22.8015  -29.9871   17.7390 C   0  0  0  0  0  0  0  0  0  0  0  0
  -26.5467  -13.0741   21.4115 C   0  0  0  0  0  0  0  0  0  0  0  0
  -24.0500  -29.2134   18.1663 C   0  0  0  0  0  0  0  0  0  0  0  0
  -21.6909  -25.4729   25.3621 C   0  0  0  0  0  0  0  0  0  0  0  0
  -22.4924  -31.1340   18.6988 C   0  0  0  0  0  0  0  0  0  0  0  0
  -23.6376  -29.9700   20.5446 C   0  0  0  0  0  0  0  0  0  0  0  0
  -21.2814  -25.7193   23.9336 C   0  0  1  0  0  0  0  0  0  0  0  0
  -25.3838  -14.0669   21.2958 C   0  0  1  0  0  0  0  0  0  0  0  0
  -26.7324  -17.3449   19.9286 C   0  0  1  0  0  0  0  0  0  0  0  0
  -23.9577  -28.7689   19.6385 C   0  0  2  0  0  0  0  0  0  0  0  0
  -21.9062  -24.4088   24.3207 C   0  0  2  0  0  0  0  0  0  0  0  0
  -32.0868  -22.9413   20.0494 C   0  0  0  0  0  0  0  0  0  0  0  0
  -22.1633  -22.0931   26.2133 C   0  0  0  0  0  0  0  0  0  0  0  0
  -29.8625  -17.6268   23.3173 C   0  0  0  0  0  0  0  0  0  0  0  0
  -31.3249  -19.6584   23.2686 C   0  0  0  0  0  0  0  0  0  0  0  0
  -31.6850  -17.8247   21.6162 C   0  0  0  0  0  0  0  0  0  0  0  0
  -28.8563  -22.9311   18.0393 C   0  0  0  0  0  0  0  0  0  0  0  0
  -17.0463  -22.5693   21.8098 C   0  0  0  0  0  0  0  0  0  0  0  0
  -19.1547  -29.3177   22.8824 C   0  0  0  0  0  0  0  0  0  0  0  0
  -20.1166  -30.4902   23.0006 C   0  0  0  0  0  0  0  0  0  0  0  0
  -22.9380  -21.6111   23.8682 C   0  0  0  0  0  0  0  0  0  1  0  0
  -29.6631  -19.3245   21.3823 C   0  0  1  0  0  0  0  0  0  0  0  0
  -30.8645  -22.3189   19.3924 C   0  0  2  0  0  0  0  0  0  0  0  0
  -21.7449  -21.9641   24.7545 C   0  0  2  0  0  0  0  0  0  0  0  0
  -30.6058  -18.6108   22.3921 C   0  0  0  0  0  0  0  0  0  0  0  0
  -26.3930  -28.3898   19.5473 N   0  0  0  0  0  0  0  0  0  0  0  0
  -25.2114  -28.0379   20.0821 N   0  0  0  0  0  0  0  0  0  0  0  0
  -21.1262  -23.1921   24.3093 N   0  0  0  0  0  0  0  0  0  0  0  0
  -27.5112  -18.3927   20.5918 N   0  0  0  0  0  0  0  0  0  0  0  0
  -22.4167  -30.6452   20.0776 N   0  0  0  0  0  0  0  0  0  0  0  0
  -24.2053  -26.5501   21.6264 N   0  0  0  0  0  0  0  0  0  0  0  0
  -28.5838  -25.4627   21.8333 N   0  0  0  0  0  0  0  0  0  0  0  0
  -19.8069  -28.0953   23.2227 N   0  0  0  0  0  0  0  0  0  0  0  0
  -25.7625  -15.1952   20.4723 N   0  0  0  0  0  0  0  0  0  0  0  0
  -30.3439  -20.2422   20.4753 N   0  0  0  0  0  0  0  0  0  0  0  0
  -21.2525  -30.3562   22.1160 N   0  0  0  0  0  0  0  0  0  0  0  0
  -30.0755  -23.4043   18.7441 N   0  3  0  0  0  0  0  0  0  0  0  0
  -19.1488  -22.1088   23.8259 O   0  0  0  0  0  0  0  0  0  0  0  0
  -26.4997  -24.9592   22.6469 O   0  0  0  0  0  0  0  0  0  0  0  0
  -26.8074  -16.4673   22.1193 O   0  0  0  0  0  0  0  0  0  0  0  0
  -29.5400  -17.5822   19.7774 O   0  0  0  0  0  0  0  0  0  0  0  0
  -29.1365  -22.1303   21.0705 O   0  0  0  0  0  0  0  0  0  0  0  0
  -20.2577  -31.4436   20.3596 O   0  0  0  0  0  0  0  0  0  0  0  0
  -32.7057  -27.8292   18.9274 O   0  0  0  0  0  0  0  0  0  0  0  0
  -17.0442  -23.2753   23.0480 O   0  0  0  0  0  0  0  0  0  0  0  0
  -22.5167  -21.4613   22.5131 O   0  0  0  0  0  0  0  0  0  1  0  0
  -36.2838  -27.7067   23.1211 F   0  0  0  0  0  0  0  0  0  0  0  0
  -32.7968  -25.6701   20.6515 F   0  0  0  0  0  0  0  0  0  0  0  0
  1  2  1  0  0  0  0
  1  5  2  0  0  0  0
  2  6  2  0  0  0  0
  3  9  2  0  0  0  0
  3 17  1  0  0  0  0
  4 10  1  0  0  0  0
  4 17  2  0  0  0  0
  5 20  1  0  0  0  0
  6 22  1  0  0  0  0
  7 11  2  0  0  0  0
  7 21  1  0  0  0  0
  8 12  1  0  0  0  0
  8 25  2  0  0  0  0
  9 26  1  0  0  0  0
 10 26  2  0  0  0  0
 11 27  1  0  0  0  0
 12 28  2  0  0  0  0
 13 14  2  0  0  0  0
 13 29  1  0  0  0  0
 14 30  1  0  0  0  0
 15 23  1  0  0  0  0
 15 27  2  0  0  0  0
 16 30  2  0  0  0  0
 16 31  1  0  0  0  0
 17 32  1  0  0  0  0
 18 24  2  0  0  0  0
 18 28  1  0  0  0  0
 18 34  1  0  0  0  0
 19 32  1  0  0  0  0
 19 33  2  0  0  0  0
 19 35  1  0  0  0  0
 20 22  2  0  0  0  0
 20 40  1  0  0  0  0
 21 23  2  0  0  0  0
 21 41  1  0  0  0  0
 22 51  1  0  0  0  0
 23 42  1  0  0  0  0
 24 25  1  0  0  0  0
 24 50  1  0  0  0  0
 25 76  1  0  0  0  0
 26 87  1  0  0  0  0
 27 89  1  0  0  0  0
 28 88  1  0  0  0  0
 29 31  2  0  0  0  0
 29 87  1  0  0  0  0
 30 90  1  0  0  0  0
 31 91  1  0  0  0  0
 32 69  2  0  0  0  0
 33 70  1  0  0  0  0
 33 74  1  0  0  0  0
 34 71  1  0  0  0  0
 34 81  2  0  0  0  0
 35 75  1  0  0  0  0
 35 82  2  0  0  0  0
 36 52  1  0  0  0  0
 36 77  1  0  0  0  0
 36 83  2  0  0  0  0
 37 65  1  0  0  0  0
 37 72  1  0  0  0  0
 37 84  2  0  0  0  0
 38 66  1  0  0  0  0
 38 78  1  0  0  0  0
 38 85  2  0  0  0  0
 39 73  1  0  0  0  0
 39 79  1  0  0  0  0
 39 86  2  0  0  0  0
 40 43  1  0  0  0  0
 41 52  1  0  0  0  0
 42 72  1  0  0  0  0
 43 45  1  0  0  0  0
 44 46  1  0  0  0  0
 44 48  1  0  0  0  0
 45 51  1  0  0  0  0
 46 53  1  0  0  0  0
 47 50  1  0  0  0  0
 47 54  1  0  0  0  0
 48 73  1  0  0  0  0
 49 53  1  0  0  0  0
 49 73  1  0  0  0  0
 50 54  1  0  0  0  0
 51 77  1  0  0  0  0
 52 72  1  0  0  0  0
 53 70  1  0  0  0  0
 54 71  1  0  0  0  0
 55 66  1  0  0  0  0
 56 67  1  0  0  0  0
 57 68  1  0  0  0  0
 58 68  1  0  0  0  0
 59 68  1  0  0  0  0
 60 80  1  0  0  0  0
 61 88  1  0  0  0  0
 62 63  1  0  0  0  0
 62 76  1  0  0  0  0
 63 79  1  0  0  0  0
 64 67  1  0  0  0  0
 64 89  1  0  0  0  0
 65 68  1  0  0  0  0
 65 78  1  0  0  0  0
 66 80  1  0  0  0  0
 67 71  1  0  0  0  0
 69 70  1  0  0  0  0
M  CHG  1  80   1
M  ISO  4  39 100  64 101  79 100  89 101
M  END
> <Batch ID>
0155

> <Smiles>
CNC(C)C(=O)NC(C(=O)N1Cc2cc([101O:1][101CH2:1]C(C)N3C(=O)c4c(OC)ccc(NCC[100NH:0][100C:0](=O)N5CCCC(n6nc(-c7ccc(Oc8ccc(F)cc8F)cc7)c(C(N)=O)c6N)C5)c4C4CC43)ccc2CC1C(=O)NC1CCCc2ccccc21)C(C)(C)C

> <Shape>
0.224

> <Color>
0.057

> <Negative vol penalty>
0.000

$$$$

  -OEChem-04052321543D

 95105  0     1  0  0  0  0  0999 V2000
  -28.2718  -38.1638   25.0970 C   0  0  0  0  0  0  0  0  0  0  0  0
  -28.8004  -36.8802   25.1870 C   0  0  0  0  0  0  0  0  0  0  0  0
  -23.7619   -9.7526   22.1595 C   0  0  0  0  0  0  0  0  0  0  0  0
  -23.3644   -9.4147   19.8005 C   0  0  0  0  0  0  0  0  0  0  0  0
  -26.9012  -38.3647   25.2550 C   0  0  0  0  0  0  0  0  0  0  0  0
  -27.9588  -35.7966   25.4361 C   0  0  0  0  0  0  0  0  0  0  0  0
  -28.5412  -30.1044   23.2532 C   0  0  0  0  0  0  0  0  0  0  0  0
  -28.6646  -26.2416   21.1453 C   0  0  0  0  0  0  0  0  0  0  0  0
  -29.5793  -25.2100   21.3565 C   0  0  0  0  0  0  0  0  0  0  0  0
  -22.8416   -8.7480   22.4585 C   0  0  0  0  0  0  0  0  0  0  0  0
  -22.4441   -8.4101   20.0995 C   0  0  0  0  0  0  0  0  0  0  0  0
  -29.0684  -28.9376   23.8049 C   0  0  0  0  0  0  0  0  0  0  0  0
  -22.7683   -5.3677   22.4961 C   0  0  0  0  0  0  0  0  0  0  0  0
  -23.1255   -4.4283   23.4633 C   0  0  0  0  0  0  0  0  0  0  0  0
  -26.8520  -28.2595   24.4736 C   0  0  0  0  0  0  0  0  0  0  0  0
  -26.8406  -24.6906   21.4688 C   0  0  0  0  0  0  0  0  0  0  0  0
  -21.2230   -5.0824   24.8011 C   0  0  0  0  0  0  0  0  0  0  0  0
  -24.0232  -10.0860   20.8305 C   0  0  0  0  0  0  0  0  0  0  0  0
  -26.3570  -10.9744   20.3091 C   0  0  0  0  0  0  0  0  0  0  0  0
  -26.0410  -37.2819   25.4966 C   0  0  0  0  0  0  0  0  0  0  0  0
  -27.1644  -30.3631   23.3173 C   0  0  0  0  0  0  0  0  0  0  0  0
  -26.5756  -35.9834   25.5988 C   0  0  0  0  0  0  0  0  0  0  0  0
  -26.3095  -29.4291   23.9197 C   0  0  0  0  0  0  0  0  0  0  0  0
  -27.2952  -25.9819   21.2016 C   0  0  0  0  0  0  0  0  0  0  0  0
  -29.1247  -23.9186   21.6238 C   0  0  0  0  0  0  0  0  0  0  0  0
  -22.1827   -8.0767   21.4285 C   0  0  0  0  0  0  0  0  0  0  0  0
  -28.2242  -28.0163   24.4178 C   0  0  0  0  0  0  0  0  0  0  0  0
  -21.6385   -6.1645   22.6814 C   0  0  0  0  0  0  0  0  0  0  0  0
  -27.7553  -23.6589   21.6800 C   0  0  0  0  0  0  0  0  0  0  0  0
  -22.3529   -4.2856   24.6158 C   0  0  0  0  0  0  0  0  0  0  0  0
  -20.8658   -6.0218   23.8339 C   0  0  0  0  0  0  0  0  0  0  0  0
  -24.9734  -11.1241   20.5210 C   0  0  0  0  0  0  0  0  0  0  0  0
  -26.8044  -12.2470   20.0506 C   0  0  0  0  0  0  0  0  0  0  0  0
  -27.1656   -9.7908   20.3428 C   0  0  0  0  0  0  0  0  0  0  0  0
  -25.3665  -32.6259   24.6406 C   0  0  0  0  0  0  0  0  0  0  0  0
  -22.9743  -31.0976   23.0709 C   0  0  0  0  0  0  0  0  0  0  0  0
  -21.8158  -28.2174   21.6534 C   0  0  0  0  0  0  0  0  0  0  0  0
  -27.0409  -17.5209   21.0216 C   0  0  0  0  0  0  0  0  0  0  0  0
  -24.5727  -37.5543   25.7075 C   0  0  0  0  0  0  0  0  0  0  0  0
  -26.6081  -31.6138   22.6938 C   0  0  0  0  0  0  0  0  0  0  0  0
  -24.8217  -29.6501   23.9967 C   0  0  0  0  0  0  0  0  0  0  0  0
  -23.6998  -36.3069   25.5965 C   0  0  0  0  0  0  0  0  0  0  0  0
  -24.2678  -16.5148   19.1190 C   0  0  0  0  0  0  0  0  0  0  0  0
  -24.3096  -35.1562   26.3907 C   0  0  0  0  0  0  0  0  0  0  0  0
  -31.9258  -21.9124   23.5177 C   0  0  0  0  0  0  0  0  0  0  0  0
  -24.3125  -14.9973   19.2965 C   0  0  0  0  0  0  0  0  0  0  0  0
  -31.6416  -22.3307   24.9763 C   0  0  0  0  0  0  0  0  0  0  0  0
  -27.3434  -21.0510   19.9289 C   0  0  0  0  0  0  0  0  0  0  0  0
  -25.4477  -20.8637   21.5964 C   0  0  0  0  0  0  0  0  0  0  0  0
  -24.5948  -17.2535   20.4179 C   0  0  0  0  0  0  0  0  0  0  0  0
  -27.9330  -19.7586   20.4913 C   0  0  0  0  0  0  0  0  0  0  0  0
  -26.0823  -19.5785   22.1228 C   0  0  0  0  0  0  0  0  0  0  0  0
  -25.9168  -15.3222   21.2171 C   0  0  0  0  0  0  0  0  0  0  0  0
  -25.6917  -34.7796   25.8433 C   0  0  1  0  0  0  0  0  0  0  0  0
  -25.2551  -32.0182   23.2709 C   0  0  1  0  0  0  0  0  0  0  0  0
  -31.0064  -23.0820   23.0773 C   0  0  2  0  0  0  0  0  0  0  0  0
  -25.6501  -14.5523   19.9143 C   0  0  1  0  0  0  0  0  0  0  0  0
  -30.3208  -22.9474   24.4648 C   0  0  2  0  0  0  0  0  0  0  0  0
  -26.4727  -21.7928   20.9437 C   0  0  0  0  0  0  0  0  0  0  0  0
  -26.3176  -27.0856   20.9764 C   0  0  0  0  0  0  0  0  0  0  0  0
  -30.9990  -22.5732   20.6083 C   0  0  0  0  0  0  0  0  0  0  0  0
  -20.2754  -26.7114   20.3664 C   0  0  0  0  0  0  0  0  0  0  0  0
  -21.5033  -30.9248   25.7385 C   0  0  0  0  0  0  0  0  0  0  0  0
  -20.0165  -29.1831   24.7265 C   0  0  0  0  0  0  0  0  0  0  0  0
  -20.0524  -31.4916   23.7820 C   0  0  0  0  0  0  0  0  0  0  0  0
  -23.1170  -28.8913   19.0821 C   0  0  0  0  0  0  0  0  0  0  0  0
  -29.3390  -24.1493   26.4218 C   0  0  0  0  0  0  0  0  0  0  0  0
  -28.0464  -26.3236   26.0788 C   0  0  0  0  0  0  0  0  0  1  0  0
  -30.1181  -22.8266   21.8457 C   0  0  2  0  0  0  0  0  0  0  0  0
  -22.0316  -29.9655   23.4005 C   0  0  1  0  0  0  0  0  0  0  0  0
  -21.1581  -27.9487   20.3119 C   0  0  2  0  0  0  0  0  0  0  0  0
  -29.0275  -25.5455   26.9611 C   0  0  1  0  0  0  0  0  0  0  0  0
  -20.9292  -30.3877   24.4123 C   0  0  0  0  0  0  0  0  0  0  0  0
  -24.5685  -12.3918   20.4072 N   0  0  0  0  0  0  0  0  0  0  0  0
  -25.7045  -13.0503   20.1210 N   0  0  0  0  0  0  0  0  0  0  0  0
  -24.3266  -30.8910   23.3782 N   0  0  0  0  0  0  0  0  0  0  0  0
  -25.8578  -16.7675   20.9893 N   0  0  0  0  0  0  0  0  0  0  0  0
  -26.9029  -18.9171   21.0994 N   0  0  0  0  0  0  0  0  0  0  0  0
  -28.0275  -12.7460   19.7723 N   0  0  0  0  0  0  0  0  0  0  0  0
  -26.5454   -8.5657   20.6235 N   0  0  0  0  0  0  0  0  0  0  0  0
  -28.4459  -25.3961   28.3004 N   0  0  0  0  0  0  0  0  0  0  0  0
  -25.5599  -33.9941   24.6350 N   0  0  0  0  0  0  0  0  0  0  0  0
  -21.5172  -29.4782   22.1252 N   0  0  0  0  0  0  0  0  0  0  0  0
  -30.0006  -24.2382   25.0839 N   0  3  0  0  0  0  0  0  0  0  0  0
  -22.1930  -27.7417   19.2598 N   0  3  0  0  0  0  0  0  0  0  0  0
  -28.4041   -9.8211   20.1465 O   0  0  0  0  0  0  0  0  0  0  0  0
  -25.2817  -31.9069   25.6293 O   0  0  0  0  0  0  0  0  0  0  0  0
  -22.5283  -32.1246   22.5531 O   0  0  0  0  0  0  0  0  0  0  0  0
  -22.5207  -27.3902   22.2273 O   0  0  0  0  0  0  0  0  0  0  0  0
  -28.1539  -16.9819   20.9799 O   0  0  0  0  0  0  0  0  0  0  0  0
  -21.2848   -7.0962   21.7198 O   0  0  0  0  0  0  0  0  0  0  0  0
  -27.2918  -22.3967   21.9425 O   0  0  0  0  0  0  0  0  0  0  0  0
  -28.7395  -26.8698   24.9611 O   0  0  0  0  0  0  0  0  0  1  0  0
  -22.6951   -3.3824   25.5438 F   0  0  0  0  0  0  0  0  0  0  0  0
  -19.7787   -6.7837   24.0169 F   0  0  0  0  0  0  0  0  0  0  0  0
  1  2  1  0  0  0  0
  1  5  2  0  0  0  0
  2  6  2  0  0  0  0
  3 10  2  0  0  0  0
  3 18  1  0  0  0  0
  4 11  1  0  0  0  0
  4 18  2  0  0  0  0
  5 20  1  0  0  0  0
  6 22  1  0  0  0  0
  7 12  2  0  0  0  0
  7 21  1  0  0  0  0
  8  9  2  0  0  0  0
  8 24  1  0  0  0  0
  9 25  1  0  0  0  0
 10 26  1  0  0  0  0
 11 26  2  0  0  0  0
 12 27  1  0  0  0  0
 13 14  2  0  0  0  0
 13 28  1  0  0  0  0
 14 30  1  0  0  0  0
 15 23  1  0  0  0  0
 15 27  2  0  0  0  0
 16 24  2  0  0  0  0
 16 29  1  0  0  0  0
 17 30  2  0  0  0  0
 17 31  1  0  0  0  0
 18 32  1  0  0  0  0
 19 32  1  0  0  0  0
 19 33  2  0  0  0  0
 19 34  1  0  0  0  0
 20 22  2  0  0  0  0
 20 39  1  0  0  0  0
 21 23  2  0  0  0  0
 21 40  1  0  0  0  0
 22 54  1  0  0  0  0
 23 41  1  0  0  0  0
 24 60  1  0  0  0  0
 25 29  2  0  0  0  0
 25 69  1  0  0  0  0
 26 91  1  0  0  0  0
 27 93  1  0  0  0  0
 28 31  2  0  0  0  0
 28 91  1  0  0  0  0
 29 92  1  0  0  0  0
 30 94  1  0  0  0  0
 31 95  1  0  0  0  0
 32 74  2  0  0  0  0
 33 75  1  0  0  0  0
 33 79  1  0  0  0  0
 34 80  1  0  0  0  0
 34 86  2  0  0  0  0
 35 55  1  0  0  0  0
 35 82  1  0  0  0  0
 35 87  2  0  0  0  0
 36 70  1  0  0  0  0
 36 76  1  0  0  0  0
 36 88  2  0  0  0  0
 37 71  1  0  0  0  0
 37 83  1  0  0  0  0
 37 89  2  0  0  0  0
 38 77  1  0  0  0  0
 38 78  1  0  0  0  0
 38 90  2  0  0  0  0
 39 42  1  0  0  0  0
 40 55  1  0  0  0  0
 41 76  1  0  0  0  0
 42 44  1  0  0  0  0
 43 46  1  0  0  0  0
 43 50  1  0  0  0  0
 44 54  1  0  0  0  0
 45 47  1  0  0  0  0
 45 56  1  0  0  0  0
 46 57  1  0  0  0  0
 47 58  1  0  0  0  0
 48 51  1  0  0  0  0
 48 59  1  0  0  0  0
 49 52  1  0  0  0  0
 49 59  1  0  0  0  0
 50 77  1  0  0  0  0
 51 78  1  0  0  0  0
 52 78  1  0  0  0  0
 53 57  1  0  0  0  0
 53 77  1  0  0  0  0
 54 82  1  0  0  0  0
 55 76  1  0  0  0  0
 56 58  1  0  0  0  0
 56 69  1  0  0  0  0
 57 75  1  0  0  0  0
 58 84  1  0  0  0  0
 59 92  1  0  0  0  0
 61 69  1  0  0  0  0
 62 71  1  0  0  0  0
 63 73  1  0  0  0  0
 64 73  1  0  0  0  0
 65 73  1  0  0  0  0
 66 85  1  0  0  0  0
 67 72  1  0  0  0  0
 67 84  1  0  0  0  0
 68 72  1  0  0  0  0
 68 93  1  0  0  0  0
 70 73  1  0  0  0  0
 70 83  1  0  0  0  0
 71 85  1  0  0  0  0
 72 81  1  0  0  0  0
 74 75  1  0  0  0  0
M  CHG  2  84   1  85   1
M  ISO  4  38 100  68 101  78 100  93 101
M  END
> <Batch ID>
0155

> <Smiles>
CNC(C)C(=O)NC(C(=O)N1Cc2cc([101O:1][101CH2:1]C(N)CNC3CCC3C(C)c3ccc(C)cc3OC3CC[100N:0]([100C:0](=O)N4CCCC(n5nc(-c6ccc(Oc7ccc(F)cc7F)cc6)c(C(N)=O)c5N)C4)CC3)ccc2CC1C(=O)NC1CCCc2ccccc21)C(C)(C)C

> <Shape>
0.288

> <Color>
0.090

> <Negative vol penalty>
0.000

$$$$

  -OEChem-04052321543D

 93103  0     1  0  0  0  0  0999 V2000
  -16.4347  -32.5757   22.8484 C   0  0  0  0  0  0  0  0  0  0  0  0
  -17.7886  -32.8861   22.7706 C   0  0  0  0  0  0  0  0  0  0  0  0
  -23.9479  -12.3963   19.2718 C   0  0  0  0  0  0  0  0  0  0  0  0
  -24.8290  -11.5877   21.3710 C   0  0  0  0  0  0  0  0  0  0  0  0
  -16.0353  -31.2765   23.1590 C   0  0  0  0  0  0  0  0  0  0  0  0
  -18.7439  -31.8975   23.0044 C   0  0  0  0  0  0  0  0  0  0  0  0
  -24.1969  -31.3286   20.2755 C   0  0  0  0  0  0  0  0  0  0  0  0
  -23.7745  -11.0820   18.8382 C   0  0  0  0  0  0  0  0  0  0  0  0
  -24.6555  -10.2733   20.9375 C   0  0  0  0  0  0  0  0  0  0  0  0
  -25.4840  -31.6957   20.6658 C   0  0  0  0  0  0  0  0  0  0  0  0
  -22.1148   -8.0650   20.6403 C   0  0  0  0  0  0  0  0  0  0  0  0
  -21.5458   -7.1588   21.5351 C   0  0  0  0  0  0  0  0  0  0  0  0
  -25.8657  -29.4602   21.4881 C   0  0  0  0  0  0  0  0  0  0  0  0
  -30.8699  -26.2468   18.7903 C   0  0  0  0  0  0  0  0  0  0  0  0
  -23.5376   -5.7962   21.4217 C   0  0  0  0  0  0  0  0  0  0  0  0
  -32.1506  -24.6517   17.5770 C   0  0  0  0  0  0  0  0  0  0  0  0
  -24.4752  -12.6492   20.5382 C   0  0  0  0  0  0  0  0  0  0  0  0
  -23.7257  -14.8021   21.6830 C   0  0  0  0  0  0  0  0  0  0  0  0
  -16.9861  -30.2693   23.3872 C   0  0  0  0  0  0  0  0  0  0  0  0
  -23.7299  -30.0253   20.4987 C   0  0  0  0  0  0  0  0  0  0  0  0
  -18.3568  -30.5840   23.3197 C   0  0  0  0  0  0  0  0  0  0  0  0
  -24.5732  -29.0784   21.0973 C   0  0  0  0  0  0  0  0  0  0  0  0
  -31.8073  -27.2148   18.4476 C   0  0  0  0  0  0  0  0  0  0  0  0
  -24.1283  -10.0204   19.6711 C   0  0  0  0  0  0  0  0  0  0  0  0
  -26.3176  -30.7622   21.2749 C   0  0  0  0  0  0  0  0  0  0  0  0
  -23.3952   -7.8367   20.1361 C   0  0  0  0  0  0  0  0  0  0  0  0
  -31.0375  -24.9383   18.3507 C   0  0  0  0  0  0  0  0  0  0  0  0
  -22.2572   -6.0244   21.9258 C   0  0  0  0  0  0  0  0  0  0  0  0
  -24.1066   -6.7024   20.5269 C   0  0  0  0  0  0  0  0  0  0  0  0
  -24.6551  -14.0067   20.9864 C   0  0  0  0  0  0  0  0  0  0  0  0
  -32.8860  -26.8262   17.6697 C   0  0  0  0  0  0  0  0  0  0  0  0
  -24.3725  -15.9987   21.8735 C   0  0  0  0  0  0  0  0  0  0  0  0
  -22.3966  -14.4875   22.1191 C   0  0  0  0  0  0  0  0  0  0  0  0
  -21.3598  -28.7509   22.1905 C   0  0  0  0  0  0  0  0  0  0  0  0
  -22.3144  -26.0131   20.7359 C   0  0  0  0  0  0  0  0  0  0  0  0
  -24.8089  -24.2719   19.1892 C   0  0  0  0  0  0  0  0  0  0  0  0
  -27.3798  -20.1245   20.2159 C   0  0  0  0  0  0  0  0  0  0  0  0
  -16.5064  -28.8906   23.7663 C   0  0  0  0  0  0  0  0  0  0  0  0
  -22.3484  -29.6378   20.0476 C   0  0  0  0  0  0  0  0  0  0  0  0
  -24.1268  -27.6607   21.3410 C   0  0  0  0  0  0  0  0  0  0  0  0
  -17.5800  -27.8138   23.6316 C   0  0  0  0  0  0  0  0  0  0  0  0
  -29.2074  -17.2872   21.1809 C   0  0  0  0  0  0  0  0  0  0  0  0
  -18.8898  -28.2849   24.2555 C   0  0  0  0  0  0  0  0  0  0  0  0
  -28.1045  -16.2330   21.2740 C   0  0  0  0  0  0  0  0  0  0  0  0
  -29.9231  -22.7653   20.7683 C   0  0  0  0  0  0  0  0  0  0  0  0
  -30.4415  -21.5616   18.6022 C   0  0  0  0  0  0  0  0  0  0  0  0
  -30.3311  -29.2149   18.3599 C   0  0  0  0  0  0  0  0  0  0  0  0
  -31.6465  -28.6808   20.4507 C   0  0  0  0  0  0  0  0  0  0  0  0
  -29.0195  -18.2081   19.9742 C   0  0  0  0  0  0  0  0  0  0  0  0
  -28.4752  -22.2900   20.6571 C   0  0  0  0  0  0  0  0  0  0  0  0
  -28.9820  -21.1173   18.5388 C   0  0  0  0  0  0  0  0  0  0  0  0
  -26.5821  -17.7895   19.9982 C   0  0  0  0  0  0  0  0  0  0  0  0
  -30.0873  -30.6240   18.8849 C   0  0  0  0  0  0  0  0  0  0  0  0
  -31.3929  -30.0941   20.9595 C   0  0  0  0  0  0  0  0  0  0  0  0
  -31.6383  -28.6193   18.9128 C   0  0  0  0  0  0  0  0  0  0  0  0
  -19.4230  -29.5333   23.5423 C   0  0  1  0  0  0  0  0  0  0  0  0
  -21.7956  -28.4251   20.7899 C   0  0  1  0  0  0  0  0  0  0  0  0
  -26.7114  -16.8859   21.2344 C   0  0  1  0  0  0  0  0  0  0  0  0
  -30.6229  -22.8471   19.4112 C   0  0  0  0  0  0  0  0  0  0  0  0
  -25.3008  -22.0442   18.1439 C   0  0  0  0  0  0  0  0  0  0  0  0
  -22.5275  -24.7612   23.5103 C   0  0  0  0  0  0  0  0  0  0  0  0
  -23.8944  -22.9232   22.4995 C   0  0  0  0  0  0  0  0  0  0  0  0
  -21.5354  -23.2689   21.7658 C   0  0  0  0  0  0  0  0  0  0  0  0
  -25.3781  -25.5019   16.5582 C   0  0  0  0  0  0  0  0  0  0  0  0
  -34.9122  -27.2846   16.5120 C   0  0  0  0  0  0  0  0  0  0  0  0
  -29.7265  -31.9483   20.9660 C   0  0  0  0  0  0  0  0  0  0  0  0
  -28.2236  -32.1330   20.8950 C   0  0  0  0  0  0  0  0  0  1  0  0
  -23.3097  -24.9239   21.0551 C   0  0  1  0  0  0  0  0  0  0  0  0
  -24.8278  -23.4690   17.9010 C   0  0  2  0  0  0  0  0  0  0  0  0
  -22.8248  -23.9964   22.2050 C   0  0  0  0  0  0  0  0  0  0  0  0
  -33.0825  -25.5651   17.2239 N   0  0  0  0  0  0  0  0  0  0  0  0
  -25.8047  -14.6443   20.7501 N   0  0  0  0  0  0  0  0  0  0  0  0
  -25.6019  -15.8531   21.3013 N   0  0  0  0  0  0  0  0  0  0  0  0
  -22.7651  -27.3321   20.8878 N   0  0  0  0  0  0  0  0  0  0  0  0
  -27.6644  -18.7751   19.9582 N   0  0  0  0  0  0  0  0  0  0  0  0
  -28.3715  -21.0593   19.8738 N   0  0  0  0  0  0  0  0  0  0  0  0
  -24.0038  -17.1508   22.4728 N   0  0  0  0  0  0  0  0  0  0  0  0
  -21.8866  -13.2120   21.8410 N   0  0  0  0  0  0  0  0  0  0  0  0
  -20.0469  -29.1710   22.2878 N   0  0  0  0  0  0  0  0  0  0  0  0
  -23.5728  -24.2304   19.7988 N   0  0  0  0  0  0  0  0  0  0  0  0
  -30.0892  -30.6051   20.3947 N   0  3  0  0  0  0  0  0  0  0  0  0
  -25.7397  -24.1041   16.9081 N   0  3  0  0  0  0  0  0  0  0  0  0
  -21.6764  -15.3185   22.7227 O   0  0  0  0  0  0  0  0  0  0  0  0
  -22.1552  -28.6287   23.1146 O   0  0  0  0  0  0  0  0  0  0  0  0
  -21.1811  -25.7051   20.3587 O   0  0  0  0  0  0  0  0  0  0  0  0
  -25.7934  -24.8726   19.6142 O   0  0  0  0  0  0  0  0  0  0  0  0
  -26.3074  -20.4752   20.7239 O   0  0  0  0  0  0  0  0  0  0  0  0
  -23.9590   -8.7377   19.2485 O   0  0  0  0  0  0  0  0  0  0  0  0
  -30.1305  -23.9634   18.6731 O   0  0  0  0  0  0  0  0  0  0  0  0
  -27.5832  -31.1206   21.6602 O   0  0  0  0  0  0  0  0  0  1  0  0
  -33.8318  -27.7513   17.3109 O   0  0  0  0  0  0  0  0  0  0  0  0
  -21.7112   -5.1551   22.7863 F   0  0  0  0  0  0  0  0  0  0  0  0
  -25.3375   -6.4783   20.0468 F   0  0  0  0  0  0  0  0  0  0  0  0
  1  2  1  0  0  0  0
  1  5  2  0  0  0  0
  2  6  2  0  0  0  0
  3  8  2  0  0  0  0
  3 17  1  0  0  0  0
  4  9  1  0  0  0  0
  4 17  2  0  0  0  0
  5 19  1  0  0  0  0
  6 21  1  0  0  0  0
  7 10  2  0  0  0  0
  7 20  1  0  0  0  0
  8 24  1  0  0  0  0
  9 24  2  0  0  0  0
 10 25  1  0  0  0  0
 11 12  2  0  0  0  0
 11 26  1  0  0  0  0
 12 28  1  0  0  0  0
 13 22  1  0  0  0  0
 13 25  2  0  0  0  0
 14 23  1  0  0  0  0
 14 27  2  0  0  0  0
 15 28  2  0  0  0  0
 15 29  1  0  0  0  0
 16 27  1  0  0  0  0
 16 71  2  0  0  0  0
 17 30  1  0  0  0  0
 18 30  1  0  0  0  0
 18 32  2  0  0  0  0
 18 33  1  0  0  0  0
 19 21  2  0  0  0  0
 19 38  1  0  0  0  0
 20 22  2  0  0  0  0
 20 39  1  0  0  0  0
 21 56  1  0  0  0  0
 22 40  1  0  0  0  0
 23 31  2  0  0  0  0
 23 55  1  0  0  0  0
 24 88  1  0  0  0  0
 25 90  1  0  0  0  0
 26 29  2  0  0  0  0
 26 88  1  0  0  0  0
 27 89  1  0  0  0  0
 28 92  1  0  0  0  0
 29 93  1  0  0  0  0
 30 72  2  0  0  0  0
 31 71  1  0  0  0  0
 31 91  1  0  0  0  0
 32 73  1  0  0  0  0
 32 77  1  0  0  0  0
 33 78  1  0  0  0  0
 33 83  2  0  0  0  0
 34 57  1  0  0  0  0
 34 79  1  0  0  0  0
 34 84  2  0  0  0  0
 35 68  1  0  0  0  0
 35 74  1  0  0  0  0
 35 85  2  0  0  0  0
 36 69  1  0  0  0  0
 36 80  1  0  0  0  0
 36 86  2  0  0  0  0
 37 75  1  0  0  0  0
 37 76  1  0  0  0  0
 37 87  2  0  0  0  0
 38 41  1  0  0  0  0
 39 57  1  0  0  0  0
 40 74  1  0  0  0  0
 41 43  1  0  0  0  0
 42 44  1  0  0  0  0
 42 49  1  0  0  0  0
 43 56  1  0  0  0  0
 44 58  1  0  0  0  0
 45 50  1  0  0  0  0
 45 59  1  0  0  0  0
 46 51  1  0  0  0  0
 46 59  1  0  0  0  0
 47 53  1  0  0  0  0
 47 55  1  0  0  0  0
 48 54  1  0  0  0  0
 48 55  1  0  0  0  0
 49 75  1  0  0  0  0
 50 76  1  0  0  0  0
 51 76  1  0  0  0  0
 52 58  1  0  0  0  0
 52 75  1  0  0  0  0
 53 81  1  0  0  0  0
 54 81  1  0  0  0  0
 56 79  1  0  0  0  0
 57 74  1  0  0  0  0
 58 73  1  0  0  0  0
 59 89  1  0  0  0  0
 60 69  1  0  0  0  0
 61 70  1  0  0  0  0
 62 70  1  0  0  0  0
 63 70  1  0  0  0  0
 64 82  1  0  0  0  0
 65 91  1  0  0  0  0
 66 67  1  0  0  0  0
 66 81  1  0  0  0  0
 67 90  1  0  0  0  0
 68 70  1  0  0  0  0
 68 80  1  0  0  0  0
 69 82  1  0  0  0  0
 72 73  1  0  0  0  0
M  CHG  2  81   1  82   1
M  ISO  4  37 100  67 101  76 100  90 101
M  END
> <Batch ID>
0155

> <Smiles>
CNC(C)C(=O)NC(C(=O)N1Cc2cc([101O:1][101CH2:1]CN3CCC(c4cc(OC5CC[100N:0]([100C:0](=O)N6CCCC(n7nc(-c8ccc(Oc9ccc(F)cc9F)cc8)c(C(N)=O)c7N)C6)CC5)cnc4OC)CC3)ccc2CC1C(=O)NC1CCCc2ccccc21)C(C)(C)C

> <Shape>
0.266

> <Color>
0.066

> <Negative vol penalty>
0.000

$$$$

  -OEChem-04052321543D

 97107  0     1  0  0  0  0  0999 V2000
  -27.4571  -33.1636   27.6636 C   0  0  0  0  0  0  0  0  0  0  0  0
  -27.8925  -32.3526   26.6205 C   0  0  0  0  0  0  0  0  0  0  0  0
  -22.0495  -13.3212   19.8153 C   0  0  0  0  0  0  0  0  0  0  0  0
  -23.0998  -15.1550   20.9862 C   0  0  0  0  0  0  0  0  0  0  0  0
  -26.1418  -33.0693   28.1162 C   0  0  0  0  0  0  0  0  0  0  0  0
  -27.0129  -31.4460   26.0299 C   0  0  0  0  0  0  0  0  0  0  0  0
  -26.8429  -29.7870   20.1371 C   0  0  0  0  0  0  0  0  0  0  0  0
  -20.9406  -13.4197   20.6558 C   0  0  0  0  0  0  0  0  0  0  0  0
  -21.9910  -15.2535   21.8266 C   0  0  0  0  0  0  0  0  0  0  0  0
  -27.3504  -28.6794   19.4595 C   0  0  0  0  0  0  0  0  0  0  0  0
  -18.2065  -15.3868   20.9521 C   0  0  0  0  0  0  0  0  0  0  0  0
  -16.9420  -15.3371   20.3654 C   0  0  0  0  0  0  0  0  0  0  0  0
  -32.1445  -18.2552   17.8979 C   0  0  0  0  0  0  0  0  0  0  0  0
  -25.2038  -27.5935   19.6389 C   0  0  0  0  0  0  0  0  0  0  0  0
  -29.9092  -18.7381   16.3000 C   0  0  0  0  0  0  0  0  0  0  0  0
  -16.4122  -13.3762   21.6736 C   0  0  0  0  0  0  0  0  0  0  0  0
  -23.1291  -14.1888   19.9805 C   0  0  0  0  0  0  0  0  0  0  0  0
  -24.2966  -14.2301   17.7127 C   0  0  0  0  0  0  0  0  0  0  0  0
  -25.2429  -32.1679   27.5244 C   0  0  0  0  0  0  0  0  0  0  0  0
  -25.5128  -29.8018   20.5811 C   0  0  0  0  0  0  0  0  0  0  0  0
  -25.6846  -31.3386   26.4758 C   0  0  0  0  0  0  0  0  0  0  0  0
  -30.9043  -18.4975   18.4884 C   0  0  0  0  0  0  0  0  0  0  0  0
  -24.6810  -28.7037   20.3196 C   0  0  0  0  0  0  0  0  0  0  0  0
  -32.2671  -18.2544   16.5084 C   0  0  0  0  0  0  0  0  0  0  0  0
  -29.7866  -18.7389   17.6895 C   0  0  0  0  0  0  0  0  0  0  0  0
  -31.1495  -18.4958   15.7094 C   0  0  0  0  0  0  0  0  0  0  0  0
  -20.9113  -14.3858   21.6614 C   0  0  0  0  0  0  0  0  0  0  0  0
  -26.5317  -27.5812   19.2128 C   0  0  0  0  0  0  0  0  0  0  0  0
  -18.5739  -14.4312   21.8994 C   0  0  0  0  0  0  0  0  0  0  0  0
  -16.0449  -14.3318   20.7262 C   0  0  0  0  0  0  0  0  0  0  0  0
  -17.6768  -13.4259   22.2602 C   0  0  0  0  0  0  0  0  0  0  0  0
  -24.2751  -14.0872   19.1130 C   0  0  0  0  0  0  0  0  0  0  0  0
  -25.6134  -14.0452   17.3689 C   0  0  0  0  0  0  0  0  0  0  0  0
  -23.2223  -14.5055   16.8040 C   0  0  0  0  0  0  0  0  0  0  0  0
  -24.0978  -29.9965   23.4207 C   0  0  0  0  0  0  0  0  0  0  0  0
  -21.3987  -30.1661   21.6295 C   0  0  0  0  0  0  0  0  0  0  0  0
  -19.8344  -29.4802   18.6750 C   0  0  0  0  0  0  0  0  0  0  0  0
  -30.7483  -14.7536   20.3659 C   0  0  0  0  0  0  0  0  0  0  0  0
  -23.8440  -32.0682   28.0792 C   0  0  0  0  0  0  0  0  0  0  0  0
  -24.9729  -31.0153   21.2871 C   0  0  0  0  0  0  0  0  0  0  0  0
  -23.2402  -28.6782   20.7575 C   0  0  0  0  0  0  0  0  0  0  0  0
  -22.8704  -31.3470   27.1505 C   0  0  0  0  0  0  0  0  0  0  0  0
  -29.5749  -11.7777   18.8027 C   0  0  0  0  0  0  0  0  0  0  0  0
  -23.4947  -30.0617   26.6167 C   0  0  0  0  0  0  0  0  0  0  0  0
  -31.0491  -23.7405   17.8630 C   0  0  0  0  0  0  0  0  0  0  0  0
  -29.3515  -23.0964   19.6179 C   0  0  0  0  0  0  0  0  0  0  0  0
  -30.4449  -25.1418   17.7928 C   0  0  0  0  0  0  0  0  0  0  0  0
  -28.7473  -24.4977   19.5477 C   0  0  0  0  0  0  0  0  0  0  0  0
  -31.9595  -18.9771   22.0632 C   0  0  0  0  0  0  0  0  0  0  0  0
  -28.0855  -12.0450   18.5786 C   0  0  0  0  0  0  0  0  0  0  0  0
  -31.4839  -17.5222   22.0591 C   0  0  0  0  0  0  0  0  0  0  0  0
  -30.0662  -12.3854   20.1146 C   0  0  0  0  0  0  0  0  0  0  0  0
  -28.2869  -14.0896   20.0544 C   0  0  0  0  0  0  0  0  0  0  0  0
  -30.7973  -18.4926   19.9759 C   0  0  2  0  0  0  0  0  0  0  0  0
  -24.7534  -30.3603   25.7932 C   0  0  1  0  0  0  0  0  0  0  0  0
  -23.7492  -30.7117   22.1461 C   0  0  1  0  0  0  0  0  0  0  0  0
  -30.8384  -23.1007   19.2411 C   0  0  0  0  0  0  0  0  0  0  0  0
  -28.9580  -25.1375   18.1696 C   0  0  0  0  0  0  0  0  0  0  0  0
  -31.7480  -19.5124   20.6368 C   0  0  1  0  0  0  0  0  0  0  0  0
  -27.7578  -13.5439   18.7170 C   0  0  2  0  0  0  0  0  0  0  0  0
  -31.2762  -17.1682   20.5897 C   0  0  2  0  0  0  0  0  0  0  0  0
  -33.6052  -17.9935   15.8986 C   0  0  0  0  0  0  0  0  0  0  0  0
  -28.4486  -19.0001   18.2993 C   0  0  0  0  0  0  0  0  0  0  0  0
  -31.2567  -18.5008   14.2198 C   0  0  0  0  0  0  0  0  0  0  0  0
  -17.6172  -29.7050   17.5213 C   0  0  0  0  0  0  0  0  0  0  0  0
  -32.8831  -21.7099   18.8568 C   0  0  0  0  0  0  0  0  0  0  0  0
  -31.8095  -21.7324   21.7908 C   0  0  0  0  0  0  0  0  0  0  0  0
  -28.4708  -27.1616   16.7477 C   0  0  0  0  0  0  0  0  0  0  0  0
  -20.3065  -27.8446   23.2813 C   0  0  0  0  0  0  0  0  0  0  0  0
  -18.5628  -27.5015   21.5177 C   0  0  0  0  0  0  0  0  0  0  0  0
  -18.6443  -29.6468   22.7879 C   0  0  0  0  0  0  0  0  0  0  0  0
  -20.9869  -31.1734   16.5387 C   0  0  0  0  0  0  0  0  0  0  0  0
  -20.4269  -29.1595   21.0626 C   0  0  1  0  0  0  0  0  0  0  0  0
  -18.9766  -30.3415   17.7657 C   0  0  2  0  0  0  0  0  0  0  0  0
  -31.4065  -21.6831   19.2703 C   0  0  1  0  0  0  0  0  0  0  0  0
  -31.2066  -20.9445   20.6227 C   0  0  1  0  0  0  0  0  0  0  0  0
  -28.3899  -26.5551   18.1403 C   0  0  1  0  0  0  0  0  0  1  0  0
  -19.5128  -28.5375   22.1557 C   0  0  0  0  0  0  0  0  0  0  0  0
  -25.4824  -13.8311   19.6238 N   0  0  0  0  0  0  0  0  0  0  0  0
  -26.2748  -13.8115   18.5385 N   0  0  0  0  0  0  0  0  0  0  0  0
  -22.7606  -29.8858   21.4497 N   0  0  0  0  0  0  0  0  0  0  0  0
  -29.7255  -13.8086   20.1822 N   0  0  0  0  0  0  0  0  0  0  0  0
  -26.2585  -14.0612   16.1831 N   0  0  0  0  0  0  0  0  0  0  0  0
  -22.9245  -15.8424   16.5070 N   0  0  0  0  0  0  0  0  0  0  0  0
  -24.3936  -30.8387   24.4756 N   0  0  0  0  0  0  0  0  0  0  0  0
  -19.7030  -29.8459   19.9980 N   0  0  0  0  0  0  0  0  0  0  0  0
  -30.3397  -16.0809   20.4123 N   0  0  0  0  0  0  0  0  0  0  0  0
  -19.6487  -30.5344   16.4496 N   0  3  0  0  0  0  0  0  0  0  0  0
  -22.5358  -13.5935   16.2839 O   0  0  0  0  0  0  0  0  0  0  0  0
  -24.0970  -28.7713   23.4458 O   0  0  0  0  0  0  0  0  0  0  0  0
  -20.9652  -31.1678   22.2043 O   0  0  0  0  0  0  0  0  0  0  0  0
  -20.5467  -28.5713   18.2542 O   0  0  0  0  0  0  0  0  0  0  0  0
  -31.9381  -14.4383   20.4747 O   0  0  0  0  0  0  0  0  0  0  0  0
  -19.8294  -14.4824   22.4815 O   0  0  0  0  0  0  0  0  0  0  0  0
  -27.0248  -26.4985   18.5522 O   0  0  0  0  0  0  0  0  0  1  0  0
  -14.8300  -14.2850   20.1639 F   0  0  0  0  0  0  0  0  0  0  0  0
  -18.0236  -12.5058   23.1707 F   0  0  0  0  0  0  0  0  0  0  0  0
  1  2  1  0  0  0  0
  1  5  2  0  0  0  0
  2  6  2  0  0  0  0
  3  8  2  0  0  0  0
  3 17  1  0  0  0  0
  4  9  1  0  0  0  0
  4 17  2  0  0  0  0
  5 19  1  0  0  0  0
  6 21  1  0  0  0  0
  7 10  2  0  0  0  0
  7 20  1  0  0  0  0
  8 27  1  0  0  0  0
  9 27  2  0  0  0  0
 10 28  1  0  0  0  0
 11 12  2  0  0  0  0
 11 29  1  0  0  0  0
 12 30  1  0  0  0  0
 13 22  1  0  0  0  0
 13 24  2  0  0  0  0
 14 23  1  0  0  0  0
 14 28  2  0  0  0  0
 15 25  1  0  0  0  0
 15 26  2  0  0  0  0
 16 30  2  0  0  0  0
 16 31  1  0  0  0  0
 17 32  1  0  0  0  0
 18 32  1  0  0  0  0
 18 33  2  0  0  0  0
 18 34  1  0  0  0  0
 19 21  2  0  0  0  0
 19 39  1  0  0  0  0
 20 23  2  0  0  0  0
 20 40  1  0  0  0  0
 21 55  1  0  0  0  0
 22 25  2  0  0  0  0
 22 54  1  0  0  0  0
 23 41  1  0  0  0  0
 24 26  1  0  0  0  0
 24 62  1  0  0  0  0
 25 63  1  0  0  0  0
 26 64  1  0  0  0  0
 27 94  1  0  0  0  0
 28 95  1  0  0  0  0
 29 31  2  0  0  0  0
 29 94  1  0  0  0  0
 30 96  1  0  0  0  0
 31 97  1  0  0  0  0
 32 79  2  0  0  0  0
 33 80  1  0  0  0  0
 33 83  1  0  0  0  0
 34 84  1  0  0  0  0
 34 89  2  0  0  0  0
 35 56  1  0  0  0  0
 35 85  1  0  0  0  0
 35 90  2  0  0  0  0
 36 73  1  0  0  0  0
 36 81  1  0  0  0  0
 36 91  2  0  0  0  0
 37 74  1  0  0  0  0
 37 86  1  0  0  0  0
 37 92  2  0  0  0  0
 38 82  1  0  0  0  0
 38 87  1  0  0  0  0
 38 93  2  0  0  0  0
 39 42  1  0  0  0  0
 40 56  1  0  0  0  0
 41 81  1  0  0  0  0
 42 44  1  0  0  0  0
 43 50  1  0  0  0  0
 43 52  1  0  0  0  0
 44 55  1  0  0  0  0
 45 47  1  0  0  0  0
 45 57  1  0  0  0  0
 46 48  1  0  0  0  0
 46 57  1  0  0  0  0
 47 58  1  0  0  0  0
 48 58  1  0  0  0  0
 49 51  1  0  0  0  0
 49 59  1  0  0  0  0
 50 60  1  0  0  0  0
 51 61  1  0  0  0  0
 52 82  1  0  0  0  0
 53 60  1  0  0  0  0
 53 82  1  0  0  0  0
 54 59  1  0  0  0  0
 54 61  1  0  0  0  0
 55 85  1  0  0  0  0
 56 81  1  0  0  0  0
 57 75  1  0  0  0  0
 58 77  1  0  0  0  0
 59 76  1  0  0  0  0
 60 80  1  0  0  0  0
 61 87  1  0  0  0  0
 65 74  1  0  0  0  0
 66 75  1  0  0  0  0
 67 76  1  0  0  0  0
 68 77  1  0  0  0  0
 69 78  1  0  0  0  0
 70 78  1  0  0  0  0
 71 78  1  0  0  0  0
 72 88  1  0  0  0  0
 73 78  1  0  0  0  0
 73 86  1  0  0  0  0
 74 88  1  0  0  0  0
 75 76  1  0  0  0  0
 77 95  1  0  0  0  0
 79 80  1  0  0  0  0
M  CHG  1  88   1
M  ISO  4  38 100  77 101  87 100  95 101
M  END
> <Batch ID>
0155

> <Smiles>
CNC(C)C(=O)NC(C(=O)N1Cc2cc([101O:1][101CH:1](C)C3CCC(C(C)C(C)C4CCC([100NH:0][100C:0](=O)N5CCCC(n6nc(-c7ccc(Oc8ccc(F)cc8F)cc7)c(C(N)=O)c6N)C5)C4c4cc(C)c(C)cc4C)CC3)ccc2CC1C(=O)NC1CCCc2ccccc21)C(C)(C)C

> <Shape>
0.266

> <Color>
0.071

> <Negative vol penalty>
0.000

$$$$

  -OEChem-04052321543D

 87 96  0     1  0  0  0  0  0999 V2000
  -23.9487  -25.5067   11.8955 C   0  0  0  0  0  0  0  0  0  0  0  0
  -23.4863  -26.0280   13.0997 C   0  0  0  0  0  0  0  0  0  0  0  0
  -23.6328  -14.6909   21.3446 C   0  0  0  0  0  0  0  0  0  0  0  0
  -25.5304  -14.9383   19.8699 C   0  0  0  0  0  0  0  0  0  0  0  0
  -24.7511  -24.3666   11.8931 C   0  0  0  0  0  0  0  0  0  0  0  0
  -23.8254  -25.4086   14.3021 C   0  0  0  0  0  0  0  0  0  0  0  0
  -24.8724  -28.1397   19.6827 C   0  0  0  0  0  0  0  0  0  0  0  0
  -23.9645  -13.3512   21.5468 C   0  0  0  0  0  0  0  0  0  0  0  0
  -25.8622  -13.5986   20.0721 C   0  0  0  0  0  0  0  0  0  0  0  0
  -24.0711  -28.3362   20.8065 C   0  0  0  0  0  0  0  0  0  0  0  0
  -23.6270  -10.4246   19.8899 C   0  0  0  0  0  0  0  0  0  0  0  0
  -18.8766  -28.5712   22.6112 C   0  0  0  0  0  0  0  0  0  0  0  0
  -22.5957   -9.4870   19.8356 C   0  0  0  0  0  0  0  0  0  0  0  0
  -18.5231  -27.6088   21.6720 C   0  0  0  0  0  0  0  0  0  0  0  0
  -25.0273  -26.3695   21.8248 C   0  0  0  0  0  0  0  0  0  0  0  0
  -23.0709   -8.8326   22.1123 C   0  0  0  0  0  0  0  0  0  0  0  0
  -24.4157  -15.4844   20.5061 C   0  0  0  0  0  0  0  0  0  0  0  0
  -24.5120  -17.9756   21.0465 C   0  0  0  0  0  0  0  0  0  0  0  0
  -25.1081  -23.7385   13.0967 C   0  0  0  0  0  0  0  0  0  0  0  0
  -25.7508  -27.0486   19.6169 C   0  0  0  0  0  0  0  0  0  0  0  0
  -24.6323  -24.2582   14.3157 C   0  0  0  0  0  0  0  0  0  0  0  0
  -25.8406  -26.1628   20.7001 C   0  0  0  0  0  0  0  0  0  0  0  0
  -25.0792  -12.8051   20.9106 C   0  0  0  0  0  0  0  0  0  0  0  0
  -24.1463  -27.4494   21.8766 C   0  0  0  0  0  0  0  0  0  0  0  0
  -24.3803  -10.5661   21.0553 C   0  0  0  0  0  0  0  0  0  0  0  0
  -19.8942  -28.3060   23.5209 C   0  0  0  0  0  0  0  0  0  0  0  0
  -22.3176   -8.6910   20.9468 C   0  0  0  0  0  0  0  0  0  0  0  0
  -24.1023   -9.7701   22.1665 C   0  0  0  0  0  0  0  0  0  0  0  0
  -24.0732  -16.8681   20.2964 C   0  0  0  0  0  0  0  0  0  0  0  0
  -20.5222  -27.0730   23.4502 C   0  0  0  0  0  0  0  0  0  0  0  0
  -19.2126  -26.4070   21.6840 C   0  0  0  0  0  0  0  0  0  0  0  0
  -23.9085  -19.0555   20.4497 C   0  0  0  0  0  0  0  0  0  0  0  0
  -25.3870  -18.0240   22.1813 C   0  0  0  0  0  0  0  0  0  0  0  0
  -26.0393  -24.5122   17.7229 C   0  0  0  0  0  0  0  0  0  0  0  0
  -28.7515  -24.0284   19.4353 C   0  0  0  0  0  0  0  0  0  0  0  0
  -30.4827  -24.5521   22.3293 C   0  0  0  0  0  0  0  0  0  0  0  0
  -19.1475  -21.2581   18.3620 C   0  0  0  0  0  0  0  0  0  0  0  0
  -25.9387  -22.4809   13.0408 C   0  0  0  0  0  0  0  0  0  0  0  0
  -26.6279  -26.8657   18.4087 C   0  0  0  0  0  0  0  0  0  0  0  0
  -26.7822  -24.9873   20.6874 C   0  0  0  0  0  0  0  0  0  0  0  0
  -26.5613  -22.1020   14.3821 C   0  0  0  0  0  0  0  0  0  0  0  0
  -21.3804  -19.4378   16.0875 C   0  0  0  0  0  0  0  0  0  0  0  0
  -25.5249  -22.1960   15.4974 C   0  0  0  0  0  0  0  0  0  0  0  0
  -22.2830  -18.6621   17.0478 C   0  0  0  0  0  0  0  0  0  0  0  0
  -20.7633  -24.2216   19.8192 C   0  0  0  0  0  0  0  0  0  0  0  0
  -19.9887  -19.6688   16.6718 C   0  0  0  0  0  0  0  0  0  0  0  0
  -20.9439  -22.7684   19.3929 C   0  0  0  0  0  0  0  0  0  0  0  0
  -20.8821  -19.5149   18.9634 C   0  0  0  0  0  0  0  0  0  0  0  0
  -18.6191  -23.1939   19.8162 C   0  0  0  0  0  0  0  0  0  0  0  0
  -24.9989  -23.6291   15.6424 C   0  0  1  0  0  0  0  0  0  0  0  0
  -27.1133  -25.4299   18.2345 C   0  0  1  0  0  0  0  0  0  0  0  0
  -22.3117  -19.3227   18.4388 C   0  0  1  0  0  0  0  0  0  0  0  0
  -19.4693  -24.1631   20.6236 C   0  0  2  0  0  0  0  0  0  0  0  0
  -21.2623  -25.5373   25.3011 C   0  0  0  0  0  0  0  0  0  0  0  0
  -32.6590  -24.0000   23.4503 C   0  0  0  0  0  0  0  0  0  0  0  0
  -27.7391  -21.2071   20.0056 C   0  0  0  0  0  0  0  0  0  0  0  0
  -29.4253  -21.0499   21.8496 C   0  0  0  0  0  0  0  0  0  0  0  0
  -30.1823  -21.3549   19.4923 C   0  0  0  0  0  0  0  0  0  0  0  0
  -31.2451  -27.4058   22.5136 C   0  0  0  0  0  0  0  0  0  0  0  0
  -19.5329  -30.4759   24.4246 C   0  0  0  0  0  0  0  0  0  0  0  0
  -22.9705  -26.4739   23.6992 C   0  0  0  0  0  0  0  0  0  1  0  0
  -21.6214  -26.7383   24.4044 C   0  0  1  0  0  0  0  0  0  0  0  0
  -29.0963  -23.2890   20.7055 C   0  0  1  0  0  0  0  0  0  0  0  0
  -31.9112  -24.9995   22.5816 C   0  0  2  0  0  0  0  0  0  0  0  0
  -29.0915  -21.7462   20.5130 C   0  0  0  0  0  0  0  0  0  0  0  0
  -23.2540  -17.2127   19.2993 N   0  0  0  0  0  0  0  0  0  0  0  0
  -20.2065  -26.1132   22.5520 N   0  0  0  0  0  0  0  0  0  0  0  0
  -23.1732  -18.5488   19.4187 N   0  0  0  0  0  0  0  0  0  0  0  0
  -27.6145  -24.8476   19.4811 N   0  0  0  0  0  0  0  0  0  0  0  0
  -20.0717  -20.2711   18.0026 N   0  0  0  0  0  0  0  0  0  0  0  0
  -19.5786  -22.2630   19.2270 N   0  0  0  0  0  0  0  0  0  0  0  0
  -23.9403  -20.3794   20.7115 N   0  0  0  0  0  0  0  0  0  0  0  0
  -25.9195  -16.8216   22.6661 N   0  0  0  0  0  0  0  0  0  0  0  0
  -18.8485  -25.4561   20.7402 N   0  0  0  0  0  0  0  0  0  0  0  0
  -25.9604  -24.4518   16.3446 N   0  0  0  0  0  0  0  0  0  0  0  0
  -30.3726  -23.8306   21.1594 N   0  0  0  0  0  0  0  0  0  0  0  0
  -31.9262  -26.3223   23.2679 N   0  3  0  0  0  0  0  0  0  0  0  0
  -25.6747  -19.0998   22.7587 O   0  0  0  0  0  0  0  0  0  0  0  0
  -25.3353  -23.9028   18.5196 O   0  0  0  0  0  0  0  0  0  0  0  0
  -29.4687  -23.8901   18.4413 O   0  0  0  0  0  0  0  0  0  0  0  0
  -29.5578  -24.8131   23.0954 O   0  0  0  0  0  0  0  0  0  0  0  0
  -18.0013  -21.2683   17.8939 O   0  0  0  0  0  0  0  0  0  0  0  0
  -25.4034  -11.4980   21.1078 O   0  0  0  0  0  0  0  0  0  0  0  0
  -20.2469  -29.2389   24.4418 O   0  0  0  0  0  0  0  0  0  0  0  0
  -23.3596  -27.6398   22.9817 O   0  0  0  0  0  0  0  0  0  1  0  0
  -21.3262   -7.7918   20.8951 F   0  0  0  0  0  0  0  0  0  0  0  0
  -24.8218   -9.9024   23.2893 F   0  0  0  0  0  0  0  0  0  0  0  0
  1  2  1  0  0  0  0
  1  5  2  0  0  0  0
  2  6  2  0  0  0  0
  3  8  2  0  0  0  0
  3 17  1  0  0  0  0
  4  9  1  0  0  0  0
  4 17  2  0  0  0  0
  5 19  1  0  0  0  0
  6 21  1  0  0  0  0
  7 10  2  0  0  0  0
  7 20  1  0  0  0  0
  8 23  1  0  0  0  0
  9 23  2  0  0  0  0
 10 24  1  0  0  0  0
 11 13  2  0  0  0  0
 11 25  1  0  0  0  0
 12 14  2  0  0  0  0
 12 26  1  0  0  0  0
 13 27  1  0  0  0  0
 14 31  1  0  0  0  0
 15 22  1  0  0  0  0
 15 24  2  0  0  0  0
 16 27  2  0  0  0  0
 16 28  1  0  0  0  0
 17 29  1  0  0  0  0
 18 29  1  0  0  0  0
 18 32  2  0  0  0  0
 18 33  1  0  0  0  0
 19 21  2  0  0  0  0
 19 38  1  0  0  0  0
 20 22  2  0  0  0  0
 20 39  1  0  0  0  0
 21 50  1  0  0  0  0
 22 40  1  0  0  0  0
 23 83  1  0  0  0  0
 24 85  1  0  0  0  0
 25 28  2  0  0  0  0
 25 83  1  0  0  0  0
 26 30  2  0  0  0  0
 26 84  1  0  0  0  0
 27 86  1  0  0  0  0
 28 87  1  0  0  0  0
 29 66  2  0  0  0  0
 30 62  1  0  0  0  0
 30 67  1  0  0  0  0
 31 67  2  0  0  0  0
 31 74  1  0  0  0  0
 32 68  1  0  0  0  0
 32 72  1  0  0  0  0
 33 73  1  0  0  0  0
 33 78  2  0  0  0  0
 34 51  1  0  0  0  0
 34 75  1  0  0  0  0
 34 79  2  0  0  0  0
 35 63  1  0  0  0  0
 35 69  1  0  0  0  0
 35 80  2  0  0  0  0
 36 64  1  0  0  0  0
 36 76  1  0  0  0  0
 36 81  2  0  0  0  0
 37 70  1  0  0  0  0
 37 71  1  0  0  0  0
 37 82  2  0  0  0  0
 38 41  1  0  0  0  0
 39 51  1  0  0  0  0
 40 69  1  0  0  0  0
 41 43  1  0  0  0  0
 42 44  1  0  0  0  0
 42 46  1  0  0  0  0
 43 50  1  0  0  0  0
 44 52  1  0  0  0  0
 45 47  1  0  0  0  0
 45 53  1  0  0  0  0
 46 70  1  0  0  0  0
 47 71  1  0  0  0  0
 48 52  1  0  0  0  0
 48 70  1  0  0  0  0
 49 53  1  0  0  0  0
 49 71  1  0  0  0  0
 50 75  1  0  0  0  0
 51 69  1  0  0  0  0
 52 68  1  0  0  0  0
 53 74  1  0  0  0  0
 54 62  1  0  0  0  0
 55 64  1  0  0  0  0
 56 65  1  0  0  0  0
 57 65  1  0  0  0  0
 58 65  1  0  0  0  0
 59 77  1  0  0  0  0
 60 84  1  0  0  0  0
 61 62  1  0  0  0  0
 61 85  1  0  0  0  0
 63 65  1  0  0  0  0
 63 76  1  0  0  0  0
 64 77  1  0  0  0  0
 66 68  1  0  0  0  0
M  CHG  1  77   1
M  ISO  4  37 100  61 101  71 100  85 101
M  END
> <Batch ID>
0155

> <Smiles>
CNC(C)C(=O)NC(C(=O)N1Cc2cc([101O:1][101CH2:1]C(C)c3nc(NC4CC[100N:0]([100C:0](=O)N5CCCC(n6nc(-c7ccc(Oc8ccc(F)cc8F)cc7)c(C(N)=O)c6N)C5)C4)ccc3OC)ccc2CC1C(=O)NC1CCCc2ccccc21)C(C)(C)C

> <Shape>
0.189

> <Color>
0.053

> <Negative vol penalty>
0.000

$$$$

  -OEChem-04052321543D

 91101  0     1  0  0  0  0  0999 V2000
  -18.8105  -18.4609   16.0596 C   0  0  0  0  0  0  0  0  0  0  0  0
  -19.6012  -18.8959   17.1184 C   0  0  0  0  0  0  0  0  0  0  0  0
  -29.0720  -25.5032   20.0868 C   0  0  0  0  0  0  0  0  0  0  0  0
  -27.1703  -24.1096   20.6147 C   0  0  0  0  0  0  0  0  0  0  0  0
  -18.5181  -17.1048   15.9206 C   0  0  0  0  0  0  0  0  0  0  0  0
  -20.0989  -17.9749   18.0396 C   0  0  0  0  0  0  0  0  0  0  0  0
  -24.9815  -18.7616   19.1286 C   0  0  0  0  0  0  0  0  0  0  0  0
  -29.9288  -24.5261   20.5935 C   0  0  0  0  0  0  0  0  0  0  0  0
  -28.0271  -23.1324   21.1214 C   0  0  0  0  0  0  0  0  0  0  0  0
  -25.2776  -19.7968   20.0143 C   0  0  0  0  0  0  0  0  0  0  0  0
  -30.0335  -20.7038   19.8979 C   0  0  0  0  0  0  0  0  0  0  0  0
  -29.7927  -19.3797   19.5314 C   0  0  0  0  0  0  0  0  0  0  0  0
  -25.5202  -18.1921   21.7991 C   0  0  0  0  0  0  0  0  0  0  0  0
  -29.4919  -18.7913   21.8553 C   0  0  0  0  0  0  0  0  0  0  0  0
  -21.8801  -25.8301   23.9247 C   0  0  0  0  0  0  0  0  0  0  0  0
  -27.6928  -25.2949   20.0974 C   0  0  0  0  0  0  0  0  0  0  0  0
  -26.3480  -26.4285   18.2496 C   0  0  0  0  0  0  0  0  0  0  0  0
  -19.0205  -16.1656   16.8350 C   0  0  0  0  0  0  0  0  0  0  0  0
  -24.9419  -17.4327   19.5745 C   0  0  0  0  0  0  0  0  0  0  0  0
  -19.8118  -16.6051   17.9135 C   0  0  0  0  0  0  0  0  0  0  0  0
  -25.2260  -17.1416   20.9164 C   0  0  0  0  0  0  0  0  0  0  0  0
  -22.2508  -25.2514   25.1184 C   0  0  0  0  0  0  0  0  0  0  0  0
  -21.3175  -25.6694   26.0989 C   0  0  0  0  0  0  0  0  0  0  0  0
  -29.4063  -23.3407   21.1108 C   0  0  0  0  0  0  0  0  0  0  0  0
  -25.5441  -19.5124   21.3504 C   0  0  0  0  0  0  0  0  0  0  0  0
  -30.0036  -21.0717   21.2430 C   0  0  0  0  0  0  0  0  0  0  0  0
  -29.5218  -18.4235   20.5102 C   0  0  0  0  0  0  0  0  0  0  0  0
  -29.7327  -20.1155   22.2218 C   0  0  0  0  0  0  0  0  0  0  0  0
  -26.8072  -26.3041   19.5746 C   0  0  0  0  0  0  0  0  0  0  0  0
  -20.4048  -26.4906   25.4745 C   0  0  0  0  0  0  0  0  0  0  0  0
  -25.5390  -27.5384   18.2694 C   0  0  0  0  0  0  0  0  0  0  0  0
  -26.6276  -25.6137   17.1036 C   0  0  0  0  0  0  0  0  0  0  0  0
  -22.7011  -15.1833   19.7255 C   0  0  0  0  0  0  0  0  0  0  0  0
  -25.1822  -13.3245   20.6801 C   0  0  0  0  0  0  0  0  0  0  0  0
  -28.2850  -13.1333   22.0881 C   0  0  0  0  0  0  0  0  0  0  0  0
  -22.4190  -30.2331   22.6116 C   0  0  0  0  0  0  0  0  0  0  0  0
  -18.6383  -14.7160   16.6705 C   0  0  0  0  0  0  0  0  0  0  0  0
  -24.6472  -16.3250   18.6006 C   0  0  0  0  0  0  0  0  0  0  0  0
  -25.2161  -15.7298   21.4408 C   0  0  0  0  0  0  0  0  0  0  0  0
  -19.5142  -13.7600   17.4762 C   0  0  0  0  0  0  0  0  0  0  0  0
  -18.5730  -27.2904   21.3929 C   0  0  0  0  0  0  0  0  0  0  0  0
  -24.9385  -31.6938   20.5633 C   0  0  0  0  0  0  0  0  0  0  0  0
  -19.6891  -14.2703   18.9030 C   0  0  0  0  0  0  0  0  0  0  0  0
  -25.6617  -30.4894   19.9581 C   0  0  0  0  0  0  0  0  0  0  0  0
  -20.0481  -26.8872   21.5625 C   0  0  0  0  0  0  0  0  0  0  0  0
  -18.4360  -27.2219   22.9239 C   0  0  0  0  0  0  0  0  0  0  0  0
  -23.0169  -22.8829   25.1467 C   0  0  0  0  0  0  0  0  0  0  0  0
  -24.5680  -24.7235   24.3768 C   0  0  0  0  0  0  0  0  0  0  0  0
  -24.5028  -31.4260   22.0023 C   0  0  0  0  0  0  0  0  0  0  0  0
  -24.4229  -28.9986   21.5835 C   0  0  0  0  0  0  0  0  0  0  0  0
  -24.2143  -21.9557   25.3108 C   0  0  0  0  0  0  0  0  0  0  0  0
  -25.7537  -23.7823   24.5471 C   0  0  0  0  0  0  0  0  0  0  0  0
  -23.4159  -24.3566   25.3260 C   0  0  0  0  0  0  0  0  0  0  0  0
  -20.3907  -15.6337   18.9191 C   0  0  1  0  0  0  0  0  0  0  0  0
  -24.1291  -15.0585   19.2751 C   0  0  1  0  0  0  0  0  0  0  0  0
  -24.8322  -29.2006   20.1145 C   0  0  2  0  0  0  0  0  0  0  0  0
  -19.9862  -27.4286   23.0324 C   0  0  0  0  0  0  0  0  0  0  0  0
  -21.3203  -25.2950   27.5282 C   0  0  0  0  0  0  0  0  0  0  0  0
  -19.2272  -27.1975   26.0214 C   0  0  0  0  0  0  0  0  0  0  0  0
  -30.4320  -12.0871   22.8585 C   0  0  0  0  0  0  0  0  0  0  0  0
  -23.5175  -12.5757   23.1251 C   0  0  0  0  0  0  0  0  0  0  0  0
  -25.6103  -11.7222   24.2020 C   0  0  0  0  0  0  0  0  0  0  0  0
  -24.7759  -10.6743   22.0977 C   0  0  0  0  0  0  0  0  0  0  0  0
  -29.5691  -13.5522   19.4548 C   0  0  0  0  0  0  0  0  0  0  0  0
  -20.3955  -28.9032   23.1557 C   0  0  0  0  0  0  0  0  0  0  0  0
  -26.4545  -21.3963   24.3690 C   0  0  0  0  0  0  0  0  0  0  0  0
  -26.0957  -20.1576   23.5720 C   0  0  0  0  0  0  0  0  0  1  0  0
  -25.8102  -12.9795   22.0088 C   0  0  1  0  0  0  0  0  0  0  0  0
  -29.5390  -12.3895   21.6652 C   0  0  2  0  0  0  0  0  0  0  0  0
  -24.9268  -12.0148   22.8493 C   0  0  0  0  0  0  0  0  0  0  0  0
  -26.3298  -27.2588   20.3775 N   0  0  0  0  0  0  0  0  0  0  0  0
  -20.7565  -26.5808   24.1530 N   0  0  0  0  0  0  0  0  0  0  0  0
  -25.5623  -27.9937   19.5548 N   0  0  0  0  0  0  0  0  0  0  0  0
  -24.9163  -14.6819   20.4511 N   0  0  0  0  0  0  0  0  0  0  0  0
  -23.7191  -30.1909   22.0814 N   0  0  0  0  0  0  0  0  0  0  0  0
  -24.8173  -28.1594   17.3124 N   0  0  0  0  0  0  0  0  0  0  0  0
  -27.4793  -24.5116   17.2591 N   0  0  0  0  0  0  0  0  0  0  0  0
  -21.8132  -15.4727   18.7069 N   0  0  0  0  0  0  0  0  0  0  0  0
  -27.1413  -12.4628   21.7093 N   0  0  0  0  0  0  0  0  0  0  0  0
  -21.7431  -29.0196   22.6444 N   0  0  0  0  0  0  0  0  0  0  0  0
  -25.3131  -22.3453   24.3399 N   0  3  0  0  0  0  0  0  0  0  0  0
  -30.3185  -13.2018   20.6887 N   0  3  0  0  0  0  0  0  0  0  0  0
  -26.1496  -25.8652   15.9714 O   0  0  0  0  0  0  0  0  0  0  0  0
  -22.4250  -15.0272   20.9092 O   0  0  0  0  0  0  0  0  0  0  0  0
  -24.9430  -12.4235   19.8722 O   0  0  0  0  0  0  0  0  0  0  0  0
  -28.3169  -14.2003   22.6972 O   0  0  0  0  0  0  0  0  0  0  0  0
  -21.8972  -31.2761   23.0201 O   0  0  0  0  0  0  0  0  0  0  0  0
  -30.2421  -22.3869   21.6052 O   0  0  0  0  0  0  0  0  0  0  0  0
  -25.8327  -20.5209   22.2173 O   0  0  0  0  0  0  0  0  0  1  0  0
  -29.2891  -17.1522   20.1580 F   0  0  0  0  0  0  0  0  0  0  0  0
  -29.7015  -20.4632   23.5156 F   0  0  0  0  0  0  0  0  0  0  0  0
  1  2  1  0  0  0  0
  1  5  2  0  0  0  0
  2  6  2  0  0  0  0
  3  8  2  0  0  0  0
  3 16  1  0  0  0  0
  4  9  1  0  0  0  0
  4 16  2  0  0  0  0
  5 18  1  0  0  0  0
  6 20  1  0  0  0  0
  7 10  2  0  0  0  0
  7 19  1  0  0  0  0
  8 24  1  0  0  0  0
  9 24  2  0  0  0  0
 10 25  1  0  0  0  0
 11 12  2  0  0  0  0
 11 26  1  0  0  0  0
 12 27  1  0  0  0  0
 13 21  1  0  0  0  0
 13 25  2  0  0  0  0
 14 27  2  0  0  0  0
 14 28  1  0  0  0  0
 15 22  2  0  0  0  0
 15 72  1  0  0  0  0
 16 29  1  0  0  0  0
 17 29  1  0  0  0  0
 17 31  2  0  0  0  0
 17 32  1  0  0  0  0
 18 20  2  0  0  0  0
 18 37  1  0  0  0  0
 19 21  2  0  0  0  0
 19 38  1  0  0  0  0
 20 54  1  0  0  0  0
 21 39  1  0  0  0  0
 22 23  1  0  0  0  0
 22 53  1  0  0  0  0
 23 30  2  0  0  0  0
 23 58  1  0  0  0  0
 24 88  1  0  0  0  0
 25 89  1  0  0  0  0
 26 28  2  0  0  0  0
 26 88  1  0  0  0  0
 27 90  1  0  0  0  0
 28 91  1  0  0  0  0
 29 71  2  0  0  0  0
 30 59  1  0  0  0  0
 30 72  1  0  0  0  0
 31 73  1  0  0  0  0
 31 76  1  0  0  0  0
 32 77  1  0  0  0  0
 32 83  2  0  0  0  0
 33 55  1  0  0  0  0
 33 78  1  0  0  0  0
 33 84  2  0  0  0  0
 34 68  1  0  0  0  0
 34 74  1  0  0  0  0
 34 85  2  0  0  0  0
 35 69  1  0  0  0  0
 35 79  1  0  0  0  0
 35 86  2  0  0  0  0
 36 75  1  0  0  0  0
 36 80  1  0  0  0  0
 36 87  2  0  0  0  0
 37 40  1  0  0  0  0
 38 55  1  0  0  0  0
 39 74  1  0  0  0  0
 40 43  1  0  0  0  0
 41 45  1  0  0  0  0
 41 46  1  0  0  0  0
 42 44  1  0  0  0  0
 42 49  1  0  0  0  0
 43 54  1  0  0  0  0
 44 56  1  0  0  0  0
 45 57  1  0  0  0  0
 46 57  1  0  0  0  0
 47 51  1  0  0  0  0
 47 53  1  0  0  0  0
 48 52  1  0  0  0  0
 48 53  1  0  0  0  0
 49 75  1  0  0  0  0
 50 56  1  0  0  0  0
 50 75  1  0  0  0  0
 51 81  1  0  0  0  0
 52 81  1  0  0  0  0
 54 78  1  0  0  0  0
 55 74  1  0  0  0  0
 56 73  1  0  0  0  0
 57 65  1  0  0  0  0
 57 72  1  0  0  0  0
 60 69  1  0  0  0  0
 61 70  1  0  0  0  0
 62 70  1  0  0  0  0
 63 70  1  0  0  0  0
 64 82  1  0  0  0  0
 65 80  1  0  0  0  0
 66 67  1  0  0  0  0
 66 81  1  0  0  0  0
 67 89  1  0  0  0  0
 68 70  1  0  0  0  0
 68 79  1  0  0  0  0
 69 82  1  0  0  0  0
 71 73  1  0  0  0  0
M  CHG  2  81   1  82   1
M  ISO  4  36 100  67 101  80 100  89 101
M  END
> <Batch ID>
0155

> <Smiles>
CNC(C)C(=O)NC(C(=O)N1Cc2cc([101O:1][101CH2:1]CN3CCC(c4cn(C5(C[100NH:0][100C:0](=O)N6CCCC(n7nc(-c8ccc(Oc9ccc(F)cc9F)cc8)c(C(N)=O)c7N)C6)CCC5)c(C)c4C)CC3)ccc2CC1C(=O)NC1CCCc2ccccc21)C(C)(C)C

> <Shape>
0.220

> <Color>
0.064

> <Negative vol penalty>
0.000

$$$$

  -OEChem-04052321543D

 85 94  0     1  0  0  0  0  0999 V2000
  -27.4481  -34.8740   24.6294 C   0  0  0  0  0  0  0  0  0  0  0  0
  -27.7546  -33.6113   24.1324 C   0  0  0  0  0  0  0  0  0  0  0  0
  -24.4659   -8.9292   22.4965 C   0  0  0  0  0  0  0  0  0  0  0  0
  -24.2362   -9.0454   20.0942 C   0  0  0  0  0  0  0  0  0  0  0  0
  -26.1866  -35.1223   25.1688 C   0  0  0  0  0  0  0  0  0  0  0  0
  -26.7999  -32.5958   24.1754 C   0  0  0  0  0  0  0  0  0  0  0  0
  -26.5314  -29.9969   19.8373 C   0  0  0  0  0  0  0  0  0  0  0  0
  -28.5366  -24.0134   19.2238 C   0  0  0  0  0  0  0  0  0  0  0  0
  -28.3299  -22.6542   18.9884 C   0  0  0  0  0  0  0  0  0  0  0  0
  -23.2890   -8.1844   22.5729 C   0  0  0  0  0  0  0  0  0  0  0  0
  -23.0594   -8.3005   20.1707 C   0  0  0  0  0  0  0  0  0  0  0  0
  -27.5228  -29.0451   19.6029 C   0  0  0  0  0  0  0  0  0  0  0  0
  -22.3293   -4.9832   22.0592 C   0  0  0  0  0  0  0  0  0  0  0  0
  -22.3274   -3.8566   22.8817 C   0  0  0  0  0  0  0  0  0  0  0  0
  -26.0099  -27.3041   20.3094 C   0  0  0  0  0  0  0  0  0  0  0  0
  -27.8761  -22.3163   21.3372 C   0  0  0  0  0  0  0  0  0  0  0  0
  -20.5366   -4.8149   24.1902 C   0  0  0  0  0  0  0  0  0  0  0  0
  -24.9395   -9.3598   21.2571 C   0  0  0  0  0  0  0  0  0  0  0  0
  -27.4650   -9.6369   21.0282 C   0  0  0  0  0  0  0  0  0  0  0  0
  -25.2128  -34.1121   25.2096 C   0  0  0  0  0  0  0  0  0  0  0  0
  -25.2732  -29.6099   20.3208 C   0  0  0  0  0  0  0  0  0  0  0  0
  -25.5246  -32.8305   24.7170 C   0  0  0  0  0  0  0  0  0  0  0  0
  -25.0034  -28.2526   20.5468 C   0  0  0  0  0  0  0  0  0  0  0  0
  -28.4131  -24.5241   20.5160 C   0  0  0  0  0  0  0  0  0  0  0  0
  -28.0828  -23.6755   21.5727 C   0  0  0  0  0  0  0  0  0  0  0  0
  -27.9996  -21.8057   20.0450 C   0  0  0  0  0  0  0  0  0  0  0  0
  -22.5858   -7.8700   21.4101 C   0  0  0  0  0  0  0  0  0  0  0  0
  -27.2631  -27.6988   19.8417 C   0  0  0  0  0  0  0  0  0  0  0  0
  -21.4349   -6.0257   22.3022 C   0  0  0  0  0  0  0  0  0  0  0  0
  -21.4310   -3.7725   23.9472 C   0  0  0  0  0  0  0  0  0  0  0  0
  -20.5386   -5.9415   23.3677 C   0  0  0  0  0  0  0  0  0  0  0  0
  -26.1548  -10.1297   21.1775 C   0  0  0  0  0  0  0  0  0  0  0  0
  -28.2542  -10.7609   21.0063 C   0  0  0  0  0  0  0  0  0  0  0  0
  -27.9275   -8.2841   20.9190 C   0  0  0  0  0  0  0  0  0  0  0  0
  -23.5970  -30.2186   22.9520 C   0  0  0  0  0  0  0  0  0  0  0  0
  -21.2865  -28.5569   21.3954 C   0  0  0  0  0  0  0  0  0  0  0  0
  -20.4847  -26.2387   19.0227 C   0  0  0  0  0  0  0  0  0  0  0  0
  -27.3729  -16.2509   19.4217 C   0  0  0  0  0  0  0  0  0  0  0  0
  -23.8790  -34.4147   25.8452 C   0  0  0  0  0  0  0  0  0  0  0  0
  -24.2058  -30.6461   20.5431 C   0  0  0  0  0  0  0  0  0  0  0  0
  -23.6624  -27.7832   21.0465 C   0  0  0  0  0  0  0  0  0  0  0  0
  -22.7987  -33.3891   25.5118 C   0  0  0  0  0  0  0  0  0  0  0  0
  -28.4289  -15.2552   22.6205 C   0  0  0  0  0  0  0  0  0  0  0  0
  -23.3378  -31.9721   25.6797 C   0  0  0  0  0  0  0  0  0  0  0  0
  -28.0902  -13.7649   22.6021 C   0  0  0  0  0  0  0  0  0  0  0  0
  -27.3425  -16.0981   21.9507 C   0  0  0  0  0  0  0  0  0  0  0  0
  -28.8792  -19.6348   19.2439 C   0  0  0  0  0  0  0  0  0  0  0  0
  -26.8262  -19.7389   20.6653 C   0  0  0  0  0  0  0  0  0  0  0  0
  -28.3425  -18.3624   18.5939 C   0  0  0  0  0  0  0  0  0  0  0  0
  -26.3206  -18.4732   19.9819 C   0  0  0  0  0  0  0  0  0  0  0  0
  -26.6632  -14.1684   20.5604 C   0  0  0  0  0  0  0  0  0  0  0  0
  -24.5075  -31.7099   24.7233 C   0  0  1  0  0  0  0  0  0  0  0  0
  -23.1289  -30.1935   21.5244 C   0  0  1  0  0  0  0  0  0  0  0  0
  -27.7643  -13.2902   21.1748 C   0  0  2  0  0  0  0  0  0  0  0  0
  -27.9466  -24.1994   22.9647 C   0  0  0  0  0  0  0  0  0  0  0  0
  -30.1045  -26.3154   21.0389 C   0  0  0  0  0  0  0  0  0  0  0  0
  -18.5161  -25.0615   18.0047 C   0  0  0  0  0  0  0  0  0  0  0  0
  -21.0725  -26.7817   23.8679 C   0  0  0  0  0  0  0  0  0  0  0  0
  -19.8343  -25.1101   22.4748 C   0  0  0  0  0  0  0  0  0  0  0  0
  -18.8812  -27.3884   22.8264 C   0  0  0  0  0  0  0  0  0  0  0  0
  -21.0664  -27.3408   16.3384 C   0  0  0  0  0  0  0  0  0  0  0  0
  -28.6403  -25.9824   20.7436 C   0  0  1  0  0  0  0  0  0  1  0  0
  -20.8863  -27.1036   21.3129 C   0  0  1  0  0  0  0  0  0  0  0  0
  -19.4553  -26.2537   17.9071 C   0  0  2  0  0  0  0  0  0  0  0  0
  -20.1946  -26.6047   22.6129 C   0  0  0  0  0  0  0  0  0  0  0  0
  -26.1099  -11.4628   21.2457 N   0  0  0  0  0  0  0  0  0  0  0  0
  -27.4018  -11.8173   21.1390 N   0  0  0  0  0  0  0  0  0  0  0  0
  -27.7912  -20.4410   19.8079 N   0  0  0  0  0  0  0  0  0  0  0  0
  -22.6535  -28.8350   21.2548 N   0  0  0  0  0  0  0  0  0  0  0  0
  -27.0373  -15.5834   20.6091 N   0  0  0  0  0  0  0  0  0  0  0  0
  -27.4222  -17.6527   19.4742 N   0  0  0  0  0  0  0  0  0  0  0  0
  -29.5870  -10.9387   20.8868 N   0  0  0  0  0  0  0  0  0  0  0  0
  -26.9827   -7.2497   20.9600 N   0  0  0  0  0  0  0  0  0  0  0  0
  -24.0192  -31.4615   23.3838 N   0  0  0  0  0  0  0  0  0  0  0  0
  -20.0675  -26.9732   20.1125 N   0  0  0  0  0  0  0  0  0  0  0  0
  -20.1301  -26.2128   16.5790 N   0  3  0  0  0  0  0  0  0  0  0  0
  -29.1440   -8.0003   20.8054 O   0  0  0  0  0  0  0  0  0  0  0  0
  -23.5751  -29.1871   23.6132 O   0  0  0  0  0  0  0  0  0  0  0  0
  -20.4173  -29.4145   21.5708 O   0  0  0  0  0  0  0  0  0  0  0  0
  -21.5505  -25.6327   18.9375 O   0  0  0  0  0  0  0  0  0  0  0  0
  -27.6172  -15.6337   18.3775 O   0  0  0  0  0  0  0  0  0  0  0  0
  -21.4375   -7.1431   21.4843 O   0  0  0  0  0  0  0  0  0  0  0  0
  -28.2323  -26.7649   19.6136 O   0  0  0  0  0  0  0  0  0  1  0  0
  -21.4283   -2.6899   24.7360 F   0  0  0  0  0  0  0  0  0  0  0  0
  -19.6762   -6.9393   23.6054 F   0  0  0  0  0  0  0  0  0  0  0  0
  1  2  1  0  0  0  0
  1  5  2  0  0  0  0
  2  6  2  0  0  0  0
  3 10  2  0  0  0  0
  3 18  1  0  0  0  0
  4 11  1  0  0  0  0
  4 18  2  0  0  0  0
  5 20  1  0  0  0  0
  6 22  1  0  0  0  0
  7 12  2  0  0  0  0
  7 21  1  0  0  0  0
  8  9  2  0  0  0  0
  8 24  1  0  0  0  0
  9 26  1  0  0  0  0
 10 27  1  0  0  0  0
 11 27  2  0  0  0  0
 12 28  1  0  0  0  0
 13 14  2  0  0  0  0
 13 29  1  0  0  0  0
 14 30  1  0  0  0  0
 15 23  1  0  0  0  0
 15 28  2  0  0  0  0
 16 25  1  0  0  0  0
 16 26  2  0  0  0  0
 17 30  2  0  0  0  0
 17 31  1  0  0  0  0
 18 32  1  0  0  0  0
 19 32  1  0  0  0  0
 19 33  2  0  0  0  0
 19 34  1  0  0  0  0
 20 22  2  0  0  0  0
 20 39  1  0  0  0  0
 21 23  2  0  0  0  0
 21 40  1  0  0  0  0
 22 52  1  0  0  0  0
 23 41  1  0  0  0  0
 24 25  2  0  0  0  0
 24 62  1  0  0  0  0
 25 55  1  0  0  0  0
 26 68  1  0  0  0  0
 27 82  1  0  0  0  0
 28 83  1  0  0  0  0
 29 31  2  0  0  0  0
 29 82  1  0  0  0  0
 30 84  1  0  0  0  0
 31 85  1  0  0  0  0
 32 66  2  0  0  0  0
 33 67  1  0  0  0  0
 33 72  1  0  0  0  0
 34 73  1  0  0  0  0
 34 77  2  0  0  0  0
 35 53  1  0  0  0  0
 35 74  1  0  0  0  0
 35 78  2  0  0  0  0
 36 63  1  0  0  0  0
 36 69  1  0  0  0  0
 36 79  2  0  0  0  0
 37 64  1  0  0  0  0
 37 75  1  0  0  0  0
 37 80  2  0  0  0  0
 38 70  1  0  0  0  0
 38 71  1  0  0  0  0
 38 81  2  0  0  0  0
 39 42  1  0  0  0  0
 40 53  1  0  0  0  0
 41 69  1  0  0  0  0
 42 44  1  0  0  0  0
 43 45  1  0  0  0  0
 43 46  1  0  0  0  0
 44 52  1  0  0  0  0
 45 54  1  0  0  0  0
 46 70  1  0  0  0  0
 47 49  1  0  0  0  0
 47 68  1  0  0  0  0
 48 50  1  0  0  0  0
 48 68  1  0  0  0  0
 49 71  1  0  0  0  0
 50 71  1  0  0  0  0
 51 54  1  0  0  0  0
 51 70  1  0  0  0  0
 52 74  1  0  0  0  0
 53 69  1  0  0  0  0
 54 67  1  0  0  0  0
 56 62  1  0  0  0  0
 57 64  1  0  0  0  0
 58 65  1  0  0  0  0
 59 65  1  0  0  0  0
 60 65  1  0  0  0  0
 61 76  1  0  0  0  0
 62 83  1  0  0  0  0
 63 65  1  0  0  0  0
 63 75  1  0  0  0  0
 64 76  1  0  0  0  0
 66 67  1  0  0  0  0
M  CHG  1  76   1
M  ISO  4  38 100  62 101  71 100  83 101
M  END
> <Batch ID>
0155

> <Smiles>
CNC(C)C(=O)NC(C(=O)N1Cc2cc([101O:1][101CH:1](C)c3ccc(N4CC[100N:0]([100C:0](=O)N5CCCC(n6nc(-c7ccc(Oc8ccc(F)cc8F)cc7)c(C(N)=O)c6N)C5)CC4)cc3C)ccc2CC1C(=O)NC1CCCc2ccccc21)C(C)(C)C

> <Shape>
0.316

> <Color>
0.109

> <Negative vol penalty>
0.000

$$$$

  -OEChem-04052321543D

 91102  0     1  0  0  0  0  0999 V2000
  -29.7168  -28.7202   13.5429 C   0  0  0  0  0  0  0  0  0  0  0  0
  -29.9807  -28.6365   14.9062 C   0  0  0  0  0  0  0  0  0  0  0  0
  -23.2529  -16.1295   22.7925 C   0  0  0  0  0  0  0  0  0  0  0  0
  -22.3797  -16.1481   20.5399 C   0  0  0  0  0  0  0  0  0  0  0  0
  -28.5179  -29.2763   13.0989 C   0  0  0  0  0  0  0  0  0  0  0  0
  -29.0462  -29.1100   15.8265 C   0  0  0  0  0  0  0  0  0  0  0  0
  -28.3407  -25.9196   19.6954 C   0  0  0  0  0  0  0  0  0  0  0  0
  -22.2795  -17.0513   23.1775 C   0  0  0  0  0  0  0  0  0  0  0  0
  -21.4061  -17.0699   20.9249 C   0  0  0  0  0  0  0  0  0  0  0  0
  -29.3106  -25.9089   20.6968 C   0  0  0  0  0  0  0  0  0  0  0  0
  -18.4656  -19.1546   21.3993 C   0  0  0  0  0  0  0  0  0  0  0  0
  -17.1574  -18.9359   20.9675 C   0  0  0  0  0  0  0  0  0  0  0  0
  -30.2688  -22.4670   22.1800 C   0  0  0  0  0  0  0  0  0  0  0  0
  -27.8992  -27.3019   22.0704 C   0  0  0  0  0  0  0  0  0  0  0  0
  -31.5175  -20.7109   23.9518 C   0  0  0  0  0  0  0  0  0  0  0  0
  -17.1327  -16.8117   22.1183 C   0  0  0  0  0  0  0  0  0  0  0  0
  -23.3031  -15.6779   21.4736 C   0  0  0  0  0  0  0  0  0  0  0  0
  -24.2087  -13.3222   21.1022 C   0  0  0  0  0  0  0  0  0  0  0  0
  -27.5640  -29.7480   14.0144 C   0  0  0  0  0  0  0  0  0  0  0  0
  -27.1453  -26.6317   19.8698 C   0  0  0  0  0  0  0  0  0  0  0  0
  -27.8339  -29.6742   15.3943 C   0  0  0  0  0  0  0  0  0  0  0  0
  -30.6375  -22.9047   23.4520 C   0  0  0  0  0  0  0  0  0  0  0  0
  -26.9146  -27.3179   21.0707 C   0  0  0  0  0  0  0  0  0  0  0  0
  -30.5244  -21.1512   21.7939 C   0  0  0  0  0  0  0  0  0  0  0  0
  -31.2619  -22.0267   24.3379 C   0  0  0  0  0  0  0  0  0  0  0  0
  -21.3561  -17.5215   22.2437 C   0  0  0  0  0  0  0  0  0  0  0  0
  -29.0912  -26.6025   21.8834 C   0  0  0  0  0  0  0  0  0  0  0  0
  -19.1074  -18.2018   22.1906 C   0  0  0  0  0  0  0  0  0  0  0  0
  -31.1488  -20.2731   22.6798 C   0  0  0  0  0  0  0  0  0  0  0  0
  -16.4910  -17.7645   21.3270 C   0  0  0  0  0  0  0  0  0  0  0  0
  -18.4409  -17.0304   22.5500 C   0  0  0  0  0  0  0  0  0  0  0  0
  -24.3088  -14.7262   21.0752 C   0  0  0  0  0  0  0  0  0  0  0  0
  -25.4204  -12.8825   20.6279 C   0  0  0  0  0  0  0  0  0  0  0  0
  -23.1180  -12.4900   21.5187 C   0  0  0  0  0  0  0  0  0  0  0  0
  -25.7542  -29.0764   18.3894 C   0  0  0  0  0  0  0  0  0  0  0  0
  -23.3070  -28.4020   20.4089 C   0  0  0  0  0  0  0  0  0  0  0  0
  -22.2788  -27.0200   23.3550 C   0  0  0  0  0  0  0  0  0  0  0  0
  -30.8607  -15.3702   20.4914 C   0  0  0  0  0  0  0  0  0  0  0  0
  -26.3029  -30.3843   13.4857 C   0  0  0  0  0  0  0  0  0  0  0  0
  -26.0977  -26.6113   18.7907 C   0  0  0  0  0  0  0  0  0  0  0  0
  -25.6394  -28.0811   21.3155 C   0  0  0  0  0  0  0  0  0  0  0  0
  -25.2032  -30.5209   14.5356 C   0  0  0  0  0  0  0  0  0  0  0  0
  -29.0083  -14.1380   17.7494 C   0  0  0  0  0  0  0  0  0  0  0  0
  -25.7711  -31.0879   15.8328 C   0  0  0  0  0  0  0  0  0  0  0  0
  -32.2189  -21.0440   18.8625 C   0  0  0  0  0  0  0  0  0  0  0  0
  -31.0336  -20.8569   17.9571 C   0  0  0  0  0  0  0  0  0  0  0  0
  -27.5774  -14.0445   18.2721 C   0  0  0  0  0  0  0  0  0  0  0  0
  -31.8662  -17.0112   23.6545 C   0  0  0  0  0  0  0  0  0  0  0  0
  -31.4878  -25.1791   24.3352 C   0  0  0  0  0  0  0  0  0  0  0  0
  -29.7078  -15.3700   18.3074 C   0  0  0  0  0  0  0  0  0  0  0  0
  -32.1508  -16.0923   22.4751 C   0  0  0  0  0  0  0  0  0  0  0  0
  -28.3228  -15.2970   20.3630 C   0  0  0  0  0  0  0  0  0  0  0  0
  -29.9660  -17.0574   22.2077 C   0  0  0  0  0  0  0  0  0  0  0  0
  -30.3550  -24.3170   23.8444 C   0  0  1  0  0  0  0  0  0  0  0  0
  -26.8343  -30.1543   16.4241 C   0  0  1  0  0  0  0  0  0  0  0  0
  -25.1365  -27.7934   18.8688 C   0  0  1  0  0  0  0  0  0  0  0  0
  -30.8515  -21.4750   19.3156 C   0  0  0  0  0  0  0  0  0  0  0  0
  -27.5583  -14.0773   19.8083 C   0  0  1  0  0  0  0  0  0  0  0  0
  -30.8052  -17.9587   23.1053 C   0  0  2  0  0  0  0  0  0  0  0  0
  -30.8911  -25.4340   22.9849 C   0  0  1  0  0  0  0  0  0  1  0  0
  -31.6665  -22.4708   25.7054 C   0  0  0  0  0  0  0  0  0  0  0  0
  -28.6005  -20.7752   20.2091 C   0  0  0  0  0  0  0  0  0  0  0  0
  -20.2242  -26.6563   24.7492 C   0  0  0  0  0  0  0  0  0  0  0  0
  -23.3761  -31.3285   21.2697 C   0  0  0  0  0  0  0  0  0  0  0  0
  -22.0124  -30.6991   23.2728 C   0  0  0  0  0  0  0  0  0  0  0  0
  -21.0801  -30.3799   20.9812 C   0  0  0  0  0  0  0  0  0  0  0  0
  -22.5592  -24.0774   23.2087 C   0  0  0  0  0  0  0  0  0  0  0  0
  -30.1227  -20.6996   20.4284 C   0  0  2  0  0  0  0  0  0  0  0  0
  -22.9145  -28.8438   21.7981 C   0  0  1  0  0  0  0  0  0  0  0  0
  -21.1358  -26.0751   23.6797 C   0  0  2  0  0  0  0  0  0  0  0  0
  -22.3707  -30.3001   21.8254 C   0  0  0  0  0  0  0  0  0  0  0  0
  -25.4907  -15.1502   20.6199 N   0  0  0  0  0  0  0  0  0  0  0  0
  -26.1445  -14.0060   20.3566 N   0  0  0  0  0  0  0  0  0  0  0  0
  -24.6483  -28.0362   20.2278 N   0  0  0  0  0  0  0  0  0  0  0  0
  -29.6621  -15.4050   19.7703 N   0  0  0  0  0  0  0  0  0  0  0  0
  -30.9119  -16.0542   21.7058 N   0  0  0  0  0  0  0  0  0  0  0  0
  -25.9265  -11.6482   20.4208 N   0  0  0  0  0  0  0  0  0  0  0  0
  -21.9459  -13.1054   21.9789 N   0  0  0  0  0  0  0  0  0  0  0  0
  -26.2080  -29.0294   17.0850 N   0  0  0  0  0  0  0  0  0  0  0  0
  -21.9733  -27.8451   22.2933 N   0  0  0  0  0  0  0  0  0  0  0  0
  -21.6651  -24.7715   24.1709 N   0  3  0  0  0  0  0  0  0  0  0  0
  -23.1869  -11.2376   21.4991 O   0  0  0  0  0  0  0  0  0  0  0  0
  -25.8134  -30.0383   19.1463 O   0  0  0  0  0  0  0  0  0  0  0  0
  -22.4531  -28.3755   19.5190 O   0  0  0  0  0  0  0  0  0  0  0  0
  -23.3353  -27.0279   23.9829 O   0  0  0  0  0  0  0  0  0  0  0  0
  -31.8600  -14.7876   20.0490 O   0  0  0  0  0  0  0  0  0  0  0  0
  -20.4059  -18.4208   22.6191 O   0  0  0  0  0  0  0  0  0  0  0  0
  -30.0502  -26.5941   22.8764 O   0  0  0  0  0  0  0  0  0  1  0  0
  -31.4070  -18.9774   22.3165 O   0  0  0  0  0  0  0  0  0  0  0  0
  -15.2342  -17.5553   20.9135 F   0  0  0  0  0  0  0  0  0  0  0  0
  -19.0519  -16.1120   23.3110 F   0  0  0  0  0  0  0  0  0  0  0  0
  1  2  1  0  0  0  0
  1  5  2  0  0  0  0
  2  6  2  0  0  0  0
  3  8  2  0  0  0  0
  3 17  1  0  0  0  0
  4  9  1  0  0  0  0
  4 17  2  0  0  0  0
  5 19  1  0  0  0  0
  6 21  1  0  0  0  0
  7 10  2  0  0  0  0
  7 20  1  0  0  0  0
  8 26  1  0  0  0  0
  9 26  2  0  0  0  0
 10 27  1  0  0  0  0
 11 12  2  0  0  0  0
 11 28  1  0  0  0  0
 12 30  1  0  0  0  0
 13 22  1  0  0  0  0
 13 24  2  0  0  0  0
 14 23  1  0  0  0  0
 14 27  2  0  0  0  0
 15 25  1  0  0  0  0
 15 29  2  0  0  0  0
 16 30  2  0  0  0  0
 16 31  1  0  0  0  0
 17 32  1  0  0  0  0
 18 32  1  0  0  0  0
 18 33  2  0  0  0  0
 18 34  1  0  0  0  0
 19 21  2  0  0  0  0
 19 39  1  0  0  0  0
 20 23  2  0  0  0  0
 20 40  1  0  0  0  0
 21 55  1  0  0  0  0
 22 25  2  0  0  0  0
 22 54  1  0  0  0  0
 23 41  1  0  0  0  0
 24 29  1  0  0  0  0
 24 68  1  0  0  0  0
 25 61  1  0  0  0  0
 26 87  1  0  0  0  0
 27 88  1  0  0  0  0
 28 31  2  0  0  0  0
 28 87  1  0  0  0  0
 29 89  1  0  0  0  0
 30 90  1  0  0  0  0
 31 91  1  0  0  0  0
 32 72  2  0  0  0  0
 33 73  1  0  0  0  0
 33 77  1  0  0  0  0
 34 78  1  0  0  0  0
 34 82  2  0  0  0  0
 35 56  1  0  0  0  0
 35 79  1  0  0  0  0
 35 83  2  0  0  0  0
 36 69  1  0  0  0  0
 36 74  1  0  0  0  0
 36 84  2  0  0  0  0
 37 70  1  0  0  0  0
 37 80  1  0  0  0  0
 37 85  2  0  0  0  0
 38 75  1  0  0  0  0
 38 76  1  0  0  0  0
 38 86  2  0  0  0  0
 39 42  1  0  0  0  0
 40 56  1  0  0  0  0
 41 74  1  0  0  0  0
 42 44  1  0  0  0  0
 43 47  1  0  0  0  0
 43 50  1  0  0  0  0
 44 55  1  0  0  0  0
 45 46  1  0  0  0  0
 45 57  1  0  0  0  0
 46 57  1  0  0  0  0
 47 58  1  0  0  0  0
 48 51  1  0  0  0  0
 48 59  1  0  0  0  0
 49 54  1  0  0  0  0
 49 60  1  0  0  0  0
 50 75  1  0  0  0  0
 51 76  1  0  0  0  0
 52 58  1  0  0  0  0
 52 75  1  0  0  0  0
 53 59  1  0  0  0  0
 53 76  1  0  0  0  0
 54 60  1  0  0  0  0
 55 79  1  0  0  0  0
 56 74  1  0  0  0  0
 57 68  1  0  0  0  0
 58 73  1  0  0  0  0
 59 89  1  0  0  0  0
 60 88  1  0  0  0  0
 62 68  1  0  0  0  0
 63 70  1  0  0  0  0
 64 71  1  0  0  0  0
 65 71  1  0  0  0  0
 66 71  1  0  0  0  0
 67 81  1  0  0  0  0
 69 71  1  0  0  0  0
 69 80  1  0  0  0  0
 70 81  1  0  0  0  0
 72 73  1  0  0  0  0
M  CHG  1  81   1
M  ISO  4  38 100  60 101  76 100  88 101
M  END
> <Batch ID>
0155

> <Smiles>
CNC(C)C(=O)NC(C(=O)N1Cc2cc([101O:1][101CH:1]3CC3c3cc(C(C)C4CC4)c(OC4CC[100N:0]([100C:0](=O)N5CCCC(n6nc(-c7ccc(Oc8ccc(F)cc8F)cc7)c(C(N)=O)c6N)C5)C4)cc3C)ccc2CC1C(=O)NC1CCCc2ccccc21)C(C)(C)C

> <Shape>
0.198

> <Color>
0.088

> <Negative vol penalty>
0.000

$$$$

  -OEChem-04052321543D

 86 96  0     1  0  0  0  0  0999 V2000
  -25.6143  -37.4375   18.0293 C   0  0  0  0  0  0  0  0  0  0  0  0
  -26.1485  -36.1786   17.7734 C   0  0  0  0  0  0  0  0  0  0  0  0
  -23.3297  -11.6468   18.6949 C   0  0  0  0  0  0  0  0  0  0  0  0
  -24.0517   -9.9121   20.2136 C   0  0  0  0  0  0  0  0  0  0  0  0
  -25.3244  -37.8174   19.3391 C   0  0  0  0  0  0  0  0  0  0  0  0
  -26.3942  -35.2994   18.8274 C   0  0  0  0  0  0  0  0  0  0  0  0
  -25.8613  -29.1991   18.7331 C   0  0  0  0  0  0  0  0  0  0  0  0
  -22.7027  -10.6886   17.8984 C   0  0  0  0  0  0  0  0  0  0  0  0
  -23.4246   -8.9539   19.4172 C   0  0  0  0  0  0  0  0  0  0  0  0
  -26.7971  -28.1782   18.5722 C   0  0  0  0  0  0  0  0  0  0  0  0
  -21.7075   -6.0914   17.9765 C   0  0  0  0  0  0  0  0  0  0  0  0
  -20.9426   -5.1156   18.6156 C   0  0  0  0  0  0  0  0  0  0  0  0
  -28.1997  -23.3366   19.2916 C   0  0  0  0  0  0  0  0  0  0  0  0
  -30.2669  -22.1063   18.9252 C   0  0  0  0  0  0  0  0  0  0  0  0
  -26.9471  -27.9462   20.9687 C   0  0  0  0  0  0  0  0  0  0  0  0
  -19.5192   -6.8359   19.5386 C   0  0  0  0  0  0  0  0  0  0  0  0
  -24.0043  -11.2586   19.8524 C   0  0  0  0  0  0  0  0  0  0  0  0
  -24.0907  -12.9576   21.7534 C   0  0  0  0  0  0  0  0  0  0  0  0
  -25.5577  -36.9387   20.4087 C   0  0  0  0  0  0  0  0  0  0  0  0
  -25.4689  -29.6094   20.0154 C   0  0  0  0  0  0  0  0  0  0  0  0
  -26.1084  -35.6684   20.1529 C   0  0  0  0  0  0  0  0  0  0  0  0
  -28.9619  -22.1757   19.4382 C   0  0  0  0  0  0  0  0  0  0  0  0
  -28.7610  -24.4103   18.6203 C   0  0  0  0  0  0  0  0  0  0  0  0
  -26.0043  -28.9708   21.1431 C   0  0  0  0  0  0  0  0  0  0  0  0
  -30.0613  -24.3392   18.1056 C   0  0  0  0  0  0  0  0  0  0  0  0
  -30.8285  -23.1966   18.2573 C   0  0  0  0  0  0  0  0  0  0  0  0
  -22.7501   -9.3422   18.2596 C   0  0  0  0  0  0  0  0  0  0  0  0
  -27.3423  -27.5536   19.6901 C   0  0  0  0  0  0  0  0  0  0  0  0
  -21.3783   -7.4394   18.1185 C   0  0  0  0  0  0  0  0  0  0  0  0
  -19.8485   -5.4878   19.3966 C   0  0  0  0  0  0  0  0  0  0  0  0
  -20.2842   -7.8117   18.8995 C   0  0  0  0  0  0  0  0  0  0  0  0
  -24.6526  -12.2478   20.6753 C   0  0  0  0  0  0  0  0  0  0  0  0
  -25.1066  -13.7681   22.1976 C   0  0  0  0  0  0  0  0  0  0  0  0
  -22.7687  -12.8901   22.3041 C   0  0  0  0  0  0  0  0  0  0  0  0
  -25.6588  -32.3240   21.6581 C   0  0  0  0  0  0  0  0  0  0  0  0
  -23.8764  -30.6869   23.8181 C   0  0  0  0  0  0  0  0  0  0  0  0
  -22.9026  -27.6683   25.0777 C   0  0  0  0  0  0  0  0  0  0  0  0
  -29.3184  -17.1759   21.3792 C   0  0  0  0  0  0  0  0  0  0  0  0
  -25.2725  -37.4117   21.8121 C   0  0  0  0  0  0  0  0  0  0  0  0
  -24.4385  -30.6939   20.1715 C   0  0  0  0  0  0  0  0  0  0  0  0
  -30.4538  -25.6344   17.4678 C   0  0  0  0  0  0  0  0  0  0  0  0
  -25.6011  -29.3603   22.5410 C   0  0  0  0  0  0  0  0  0  0  0  0
  -25.2128  -36.2807   22.8357 C   0  0  0  0  0  0  0  0  0  0  0  0
  -29.0792  -26.2932   17.2542 C   0  0  0  0  0  0  0  0  0  0  0  0
  -30.0309  -13.8073   21.0744 C   0  0  0  0  0  0  0  0  0  0  0  0
  -26.3937  -35.3326   22.6532 C   0  0  0  0  0  0  0  0  0  0  0  0
  -28.6531  -13.1468   21.0322 C   0  0  0  0  0  0  0  0  0  0  0  0
  -28.2536  -19.7503   19.2446 C   0  0  0  0  0  0  0  0  0  0  0  0
  -29.1721  -20.6283   21.4343 C   0  0  0  0  0  0  0  0  0  0  0  0
  -30.0451  -15.0927   20.2554 C   0  0  0  0  0  0  0  0  0  0  0  0
  -27.6926  -18.5370   19.9918 C   0  0  0  0  0  0  0  0  0  0  0  0
  -28.5691  -19.4122   22.1315 C   0  0  0  0  0  0  0  0  0  0  0  0
  -27.6259  -15.4399   20.6359 C   0  0  0  0  0  0  0  0  0  0  0  0
  -28.3766  -20.9788   20.1639 C   0  0  0  0  0  0  0  0  0  0  0  0
  -26.3659  -34.6773   21.2671 C   0  0  1  0  0  0  0  0  0  0  0  0
  -28.1591  -25.7562   18.3639 C   0  0  2  0  0  0  0  0  0  1  0  0
  -24.4957  -31.3810   21.5324 C   0  0  1  0  0  0  0  0  0  0  0  0
  -27.5526  -14.1357   21.4557 C   0  0  1  0  0  0  0  0  0  0  0  0
  -32.2195  -23.1175   17.7315 C   0  0  0  0  0  0  0  0  0  0  0  0
  -21.4670  -26.6509   26.8669 C   0  0  0  0  0  0  0  0  0  0  0  0
  -25.9787  -31.4048   25.9097 C   0  0  0  0  0  0  0  0  0  0  0  0
  -25.0223  -29.6201   27.3823 C   0  0  0  0  0  0  0  0  0  0  0  0
  -23.6145  -31.5662   26.7089 C   0  0  0  0  0  0  0  0  0  0  0  0
  -21.2094  -26.2759   23.0895 C   0  0  0  0  0  0  0  0  0  0  0  0
  -24.1795  -29.7937   24.9968 C   0  0  1  0  0  0  0  0  0  0  0  0
  -21.5312  -27.1148   25.4200 C   0  0  2  0  0  0  0  0  0  0  0  0
  -24.7080  -30.5899   26.2232 C   0  0  0  0  0  0  0  0  0  0  0  0
  -25.9266  -12.5786   20.4482 N   0  0  0  0  0  0  0  0  0  0  0  0
  -26.1737  -13.5051   21.3898 N   0  0  0  0  0  0  0  0  0  0  0  0
  -24.5950  -30.4304   22.6418 N   0  0  0  0  0  0  0  0  0  0  0  0
  -28.9840  -16.0033   20.6851 N   0  0  0  0  0  0  0  0  0  0  0  0
  -28.4652  -18.2775   21.2145 N   0  0  0  0  0  0  0  0  0  0  0  0
  -25.1824  -14.6731   23.1964 N   0  0  0  0  0  0  0  0  0  0  0  0
  -21.8491  -12.0035   21.7273 N   0  0  0  0  0  0  0  0  0  0  0  0
  -25.3886  -33.6104   21.2320 N   0  0  0  0  0  0  0  0  0  0  0  0
  -22.9615  -29.0342   25.2572 N   0  0  0  0  0  0  0  0  0  0  0  0
  -21.2057  -25.9567   24.5403 N   0  3  0  0  0  0  0  0  0  0  0  0
  -22.4084  -13.6071   23.2683 O   0  0  0  0  0  0  0  0  0  0  0  0
  -26.7221  -31.9151   22.1097 O   0  0  0  0  0  0  0  0  0  0  0  0
  -23.0280  -31.5748   23.9345 O   0  0  0  0  0  0  0  0  0  0  0  0
  -23.8301  -26.9594   24.6933 O   0  0  0  0  0  0  0  0  0  0  0  0
  -30.3194  -17.2356   22.1041 O   0  0  0  0  0  0  0  0  0  0  0  0
  -22.1382   -8.4069   17.4828 O   0  0  0  0  0  0  0  0  0  0  0  0
  -28.2641  -26.5488   19.5346 O   0  0  0  0  0  0  0  0  0  1  0  0
  -19.1131   -4.5506   20.0090 F   0  0  0  0  0  0  0  0  0  0  0  0
  -19.9624   -9.1051   19.0387 F   0  0  0  0  0  0  0  0  0  0  0  0
  1  2  1  0  0  0  0
  1  5  2  0  0  0  0
  2  6  2  0  0  0  0
  3  8  2  0  0  0  0
  3 17  1  0  0  0  0
  4  9  1  0  0  0  0
  4 17  2  0  0  0  0
  5 19  1  0  0  0  0
  6 21  1  0  0  0  0
  7 10  2  0  0  0  0
  7 20  1  0  0  0  0
  8 27  1  0  0  0  0
  9 27  2  0  0  0  0
 10 28  1  0  0  0  0
 11 12  2  0  0  0  0
 11 29  1  0  0  0  0
 12 30  1  0  0  0  0
 13 22  2  0  0  0  0
 13 23  1  0  0  0  0
 14 22  1  0  0  0  0
 14 26  2  0  0  0  0
 15 24  1  0  0  0  0
 15 28  2  0  0  0  0
 16 30  2  0  0  0  0
 16 31  1  0  0  0  0
 17 32  1  0  0  0  0
 18 32  1  0  0  0  0
 18 33  2  0  0  0  0
 18 34  1  0  0  0  0
 19 21  2  0  0  0  0
 19 39  1  0  0  0  0
 20 24  2  0  0  0  0
 20 40  1  0  0  0  0
 21 55  1  0  0  0  0
 22 54  1  0  0  0  0
 23 25  2  0  0  0  0
 23 56  1  0  0  0  0
 24 42  1  0  0  0  0
 25 26  1  0  0  0  0
 25 41  1  0  0  0  0
 26 59  1  0  0  0  0
 27 83  1  0  0  0  0
 28 84  1  0  0  0  0
 29 31  2  0  0  0  0
 29 83  1  0  0  0  0
 30 85  1  0  0  0  0
 31 86  1  0  0  0  0
 32 68  2  0  0  0  0
 33 69  1  0  0  0  0
 33 73  1  0  0  0  0
 34 74  1  0  0  0  0
 34 78  2  0  0  0  0
 35 57  1  0  0  0  0
 35 75  1  0  0  0  0
 35 79  2  0  0  0  0
 36 65  1  0  0  0  0
 36 70  1  0  0  0  0
 36 80  2  0  0  0  0
 37 66  1  0  0  0  0
 37 76  1  0  0  0  0
 37 81  2  0  0  0  0
 38 71  1  0  0  0  0
 38 72  1  0  0  0  0
 38 82  2  0  0  0  0
 39 43  1  0  0  0  0
 40 57  1  0  0  0  0
 41 44  1  0  0  0  0
 42 70  1  0  0  0  0
 43 46  1  0  0  0  0
 44 56  1  0  0  0  0
 45 47  1  0  0  0  0
 45 50  1  0  0  0  0
 46 55  1  0  0  0  0
 47 58  1  0  0  0  0
 48 51  1  0  0  0  0
 48 54  1  0  0  0  0
 49 52  1  0  0  0  0
 49 54  1  0  0  0  0
 50 71  1  0  0  0  0
 51 72  1  0  0  0  0
 52 72  1  0  0  0  0
 53 58  1  0  0  0  0
 53 71  1  0  0  0  0
 55 75  1  0  0  0  0
 56 84  1  0  0  0  0
 57 70  1  0  0  0  0
 58 69  1  0  0  0  0
 60 66  1  0  0  0  0
 61 67  1  0  0  0  0
 62 67  1  0  0  0  0
 63 67  1  0  0  0  0
 64 77  1  0  0  0  0
 65 67  1  0  0  0  0
 65 76  1  0  0  0  0
 66 77  1  0  0  0  0
 68 69  1  0  0  0  0
M  CHG  1  77   1
M  ISO  4  38 100  56 101  72 100  84 101
M  END
> <Batch ID>
0155

> <Smiles>
CNC(C)C(=O)NC(C(=O)N1Cc2cc([101O:1][101CH:1]3CCc4c(C)cc(C5CC[100N:0]([100C:0](=O)N6CCCC(n7nc(-c8ccc(Oc9ccc(F)cc9F)cc8)c(C(N)=O)c7N)C6)CC5)cc43)ccc2CC1C(=O)NC1CCCc2ccccc21)C(C)(C)C

> <Shape>
0.276

> <Color>
0.086

> <Negative vol penalty>
0.000

$$$$

  -OEChem-04052321543D

 86 95  0     1  0  0  0  0  0999 V2000
  -20.5875   -7.1054   24.4736 C   0  0  0  0  0  0  0  0  0  0  0  0
  -21.5631   -6.9948   23.4879 C   0  0  0  0  0  0  0  0  0  0  0  0
  -23.5140  -29.5041   23.3186 C   0  0  0  0  0  0  0  0  0  0  0  0
  -23.7624  -30.6826   21.2242 C   0  0  0  0  0  0  0  0  0  0  0  0
  -19.7121   -8.1905   24.4677 C   0  0  0  0  0  0  0  0  0  0  0  0
  -21.6631   -7.9689   22.4951 C   0  0  0  0  0  0  0  0  0  0  0  0
  -27.7540  -11.6998   21.5606 C   0  0  0  0  0  0  0  0  0  0  0  0
  -22.1273  -29.5344   23.1711 C   0  0  0  0  0  0  0  0  0  0  0  0
  -22.3757  -30.7128   21.0767 C   0  0  0  0  0  0  0  0  0  0  0  0
  -28.9511  -12.3076   21.1817 C   0  0  0  0  0  0  0  0  0  0  0  0
  -19.7705  -27.8502   21.4271 C   0  0  0  0  0  0  0  0  0  0  0  0
  -19.0651  -26.6755   21.6881 C   0  0  0  0  0  0  0  0  0  0  0  0
  -27.7884  -13.5520   19.4649 C   0  0  0  0  0  0  0  0  0  0  0  0
  -17.8274  -27.8055   23.4284 C   0  0  0  0  0  0  0  0  0  0  0  0
  -24.3316  -30.0783   22.3451 C   0  0  0  0  0  0  0  0  0  0  0  0
  -26.5196  -30.6046   23.5465 C   0  0  0  0  0  0  0  0  0  0  0  0
  -19.8076   -9.1834   23.4800 C   0  0  0  0  0  0  0  0  0  0  0  0
  -26.5654  -12.0277   20.9024 C   0  0  0  0  0  0  0  0  0  0  0  0
  -20.7873   -9.0677   22.4753 C   0  0  0  0  0  0  0  0  0  0  0  0
  -26.5841  -12.9557   19.8483 C   0  0  0  0  0  0  0  0  0  0  0  0
  -21.5582  -30.1387   22.0502 C   0  0  0  0  0  0  0  0  0  0  0  0
  -28.9682  -13.2312   20.1363 C   0  0  0  0  0  0  0  0  0  0  0  0
  -19.5044  -29.0025   22.1668 C   0  0  0  0  0  0  0  0  0  0  0  0
  -18.0935  -26.6532   22.6888 C   0  0  0  0  0  0  0  0  0  0  0  0
  -18.5329  -28.9802   23.1674 C   0  0  0  0  0  0  0  0  0  0  0  0
  -25.7641  -30.0479   22.4971 C   0  0  0  0  0  0  0  0  0  0  0  0
  -27.8219  -30.3066   23.2276 C   0  0  0  0  0  0  0  0  0  0  0  0
  -26.0832  -31.3263   24.7060 C   0  0  0  0  0  0  0  0  0  0  0  0
  -22.8620  -11.4975   20.6195 C   0  0  0  0  0  0  0  0  0  0  0  0
  -23.3637  -14.5003   20.2425 C   0  0  0  0  0  0  0  0  0  0  0  0
  -24.2974  -17.7808   20.2986 C   0  0  0  0  0  0  0  0  0  0  0  0
  -30.3241  -25.9891   19.9186 C   0  0  0  0  0  0  0  0  0  0  0  0
  -18.8086  -10.3133   23.4874 C   0  0  0  0  0  0  0  0  0  0  0  0
  -25.2631  -11.3520   21.2362 C   0  0  0  0  0  0  0  0  0  0  0  0
  -25.2872  -13.2520   19.1460 C   0  0  0  0  0  0  0  0  0  0  0  0
  -19.2220  -11.4976   22.6175 C   0  0  0  0  0  0  0  0  0  0  0  0
  -30.6658  -29.5040   19.4648 C   0  0  0  0  0  0  0  0  0  0  0  0
  -19.7084  -11.0149   21.2547 C   0  0  0  0  0  0  0  0  0  0  0  0
  -29.5165  -30.0922   20.2852 C   0  0  0  0  0  0  0  0  0  0  0  0
  -30.0012  -23.3901   22.5707 C   0  0  0  0  0  0  0  0  0  0  0  0
  -28.7577  -20.0867   19.4279 C   0  0  0  0  0  0  0  0  0  0  0  0
  -29.3668  -19.1901   21.7142 C   0  0  0  0  0  0  0  0  0  0  0  0
  -30.2651  -28.1937   18.7904 C   0  0  0  0  0  0  0  0  0  0  0  0
  -28.5644  -27.7605   20.5207 C   0  0  0  0  0  0  0  0  0  0  0  0
  -30.2069  -21.8844   22.5141 C   0  0  0  0  0  0  0  0  0  0  0  0
  -29.9644  -19.3679   18.8356 C   0  0  0  0  0  0  0  0  0  0  0  0
  -30.5685  -18.4783   21.1038 C   0  0  0  0  0  0  0  0  0  0  0  0
  -29.5713  -22.7709   20.3246 C   0  0  0  0  0  0  0  0  0  0  0  0
  -20.9433  -10.1168   21.3960 C   0  0  1  0  0  0  0  0  0  0  0  0
  -24.0465  -12.2847   21.0978 C   0  0  1  0  0  0  0  0  0  0  0  0
  -28.9382  -29.0537   21.2651 C   0  0  2  0  0  0  0  0  0  0  0  0
  -30.2591  -23.8446   21.1444 C   0  0  1  0  0  0  0  0  0  0  0  0
  -28.9188  -20.4105   20.9120 C   0  0  0  0  0  0  0  0  0  0  0  0
  -23.3572  -20.1000   20.1119 C   0  0  0  0  0  0  0  0  0  0  0  0
  -32.7015  -18.0085   19.3671 C   0  0  0  0  0  0  0  0  0  0  0  0
  -23.0952  -14.1444   17.2250 C   0  0  0  0  0  0  0  0  0  0  0  0
  -23.0967  -16.6382   17.0022 C   0  0  0  0  0  0  0  0  0  0  0  0
  -21.2805  -15.5030   18.2811 C   0  0  0  0  0  0  0  0  0  0  0  0
  -25.2105  -18.4954   23.0216 C   0  0  0  0  0  0  0  0  0  0  0  0
  -31.3336  -15.8971   19.5932 C   0  0  0  0  0  0  0  0  0  0  0  0
  -30.0592  -15.1418   19.2324 C   0  0  0  0  0  0  0  0  0  1  0  0
  -23.6020  -15.6311   19.2741 C   0  0  1  0  0  0  0  0  0  0  0  0
  -23.7435  -18.9732   21.0574 C   0  0  2  0  0  0  0  0  0  0  0  0
  -31.3785  -17.3256   19.0470 C   0  0  1  0  0  0  0  0  0  0  0  0
  -22.7902  -15.4658   17.9585 C   0  0  0  0  0  0  0  0  0  0  0  0
  -26.5232  -29.4424   21.5801 N   0  0  0  0  0  0  0  0  0  0  0  0
  -27.7693  -29.6168   22.0522 N   0  0  0  0  0  0  0  0  0  0  0  0
  -24.2017  -13.3842   20.1303 N   0  0  0  0  0  0  0  0  0  0  0  0
  -29.7262  -27.2520   19.7746 N   0  0  0  0  0  0  0  0  0  0  0  0
  -28.9954  -30.5701   23.8406 N   0  0  0  0  0  0  0  0  0  0  0  0
  -25.9687  -32.7206   24.6211 N   0  0  0  0  0  0  0  0  0  0  0  0
  -22.1254  -10.9169   21.6343 N   0  0  0  0  0  0  0  0  0  0  0  0
  -23.3134  -16.8610   20.0038 N   0  0  0  0  0  0  0  0  0  0  0  0
  -29.7555  -25.1603   20.8780 N   0  0  0  0  0  0  0  0  0  0  0  0
  -29.9231  -21.5011   21.0722 N   0  3  2  0  0  0  0  0  0  0  0  0
  -30.2748  -18.1422   19.6612 N   0  3  0  0  0  0  0  0  0  0  0  0
  -24.7576  -19.4927   22.0179 N   0  3  0  0  0  0  0  0  0  0  0  0
  -25.8189  -30.7535   25.7902 O   0  0  0  0  0  0  0  0  0  0  0  0
  -22.6313  -11.4228   19.4183 O   0  0  0  0  0  0  0  0  0  0  0  0
  -22.4561  -14.5987   21.0732 O   0  0  0  0  0  0  0  0  0  0  0  0
  -25.4837  -17.6776   19.9944 O   0  0  0  0  0  0  0  0  0  0  0  0
  -31.2961  -25.6291   19.2459 O   0  0  0  0  0  0  0  0  0  0  0  0
  -20.2051  -30.1681   21.9059 O   0  0  0  0  0  0  0  0  0  0  0  0
  -30.1397  -13.8242   19.7746 O   0  0  0  0  0  0  0  0  0  1  0  0
  -17.4151  -25.5255   22.9383 F   0  0  0  0  0  0  0  0  0  0  0  0
  -18.2720  -30.0844   23.8805 F   0  0  0  0  0  0  0  0  0  0  0  0
  1  2  1  0  0  0  0
  1  5  2  0  0  0  0
  2  6  2  0  0  0  0
  3  8  2  0  0  0  0
  3 15  1  0  0  0  0
  4  9  1  0  0  0  0
  4 15  2  0  0  0  0
  5 17  1  0  0  0  0
  6 19  1  0  0  0  0
  7 10  2  0  0  0  0
  7 18  1  0  0  0  0
  8 21  1  0  0  0  0
  9 21  2  0  0  0  0
 10 22  1  0  0  0  0
 11 12  2  0  0  0  0
 11 23  1  0  0  0  0
 12 24  1  0  0  0  0
 13 20  1  0  0  0  0
 13 22  2  0  0  0  0
 14 24  2  0  0  0  0
 14 25  1  0  0  0  0
 15 26  1  0  0  0  0
 16 26  1  0  0  0  0
 16 27  2  0  0  0  0
 16 28  1  0  0  0  0
 17 19  2  0  0  0  0
 17 33  1  0  0  0  0
 18 20  2  0  0  0  0
 18 34  1  0  0  0  0
 19 49  1  0  0  0  0
 20 35  1  0  0  0  0
 21 83  1  0  0  0  0
 22 84  1  0  0  0  0
 23 25  2  0  0  0  0
 23 83  1  0  0  0  0
 24 85  1  0  0  0  0
 25 86  1  0  0  0  0
 26 66  2  0  0  0  0
 27 67  1  0  0  0  0
 27 70  1  0  0  0  0
 28 71  1  0  0  0  0
 28 78  2  0  0  0  0
 29 50  1  0  0  0  0
 29 72  1  0  0  0  0
 29 79  2  0  0  0  0
 30 62  1  0  0  0  0
 30 68  1  0  0  0  0
 30 80  2  0  0  0  0
 31 63  1  0  0  0  0
 31 73  1  0  0  0  0
 31 81  2  0  0  0  0
 32 69  1  0  0  0  0
 32 74  1  0  0  0  0
 32 82  2  0  0  0  0
 33 36  1  0  0  0  0
 34 50  1  0  0  0  0
 35 68  1  0  0  0  0
 36 38  1  0  0  0  0
 37 39  1  0  0  0  0
 37 43  1  0  0  0  0
 38 49  1  0  0  0  0
 39 51  1  0  0  0  0
 40 45  1  0  0  0  0
 40 52  1  0  0  0  0
 41 46  1  0  0  0  0
 41 53  1  0  0  0  0
 42 47  1  0  0  0  0
 42 53  1  0  0  0  0
 43 69  1  0  0  0  0
 44 51  1  0  0  0  0
 44 69  1  0  0  0  0
 45 75  1  0  0  0  0
 46 76  1  0  0  0  0
 47 76  1  0  0  0  0
 48 52  1  0  0  0  0
 48 75  1  0  0  0  0
 49 72  1  0  0  0  0
 50 68  1  0  0  0  0
 51 67  1  0  0  0  0
 52 74  1  0  0  0  0
 53 75  1  0  0  0  0
 54 63  1  0  0  0  0
 55 64  1  0  0  0  0
 56 65  1  0  0  0  0
 57 65  1  0  0  0  0
 58 65  1  0  0  0  0
 59 77  1  0  0  0  0
 60 61  1  0  0  0  0
 60 64  1  0  0  0  0
 61 84  1  0  0  0  0
 62 65  1  0  0  0  0
 62 73  1  0  0  0  0
 63 77  1  0  0  0  0
 64 76  1  0  0  0  0
 66 67  1  0  0  0  0
M  CHG  3  75   1  76   1  77   1
M  ISO  4  32 100  61 101  74 100  84 101
M  END
> <Batch ID>
0155

> <Smiles>
CNC(C)C(=O)NC(C(=O)N1Cc2cc([101O:1][101CH2:1]CC(C)N3CCC(N4CCC([100NH:0][100C:0](=O)N5CCCC(n6nc(-c7ccc(Oc8ccc(F)cc8F)cc7)c(C(N)=O)c6N)C5)C4)CC3)ccc2CC1C(=O)NC1CCCc2ccccc21)C(C)(C)C

> <Shape>
0.334

> <Color>
0.062

> <Negative vol penalty>
0.000

$$$$

  -OEChem-04052321543D

 89 98  0     1  0  0  0  0  0999 V2000
  -19.7101  -13.6280   20.2819 C   0  0  0  0  0  0  0  0  0  0  0  0
  -20.2015  -14.8247   19.7703 C   0  0  0  0  0  0  0  0  0  0  0  0
  -21.5839  -21.9416   23.5957 C   0  0  0  0  0  0  0  0  0  0  0  0
  -19.4350  -22.7249   24.3739 C   0  0  0  0  0  0  0  0  0  0  0  0
  -20.4257  -12.9453   21.2647 C   0  0  0  0  0  0  0  0  0  0  0  0
  -21.4084  -15.3400   20.2419 C   0  0  0  0  0  0  0  0  0  0  0  0
  -27.1011  -19.1055   18.0668 C   0  0  0  0  0  0  0  0  0  0  0  0
  -21.3703  -20.7204   24.2351 C   0  0  0  0  0  0  0  0  0  0  0  0
  -19.2214  -21.5038   25.0133 C   0  0  0  0  0  0  0  0  0  0  0  0
  -27.8460  -20.2307   18.4172 C   0  0  0  0  0  0  0  0  0  0  0  0
  -21.5569  -19.4882   27.3769 C   0  0  0  0  0  0  0  0  0  0  0  0
  -22.6107  -18.9518   28.1167 C   0  0  0  0  0  0  0  0  0  0  0  0
  -25.5368  -29.7509   22.3084 C   0  0  0  0  0  0  0  0  0  0  0  0
  -29.0354  -18.9243   20.0597 C   0  0  0  0  0  0  0  0  0  0  0  0
  -22.6028  -16.9905   26.7059 C   0  0  0  0  0  0  0  0  0  0  0  0
  -20.6162  -22.9439   23.6652 C   0  0  0  0  0  0  0  0  0  0  0  0
  -24.2285  -30.1986   22.1255 C   0  0  0  0  0  0  0  0  0  0  0  0
  -21.0473  -24.4205   21.6302 C   0  0  0  0  0  0  0  0  0  0  0  0
  -21.6468  -13.4475   21.7416 C   0  0  0  0  0  0  0  0  0  0  0  0
  -27.3105  -17.8818   18.7189 C   0  0  0  0  0  0  0  0  0  0  0  0
  -22.1403  -14.6641   21.2329 C   0  0  0  0  0  0  0  0  0  0  0  0
  -28.2935  -17.7845   19.7140 C   0  0  0  0  0  0  0  0  0  0  0  0
  -26.3155  -29.4027   21.2047 C   0  0  0  0  0  0  0  0  0  0  0  0
  -23.6988  -30.2981   20.8389 C   0  0  0  0  0  0  0  0  0  0  0  0
  -25.7859  -29.5023   19.9182 C   0  0  0  0  0  0  0  0  0  0  0  0
  -24.4775  -29.9499   19.7353 C   0  0  0  0  0  0  0  0  0  0  0  0
  -20.1891  -20.5015   24.9438 C   0  0  0  0  0  0  0  0  0  0  0  0
  -28.8113  -20.1409   19.4158 C   0  0  0  0  0  0  0  0  0  0  0  0
  -21.0259  -18.7757   26.3016 C   0  0  0  0  0  0  0  0  0  0  0  0
  -23.1337  -17.7030   27.7812 C   0  0  0  0  0  0  0  0  0  0  0  0
  -21.5489  -17.5269   25.9661 C   0  0  0  0  0  0  0  0  0  0  0  0
  -20.8365  -24.2057   23.0054 C   0  0  0  0  0  0  0  0  0  0  0  0
  -21.2028  -25.7803   21.5150 C   0  0  0  0  0  0  0  0  0  0  0  0
  -23.4335  -30.5577   23.3070 C   0  0  0  0  0  0  0  0  0  0  0  0
  -21.0980  -23.4755   20.5532 C   0  0  0  0  0  0  0  0  0  0  0  0
  -25.5243  -15.9642   20.5178 C   0  0  0  0  0  0  0  0  0  0  0  0
  -28.1068  -14.0119   20.3149 C   0  0  0  0  0  0  0  0  0  0  0  0
  -31.4664  -13.6952   19.8054 C   0  0  0  0  0  0  0  0  0  0  0  0
  -22.3611  -12.6983   22.8385 C   0  0  0  0  0  0  0  0  0  0  0  0
  -26.5172  -16.6708   18.3108 C   0  0  0  0  0  0  0  0  0  0  0  0
  -28.5711  -16.4891   20.4305 C   0  0  0  0  0  0  0  0  0  0  0  0
  -23.8174  -13.1202   23.0158 C   0  0  0  0  0  0  0  0  0  0  0  0
  -20.3956  -29.4949   24.8507 C   0  0  0  0  0  0  0  0  0  0  0  0
  -23.9348  -14.6410   23.0287 C   0  0  0  0  0  0  0  0  0  0  0  0
  -20.2640  -28.0351   24.4129 C   0  0  0  0  0  0  0  0  0  0  0  0
  -27.4092  -25.1850   22.1520 C   0  0  0  0  0  0  0  0  0  0  0  0
  -29.3731  -25.5727   20.6284 C   0  0  0  0  0  0  0  0  0  0  0  0
  -21.8532  -29.8841   25.0842 C   0  0  0  0  0  0  0  0  0  0  0  0
  -22.6212  -28.1494   23.5013 C   0  0  0  0  0  0  0  0  0  0  0  0
  -27.3398  -26.6770   22.4379 C   0  0  0  0  0  0  0  0  0  0  0  0
  -29.2992  -27.0638   20.9177 C   0  0  0  0  0  0  0  0  0  0  0  0
  -23.4580  -15.2425   21.7012 C   0  0  1  0  0  0  0  0  0  0  0  0
  -26.4574  -15.6016   19.3974 C   0  0  1  0  0  0  0  0  0  0  0  0
  -21.1715  -27.7308   23.2061 C   0  0  1  0  0  0  0  0  0  0  0  0
  -28.8236  -24.7443   21.7870 C   0  0  0  0  0  0  0  0  0  0  0  0
  -22.2950  -30.7773   20.6415 C   0  0  0  0  0  0  0  0  0  0  0  0
  -26.6233  -29.1283   18.7361 C   0  0  0  0  0  0  0  0  0  0  0  0
  -23.9101  -30.0565   18.3548 C   0  0  0  0  0  0  0  0  0  0  0  0
  -33.2955  -11.9783   19.7386 C   0  0  0  0  0  0  0  0  0  0  0  0
  -28.0859  -13.8745   23.3629 C   0  0  0  0  0  0  0  0  0  0  0  0
  -30.4194  -12.9722   23.2688 C   0  0  0  0  0  0  0  0  0  0  0  0
  -28.5477  -11.6966   22.2237 C   0  0  0  0  0  0  0  0  0  0  0  0
  -32.0911  -14.3018   16.9769 C   0  0  0  0  0  0  0  0  0  0  0  0
  -27.7202  -28.9256   21.4283 C   0  0  0  0  0  0  0  0  0  0  0  0
  -29.9916  -21.3193   21.1111 C   0  0  0  0  0  0  0  0  0  1  0  0
  -30.0849  -22.7780   21.5150 C   0  0  0  0  0  0  0  0  0  0  0  0
  -29.3677  -13.8196   21.1224 C   0  0  1  0  0  0  0  0  0  0  0  0
  -32.2674  -12.7511   18.9270 C   0  0  2  0  0  0  0  0  0  0  0  0
  -29.0989  -13.1158   22.4825 C   0  0  0  0  0  0  0  0  0  0  0  0
  -20.8559  -25.3383   23.7131 N   0  0  0  0  0  0  0  0  0  0  0  0
  -21.0808  -26.2779   22.7790 N   0  0  0  0  0  0  0  0  0  0  0  0
  -22.6692  -29.5589   23.9150 N   0  0  0  0  0  0  0  0  0  0  0  0
  -27.7650  -15.3347   20.0002 N   0  0  0  0  0  0  0  0  0  0  0  0
  -21.4307  -26.5870   20.4568 N   0  0  0  0  0  0  0  0  0  0  0  0
  -19.9073  -23.1599   19.8846 N   0  0  0  0  0  0  0  0  0  0  0  0
  -24.4722  -15.0834   20.6811 N   0  0  0  0  0  0  0  0  0  0  0  0
  -30.3026  -13.1092   20.2565 N   0  0  0  0  0  0  0  0  0  0  0  0
  -27.8738  -27.4403   21.2484 N   0  3  0  0  0  0  0  0  0  0  0  0
  -32.9834  -13.5135   17.8654 N   0  3  0  0  0  0  0  0  0  0  0  0
  -23.4951  -31.7323   23.6669 O   0  0  0  0  0  0  0  0  0  0  0  0
  -22.1647  -22.9147   20.2050 O   0  0  0  0  0  0  0  0  0  0  0  0
  -25.7434  -16.9680   21.1858 O   0  0  0  0  0  0  0  0  0  0  0  0
  -27.4532  -13.0243   19.9698 O   0  0  0  0  0  0  0  0  0  0  0  0
  -31.8379  -14.8368   20.0684 O   0  0  0  0  0  0  0  0  0  0  0  0
  -19.9802  -19.3100   25.5677 O   0  0  0  0  0  0  0  0  0  0  0  0
  -29.5394  -21.2378   19.7601 O   0  0  0  0  0  0  0  0  0  1  0  0
  -28.7943  -23.3689   21.4234 O   0  0  0  0  0  0  0  0  0  0  0  0
  -24.1467  -17.1887   28.4907 F   0  0  0  0  0  0  0  0  0  0  0  0
  -21.0438  -16.8383   24.9334 F   0  0  0  0  0  0  0  0  0  0  0  0
  1  2  1  0  0  0  0
  1  5  2  0  0  0  0
  2  6  2  0  0  0  0
  3  8  2  0  0  0  0
  3 16  1  0  0  0  0
  4  9  1  0  0  0  0
  4 16  2  0  0  0  0
  5 19  1  0  0  0  0
  6 21  1  0  0  0  0
  7 10  2  0  0  0  0
  7 20  1  0  0  0  0
  8 27  1  0  0  0  0
  9 27  2  0  0  0  0
 10 28  1  0  0  0  0
 11 12  2  0  0  0  0
 11 29  1  0  0  0  0
 12 30  1  0  0  0  0
 13 17  2  0  0  0  0
 13 23  1  0  0  0  0
 14 22  1  0  0  0  0
 14 28  2  0  0  0  0
 15 30  2  0  0  0  0
 15 31  1  0  0  0  0
 16 32  1  0  0  0  0
 17 24  1  0  0  0  0
 17 34  1  0  0  0  0
 18 32  1  0  0  0  0
 18 33  2  0  0  0  0
 18 35  1  0  0  0  0
 19 21  2  0  0  0  0
 19 39  1  0  0  0  0
 20 22  2  0  0  0  0
 20 40  1  0  0  0  0
 21 52  1  0  0  0  0
 22 41  1  0  0  0  0
 23 25  2  0  0  0  0
 23 64  1  0  0  0  0
 24 26  2  0  0  0  0
 24 56  1  0  0  0  0
 25 26  1  0  0  0  0
 25 57  1  0  0  0  0
 26 58  1  0  0  0  0
 27 85  1  0  0  0  0
 28 86  1  0  0  0  0
 29 31  2  0  0  0  0
 29 85  1  0  0  0  0
 30 88  1  0  0  0  0
 31 89  1  0  0  0  0
 32 70  2  0  0  0  0
 33 71  1  0  0  0  0
 33 74  1  0  0  0  0
 34 72  1  0  0  0  0
 34 80  2  0  0  0  0
 35 75  1  0  0  0  0
 35 81  2  0  0  0  0
 36 53  1  0  0  0  0
 36 76  1  0  0  0  0
 36 82  2  0  0  0  0
 37 67  1  0  0  0  0
 37 73  1  0  0  0  0
 37 83  2  0  0  0  0
 38 68  1  0  0  0  0
 38 77  1  0  0  0  0
 38 84  2  0  0  0  0
 39 42  1  0  0  0  0
 40 53  1  0  0  0  0
 41 73  1  0  0  0  0
 42 44  1  0  0  0  0
 43 45  1  0  0  0  0
 43 48  1  0  0  0  0
 44 52  1  0  0  0  0
 45 54  1  0  0  0  0
 46 50  1  0  0  0  0
 46 55  1  0  0  0  0
 47 51  1  0  0  0  0
 47 55  1  0  0  0  0
 48 72  1  0  0  0  0
 49 54  1  0  0  0  0
 49 72  1  0  0  0  0
 50 78  1  0  0  0  0
 51 78  1  0  0  0  0
 52 76  1  0  0  0  0
 53 73  1  0  0  0  0
 54 71  1  0  0  0  0
 55 87  1  0  0  0  0
 59 68  1  0  0  0  0
 60 69  1  0  0  0  0
 61 69  1  0  0  0  0
 62 69  1  0  0  0  0
 63 79  1  0  0  0  0
 64 78  1  0  0  0  0
 65 66  1  0  0  0  0
 65 86  1  0  0  0  0
 66 87  1  0  0  0  0
 67 69  1  0  0  0  0
 67 77  1  0  0  0  0
 68 79  1  0  0  0  0
 70 71  1  0  0  0  0
M  CHG  2  78   1  79   1
M  ISO  4  17 100  34 100  65 101  86 101
M  END
> <Batch ID>
0155

> <Smiles>
CNC(C)C(=O)NC(C(=O)N1Cc2cc([101O:1][101CH2:1]COC3CCN(Cc4c[100c:0]([100C:0](=O)N5CCCC(n6nc(-c7ccc(Oc8ccc(F)cc8F)cc7)c(C(N)=O)c6N)C5)c(C)c(C)c4C)CC3)ccc2CC1C(=O)NC1CCCc2ccccc21)C(C)(C)C

> <Shape>
0.230

> <Color>
0.067

> <Negative vol penalty>
0.000

$$$$

  -OEChem-04052321543D

 88 98  0     1  0  0  0  0  0999 V2000
  -32.2229  -27.4503   14.2771 C   0  0  0  0  0  0  0  0  0  0  0  0
  -31.0404  -26.7610   14.5264 C   0  0  0  0  0  0  0  0  0  0  0  0
  -23.1589  -10.0249   19.8224 C   0  0  0  0  0  0  0  0  0  0  0  0
  -23.9293   -9.5943   22.0714 C   0  0  0  0  0  0  0  0  0  0  0  0
  -32.9128  -28.0518   15.3288 C   0  0  0  0  0  0  0  0  0  0  0  0
  -30.5477  -26.6720   15.8278 C   0  0  0  0  0  0  0  0  0  0  0  0
  -24.6688  -26.6146   17.5428 C   0  0  0  0  0  0  0  0  0  0  0  0
  -22.4509   -8.8231   19.8348 C   0  0  0  0  0  0  0  0  0  0  0  0
  -23.2213   -8.3925   22.0838 C   0  0  0  0  0  0  0  0  0  0  0  0
  -23.7999  -25.5775   17.8789 C   0  0  0  0  0  0  0  0  0  0  0  0
  -23.6084   -5.2603   20.8711 C   0  0  0  0  0  0  0  0  0  0  0  0
  -24.2576   -4.1308   21.3694 C   0  0  0  0  0  0  0  0  0  0  0  0
  -25.1936  -19.5208   19.9845 C   0  0  0  0  0  0  0  0  0  0  0  0
  -24.5948  -20.3784   17.7877 C   0  0  0  0  0  0  0  0  0  0  0  0
  -24.2890  -25.9326   20.2142 C   0  0  0  0  0  0  0  0  0  0  0  0
  -22.5600   -3.9069   23.0738 C   0  0  0  0  0  0  0  0  0  0  0  0
  -23.8981  -10.4104   20.9407 C   0  0  0  0  0  0  0  0  0  0  0  0
  -24.1639  -12.9174   21.3306 C   0  0  0  0  0  0  0  0  0  0  0  0
  -32.4232  -27.9783   16.6424 C   0  0  0  0  0  0  0  0  0  0  0  0
  -25.3639  -27.3126   18.5409 C   0  0  0  0  0  0  0  0  0  0  0  0
  -31.2324  -27.2719   16.8983 C   0  0  0  0  0  0  0  0  0  0  0  0
  -25.3629  -19.5280   18.5983 C   0  0  0  0  0  0  0  0  0  0  0  0
  -24.2436  -20.3649   20.5345 C   0  0  0  0  0  0  0  0  0  0  0  0
  -25.1642  -26.9799   19.8883 C   0  0  0  0  0  0  0  0  0  0  0  0
  -23.4814  -21.2189   19.7275 C   0  0  0  0  0  0  0  0  0  0  0  0
  -22.4821   -8.0069   20.9655 C   0  0  0  0  0  0  0  0  0  0  0  0
  -23.6120  -25.2344   19.2146 C   0  0  0  0  0  0  0  0  0  0  0  0
  -22.4350   -5.7132   21.4743 C   0  0  0  0  0  0  0  0  0  0  0  0
  -23.6475  -21.2354   18.3518 C   0  0  0  0  0  0  0  0  0  0  0  0
  -23.7335   -3.4541   22.4707 C   0  0  0  0  0  0  0  0  0  0  0  0
  -21.9108   -5.0365   22.5756 C   0  0  0  0  0  0  0  0  0  0  0  0
  -24.6301  -11.6515   20.9283 C   0  0  0  0  0  0  0  0  0  0  0  0
  -25.2315  -13.7572   21.1266 C   0  0  0  0  0  0  0  0  0  0  0  0
  -22.8807  -13.3001   21.8430 C   0  0  0  0  0  0  0  0  0  0  0  0
  -28.4308  -27.7327   19.2629 C   0  0  0  0  0  0  0  0  0  0  0  0
  -27.2281  -29.7864   21.4670 C   0  0  0  0  0  0  0  0  0  0  0  0
  -24.5844  -30.7327   23.4067 C   0  0  0  0  0  0  0  0  0  0  0  0
  -29.4654  -15.6081   18.2004 C   0  0  0  0  0  0  0  0  0  0  0  0
  -33.2287  -28.6041   17.7534 C   0  0  0  0  0  0  0  0  0  0  0  0
  -26.2772  -28.4465   18.1635 C   0  0  0  0  0  0  0  0  0  0  0  0
  -23.9124  -20.5563   21.9804 C   0  0  0  0  0  0  0  0  0  0  0  0
  -25.8711  -27.7117   20.9989 C   0  0  0  0  0  0  0  0  0  0  0  0
  -32.4426  -28.7824   19.0498 C   0  0  0  0  0  0  0  0  0  0  0  0
  -22.5534  -21.2674   21.8837 C   0  0  0  0  0  0  0  0  0  0  0  0
  -30.0684  -12.7600   20.0650 C   0  0  0  0  0  0  0  0  0  0  0  0
  -31.6737  -27.5089   19.3872 C   0  0  0  0  0  0  0  0  0  0  0  0
  -28.6732  -12.3087   20.4973 C   0  0  0  0  0  0  0  0  0  0  0  0
  -27.8146  -18.9125   18.4262 C   0  0  0  0  0  0  0  0  0  0  0  0
  -26.0431  -17.1202   18.2014 C   0  0  0  0  0  0  0  0  0  0  0  0
  -30.0633  -13.2410   18.6183 C   0  0  0  0  0  0  0  0  0  0  0  0
  -28.8271  -17.9581   17.7977 C   0  0  0  0  0  0  0  0  0  0  0  0
  -27.0944  -16.2075   17.5767 C   0  0  0  0  0  0  0  0  0  0  0  0
  -27.6851  -13.8991   18.7773 C   0  0  0  0  0  0  0  0  0  0  0  0
  -26.3816  -18.6020   17.9604 C   0  0  0  0  0  0  0  0  0  0  0  0
  -22.5488  -22.0560   20.5564 C   0  0  1  0  0  0  0  0  0  0  0  0
  -30.6530  -27.1744   18.2929 C   0  0  1  0  0  0  0  0  0  0  0  0
  -27.3253  -28.7498   19.2297 C   0  0  1  0  0  0  0  0  0  0  0  0
  -27.6315  -13.4116   20.2390 C   0  0  1  0  0  0  0  0  0  0  0  0
  -23.9148  -32.4250   25.1344 C   0  0  0  0  0  0  0  0  0  0  0  0
  -28.8265  -28.2644   23.5738 C   0  0  0  0  0  0  0  0  0  0  0  0
  -27.4136  -29.3523   25.3312 C   0  0  0  0  0  0  0  0  0  0  0  0
  -28.8470  -30.7506   23.8436 C   0  0  0  0  0  0  0  0  0  0  0  0
  -22.4399  -31.8184   21.6800 C   0  0  0  0  0  0  0  0  0  0  0  0
  -23.1670  -21.9687   16.1418 C   0  0  0  0  0  0  0  0  0  0  0  0
  -23.0580  -23.4826   20.7246 C   0  0  0  0  0  0  0  0  0  1  0  0
  -26.7667  -29.6674   22.8995 C   0  0  1  0  0  0  0  0  0  0  0  0
  -23.9494  -32.0896   23.6515 C   0  0  2  0  0  0  0  0  0  0  0  0
  -27.9514  -29.4934   23.8912 C   0  0  0  0  0  0  0  0  0  0  0  0
  -25.8952  -11.6798   20.5009 N   0  0  0  0  0  0  0  0  0  0  0  0
  -26.2331  -12.9737   20.6334 N   0  0  0  0  0  0  0  0  0  0  0  0
  -26.7586  -28.8086   20.5787 N   0  0  0  0  0  0  0  0  0  0  0  0
  -29.0571  -14.2825   18.4127 N   0  0  0  0  0  0  0  0  0  0  0  0
  -28.4509  -16.5619   18.0159 N   0  0  0  0  0  0  0  0  0  0  0  0
  -25.4017  -15.0819   21.3227 N   0  0  0  0  0  0  0  0  0  0  0  0
  -21.8979  -12.3116   21.9895 N   0  0  0  0  0  0  0  0  0  0  0  0
  -29.4845  -28.0193   18.4162 N   0  0  0  0  0  0  0  0  0  0  0  0
  -25.9368  -30.8387   23.1596 N   0  0  0  0  0  0  0  0  0  0  0  0
  -22.5525  -32.1090   23.1325 N   0  3  0  0  0  0  0  0  0  0  0  0
  -22.6081  -14.4864   22.1460 O   0  0  0  0  0  0  0  0  0  0  0  0
  -28.3355  -26.7607   20.0030 O   0  0  0  0  0  0  0  0  0  0  0  0
  -27.9718  -30.7169   21.1466 O   0  0  0  0  0  0  0  0  0  0  0  0
  -23.9454  -29.6832   23.4356 O   0  0  0  0  0  0  0  0  0  0  0  0
  -30.6616  -15.9238   18.1820 O   0  0  0  0  0  0  0  0  0  0  0  0
  -21.7912   -6.8343   20.9780 O   0  0  0  0  0  0  0  0  0  0  0  0
  -22.9077  -22.0369   17.5448 O   0  0  0  0  0  0  0  0  0  0  0  0
  -22.7576  -24.2133   19.5483 O   0  0  0  0  0  0  0  0  0  1  0  0
  -24.3562   -2.3685   22.9481 F   0  0  0  0  0  0  0  0  0  0  0  0
  -20.7832   -5.4661   23.1585 F   0  0  0  0  0  0  0  0  0  0  0  0
  1  2  1  0  0  0  0
  1  5  2  0  0  0  0
  2  6  2  0  0  0  0
  3  8  2  0  0  0  0
  3 17  1  0  0  0  0
  4  9  1  0  0  0  0
  4 17  2  0  0  0  0
  5 19  1  0  0  0  0
  6 21  1  0  0  0  0
  7 10  2  0  0  0  0
  7 20  1  0  0  0  0
  8 26  1  0  0  0  0
  9 26  2  0  0  0  0
 10 27  1  0  0  0  0
 11 12  2  0  0  0  0
 11 28  1  0  0  0  0
 12 30  1  0  0  0  0
 13 22  2  0  0  0  0
 13 23  1  0  0  0  0
 14 22  1  0  0  0  0
 14 29  2  0  0  0  0
 15 24  1  0  0  0  0
 15 27  2  0  0  0  0
 16 30  2  0  0  0  0
 16 31  1  0  0  0  0
 17 32  1  0  0  0  0
 18 32  1  0  0  0  0
 18 33  2  0  0  0  0
 18 34  1  0  0  0  0
 19 21  2  0  0  0  0
 19 39  1  0  0  0  0
 20 24  2  0  0  0  0
 20 40  1  0  0  0  0
 21 56  1  0  0  0  0
 22 54  1  0  0  0  0
 23 25  2  0  0  0  0
 23 41  1  0  0  0  0
 24 42  1  0  0  0  0
 25 29  1  0  0  0  0
 25 55  1  0  0  0  0
 26 84  1  0  0  0  0
 27 86  1  0  0  0  0
 28 31  2  0  0  0  0
 28 84  1  0  0  0  0
 29 85  1  0  0  0  0
 30 87  1  0  0  0  0
 31 88  1  0  0  0  0
 32 69  2  0  0  0  0
 33 70  1  0  0  0  0
 33 74  1  0  0  0  0
 34 75  1  0  0  0  0
 34 79  2  0  0  0  0
 35 57  1  0  0  0  0
 35 76  1  0  0  0  0
 35 80  2  0  0  0  0
 36 66  1  0  0  0  0
 36 71  1  0  0  0  0
 36 81  2  0  0  0  0
 37 67  1  0  0  0  0
 37 77  1  0  0  0  0
 37 82  2  0  0  0  0
 38 72  1  0  0  0  0
 38 73  1  0  0  0  0
 38 83  2  0  0  0  0
 39 43  1  0  0  0  0
 40 57  1  0  0  0  0
 41 44  1  0  0  0  0
 42 71  1  0  0  0  0
 43 46  1  0  0  0  0
 44 55  1  0  0  0  0
 45 47  1  0  0  0  0
 45 50  1  0  0  0  0
 46 56  1  0  0  0  0
 47 58  1  0  0  0  0
 48 51  1  0  0  0  0
 48 54  1  0  0  0  0
 49 52  1  0  0  0  0
 49 54  1  0  0  0  0
 50 72  1  0  0  0  0
 51 73  1  0  0  0  0
 52 73  1  0  0  0  0
 53 58  1  0  0  0  0
 53 72  1  0  0  0  0
 55 65  1  0  0  0  0
 56 76  1  0  0  0  0
 57 71  1  0  0  0  0
 58 70  1  0  0  0  0
 59 67  1  0  0  0  0
 60 68  1  0  0  0  0
 61 68  1  0  0  0  0
 62 68  1  0  0  0  0
 63 78  1  0  0  0  0
 64 85  1  0  0  0  0
 65 86  1  0  0  0  0
 66 68  1  0  0  0  0
 66 77  1  0  0  0  0
 67 78  1  0  0  0  0
 69 70  1  0  0  0  0
M  CHG  1  78   1
M  ISO  4  38 100  65 101  73 100  86 101
M  END
> <Batch ID>
0155

> <Smiles>
CNC(C)C(=O)NC(C(=O)N1Cc2cc([101O:1][101CH2:1]C3CCc4cc(C5CC[100N:0]([100C:0](=O)N6CCCC(n7nc(-c8ccc(Oc9ccc(F)cc9F)cc8)c(C(N)=O)c7N)C6)CC5)cc(OC)c43)ccc2CC1C(=O)NC1CCCc2ccccc21)C(C)(C)C

> <Shape>
0.246

> <Color>
0.170

> <Negative vol penalty>
0.000

$$$$

  -OEChem-04052321543D

 93102  0     1  0  0  0  0  0999 V2000
  -19.0603  -32.9171   16.5323 C   0  0  0  0  0  0  0  0  0  0  0  0
  -19.9434  -32.5663   15.5162 C   0  0  0  0  0  0  0  0  0  0  0  0
  -22.6721  -10.1769   20.1896 C   0  0  0  0  0  0  0  0  0  0  0  0
  -24.3149   -9.4478   21.8040 C   0  0  0  0  0  0  0  0  0  0  0  0
  -19.4472  -32.7891   17.8656 C   0  0  0  0  0  0  0  0  0  0  0  0
  -21.2145  -32.0882   15.8330 C   0  0  0  0  0  0  0  0  0  0  0  0
  -24.7024  -25.4084   13.7734 C   0  0  0  0  0  0  0  0  0  0  0  0
  -21.9435   -9.0067   20.4024 C   0  0  0  0  0  0  0  0  0  0  0  0
  -23.5863   -8.2776   22.0169 C   0  0  0  0  0  0  0  0  0  0  0  0
  -25.3640  -24.1918   13.6058 C   0  0  0  0  0  0  0  0  0  0  0  0
  -20.8295   -7.3389   23.7314 C   0  0  0  0  0  0  0  0  0  0  0  0
  -20.6355   -6.9290   25.0504 C   0  0  0  0  0  0  0  0  0  0  0  0
  -29.1102  -19.7434   20.1854 C   0  0  0  0  0  0  0  0  0  0  0  0
  -26.5758  -24.5545   15.6668 C   0  0  0  0  0  0  0  0  0  0  0  0
  -31.5618  -18.4121   20.1900 C   0  0  0  0  0  0  0  0  0  0  0  0
  -21.7774   -4.8540   24.5734 C   0  0  0  0  0  0  0  0  0  0  0  0
  -23.8578  -10.3975   20.8903 C   0  0  0  0  0  0  0  0  0  0  0  0
  -24.1744  -12.9287   20.8731 C   0  0  0  0  0  0  0  0  0  0  0  0
  -20.7201  -32.3001   18.1990 C   0  0  0  0  0  0  0  0  0  0  0  0
  -24.9640  -26.1964   14.8977 C   0  0  0  0  0  0  0  0  0  0  0  0
  -21.6192  -31.9548   17.1720 C   0  0  0  0  0  0  0  0  0  0  0  0
  -30.1239  -20.1459   19.3160 C   0  0  0  0  0  0  0  0  0  0  0  0
  -25.9070  -25.7682   15.8465 C   0  0  0  0  0  0  0  0  0  0  0  0
  -29.3222  -18.6754   21.0572 C   0  0  0  0  0  0  0  0  0  0  0  0
  -31.3497  -19.4802   19.3182 C   0  0  0  0  0  0  0  0  0  0  0  0
  -30.5480  -18.0097   21.0595 C   0  0  0  0  0  0  0  0  0  0  0  0
  -22.4006   -8.0570   21.3161 C   0  0  0  0  0  0  0  0  0  0  0  0
  -26.2986  -23.7660   14.5500 C   0  0  0  0  0  0  0  0  0  0  0  0
  -21.4973   -6.5064   22.8333 C   0  0  0  0  0  0  0  0  0  0  0  0
  -21.1095   -5.6866   25.4715 C   0  0  0  0  0  0  0  0  0  0  0  0
  -21.9713   -5.2639   23.2543 C   0  0  0  0  0  0  0  0  0  0  0  0
  -24.6112  -11.6059   20.6705 C   0  0  0  0  0  0  0  0  0  0  0  0
  -25.2528  -13.7039   20.5231 C   0  0  0  0  0  0  0  0  0  0  0  0
  -22.9071  -13.4135   21.3364 C   0  0  0  0  0  0  0  0  0  0  0  0
  -24.2062  -29.3437   16.7941 C   0  0  0  0  0  0  0  0  0  0  0  0
  -24.4881  -27.1002   18.8672 C   0  0  0  0  0  0  0  0  0  0  0  0
  -24.4605  -24.2804   20.7869 C   0  0  0  0  0  0  0  0  0  0  0  0
  -30.7296  -14.7681   20.6575 C   0  0  0  0  0  0  0  0  0  0  0  0
  -21.1104  -32.2239   19.6539 C   0  0  0  0  0  0  0  0  0  0  0  0
  -24.3201  -27.5429   15.0880 C   0  0  0  0  0  0  0  0  0  0  0  0
  -26.1818  -26.6650   17.0226 C   0  0  0  0  0  0  0  0  0  0  0  0
  -22.3396  -31.3558   19.9101 C   0  0  0  0  0  0  0  0  0  0  0  0
  -29.5705  -12.4770   18.1908 C   0  0  0  0  0  0  0  0  0  0  0  0
  -23.4462  -31.6903   18.9150 C   0  0  0  0  0  0  0  0  0  0  0  0
  -28.1439  -12.1508   18.6362 C   0  0  0  0  0  0  0  0  0  0  0  0
  -28.4708  -21.9806   18.4537 C   0  0  0  0  0  0  0  0  0  0  0  0
  -30.1260  -20.9583   16.8852 C   0  0  0  0  0  0  0  0  0  0  0  0
  -30.5073  -12.6552   19.3836 C   0  0  0  0  0  0  0  0  0  0  0  0
  -28.6245  -13.3073   20.8340 C   0  0  0  0  0  0  0  0  0  0  0  0
  -27.3554  -21.1456   17.8306 C   0  0  0  0  0  0  0  0  0  0  0  0
  -29.0285  -20.0835   16.2947 C   0  0  0  0  0  0  0  0  0  0  0  0
  -22.9976  -31.4090   17.4758 C   0  0  1  0  0  0  0  0  0  0  0  0
  -24.0325  -27.8712   16.5640 C   0  0  1  0  0  0  0  0  0  0  0  0
  -27.6307  -13.1737   19.6675 C   0  0  2  0  0  0  0  0  0  0  0  0
  -29.8675  -21.3198   18.3682 C   0  0  0  0  0  0  0  0  0  0  0  0
  -28.2224  -18.2629   21.9796 C   0  0  0  0  0  0  0  0  0  0  0  0
  -24.1959  -23.5175   23.1629 C   0  0  0  0  0  0  0  0  0  0  0  0
  -25.9201  -19.0484   13.4852 C   0  0  0  0  0  0  0  0  0  0  0  0
  -27.3179  -28.0562   19.4853 C   0  0  0  0  0  0  0  0  0  0  0  0
  -27.3462  -26.4862   21.4353 C   0  0  0  0  0  0  0  0  0  0  0  0
  -25.6860  -28.3464   21.3580 C   0  0  0  0  0  0  0  0  0  0  0  0
  -22.0710  -22.6648   20.1242 C   0  0  0  0  0  0  0  0  0  0  0  0
  -34.7862  -19.9867   18.1634 C   0  0  0  0  0  0  0  0  0  0  0  0
  -30.7983  -16.8642   21.9844 C   0  0  0  0  0  0  0  0  0  0  0  0
  -32.4496  -19.8929   18.3960 C   0  0  0  0  0  0  0  0  0  0  0  0
  -26.6030  -20.0566   15.7184 C   0  0  0  0  0  0  0  0  0  0  0  0
  -26.2268  -21.5495   13.6901 C   0  0  0  0  0  0  0  0  0  1  0  0
  -25.3975  -26.3628   19.8173 C   0  0  1  0  0  0  0  0  0  0  0  0
  -23.4881  -23.7914   21.8451 C   0  0  2  0  0  0  0  0  0  0  0  0
  -26.6837  -20.1740   14.1920 C   0  0  2  0  0  0  0  0  0  0  0  0
  -26.4319  -27.3032   20.4977 C   0  0  0  0  0  0  0  0  0  0  0  0
  -25.8690  -11.5406   20.2260 N   0  0  0  0  0  0  0  0  0  0  0  0
  -26.2318  -12.8322   20.1464 N   0  0  0  0  0  0  0  0  0  0  0  0
  -24.9194  -27.2157   17.5402 N   0  0  0  0  0  0  0  0  0  0  0  0
  -29.9636  -13.6393   20.3227 N   0  0  0  0  0  0  0  0  0  0  0  0
  -25.4497  -15.0393   20.5037 N   0  0  0  0  0  0  0  0  0  0  0  0
  -21.9098  -12.4807   21.6522 N   0  0  0  0  0  0  0  0  0  0  0  0
  -23.0532  -29.9899   17.1974 N   0  0  0  0  0  0  0  0  0  0  0  0
  -24.5265  -25.6572   20.7511 N   0  0  0  0  0  0  0  0  0  0  0  0
  -30.1374  -15.6540   21.5493 N   0  0  0  0  0  0  0  0  0  0  0  0
  -27.7101  -20.8097   16.4034 N   0  3  0  0  0  0  0  0  0  0  0  0
  -22.8248  -22.5341   21.3977 N   0  3  0  0  0  0  0  0  0  0  0  0
  -22.6607  -14.6381   21.4509 O   0  0  0  0  0  0  0  0  0  0  0  0
  -25.3053  -29.8569   16.6205 O   0  0  0  0  0  0  0  0  0  0  0  0
  -23.4262  -27.5671   19.2888 O   0  0  0  0  0  0  0  0  0  0  0  0
  -25.1004  -23.5172   20.0668 O   0  0  0  0  0  0  0  0  0  0  0  0
  -31.8554  -14.9741   20.1917 O   0  0  0  0  0  0  0  0  0  0  0  0
  -30.8253  -22.3200   18.7540 O   0  0  0  0  0  0  0  0  0  0  0  0
  -21.6898   -6.9151   21.5243 O   0  0  0  0  0  0  0  0  0  0  0  0
  -26.9376  -22.5751   14.3824 O   0  0  0  0  0  0  0  0  0  1  0  0
  -33.7035  -19.6111   19.0037 O   0  0  0  0  0  0  0  0  0  0  0  0
  -20.9245   -5.2937   26.7386 F   0  0  0  0  0  0  0  0  0  0  0  0
  -22.6147   -4.4602   22.3965 F   0  0  0  0  0  0  0  0  0  0  0  0
  1  2  1  0  0  0  0
  1  5  2  0  0  0  0
  2  6  2  0  0  0  0
  3  8  2  0  0  0  0
  3 17  1  0  0  0  0
  4  9  1  0  0  0  0
  4 17  2  0  0  0  0
  5 19  1  0  0  0  0
  6 21  1  0  0  0  0
  7 10  2  0  0  0  0
  7 20  1  0  0  0  0
  8 27  1  0  0  0  0
  9 27  2  0  0  0  0
 10 28  1  0  0  0  0
 11 12  2  0  0  0  0
 11 29  1  0  0  0  0
 12 30  1  0  0  0  0
 13 22  1  0  0  0  0
 13 24  2  0  0  0  0
 14 23  1  0  0  0  0
 14 28  2  0  0  0  0
 15 25  1  0  0  0  0
 15 26  2  0  0  0  0
 16 30  2  0  0  0  0
 16 31  1  0  0  0  0
 17 32  1  0  0  0  0
 18 32  1  0  0  0  0
 18 33  2  0  0  0  0
 18 34  1  0  0  0  0
 19 21  2  0  0  0  0
 19 39  1  0  0  0  0
 20 23  2  0  0  0  0
 20 40  1  0  0  0  0
 21 52  1  0  0  0  0
 22 25  2  0  0  0  0
 22 55  1  0  0  0  0
 23 41  1  0  0  0  0
 24 26  1  0  0  0  0
 24 56  1  0  0  0  0
 25 65  1  0  0  0  0
 26 64  1  0  0  0  0
 27 89  1  0  0  0  0
 28 90  1  0  0  0  0
 29 31  2  0  0  0  0
 29 89  1  0  0  0  0
 30 92  1  0  0  0  0
 31 93  1  0  0  0  0
 32 72  2  0  0  0  0
 33 73  1  0  0  0  0
 33 76  1  0  0  0  0
 34 77  1  0  0  0  0
 34 83  2  0  0  0  0
 35 53  1  0  0  0  0
 35 78  1  0  0  0  0
 35 84  2  0  0  0  0
 36 68  1  0  0  0  0
 36 74  1  0  0  0  0
 36 85  2  0  0  0  0
 37 69  1  0  0  0  0
 37 79  1  0  0  0  0
 37 86  2  0  0  0  0
 38 75  1  0  0  0  0
 38 80  1  0  0  0  0
 38 87  2  0  0  0  0
 39 42  1  0  0  0  0
 40 53  1  0  0  0  0
 41 74  1  0  0  0  0
 42 44  1  0  0  0  0
 43 45  1  0  0  0  0
 43 48  1  0  0  0  0
 44 52  1  0  0  0  0
 45 54  1  0  0  0  0
 46 50  1  0  0  0  0
 46 55  1  0  0  0  0
 47 51  1  0  0  0  0
 47 55  1  0  0  0  0
 48 75  1  0  0  0  0
 49 54  1  0  0  0  0
 49 75  1  0  0  0  0
 50 81  1  0  0  0  0
 51 81  1  0  0  0  0
 52 78  1  0  0  0  0
 53 74  1  0  0  0  0
 54 73  1  0  0  0  0
 55 88  1  0  0  0  0
 57 69  1  0  0  0  0
 58 70  1  0  0  0  0
 59 71  1  0  0  0  0
 60 71  1  0  0  0  0
 61 71  1  0  0  0  0
 62 82  1  0  0  0  0
 63 91  1  0  0  0  0
 64 80  1  0  0  0  0
 65 91  1  0  0  0  0
 66 70  1  0  0  0  0
 66 81  1  0  0  0  0
 67 70  1  0  0  0  0
 67 90  1  0  0  0  0
 68 71  1  0  0  0  0
 68 79  1  0  0  0  0
 69 82  1  0  0  0  0
 72 73  1  0  0  0  0
M  CHG  2  81   1  82   1
M  ISO  4  38 100  67 101  80 100  90 101
M  END
> <Batch ID>
0155

> <Smiles>
CNC(C)C(=O)NC(C(=O)N1Cc2cc([101O:1][101CH2:1]C(C)CN3CCC(O)(c4cc(C)c(C[100NH:0][100C:0](=O)N5CCCC(n6nc(-c7ccc(Oc8ccc(F)cc8F)cc7)c(C(N)=O)c6N)C5)cc4COC)CC3)ccc2CC1C(=O)NC1CCCc2ccccc21)C(C)(C)C

> <Shape>
0.254

> <Color>
0.178

> <Negative vol penalty>
0.000

$$$$

  -OEChem-04052321543D

 91101  0     1  0  0  0  0  0999 V2000
  -16.1438  -28.4245   23.4570 C   0  0  0  0  0  0  0  0  0  0  0  0
  -17.0769  -27.5772   24.0460 C   0  0  0  0  0  0  0  0  0  0  0  0
  -23.5300  -10.1395   22.4106 C   0  0  0  0  0  0  0  0  0  0  0  0
  -23.3335  -10.0158   20.0057 C   0  0  0  0  0  0  0  0  0  0  0  0
  -16.5429  -29.3136   22.4599 C   0  0  0  0  0  0  0  0  0  0  0  0
  -18.4095  -27.6178   23.6374 C   0  0  0  0  0  0  0  0  0  0  0  0
  -23.3607  -26.7457   27.1347 C   0  0  0  0  0  0  0  0  0  0  0  0
  -22.6730   -9.0462   22.5369 C   0  0  0  0  0  0  0  0  0  0  0  0
  -22.4765   -8.9225   20.1320 C   0  0  0  0  0  0  0  0  0  0  0  0
  -24.1775  -25.6355   27.3439 C   0  0  0  0  0  0  0  0  0  0  0  0
  -22.8658   -5.6832   22.2440 C   0  0  0  0  0  0  0  0  0  0  0  0
  -23.2250   -4.6783   23.1422 C   0  0  0  0  0  0  0  0  0  0  0  0
  -25.7197  -26.4648   25.6847 C   0  0  0  0  0  0  0  0  0  0  0  0
  -21.1842   -5.0547   24.3793 C   0  0  0  0  0  0  0  0  0  0  0  0
  -23.8602  -10.6243   21.1450 C   0  0  0  0  0  0  0  0  0  0  0  0
  -26.1479  -11.7263   20.9005 C   0  0  0  0  0  0  0  0  0  0  0  0
  -17.8829  -29.3718   22.0456 C   0  0  0  0  0  0  0  0  0  0  0  0
  -23.7123  -27.7201   26.1894 C   0  0  0  0  0  0  0  0  0  0  0  0
  -18.8266  -28.5075   22.6328 C   0  0  0  0  0  0  0  0  0  0  0  0
  -24.9069  -27.5878   25.4671 C   0  0  0  0  0  0  0  0  0  0  0  0
  -28.5351  -21.2507   29.0882 C   0  0  0  0  0  0  0  0  0  0  0  0
  -27.6108  -22.3017   28.9922 C   0  0  0  0  0  0  0  0  0  0  0  0
  -27.7426  -20.3644   26.9751 C   0  0  0  0  0  0  0  0  0  0  0  0
  -28.6043  -20.2922   28.0691 C   0  0  0  0  0  0  0  0  0  0  0  0
  -26.7439  -22.3616   27.8934 C   0  0  0  0  0  0  0  0  0  0  0  0
  -26.8119  -21.3972   26.8882 C   0  0  0  0  0  0  0  0  0  0  0  0
  -22.1463   -8.4377   21.3976 C   0  0  0  0  0  0  0  0  0  0  0  0
  -25.3557  -25.4934   26.6168 C   0  0  0  0  0  0  0  0  0  0  0  0
  -21.6658   -6.3739   22.4135 C   0  0  0  0  0  0  0  0  0  0  0  0
  -22.3842   -4.3640   24.2098 C   0  0  0  0  0  0  0  0  0  0  0  0
  -20.8250   -6.0596   23.4811 C   0  0  0  0  0  0  0  0  0  0  0  0
  -24.7450  -11.7540   21.0139 C   0  0  0  0  0  0  0  0  0  0  0  0
  -26.5106  -13.0474   20.8021 C   0  0  0  0  0  0  0  0  0  0  0  0
  -27.0432  -10.6065   20.8854 C   0  0  0  0  0  0  0  0  0  0  0  0
  -22.4011  -28.8251   23.5130 C   0  0  0  0  0  0  0  0  0  0  0  0
  -24.8411  -30.9576   23.6592 C   0  0  0  0  0  0  0  0  0  0  0  0
  -27.9736  -31.7030   24.7900 C   0  0  0  0  0  0  0  0  0  0  0  0
  -26.1413  -18.3128   22.2720 C   0  0  0  0  0  0  0  0  0  0  0  0
  -18.2577  -30.3162   20.9310 C   0  0  0  0  0  0  0  0  0  0  0  0
  -22.8338  -28.9253   25.9946 C   0  0  0  0  0  0  0  0  0  0  0  0
  -29.4934  -21.1945   30.2485 C   0  0  0  0  0  0  0  0  0  0  0  0
  -25.3397  -28.6160   24.4552 C   0  0  0  0  0  0  0  0  0  0  0  0
  -27.5062  -23.3283   30.0876 C   0  0  0  0  0  0  0  0  0  0  0  0
  -19.7605  -30.5593   20.8183 C   0  0  0  0  0  0  0  0  0  0  0  0
  -23.7179  -17.1930   20.0763 C   0  0  0  0  0  0  0  0  0  0  0  0
  -20.5218  -29.2394   20.8903 C   0  0  0  0  0  0  0  0  0  0  0  0
  -23.8756  -15.6729   20.1055 C   0  0  0  0  0  0  0  0  0  0  0  0
  -26.5154  -18.5126   25.7560 C   0  0  0  0  0  0  0  0  0  0  0  0
  -28.2026  -19.9388   24.5194 C   0  0  0  0  0  0  0  0  0  0  0  0
  -23.8578  -17.7830   21.4748 C   0  0  0  0  0  0  0  0  0  0  0  0
  -26.5887  -17.4835   24.6242 C   0  0  0  0  0  0  0  0  0  0  0  0
  -28.2558  -18.8678   23.4337 C   0  0  0  0  0  0  0  0  0  0  0  0
  -25.3158  -15.9165   22.1881 C   0  0  0  0  0  0  0  0  0  0  0  0
  -27.8198  -19.3210   25.8765 C   0  0  0  0  0  0  0  0  0  0  0  0
  -20.2861  -28.5393   22.2341 C   0  0  1  0  0  0  0  0  0  0  0  0
  -23.0312  -29.5957   24.6385 C   0  0  1  0  0  0  0  0  0  0  0  0
  -25.1899  -15.2664   20.7952 C   0  0  1  0  0  0  0  0  0  0  0  0
  -29.0128  -22.0251   31.4532 C   0  0  0  0  0  0  0  0  0  0  0  0
  -29.6101  -19.1847   28.1341 C   0  0  0  0  0  0  0  0  0  0  0  0
  -25.8845  -21.4701   25.7157 C   0  0  0  0  0  0  0  0  0  0  0  0
  -27.8913  -21.3262   32.2383 C   0  0  0  0  0  0  0  0  0  0  0  0
  -30.1934  -22.2619   32.4056 C   0  0  0  0  0  0  0  0  0  0  0  0
  -29.7177  -33.5058   24.7155 C   0  0  0  0  0  0  0  0  0  0  0  0
  -25.5602  -30.1408   20.8087 C   0  0  0  0  0  0  0  0  0  0  0  0
  -27.7935  -31.2240   21.1360 C   0  0  0  0  0  0  0  0  0  0  0  0
  -25.7137  -32.5957   21.2606 C   0  0  0  0  0  0  0  0  0  0  0  0
  -27.8974  -32.0590   27.7271 C   0  0  0  0  0  0  0  0  0  0  0  0
  -25.7282  -23.4577   27.7887 C   0  0  0  0  0  0  0  0  0  1  0  0
  -26.2588  -30.9972   23.1420 C   0  0  1  0  0  0  0  0  0  0  0  0
  -28.5296  -32.9377   25.4761 C   0  0  2  0  0  0  0  0  0  0  0  0
  -26.3227  -31.2189   21.6044 C   0  0  0  0  0  0  0  0  0  0  0  0
  -24.2501  -12.9943   20.9901 N   0  0  0  0  0  0  0  0  0  0  0  0
  -25.3481  -13.7584   20.8606 N   0  0  0  0  0  0  0  0  0  0  0  0
  -24.4438  -29.7734   24.2961 N   0  0  0  0  0  0  0  0  0  0  0  0
  -25.1159  -17.3712   22.0971 N   0  0  0  0  0  0  0  0  0  0  0  0
  -26.9985  -18.1234   23.3665 N   0  0  0  0  0  0  0  0  0  0  0  0
  -27.7072  -13.6586   20.6721 N   0  0  0  0  0  0  0  0  0  0  0  0
  -26.5034   -9.3179   20.9965 N   0  0  0  0  0  0  0  0  0  0  0  0
  -21.0817  -29.1579   23.2727 N   0  0  0  0  0  0  0  0  0  0  0  0
  -26.9496  -32.0183   23.9222 N   0  0  0  0  0  0  0  0  0  0  0  0
  -28.9723  -32.6063   26.8599 N   0  3  0  0  0  0  0  0  0  0  0  0
  -28.2865  -10.7455   20.7930 O   0  0  0  0  0  0  0  0  0  0  0  0
  -23.0635  -27.9915   22.9064 O   0  0  0  0  0  0  0  0  0  0  0  0
  -24.1152  -31.9438   23.5102 O   0  0  0  0  0  0  0  0  0  0  0  0
  -28.4071  -30.5722   24.9999 O   0  0  0  0  0  0  0  0  0  0  0  0
  -26.2837  -19.2661   21.4961 O   0  0  0  0  0  0  0  0  0  0  0  0
  -28.6112  -23.3240   30.9938 O   0  0  0  0  0  0  0  0  0  0  0  0
  -21.3102   -7.3708   21.5205 O   0  0  0  0  0  0  0  0  0  0  0  0
  -26.1606  -24.4020   26.8202 O   0  0  0  0  0  0  0  0  0  1  0  0
  -22.7285   -3.3979   25.0714 F   0  0  0  0  0  0  0  0  0  0  0  0
  -19.6703   -6.7188   23.6485 F   0  0  0  0  0  0  0  0  0  0  0  0
  1  2  1  0  0  0  0
  1  5  2  0  0  0  0
  2  6  2  0  0  0  0
  3  8  2  0  0  0  0
  3 15  1  0  0  0  0
  4  9  1  0  0  0  0
  4 15  2  0  0  0  0
  5 17  1  0  0  0  0
  6 19  1  0  0  0  0
  7 10  2  0  0  0  0
  7 18  1  0  0  0  0
  8 27  1  0  0  0  0
  9 27  2  0  0  0  0
 10 28  1  0  0  0  0
 11 12  2  0  0  0  0
 11 29  1  0  0  0  0
 12 30  1  0  0  0  0
 13 20  1  0  0  0  0
 13 28  2  0  0  0  0
 14 30  2  0  0  0  0
 14 31  1  0  0  0  0
 15 32  1  0  0  0  0
 16 32  1  0  0  0  0
 16 33  2  0  0  0  0
 16 34  1  0  0  0  0
 17 19  2  0  0  0  0
 17 39  1  0  0  0  0
 18 20  2  0  0  0  0
 18 40  1  0  0  0  0
 19 55  1  0  0  0  0
 20 42  1  0  0  0  0
 21 22  1  0  0  0  0
 21 24  2  0  0  0  0
 21 41  1  0  0  0  0
 22 25  2  0  0  0  0
 22 43  1  0  0  0  0
 23 24  1  0  0  0  0
 23 26  2  0  0  0  0
 23 54  1  0  0  0  0
 24 59  1  0  0  0  0
 25 26  1  0  0  0  0
 25 68  1  0  0  0  0
 26 60  1  0  0  0  0
 27 88  1  0  0  0  0
 28 89  1  0  0  0  0
 29 31  2  0  0  0  0
 29 88  1  0  0  0  0
 30 90  1  0  0  0  0
 31 91  1  0  0  0  0
 32 72  2  0  0  0  0
 33 73  1  0  0  0  0
 33 77  1  0  0  0  0
 34 78  1  0  0  0  0
 34 82  2  0  0  0  0
 35 56  1  0  0  0  0
 35 79  1  0  0  0  0
 35 83  2  0  0  0  0
 36 69  1  0  0  0  0
 36 74  1  0  0  0  0
 36 84  2  0  0  0  0
 37 70  1  0  0  0  0
 37 80  1  0  0  0  0
 37 85  2  0  0  0  0
 38 75  1  0  0  0  0
 38 76  1  0  0  0  0
 38 86  2  0  0  0  0
 39 44  1  0  0  0  0
 40 56  1  0  0  0  0
 41 58  1  0  0  0  0
 42 74  1  0  0  0  0
 43 87  1  0  0  0  0
 44 46  1  0  0  0  0
 45 47  1  0  0  0  0
 45 50  1  0  0  0  0
 46 55  1  0  0  0  0
 47 57  1  0  0  0  0
 48 51  1  0  0  0  0
 48 54  1  0  0  0  0
 49 52  1  0  0  0  0
 49 54  1  0  0  0  0
 50 75  1  0  0  0  0
 51 76  1  0  0  0  0
 52 76  1  0  0  0  0
 53 57  1  0  0  0  0
 53 75  1  0  0  0  0
 55 79  1  0  0  0  0
 56 74  1  0  0  0  0
 57 73  1  0  0  0  0
 58 61  1  0  0  0  0
 58 62  1  0  0  0  0
 58 87  1  0  0  0  0
 63 70  1  0  0  0  0
 64 71  1  0  0  0  0
 65 71  1  0  0  0  0
 66 71  1  0  0  0  0
 67 81  1  0  0  0  0
 68 89  1  0  0  0  0
 69 71  1  0  0  0  0
 69 80  1  0  0  0  0
 70 81  1  0  0  0  0
 72 73  1  0  0  0  0
M  CHG  1  81   1
M  ISO  4  38 100  68 101  76 100  89 101
M  END
> <Batch ID>
0155

> <Smiles>
CNC(C)C(=O)NC(C(=O)N1Cc2cc([101O:1][101CH2:1]c3c(C)c(C4CC[100N:0]([100C:0](=O)N5CCCC(n6nc(-c7ccc(Oc8ccc(F)cc8F)cc7)c(C(N)=O)c6N)C5)CC4)c(C)c4c3COC(C)(C)C4)ccc2CC1C(=O)NC1CCCc2ccccc21)C(C)(C)C

> <Shape>
0.224

> <Color>
0.097

> <Negative vol penalty>
0.000

$$$$

  -OEChem-04052321543D

 88 98  0     1  0  0  0  0  0999 V2000
  -40.1869  -14.1654   36.4909 C   0  0  0  0  0  0  0  0  0  0  0  0
  -39.3184  -15.0546   35.8660 C   0  0  0  0  0  0  0  0  0  0  0  0
  -23.0777   -9.8722   19.9361 C   0  0  0  0  0  0  0  0  0  0  0  0
  -23.8199   -9.8766   22.2352 C   0  0  0  0  0  0  0  0  0  0  0  0
  -41.3129  -13.6999   35.8131 C   0  0  0  0  0  0  0  0  0  0  0  0
  -39.5760  -15.4796   34.5631 C   0  0  0  0  0  0  0  0  0  0  0  0
  -29.5626  -17.6020   26.7250 C   0  0  0  0  0  0  0  0  0  0  0  0
  -29.8608  -16.9370   25.5358 C   0  0  0  0  0  0  0  0  0  0  0  0
  -35.4390  -15.4097   31.6432 C   0  0  0  0  0  0  0  0  0  0  0  0
  -22.3235   -8.7248   20.1817 C   0  0  0  0  0  0  0  0  0  0  0  0
  -23.0657   -8.7292   22.4809 C   0  0  0  0  0  0  0  0  0  0  0  0
  -34.5326  -16.4576   31.7982 C   0  0  0  0  0  0  0  0  0  0  0  0
  -19.3585   -7.9516   21.6113 C   0  0  0  0  0  0  0  0  0  0  0  0
  -18.0551   -7.9142   21.1160 C   0  0  0  0  0  0  0  0  0  0  0  0
  -31.5588  -16.6903   27.7355 C   0  0  0  0  0  0  0  0  0  0  0  0
  -35.4460  -17.5293   29.8395 C   0  0  0  0  0  0  0  0  0  0  0  0
  -18.6107   -5.9654   19.8005 C   0  0  0  0  0  0  0  0  0  0  0  0
  -23.8259  -10.4481   20.9628 C   0  0  0  0  0  0  0  0  0  0  0  0
  -24.1871  -12.9705   20.8423 C   0  0  0  0  0  0  0  0  0  0  0  0
  -30.4116  -17.4788   27.8249 C   0  0  0  0  0  0  0  0  0  0  0  0
  -41.5792  -14.1119   34.4978 C   0  0  0  0  0  0  0  0  0  0  0  0
  -36.3646  -15.4191   30.5898 C   0  0  0  0  0  0  0  0  0  0  0  0
  -40.7073  -15.0201   33.8675 C   0  0  0  0  0  0  0  0  0  0  0  0
  -31.0080  -16.1485   25.4464 C   0  0  0  0  0  0  0  0  0  0  0  0
  -36.3614  -16.4791   29.6719 C   0  0  0  0  0  0  0  0  0  0  0  0
  -22.3175   -8.1533   21.4542 C   0  0  0  0  0  0  0  0  0  0  0  0
  -34.5379  -17.5191   30.8979 C   0  0  0  0  0  0  0  0  0  0  0  0
  -20.2881   -6.9959   21.2011 C   0  0  0  0  0  0  0  0  0  0  0  0
  -31.8570  -16.0252   26.5463 C   0  0  0  0  0  0  0  0  0  0  0  0
  -17.6812   -6.9212   20.2107 C   0  0  0  0  0  0  0  0  0  0  0  0
  -19.9142   -6.0028   20.2958 C   0  0  0  0  0  0  0  0  0  0  0  0
  -24.6056  -11.6330   20.7096 C   0  0  0  0  0  0  0  0  0  0  0  0
  -25.2874  -13.7116   20.4866 C   0  0  0  0  0  0  0  0  0  0  0  0
  -22.9172  -13.4961   21.2508 C   0  0  0  0  0  0  0  0  0  0  0  0
  -39.5367  -15.4650   30.3912 C   0  0  0  0  0  0  0  0  0  0  0  0
  -38.9544  -15.1017   27.2208 C   0  0  0  0  0  0  0  0  0  0  0  0
  -36.7958  -15.4988   24.6075 C   0  0  0  0  0  0  0  0  0  0  0  0
  -30.8545  -14.5516   20.8870 C   0  0  0  0  0  0  0  0  0  0  0  0
  -42.8342  -13.6183   33.8225 C   0  0  0  0  0  0  0  0  0  0  0  0
  -37.3180  -14.2681   30.4209 C   0  0  0  0  0  0  0  0  0  0  0  0
  -37.3212  -16.5267   28.5122 C   0  0  0  0  0  0  0  0  0  0  0  0
  -42.8341  -13.8259   32.3102 C   0  0  0  0  0  0  0  0  0  0  0  0
  -29.6253  -12.3628   18.3120 C   0  0  0  0  0  0  0  0  0  0  0  0
  -42.3745  -15.2390   31.9653 C   0  0  0  0  0  0  0  0  0  0  0  0
  -28.1975  -12.0408   18.7403 C   0  0  0  0  0  0  0  0  0  0  0  0
  -29.8640  -19.6822   29.0619 C   0  0  0  0  0  0  0  0  0  0  0  0
  -30.5343  -12.5202   19.5236 C   0  0  0  0  0  0  0  0  0  0  0  0
  -30.2372  -14.5220   23.4322 C   0  0  0  0  0  0  0  0  0  0  0  0
  -31.3426  -16.2051   22.7698 C   0  0  0  0  0  0  0  0  0  0  0  0
  -28.6309  -13.2952   20.9129 C   0  0  0  0  0  0  0  0  0  0  0  0
  -30.0930  -18.1902   29.0950 C   0  0  2  0  0  0  0  0  0  0  0  0
  -31.3321  -15.3978   24.0883 C   0  0  0  0  0  0  0  0  0  0  0  0
  -40.9393  -15.4851   32.4462 C   0  0  1  0  0  0  0  0  0  0  0  0
  -38.5582  -14.6334   29.6111 C   0  0  1  0  0  0  0  0  0  0  0  0
  -31.1160  -19.1354   29.6804 C   0  0  2  0  0  0  0  0  0  0  0  0
  -27.6769  -13.1051   19.7169 C   0  0  2  0  0  0  0  0  0  0  0  0
  -35.9139  -15.3064   22.2660 C   0  0  0  0  0  0  0  0  0  0  0  0
  -40.7125  -17.5497   26.7450 C   0  0  0  0  0  0  0  0  0  0  0  0
  -39.7441  -17.7110   24.4419 C   0  0  0  0  0  0  0  0  0  0  0  0
  -41.0473  -15.6904   25.1062 C   0  0  0  0  0  0  0  0  0  0  0  0
  -35.5396  -12.8792   25.1720 C   0  0  0  0  0  0  0  0  0  0  0  0
  -33.7929  -15.1872   27.6444 C   0  0  0  0  0  0  0  0  0  0  0  0
  -32.3972  -18.2381   31.6440 C   0  0  0  0  0  0  0  0  0  1  0  0
  -38.7323  -16.0411   26.0601 C   0  0  1  0  0  0  0  0  0  0  0  0
  -36.3621  -14.5485   23.5060 C   0  0  2  0  0  0  0  0  0  0  0  0
  -31.3111  -19.1994   31.1563 C   0  0  1  0  0  0  0  0  0  0  0  0
  -40.0421  -16.7484   25.6112 C   0  0  0  0  0  0  0  0  0  0  0  0
  -25.8729  -11.5274   20.3011 N   0  0  0  0  0  0  0  0  0  0  0  0
  -26.2602  -12.8081   20.1741 N   0  0  0  0  0  0  0  0  0  0  0  0
  -38.2381  -15.3809   28.3933 N   0  0  0  0  0  0  0  0  0  0  0  0
  -30.0179  -13.5076   20.4764 N   0  0  0  0  0  0  0  0  0  0  0  0
  -30.6969  -15.0497   22.1589 N   0  0  0  0  0  0  0  0  0  0  0  0
  -25.5081  -15.0414   20.4135 N   0  0  0  0  0  0  0  0  0  0  0  0
  -21.8961  -12.5948   21.5814 N   0  0  0  0  0  0  0  0  0  0  0  0
  -39.9914  -14.8613   31.5480 N   0  0  0  0  0  0  0  0  0  0  0  0
  -38.0902  -15.2526   25.0140 N   0  0  0  0  0  0  0  0  0  0  0  0
  -35.2304  -13.6979   23.9715 N   0  3  0  0  0  0  0  0  0  0  0  0
  -22.6895  -14.7285   21.3048 O   0  0  0  0  0  0  0  0  0  0  0  0
  -39.8566  -16.5718   29.9737 O   0  0  0  0  0  0  0  0  0  0  0  0
  -39.7293  -14.1509   27.0896 O   0  0  0  0  0  0  0  0  0  0  0  0
  -36.0612  -16.3744   25.0593 O   0  0  0  0  0  0  0  0  0  0  0  0
  -31.7389  -15.0082   20.1505 O   0  0  0  0  0  0  0  0  0  0  0  0
  -31.6860  -20.5303   31.5141 O   0  0  0  0  0  0  0  0  0  0  0  0
  -21.5815   -7.0339   21.6943 O   0  0  0  0  0  0  0  0  0  0  0  0
  -32.9806  -15.2586   26.4742 O   0  0  0  0  0  0  0  0  0  0  0  0
  -33.6479  -18.5512   31.0484 O   0  0  0  0  0  0  0  0  0  1  0  0
  -16.4290   -6.8845   19.7364 F   0  0  0  0  0  0  0  0  0  0  0  0
  -20.8025   -5.0813   19.8990 F   0  0  0  0  0  0  0  0  0  0  0  0
  1  2  1  0  0  0  0
  1  5  2  0  0  0  0
  2  6  2  0  0  0  0
  3 10  2  0  0  0  0
  3 18  1  0  0  0  0
  4 11  1  0  0  0  0
  4 18  2  0  0  0  0
  5 21  1  0  0  0  0
  6 23  1  0  0  0  0
  7  8  2  0  0  0  0
  7 20  1  0  0  0  0
  8 24  1  0  0  0  0
  9 12  2  0  0  0  0
  9 22  1  0  0  0  0
 10 26  1  0  0  0  0
 11 26  2  0  0  0  0
 12 27  1  0  0  0  0
 13 14  2  0  0  0  0
 13 28  1  0  0  0  0
 14 30  1  0  0  0  0
 15 20  2  0  0  0  0
 15 29  1  0  0  0  0
 16 25  1  0  0  0  0
 16 27  2  0  0  0  0
 17 30  2  0  0  0  0
 17 31  1  0  0  0  0
 18 32  1  0  0  0  0
 19 32  1  0  0  0  0
 19 33  2  0  0  0  0
 19 34  1  0  0  0  0
 20 51  1  0  0  0  0
 21 23  2  0  0  0  0
 21 39  1  0  0  0  0
 22 25  2  0  0  0  0
 22 40  1  0  0  0  0
 23 53  1  0  0  0  0
 24 29  2  0  0  0  0
 24 52  1  0  0  0  0
 25 41  1  0  0  0  0
 26 84  1  0  0  0  0
 27 86  1  0  0  0  0
 28 31  2  0  0  0  0
 28 84  1  0  0  0  0
 29 85  1  0  0  0  0
 30 87  1  0  0  0  0
 31 88  1  0  0  0  0
 32 68  2  0  0  0  0
 33 69  1  0  0  0  0
 33 73  1  0  0  0  0
 34 74  1  0  0  0  0
 34 78  2  0  0  0  0
 35 54  1  0  0  0  0
 35 75  1  0  0  0  0
 35 79  2  0  0  0  0
 36 64  1  0  0  0  0
 36 70  1  0  0  0  0
 36 80  2  0  0  0  0
 37 65  1  0  0  0  0
 37 76  1  0  0  0  0
 37 81  2  0  0  0  0
 38 71  1  0  0  0  0
 38 72  1  0  0  0  0
 38 82  2  0  0  0  0
 39 42  1  0  0  0  0
 40 54  1  0  0  0  0
 41 70  1  0  0  0  0
 42 44  1  0  0  0  0
 43 45  1  0  0  0  0
 43 47  1  0  0  0  0
 44 53  1  0  0  0  0
 45 56  1  0  0  0  0
 46 51  1  0  0  0  0
 46 55  1  0  0  0  0
 47 71  1  0  0  0  0
 48 52  1  0  0  0  0
 48 72  1  0  0  0  0
 49 52  1  0  0  0  0
 49 72  1  0  0  0  0
 50 56  1  0  0  0  0
 50 71  1  0  0  0  0
 51 55  1  0  0  0  0
 53 75  1  0  0  0  0
 54 70  1  0  0  0  0
 55 66  1  0  0  0  0
 56 69  1  0  0  0  0
 57 65  1  0  0  0  0
 58 67  1  0  0  0  0
 59 67  1  0  0  0  0
 60 67  1  0  0  0  0
 61 77  1  0  0  0  0
 62 85  1  0  0  0  0
 63 66  1  0  0  0  0
 63 86  1  0  0  0  0
 64 67  1  0  0  0  0
 64 76  1  0  0  0  0
 65 77  1  0  0  0  0
 66 83  1  0  0  0  0
 68 69  1  0  0  0  0
M  CHG  1  77   1
M  ISO  4  38 100  63 101  72 100  86 101
M  END
> <Batch ID>
0155

> <Smiles>
CNC(C)C(=O)NC(C(=O)N1Cc2cc([101O:1][101CH2:1]C(O)C3CC3c3ccc(C4C[100N:0]([100C:0](=O)N5CCCC(n6nc(-c7ccc(Oc8ccc(F)cc8F)cc7)c(C(N)=O)c6N)C5)C4)c(OC)c3)ccc2CC1C(=O)NC1CCCc2ccccc21)C(C)(C)C

> <Shape>
0.135

> <Color>
0.186

> <Negative vol penalty>
0.000

$$$$

  -OEChem-04052321543D

 89 98  0     1  0  0  0  0  0999 V2000
  -29.4324  -36.5471   20.0609 C   0  0  0  0  0  0  0  0  0  0  0  0
  -29.5857  -35.1773   19.8725 C   0  0  0  0  0  0  0  0  0  0  0  0
  -22.2244   -7.6312   23.9395 C   0  0  0  0  0  0  0  0  0  0  0  0
  -24.0311   -6.7875   22.5754 C   0  0  0  0  0  0  0  0  0  0  0  0
  -28.5809  -37.0215   21.0578 C   0  0  0  0  0  0  0  0  0  0  0  0
  -28.8883  -34.2810   20.6817 C   0  0  0  0  0  0  0  0  0  0  0  0
  -26.6154  -28.8372   19.0372 C   0  0  0  0  0  0  0  0  0  0  0  0
  -22.3386   -6.5217   24.7771 C   0  0  0  0  0  0  0  0  0  0  0  0
  -24.1454   -5.6779   23.4130 C   0  0  0  0  0  0  0  0  0  0  0  0
  -27.0925  -27.5362   19.1913 C   0  0  0  0  0  0  0  0  0  0  0  0
  -21.3999   -3.2747   24.7512 C   0  0  0  0  0  0  0  0  0  0  0  0
  -20.2241   -2.6316   25.1376 C   0  0  0  0  0  0  0  0  0  0  0  0
  -25.7559  -27.2885   21.1842 C   0  0  0  0  0  0  0  0  0  0  0  0
  -20.7368   -3.0862   27.4544 C   0  0  0  0  0  0  0  0  0  0  0  0
  -23.0706   -7.7641   22.8386 C   0  0  0  0  0  0  0  0  0  0  0  0
  -21.8235   -9.3000   21.2283 C   0  0  0  0  0  0  0  0  0  0  0  0
  -27.8654  -36.1306   21.8733 C   0  0  0  0  0  0  0  0  0  0  0  0
  -25.7118  -29.3782   19.9632 C   0  0  0  0  0  0  0  0  0  0  0  0
  -28.0275  -34.7439   21.6913 C   0  0  0  0  0  0  0  0  0  0  0  0
  -25.2669  -28.5956   21.0382 C   0  0  0  0  0  0  0  0  0  0  0  0
  -29.6377  -22.0116   21.1218 C   0  0  0  0  0  0  0  0  0  0  0  0
  -28.2296  -21.2323   19.3199 C   0  0  0  0  0  0  0  0  0  0  0  0
  -29.2966  -23.3296   20.8183 C   0  0  0  0  0  0  0  0  0  0  0  0
  -27.8885  -22.5503   19.0164 C   0  0  0  0  0  0  0  0  0  0  0  0
  -29.1042  -20.9629   20.3726 C   0  0  0  0  0  0  0  0  0  0  0  0
  -28.4221  -23.5990   19.7656 C   0  0  0  0  0  0  0  0  0  0  0  0
  -23.2991   -5.5451   24.5138 C   0  0  0  0  0  0  0  0  0  0  0  0
  -26.6650  -26.7627   20.2664 C   0  0  0  0  0  0  0  0  0  0  0  0
  -22.2443   -3.8235   25.7163 C   0  0  0  0  0  0  0  0  0  0  0  0
  -19.8925   -2.5373   26.4892 C   0  0  0  0  0  0  0  0  0  0  0  0
  -21.9128   -3.7293   27.0679 C   0  0  0  0  0  0  0  0  0  0  0  0
  -22.9527   -8.9097   21.9727 C   0  0  0  0  0  0  0  0  0  0  0  0
  -22.2197  -10.4425   20.5770 C   0  0  0  0  0  0  0  0  0  0  0  0
  -20.5318   -8.6849   21.1340 C   0  0  0  0  0  0  0  0  0  0  0  0
  -25.7681  -31.8345   21.9799 C   0  0  0  0  0  0  0  0  0  0  0  0
  -22.6646  -31.0166   22.4506 C   0  0  0  0  0  0  0  0  0  0  0  0
  -20.2531  -28.6050   22.3263 C   0  0  0  0  0  0  0  0  0  0  0  0
  -26.5930  -14.3405   21.9677 C   0  0  0  0  0  0  0  0  0  0  0  0
  -26.9931  -36.6903   22.9689 C   0  0  0  0  0  0  0  0  0  0  0  0
  -25.1861  -30.7739   19.7680 C   0  0  0  0  0  0  0  0  0  0  0  0
  -24.2822  -29.1227   22.0487 C   0  0  0  0  0  0  0  0  0  0  0  0
  -26.0031  -35.6766   23.5370 C   0  0  0  0  0  0  0  0  0  0  0  0
  -26.6889  -11.4944   19.3852 C   0  0  0  0  0  0  0  0  0  0  0  0
  -26.7007  -34.3499   23.8197 C   0  0  0  0  0  0  0  0  0  0  0  0
  -29.8950  -17.9756   22.6436 C   0  0  0  0  0  0  0  0  0  0  0  0
  -27.5675  -18.8730   22.2368 C   0  0  0  0  0  0  0  0  0  0  0  0
  -25.1734  -11.4757   19.2098 C   0  0  0  0  0  0  0  0  0  0  0  0
  -29.4959  -16.6449   22.0051 C   0  0  0  0  0  0  0  0  0  0  0  0
  -27.1641  -17.5435   21.5983 C   0  0  0  0  0  0  0  0  0  0  0  0
  -27.1479  -12.7986   20.0299 C   0  0  0  0  0  0  0  0  0  0  0  0
  -25.3602  -12.2072   21.6660 C   0  0  0  0  0  0  0  0  0  0  0  0
  -27.2692  -33.7403   22.5326 C   0  0  1  0  0  0  0  0  0  0  0  0
  -24.6643  -31.4015   21.0569 C   0  0  1  0  0  0  0  0  0  0  0  0
  -29.0712  -19.1635   22.1261 C   0  0  0  0  0  0  0  0  0  0  0  0
  -24.4200  -11.7956   20.5193 C   0  0  2  0  0  0  0  0  0  0  0  0
  -27.9951  -16.3831   22.1488 C   0  0  0  0  0  0  0  0  0  0  0  0
  -30.5757  -21.7225   22.2513 C   0  0  0  0  0  0  0  0  0  0  0  0
  -27.6567  -20.1076   18.5160 C   0  0  0  0  0  0  0  0  0  0  0  0
  -29.8692  -24.4544   21.6222 C   0  0  0  0  0  0  0  0  0  0  0  0
  -26.9490  -22.8398   17.8882 C   0  0  0  0  0  0  0  0  0  0  0  0
  -17.8200  -28.2254   22.8093 C   0  0  0  0  0  0  0  0  0  0  0  0
  -23.2774  -30.9049   25.4376 C   0  0  0  0  0  0  0  0  0  0  0  0
  -21.1460  -29.6305   25.7563 C   0  0  0  0  0  0  0  0  0  0  0  0
  -21.0835  -31.9582   24.8614 C   0  0  0  0  0  0  0  0  0  0  0  0
  -19.6770  -27.9385   19.5009 C   0  0  0  0  0  0  0  0  0  0  0  0
  -29.4692  -19.5488   20.6987 C   0  0  0  0  0  0  0  0  0  0  0  0
  -28.0531  -25.0167   19.4413 C   0  0  0  0  0  0  0  0  0  1  0  0
  -21.9346  -30.0869   23.3897 C   0  0  1  0  0  0  0  0  0  0  0  0
  -18.8460  -28.6159   21.7569 C   0  0  2  0  0  0  0  0  0  0  0  0
  -21.8804  -30.6356   24.8435 C   0  0  0  0  0  0  0  0  0  0  0  0
  -23.9887   -9.7369   21.8101 N   0  0  0  0  0  0  0  0  0  0  0  0
  -23.5120  -10.6584   20.9558 N   0  0  0  0  0  0  0  0  0  0  0  0
  -23.8021  -30.4952   21.8181 N   0  0  0  0  0  0  0  0  0  0  0  0
  -26.3695  -13.1688   21.2187 N   0  0  0  0  0  0  0  0  0  0  0  0
  -21.5853  -11.2734   19.7228 N   0  0  0  0  0  0  0  0  0  0  0  0
  -20.3222   -7.7200   20.1393 N   0  0  0  0  0  0  0  0  0  0  0  0
  -26.2147  -33.1231   21.7571 N   0  0  0  0  0  0  0  0  0  0  0  0
  -20.6254  -29.8483   22.7919 N   0  0  0  0  0  0  0  0  0  0  0  0
  -27.6280  -15.1456   21.4989 N   0  0  0  0  0  0  0  0  0  0  0  0
  -18.7401  -27.6589   20.6194 N   0  3  0  0  0  0  0  0  0  0  0  0
  -19.5864   -8.9940   21.8984 O   0  0  0  0  0  0  0  0  0  0  0  0
  -26.1827  -31.0577   22.8321 O   0  0  0  0  0  0  0  0  0  0  0  0
  -22.2370  -32.1609   22.2789 O   0  0  0  0  0  0  0  0  0  0  0  0
  -20.9508  -27.5936   22.3586 O   0  0  0  0  0  0  0  0  0  0  0  0
  -25.9309  -14.6400   22.9659 O   0  0  0  0  0  0  0  0  0  0  0  0
  -23.4109   -4.4624   25.3310 O   0  0  0  0  0  0  0  0  0  0  0  0
  -27.1296  -25.4928   20.4195 O   0  0  0  0  0  0  0  0  0  1  0  0
  -18.7625   -1.9211   26.8601 F   0  0  0  0  0  0  0  0  0  0  0  0
  -22.7194   -4.2556   27.9997 F   0  0  0  0  0  0  0  0  0  0  0  0
  1  2  1  0  0  0  0
  1  5  2  0  0  0  0
  2  6  2  0  0  0  0
  3  8  2  0  0  0  0
  3 15  1  0  0  0  0
  4  9  1  0  0  0  0
  4 15  2  0  0  0  0
  5 17  1  0  0  0  0
  6 19  1  0  0  0  0
  7 10  2  0  0  0  0
  7 18  1  0  0  0  0
  8 27  1  0  0  0  0
  9 27  2  0  0  0  0
 10 28  1  0  0  0  0
 11 12  2  0  0  0  0
 11 29  1  0  0  0  0
 12 30  1  0  0  0  0
 13 20  1  0  0  0  0
 13 28  2  0  0  0  0
 14 30  2  0  0  0  0
 14 31  1  0  0  0  0
 15 32  1  0  0  0  0
 16 32  1  0  0  0  0
 16 33  2  0  0  0  0
 16 34  1  0  0  0  0
 17 19  2  0  0  0  0
 17 39  1  0  0  0  0
 18 20  2  0  0  0  0
 18 40  1  0  0  0  0
 19 52  1  0  0  0  0
 20 41  1  0  0  0  0
 21 23  2  0  0  0  0
 21 25  1  0  0  0  0
 21 57  1  0  0  0  0
 22 24  1  0  0  0  0
 22 25  2  0  0  0  0
 22 58  1  0  0  0  0
 23 26  1  0  0  0  0
 23 59  1  0  0  0  0
 24 26  2  0  0  0  0
 24 60  1  0  0  0  0
 25 66  1  0  0  0  0
 26 67  1  0  0  0  0
 27 86  1  0  0  0  0
 28 87  1  0  0  0  0
 29 31  2  0  0  0  0
 29 86  1  0  0  0  0
 30 88  1  0  0  0  0
 31 89  1  0  0  0  0
 32 71  2  0  0  0  0
 33 72  1  0  0  0  0
 33 75  1  0  0  0  0
 34 76  1  0  0  0  0
 34 81  2  0  0  0  0
 35 53  1  0  0  0  0
 35 77  1  0  0  0  0
 35 82  2  0  0  0  0
 36 68  1  0  0  0  0
 36 73  1  0  0  0  0
 36 83  2  0  0  0  0
 37 69  1  0  0  0  0
 37 78  1  0  0  0  0
 37 84  2  0  0  0  0
 38 74  1  0  0  0  0
 38 79  1  0  0  0  0
 38 85  2  0  0  0  0
 39 42  1  0  0  0  0
 40 53  1  0  0  0  0
 41 73  1  0  0  0  0
 42 44  1  0  0  0  0
 43 47  1  0  0  0  0
 43 50  1  0  0  0  0
 44 52  1  0  0  0  0
 45 48  1  0  0  0  0
 45 54  1  0  0  0  0
 46 49  1  0  0  0  0
 46 54  1  0  0  0  0
 47 55  1  0  0  0  0
 48 56  1  0  0  0  0
 49 56  1  0  0  0  0
 50 74  1  0  0  0  0
 51 55  1  0  0  0  0
 51 74  1  0  0  0  0
 52 77  1  0  0  0  0
 53 73  1  0  0  0  0
 54 66  1  0  0  0  0
 55 72  1  0  0  0  0
 56 79  1  0  0  0  0
 61 69  1  0  0  0  0
 62 70  1  0  0  0  0
 63 70  1  0  0  0  0
 64 70  1  0  0  0  0
 65 80  1  0  0  0  0
 67 87  1  0  0  0  0
 68 70  1  0  0  0  0
 68 78  1  0  0  0  0
 69 80  1  0  0  0  0
 71 72  1  0  0  0  0
M  CHG  1  80   1
M  ISO  4  38 100  67 101  79 100  87 101
M  END
> <Batch ID>
0155

> <Smiles>
CNC(C)C(=O)NC(C(=O)N1Cc2cc([101O:1][101CH2:1]c3c(C)c(C)c(CC4CCC([100NH:0][100C:0](=O)N5CCCC(n6nc(-c7ccc(Oc8ccc(F)cc8F)cc7)c(C(N)=O)c6N)C5)CC4)c(C)c3C)ccc2CC1C(=O)NC1CCCc2ccccc21)C(C)(C)C

> <Shape>
0.292

> <Color>
0.068

> <Negative vol penalty>
0.000

$$$$

  -OEChem-04052321543D

 95105  0     1  0  0  0  0  0999 V2000
  -28.4591  -30.7081   27.4839 C   0  0  0  0  0  0  0  0  0  0  0  0
  -28.6108  -30.2157   26.1917 C   0  0  0  0  0  0  0  0  0  0  0  0
  -22.9936   -9.8183   20.0295 C   0  0  0  0  0  0  0  0  0  0  0  0
  -23.6533  -10.0020   22.3464 C   0  0  0  0  0  0  0  0  0  0  0  0
  -27.4996  -30.1554   28.3312 C   0  0  0  0  0  0  0  0  0  0  0  0
  -27.8037  -29.1694   25.7463 C   0  0  0  0  0  0  0  0  0  0  0  0
  -25.9886  -29.9641   21.0860 C   0  0  0  0  0  0  0  0  0  0  0  0
  -22.2160   -8.7026   20.3394 C   0  0  0  0  0  0  0  0  0  0  0  0
  -22.8757   -8.8863   22.6563 C   0  0  0  0  0  0  0  0  0  0  0  0
  -26.8563  -29.7398   20.0179 C   0  0  0  0  0  0  0  0  0  0  0  0
  -23.1220   -5.5251   22.3863 C   0  0  0  0  0  0  0  0  0  0  0  0
  -23.6846   -4.5524   23.2127 C   0  0  0  0  0  0  0  0  0  0  0  0
  -32.2613  -22.1859   20.0129 C   0  0  0  0  0  0  0  0  0  0  0  0
  -29.8623  -22.4638   20.0772 C   0  0  0  0  0  0  0  0  0  0  0  0
  -25.8348  -27.5860   19.6481 C   0  0  0  0  0  0  0  0  0  0  0  0
  -21.9147   -4.8953   24.8212 C   0  0  0  0  0  0  0  0  0  0  0  0
  -23.7123  -10.4681   21.0330 C   0  0  0  0  0  0  0  0  0  0  0  0
  -24.1109  -12.9685   20.7222 C   0  0  0  0  0  0  0  0  0  0  0  0
  -26.6738  -29.1083   27.8927 C   0  0  0  0  0  0  0  0  0  0  0  0
  -25.0433  -28.9947   21.4506 C   0  0  0  0  0  0  0  0  0  0  0  0
  -26.8332  -28.6012   26.5889 C   0  0  0  0  0  0  0  0  0  0  0  0
  -31.1273  -22.9566   19.7568 C   0  0  0  0  0  0  0  0  0  0  0  0
  -24.9546  -27.8014   20.7195 C   0  0  0  0  0  0  0  0  0  0  0  0
  -32.1304  -20.9225   20.5893 C   0  0  0  0  0  0  0  0  0  0  0  0
  -29.7314  -21.2003   20.6537 C   0  0  0  0  0  0  0  0  0  0  0  0
  -30.8655  -20.4297   20.9097 C   0  0  0  0  0  0  0  0  0  0  0  0
  -22.1570   -8.2366   21.6527 C   0  0  0  0  0  0  0  0  0  0  0  0
  -26.7814  -28.5495   19.3006 C   0  0  0  0  0  0  0  0  0  0  0  0
  -21.9558   -6.1830   22.7774 C   0  0  0  0  0  0  0  0  0  0  0  0
  -23.0809   -4.2375   24.4301 C   0  0  0  0  0  0  0  0  0  0  0  0
  -21.3522   -5.8681   23.9948 C   0  0  0  0  0  0  0  0  0  0  0  0
  -24.5162  -11.6203   20.7135 C   0  0  0  0  0  0  0  0  0  0  0  0
  -25.2330  -13.6667   20.3482 C   0  0  0  0  0  0  0  0  0  0  0  0
  -22.8344  -13.5386   21.0400 C   0  0  0  0  0  0  0  0  0  0  0  0
  -24.5056  -27.2539   24.0552 C   0  0  0  0  0  0  0  0  0  0  0  0
  -21.8591  -26.3342   22.4205 C   0  0  0  0  0  0  0  0  0  0  0  0
  -20.3114  -25.9270   19.4062 C   0  0  0  0  0  0  0  0  0  0  0  0
  -30.7232  -14.6048   20.6986 C   0  0  0  0  0  0  0  0  0  0  0  0
  -25.6829  -28.5114   28.8604 C   0  0  0  0  0  0  0  0  0  0  0  0
  -24.0967  -29.2631   22.5883 C   0  0  0  0  0  0  0  0  0  0  0  0
  -23.9438  -26.7373   21.0579 C   0  0  0  0  0  0  0  0  0  0  0  0
  -24.6132  -27.6558   28.1866 C   0  0  0  0  0  0  0  0  0  0  0  0
  -29.6413  -12.0507   18.4663 C   0  0  0  0  0  0  0  0  0  0  0  0
  -25.2477  -26.7069   27.1749 C   0  0  0  0  0  0  0  0  0  0  0  0
  -28.1807  -11.8182   18.8568 C   0  0  0  0  0  0  0  0  0  0  0  0
  -30.2825  -17.4823   23.0491 C   0  0  0  0  0  0  0  0  0  0  0  0
  -30.5379  -24.3575   17.7878 C   0  0  0  0  0  0  0  0  0  0  0  0
  -30.7178  -25.3875   20.0885 C   0  0  0  0  0  0  0  0  0  0  0  0
  -30.5099  -12.3545   19.6850 C   0  0  0  0  0  0  0  0  0  0  0  0
  -30.7464  -18.9329   22.9193 C   0  0  0  0  0  0  0  0  0  0  0  0
  -28.5653  -13.2298   20.9204 C   0  0  0  0  0  0  0  0  0  0  0  0
  -30.5474  -17.9469   20.7179 C   0  0  0  0  0  0  0  0  0  0  0  0
  -30.5925  -25.7493   17.1710 C   0  0  0  0  0  0  0  0  0  0  0  0
  -30.7714  -26.7714   19.4542 C   0  0  0  0  0  0  0  0  0  0  0  0
  -31.2682  -24.3106   19.1396 C   0  0  0  0  0  0  0  0  0  0  0  0
  -25.9598  -27.4838   26.0610 C   0  0  1  0  0  0  0  0  0  0  0  0
  -23.5166  -27.9897   23.1960 C   0  0  1  0  0  0  0  0  0  0  0  0
  -27.6397  -12.9750   19.7184 C   0  0  2  0  0  0  0  0  0  0  0  0
  -30.7797  -16.8488   21.7570 C   0  0  2  0  0  0  0  0  0  0  0  0
  -33.3635  -20.1198   20.8504 C   0  0  0  0  0  0  0  0  0  0  0  0
  -27.4752  -20.5493   19.7374 C   0  0  0  0  0  0  0  0  0  0  0  0
  -27.6549  -21.5773   22.0322 C   0  0  0  0  0  0  0  0  0  0  0  0
  -18.1651  -25.1195   18.3870 C   0  0  0  0  0  0  0  0  0  0  0  0
  -31.3197  -28.7496   17.5732 C   0  0  0  0  0  0  0  0  0  0  0  0
  -22.7254  -23.4465   22.8898 C   0  0  0  0  0  0  0  0  0  0  0  0
  -21.1281  -22.7485   21.0926 C   0  0  0  0  0  0  0  0  0  0  0  0
  -20.2729  -23.8565   23.1575 C   0  0  0  0  0  0  0  0  0  0  0  0
  -19.7345  -28.5821   18.2331 C   0  0  0  0  0  0  0  0  0  0  0  0
  -28.9148  -28.9402   18.3248 C   0  0  0  0  0  0  0  0  0  1  0  0
  -28.3635  -20.6985   20.9857 C   0  0  0  0  0  0  0  0  0  0  0  0
  -21.5346  -25.2264   21.4476 C   0  0  1  0  0  0  0  0  0  0  0  0
  -18.9274  -26.3213   18.9231 C   0  0  2  0  0  0  0  0  0  0  0  0
  -29.9340  -28.1258   17.5361 C   0  0  2  0  0  0  0  0  0  0  0  0
  -21.4357  -23.8385   22.1415 C   0  0  0  0  0  0  0  0  0  0  0  0
  -25.7957  -11.4688   20.3617 N   0  0  0  0  0  0  0  0  0  0  0  0
  -26.2042  -12.7308   20.1458 N   0  0  0  0  0  0  0  0  0  0  0  0
  -30.7362  -19.1808   21.4790 N   0  0  3  0  0  0  0  0  0  0  0  0
  -23.0447  -27.0439   22.1826 N   0  0  0  0  0  0  0  0  0  0  0  0
  -29.9427  -13.4619   20.4583 N   0  0  0  0  0  0  0  0  0  0  0  0
  -25.4737  -14.9838   20.1760 N   0  0  0  0  0  0  0  0  0  0  0  0
  -21.7903  -12.6777   21.4048 N   0  0  0  0  0  0  0  0  0  0  0  0
  -24.9984  -27.9987   25.1097 N   0  0  0  0  0  0  0  0  0  0  0  0
  -20.3182  -25.6356   20.7539 N   0  0  0  0  0  0  0  0  0  0  0  0
  -30.1074  -15.6100   21.4340 N   0  0  0  0  0  0  0  0  0  0  0  0
  -30.0206  -26.7642   18.1388 N   0  3  0  0  0  0  0  0  0  0  0  0
  -19.0277  -27.3369   17.8370 N   0  3  0  0  0  0  0  0  0  0  0  0
  -22.6212  -14.7736   20.9858 O   0  0  0  0  0  0  0  0  0  0  0  0
  -24.7987  -26.0956   23.7826 O   0  0  0  0  0  0  0  0  0  0  0  0
  -21.0854  -26.5662   23.3528 O   0  0  0  0  0  0  0  0  0  0  0  0
  -21.2881  -25.8784   18.6617 O   0  0  0  0  0  0  0  0  0  0  0  0
  -31.8812  -14.7228   20.2836 O   0  0  0  0  0  0  0  0  0  0  0  0
  -21.3981   -7.1480   21.9555 O   0  0  0  0  0  0  0  0  0  0  0  0
  -27.6275  -28.3278   18.2581 O   0  0  0  0  0  0  0  0  0  1  0  0
  -23.6204   -3.3022   25.2229 F   0  0  0  0  0  0  0  0  0  0  0  0
  -20.2311   -6.4959   24.3753 F   0  0  0  0  0  0  0  0  0  0  0  0
  1  2  1  0  0  0  0
  1  5  2  0  0  0  0
  2  6  2  0  0  0  0
  3  8  2  0  0  0  0
  3 17  1  0  0  0  0
  4  9  1  0  0  0  0
  4 17  2  0  0  0  0
  5 19  1  0  0  0  0
  6 21  1  0  0  0  0
  7 10  2  0  0  0  0
  7 20  1  0  0  0  0
  8 27  1  0  0  0  0
  9 27  2  0  0  0  0
 10 28  1  0  0  0  0
 11 12  2  0  0  0  0
 11 29  1  0  0  0  0
 12 30  1  0  0  0  0
 13 22  1  0  0  0  0
 13 24  2  0  0  0  0
 14 22  2  0  0  0  0
 14 25  1  0  0  0  0
 15 23  1  0  0  0  0
 15 28  2  0  0  0  0
 16 30  2  0  0  0  0
 16 31  1  0  0  0  0
 17 32  1  0  0  0  0
 18 32  1  0  0  0  0
 18 33  2  0  0  0  0
 18 34  1  0  0  0  0
 19 21  2  0  0  0  0
 19 39  1  0  0  0  0
 20 23  2  0  0  0  0
 20 40  1  0  0  0  0
 21 56  1  0  0  0  0
 22 55  1  0  0  0  0
 23 41  1  0  0  0  0
 24 26  1  0  0  0  0
 24 60  1  0  0  0  0
 25 26  2  0  0  0  0
 25 70  1  0  0  0  0
 26 77  1  0  0  0  0
 27 92  1  0  0  0  0
 28 93  1  0  0  0  0
 29 31  2  0  0  0  0
 29 92  1  0  0  0  0
 30 94  1  0  0  0  0
 31 95  1  0  0  0  0
 32 75  2  0  0  0  0
 33 76  1  0  0  0  0
 33 80  1  0  0  0  0
 34 81  1  0  0  0  0
 34 87  2  0  0  0  0
 35 57  1  0  0  0  0
 35 82  1  0  0  0  0
 35 88  2  0  0  0  0
 36 71  1  0  0  0  0
 36 78  1  0  0  0  0
 36 89  2  0  0  0  0
 37 72  1  0  0  0  0
 37 83  1  0  0  0  0
 37 90  2  0  0  0  0
 38 79  1  0  0  0  0
 38 84  1  0  0  0  0
 38 91  2  0  0  0  0
 39 42  1  0  0  0  0
 40 57  1  0  0  0  0
 41 78  1  0  0  0  0
 42 44  1  0  0  0  0
 43 45  1  0  0  0  0
 43 49  1  0  0  0  0
 44 56  1  0  0  0  0
 45 58  1  0  0  0  0
 46 50  1  0  0  0  0
 46 59  1  0  0  0  0
 47 53  1  0  0  0  0
 47 55  1  0  0  0  0
 48 54  1  0  0  0  0
 48 55  1  0  0  0  0
 49 79  1  0  0  0  0
 50 77  1  0  0  0  0
 51 58  1  0  0  0  0
 51 79  1  0  0  0  0
 52 59  1  0  0  0  0
 52 77  1  0  0  0  0
 53 85  1  0  0  0  0
 54 85  1  0  0  0  0
 56 82  1  0  0  0  0
 57 78  1  0  0  0  0
 58 76  1  0  0  0  0
 59 84  1  0  0  0  0
 61 70  1  0  0  0  0
 62 70  1  0  0  0  0
 63 72  1  0  0  0  0
 64 73  1  0  0  0  0
 65 74  1  0  0  0  0
 66 74  1  0  0  0  0
 67 74  1  0  0  0  0
 68 86  1  0  0  0  0
 69 73  1  0  0  0  0
 69 93  1  0  0  0  0
 71 74  1  0  0  0  0
 71 83  1  0  0  0  0
 72 86  1  0  0  0  0
 73 85  1  0  0  0  0
 75 76  1  0  0  0  0
M  CHG  2  85   1  86   1
M  ISO  4  38 100  69 101  84 100  93 101
M  END
> <Batch ID>
0155

> <Smiles>
CNC(C)C(=O)NC(C(=O)N1Cc2cc([101O:1][101CH2:1]C(C)N3CCC(c4cc(C)c(N5CCC([100NH:0][100C:0](=O)N6CCCC(n7nc(-c8ccc(Oc9ccc(F)cc9F)cc8)c(C(N)=O)c7N)C6)C5)c(C(C)C)c4)CC3)ccc2CC1C(=O)NC1CCCc2ccccc21)C(C)(C)C

> <Shape>
0.322

> <Color>
0.199

> <Negative vol penalty>
0.000

$$$$

  -OEChem-04052321543D

 87 97  0     1  0  0  0  0  0999 V2000
  -19.8255  -12.9894   19.3554 C   0  0  0  0  0  0  0  0  0  0  0  0
  -20.3421  -14.1959   18.8940 C   0  0  0  0  0  0  0  0  0  0  0  0
  -20.5161  -21.8277   18.0033 C   0  0  0  0  0  0  0  0  0  0  0  0
  -22.8856  -22.0433   17.5838 C   0  0  0  0  0  0  0  0  0  0  0  0
  -20.4626  -12.3110   20.3935 C   0  0  0  0  0  0  0  0  0  0  0  0
  -21.4958  -14.7252   19.4713 C   0  0  0  0  0  0  0  0  0  0  0  0
  -27.3011  -18.5828   17.8178 C   0  0  0  0  0  0  0  0  0  0  0  0
  -20.3686  -21.1231   16.8086 C   0  0  0  0  0  0  0  0  0  0  0  0
  -22.7382  -21.3386   16.3891 C   0  0  0  0  0  0  0  0  0  0  0  0
  -27.9964  -19.7162   18.2369 C   0  0  0  0  0  0  0  0  0  0  0  0
  -22.4061  -18.1170   15.4242 C   0  0  0  0  0  0  0  0  0  0  0  0
  -23.3378  -17.1175   15.1439 C   0  0  0  0  0  0  0  0  0  0  0  0
  -29.0571  -18.4171   19.9708 C   0  0  0  0  0  0  0  0  0  0  0  0
  -30.1304  -25.2577   19.4793 C   0  0  0  0  0  0  0  0  0  0  0  0
  -23.9799  -18.2819   13.1267 C   0  0  0  0  0  0  0  0  0  0  0  0
  -28.0666  -25.1908   20.3773 C   0  0  0  0  0  0  0  0  0  0  0  0
  -21.7745  -22.2879   18.3909 C   0  0  0  0  0  0  0  0  0  0  0  0
  -22.2016  -22.4832   20.8983 C   0  0  0  0  0  0  0  0  0  0  0  0
  -21.6301  -12.8275   20.9773 C   0  0  0  0  0  0  0  0  0  0  0  0
  -27.4707  -17.3584   18.4800 C   0  0  0  0  0  0  0  0  0  0  0  0
  -22.1484  -14.0538   20.5191 C   0  0  0  0  0  0  0  0  0  0  0  0
  -28.3647  -17.2690   19.5565 C   0  0  0  0  0  0  0  0  0  0  0  0
  -29.1993  -24.4371   20.1626 C   0  0  0  0  0  0  0  0  0  0  0  0
  -21.4797  -20.8785   16.0015 C   0  0  0  0  0  0  0  0  0  0  0  0
  -28.8723  -19.6342   19.3154 C   0  0  0  0  0  0  0  0  0  0  0  0
  -22.2611  -19.1989   14.5557 C   0  0  0  0  0  0  0  0  0  0  0  0
  -24.1247  -17.2000   13.9951 C   0  0  0  0  0  0  0  0  0  0  0  0
  -23.0481  -19.2813   13.4070 C   0  0  0  0  0  0  0  0  0  0  0  0
  -21.9274  -23.0164   19.6246 C   0  0  0  0  0  0  0  0  0  0  0  0
  -29.5383  -26.4880   19.2975 C   0  0  0  0  0  0  0  0  0  0  0  0
  -22.2493  -23.5783   21.7260 C   0  0  0  0  0  0  0  0  0  0  0  0
  -22.3959  -21.1199   21.2976 C   0  0  0  0  0  0  0  0  0  0  0  0
  -25.5626  -15.4054   20.1076 C   0  0  0  0  0  0  0  0  0  0  0  0
  -28.1810  -13.4907   20.1213 C   0  0  0  0  0  0  0  0  0  0  0  0
  -31.5764  -13.2240   19.9049 C   0  0  0  0  0  0  0  0  0  0  0  0
  -23.4736  -29.2593   20.9581 C   0  0  0  0  0  0  0  0  0  0  0  0
  -22.2570  -12.0819   22.1288 C   0  0  0  0  0  0  0  0  0  0  0  0
  -26.7335  -16.1388   17.9987 C   0  0  0  0  0  0  0  0  0  0  0  0
  -28.5976  -15.9734   20.2884 C   0  0  0  0  0  0  0  0  0  0  0  0
  -23.6861  -12.5232   22.4342 C   0  0  0  0  0  0  0  0  0  0  0  0
  -20.5047  -28.0021   22.2080 C   0  0  0  0  0  0  0  0  0  0  0  0
  -23.7799  -14.0454   22.4644 C   0  0  0  0  0  0  0  0  0  0  0  0
  -29.9051  -27.9141   17.1286 C   0  0  0  0  0  0  0  0  0  0  0  0
  -31.2588  -27.4526   17.5701 C   0  0  0  0  0  0  0  0  0  0  0  0
  -20.5447  -26.5244   21.8183 C   0  0  0  0  0  0  0  0  0  0  0  0
  -26.9403  -28.0136   21.3052 C   0  0  0  0  0  0  0  0  0  0  0  0
  -26.0026  -27.2334   19.0887 C   0  0  0  0  0  0  0  0  0  0  0  0
  -21.0289  -28.8798   21.0770 C   0  0  0  0  0  0  0  0  0  0  0  0
  -25.9130  -29.1431   21.3161 C   0  0  0  0  0  0  0  0  0  0  0  0
  -24.9987  -28.3810   19.1485 C   0  0  0  0  0  0  0  0  0  0  0  0
  -22.4636  -27.0501   20.2352 C   0  0  0  0  0  0  0  0  0  0  0  0
  -23.4118  -14.6479   21.1031 C   0  0  1  0  0  0  0  0  0  0  0  0
  -30.1758  -27.6915   18.6029 C   0  0  0  0  0  0  0  0  0  0  0  0
  -26.5949  -15.0625   19.0710 C   0  0  1  0  0  0  0  0  0  0  0  0
  -21.9525  -26.1155   21.3498 C   0  0  2  0  0  0  0  0  0  0  0  0
  -27.2831  -27.5757   19.8707 C   0  0  0  0  0  0  0  0  0  0  0  0
  -33.4290  -11.5335   19.9897 C   0  0  0  0  0  0  0  0  0  0  0  0
  -27.8969  -13.3351   23.1553 C   0  0  0  0  0  0  0  0  0  0  0  0
  -30.2426  -12.4662   23.2605 C   0  0  0  0  0  0  0  0  0  0  0  0
  -28.4876  -11.1707   22.0505 C   0  0  0  0  0  0  0  0  0  0  0  0
  -32.4360  -13.8560   17.1444 C   0  0  0  0  0  0  0  0  0  0  0  0
  -28.9183  -22.0025   19.5272 C   0  0  0  0  0  0  0  0  0  1  0  0
  -29.4038  -23.0340   20.5694 C   0  0  2  0  0  0  0  0  0  0  0  0
  -29.3695  -13.3113   21.0347 C   0  0  1  0  0  0  0  0  0  0  0  0
  -32.4644  -12.2965   19.0952 C   0  0  2  0  0  0  0  0  0  0  0  0
  -28.9935  -12.5958   22.3629 C   0  0  0  0  0  0  0  0  0  0  0  0
  -21.8090  -24.3468   19.6371 N   0  0  0  0  0  0  0  0  0  0  0  0
  -28.2842  -26.4359   19.8475 N   0  0  0  0  0  0  0  0  0  0  0  0
  -22.0098  -24.6587   20.9288 N   0  0  0  0  0  0  0  0  0  0  0  0
  -27.8487  -14.8104   19.7841 N   0  0  0  0  0  0  0  0  0  0  0  0
  -22.3640  -28.4556   20.6557 N   0  0  0  0  0  0  0  0  0  0  0  0
  -24.7287  -28.7942   20.5323 N   0  0  0  0  0  0  0  0  0  0  0  0
  -22.4724  -23.7128   23.0506 N   0  0  0  0  0  0  0  0  0  0  0  0
  -22.3131  -20.1191   20.3200 N   0  0  0  0  0  0  0  0  0  0  0  0
  -24.5131  -14.5090   20.1745 N   0  0  0  0  0  0  0  0  0  0  0  0
  -30.3864  -12.6192   20.2502 N   0  0  0  0  0  0  0  0  0  0  0  0
  -28.7311  -22.6808   21.8770 N   0  3  0  0  0  0  0  0  0  0  0  0
  -33.2589  -13.0751   18.1035 N   0  3  0  0  0  0  0  0  0  0  0  0
  -22.6195  -20.7973   22.4890 O   0  0  0  0  0  0  0  0  0  0  0  0
  -25.7083  -16.4082   20.7967 O   0  0  0  0  0  0  0  0  0  0  0  0
  -27.5742  -12.4961   19.7160 O   0  0  0  0  0  0  0  0  0  0  0  0
  -31.9070  -14.3692   20.2045 O   0  0  0  0  0  0  0  0  0  0  0  0
  -23.3539  -30.3248   21.5757 O   0  0  0  0  0  0  0  0  0  0  0  0
  -21.3362  -20.1907   14.8358 O   0  0  0  0  0  0  0  0  0  0  0  0
  -29.5562  -20.7464   19.7296 O   0  0  0  0  0  0  0  0  0  1  0  0
  -25.0205  -16.2410   13.7269 F   0  0  0  0  0  0  0  0  0  0  0  0
  -22.9142  -20.3189   12.5695 F   0  0  0  0  0  0  0  0  0  0  0  0
  1  2  1  0  0  0  0
  1  5  2  0  0  0  0
  2  6  2  0  0  0  0
  3  8  2  0  0  0  0
  3 17  1  0  0  0  0
  4  9  1  0  0  0  0
  4 17  2  0  0  0  0
  5 19  1  0  0  0  0
  6 21  1  0  0  0  0
  7 10  2  0  0  0  0
  7 20  1  0  0  0  0
  8 24  1  0  0  0  0
  9 24  2  0  0  0  0
 10 25  1  0  0  0  0
 11 12  2  0  0  0  0
 11 26  1  0  0  0  0
 12 27  1  0  0  0  0
 13 22  1  0  0  0  0
 13 25  2  0  0  0  0
 14 23  1  0  0  0  0
 14 30  2  0  0  0  0
 15 27  2  0  0  0  0
 15 28  1  0  0  0  0
 16 23  2  0  0  0  0
 16 68  1  0  0  0  0
 17 29  1  0  0  0  0
 18 29  1  0  0  0  0
 18 31  2  0  0  0  0
 18 32  1  0  0  0  0
 19 21  2  0  0  0  0
 19 37  1  0  0  0  0
 20 22  2  0  0  0  0
 20 38  1  0  0  0  0
 21 52  1  0  0  0  0
 22 39  1  0  0  0  0
 23 63  1  0  0  0  0
 24 84  1  0  0  0  0
 25 85  1  0  0  0  0
 26 28  2  0  0  0  0
 26 84  1  0  0  0  0
 27 86  1  0  0  0  0
 28 87  1  0  0  0  0
 29 67  2  0  0  0  0
 30 53  1  0  0  0  0
 30 68  1  0  0  0  0
 31 69  1  0  0  0  0
 31 73  1  0  0  0  0
 32 74  1  0  0  0  0
 32 79  2  0  0  0  0
 33 54  1  0  0  0  0
 33 75  1  0  0  0  0
 33 80  2  0  0  0  0
 34 64  1  0  0  0  0
 34 70  1  0  0  0  0
 34 81  2  0  0  0  0
 35 65  1  0  0  0  0
 35 76  1  0  0  0  0
 35 82  2  0  0  0  0
 36 71  1  0  0  0  0
 36 72  1  0  0  0  0
 36 83  2  0  0  0  0
 37 40  1  0  0  0  0
 38 54  1  0  0  0  0
 39 70  1  0  0  0  0
 40 42  1  0  0  0  0
 41 45  1  0  0  0  0
 41 48  1  0  0  0  0
 42 52  1  0  0  0  0
 43 44  1  0  0  0  0
 43 53  1  0  0  0  0
 44 53  1  0  0  0  0
 45 55  1  0  0  0  0
 46 49  1  0  0  0  0
 46 56  1  0  0  0  0
 47 50  1  0  0  0  0
 47 56  1  0  0  0  0
 48 71  1  0  0  0  0
 49 72  1  0  0  0  0
 50 72  1  0  0  0  0
 51 55  1  0  0  0  0
 51 71  1  0  0  0  0
 52 75  1  0  0  0  0
 54 70  1  0  0  0  0
 55 69  1  0  0  0  0
 56 68  1  0  0  0  0
 57 65  1  0  0  0  0
 58 66  1  0  0  0  0
 59 66  1  0  0  0  0
 60 66  1  0  0  0  0
 61 78  1  0  0  0  0
 62 63  1  0  0  0  0
 62 85  1  0  0  0  0
 63 77  1  0  0  0  0
 64 66  1  0  0  0  0
 64 76  1  0  0  0  0
 65 78  1  0  0  0  0
 67 69  1  0  0  0  0
M  CHG  2  77   1  78   1
M  ISO  4  36 100  62 101  72 100  85 101
M  END
> <Batch ID>
0155

> <Smiles>
CNC(C)C(=O)NC(C(=O)N1Cc2cc([101O:1][101CH2:1]C(N)c3cc(C4CC4)n(C4CC[100N:0]([100C:0](=O)N5CCCC(n6nc(-c7ccc(Oc8ccc(F)cc8F)cc7)c(C(N)=O)c6N)C5)CC4)c3)ccc2CC1C(=O)NC1CCCc2ccccc21)C(C)(C)C

> <Shape>
0.229

> <Color>
0.060

> <Negative vol penalty>
0.000

$$$$

  -OEChem-04052321543D

 91100  0     1  0  0  0  0  0999 V2000
  -22.4158   -8.1318   20.5741 C   0  0  0  0  0  0  0  0  0  0  0  0
  -21.8351   -9.3926   20.6666 C   0  0  0  0  0  0  0  0  0  0  0  0
  -24.5106  -30.0650   23.6106 C   0  0  0  0  0  0  0  0  0  0  0  0
  -23.9931  -31.4166   21.6761 C   0  0  0  0  0  0  0  0  0  0  0  0
  -23.6935   -7.9146   21.0881 C   0  0  0  0  0  0  0  0  0  0  0  0
  -22.5314  -10.4368   21.2743 C   0  0  0  0  0  0  0  0  0  0  0  0
  -22.3708  -16.3603   19.7276 C   0  0  0  0  0  0  0  0  0  0  0  0
  -24.4052  -31.1918   24.4260 C   0  0  0  0  0  0  0  0  0  0  0  0
  -23.8875  -32.5433   22.4915 C   0  0  0  0  0  0  0  0  0  0  0  0
  -21.6663  -17.4461   20.2455 C   0  0  0  0  0  0  0  0  0  0  0  0
  -25.9777  -34.7222   24.0129 C   0  0  0  0  0  0  0  0  0  0  0  0
  -26.5936  -35.8961   23.5790 C   0  0  0  0  0  0  0  0  0  0  0  0
  -23.5785  -18.0369   21.5921 C   0  0  0  0  0  0  0  0  0  0  0  0
  -26.6436  -23.4630   21.5708 C   0  0  0  0  0  0  0  0  0  0  0  0
  -24.4543  -37.0189   23.5804 C   0  0  0  0  0  0  0  0  0  0  0  0
  -24.3047  -30.1774   22.2356 C   0  0  0  0  0  0  0  0  0  0  0  0
  -23.3859  -28.1186   21.0420 C   0  0  0  0  0  0  0  0  0  0  0  0
  -24.4097   -8.9591   21.6937 C   0  0  0  0  0  0  0  0  0  0  0  0
  -23.6829  -16.0977   20.1469 C   0  0  0  0  0  0  0  0  0  0  0  0
  -23.8194  -10.2330   21.7981 C   0  0  0  0  0  0  0  0  0  0  0  0
  -24.2985  -16.9485   21.0761 C   0  0  0  0  0  0  0  0  0  0  0  0
  -26.3085  -23.7304   22.8935 C   0  0  0  0  0  0  0  0  0  0  0  0
  -24.0936  -32.4309   23.8665 C   0  0  0  0  0  0  0  0  0  0  0  0
  -22.2691  -18.2830   21.1800 C   0  0  0  0  0  0  0  0  0  0  0  0
  -24.6001  -34.6966   24.2304 C   0  0  0  0  0  0  0  0  0  0  0  0
  -27.8016  -24.0094   21.0287 C   0  0  0  0  0  0  0  0  0  0  0  0
  -25.8319  -37.0444   23.3628 C   0  0  0  0  0  0  0  0  0  0  0  0
  -23.8385  -35.8449   24.0143 C   0  0  0  0  0  0  0  0  0  0  0  0
  -24.4141  -29.0140   21.3927 C   0  0  0  0  0  0  0  0  0  0  0  0
  -28.5844  -24.8102   21.8446 C   0  0  0  0  0  0  0  0  0  0  0  0
  -27.1583  -24.5435   23.6260 C   0  0  0  0  0  0  0  0  0  0  0  0
  -23.9976  -27.1939   20.2313 C   0  0  0  0  0  0  0  0  0  0  0  0
  -22.0017  -28.1224   21.4156 C   0  0  0  0  0  0  0  0  0  0  0  0
  -25.1212  -13.6874   21.6387 C   0  0  0  0  0  0  0  0  0  0  0  0
  -27.7984  -15.4076   21.0096 C   0  0  0  0  0  0  0  0  0  0  0  0
  -29.1986  -18.4472   20.3409 C   0  0  0  0  0  0  0  0  0  0  0  0
  -29.9281  -25.7074   19.9262 C   0  0  0  0  0  0  0  0  0  0  0  0
  -25.7690   -8.6644   22.2770 C   0  0  0  0  0  0  0  0  0  0  0  0
  -24.4387  -14.9379   19.5587 C   0  0  0  0  0  0  0  0  0  0  0  0
  -25.7121  -16.7219   21.5438 C   0  0  0  0  0  0  0  0  0  0  0  0
  -26.5903   -9.9172   22.5709 C   0  0  0  0  0  0  0  0  0  0  0  0
  -27.6436  -26.6812   17.1829 C   0  0  0  0  0  0  0  0  0  0  0  0
  -25.7391  -10.9561   23.2940 C   0  0  0  0  0  0  0  0  0  0  0  0
  -26.5092  -27.3893   17.9214 C   0  0  0  0  0  0  0  0  0  0  0  0
  -23.8284  -23.6440   22.7232 C   0  0  0  0  0  0  0  0  0  0  0  0
  -25.1360  -21.6124   23.4648 C   0  0  0  0  0  0  0  0  0  0  0  0
  -28.9691  -26.8062   17.9279 C   0  0  0  0  0  0  0  0  0  0  0  0
  -27.7681  -27.0381   20.0831 C   0  0  0  0  0  0  0  0  0  0  0  0
  -22.5516  -23.0031   23.2519 C   0  0  0  0  0  0  0  0  0  0  0  0
  -23.8492  -20.9872   23.9880 C   0  0  0  0  0  0  0  0  0  0  0  0
  -25.0666  -23.1479   23.4873 C   0  0  0  0  0  0  0  0  0  0  0  0
  -24.5530  -11.3972   22.4279 C   0  0  1  0  0  0  0  0  0  0  0  0
  -25.5896  -14.4653   20.4415 C   0  0  1  0  0  0  0  0  0  0  0  0
  -26.4137  -26.8923   19.3733 C   0  0  1  0  0  0  0  0  0  0  0  0
  -31.4147  -19.5438   19.9122 C   0  0  0  0  0  0  0  0  0  0  0  0
  -20.1006  -18.6161   23.4438 C   0  0  0  0  0  0  0  0  0  0  0  0
  -28.4538  -15.2406   23.9849 C   0  0  0  0  0  0  0  0  0  0  0  0
  -30.0980  -17.0998   23.6559 C   0  0  0  0  0  0  0  0  0  0  0  0
  -30.4159  -14.9308   22.4655 C   0  0  0  0  0  0  0  0  0  0  0  0
  -30.9912  -25.3796   22.1157 C   0  0  0  0  0  0  0  0  0  0  0  0
  -28.3669  -19.3384   17.6441 C   0  0  0  0  0  0  0  0  0  0  0  0
  -27.2462  -22.9103   18.9942 C   0  0  0  0  0  0  0  0  0  0  0  0
  -27.7767  -25.6710   25.6265 C   0  0  0  0  0  0  0  0  0  0  0  0
  -21.3964  -20.8178   23.5755 C   0  0  0  0  0  0  0  0  0  0  0  0
  -28.5672  -16.4900   21.7283 C   0  0  1  0  0  0  0  0  0  0  0  0
  -30.1959  -18.8862   19.2839 C   0  0  2  0  0  0  0  0  0  0  0  0
  -21.3793  -19.3688   23.0997 C   0  0  2  0  0  0  0  0  0  1  0  0
  -29.3564  -15.9437   22.9515 C   0  0  0  0  0  0  0  0  0  0  0  0
  -25.5897  -28.6875   20.8494 N   0  0  0  0  0  0  0  0  0  0  0  0
  -28.2916  -25.0923   23.1339 N   0  0  0  0  0  0  0  0  0  0  0  0
  -25.3041  -27.5765   20.1491 N   0  0  0  0  0  0  0  0  0  0  0  0
  -26.4074  -15.5711   20.9441 N   0  0  0  0  0  0  0  0  0  0  0  0
  -28.8484  -26.3862   19.3249 N   0  0  0  0  0  0  0  0  0  0  0  0
  -23.5400  -26.0989   19.5878 N   0  0  0  0  0  0  0  0  0  0  0  0
  -21.5390  -29.1451   22.2548 N   0  0  0  0  0  0  0  0  0  0  0  0
  -24.9889  -12.3308   21.4116 N   0  0  0  0  0  0  0  0  0  0  0  0
  -29.4001  -17.1370   20.7203 N   0  0  0  0  0  0  0  0  0  0  0  0
  -29.7868  -25.3808   21.2884 N   0  0  0  0  0  0  0  0  0  0  0  0
  -22.6614  -21.4911   23.1894 N   0  3  0  0  0  0  0  0  0  0  0  0
  -29.5651  -19.8612   18.3498 N   0  3  0  0  0  0  0  0  0  0  0  0
  -21.2025  -27.2357   21.0303 O   0  0  0  0  0  0  0  0  0  0  0  0
  -24.8978  -14.2744   22.6910 O   0  0  0  0  0  0  0  0  0  0  0  0
  -28.4102  -14.4560   20.5180 O   0  0  0  0  0  0  0  0  0  0  0  0
  -28.3303  -19.1932   20.7881 O   0  0  0  0  0  0  0  0  0  0  0  0
  -30.9703  -25.4582   19.3078 O   0  0  0  0  0  0  0  0  0  0  0  0
  -23.9903  -33.5305   24.6619 O   0  0  0  0  0  0  0  0  0  0  0  0
  -28.1311  -23.7499   19.7366 O   0  0  0  0  0  0  0  0  0  0  0  0
  -21.5834  -19.3432   21.6876 O   0  0  0  0  0  0  0  0  0  1  0  0
  -26.8622  -24.8306   24.9331 O   0  0  0  0  0  0  0  0  0  0  0  0
  -26.4237  -38.1721   22.9477 F   0  0  0  0  0  0  0  0  0  0  0  0
  -22.5148  -35.8268   24.2227 F   0  0  0  0  0  0  0  0  0  0  0  0
  1  2  1  0  0  0  0
  1  5  2  0  0  0  0
  2  6  2  0  0  0  0
  3  8  2  0  0  0  0
  3 16  1  0  0  0  0
  4  9  1  0  0  0  0
  4 16  2  0  0  0  0
  5 18  1  0  0  0  0
  6 20  1  0  0  0  0
  7 10  2  0  0  0  0
  7 19  1  0  0  0  0
  8 23  1  0  0  0  0
  9 23  2  0  0  0  0
 10 24  1  0  0  0  0
 11 12  2  0  0  0  0
 11 25  1  0  0  0  0
 12 27  1  0  0  0  0
 13 21  1  0  0  0  0
 13 24  2  0  0  0  0
 14 22  1  0  0  0  0
 14 26  2  0  0  0  0
 15 27  2  0  0  0  0
 15 28  1  0  0  0  0
 16 29  1  0  0  0  0
 17 29  1  0  0  0  0
 17 32  2  0  0  0  0
 17 33  1  0  0  0  0
 18 20  2  0  0  0  0
 18 38  1  0  0  0  0
 19 21  2  0  0  0  0
 19 39  1  0  0  0  0
 20 52  1  0  0  0  0
 21 40  1  0  0  0  0
 22 31  2  0  0  0  0
 22 51  1  0  0  0  0
 23 86  1  0  0  0  0
 24 88  1  0  0  0  0
 25 28  2  0  0  0  0
 25 86  1  0  0  0  0
 26 30  1  0  0  0  0
 26 87  1  0  0  0  0
 27 90  1  0  0  0  0
 28 91  1  0  0  0  0
 29 69  2  0  0  0  0
 30 70  2  0  0  0  0
 30 78  1  0  0  0  0
 31 70  1  0  0  0  0
 31 89  1  0  0  0  0
 32 71  1  0  0  0  0
 32 74  1  0  0  0  0
 33 75  1  0  0  0  0
 33 81  2  0  0  0  0
 34 53  1  0  0  0  0
 34 76  1  0  0  0  0
 34 82  2  0  0  0  0
 35 65  1  0  0  0  0
 35 72  1  0  0  0  0
 35 83  2  0  0  0  0
 36 66  1  0  0  0  0
 36 77  1  0  0  0  0
 36 84  2  0  0  0  0
 37 73  1  0  0  0  0
 37 78  1  0  0  0  0
 37 85  2  0  0  0  0
 38 41  1  0  0  0  0
 39 53  1  0  0  0  0
 40 72  1  0  0  0  0
 41 43  1  0  0  0  0
 42 44  1  0  0  0  0
 42 47  1  0  0  0  0
 43 52  1  0  0  0  0
 44 54  1  0  0  0  0
 45 49  1  0  0  0  0
 45 51  1  0  0  0  0
 46 50  1  0  0  0  0
 46 51  1  0  0  0  0
 47 73  1  0  0  0  0
 48 54  1  0  0  0  0
 48 73  1  0  0  0  0
 49 79  1  0  0  0  0
 50 79  1  0  0  0  0
 52 76  1  0  0  0  0
 53 72  1  0  0  0  0
 54 71  1  0  0  0  0
 55 66  1  0  0  0  0
 56 67  1  0  0  0  0
 57 68  1  0  0  0  0
 58 68  1  0  0  0  0
 59 68  1  0  0  0  0
 60 78  1  0  0  0  0
 61 80  1  0  0  0  0
 62 87  1  0  0  0  0
 63 89  1  0  0  0  0
 64 67  1  0  0  0  0
 64 79  1  0  0  0  0
 65 68  1  0  0  0  0
 65 77  1  0  0  0  0
 66 80  1  0  0  0  0
 67 88  1  0  0  0  0
 69 71  1  0  0  0  0
M  CHG  2  79   1  80   1
M  ISO  4  37 100  67 101  78 100  88 101
M  END
> <Batch ID>
0155

> <Smiles>
CNC(C)C(=O)NC(C(=O)N1Cc2cc([101O:1][101CH:1](C)CN3CCC(c4cc(OC)c([100N:0](C)[100C:0](=O)N5CCCC(n6nc(-c7ccc(Oc8ccc(F)cc8F)cc7)c(C(N)=O)c6N)C5)nc4OC)CC3)ccc2CC1C(=O)NC1CCCc2ccccc21)C(C)(C)C

> <Shape>
0.267

> <Color>
0.057

> <Negative vol penalty>
0.000

$$$$

  -OEChem-04052321543D

 89 99  0     1  0  0  0  0  0999 V2000
  -17.0156  -26.7078   25.7814 C   0  0  0  0  0  0  0  0  0  0  0  0
  -17.9543  -26.1583   24.9141 C   0  0  0  0  0  0  0  0  0  0  0  0
  -23.3828   -9.3990   20.5848 C   0  0  0  0  0  0  0  0  0  0  0  0
  -23.2766  -11.0652   22.3311 C   0  0  0  0  0  0  0  0  0  0  0  0
  -16.6098  -28.0319   25.6196 C   0  0  0  0  0  0  0  0  0  0  0  0
  -18.4870  -26.9322   23.8837 C   0  0  0  0  0  0  0  0  0  0  0  0
  -23.5080  -26.4214   23.4668 C   0  0  0  0  0  0  0  0  0  0  0  0
  -22.4766   -8.6048   21.2874 C   0  0  0  0  0  0  0  0  0  0  0  0
  -22.3703  -10.2711   23.0337 C   0  0  0  0  0  0  0  0  0  0  0  0
  -23.9808  -25.2708   22.8372 C   0  0  0  0  0  0  0  0  0  0  0  0
  -22.5398   -6.4921   23.9250 C   0  0  0  0  0  0  0  0  0  0  0  0
  -22.8211   -5.1303   24.0338 C   0  0  0  0  0  0  0  0  0  0  0  0
  -26.7417  -22.0042   20.3157 C   0  0  0  0  0  0  0  0  0  0  0  0
  -24.3113  -26.5262   20.8041 C   0  0  0  0  0  0  0  0  0  0  0  0
  -24.6988  -20.7478   20.6071 C   0  0  0  0  0  0  0  0  0  0  0  0
  -20.7497   -4.6120   22.9035 C   0  0  0  0  0  0  0  0  0  0  0  0
  -23.7829  -10.6291   21.1067 C   0  0  0  0  0  0  0  0  0  0  0  0
  -24.4207  -12.4360   19.4227 C   0  0  0  0  0  0  0  0  0  0  0  0
  -17.1450  -28.8253   24.5927 C   0  0  0  0  0  0  0  0  0  0  0  0
  -23.4229  -27.6326   22.7653 C   0  0  0  0  0  0  0  0  0  0  0  0
  -18.0870  -28.2677   23.7072 C   0  0  0  0  0  0  0  0  0  0  0  0
  -27.2709  -20.9659   19.5492 C   0  0  0  0  0  0  0  0  0  0  0  0
  -23.8395  -27.6914   21.4277 C   0  0  0  0  0  0  0  0  0  0  0  0
  -25.4556  -21.8951   20.8447 C   0  0  0  0  0  0  0  0  0  0  0  0
  -25.2280  -19.7095   19.8405 C   0  0  0  0  0  0  0  0  0  0  0  0
  -26.5141  -19.8186   19.3116 C   0  0  0  0  0  0  0  0  0  0  0  0
  -21.9703   -9.0409   22.5118 C   0  0  0  0  0  0  0  0  0  0  0  0
  -24.3799  -25.3224   21.5049 C   0  0  0  0  0  0  0  0  0  0  0  0
  -21.3633   -6.9139   23.3055 C   0  0  0  0  0  0  0  0  0  0  0  0
  -21.9261   -4.1902   23.5230 C   0  0  0  0  0  0  0  0  0  0  0  0
  -20.4683   -5.9739   22.7947 C   0  0  0  0  0  0  0  0  0  0  0  0
  -24.7194  -11.4497   20.3817 C   0  0  0  0  0  0  0  0  0  0  0  0
  -25.6461  -12.9209   19.0357 C   0  0  0  0  0  0  0  0  0  0  0  0
  -23.1493  -12.8747   18.9261 C   0  0  0  0  0  0  0  0  0  0  0  0
  -21.0555  -29.5904   21.9489 C   0  0  0  0  0  0  0  0  0  0  0  0
  -23.4874  -31.4630   20.8993 C   0  0  0  0  0  0  0  0  0  0  0  0
  -26.7108  -31.6791   19.7995 C   0  0  0  0  0  0  0  0  0  0  0  0
  -30.7387  -14.6405   20.0745 C   0  0  0  0  0  0  0  0  0  0  0  0
  -16.6405  -30.2371   24.4282 C   0  0  0  0  0  0  0  0  0  0  0  0
  -22.9357  -28.8709   23.4665 C   0  0  0  0  0  0  0  0  0  0  0  0
  -23.7869  -28.9717   20.6363 C   0  0  0  0  0  0  0  0  0  0  0  0
  -17.5317  -31.1030   23.5414 C   0  0  0  0  0  0  0  0  0  0  0  0
  -30.3129  -11.2120   19.9410 C   0  0  0  0  0  0  0  0  0  0  0  0
  -29.6893  -21.8396   19.7983 C   0  0  0  0  0  0  0  0  0  0  0  0
  -29.1282  -22.4662   18.5602 C   0  0  0  0  0  0  0  0  0  0  0  0
  -17.9091  -30.3520   22.2685 C   0  0  0  0  0  0  0  0  0  0  0  0
  -28.7949  -11.0338   19.9627 C   0  0  0  0  0  0  0  0  0  0  0  0
  -29.1907  -17.3533   18.0817 C   0  0  0  0  0  0  0  0  0  0  0  0
  -27.9526  -17.1342   20.2653 C   0  0  0  0  0  0  0  0  0  0  0  0
  -30.7478  -12.3081   20.9071 C   0  0  0  0  0  0  0  0  0  0  0  0
  -30.3996  -16.6753   18.7205 C   0  0  0  0  0  0  0  0  0  0  0  0
  -29.1858  -16.4660   20.8641 C   0  0  0  0  0  0  0  0  0  0  0  0
  -28.5746  -13.4653   20.6754 C   0  0  0  0  0  0  0  0  0  0  0  0
  -28.6498  -21.1063   18.9936 C   0  0  0  0  0  0  0  0  0  0  0  0
  -18.7063  -29.0828   22.5926 C   0  0  1  0  0  0  0  0  0  0  0  0
  -22.4081  -29.9327   22.5065 C   0  0  1  0  0  0  0  0  0  0  0  0
  -28.3345  -18.0854   19.1231 C   0  0  0  0  0  0  0  0  0  0  0  0
  -28.0778  -12.3717   19.7085 C   0  0  2  0  0  0  0  0  0  0  0  0
  -24.3971  -18.4916   19.6011 C   0  0  0  0  0  0  0  0  0  0  0  0
  -27.3781  -19.1401   17.0428 C   0  0  0  0  0  0  0  0  0  0  0  0
  -28.4058  -33.3387   18.9808 C   0  0  0  0  0  0  0  0  0  0  0  0
  -22.0689  -31.5765   18.2003 C   0  0  0  0  0  0  0  0  0  0  0  0
  -24.2046  -32.4064   17.1912 C   0  0  0  0  0  0  0  0  0  0  0  0
  -23.0553  -33.7480   18.9525 C   0  0  0  0  0  0  0  0  0  0  0  0
  -28.5528  -31.0760   22.0361 C   0  0  0  0  0  0  0  0  0  0  0  0
  -24.8899  -23.0050   21.6645 C   0  0  0  0  0  0  0  0  0  1  0  0
  -27.0885  -18.6869   18.4774 C   0  0  2  0  0  0  0  0  0  0  0  0
  -24.2391  -31.6095   19.5984 C   0  0  1  0  0  0  0  0  0  0  0  0
  -27.8486  -32.6048   20.1906 C   0  0  2  0  0  0  0  0  0  0  0  0
  -23.3913  -32.3104   18.4997 C   0  0  0  0  0  0  0  0  0  0  0  0
  -26.0317  -11.3147   20.5910 N   0  0  0  0  0  0  0  0  0  0  0  0
  -26.5684  -12.2225   19.7580 N   0  0  0  0  0  0  0  0  0  0  0  0
  -23.2973  -30.1540   21.3643 N   0  0  0  0  0  0  0  0  0  0  0  0
  -30.0415  -13.5601   20.6359 N   0  0  0  0  0  0  0  0  0  0  0  0
  -30.0038  -15.8132   19.8333 N   0  0  0  0  0  0  0  0  0  0  0  0
  -26.0139  -13.8723   18.1513 N   0  0  0  0  0  0  0  0  0  0  0  0
  -21.9900  -12.2704   19.4313 N   0  0  0  0  0  0  0  0  0  0  0  0
  -20.0785  -29.4151   22.9103 N   0  0  0  0  0  0  0  0  0  0  0  0
  -25.4844  -32.2974   19.9218 N   0  0  0  0  0  0  0  0  0  0  0  0
  -28.9545  -31.8290   20.8201 N   0  3  0  0  0  0  0  0  0  0  0  0
  -23.0450  -13.7646   18.0481 O   0  0  0  0  0  0  0  0  0  0  0  0
  -20.9087  -29.4938   20.7361 O   0  0  0  0  0  0  0  0  0  0  0  0
  -23.0899  -32.4732   21.4851 O   0  0  0  0  0  0  0  0  0  0  0  0
  -26.8921  -30.5244   19.4197 O   0  0  0  0  0  0  0  0  0  0  0  0
  -31.9429  -14.5636   19.8003 O   0  0  0  0  0  0  0  0  0  0  0  0
  -21.0858   -8.2663   23.1976 O   0  0  0  0  0  0  0  0  0  0  0  0
  -24.8443  -24.1929   20.8836 O   0  0  0  0  0  0  0  0  0  1  0  0
  -22.1972   -2.8825   23.6262 F   0  0  0  0  0  0  0  0  0  0  0  0
  -19.3370   -6.3731   22.1975 F   0  0  0  0  0  0  0  0  0  0  0  0
  1  2  1  0  0  0  0
  1  5  2  0  0  0  0
  2  6  2  0  0  0  0
  3  8  2  0  0  0  0
  3 17  1  0  0  0  0
  4  9  1  0  0  0  0
  4 17  2  0  0  0  0
  5 19  1  0  0  0  0
  6 21  1  0  0  0  0
  7 10  2  0  0  0  0
  7 20  1  0  0  0  0
  8 27  1  0  0  0  0
  9 27  2  0  0  0  0
 10 28  1  0  0  0  0
 11 12  2  0  0  0  0
 11 29  1  0  0  0  0
 12 30  1  0  0  0  0
 13 22  1  0  0  0  0
 13 24  2  0  0  0  0
 14 23  1  0  0  0  0
 14 28  2  0  0  0  0
 15 24  1  0  0  0  0
 15 25  2  0  0  0  0
 16 30  2  0  0  0  0
 16 31  1  0  0  0  0
 17 32  1  0  0  0  0
 18 32  1  0  0  0  0
 18 33  2  0  0  0  0
 18 34  1  0  0  0  0
 19 21  2  0  0  0  0
 19 39  1  0  0  0  0
 20 23  2  0  0  0  0
 20 40  1  0  0  0  0
 21 55  1  0  0  0  0
 22 26  2  0  0  0  0
 22 54  1  0  0  0  0
 23 41  1  0  0  0  0
 24 66  1  0  0  0  0
 25 26  1  0  0  0  0
 25 59  1  0  0  0  0
 26 67  1  0  0  0  0
 27 86  1  0  0  0  0
 28 87  1  0  0  0  0
 29 31  2  0  0  0  0
 29 86  1  0  0  0  0
 30 88  1  0  0  0  0
 31 89  1  0  0  0  0
 32 71  2  0  0  0  0
 33 72  1  0  0  0  0
 33 76  1  0  0  0  0
 34 77  1  0  0  0  0
 34 81  2  0  0  0  0
 35 56  1  0  0  0  0
 35 78  1  0  0  0  0
 35 82  2  0  0  0  0
 36 68  1  0  0  0  0
 36 73  1  0  0  0  0
 36 83  2  0  0  0  0
 37 69  1  0  0  0  0
 37 79  1  0  0  0  0
 37 84  2  0  0  0  0
 38 74  1  0  0  0  0
 38 75  1  0  0  0  0
 38 85  2  0  0  0  0
 39 42  1  0  0  0  0
 40 56  1  0  0  0  0
 41 73  1  0  0  0  0
 42 46  1  0  0  0  0
 43 47  1  0  0  0  0
 43 50  1  0  0  0  0
 44 45  1  0  0  0  0
 44 54  1  0  0  0  0
 45 54  1  0  0  0  0
 46 55  1  0  0  0  0
 47 58  1  0  0  0  0
 48 51  1  0  0  0  0
 48 57  1  0  0  0  0
 49 52  1  0  0  0  0
 49 57  1  0  0  0  0
 50 74  1  0  0  0  0
 51 75  1  0  0  0  0
 52 75  1  0  0  0  0
 53 58  1  0  0  0  0
 53 74  1  0  0  0  0
 55 78  1  0  0  0  0
 56 73  1  0  0  0  0
 57 67  1  0  0  0  0
 58 72  1  0  0  0  0
 60 67  1  0  0  0  0
 61 69  1  0  0  0  0
 62 70  1  0  0  0  0
 63 70  1  0  0  0  0
 64 70  1  0  0  0  0
 65 80  1  0  0  0  0
 66 87  1  0  0  0  0
 68 70  1  0  0  0  0
 68 79  1  0  0  0  0
 69 80  1  0  0  0  0
 71 72  1  0  0  0  0
M  CHG  1  80   1
M  ISO  4  38 100  66 101  75 100  87 101
M  END
> <Batch ID>
0155

> <Smiles>
CNC(C)C(=O)NC(C(=O)N1Cc2cc([101O:1][101CH2:1]c3cc(C)c(C(C)C4CC[100N:0]([100C:0](=O)N5CCCC(n6nc(-c7ccc(Oc8ccc(F)cc8F)cc7)c(C(N)=O)c6N)C5)CC4)c(C4CC4)c3)ccc2CC1C(=O)NC1CCCc2ccccc21)C(C)(C)C

> <Shape>
0.262

> <Color>
0.098

> <Negative vol penalty>
0.000

$$$$

  -OEChem-04052321543D

 89 99  0     1  0  0  0  0  0999 V2000
  -24.3219  -32.1407   25.5025 C   0  0  0  0  0  0  0  0  0  0  0  0
  -23.6271  -31.2405   24.7010 C   0  0  0  0  0  0  0  0  0  0  0  0
  -24.0392  -10.1498   22.6776 C   0  0  0  0  0  0  0  0  0  0  0  0
  -24.6982  -11.9938   24.0927 C   0  0  0  0  0  0  0  0  0  0  0  0
  -25.6513  -32.4468   25.2142 C   0  0  0  0  0  0  0  0  0  0  0  0
  -24.2609  -30.6468   23.6101 C   0  0  0  0  0  0  0  0  0  0  0  0
  -23.3880  -24.9689   21.4875 C   0  0  0  0  0  0  0  0  0  0  0  0
  -23.6568   -9.4218   23.8043 C   0  0  0  0  0  0  0  0  0  0  0  0
  -24.3156  -11.2658   25.2194 C   0  0  0  0  0  0  0  0  0  0  0  0
  -22.6211  -24.4680   20.4365 C   0  0  0  0  0  0  0  0  0  0  0  0
  -21.4441  -10.4806   26.8188 C   0  0  0  0  0  0  0  0  0  0  0  0
  -20.6984  -11.1429   27.7940 C   0  0  0  0  0  0  0  0  0  0  0  0
  -24.5642  -24.5081   19.0075 C   0  0  0  0  0  0  0  0  0  0  0  0
  -25.3303  -16.6569   15.9364 C   0  0  0  0  0  0  0  0  0  0  0  0
  -22.4288  -10.6969   29.4200 C   0  0  0  0  0  0  0  0  0  0  0  0
  -26.3937  -18.5854   16.4053 C   0  0  0  0  0  0  0  0  0  0  0  0
  -24.5600  -11.4357   22.8219 C   0  0  0  0  0  0  0  0  0  0  0  0
  -24.1547  -13.0593   20.8964 C   0  0  0  0  0  0  0  0  0  0  0  0
  -26.3046  -31.8492   24.1249 C   0  0  0  0  0  0  0  0  0  0  0  0
  -24.7486  -25.2539   21.3031 C   0  0  0  0  0  0  0  0  0  0  0  0
  -25.5998  -30.9462   23.3062 C   0  0  0  0  0  0  0  0  0  0  0  0
  -25.3468  -25.0101   20.0585 C   0  0  0  0  0  0  0  0  0  0  0  0
  -25.1446  -18.0173   16.2856 C   0  0  0  0  0  0  0  0  0  0  0  0
  -23.7949   -9.9798   25.0752 C   0  0  0  0  0  0  0  0  0  0  0  0
  -23.2085  -24.2402   19.1954 C   0  0  0  0  0  0  0  0  0  0  0  0
  -22.6821   -9.9264   27.1442 C   0  0  0  0  0  0  0  0  0  0  0  0
  -21.1907  -11.2510   29.0946 C   0  0  0  0  0  0  0  0  0  0  0  0
  -23.1744  -10.0346   28.4448 C   0  0  0  0  0  0  0  0  0  0  0  0
  -24.9559  -12.1880   21.6585 C   0  0  0  0  0  0  0  0  0  0  0  0
  -26.6872  -16.4350   15.8536 C   0  0  0  0  0  0  0  0  0  0  0  0
  -24.9910  -13.5194   19.9089 C   0  0  0  0  0  0  0  0  0  0  0  0
  -22.7776  -13.4206   21.0661 C   0  0  0  0  0  0  0  0  0  0  0  0
  -26.5331  -27.8791   21.4691 C   0  0  0  0  0  0  0  0  0  0  0  0
  -28.9673  -25.7828   21.0194 C   0  0  0  0  0  0  0  0  0  0  0  0
  -29.9998  -22.7521   19.8381 C   0  0  0  0  0  0  0  0  0  0  0  0
  -29.9323  -15.5194   18.2568 C   0  0  0  0  0  0  0  0  0  0  0  0
  -27.7280  -32.2473   23.8248 C   0  0  0  0  0  0  0  0  0  0  0  0
  -25.5682  -25.7686   22.4544 C   0  0  0  0  0  0  0  0  0  0  0  0
  -26.8083  -25.2804   19.8146 C   0  0  0  0  0  0  0  0  0  0  0  0
  -28.4403  -31.2900   22.8726 C   0  0  0  0  0  0  0  0  0  0  0  0
  -29.6075  -11.9840   18.5244 C   0  0  0  0  0  0  0  0  0  0  0  0
  -27.5487  -30.9624   21.6791 C   0  0  0  0  0  0  0  0  0  0  0  0
  -27.7404  -14.8383   14.0611 C   0  0  0  0  0  0  0  0  0  0  0  0
  -26.5883  -14.0992   14.6667 C   0  0  0  0  0  0  0  0  0  0  0  0
  -28.3062  -11.7943   19.3058 C   0  0  0  0  0  0  0  0  0  0  0  0
  -23.7152  -19.2287   17.9247 C   0  0  0  0  0  0  0  0  0  0  0  0
  -23.6669  -19.8499   15.4756 C   0  0  0  0  0  0  0  0  0  0  0  0
  -30.3858  -13.2041   19.0118 C   0  0  0  0  0  0  0  0  0  0  0  0
  -28.3147  -14.2723   19.8138 C   0  0  0  0  0  0  0  0  0  0  0  0
  -22.4050  -19.9780   18.1307 C   0  0  0  0  0  0  0  0  0  0  0  0
  -22.3568  -20.5942   15.7002 C   0  0  0  0  0  0  0  0  0  0  0  0
  -23.8451  -18.7048   16.4854 C   0  0  0  0  0  0  0  0  0  0  0  0
  -26.2603  -30.2627   22.1286 C   0  0  1  0  0  0  0  0  0  0  0  0
  -27.3544  -15.1052   15.5019 C   0  0  0  0  0  0  0  0  0  0  0  0
  -26.8262  -26.5079   22.0090 C   0  0  1  0  0  0  0  0  0  0  0  0
  -27.4678  -13.0866   19.3208 C   0  0  2  0  0  0  0  0  0  0  0  0
  -32.0548  -21.3355   19.5776 C   0  0  0  0  0  0  0  0  0  0  0  0
  -29.8670  -27.5224   18.6796 C   0  0  0  0  0  0  0  0  0  0  0  0
  -31.2862  -25.6141   17.8970 C   0  0  0  0  0  0  0  0  0  0  0  0
  -31.7253  -26.6643   20.1167 C   0  0  0  0  0  0  0  0  0  0  0  0
  -28.8746  -20.6033   21.5338 C   0  0  0  0  0  0  0  0  0  0  0  0
  -28.7555  -17.8126   16.1632 C   0  0  0  0  0  0  0  0  0  0  0  0
  -29.3334  -17.8296   17.5759 C   0  0  0  0  0  0  0  0  0  0  0  0
  -21.0872  -21.9508   17.3626 C   0  0  0  0  0  0  0  0  0  0  0  0
  -21.3643  -22.9057   18.5069 C   0  0  0  0  0  0  0  0  0  1  0  0
  -29.6779  -25.2118   19.8160 C   0  0  1  0  0  0  0  0  0  0  0  0
  -30.8623  -21.6690   20.4606 C   0  0  2  0  0  0  0  0  0  0  0  0
  -30.6111  -26.2498   19.1311 C   0  0  0  0  0  0  0  0  0  0  0  0
  -26.2052  -12.0981   21.1947 N   0  0  0  0  0  0  0  0  0  0  0  0
  -27.3238  -17.6141   16.1408 N   0  0  0  0  0  0  0  0  0  0  0  0
  -26.1953  -12.9188   20.1306 N   0  0  0  0  0  0  0  0  0  0  0  0
  -27.5661  -25.7890   20.9698 N   0  0  0  0  0  0  0  0  0  0  0  0
  -29.5343  -14.3961   19.0003 N   0  0  0  0  0  0  0  0  0  0  0  0
  -24.8064  -14.3750   18.8811 N   0  0  0  0  0  0  0  0  0  0  0  0
  -22.0652  -12.8556   22.1328 N   0  0  0  0  0  0  0  0  0  0  0  0
  -26.5198  -28.8714   22.4308 N   0  0  0  0  0  0  0  0  0  0  0  0
  -30.3604  -24.0081   20.2782 N   0  0  0  0  0  0  0  0  0  0  0  0
  -29.0647  -16.6041   18.2949 N   0  0  0  0  0  0  0  0  0  0  0  0
  -22.2867  -21.1085   17.1259 N   0  3  0  0  0  0  0  0  0  0  0  0
  -30.0660  -20.4259   20.6643 N   0  3  0  0  0  0  0  0  0  0  0  0
  -22.1915  -14.2080   20.2851 O   0  0  0  0  0  0  0  0  0  0  0  0
  -26.3352  -28.0263   20.2688 O   0  0  0  0  0  0  0  0  0  0  0  0
  -29.6309  -26.2011   21.9714 O   0  0  0  0  0  0  0  0  0  0  0  0
  -29.0989  -22.5085   19.0384 O   0  0  0  0  0  0  0  0  0  0  0  0
  -30.9804  -15.5513   17.6030 O   0  0  0  0  0  0  0  0  0  0  0  0
  -23.4215   -9.2699   26.1748 O   0  0  0  0  0  0  0  0  0  0  0  0
  -22.4621  -23.7520   18.1676 O   0  0  0  0  0  0  0  0  0  1  0  0
  -20.4752  -11.8884   30.0305 F   0  0  0  0  0  0  0  0  0  0  0  0
  -24.3636   -9.5052   28.7632 F   0  0  0  0  0  0  0  0  0  0  0  0
  1  2  1  0  0  0  0
  1  5  2  0  0  0  0
  2  6  2  0  0  0  0
  3  8  2  0  0  0  0
  3 17  1  0  0  0  0
  4  9  1  0  0  0  0
  4 17  2  0  0  0  0
  5 19  1  0  0  0  0
  6 21  1  0  0  0  0
  7 10  2  0  0  0  0
  7 20  1  0  0  0  0
  8 24  1  0  0  0  0
  9 24  2  0  0  0  0
 10 25  1  0  0  0  0
 11 12  2  0  0  0  0
 11 26  1  0  0  0  0
 12 27  1  0  0  0  0
 13 22  1  0  0  0  0
 13 25  2  0  0  0  0
 14 23  1  0  0  0  0
 14 30  2  0  0  0  0
 15 27  2  0  0  0  0
 15 28  1  0  0  0  0
 16 23  2  0  0  0  0
 16 70  1  0  0  0  0
 17 29  1  0  0  0  0
 18 29  1  0  0  0  0
 18 31  2  0  0  0  0
 18 32  1  0  0  0  0
 19 21  2  0  0  0  0
 19 37  1  0  0  0  0
 20 22  2  0  0  0  0
 20 38  1  0  0  0  0
 21 53  1  0  0  0  0
 22 39  1  0  0  0  0
 23 52  1  0  0  0  0
 24 86  1  0  0  0  0
 25 87  1  0  0  0  0
 26 28  2  0  0  0  0
 26 86  1  0  0  0  0
 27 88  1  0  0  0  0
 28 89  1  0  0  0  0
 29 69  2  0  0  0  0
 30 54  1  0  0  0  0
 30 70  1  0  0  0  0
 31 71  1  0  0  0  0
 31 74  1  0  0  0  0
 32 75  1  0  0  0  0
 32 81  2  0  0  0  0
 33 55  1  0  0  0  0
 33 76  1  0  0  0  0
 33 82  2  0  0  0  0
 34 66  1  0  0  0  0
 34 72  1  0  0  0  0
 34 83  2  0  0  0  0
 35 67  1  0  0  0  0
 35 77  1  0  0  0  0
 35 84  2  0  0  0  0
 36 73  1  0  0  0  0
 36 78  1  0  0  0  0
 36 85  2  0  0  0  0
 37 40  1  0  0  0  0
 38 55  1  0  0  0  0
 39 72  1  0  0  0  0
 40 42  1  0  0  0  0
 41 45  1  0  0  0  0
 41 48  1  0  0  0  0
 42 53  1  0  0  0  0
 43 44  1  0  0  0  0
 43 54  1  0  0  0  0
 44 54  1  0  0  0  0
 45 56  1  0  0  0  0
 46 50  1  0  0  0  0
 46 52  1  0  0  0  0
 47 51  1  0  0  0  0
 47 52  1  0  0  0  0
 48 73  1  0  0  0  0
 49 56  1  0  0  0  0
 49 73  1  0  0  0  0
 50 79  1  0  0  0  0
 51 79  1  0  0  0  0
 53 76  1  0  0  0  0
 55 72  1  0  0  0  0
 56 71  1  0  0  0  0
 57 67  1  0  0  0  0
 58 68  1  0  0  0  0
 59 68  1  0  0  0  0
 60 68  1  0  0  0  0
 61 80  1  0  0  0  0
 62 63  1  0  0  0  0
 62 70  1  0  0  0  0
 63 78  1  0  0  0  0
 64 65  1  0  0  0  0
 64 79  1  0  0  0  0
 65 87  1  0  0  0  0
 66 68  1  0  0  0  0
 66 77  1  0  0  0  0
 67 80  1  0  0  0  0
 69 71  1  0  0  0  0
M  CHG  2  79   1  80   1
M  ISO  4  36 100  65 101  78 100  87 101
M  END
> <Batch ID>
0155

> <Smiles>
CNC(C)C(=O)NC(C(=O)N1Cc2cc([101O:1][101CH2:1]CN3CCC(c4cc(C5CC5)n(CC[100NH:0][100C:0](=O)N5CCCC(n6nc(-c7ccc(Oc8ccc(F)cc8F)cc7)c(C(N)=O)c6N)C5)c4)CC3)ccc2CC1C(=O)NC1CCCc2ccccc21)C(C)(C)C

> <Shape>
0.208

> <Color>
0.092

> <Negative vol penalty>
0.000

$$$$

  -OEChem-04052321543D

 87 97  0     1  0  0  0  0  0999 V2000
  -20.0756  -25.1430   24.7163 C   0  0  0  0  0  0  0  0  0  0  0  0
  -20.9088  -25.1010   23.6031 C   0  0  0  0  0  0  0  0  0  0  0  0
  -22.7522  -10.4871   20.9171 C   0  0  0  0  0  0  0  0  0  0  0  0
  -24.5150   -9.2646   22.0284 C   0  0  0  0  0  0  0  0  0  0  0  0
  -19.3206  -26.2856   24.9778 C   0  0  0  0  0  0  0  0  0  0  0  0
  -20.9867  -26.2013   22.7500 C   0  0  0  0  0  0  0  0  0  0  0  0
  -25.7533  -27.3291   21.4643 C   0  0  0  0  0  0  0  0  0  0  0  0
  -22.0203   -9.3076   20.7804 C   0  0  0  0  0  0  0  0  0  0  0  0
  -23.7831   -8.0850   21.8917 C   0  0  0  0  0  0  0  0  0  0  0  0
  -26.3533  -26.5373   20.4862 C   0  0  0  0  0  0  0  0  0  0  0  0
  -21.1687   -6.5864   23.4213 C   0  0  0  0  0  0  0  0  0  0  0  0
  -21.0831   -5.7463   24.5315 C   0  0  0  0  0  0  0  0  0  0  0  0
  -29.8313  -24.2241   15.6878 C   0  0  0  0  0  0  0  0  0  0  0  0
  -27.6640  -23.0292   17.0584 C   0  0  0  0  0  0  0  0  0  0  0  0
  -25.8975  -28.2388   18.8380 C   0  0  0  0  0  0  0  0  0  0  0  0
  -22.1338   -3.9732   23.2708 C   0  0  0  0  0  0  0  0  0  0  0  0
  -23.9996  -10.4656   21.5410 C   0  0  0  0  0  0  0  0  0  0  0  0
  -24.7107  -12.5933   22.7554 C   0  0  0  0  0  0  0  0  0  0  0  0
  -19.3966  -27.4040   24.1328 C   0  0  0  0  0  0  0  0  0  0  0  0
  -25.2103  -28.5791   21.1340 C   0  0  0  0  0  0  0  0  0  0  0  0
  -20.2310  -27.3594   22.9996 C   0  0  0  0  0  0  0  0  0  0  0  0
  -29.3251  -22.9977   15.2919 C   0  0  0  0  0  0  0  0  0  0  0  0
  -28.2538  -22.4041   15.9722 C   0  0  0  0  0  0  0  0  0  0  0  0
  -25.2935  -29.0456   19.8143 C   0  0  0  0  0  0  0  0  0  0  0  0
  -29.2364  -24.8651   16.7767 C   0  0  0  0  0  0  0  0  0  0  0  0
  -28.1604  -24.2723   17.4565 C   0  0  0  0  0  0  0  0  0  0  0  0
  -22.5358   -8.1065   21.2677 C   0  0  0  0  0  0  0  0  0  0  0  0
  -26.4229  -26.9908   19.1722 C   0  0  0  0  0  0  0  0  0  0  0  0
  -21.7368   -6.1199   22.2358 C   0  0  0  0  0  0  0  0  0  0  0  0
  -21.5657   -4.4398   24.4562 C   0  0  0  0  0  0  0  0  0  0  0  0
  -22.2194   -4.8133   22.1606 C   0  0  0  0  0  0  0  0  0  0  0  0
  -24.7563  -11.6836   21.6820 C   0  0  0  0  0  0  0  0  0  0  0  0
  -25.6085  -13.5745   22.4124 C   0  0  0  0  0  0  0  0  0  0  0  0
  -23.9269  -12.5548   23.9554 C   0  0  0  0  0  0  0  0  0  0  0  0
  -22.3027  -29.8594   21.2359 C   0  0  0  0  0  0  0  0  0  0  0  0
  -23.8848  -32.5571   20.3745 C   0  0  0  0  0  0  0  0  0  0  0  0
  -26.6233  -33.9648   18.9029 C   0  0  0  0  0  0  0  0  0  0  0  0
  -27.8158  -17.0343   18.9515 C   0  0  0  0  0  0  0  0  0  0  0  0
  -18.5257  -28.5989   24.4301 C   0  0  0  0  0  0  0  0  0  0  0  0
  -24.5902  -29.4328   22.2060 C   0  0  0  0  0  0  0  0  0  0  0  0
  -29.8151  -22.1121   14.1888 C   0  0  0  0  0  0  0  0  0  0  0  0
  -24.7438  -30.3889   19.4119 C   0  0  0  0  0  0  0  0  0  0  0  0
  -18.9492  -29.8619   23.6846 C   0  0  0  0  0  0  0  0  0  0  0  0
  -28.6149  -21.1662   14.0109 C   0  0  0  0  0  0  0  0  0  0  0  0
  -29.0564  -13.7551   18.7252 C   0  0  0  0  0  0  0  0  0  0  0  0
  -19.2161  -29.5504   22.2154 C   0  0  0  0  0  0  0  0  0  0  0  0
  -28.0375  -12.9868   19.5661 C   0  0  0  0  0  0  0  0  0  0  0  0
  -28.3924  -14.8232   17.8543 C   0  0  0  0  0  0  0  0  0  0  0  0
  -28.5151  -17.4692   16.5543 C   0  0  0  0  0  0  0  0  0  0  0  0
  -29.1646  -19.0235   18.3571 C   0  0  0  0  0  0  0  0  0  0  0  0
  -26.5083  -14.9902   19.4484 C   0  0  0  0  0  0  0  0  0  0  0  0
  -27.8408  -18.6107   15.8001 C   0  0  0  0  0  0  0  0  0  0  0  0
  -28.4810  -20.1797   17.6456 C   0  0  0  0  0  0  0  0  0  0  0  0
  -20.3614  -28.5420   22.0644 C   0  0  1  0  0  0  0  0  0  0  0  0
  -27.9221  -21.0691   15.3820 C   0  0  1  0  0  0  0  0  0  0  0  0
  -23.6118  -30.4658   21.6558 C   0  0  1  0  0  0  0  0  0  0  0  0
  -27.1526  -13.9498   20.3774 C   0  0  1  0  0  0  0  0  0  0  0  0
  -29.7701  -26.1929   17.2085 C   0  0  0  0  0  0  0  0  0  0  0  0
  -27.6166  -36.1930   18.3144 C   0  0  0  0  0  0  0  0  0  0  0  0
  -21.9267  -32.8129   18.0485 C   0  0  0  0  0  0  0  0  0  0  0  0
  -23.5045  -34.4437   16.9906 C   0  0  0  0  0  0  0  0  0  0  0  0
  -22.4677  -34.9668   19.1984 C   0  0  0  0  0  0  0  0  0  0  0  0
  -29.0034  -33.4808   20.5941 C   0  0  0  0  0  0  0  0  0  0  0  0
  -27.5288  -24.9577   18.6252 C   0  0  0  0  0  0  0  0  0  1  0  0
  -24.2694  -33.1983   19.0630 C   0  0  1  0  0  0  0  0  0  0  0  0
  -27.5449  -35.0841   19.3527 C   0  0  2  0  0  0  0  0  0  0  0  0
  -23.0508  -33.8292   18.3320 C   0  0  0  0  0  0  0  0  0  0  0  0
  -25.6150  -12.0540   20.7284 N   0  0  0  0  0  0  0  0  0  0  0  0
  -26.1173  -13.2073   21.2014 N   0  0  0  0  0  0  0  0  0  0  0  0
  -24.1416  -31.1839   20.4948 N   0  0  0  0  0  0  0  0  0  0  0  0
  -27.5272  -15.6917   18.6647 N   0  0  0  0  0  0  0  0  0  0  0  0
  -28.5568  -17.7448   17.9955 N   0  0  0  0  0  0  0  0  0  0  0  0
  -26.0045  -14.7069   23.0315 N   0  0  0  0  0  0  0  0  0  0  0  0
  -23.0547  -11.4750   24.1494 N   0  0  0  0  0  0  0  0  0  0  0  0
  -21.6388  -29.1964   22.2503 N   0  0  0  0  0  0  0  0  0  0  0  0
  -25.3379  -34.1435   19.3686 N   0  0  0  0  0  0  0  0  0  0  0  0
  -28.5030  -19.9198   16.1573 N   0  3  0  0  0  0  0  0  0  0  0  0
  -28.9224  -34.5618   19.5784 N   0  3  0  0  0  0  0  0  0  0  0  0
  -23.9858  -13.4598   24.8220 O   0  0  0  0  0  0  0  0  0  0  0  0
  -21.9224  -29.9852   20.0778 O   0  0  0  0  0  0  0  0  0  0  0  0
  -23.3820  -33.2504   21.2622 O   0  0  0  0  0  0  0  0  0  0  0  0
  -27.0048  -33.0279   18.2050 O   0  0  0  0  0  0  0  0  0  0  0  0
  -27.4329  -17.5675   20.0006 O   0  0  0  0  0  0  0  0  0  0  0  0
  -21.8218   -6.9554   21.1347 O   0  0  0  0  0  0  0  0  0  0  0  0
  -27.0117  -26.2141   18.2084 O   0  0  0  0  0  0  0  0  0  1  0  0
  -21.4848   -3.6336   25.5229 F   0  0  0  0  0  0  0  0  0  0  0  0
  -22.7673   -4.3599   21.0248 F   0  0  0  0  0  0  0  0  0  0  0  0
  1  2  1  0  0  0  0
  1  5  2  0  0  0  0
  2  6  2  0  0  0  0
  3  8  2  0  0  0  0
  3 17  1  0  0  0  0
  4  9  1  0  0  0  0
  4 17  2  0  0  0  0
  5 19  1  0  0  0  0
  6 21  1  0  0  0  0
  7 10  2  0  0  0  0
  7 20  1  0  0  0  0
  8 27  1  0  0  0  0
  9 27  2  0  0  0  0
 10 28  1  0  0  0  0
 11 12  2  0  0  0  0
 11 29  1  0  0  0  0
 12 30  1  0  0  0  0
 13 22  2  0  0  0  0
 13 25  1  0  0  0  0
 14 23  2  0  0  0  0
 14 26  1  0  0  0  0
 15 24  1  0  0  0  0
 15 28  2  0  0  0  0
 16 30  2  0  0  0  0
 16 31  1  0  0  0  0
 17 32  1  0  0  0  0
 18 32  1  0  0  0  0
 18 33  2  0  0  0  0
 18 34  1  0  0  0  0
 19 21  2  0  0  0  0
 19 39  1  0  0  0  0
 20 24  2  0  0  0  0
 20 40  1  0  0  0  0
 21 54  1  0  0  0  0
 22 23  1  0  0  0  0
 22 41  1  0  0  0  0
 23 55  1  0  0  0  0
 24 42  1  0  0  0  0
 25 26  2  0  0  0  0
 25 58  1  0  0  0  0
 26 64  1  0  0  0  0
 27 84  1  0  0  0  0
 28 85  1  0  0  0  0
 29 31  2  0  0  0  0
 29 84  1  0  0  0  0
 30 86  1  0  0  0  0
 31 87  1  0  0  0  0
 32 68  2  0  0  0  0
 33 69  1  0  0  0  0
 33 73  1  0  0  0  0
 34 74  1  0  0  0  0
 34 79  2  0  0  0  0
 35 56  1  0  0  0  0
 35 75  1  0  0  0  0
 35 80  2  0  0  0  0
 36 65  1  0  0  0  0
 36 70  1  0  0  0  0
 36 81  2  0  0  0  0
 37 66  1  0  0  0  0
 37 76  1  0  0  0  0
 37 82  2  0  0  0  0
 38 71  1  0  0  0  0
 38 72  1  0  0  0  0
 38 83  2  0  0  0  0
 39 43  1  0  0  0  0
 40 56  1  0  0  0  0
 41 44  1  0  0  0  0
 42 70  1  0  0  0  0
 43 46  1  0  0  0  0
 44 55  1  0  0  0  0
 45 47  1  0  0  0  0
 45 48  1  0  0  0  0
 46 54  1  0  0  0  0
 47 57  1  0  0  0  0
 48 71  1  0  0  0  0
 49 52  1  0  0  0  0
 49 72  1  0  0  0  0
 50 53  1  0  0  0  0
 50 72  1  0  0  0  0
 51 57  1  0  0  0  0
 51 71  1  0  0  0  0
 52 77  1  0  0  0  0
 53 77  1  0  0  0  0
 54 75  1  0  0  0  0
 55 77  1  0  0  0  0
 56 70  1  0  0  0  0
 57 69  1  0  0  0  0
 59 66  1  0  0  0  0
 60 67  1  0  0  0  0
 61 67  1  0  0  0  0
 62 67  1  0  0  0  0
 63 78  1  0  0  0  0
 64 85  1  0  0  0  0
 65 67  1  0  0  0  0
 65 76  1  0  0  0  0
 66 78  1  0  0  0  0
 68 69  1  0  0  0  0
M  CHG  2  77   1  78   1
M  ISO  4  38 100  64 101  72 100  85 101
M  END
> <Batch ID>
0155

> <Smiles>
CNC(C)C(=O)NC(C(=O)N1Cc2cc([101O:1][101CH2:1]c3cc4c(cc3C)CCC4N3CC[100N:0]([100C:0](=O)N4CCCC(n5nc(-c6ccc(Oc7ccc(F)cc7F)cc6)c(C(N)=O)c5N)C4)CC3)ccc2CC1C(=O)NC1CCCc2ccccc21)C(C)(C)C

> <Shape>
0.254

> <Color>
0.134

> <Negative vol penalty>
0.000

$$$$

  -OEChem-04052321543D

 89 99  0     1  0  0  0  0  0999 V2000
  -23.4532   -6.7374   24.0054 C   0  0  0  0  0  0  0  0  0  0  0  0
  -24.6443   -7.4453   24.1307 C   0  0  0  0  0  0  0  0  0  0  0  0
  -22.3480  -26.1177   22.9778 C   0  0  0  0  0  0  0  0  0  0  0  0
  -21.4153  -27.1553   21.0053 C   0  0  0  0  0  0  0  0  0  0  0  0
  -22.5984   -6.9975   22.9350 C   0  0  0  0  0  0  0  0  0  0  0  0
  -24.9818   -8.4129   23.1850 C   0  0  0  0  0  0  0  0  0  0  0  0
  -28.3797  -14.6911   22.5896 C   0  0  0  0  0  0  0  0  0  0  0  0
  -21.1484  -26.3304   23.6569 C   0  0  0  0  0  0  0  0  0  0  0  0
  -20.2156  -27.3679   21.6844 C   0  0  0  0  0  0  0  0  0  0  0  0
  -29.3797  -15.3076   21.8388 C   0  0  0  0  0  0  0  0  0  0  0  0
  -18.9933  -29.5509   23.9585 C   0  0  0  0  0  0  0  0  0  0  0  0
  -18.3910  -30.8028   23.8336 C   0  0  0  0  0  0  0  0  0  0  0  0
  -32.4267  -21.0461   20.2245 C   0  0  0  0  0  0  0  0  0  0  0  0
  -27.7882  -15.7275   20.0752 C   0  0  0  0  0  0  0  0  0  0  0  0
  -16.4266  -29.7631   22.8862 C   0  0  0  0  0  0  0  0  0  0  0  0
  -22.4815  -26.5302   21.6520 C   0  0  0  0  0  0  0  0  0  0  0  0
  -24.0779  -25.1832   20.1875 C   0  0  0  0  0  0  0  0  0  0  0  0
  -22.9211   -7.9755   21.9811 C   0  0  0  0  0  0  0  0  0  0  0  0
  -27.0768  -14.5783   22.0834 C   0  0  0  0  0  0  0  0  0  0  0  0
  -24.1312   -8.6853   22.1002 C   0  0  0  0  0  0  0  0  0  0  0  0
  -33.3907  -20.1082   19.8718 C   0  0  0  0  0  0  0  0  0  0  0  0
  -26.7729  -15.1114   20.8226 C   0  0  0  0  0  0  0  0  0  0  0  0
  -32.7338  -22.4014   20.1788 C   0  0  0  0  0  0  0  0  0  0  0  0
  -20.0822  -26.9554   23.0103 C   0  0  0  0  0  0  0  0  0  0  0  0
  -29.0847  -15.8234   20.5802 C   0  0  0  0  0  0  0  0  0  0  0  0
  -18.3123  -28.4051   23.5472 C   0  0  0  0  0  0  0  0  0  0  0  0
  -17.1076  -30.9089   23.2974 C   0  0  0  0  0  0  0  0  0  0  0  0
  -17.0290  -28.5112   23.0111 C   0  0  0  0  0  0  0  0  0  0  0  0
  -23.7206  -26.3113   20.9501 C   0  0  0  0  0  0  0  0  0  0  0  0
  -34.6367  -20.5734   19.4835 C   0  0  0  0  0  0  0  0  0  0  0  0
  -34.0093  -22.7640   19.7769 C   0  0  0  0  0  0  0  0  0  0  0  0
  -25.3441  -25.4620   19.7343 C   0  0  0  0  0  0  0  0  0  0  0  0
  -23.3317  -23.9900   19.9131 C   0  0  0  0  0  0  0  0  0  0  0  0
  -25.1595  -12.1530   21.3448 C   0  0  0  0  0  0  0  0  0  0  0  0
  -22.9944  -14.5201   20.8633 C   0  0  0  0  0  0  0  0  0  0  0  0
  -22.4035  -17.8054   20.1530 C   0  0  0  0  0  0  0  0  0  0  0  0
  -30.5138  -27.3153   21.1369 C   0  0  0  0  0  0  0  0  0  0  0  0
  -21.9880   -8.1883   20.8154 C   0  0  0  0  0  0  0  0  0  0  0  0
  -26.0032  -13.9342   22.9170 C   0  0  0  0  0  0  0  0  0  0  0  0
  -25.3852  -15.0340   20.2424 C   0  0  0  0  0  0  0  0  0  0  0  0
  -22.2409   -9.4921   20.0629 C   0  0  0  0  0  0  0  0  0  0  0  0
  -28.0385  -29.7346   19.8313 C   0  0  0  0  0  0  0  0  0  0  0  0
  -23.7318   -9.6740   19.7961 C   0  0  0  0  0  0  0  0  0  0  0  0
  -26.7175  -28.9872   20.0125 C   0  0  0  0  0  0  0  0  0  0  0  0
  -32.6206  -17.9619   18.6532 C   0  0  0  0  0  0  0  0  0  0  0  0
  -29.0809  -29.3040   20.8595 C   0  0  0  0  0  0  0  0  0  0  0  0
  -31.6743  -23.7912   21.9231 C   0  0  0  0  0  0  0  0  0  0  0  0
  -31.6670  -25.3151   21.9721 C   0  0  0  0  0  0  0  0  0  0  0  0
  -27.9991  -27.0951   21.0842 C   0  0  0  0  0  0  0  0  0  0  0  0
  -29.9604  -25.0187   20.1897 C   0  0  0  0  0  0  0  0  0  0  0  0
  -33.0695  -18.6541   19.9178 C   0  0  2  0  0  0  0  0  0  0  0  0
  -24.5205   -9.7600   21.1084 C   0  0  1  0  0  0  0  0  0  0  0  0
  -24.8318  -13.4176   22.0872 C   0  0  1  0  0  0  0  0  0  0  0  0
  -31.6326  -18.2164   19.7524 C   0  0  2  0  0  0  0  0  0  0  0  0
  -26.9457  -27.4652   20.0301 C   0  0  1  0  0  0  0  0  0  0  0  0
  -30.9228  -24.0133   19.5259 C   0  0  2  0  0  0  0  0  0  0  0  0
  -35.7124  -19.6126   19.0942 C   0  0  0  0  0  0  0  0  0  0  0  0
  -34.3991  -24.2049   19.7071 C   0  0  0  0  0  0  0  0  0  0  0  0
  -30.0821  -22.9899   18.7528 C   0  0  0  0  0  0  0  0  0  0  0  0
  -20.5313  -19.4359   19.7877 C   0  0  0  0  0  0  0  0  0  0  0  0
  -22.5242  -13.3537   18.0834 C   0  0  0  0  0  0  0  0  0  0  0  0
  -21.4103  -15.5034   17.4460 C   0  0  0  0  0  0  0  0  0  0  0  0
  -20.4503  -14.0956   19.2679 C   0  0  0  0  0  0  0  0  0  0  0  0
  -23.2536  -19.4729   22.4455 C   0  0  0  0  0  0  0  0  0  0  0  0
  -31.1026  -17.0818   20.5598 C   0  0  0  0  0  0  0  0  0  1  0  0
  -22.5898  -15.3758   19.6873 C   0  0  1  0  0  0  0  0  0  0  0  0
  -21.4873  -18.8272   20.8017 C   0  0  2  0  0  0  0  0  0  0  0  0
  -21.7703  -14.5820   18.6310 C   0  0  0  0  0  0  0  0  0  0  0  0
  -24.6823  -27.2377   20.9820 N   0  0  0  0  0  0  0  0  0  0  0  0
  -34.9721  -21.8818   19.4268 N   0  0  0  0  0  0  0  0  0  0  0  0
  -25.6564  -26.6921   20.2339 N   0  0  0  0  0  0  0  0  0  0  0  0
  -31.7748  -23.3495   20.5308 N   0  0  3  0  0  0  0  0  0  0  0  0
  -24.3713  -14.3892   21.0932 N   0  0  0  0  0  0  0  0  0  0  0  0
  -29.2429  -27.8501   20.8792 N   0  0  0  0  0  0  0  0  0  0  0  0
  -30.6396  -25.9165   21.1285 N   0  0  0  0  0  0  0  0  0  0  0  0
  -26.2098  -24.7725   18.9614 N   0  0  0  0  0  0  0  0  0  0  0  0
  -22.0459  -23.8661   20.4569 N   0  0  0  0  0  0  0  0  0  0  0  0
  -24.3750  -11.0725   21.7005 N   0  0  0  0  0  0  0  0  0  0  0  0
  -21.8899  -16.5289   20.2432 N   0  0  0  0  0  0  0  0  0  0  0  0
  -22.2873  -19.9264   21.4123 N   0  3  0  0  0  0  0  0  0  0  0  0
  -23.7981  -23.0540   19.2203 O   0  0  0  0  0  0  0  0  0  0  0  0
  -26.0565  -12.1576   20.5100 O   0  0  0  0  0  0  0  0  0  0  0  0
  -22.1209  -13.9932   21.5569 O   0  0  0  0  0  0  0  0  0  0  0  0
  -23.4665  -18.1096   19.6164 O   0  0  0  0  0  0  0  0  0  0  0  0
  -31.4900  -28.0475   21.3457 O   0  0  0  0  0  0  0  0  0  0  0  0
  -18.9113  -27.1629   23.6726 O   0  0  0  0  0  0  0  0  0  0  0  0
  -30.0663  -16.4296   19.8395 O   0  0  0  0  0  0  0  0  0  1  0  0
  -16.5287  -32.1110   23.1790 F   0  0  0  0  0  0  0  0  0  0  0  0
  -16.3693  -27.4139   22.6153 F   0  0  0  0  0  0  0  0  0  0  0  0
  1  2  1  0  0  0  0
  1  5  2  0  0  0  0
  2  6  2  0  0  0  0
  3  8  2  0  0  0  0
  3 16  1  0  0  0  0
  4  9  1  0  0  0  0
  4 16  2  0  0  0  0
  5 18  1  0  0  0  0
  6 20  1  0  0  0  0
  7 10  2  0  0  0  0
  7 19  1  0  0  0  0
  8 24  1  0  0  0  0
  9 24  2  0  0  0  0
 10 25  1  0  0  0  0
 11 12  2  0  0  0  0
 11 26  1  0  0  0  0
 12 27  1  0  0  0  0
 13 21  1  0  0  0  0
 13 23  2  0  0  0  0
 14 22  1  0  0  0  0
 14 25  2  0  0  0  0
 15 27  2  0  0  0  0
 15 28  1  0  0  0  0
 16 29  1  0  0  0  0
 17 29  1  0  0  0  0
 17 32  2  0  0  0  0
 17 33  1  0  0  0  0
 18 20  2  0  0  0  0
 18 38  1  0  0  0  0
 19 22  2  0  0  0  0
 19 39  1  0  0  0  0
 20 52  1  0  0  0  0
 21 30  2  0  0  0  0
 21 51  1  0  0  0  0
 22 40  1  0  0  0  0
 23 31  1  0  0  0  0
 23 72  1  0  0  0  0
 24 86  1  0  0  0  0
 25 87  1  0  0  0  0
 26 28  2  0  0  0  0
 26 86  1  0  0  0  0
 27 88  1  0  0  0  0
 28 89  1  0  0  0  0
 29 69  2  0  0  0  0
 30 57  1  0  0  0  0
 30 70  1  0  0  0  0
 31 58  1  0  0  0  0
 31 70  2  0  0  0  0
 32 71  1  0  0  0  0
 32 76  1  0  0  0  0
 33 77  1  0  0  0  0
 33 81  2  0  0  0  0
 34 53  1  0  0  0  0
 34 78  1  0  0  0  0
 34 82  2  0  0  0  0
 35 66  1  0  0  0  0
 35 73  1  0  0  0  0
 35 83  2  0  0  0  0
 36 67  1  0  0  0  0
 36 79  1  0  0  0  0
 36 84  2  0  0  0  0
 37 74  1  0  0  0  0
 37 75  1  0  0  0  0
 37 85  2  0  0  0  0
 38 41  1  0  0  0  0
 39 53  1  0  0  0  0
 40 73  1  0  0  0  0
 41 43  1  0  0  0  0
 42 44  1  0  0  0  0
 42 46  1  0  0  0  0
 43 52  1  0  0  0  0
 44 55  1  0  0  0  0
 45 51  1  0  0  0  0
 45 54  1  0  0  0  0
 46 74  1  0  0  0  0
 47 48  1  0  0  0  0
 47 72  1  0  0  0  0
 48 75  1  0  0  0  0
 49 55  1  0  0  0  0
 49 74  1  0  0  0  0
 50 56  1  0  0  0  0
 50 75  1  0  0  0  0
 51 54  1  0  0  0  0
 52 78  1  0  0  0  0
 53 73  1  0  0  0  0
 54 65  1  0  0  0  0
 55 71  1  0  0  0  0
 56 59  1  0  0  0  0
 56 72  1  0  0  0  0
 60 67  1  0  0  0  0
 61 68  1  0  0  0  0
 62 68  1  0  0  0  0
 63 68  1  0  0  0  0
 64 80  1  0  0  0  0
 65 87  1  0  0  0  0
 66 68  1  0  0  0  0
 66 79  1  0  0  0  0
 67 80  1  0  0  0  0
 69 71  1  0  0  0  0
M  CHG  1  80   1
M  ISO  4  37 100  65 101  75 100  87 101
M  END
> <Batch ID>
0155

> <Smiles>
CNC(C)C(=O)NC(C(=O)N1Cc2cc([101O:1][101CH2:1]C3CC3c3cc(N4CC[100N:0]([100C:0](=O)N5CCCC(n6nc(-c7ccc(Oc8ccc(F)cc8F)cc7)c(C(N)=O)c6N)C5)CC4C)c(C)nc3C)ccc2CC1C(=O)NC1CCCc2ccccc21)C(C)(C)C

> <Shape>
0.239

> <Color>
0.060

> <Negative vol penalty>
0.000

$$$$

  -OEChem-04052321543D

 91101  0     1  0  0  0  0  0999 V2000
  -26.3327  -29.2713   21.0503 C   0  0  0  0  0  0  0  0  0  0  0  0
  -25.6971  -28.4659   21.9899 C   0  0  0  0  0  0  0  0  0  0  0  0
  -28.0658  -13.5731   18.7908 C   0  0  0  0  0  0  0  0  0  0  0  0
  -28.6437  -12.3161   20.7715 C   0  0  0  0  0  0  0  0  0  0  0  0
  -25.6960  -30.4146   20.5691 C   0  0  0  0  0  0  0  0  0  0  0  0
  -24.4249  -28.8040   22.4498 C   0  0  0  0  0  0  0  0  0  0  0  0
  -21.3004  -24.8225   22.6236 C   0  0  0  0  0  0  0  0  0  0  0  0
  -29.4136  -13.6360   18.4374 C   0  0  0  0  0  0  0  0  0  0  0  0
  -29.9916  -12.3790   20.4181 C   0  0  0  0  0  0  0  0  0  0  0  0
  -21.4471  -23.9444   23.6965 C   0  0  0  0  0  0  0  0  0  0  0  0
  -32.5047  -14.6356   20.5714 C   0  0  0  0  0  0  0  0  0  0  0  0
  -33.4225  -14.9569   21.5713 C   0  0  0  0  0  0  0  0  0  0  0  0
  -21.6920  -15.4843   24.7389 C   0  0  0  0  0  0  0  0  0  0  0  0
  -19.5763  -24.9921   24.8018 C   0  0  0  0  0  0  0  0  0  0  0  0
  -34.5380  -12.8416   21.2272 C   0  0  0  0  0  0  0  0  0  0  0  0
  -27.6808  -12.9132   19.9579 C   0  0  0  0  0  0  0  0  0  0  0  0
  -25.4255  -13.9307   20.5789 C   0  0  0  0  0  0  0  0  0  0  0  0
  -24.4113  -30.7616   21.0161 C   0  0  0  0  0  0  0  0  0  0  0  0
  -20.2958  -25.8007   22.6365 C   0  0  0  0  0  0  0  0  0  0  0  0
  -23.7710  -29.9537   21.9751 C   0  0  0  0  0  0  0  0  0  0  0  0
  -20.7072  -14.8258   25.4751 C   0  0  0  0  0  0  0  0  0  0  0  0
  -19.4174  -25.8797   23.7266 C   0  0  0  0  0  0  0  0  0  0  0  0
  -21.7768  -16.8761   24.7759 C   0  0  0  0  0  0  0  0  0  0  0  0
  -19.8069  -15.5590   26.2481 C   0  0  0  0  0  0  0  0  0  0  0  0
  -19.8916  -16.9509   26.2850 C   0  0  0  0  0  0  0  0  0  0  0  0
  -20.8766  -17.6094   25.5489 C   0  0  0  0  0  0  0  0  0  0  0  0
  -30.3766  -13.0390   19.2510 C   0  0  0  0  0  0  0  0  0  0  0  0
  -20.5868  -24.0310   24.7872 C   0  0  0  0  0  0  0  0  0  0  0  0
  -32.6034  -13.4172   19.8994 C   0  0  0  0  0  0  0  0  0  0  0  0
  -34.4392  -14.0600   21.8992 C   0  0  0  0  0  0  0  0  0  0  0  0
  -33.6201  -12.5203   20.2273 C   0  0  0  0  0  0  0  0  0  0  0  0
  -26.2887  -12.8483   20.3238 C   0  0  0  0  0  0  0  0  0  0  0  0
  -24.2207  -13.3450   20.8821 C   0  0  0  0  0  0  0  0  0  0  0  0
  -25.6891  -15.3396   20.5448 C   0  0  0  0  0  0  0  0  0  0  0  0
  -20.2584  -28.9786   22.5786 C   0  0  0  0  0  0  0  0  0  0  0  0
  -17.0518  -28.5482   22.3439 C   0  0  0  0  0  0  0  0  0  0  0  0
  -14.3493  -26.5411   22.9047 C   0  0  0  0  0  0  0  0  0  0  0  0
  -21.1469   -9.5625   23.3637 C   0  0  0  0  0  0  0  0  0  0  0  0
  -23.7826  -32.0326   20.5024 C   0  0  0  0  0  0  0  0  0  0  0  0
  -20.1339  -26.7229   21.4594 C   0  0  0  0  0  0  0  0  0  0  0  0
  -18.3097  -26.8989   23.7802 C   0  0  0  0  0  0  0  0  0  0  0  0
  -22.2806  -32.1170   20.7612 C   0  0  0  0  0  0  0  0  0  0  0  0
  -22.6579   -8.5638   20.4190 C   0  0  0  0  0  0  0  0  0  0  0  0
  -21.9639  -31.7228   22.2003 C   0  0  0  0  0  0  0  0  0  0  0  0
  -23.6724   -9.6726   20.1390 C   0  0  0  0  0  0  0  0  0  0  0  0
  -19.6751  -12.8201   24.3214 C   0  0  0  0  0  0  0  0  0  0  0  0
  -22.0276  -12.6765   25.2413 C   0  0  0  0  0  0  0  0  0  0  0  0
  -21.3523  -21.0856   26.8478 C   0  0  0  0  0  0  0  0  0  0  0  0
  -20.3341  -21.1621   24.5665 C   0  0  0  0  0  0  0  0  0  0  0  0
  -22.6252   -8.2149   21.9028 C   0  0  0  0  0  0  0  0  0  0  0  0
  -19.6324  -11.2952   24.2559 C   0  0  0  0  0  0  0  0  0  0  0  0
  -21.9313  -11.1560   25.1568 C   0  0  0  0  0  0  0  0  0  0  0  0
  -21.8039  -19.6489   26.6009 C   0  0  0  0  0  0  0  0  0  0  0  0
  -20.7887  -19.7277   24.3153 C   0  0  0  0  0  0  0  0  0  0  0  0
  -23.3467  -10.4976   22.5217 C   0  0  0  0  0  0  0  0  0  0  0  0
  -20.6368  -13.3113   25.4172 C   0  0  0  0  0  0  0  0  0  0  0  0
  -22.3806  -30.2737   22.4798 C   0  0  1  0  0  0  0  0  0  0  0  0
  -19.4009  -28.0145   21.8086 C   0  0  1  0  0  0  0  0  0  0  0  0
  -23.4128  -10.8972   21.0341 C   0  0  1  0  0  0  0  0  0  0  0  0
  -21.2506  -21.8789   25.5513 C   0  0  0  0  0  0  0  0  0  1  0  0
  -22.8426  -17.5534   23.9769 C   0  0  0  0  0  0  0  0  0  0  0  0
  -18.7516  -14.8495   27.0363 C   0  0  0  0  0  0  0  0  0  0  0  0
  -18.9234  -17.7341   27.1156 C   0  0  0  0  0  0  0  0  0  0  0  0
  -11.8546  -26.4770   22.6408 C   0  0  0  0  0  0  0  0  0  0  0  0
  -16.7527  -30.4085   24.7439 C   0  0  0  0  0  0  0  0  0  0  0  0
  -14.4111  -29.5655   25.0171 C   0  0  0  0  0  0  0  0  0  0  0  0
  -15.0674  -30.7653   22.9309 C   0  0  0  0  0  0  0  0  0  0  0  0
  -14.4832  -24.1916   21.1100 C   0  0  0  0  0  0  0  0  0  0  0  0
  -15.9158  -28.4173   23.3294 C   0  0  1  0  0  0  0  0  0  0  0  0
  -13.1942  -26.1333   22.0081 C   0  0  2  0  0  0  0  0  0  0  0  0
  -15.5587  -29.7711   24.0055 C   0  0  0  0  0  0  0  0  0  0  0  0
  -25.6838  -11.6646   20.4538 N   0  0  0  0  0  0  0  0  0  0  0  0
  -24.4276  -11.9998   20.7940 N   0  0  0  0  0  0  0  0  0  0  0  0
  -20.9629  -19.0070   25.5843 N   0  0  0  0  0  0  0  0  0  0  0  0
  -18.1961  -27.7823   22.6079 N   0  0  0  0  0  0  0  0  0  0  0  0
  -22.3829   -9.4046   22.7186 N   0  0  0  0  0  0  0  0  0  0  0  0
  -20.9745  -10.7291   24.1267 N   0  0  0  0  0  0  0  0  0  0  0  0
  -23.0152  -13.8546   21.2130 N   0  0  0  0  0  0  0  0  0  0  0  0
  -26.1263  -15.9662   21.7198 N   0  0  0  0  0  0  0  0  0  0  0  0
  -21.4143  -29.3530   21.9203 N   0  0  0  0  0  0  0  0  0  0  0  0
  -14.8112  -27.8040   22.5999 N   0  0  0  0  0  0  0  0  0  0  0  0
  -13.2302  -24.6656   21.7521 N   0  3  0  0  0  0  0  0  0  0  0  0
  -25.5255  -16.0257   19.5075 O   0  0  0  0  0  0  0  0  0  0  0  0
  -19.8974  -29.3560   23.6871 O   0  0  0  0  0  0  0  0  0  0  0  0
  -16.9258  -29.2970   21.3717 O   0  0  0  0  0  0  0  0  0  0  0  0
  -14.7948  -25.8136   23.7895 O   0  0  0  0  0  0  0  0  0  0  0  0
  -20.2488   -8.7175   23.2614 O   0  0  0  0  0  0  0  0  0  0  0  0
  -31.6919  -13.1000   18.9063 O   0  0  0  0  0  0  0  0  0  0  0  0
  -20.7290  -23.1698   25.8432 O   0  0  0  0  0  0  0  0  0  1  0  0
  -35.3214  -14.3694   22.8584 F   0  0  0  0  0  0  0  0  0  0  0  0
  -33.7207  -11.3488   19.5844 F   0  0  0  0  0  0  0  0  0  0  0  0
  1  2  1  0  0  0  0
  1  5  2  0  0  0  0
  2  6  2  0  0  0  0
  3  8  2  0  0  0  0
  3 16  1  0  0  0  0
  4  9  1  0  0  0  0
  4 16  2  0  0  0  0
  5 18  1  0  0  0  0
  6 20  1  0  0  0  0
  7 10  2  0  0  0  0
  7 19  1  0  0  0  0
  8 27  1  0  0  0  0
  9 27  2  0  0  0  0
 10 28  1  0  0  0  0
 11 12  2  0  0  0  0
 11 29  1  0  0  0  0
 12 30  1  0  0  0  0
 13 21  1  0  0  0  0
 13 23  2  0  0  0  0
 14 22  1  0  0  0  0
 14 28  2  0  0  0  0
 15 30  2  0  0  0  0
 15 31  1  0  0  0  0
 16 32  1  0  0  0  0
 17 32  1  0  0  0  0
 17 33  2  0  0  0  0
 17 34  1  0  0  0  0
 18 20  2  0  0  0  0
 18 39  1  0  0  0  0
 19 22  2  0  0  0  0
 19 40  1  0  0  0  0
 20 57  1  0  0  0  0
 21 24  2  0  0  0  0
 21 56  1  0  0  0  0
 22 41  1  0  0  0  0
 23 26  1  0  0  0  0
 23 61  1  0  0  0  0
 24 25  1  0  0  0  0
 24 62  1  0  0  0  0
 25 26  2  0  0  0  0
 25 63  1  0  0  0  0
 26 74  1  0  0  0  0
 27 88  1  0  0  0  0
 28 89  1  0  0  0  0
 29 31  2  0  0  0  0
 29 88  1  0  0  0  0
 30 90  1  0  0  0  0
 31 91  1  0  0  0  0
 32 72  2  0  0  0  0
 33 73  1  0  0  0  0
 33 78  1  0  0  0  0
 34 79  1  0  0  0  0
 34 83  2  0  0  0  0
 35 58  1  0  0  0  0
 35 80  1  0  0  0  0
 35 84  2  0  0  0  0
 36 69  1  0  0  0  0
 36 75  1  0  0  0  0
 36 85  2  0  0  0  0
 37 70  1  0  0  0  0
 37 81  1  0  0  0  0
 37 86  2  0  0  0  0
 38 76  1  0  0  0  0
 38 77  1  0  0  0  0
 38 87  2  0  0  0  0
 39 42  1  0  0  0  0
 40 58  1  0  0  0  0
 41 75  1  0  0  0  0
 42 44  1  0  0  0  0
 43 45  1  0  0  0  0
 43 50  1  0  0  0  0
 44 57  1  0  0  0  0
 45 59  1  0  0  0  0
 46 51  1  0  0  0  0
 46 56  1  0  0  0  0
 47 52  1  0  0  0  0
 47 56  1  0  0  0  0
 48 53  1  0  0  0  0
 48 60  1  0  0  0  0
 49 54  1  0  0  0  0
 49 60  1  0  0  0  0
 50 76  1  0  0  0  0
 51 77  1  0  0  0  0
 52 77  1  0  0  0  0
 53 74  1  0  0  0  0
 54 74  1  0  0  0  0
 55 59  1  0  0  0  0
 55 76  1  0  0  0  0
 57 80  1  0  0  0  0
 58 75  1  0  0  0  0
 59 73  1  0  0  0  0
 60 89  1  0  0  0  0
 64 70  1  0  0  0  0
 65 71  1  0  0  0  0
 66 71  1  0  0  0  0
 67 71  1  0  0  0  0
 68 82  1  0  0  0  0
 69 71  1  0  0  0  0
 69 81  1  0  0  0  0
 70 82  1  0  0  0  0
 72 73  1  0  0  0  0
M  CHG  1  82   1
M  ISO  4  38 100  60 101  77 100  89 101
M  END
> <Batch ID>
0155

> <Smiles>
CNC(C)C(=O)NC(C(=O)N1Cc2cc([101O:1][101CH:1]3CCN(c4c(C)cc(C5CC[100N:0]([100C:0](=O)N6CCCC(n7nc(-c8ccc(Oc9ccc(F)cc9F)cc8)c(C(N)=O)c7N)C6)CC5)c(C)c4C)CC3)ccc2CC1C(=O)NC1CCCc2ccccc21)C(C)(C)C

> <Shape>
0.228

> <Color>
0.129

> <Negative vol penalty>
0.000

$$$$

  -OEChem-04052321543D

 91101  0     1  0  0  0  0  0999 V2000
  -27.9758  -35.8145   24.1636 C   0  0  0  0  0  0  0  0  0  0  0  0
  -28.1923  -34.4574   23.9474 C   0  0  0  0  0  0  0  0  0  0  0  0
  -23.9724   -9.5154   22.3179 C   0  0  0  0  0  0  0  0  0  0  0  0
  -25.1672   -7.5864   21.4882 C   0  0  0  0  0  0  0  0  0  0  0  0
  -26.6786  -36.2919   24.3464 C   0  0  0  0  0  0  0  0  0  0  0  0
  -27.1117  -33.5766   23.9149 C   0  0  0  0  0  0  0  0  0  0  0  0
  -27.4004  -30.2884   20.0744 C   0  0  0  0  0  0  0  0  0  0  0  0
  -22.7685   -8.8214   22.1978 C   0  0  0  0  0  0  0  0  0  0  0  0
  -23.9633   -6.8923   21.3681 C   0  0  0  0  0  0  0  0  0  0  0  0
  -28.2678  -29.2074   20.2257 C   0  0  0  0  0  0  0  0  0  0  0  0
  -21.2417   -4.4888   21.1836 C   0  0  0  0  0  0  0  0  0  0  0  0
  -21.2024   -3.1724   21.6432 C   0  0  0  0  0  0  0  0  0  0  0  0
  -29.8930  -20.4629   20.7863 C   0  0  0  0  0  0  0  0  0  0  0  0
  -26.3990  -27.7970   20.8069 C   0  0  0  0  0  0  0  0  0  0  0  0
  -29.5331  -22.2401   22.9063 C   0  0  0  0  0  0  0  0  0  0  0  0
  -21.7826   -3.9302   23.8628 C   0  0  0  0  0  0  0  0  0  0  0  0
  -25.1718   -8.8979   21.9631 C   0  0  0  0  0  0  0  0  0  0  0  0
  -27.2645   -9.6572   23.2087 C   0  0  0  0  0  0  0  0  0  0  0  0
  -25.5808  -35.4179   24.3066 C   0  0  0  0  0  0  0  0  0  0  0  0
  -26.0249  -30.1342   20.2993 C   0  0  0  0  0  0  0  0  0  0  0  0
  -25.7987  -34.0425   24.0987 C   0  0  0  0  0  0  0  0  0  0  0  0
  -29.7683  -19.9790   22.0885 C   0  0  0  0  0  0  0  0  0  0  0  0
  -25.5160  -28.8771   20.6554 C   0  0  0  0  0  0  0  0  0  0  0  0
  -29.6578  -22.7241   21.6041 C   0  0  0  0  0  0  0  0  0  0  0  0
  -29.8378  -21.8355   20.5440 C   0  0  0  0  0  0  0  0  0  0  0  0
  -22.7639   -7.5099   21.7229 C   0  0  0  0  0  0  0  0  0  0  0  0
  -27.7675  -27.9621   20.5947 C   0  0  0  0  0  0  0  0  0  0  0  0
  -21.5515   -5.5259   22.0635 C   0  0  0  0  0  0  0  0  0  0  0  0
  -29.5883  -20.8675   23.1485 C   0  0  0  0  0  0  0  0  0  0  0  0
  -21.4729   -2.8931   22.9828 C   0  0  0  0  0  0  0  0  0  0  0  0
  -21.8219   -5.2465   23.4031 C   0  0  0  0  0  0  0  0  0  0  0  0
  -26.4158   -9.6145   22.0864 C   0  0  0  0  0  0  0  0  0  0  0  0
  -28.3046  -10.4667   22.8220 C   0  0  0  0  0  0  0  0  0  0  0  0
  -27.1253   -9.0220   24.4865 C   0  0  0  0  0  0  0  0  0  0  0  0
  -23.9315  -31.3837   22.3389 C   0  0  0  0  0  0  0  0  0  0  0  0
  -21.7899  -29.7331   20.5469 C   0  0  0  0  0  0  0  0  0  0  0  0
  -21.1833  -27.1293   18.4257 C   0  0  0  0  0  0  0  0  0  0  0  0
  -30.3468  -14.9196   20.3679 C   0  0  0  0  0  0  0  0  0  0  0  0
  -24.2011  -35.9735   24.5566 C   0  0  0  0  0  0  0  0  0  0  0  0
  -25.0992  -31.3038   20.1060 C   0  0  0  0  0  0  0  0  0  0  0  0
  -24.0448  -28.6542   20.8886 C   0  0  0  0  0  0  0  0  0  0  0  0
  -23.0784  -35.0292   24.1346 C   0  0  0  0  0  0  0  0  0  0  0  0
  -29.5661  -12.2784   18.2791 C   0  0  0  0  0  0  0  0  0  0  0  0
  -23.3543  -33.6148   24.6348 C   0  0  0  0  0  0  0  0  0  0  0  0
  -28.7455  -11.3433   19.1670 C   0  0  0  0  0  0  0  0  0  0  0  0
  -28.6790  -17.7368   21.6325 C   0  0  0  0  0  0  0  0  0  0  0  0
  -31.1890  -17.8865   21.9274 C   0  0  0  0  0  0  0  0  0  0  0  0
  -28.3077  -24.8171   21.9052 C   0  0  0  0  0  0  0  0  0  0  0  0
  -29.1906  -13.7348   18.5267 C   0  0  0  0  0  0  0  0  0  0  0  0
  -28.7649  -16.2243   21.8566 C   0  0  0  0  0  0  0  0  0  0  0  0
  -31.2125  -16.3801   22.1697 C   0  0  0  0  0  0  0  0  0  0  0  0
  -28.5152  -13.2341   20.8529 C   0  0  0  0  0  0  0  0  0  0  0  0
  -30.0826  -26.2967   22.5648 C   0  0  0  0  0  0  0  0  0  0  0  0
  -29.8289  -18.4829   22.3329 C   0  0  0  0  0  0  0  0  0  0  0  0
  -24.6503  -33.0594   24.0319 C   0  0  1  0  0  0  0  0  0  0  0  0
  -29.5977  -24.1976   21.3686 C   0  0  1  0  0  0  0  0  0  0  0  0
  -23.7822  -31.1547   20.8614 C   0  0  1  0  0  0  0  0  0  0  0  0
  -28.8603  -11.7450   20.6482 C   0  0  1  0  0  0  0  0  0  0  0  0
  -28.6603  -26.2891   22.0299 C   0  0  1  0  0  0  0  0  0  1  0  0
  -29.9762  -22.3300   19.1415 C   0  0  0  0  0  0  0  0  0  0  0  0
  -19.3276  -26.0115   17.1592 C   0  0  0  0  0  0  0  0  0  0  0  0
  -20.7913  -28.4634   23.1355 C   0  0  0  0  0  0  0  0  0  0  0  0
  -19.6484  -26.7150   21.7553 C   0  0  0  0  0  0  0  0  0  0  0  0
  -18.9883  -29.1098   21.5274 C   0  0  0  0  0  0  0  0  0  0  0  0
  -31.9513  -25.1360   21.3126 C   0  0  0  0  0  0  0  0  0  0  0  0
  -22.4833  -27.6628   15.8210 C   0  0  0  0  0  0  0  0  0  0  0  0
  -29.2844  -21.3892   25.4488 C   0  0  0  0  0  0  0  0  0  0  0  0
  -21.2071  -28.3411   20.5903 C   0  0  1  0  0  0  0  0  0  0  0  0
  -20.4310  -27.0569   17.1092 C   0  0  2  0  0  0  0  0  0  0  0  0
  -20.1868  -28.1617   21.7497 C   0  0  0  0  0  0  0  0  0  0  0  0
  -26.8766  -10.3392   21.0635 N   0  0  0  0  0  0  0  0  0  0  0  0
  -28.0262  -10.8451   21.5416 N   0  0  0  0  0  0  0  0  0  0  0  0
  -23.1809  -29.8302   20.6932 N   0  0  0  0  0  0  0  0  0  0  0  0
  -29.3089  -14.0761   19.9442 N   0  0  0  0  0  0  0  0  0  0  0  0
  -30.0964  -15.7205   21.4924 N   0  0  0  0  0  0  0  0  0  0  0  0
  -29.4209  -10.8846   23.4557 N   0  0  0  0  0  0  0  0  0  0  0  0
  -25.9960   -8.2245   24.7167 N   0  0  0  0  0  0  0  0  0  0  0  0
  -24.4296  -32.6300   22.6676 N   0  0  0  0  0  0  0  0  0  0  0  0
  -20.6549  -28.0883   19.2638 N   0  0  0  0  0  0  0  0  0  0  0  0
  -30.6886  -24.9772   22.1029 N   0  3  1  0  0  0  0  0  0  0  0  0
  -21.3615  -26.7054   15.9995 N   0  3  0  0  0  0  0  0  0  0  0  0
  -27.9689   -9.1708   25.4029 O   0  0  0  0  0  0  0  0  0  0  0  0
  -23.6166  -30.4959   23.1227 O   0  0  0  0  0  0  0  0  0  0  0  0
  -21.0393  -30.6980   20.3820 O   0  0  0  0  0  0  0  0  0  0  0  0
  -22.1414  -26.4050   18.6861 O   0  0  0  0  0  0  0  0  0  0  0  0
  -31.4337  -14.9551   19.7775 O   0  0  0  0  0  0  0  0  0  0  0  0
  -21.5893   -6.8323   21.6058 O   0  0  0  0  0  0  0  0  0  0  0  0
  -28.6176  -26.8984   20.7447 O   0  0  0  0  0  0  0  0  0  1  0  0
  -29.4654  -20.4115   24.4265 O   0  0  0  0  0  0  0  0  0  0  0  0
  -21.4336   -1.6292   23.4244 F   0  0  0  0  0  0  0  0  0  0  0  0
  -22.1190   -6.2388   24.2534 F   0  0  0  0  0  0  0  0  0  0  0  0
  1  2  1  0  0  0  0
  1  5  2  0  0  0  0
  2  6  2  0  0  0  0
  3  8  2  0  0  0  0
  3 17  1  0  0  0  0
  4  9  1  0  0  0  0
  4 17  2  0  0  0  0
  5 19  1  0  0  0  0
  6 21  1  0  0  0  0
  7 10  2  0  0  0  0
  7 20  1  0  0  0  0
  8 26  1  0  0  0  0
  9 26  2  0  0  0  0
 10 27  1  0  0  0  0
 11 12  2  0  0  0  0
 11 28  1  0  0  0  0
 12 30  1  0  0  0  0
 13 22  2  0  0  0  0
 13 25  1  0  0  0  0
 14 23  1  0  0  0  0
 14 27  2  0  0  0  0
 15 24  1  0  0  0  0
 15 29  2  0  0  0  0
 16 30  2  0  0  0  0
 16 31  1  0  0  0  0
 17 32  1  0  0  0  0
 18 32  1  0  0  0  0
 18 33  2  0  0  0  0
 18 34  1  0  0  0  0
 19 21  2  0  0  0  0
 19 39  1  0  0  0  0
 20 23  2  0  0  0  0
 20 40  1  0  0  0  0
 21 55  1  0  0  0  0
 22 29  1  0  0  0  0
 22 54  1  0  0  0  0
 23 41  1  0  0  0  0
 24 25  2  0  0  0  0
 24 56  1  0  0  0  0
 25 60  1  0  0  0  0
 26 87  1  0  0  0  0
 27 88  1  0  0  0  0
 28 31  2  0  0  0  0
 28 87  1  0  0  0  0
 29 89  1  0  0  0  0
 30 90  1  0  0  0  0
 31 91  1  0  0  0  0
 32 71  2  0  0  0  0
 33 72  1  0  0  0  0
 33 76  1  0  0  0  0
 34 77  1  0  0  0  0
 34 82  2  0  0  0  0
 35 57  1  0  0  0  0
 35 78  1  0  0  0  0
 35 83  2  0  0  0  0
 36 68  1  0  0  0  0
 36 73  1  0  0  0  0
 36 84  2  0  0  0  0
 37 69  1  0  0  0  0
 37 79  1  0  0  0  0
 37 85  2  0  0  0  0
 38 74  1  0  0  0  0
 38 75  1  0  0  0  0
 38 86  2  0  0  0  0
 39 42  1  0  0  0  0
 40 57  1  0  0  0  0
 41 73  1  0  0  0  0
 42 44  1  0  0  0  0
 43 45  1  0  0  0  0
 43 49  1  0  0  0  0
 44 55  1  0  0  0  0
 45 58  1  0  0  0  0
 46 50  1  0  0  0  0
 46 54  1  0  0  0  0
 47 51  1  0  0  0  0
 47 54  1  0  0  0  0
 48 56  1  0  0  0  0
 48 59  1  0  0  0  0
 49 74  1  0  0  0  0
 50 75  1  0  0  0  0
 51 75  1  0  0  0  0
 52 58  1  0  0  0  0
 52 74  1  0  0  0  0
 53 59  1  0  0  0  0
 53 80  1  0  0  0  0
 55 78  1  0  0  0  0
 56 80  1  0  0  0  0
 57 73  1  0  0  0  0
 58 72  1  0  0  0  0
 59 88  1  0  0  0  0
 61 69  1  0  0  0  0
 62 70  1  0  0  0  0
 63 70  1  0  0  0  0
 64 70  1  0  0  0  0
 65 80  1  0  0  0  0
 66 81  1  0  0  0  0
 67 89  1  0  0  0  0
 68 70  1  0  0  0  0
 68 79  1  0  0  0  0
 69 81  1  0  0  0  0
 71 72  1  0  0  0  0
M  CHG  2  80   1  81   1
M  ISO  4  38 100  59 101  75 100  88 101
M  END
> <Batch ID>
0155

> <Smiles>
CNC(C)C(=O)NC(C(=O)N1Cc2cc([101O:1][101CH:1]3CC(c4cc(OC)c(C5CC[100N:0]([100C:0](=O)N6CCCC(n7nc(-c8ccc(Oc9ccc(F)cc9F)cc8)c(C(N)=O)c7N)C6)CC5)cc4C)N(C)C3)ccc2CC1C(=O)NC1CCCc2ccccc21)C(C)(C)C

> <Shape>
0.328

> <Color>
0.088

> <Negative vol penalty>
0.000

$$$$

  -OEChem-04052321543D

 88 99  0     1  0  0  0  0  0999 V2000
  -27.7044  -37.7494   24.5396 C   0  0  0  0  0  0  0  0  0  0  0  0
  -28.2707  -36.8752   23.6174 C   0  0  0  0  0  0  0  0  0  0  0  0
  -24.7412   -8.1394   21.3503 C   0  0  0  0  0  0  0  0  0  0  0  0
  -23.3970  -10.1098   21.7349 C   0  0  0  0  0  0  0  0  0  0  0  0
  -26.8350  -37.2642   25.5155 C   0  0  0  0  0  0  0  0  0  0  0  0
  -27.9687  -35.5149   23.6713 C   0  0  0  0  0  0  0  0  0  0  0  0
  -27.6826  -21.9416   19.0298 C   0  0  0  0  0  0  0  0  0  0  0  0
  -27.1065  -29.8149   19.4190 C   0  0  0  0  0  0  0  0  0  0  0  0
  -27.1152  -23.1911   19.2901 C   0  0  0  0  0  0  0  0  0  0  0  0
  -24.0374   -7.4646   22.3478 C   0  0  0  0  0  0  0  0  0  0  0  0
  -22.6932   -9.4349   22.7324 C   0  0  0  0  0  0  0  0  0  0  0  0
  -27.5518  -28.5016   19.2746 C   0  0  0  0  0  0  0  0  0  0  0  0
  -21.0511   -5.9129   22.6744 C   0  0  0  0  0  0  0  0  0  0  0  0
  -20.6315   -4.6105   22.4038 C   0  0  0  0  0  0  0  0  0  0  0  0
  -28.3067  -23.3435   21.4053 C   0  0  0  0  0  0  0  0  0  0  0  0
  -25.9747  -27.7885   20.9550 C   0  0  0  0  0  0  0  0  0  0  0  0
  -21.9322   -3.8030   24.2728 C   0  0  0  0  0  0  0  0  0  0  0  0
  -24.4210   -9.4620   21.0439 C   0  0  0  0  0  0  0  0  0  0  0  0
  -24.8364  -10.2152   18.6423 C   0  0  0  0  0  0  0  0  0  0  0  0
  -26.5146  -35.8988   25.5754 C   0  0  0  0  0  0  0  0  0  0  0  0
  -26.0978  -30.1270   20.3418 C   0  0  0  0  0  0  0  0  0  0  0  0
  -27.0951  -35.0108   24.6498 C   0  0  0  0  0  0  0  0  0  0  0  0
  -28.5454  -21.4015   19.9696 C   0  0  0  0  0  0  0  0  0  0  0  0
  -28.8545  -22.0986   21.1454 C   0  0  0  0  0  0  0  0  0  0  0  0
  -25.5166  -29.1061   21.1073 C   0  0  0  0  0  0  0  0  0  0  0  0
  -27.4248  -23.8869   20.4691 C   0  0  0  0  0  0  0  0  0  0  0  0
  -23.0134   -8.1123   23.0388 C   0  0  0  0  0  0  0  0  0  0  0  0
  -26.9879  -27.4886   20.0447 C   0  0  0  0  0  0  0  0  0  0  0  0
  -21.9113   -6.1604   23.7442 C   0  0  0  0  0  0  0  0  0  0  0  0
  -21.0720   -3.5556   23.2030 C   0  0  0  0  0  0  0  0  0  0  0  0
  -22.3519   -5.1055   24.5434 C   0  0  0  0  0  0  0  0  0  0  0  0
  -25.1480  -10.1598   20.0140 C   0  0  0  0  0  0  0  0  0  0  0  0
  -25.8251  -10.9972   18.0969 C   0  0  0  0  0  0  0  0  0  0  0  0
  -23.7502   -9.6137   17.9252 C   0  0  0  0  0  0  0  0  0  0  0  0
  -25.9177  -31.9573   22.9343 C   0  0  0  0  0  0  0  0  0  0  0  0
  -22.7742  -31.1686   22.7967 C   0  0  0  0  0  0  0  0  0  0  0  0
  -20.3811  -28.9742   21.7456 C   0  0  0  0  0  0  0  0  0  0  0  0
  -28.9468  -15.7010   18.4763 C   0  0  0  0  0  0  0  0  0  0  0  0
  -25.6066  -35.4138   26.6778 C   0  0  0  0  0  0  0  0  0  0  0  0
  -25.6100  -31.5444   20.4664 C   0  0  0  0  0  0  0  0  0  0  0  0
  -29.8436  -21.3392   21.9742 C   0  0  0  0  0  0  0  0  0  0  0  0
  -24.4167  -29.3857   22.0975 C   0  0  0  0  0  0  0  0  0  0  0  0
  -25.0452  -34.0154   26.4336 C   0  0  0  0  0  0  0  0  0  0  0  0
  -29.6986  -19.9258   21.3882 C   0  0  0  0  0  0  0  0  0  0  0  0
  -30.1671  -12.6664   20.0134 C   0  0  0  0  0  0  0  0  0  0  0  0
  -26.1518  -33.0671   25.9832 C   0  0  0  0  0  0  0  0  0  0  0  0
  -28.9327  -11.7764   20.1055 C   0  0  0  0  0  0  0  0  0  0  0  0
  -26.6247  -17.4256   20.0997 C   0  0  0  0  0  0  0  0  0  0  0  0
  -26.2616  -17.5796   17.4887 C   0  0  0  0  0  0  0  0  0  0  0  0
  -29.7917  -14.1320   20.1790 C   0  0  0  0  0  0  0  0  0  0  0  0
  -27.5440  -13.7103   19.1993 C   0  0  0  0  0  0  0  0  0  0  0  0
  -27.1624  -18.8548   20.0629 C   0  0  0  0  0  0  0  0  0  0  0  0
  -28.5167  -18.8488   17.9179 C   0  0  0  0  0  0  0  0  0  0  0  0
  -26.7726  -33.5323   24.6604 C   0  0  1  0  0  0  0  0  0  0  0  0
  -29.3088  -20.1146   19.9117 C   0  0  1  0  0  0  0  0  0  0  0  0
  -24.9352  -31.8286   21.8048 C   0  0  1  0  0  0  0  0  0  0  0  0
  -27.8843  -12.2122   19.0731 C   0  0  2  0  0  0  0  0  0  0  0  0
  -26.5319  -16.7291   18.7451 C   0  0  1  0  0  0  0  0  0  0  0  0
  -27.7889  -17.6630   17.3083 C   0  0  1  0  0  0  0  0  0  0  0  0
  -17.9042  -28.5778   21.8167 C   0  0  0  0  0  0  0  0  0  0  0  0
  -23.0075  -30.2454   25.6955 C   0  0  0  0  0  0  0  0  0  0  0  0
  -20.8445  -29.0184   25.4058 C   0  0  0  0  0  0  0  0  0  0  0  0
  -20.9102  -31.5005   25.1660 C   0  0  0  0  0  0  0  0  0  0  0  0
  -20.1588  -29.1033   18.7973 C   0  0  0  0  0  0  0  0  0  0  0  0
  -26.8003  -25.2179   20.7262 C   0  0  0  0  0  0  0  0  0  1  0  0
  -21.9262  -30.0533   23.3589 C   0  0  1  0  0  0  0  0  0  0  0  0
  -19.0564  -29.1918   21.0369 C   0  0  2  0  0  0  0  0  0  0  0  0
  -21.6942  -30.1991   24.8894 C   0  0  0  0  0  0  0  0  0  0  0  0
  -26.2486  -10.8513   20.3211 N   0  0  0  0  0  0  0  0  0  0  0  0
  -26.6373  -11.3486   19.1346 N   0  0  0  0  0  0  0  0  0  0  0  0
  -23.9784  -30.7883   22.1875 N   0  0  0  0  0  0  0  0  0  0  0  0
  -28.7454  -14.5508   19.2432 N   0  0  0  0  0  0  0  0  0  0  0  0
  -27.8468  -16.4662   18.1528 N   0  0  0  0  0  0  0  0  0  0  0  0
  -26.0702  -11.4115   16.8357 N   0  0  0  0  0  0  0  0  0  0  0  0
  -22.8242   -8.8415   18.6397 N   0  0  0  0  0  0  0  0  0  0  0  0
  -25.9082  -33.1944   23.5500 N   0  0  0  0  0  0  0  0  0  0  0  0
  -20.7005  -30.0340   22.5679 N   0  0  0  0  0  0  0  0  0  0  0  0
  -28.5331  -18.9129   19.4356 N   0  3  1  0  0  0  0  0  0  0  0  0
  -19.0873  -28.5752   19.6805 N   0  3  0  0  0  0  0  0  0  0  0  0
  -23.6145   -9.7431   16.6849 O   0  0  0  0  0  0  0  0  0  0  0  0
  -26.6304  -31.0043   23.2267 O   0  0  0  0  0  0  0  0  0  0  0  0
  -22.3792  -32.3336   22.8881 O   0  0  0  0  0  0  0  0  0  0  0  0
  -21.0624  -27.9635   21.5886 O   0  0  0  0  0  0  0  0  0  0  0  0
  -30.0792  -16.0622   18.1298 O   0  0  0  0  0  0  0  0  0  0  0  0
  -22.3264   -7.4541   24.0121 O   0  0  0  0  0  0  0  0  0  0  0  0
  -27.4242  -26.1971   19.9053 O   0  0  0  0  0  0  0  0  0  1  0  0
  -20.6677   -2.3051   22.9439 F   0  0  0  0  0  0  0  0  0  0  0  0
  -23.1774   -5.3372   25.5732 F   0  0  0  0  0  0  0  0  0  0  0  0
  1  2  1  0  0  0  0
  1  5  2  0  0  0  0
  2  6  2  0  0  0  0
  3 10  2  0  0  0  0
  3 18  1  0  0  0  0
  4 11  1  0  0  0  0
  4 18  2  0  0  0  0
  5 20  1  0  0  0  0
  6 22  1  0  0  0  0
  7  9  2  0  0  0  0
  7 23  1  0  0  0  0
  8 12  2  0  0  0  0
  8 21  1  0  0  0  0
  9 26  1  0  0  0  0
 10 27  1  0  0  0  0
 11 27  2  0  0  0  0
 12 28  1  0  0  0  0
 13 14  2  0  0  0  0
 13 29  1  0  0  0  0
 14 30  1  0  0  0  0
 15 24  1  0  0  0  0
 15 26  2  0  0  0  0
 16 25  1  0  0  0  0
 16 28  2  0  0  0  0
 17 30  2  0  0  0  0
 17 31  1  0  0  0  0
 18 32  1  0  0  0  0
 19 32  1  0  0  0  0
 19 33  2  0  0  0  0
 19 34  1  0  0  0  0
 20 22  2  0  0  0  0
 20 39  1  0  0  0  0
 21 25  2  0  0  0  0
 21 40  1  0  0  0  0
 22 54  1  0  0  0  0
 23 24  2  0  0  0  0
 23 55  1  0  0  0  0
 24 41  1  0  0  0  0
 25 42  1  0  0  0  0
 26 65  1  0  0  0  0
 27 85  1  0  0  0  0
 28 86  1  0  0  0  0
 29 31  2  0  0  0  0
 29 85  1  0  0  0  0
 30 87  1  0  0  0  0
 31 88  1  0  0  0  0
 32 69  2  0  0  0  0
 33 70  1  0  0  0  0
 33 74  1  0  0  0  0
 34 75  1  0  0  0  0
 34 80  2  0  0  0  0
 35 56  1  0  0  0  0
 35 76  1  0  0  0  0
 35 81  2  0  0  0  0
 36 66  1  0  0  0  0
 36 71  1  0  0  0  0
 36 82  2  0  0  0  0
 37 67  1  0  0  0  0
 37 77  1  0  0  0  0
 37 83  2  0  0  0  0
 38 72  1  0  0  0  0
 38 73  1  0  0  0  0
 38 84  2  0  0  0  0
 39 43  1  0  0  0  0
 40 56  1  0  0  0  0
 41 44  1  0  0  0  0
 42 71  1  0  0  0  0
 43 46  1  0  0  0  0
 44 55  1  0  0  0  0
 45 47  1  0  0  0  0
 45 50  1  0  0  0  0
 46 54  1  0  0  0  0
 47 57  1  0  0  0  0
 48 52  1  0  0  0  0
 48 58  1  0  0  0  0
 49 58  1  0  0  0  0
 49 59  1  0  0  0  0
 50 72  1  0  0  0  0
 51 57  1  0  0  0  0
 51 72  1  0  0  0  0
 52 78  1  0  0  0  0
 53 59  1  0  0  0  0
 53 78  1  0  0  0  0
 54 76  1  0  0  0  0
 55 78  1  0  0  0  0
 56 71  1  0  0  0  0
 57 70  1  0  0  0  0
 58 73  1  0  0  0  0
 59 73  1  0  0  0  0
 60 67  1  0  0  0  0
 61 68  1  0  0  0  0
 62 68  1  0  0  0  0
 63 68  1  0  0  0  0
 64 79  1  0  0  0  0
 65 86  1  0  0  0  0
 66 68  1  0  0  0  0
 66 77  1  0  0  0  0
 67 79  1  0  0  0  0
 69 70  1  0  0  0  0
M  CHG  2  78   1  79   1
M  ISO  4  38 100  65 101  73 100  86 101
M  END
> <Batch ID>
0155

> <Smiles>
CNC(C)C(=O)NC(C(=O)N1Cc2cc([101O:1][101CH2:1]c3ccc4c(c3)CCC4N3CCC4CC(C3)[100N:0]4[100C:0](=O)N3CCCC(n4nc(-c5ccc(Oc6ccc(F)cc6F)cc5)c(C(N)=O)c4N)C3)ccc2CC1C(=O)NC1CCCc2ccccc21)C(C)(C)C

> <Shape>
0.318

> <Color>
0.084

> <Negative vol penalty>
0.000

$$$$

  -OEChem-04052321543D

 88 97  0     1  0  0  0  0  0999 V2000
  -28.1128  -32.2822   27.4402 C   0  0  0  0  0  0  0  0  0  0  0  0
  -28.1929  -31.2387   26.5236 C   0  0  0  0  0  0  0  0  0  0  0  0
  -26.5162   -6.4012   22.5037 C   0  0  0  0  0  0  0  0  0  0  0  0
  -26.3871   -5.9485   20.1340 C   0  0  0  0  0  0  0  0  0  0  0  0
  -26.8705  -32.8162   27.7799 C   0  0  0  0  0  0  0  0  0  0  0  0
  -27.0306  -30.7279   25.9470 C   0  0  0  0  0  0  0  0  0  0  0  0
  -27.4895  -30.0163   20.9542 C   0  0  0  0  0  0  0  0  0  0  0  0
  -25.3879   -5.6092   22.7165 C   0  0  0  0  0  0  0  0  0  0  0  0
  -25.2588   -5.1565   20.3468 C   0  0  0  0  0  0  0  0  0  0  0  0
  -28.1868  -28.8846   20.5338 C   0  0  0  0  0  0  0  0  0  0  0  0
  -22.0373   -5.9079   22.3867 C   0  0  0  0  0  0  0  0  0  0  0  0
  -21.0484   -6.4047   23.2357 C   0  0  0  0  0  0  0  0  0  0  0  0
  -26.0950  -27.7535   20.1290 C   0  0  0  0  0  0  0  0  0  0  0  0
  -28.1407  -20.6152   20.4834 C   0  0  0  0  0  0  0  0  0  0  0  0
  -29.5012  -20.8677   22.4638 C   0  0  0  0  0  0  0  0  0  0  0  0
  -21.3373   -4.4964   24.6890 C   0  0  0  0  0  0  0  0  0  0  0  0
  -27.0158   -6.5709   21.2124 C   0  0  0  0  0  0  0  0  0  0  0  0
  -29.5257   -6.9732   20.9979 C   0  0  0  0  0  0  0  0  0  0  0  0
  -25.6931  -32.3181   27.1999 C   0  0  0  0  0  0  0  0  0  0  0  0
  -26.0874  -30.0213   20.9756 C   0  0  0  0  0  0  0  0  0  0  0  0
  -25.7713  -31.2548   26.2803 C   0  0  0  0  0  0  0  0  0  0  0  0
  -25.3822  -28.8874   20.5477 C   0  0  0  0  0  0  0  0  0  0  0  0
  -28.1206  -22.0003   20.3206 C   0  0  0  0  0  0  0  0  0  0  0  0
  -29.4812  -22.2529   22.3010 C   0  0  0  0  0  0  0  0  0  0  0  0
  -28.7908  -22.8192   21.2293 C   0  0  0  0  0  0  0  0  0  0  0  0
  -24.7592   -4.9868   21.6380 C   0  0  0  0  0  0  0  0  0  0  0  0
  -27.4896  -27.7520   20.1238 C   0  0  0  0  0  0  0  0  0  0  0  0
  -22.6762   -4.7052   22.6888 C   0  0  0  0  0  0  0  0  0  0  0  0
  -28.8310  -20.0489   21.5551 C   0  0  0  0  0  0  0  0  0  0  0  0
  -20.6984   -5.6990   24.3869 C   0  0  0  0  0  0  0  0  0  0  0  0
  -22.3262   -3.9995   23.8400 C   0  0  0  0  0  0  0  0  0  0  0  0
  -28.1809   -7.3894   20.9919 C   0  0  0  0  0  0  0  0  0  0  0  0
  -30.2404   -8.1172   20.7395 C   0  0  0  0  0  0  0  0  0  0  0  0
  -30.0794   -5.6689   21.2173 C   0  0  0  0  0  0  0  0  0  0  0  0
  -23.8796  -30.3454   23.2393 C   0  0  0  0  0  0  0  0  0  0  0  0
  -21.8459  -30.3352   20.7122 C   0  0  0  0  0  0  0  0  0  0  0  0
  -21.2522  -29.4332   17.4748 C   0  0  0  0  0  0  0  0  0  0  0  0
  -29.2908  -13.7397   21.6746 C   0  0  0  0  0  0  0  0  0  0  0  0
  -24.3693  -32.8959   27.6340 C   0  0  0  0  0  0  0  0  0  0  0  0
  -25.3498  -31.2593   21.4065 C   0  0  0  0  0  0  0  0  0  0  0  0
  -23.8766  -28.8488   20.5326 C   0  0  0  0  0  0  0  0  0  0  0  0
  -23.2162  -32.5486   26.6958 C   0  0  0  0  0  0  0  0  0  0  0  0
  -29.8990  -12.3337   18.5163 C   0  0  0  0  0  0  0  0  0  0  0  0
  -23.2405  -31.0639   26.3470 C   0  0  0  0  0  0  0  0  0  0  0  0
  -29.6569  -10.8500   18.7930 C   0  0  0  0  0  0  0  0  0  0  0  0
  -30.6365  -17.1539   21.1457 C   0  0  0  0  0  0  0  0  0  0  0  0
  -28.3554  -16.9895   20.0600 C   0  0  0  0  0  0  0  0  0  0  0  0
  -28.8787  -13.2232   19.2286 C   0  0  0  0  0  0  0  0  0  0  0  0
  -30.2665  -15.9748   22.0442 C   0  0  0  0  0  0  0  0  0  0  0  0
  -28.0365  -15.8174   20.9852 C   0  0  0  0  0  0  0  0  0  0  0  0
  -28.5351  -11.4914   20.9604 C   0  0  0  0  0  0  0  0  0  0  0  0
  -24.5350  -30.6903   25.6147 C   0  0  1  0  0  0  0  0  0  0  0  0
  -23.9264  -30.9741   21.8754 C   0  0  1  0  0  0  0  0  0  0  0  0
  -29.5804  -10.5752   20.3054 C   0  0  1  0  0  0  0  0  0  0  0  0
  -29.4124  -17.9246   20.6500 C   0  0  0  0  0  0  0  0  0  0  0  0
  -27.3726  -22.5780   19.1630 C   0  0  0  0  0  0  0  0  0  0  0  0
  -30.2084  -23.1045   23.2905 C   0  0  0  0  0  0  0  0  0  0  0  0
  -19.4850  -29.5290   15.6957 C   0  0  0  0  0  0  0  0  0  0  0  0
  -20.3247  -28.0869   22.1055 C   0  0  0  0  0  0  0  0  0  0  0  0
  -19.1976  -27.5926   19.9253 C   0  0  0  0  0  0  0  0  0  0  0  0
  -18.8746  -29.8109   21.0195 C   0  0  0  0  0  0  0  0  0  0  0  0
  -22.9822  -31.0275   15.6793 C   0  0  0  0  0  0  0  0  0  0  0  0
  -29.7515  -24.9263   20.3005 C   0  0  0  0  0  0  0  0  0  0  0  0
  -29.4492  -26.4155   20.2959 C   0  0  0  0  0  0  0  0  0  1  0  0
  -21.0987  -29.2708   19.9455 C   0  0  1  0  0  0  0  0  0  0  0  0
  -20.7021  -30.2155   16.2959 C   0  0  2  0  0  0  0  0  0  0  0  0
  -19.9023  -28.6901   20.7510 C   0  0  0  0  0  0  0  0  0  0  0  0
  -28.0466   -8.6959   20.7491 N   0  0  0  0  0  0  0  0  0  0  0  0
  -29.3163   -9.1106   20.6003 N   0  0  0  0  0  0  0  0  0  0  0  0
  -23.2008  -30.0818   20.9689 N   0  0  0  0  0  0  0  0  0  0  0  0
  -28.8132  -12.8973   20.6595 N   0  0  0  0  0  0  0  0  0  0  0  0
  -29.2541  -15.1216   21.4228 N   0  0  0  0  0  0  0  0  0  0  0  0
  -31.5629   -8.3604   20.6203 N   0  0  0  0  0  0  0  0  0  0  0  0
  -29.2028   -4.6047   21.4691 N   0  0  0  0  0  0  0  0  0  0  0  0
  -28.7705  -24.2235   21.0642 N   0  0  0  0  0  0  0  0  0  0  0  0
  -24.4705  -31.1062   24.2300 N   0  0  0  0  0  0  0  0  0  0  0  0
  -20.7246  -29.8729   18.6705 N   0  0  0  0  0  0  0  0  0  0  0  0
  -21.7385  -30.3482   15.2333 N   0  3  0  0  0  0  0  0  0  0  0  0
  -31.3156   -5.4568   21.2071 O   0  0  0  0  0  0  0  0  0  0  0  0
  -23.3457  -29.2518   23.3825 O   0  0  0  0  0  0  0  0  0  0  0  0
  -21.2512  -31.3571   21.0639 O   0  0  0  0  0  0  0  0  0  0  0  0
  -22.0655  -28.5206   17.3475 O   0  0  0  0  0  0  0  0  0  0  0  0
  -29.7272  -13.2874   22.7405 O   0  0  0  0  0  0  0  0  0  0  0  0
  -23.6584   -4.2137   21.8454 O   0  0  0  0  0  0  0  0  0  0  0  0
  -28.8507  -18.6883   21.7151 O   0  0  0  0  0  0  0  0  0  0  0  0
  -28.1725  -26.6380   19.7107 O   0  0  0  0  0  0  0  0  0  1  0  0
  -19.7499   -6.1770   25.2029 F   0  0  0  0  0  0  0  0  0  0  0  0
  -22.9373   -2.8442   24.1361 F   0  0  0  0  0  0  0  0  0  0  0  0
  1  2  1  0  0  0  0
  1  5  2  0  0  0  0
  2  6  2  0  0  0  0
  3  8  2  0  0  0  0
  3 17  1  0  0  0  0
  4  9  1  0  0  0  0
  4 17  2  0  0  0  0
  5 19  1  0  0  0  0
  6 21  1  0  0  0  0
  7 10  2  0  0  0  0
  7 20  1  0  0  0  0
  8 26  1  0  0  0  0
  9 26  2  0  0  0  0
 10 27  1  0  0  0  0
 11 12  2  0  0  0  0
 11 28  1  0  0  0  0
 12 30  1  0  0  0  0
 13 22  1  0  0  0  0
 13 27  2  0  0  0  0
 14 23  2  0  0  0  0
 14 29  1  0  0  0  0
 15 24  1  0  0  0  0
 15 29  2  0  0  0  0
 16 30  2  0  0  0  0
 16 31  1  0  0  0  0
 17 32  1  0  0  0  0
 18 32  1  0  0  0  0
 18 33  2  0  0  0  0
 18 34  1  0  0  0  0
 19 21  2  0  0  0  0
 19 39  1  0  0  0  0
 20 22  2  0  0  0  0
 20 40  1  0  0  0  0
 21 52  1  0  0  0  0
 22 41  1  0  0  0  0
 23 25  1  0  0  0  0
 23 56  1  0  0  0  0
 24 25  2  0  0  0  0
 24 57  1  0  0  0  0
 25 75  1  0  0  0  0
 26 84  1  0  0  0  0
 27 86  1  0  0  0  0
 28 31  2  0  0  0  0
 28 84  1  0  0  0  0
 29 85  1  0  0  0  0
 30 87  1  0  0  0  0
 31 88  1  0  0  0  0
 32 68  2  0  0  0  0
 33 69  1  0  0  0  0
 33 73  1  0  0  0  0
 34 74  1  0  0  0  0
 34 79  2  0  0  0  0
 35 53  1  0  0  0  0
 35 76  1  0  0  0  0
 35 80  2  0  0  0  0
 36 65  1  0  0  0  0
 36 70  1  0  0  0  0
 36 81  2  0  0  0  0
 37 66  1  0  0  0  0
 37 77  1  0  0  0  0
 37 82  2  0  0  0  0
 38 71  1  0  0  0  0
 38 72  1  0  0  0  0
 38 83  2  0  0  0  0
 39 42  1  0  0  0  0
 40 53  1  0  0  0  0
 41 70  1  0  0  0  0
 42 44  1  0  0  0  0
 43 45  1  0  0  0  0
 43 48  1  0  0  0  0
 44 52  1  0  0  0  0
 45 54  1  0  0  0  0
 46 49  1  0  0  0  0
 46 55  1  0  0  0  0
 47 50  1  0  0  0  0
 47 55  1  0  0  0  0
 48 71  1  0  0  0  0
 49 72  1  0  0  0  0
 50 72  1  0  0  0  0
 51 54  1  0  0  0  0
 51 71  1  0  0  0  0
 52 76  1  0  0  0  0
 53 70  1  0  0  0  0
 54 69  1  0  0  0  0
 55 85  1  0  0  0  0
 58 66  1  0  0  0  0
 59 67  1  0  0  0  0
 60 67  1  0  0  0  0
 61 67  1  0  0  0  0
 62 78  1  0  0  0  0
 63 64  1  0  0  0  0
 63 75  1  0  0  0  0
 64 86  1  0  0  0  0
 65 67  1  0  0  0  0
 65 77  1  0  0  0  0
 66 78  1  0  0  0  0
 68 69  1  0  0  0  0
M  CHG  1  78   1
M  ISO  4  38 100  64 101  72 100  86 101
M  END
> <Batch ID>
0155

> <Smiles>
CNC(C)C(=O)NC(C(=O)N1Cc2cc([101O:1][101CH2:1]CNc3c(C)cc(OC4CC[100N:0]([100C:0](=O)N5CCCC(n6nc(-c7ccc(Oc8ccc(F)cc8F)cc7)c(C(N)=O)c6N)C5)CC4)cc3C)ccc2CC1C(=O)NC1CCCc2ccccc21)C(C)(C)C

> <Shape>
0.285

> <Color>
0.086

> <Negative vol penalty>
0.000

$$$$

  -OEChem-04052321543D

 86 95  0     1  0  0  0  0  0999 V2000
  -16.9914  -29.8982   24.3579 C   0  0  0  0  0  0  0  0  0  0  0  0
  -17.2508  -28.6254   23.8598 C   0  0  0  0  0  0  0  0  0  0  0  0
  -23.3449   -9.5817   20.6693 C   0  0  0  0  0  0  0  0  0  0  0  0
  -23.9968  -10.2362   22.9018 C   0  0  0  0  0  0  0  0  0  0  0  0
  -17.8297  -30.9608   24.0228 C   0  0  0  0  0  0  0  0  0  0  0  0
  -18.3480  -28.4146   23.0254 C   0  0  0  0  0  0  0  0  0  0  0  0
  -21.8625  -23.4063   22.7596 C   0  0  0  0  0  0  0  0  0  0  0  0
  -22.7133   -8.4503   21.1855 C   0  0  0  0  0  0  0  0  0  0  0  0
  -23.3651   -9.1048   23.4180 C   0  0  0  0  0  0  0  0  0  0  0  0
  -21.8698  -22.3102   21.8980 C   0  0  0  0  0  0  0  0  0  0  0  0
  -20.2125   -8.1270   24.1428 C   0  0  0  0  0  0  0  0  0  0  0  0
  -19.4121   -8.2925   25.2731 C   0  0  0  0  0  0  0  0  0  0  0  0
  -29.1599  -20.0458   19.9895 C   0  0  0  0  0  0  0  0  0  0  0  0
  -23.5910  -23.3666   20.5786 C   0  0  0  0  0  0  0  0  0  0  0  0
  -20.8121   -6.7453   26.4910 C   0  0  0  0  0  0  0  0  0  0  0  0
  -31.4528  -19.4314   20.1368 C   0  0  0  0  0  0  0  0  0  0  0  0
  -23.9868  -10.4747   21.5275 C   0  0  0  0  0  0  0  0  0  0  0  0
  -24.0719  -12.9147   20.7881 C   0  0  0  0  0  0  0  0  0  0  0  0
  -18.9432  -30.7610   23.1917 C   0  0  0  0  0  0  0  0  0  0  0  0
  -22.7130  -24.4974   22.5306 C   0  0  0  0  0  0  0  0  0  0  0  0
  -19.2011  -29.4758   22.6779 C   0  0  0  0  0  0  0  0  0  0  0  0
  -28.8269  -18.6966   20.0345 C   0  0  0  0  0  0  0  0  0  0  0  0
  -23.5943  -24.4742   21.4402 C   0  0  0  0  0  0  0  0  0  0  0  0
  -30.4956  -20.4286   20.0411 C   0  0  0  0  0  0  0  0  0  0  0  0
  -22.7233   -8.2118   22.5598 C   0  0  0  0  0  0  0  0  0  0  0  0
  -22.7321  -22.2915   20.8057 C   0  0  0  0  0  0  0  0  0  0  0  0
  -21.3127   -7.2706   24.1866 C   0  0  0  0  0  0  0  0  0  0  0  0
  -19.7119   -7.6016   26.4472 C   0  0  0  0  0  0  0  0  0  0  0  0
  -21.6125   -6.5798   25.3607 C   0  0  0  0  0  0  0  0  0  0  0  0
  -24.6400  -11.6433   20.9948 C   0  0  0  0  0  0  0  0  0  0  0  0
  -29.8588  -17.7769   20.1303 C   0  0  0  0  0  0  0  0  0  0  0  0
  -25.0963  -13.6681   20.2690 C   0  0  0  0  0  0  0  0  0  0  0  0
  -22.7377  -13.3736   21.0427 C   0  0  0  0  0  0  0  0  0  0  0  0
  -22.2832  -27.5861   21.9148 C   0  0  0  0  0  0  0  0  0  0  0  0
  -25.5123  -27.6937   22.2048 C   0  0  0  0  0  0  0  0  0  0  0  0
  -28.4914  -26.0355   22.0557 C   0  0  0  0  0  0  0  0  0  0  0  0
  -30.4126  -15.3236   20.2747 C   0  0  0  0  0  0  0  0  0  0  0  0
  -19.7935  -31.9497   22.8191 C   0  0  0  0  0  0  0  0  0  0  0  0
  -22.7120  -25.6604   23.4845 C   0  0  0  0  0  0  0  0  0  0  0  0
  -24.5417  -25.6115   21.1618 C   0  0  0  0  0  0  0  0  0  0  0  0
  -21.1500  -31.5681   22.2321 C   0  0  0  0  0  0  0  0  0  0  0  0
  -29.6595  -12.2936   18.5632 C   0  0  0  0  0  0  0  0  0  0  0  0
  -20.9878  -30.4776   21.1779 C   0  0  0  0  0  0  0  0  0  0  0  0
  -28.2397  -11.9589   19.0262 C   0  0  0  0  0  0  0  0  0  0  0  0
  -26.6244  -18.8703   21.1773 C   0  0  0  0  0  0  0  0  0  0  0  0
  -26.7570  -18.7537   18.6563 C   0  0  0  0  0  0  0  0  0  0  0  0
  -30.4915  -12.9106   19.6859 C   0  0  0  0  0  0  0  0  0  0  0  0
  -28.4603  -13.7365   20.8090 C   0  0  0  0  0  0  0  0  0  0  0  0
  -25.1387  -18.5416   21.1047 C   0  0  0  0  0  0  0  0  0  0  0  0
  -25.2704  -18.4256   18.6030 C   0  0  0  0  0  0  0  0  0  0  0  0
  -27.3899  -18.2889   19.9778 C   0  0  0  0  0  0  0  0  0  0  0  0
  -20.3957  -29.2024   21.7900 C   0  0  1  0  0  0  0  0  0  0  0  0
  -23.2555  -26.9433   22.8631 C   0  0  1  0  0  0  0  0  0  0  0  0
  -27.5641  -13.1724   19.6945 C   0  0  2  0  0  0  0  0  0  0  0  0
  -30.8843  -21.8635   19.9959 C   0  0  0  0  0  0  0  0  0  0  0  0
  -30.9621  -26.3980   22.3036 C   0  0  0  0  0  0  0  0  0  0  0  0
  -25.5888  -29.0303   19.4630 C   0  0  0  0  0  0  0  0  0  0  0  0
  -28.0340  -28.5043   19.3521 C   0  0  0  0  0  0  0  0  0  0  0  0
  -27.1631  -30.0059   21.1435 C   0  0  0  0  0  0  0  0  0  0  0  0
  -28.6634  -24.1231   24.3079 C   0  0  0  0  0  0  0  0  0  0  0  0
  -23.0861  -18.8553   19.7251 C   0  0  0  0  0  0  0  0  0  0  0  0
  -22.4076  -19.9528   20.5209 C   0  0  0  0  0  0  0  0  0  1  0  0
  -26.6768  -27.5276   21.2586 C   0  0  1  0  0  0  0  0  0  0  0  0
  -29.6737  -26.0010   23.0072 C   0  0  2  0  0  0  0  0  0  0  0  0
  -26.8466  -28.7463   20.3082 C   0  0  0  0  0  0  0  0  0  0  0  0
  -31.1678  -18.1107   20.1829 N   0  0  0  0  0  0  0  0  0  0  0  0
  -25.9254  -11.5884   20.6361 N   0  0  0  0  0  0  0  0  0  0  0  0
  -26.1736  -12.8346   20.1987 N   0  0  0  0  0  0  0  0  0  0  0  0
  -24.4986  -26.7287   22.1197 N   0  0  0  0  0  0  0  0  0  0  0  0
  -29.7908  -14.0570   20.2687 N   0  0  0  0  0  0  0  0  0  0  0  0
  -25.1716  -14.9557   19.8703 N   0  0  0  0  0  0  0  0  0  0  0  0
  -21.8106  -12.4689   21.5778 N   0  0  0  0  0  0  0  0  0  0  0  0
  -29.5304  -16.3994   20.1790 N   0  0  0  0  0  0  0  0  0  0  0  0
  -21.4114  -28.4724   22.5179 N   0  0  0  0  0  0  0  0  0  0  0  0
  -27.8429  -27.2518   22.0909 N   0  0  0  0  0  0  0  0  0  0  0  0
  -24.5579  -19.0382   19.7941 N   0  3  0  0  0  0  0  0  0  0  0  0
  -29.8473  -24.6313   23.5682 N   0  3  0  0  0  0  0  0  0  0  0  0
  -22.3737  -14.5466   20.7873 O   0  0  0  0  0  0  0  0  0  0  0  0
  -22.3222  -27.3002   20.7238 O   0  0  0  0  0  0  0  0  0  0  0  0
  -25.5058  -28.6405   22.9955 O   0  0  0  0  0  0  0  0  0  0  0  0
  -28.1770  -25.0804   21.3490 O   0  0  0  0  0  0  0  0  0  0  0  0
  -31.6390  -15.4441   20.3310 O   0  0  0  0  0  0  0  0  0  0  0  0
  -22.1068   -7.1080   23.0638 O   0  0  0  0  0  0  0  0  0  0  0  0
  -22.7408  -21.2232   19.9628 O   0  0  0  0  0  0  0  0  0  1  0  0
  -18.9441   -7.7618   27.5330 F   0  0  0  0  0  0  0  0  0  0  0  0
  -22.6688   -5.7566   25.4092 F   0  0  0  0  0  0  0  0  0  0  0  0
  1  2  1  0  0  0  0
  1  5  2  0  0  0  0
  2  6  2  0  0  0  0
  3  8  2  0  0  0  0
  3 17  1  0  0  0  0
  4  9  1  0  0  0  0
  4 17  2  0  0  0  0
  5 19  1  0  0  0  0
  6 21  1  0  0  0  0
  7 10  2  0  0  0  0
  7 20  1  0  0  0  0
  8 25  1  0  0  0  0
  9 25  2  0  0  0  0
 10 26  1  0  0  0  0
 11 12  2  0  0  0  0
 11 27  1  0  0  0  0
 12 28  1  0  0  0  0
 13 22  1  0  0  0  0
 13 24  2  0  0  0  0
 14 23  1  0  0  0  0
 14 26  2  0  0  0  0
 15 28  2  0  0  0  0
 15 29  1  0  0  0  0
 16 24  1  0  0  0  0
 16 66  2  0  0  0  0
 17 30  1  0  0  0  0
 18 30  1  0  0  0  0
 18 32  2  0  0  0  0
 18 33  1  0  0  0  0
 19 21  2  0  0  0  0
 19 38  1  0  0  0  0
 20 23  2  0  0  0  0
 20 39  1  0  0  0  0
 21 52  1  0  0  0  0
 22 31  2  0  0  0  0
 22 51  1  0  0  0  0
 23 40  1  0  0  0  0
 24 55  1  0  0  0  0
 25 83  1  0  0  0  0
 26 84  1  0  0  0  0
 27 29  2  0  0  0  0
 27 83  1  0  0  0  0
 28 85  1  0  0  0  0
 29 86  1  0  0  0  0
 30 67  2  0  0  0  0
 31 66  1  0  0  0  0
 31 73  1  0  0  0  0
 32 68  1  0  0  0  0
 32 71  1  0  0  0  0
 33 72  1  0  0  0  0
 33 78  2  0  0  0  0
 34 53  1  0  0  0  0
 34 74  1  0  0  0  0
 34 79  2  0  0  0  0
 35 63  1  0  0  0  0
 35 69  1  0  0  0  0
 35 80  2  0  0  0  0
 36 64  1  0  0  0  0
 36 75  1  0  0  0  0
 36 81  2  0  0  0  0
 37 70  1  0  0  0  0
 37 73  1  0  0  0  0
 37 82  2  0  0  0  0
 38 41  1  0  0  0  0
 39 53  1  0  0  0  0
 40 69  1  0  0  0  0
 41 43  1  0  0  0  0
 42 44  1  0  0  0  0
 42 47  1  0  0  0  0
 43 52  1  0  0  0  0
 44 54  1  0  0  0  0
 45 49  1  0  0  0  0
 45 51  1  0  0  0  0
 46 50  1  0  0  0  0
 46 51  1  0  0  0  0
 47 70  1  0  0  0  0
 48 54  1  0  0  0  0
 48 70  1  0  0  0  0
 49 76  1  0  0  0  0
 50 76  1  0  0  0  0
 52 74  1  0  0  0  0
 53 69  1  0  0  0  0
 54 68  1  0  0  0  0
 56 64  1  0  0  0  0
 57 65  1  0  0  0  0
 58 65  1  0  0  0  0
 59 65  1  0  0  0  0
 60 77  1  0  0  0  0
 61 62  1  0  0  0  0
 61 76  1  0  0  0  0
 62 84  1  0  0  0  0
 63 65  1  0  0  0  0
 63 75  1  0  0  0  0
 64 77  1  0  0  0  0
 67 68  1  0  0  0  0
M  CHG  2  76   1  77   1
M  ISO  4  37 100  62 101  73 100  84 101
M  END
> <Batch ID>
0155

> <Smiles>
CNC(C)C(=O)NC(C(=O)N1Cc2cc([101O:1][101CH2:1]CN3CCC(c4cc(C)cnc4[100NH:0][100C:0](=O)N4CCCC(n5nc(-c6ccc(Oc7ccc(F)cc7F)cc6)c(C(N)=O)c5N)C4)CC3)ccc2CC1C(=O)NC1CCCc2ccccc21)C(C)(C)C

> <Shape>
0.279

> <Color>
0.176

> <Negative vol penalty>
0.000

$$$$

  -OEChem-04052321543D

 98108  0     1  0  0  0  0  0999 V2000
  -23.3806  -30.3464   21.5491 C   0  0  0  0  0  0  0  0  0  0  0  0
  -23.6069  -29.0056   21.2547 C   0  0  0  0  0  0  0  0  0  0  0  0
  -25.8721  -18.1667   29.1395 C   0  0  0  0  0  0  0  0  0  0  0  0
  -27.9918  -17.1266   28.6278 C   0  0  0  0  0  0  0  0  0  0  0  0
  -24.4087  -31.2756   21.3959 C   0  0  0  0  0  0  0  0  0  0  0  0
  -24.8611  -28.5935   20.8059 C   0  0  0  0  0  0  0  0  0  0  0  0
  -27.6319  -23.2649   22.0036 C   0  0  0  0  0  0  0  0  0  0  0  0
  -27.6524  -12.9169   19.9241 C   0  0  0  0  0  0  0  0  0  0  0  0
  -25.9810  -17.7380   30.4624 C   0  0  0  0  0  0  0  0  0  0  0  0
  -28.1008  -16.6978   29.9507 C   0  0  0  0  0  0  0  0  0  0  0  0
  -27.7461  -22.0823   21.2741 C   0  0  0  0  0  0  0  0  0  0  0  0
  -28.5231  -12.1839   19.1211 C   0  0  0  0  0  0  0  0  0  0  0  0
  -27.6302  -18.6821   33.2591 C   0  0  0  0  0  0  0  0  0  0  0  0
  -27.3301  -19.6006   34.2650 C   0  0  0  0  0  0  0  0  0  0  0  0
  -29.8944  -22.8057   20.4490 C   0  0  0  0  0  0  0  0  0  0  0  0
  -25.5746  -18.1477   35.0679 C   0  0  0  0  0  0  0  0  0  0  0  0
  -26.8775  -17.8610   28.2222 C   0  0  0  0  0  0  0  0  0  0  0  0
  -30.3831  -13.5096   19.9233 C   0  0  0  0  0  0  0  0  0  0  0  0
  -27.2300  -19.5164   26.3136 C   0  0  0  0  0  0  0  0  0  0  0  0
  -25.6790  -30.8732   20.9542 C   0  0  0  0  0  0  0  0  0  0  0  0
  -28.6449  -24.2333   21.9526 C   0  0  0  0  0  0  0  0  0  0  0  0
  -25.9068  -29.5185   20.6453 C   0  0  0  0  0  0  0  0  0  0  0  0
  -29.7918  -23.9987   21.1808 C   0  0  0  0  0  0  0  0  0  0  0  0
  -29.5117  -14.2507   20.7353 C   0  0  0  0  0  0  0  0  0  0  0  0
  -28.1429  -13.9473   20.7258 C   0  0  0  0  0  0  0  0  0  0  0  0
  -27.0954  -17.0035   30.8679 C   0  0  0  0  0  0  0  0  0  0  0  0
  -28.8761  -21.8538   20.4944 C   0  0  0  0  0  0  0  0  0  0  0  0
  -29.8864  -12.4788   19.1158 C   0  0  0  0  0  0  0  0  0  0  0  0
  -26.9024  -17.4964   33.1575 C   0  0  0  0  0  0  0  0  0  0  0  0
  -26.3023  -19.3334   35.1695 C   0  0  0  0  0  0  0  0  0  0  0  0
  -25.8747  -17.2292   34.0619 C   0  0  0  0  0  0  0  0  0  0  0  0
  -26.7652  -18.3031   26.8555 C   0  0  0  0  0  0  0  0  0  0  0  0
  -26.8809  -19.4559   24.9866 C   0  0  0  0  0  0  0  0  0  0  0  0
  -31.8349  -13.8272   19.8921 C   0  0  0  0  0  0  0  0  0  0  0  0
  -27.9161  -20.6012   26.9526 C   0  0  0  0  0  0  0  0  0  0  0  0
  -28.8096  -27.2587   20.9916 C   0  0  0  0  0  0  0  0  0  0  0  0
  -31.8050  -27.0790   22.2234 C   0  0  0  0  0  0  0  0  0  0  0  0
  -34.4632  -25.1284   23.1042 C   0  0  0  0  0  0  0  0  0  0  0  0
  -25.8738  -14.9167   21.2334 C   0  0  0  0  0  0  0  0  0  0  0  0
  -26.7454  -31.9216   20.7588 C   0  0  0  0  0  0  0  0  0  0  0  0
  -28.5187  -25.4919   22.7664 C   0  0  0  0  0  0  0  0  0  0  0  0
  -30.9167  -24.9975   21.1081 C   0  0  0  0  0  0  0  0  0  0  0  0
  -28.1528  -31.3433   20.6362 C   0  0  0  0  0  0  0  0  0  0  0  0
  -23.6119  -17.5399   22.0581 C   0  0  0  0  0  0  0  0  0  0  0  0
  -28.1621  -30.1609   19.6725 C   0  0  0  0  0  0  0  0  0  0  0  0
  -30.5195  -17.8451   21.6772 C   0  0  0  0  0  0  0  0  0  0  0  0
  -24.2094  -18.1476   23.3292 C   0  0  0  0  0  0  0  0  0  0  0  0
  -30.4088  -19.1801   20.9501 C   0  0  0  0  0  0  0  0  0  0  0  0
  -28.5083  -16.9918   20.4090 C   0  0  0  0  0  0  0  0  0  0  0  0
  -23.7910  -16.0233   22.0161 C   0  0  0  0  0  0  0  0  0  0  0  0
  -25.7670  -16.1632   23.4807 C   0  0  0  0  0  0  0  0  0  0  0  0
  -30.0351  -15.3774   21.5936 C   0  0  2  0  0  0  0  0  0  0  0  0
  -27.2608  -29.0287   20.1797 C   0  0  1  0  0  0  0  0  0  0  0  0
  -29.3775  -26.6355   22.2352 C   0  0  1  0  0  0  0  0  0  0  0  0
  -29.9542  -16.7035   20.8282 C   0  0  2  0  0  0  0  0  0  0  0  0
  -28.3892  -18.3344   19.6730 C   0  0  2  0  0  0  0  0  0  0  0  0
  -25.6684  -17.6964   23.5376 C   0  0  2  0  0  0  0  0  0  0  0  0
  -28.9726  -19.4777   20.5195 C   0  0  2  0  0  0  0  0  0  1  0  0
  -31.4772  -15.0709   22.0425 C   0  0  1  0  0  0  0  0  0  0  0  0
  -26.9282  -18.5933   19.2938 C   0  0  0  0  0  0  0  0  0  0  0  0
  -32.0669   -9.7639   18.1837 C   0  0  0  0  0  0  0  0  0  0  0  0
  -36.7837  -25.2707   24.0490 C   0  0  0  0  0  0  0  0  0  0  0  0
  -31.1574  -14.5793   24.4935 C   0  0  0  0  0  0  0  0  0  0  0  0
  -34.0355  -15.8310   19.6477 C   0  0  0  0  0  0  0  0  0  0  0  0
  -34.5762  -13.8244   21.0714 C   0  0  0  0  0  0  0  0  0  0  0  0
  -32.8369  -28.0796   19.5320 C   0  0  0  0  0  0  0  0  0  0  0  0
  -35.1224  -27.3053   20.1990 C   0  0  0  0  0  0  0  0  0  0  0  0
  -33.9732  -29.0804   21.5223 C   0  0  0  0  0  0  0  0  0  0  0  0
  -33.7342  -23.4781   25.4503 C   0  0  0  0  0  0  0  0  0  0  0  0
  -30.7143  -10.3140   18.5829 C   0  0  0  0  0  0  0  0  0  0  0  0
  -33.1610  -26.6917   21.6848 C   0  0  1  0  0  0  0  0  0  0  0  0
  -35.3076  -25.0860   24.3650 C   0  0  2  0  0  0  0  0  0  0  0  0
  -31.5169  -13.9990   23.1398 C   0  0  1  0  0  0  0  0  0  0  0  0
  -33.7124  -15.0684   20.9244 C   0  0  0  0  0  0  0  0  0  0  0  0
  -33.7515  -27.7711   20.7341 C   0  0  0  0  0  0  0  0  0  0  0  0
  -26.1664  -17.5285   25.9469 N   0  0  0  0  0  0  0  0  0  0  0  0
  -26.2524  -18.2569   24.8208 N   0  0  0  0  0  0  0  0  0  0  0  0
  -32.3117  -14.6698   20.9004 N   0  0  0  0  0  0  0  0  0  0  0  0
  -30.7437  -26.2156   21.9168 N   0  0  0  0  0  0  0  0  0  0  0  0
  -25.1983  -15.6706   22.2163 N   0  0  0  0  0  0  0  0  0  0  0  0
  -27.0533  -20.3120   23.9571 N   0  0  0  0  0  0  0  0  0  0  0  0
  -28.1964  -20.5002   28.3222 N   0  0  0  0  0  0  0  0  0  0  0  0
  -27.2165  -14.6701   21.5177 N   0  0  0  0  0  0  0  0  0  0  0  0
  -27.9222  -28.2899   21.2338 N   0  0  0  0  0  0  0  0  0  0  0  0
  -33.9934  -26.3989   22.8466 N   0  0  0  0  0  0  0  0  0  0  0  0
  -35.1357  -23.7789   25.0599 N   0  3  0  0  0  0  0  0  0  0  0  0
  -32.5250  -13.3567   18.9904 O   0  0  0  0  0  0  0  0  0  0  0  0
  -28.2556  -21.6366   26.3312 O   0  0  0  0  0  0  0  0  0  0  0  0
  -29.1523  -26.8363   19.8935 O   0  0  0  0  0  0  0  0  0  0  0  0
  -31.6929  -28.1059   22.8976 O   0  0  0  0  0  0  0  0  0  0  0  0
  -34.2455  -24.1346   22.4146 O   0  0  0  0  0  0  0  0  0  0  0  0
  -25.3103  -14.5425   20.2017 O   0  0  0  0  0  0  0  0  0  0  0  0
  -30.6015  -12.9674   22.8019 O   0  0  0  0  0  0  0  0  0  0  0  0
  -27.2021  -16.5852   32.1587 O   0  0  0  0  0  0  0  0  0  0  0  0
  -28.9905  -20.6938   19.7766 O   0  0  0  0  0  0  0  0  0  1  0  0
  -30.6860  -11.7146   18.3184 O   0  0  0  0  0  0  0  0  0  0  0  0
  -26.0153  -20.2148   36.1364 F   0  0  0  0  0  0  0  0  0  0  0  0
  -25.1729  -16.0913   33.9701 F   0  0  0  0  0  0  0  0  0  0  0  0
  1  2  1  0  0  0  0
  1  5  2  0  0  0  0
  2  6  2  0  0  0  0
  3  9  2  0  0  0  0
  3 17  1  0  0  0  0
  4 10  1  0  0  0  0
  4 17  2  0  0  0  0
  5 20  1  0  0  0  0
  6 22  1  0  0  0  0
  7 11  2  0  0  0  0
  7 21  1  0  0  0  0
  8 12  2  0  0  0  0
  8 25  1  0  0  0  0
  9 26  1  0  0  0  0
 10 26  2  0  0  0  0
 11 27  1  0  0  0  0
 12 28  1  0  0  0  0
 13 14  2  0  0  0  0
 13 29  1  0  0  0  0
 14 30  1  0  0  0  0
 15 23  1  0  0  0  0
 15 27  2  0  0  0  0
 16 30  2  0  0  0  0
 16 31  1  0  0  0  0
 17 32  1  0  0  0  0
 18 24  1  0  0  0  0
 18 28  2  0  0  0  0
 18 34  1  0  0  0  0
 19 32  1  0  0  0  0
 19 33  2  0  0  0  0
 19 35  1  0  0  0  0
 20 22  2  0  0  0  0
 20 40  1  0  0  0  0
 21 23  2  0  0  0  0
 21 41  1  0  0  0  0
 22 53  1  0  0  0  0
 23 42  1  0  0  0  0
 24 25  2  0  0  0  0
 24 52  1  0  0  0  0
 25 83  1  0  0  0  0
 26 94  1  0  0  0  0
 27 95  1  0  0  0  0
 28 96  1  0  0  0  0
 29 31  2  0  0  0  0
 29 94  1  0  0  0  0
 30 97  1  0  0  0  0
 31 98  1  0  0  0  0
 32 76  2  0  0  0  0
 33 77  1  0  0  0  0
 33 81  1  0  0  0  0
 34 78  1  0  0  0  0
 34 87  2  0  0  0  0
 35 82  1  0  0  0  0
 35 88  2  0  0  0  0
 36 54  1  0  0  0  0
 36 84  1  0  0  0  0
 36 89  2  0  0  0  0
 37 71  1  0  0  0  0
 37 79  1  0  0  0  0
 37 90  2  0  0  0  0
 38 72  1  0  0  0  0
 38 85  1  0  0  0  0
 38 91  2  0  0  0  0
 39 80  1  0  0  0  0
 39 83  1  0  0  0  0
 39 92  2  0  0  0  0
 40 43  1  0  0  0  0
 41 54  1  0  0  0  0
 42 79  1  0  0  0  0
 43 45  1  0  0  0  0
 44 47  1  0  0  0  0
 44 50  1  0  0  0  0
 45 53  1  0  0  0  0
 46 48  1  0  0  0  0
 46 55  1  0  0  0  0
 47 57  1  0  0  0  0
 48 58  1  0  0  0  0
 49 55  1  0  0  0  0
 49 56  1  0  0  0  0
 50 80  1  0  0  0  0
 51 57  1  0  0  0  0
 51 80  1  0  0  0  0
 52 55  1  0  0  0  0
 52 59  1  0  0  0  0
 53 84  1  0  0  0  0
 54 79  1  0  0  0  0
 56 58  1  0  0  0  0
 56 60  1  0  0  0  0
 57 77  1  0  0  0  0
 58 95  1  0  0  0  0
 59 73  1  0  0  0  0
 59 78  1  0  0  0  0
 61 70  1  0  0  0  0
 62 72  1  0  0  0  0
 63 73  1  0  0  0  0
 64 74  1  0  0  0  0
 65 74  1  0  0  0  0
 66 75  1  0  0  0  0
 67 75  1  0  0  0  0
 68 75  1  0  0  0  0
 69 86  1  0  0  0  0
 70 96  1  0  0  0  0
 71 75  1  0  0  0  0
 71 85  1  0  0  0  0
 72 86  1  0  0  0  0
 73 93  1  0  0  0  0
 74 78  1  0  0  0  0
 76 77  1  0  0  0  0
M  CHG  1  86   1
M  ISO  4  39 100  58 101  83 100  95 101
M  END
> <Batch ID>
0155

> <Smiles>
CCOc1ccc([100NH:0][100C:0](=O)N2CCCC(n3nc(-c4ccc(Oc5ccc(F)cc5F)cc4)c(C(N)=O)c3N)C2)c2c1C(=O)N(C(C)C)C(C(C)O)C2C1CC[101CH:1]([101O:1]c2ccc3c(c2)CN(C(=O)C(NC(=O)C(C)NC)C(C)(C)C)C(C(=O)NC2CCCc4ccccc42)C3)C(C)C1

> <Shape>
0.203

> <Color>
0.065

> <Negative vol penalty>
0.000

$$$$

  -OEChem-04052321543D

 86 95  0     1  0  0  0  0  0999 V2000
  -20.5316  -26.5319   22.3454 C   0  0  0  0  0  0  0  0  0  0  0  0
  -20.7474  -25.8296   21.1641 C   0  0  0  0  0  0  0  0  0  0  0  0
  -28.2198  -26.3279   17.9140 C   0  0  0  0  0  0  0  0  0  0  0  0
  -27.0885  -25.4980   19.8808 C   0  0  0  0  0  0  0  0  0  0  0  0
  -21.4282  -26.4031   23.4053 C   0  0  0  0  0  0  0  0  0  0  0  0
  -21.8607  -24.9989   21.0416 C   0  0  0  0  0  0  0  0  0  0  0  0
  -22.2610  -17.4012   19.2688 C   0  0  0  0  0  0  0  0  0  0  0  0
  -27.3253  -27.3962   17.8501 C   0  0  0  0  0  0  0  0  0  0  0  0
  -26.1939  -26.5663   19.8170 C   0  0  0  0  0  0  0  0  0  0  0  0
  -22.4493  -16.0270   19.1200 C   0  0  0  0  0  0  0  0  0  0  0  0
  -26.1688  -29.8443   20.6382 C   0  0  0  0  0  0  0  0  0  0  0  0
  -25.8768  -30.5149   21.8259 C   0  0  0  0  0  0  0  0  0  0  0  0
  -24.5026  -16.1600   20.3906 C   0  0  0  0  0  0  0  0  0  0  0  0
  -29.2716  -13.2545   18.3522 C   0  0  0  0  0  0  0  0  0  0  0  0
  -29.3292  -13.7804   20.7096 C   0  0  0  0  0  0  0  0  0  0  0  0
  -23.5426  -29.9444   21.5741 C   0  0  0  0  0  0  0  0  0  0  0  0
  -28.1015  -25.3787   18.9293 C   0  0  0  0  0  0  0  0  0  0  0  0
  -30.2521  -24.2329   19.6839 C   0  0  0  0  0  0  0  0  0  0  0  0
  -22.5478  -25.5629   23.2993 C   0  0  0  0  0  0  0  0  0  0  0  0
  -23.1859  -18.1585   19.9931 C   0  0  0  0  0  0  0  0  0  0  0  0
  -22.7738  -24.8597   22.1006 C   0  0  0  0  0  0  0  0  0  0  0  0
  -24.3127  -17.5349   20.5536 C   0  0  0  0  0  0  0  0  0  0  0  0
  -29.7413  -14.0425   19.4030 C   0  0  0  0  0  0  0  0  0  0  0  0
  -28.3897  -12.2045   18.6080 C   0  0  0  0  0  0  0  0  0  0  0  0
  -28.4473  -12.7304   20.9653 C   0  0  0  0  0  0  0  0  0  0  0  0
  -27.9775  -11.9424   19.9145 C   0  0  0  0  0  0  0  0  0  0  0  0
  -26.3123  -27.5154   18.8016 C   0  0  0  0  0  0  0  0  0  0  0  0
  -23.5675  -15.4080   19.6793 C   0  0  0  0  0  0  0  0  0  0  0  0
  -25.1477  -29.2238   19.9184 C   0  0  0  0  0  0  0  0  0  0  0  0
  -24.5637  -30.5649   22.2939 C   0  0  0  0  0  0  0  0  0  0  0  0
  -23.8346  -29.2739   20.3863 C   0  0  0  0  0  0  0  0  0  0  0  0
  -29.0249  -24.2747   18.9954 C   0  0  0  0  0  0  0  0  0  0  0  0
  -30.7424  -22.9741   19.4358 C   0  0  0  0  0  0  0  0  0  0  0  0
  -30.8917  -25.2418   20.4769 C   0  0  0  0  0  0  0  0  0  0  0  0
  -24.1719  -21.5349   21.2982 C   0  0  0  0  0  0  0  0  0  0  0  0
  -24.7795  -19.5086   23.5198 C   0  0  0  0  0  0  0  0  0  0  0  0
  -24.9084  -17.0246   25.8543 C   0  0  0  0  0  0  0  0  0  0  0  0
  -30.0206  -17.5563   19.1646 C   0  0  0  0  0  0  0  0  0  0  0  0
  -23.5147  -25.4925   24.4547 C   0  0  0  0  0  0  0  0  0  0  0  0
  -23.0555  -19.6514   20.1265 C   0  0  0  0  0  0  0  0  0  0  0  0
  -25.2994  -18.3950   21.2949 C   0  0  0  0  0  0  0  0  0  0  0  0
  -24.4672  -24.3020   24.3800 C   0  0  0  0  0  0  0  0  0  0  0  0
  -29.2085  -19.4250   16.1736 C   0  0  0  0  0  0  0  0  0  0  0  0
  -25.0559  -24.1764   22.9785 C   0  0  0  0  0  0  0  0  0  0  0  0
  -29.1907  -20.8589   16.7062 C   0  0  0  0  0  0  0  0  0  0  0  0
  -23.7122  -11.1987   20.4274 C   0  0  0  0  0  0  0  0  0  0  0  0
  -28.6345  -18.4484   17.1959 C   0  0  0  0  0  0  0  0  0  0  0  0
  -29.2845  -19.9207   19.0623 C   0  0  0  0  0  0  0  0  0  0  0  0
  -24.7658  -10.1699   20.8658 C   0  0  0  0  0  0  0  0  0  0  0  0
  -23.9565  -23.9296   21.9384 C   0  0  1  0  0  0  0  0  0  0  0  0
  -23.5511  -20.1816   21.4839 C   0  0  1  0  0  0  0  0  0  0  0  0
  -29.8730  -20.9534   18.0838 C   0  0  2  0  0  0  0  0  0  0  0  0
  -24.9044  -12.0029   19.8679 C   0  0  1  0  0  0  0  0  0  0  0  0
  -27.9023  -11.3750   17.4652 C   0  0  0  0  0  0  0  0  0  0  0  0
  -28.0212  -12.4704   22.3734 C   0  0  0  0  0  0  0  0  0  0  0  0
  -25.5532  -16.5964   28.2414 C   0  0  0  0  0  0  0  0  0  0  0  0
  -27.7251  -19.5573   22.7290 C   0  0  0  0  0  0  0  0  0  0  0  0
  -28.2285  -18.2369   24.7957 C   0  0  0  0  0  0  0  0  0  0  0  0
  -27.2344  -20.5168   24.9857 C   0  0  0  0  0  0  0  0  0  0  0  0
  -22.1558  -16.2088   26.5730 C   0  0  0  0  0  0  0  0  0  0  0  0
  -30.6837  -15.1655   19.1295 C   0  0  0  0  0  0  0  0  0  0  0  0
  -27.0293  -10.8127   20.1894 C   0  0  0  0  0  0  0  0  0  0  0  0
  -24.9072  -13.4951   20.1304 C   0  0  0  0  0  0  0  0  0  1  0  0
  -25.8006  -18.6042   24.1622 C   0  0  1  0  0  0  0  0  0  0  0  0
  -24.4245  -16.9670   27.2920 C   0  0  2  0  0  0  0  0  0  0  0  0
  -27.2286  -19.2190   24.1489 C   0  0  0  0  0  0  0  0  0  0  0  0
  -28.7524  -23.1332   18.3576 N   0  0  0  0  0  0  0  0  0  0  0  0
  -29.8153  -22.3624   18.6442 N   0  0  0  0  0  0  0  0  0  0  0  0
  -24.5851  -19.3640   22.1407 N   0  0  0  0  0  0  0  0  0  0  0  0
  -29.3397  -18.5761   18.4790 N   0  0  0  0  0  0  0  0  0  0  0  0
  -31.8718  -22.3420   19.8195 N   0  0  0  0  0  0  0  0  0  0  0  0
  -30.2501  -26.4786   20.6289 N   0  0  0  0  0  0  0  0  0  0  0  0
  -23.5243  -22.5490   21.9776 N   0  0  0  0  0  0  0  0  0  0  0  0
  -25.2939  -18.2990   25.4958 N   0  0  0  0  0  0  0  0  0  0  0  0
  -30.0199  -16.3111   18.5481 N   0  0  0  0  0  0  0  0  0  0  0  0
  -25.7654  -11.2565   20.8185 N   0  3  2  0  0  0  0  0  0  0  0  0
  -23.3400  -15.9547   27.4333 N   0  3  0  0  0  0  0  0  0  0  0  0
  -32.0070  -25.0578   21.0207 O   0  0  0  0  0  0  0  0  0  0  0  0
  -25.1664  -21.6516   20.5918 O   0  0  0  0  0  0  0  0  0  0  0  0
  -24.1734  -20.3260   24.2182 O   0  0  0  0  0  0  0  0  0  0  0  0
  -24.9446  -16.0370   25.1236 O   0  0  0  0  0  0  0  0  0  0  0  0
  -30.5919  -17.7430   20.2444 O   0  0  0  0  0  0  0  0  0  0  0  0
  -25.4394  -28.5578   18.7398 O   0  0  0  0  0  0  0  0  0  0  0  0
  -23.7429  -14.0653   19.5341 O   0  0  0  0  0  0  0  0  0  1  0  0
  -24.2836  -31.2076   23.4353 F   0  0  0  0  0  0  0  0  0  0  0  0
  -22.8497  -28.6787   19.6998 F   0  0  0  0  0  0  0  0  0  0  0  0
  1  2  1  0  0  0  0
  1  5  2  0  0  0  0
  2  6  2  0  0  0  0
  3  8  2  0  0  0  0
  3 17  1  0  0  0  0
  4  9  1  0  0  0  0
  4 17  2  0  0  0  0
  5 19  1  0  0  0  0
  6 21  1  0  0  0  0
  7 10  2  0  0  0  0
  7 20  1  0  0  0  0
  8 27  1  0  0  0  0
  9 27  2  0  0  0  0
 10 28  1  0  0  0  0
 11 12  2  0  0  0  0
 11 29  1  0  0  0  0
 12 30  1  0  0  0  0
 13 22  1  0  0  0  0
 13 28  2  0  0  0  0
 14 23  1  0  0  0  0
 14 24  2  0  0  0  0
 15 23  2  0  0  0  0
 15 25  1  0  0  0  0
 16 30  2  0  0  0  0
 16 31  1  0  0  0  0
 17 32  1  0  0  0  0
 18 32  1  0  0  0  0
 18 33  2  0  0  0  0
 18 34  1  0  0  0  0
 19 21  2  0  0  0  0
 19 39  1  0  0  0  0
 20 22  2  0  0  0  0
 20 40  1  0  0  0  0
 21 50  1  0  0  0  0
 22 41  1  0  0  0  0
 23 61  1  0  0  0  0
 24 26  1  0  0  0  0
 24 54  1  0  0  0  0
 25 26  2  0  0  0  0
 25 55  1  0  0  0  0
 26 62  1  0  0  0  0
 27 83  1  0  0  0  0
 28 84  1  0  0  0  0
 29 31  2  0  0  0  0
 29 83  1  0  0  0  0
 30 85  1  0  0  0  0
 31 86  1  0  0  0  0
 32 67  2  0  0  0  0
 33 68  1  0  0  0  0
 33 71  1  0  0  0  0
 34 72  1  0  0  0  0
 34 78  2  0  0  0  0
 35 51  1  0  0  0  0
 35 73  1  0  0  0  0
 35 79  2  0  0  0  0
 36 64  1  0  0  0  0
 36 69  1  0  0  0  0
 36 80  2  0  0  0  0
 37 65  1  0  0  0  0
 37 74  1  0  0  0  0
 37 81  2  0  0  0  0
 38 70  1  0  0  0  0
 38 75  1  0  0  0  0
 38 82  2  0  0  0  0
 39 42  1  0  0  0  0
 40 51  1  0  0  0  0
 41 69  1  0  0  0  0
 42 44  1  0  0  0  0
 43 45  1  0  0  0  0
 43 47  1  0  0  0  0
 44 50  1  0  0  0  0
 45 52  1  0  0  0  0
 46 49  1  0  0  0  0
 46 53  1  0  0  0  0
 47 70  1  0  0  0  0
 48 52  1  0  0  0  0
 48 70  1  0  0  0  0
 49 76  1  0  0  0  0
 50 73  1  0  0  0  0
 51 69  1  0  0  0  0
 52 68  1  0  0  0  0
 53 63  1  0  0  0  0
 53 76  1  0  0  0  0
 56 65  1  0  0  0  0
 57 66  1  0  0  0  0
 58 66  1  0  0  0  0
 59 66  1  0  0  0  0
 60 77  1  0  0  0  0
 61 75  1  0  0  0  0
 62 76  1  0  0  0  0
 63 84  1  0  0  0  0
 64 66  1  0  0  0  0
 64 74  1  0  0  0  0
 65 77  1  0  0  0  0
 67 68  1  0  0  0  0
M  CHG  2  76   1  77   1
M  ISO  4  38 100  63 101  75 100  84 101
M  END
> <Batch ID>
0155

> <Smiles>
CNC(C)C(=O)NC(C(=O)N1Cc2cc([101O:1][101CH2:1]C3CCN3Cc3c(C)cc(C[100NH:0][100C:0](=O)N4CCCC(n5nc(-c6ccc(Oc7ccc(F)cc7F)cc6)c(C(N)=O)c5N)C4)cc3C)ccc2CC1C(=O)NC1CCCc2ccccc21)C(C)(C)C

> <Shape>
0.228

> <Color>
0.067

> <Negative vol penalty>
0.000

$$$$

  -OEChem-04052321543D

 91101  0     1  0  0  0  0  0999 V2000
  -15.6941  -27.1733   25.8219 C   0  0  0  0  0  0  0  0  0  0  0  0
  -16.7860  -26.5259   25.2527 C   0  0  0  0  0  0  0  0  0  0  0  0
  -22.7907  -11.5489   18.9848 C   0  0  0  0  0  0  0  0  0  0  0  0
  -22.9184  -10.2354   21.0086 C   0  0  0  0  0  0  0  0  0  0  0  0
  -15.4941  -28.5338   25.5917 C   0  0  0  0  0  0  0  0  0  0  0  0
  -17.6780  -27.2384   24.4521 C   0  0  0  0  0  0  0  0  0  0  0  0
  -22.5148  -26.1848   25.5200 C   0  0  0  0  0  0  0  0  0  0  0  0
  -21.6797  -10.8112   18.5762 C   0  0  0  0  0  0  0  0  0  0  0  0
  -21.8073   -9.4978   20.6000 C   0  0  0  0  0  0  0  0  0  0  0  0
  -23.0316  -24.9903   25.0202 C   0  0  0  0  0  0  0  0  0  0  0  0
  -21.1491   -6.9625   18.4623 C   0  0  0  0  0  0  0  0  0  0  0  0
  -21.2057   -5.5756   18.5998 C   0  0  0  0  0  0  0  0  0  0  0  0
  -27.2810  -18.4187   21.5885 C   0  0  0  0  0  0  0  0  0  0  0  0
  -24.0797  -26.2046   23.2185 C   0  0  0  0  0  0  0  0  0  0  0  0
  -19.2819   -5.6419   20.0598 C   0  0  0  0  0  0  0  0  0  0  0  0
  -23.4102  -11.2609   20.2011 C   0  0  0  0  0  0  0  0  0  0  0  0
  -24.5602  -13.2030   21.3899 C   0  0  0  0  0  0  0  0  0  0  0  0
  -16.3895  -29.2655   24.7958 C   0  0  0  0  0  0  0  0  0  0  0  0
  -22.7680  -27.3989   24.8656 C   0  0  0  0  0  0  0  0  0  0  0  0
  -17.4891  -28.6097   24.2100 C   0  0  0  0  0  0  0  0  0  0  0  0
  -28.2205  -18.9633   20.7140 C   0  0  0  0  0  0  0  0  0  0  0  0
  -23.5671  -27.4135   23.7135 C   0  0  0  0  0  0  0  0  0  0  0  0
  -28.2306  -20.3398   20.4396 C   0  0  0  0  0  0  0  0  0  0  0  0
  -27.2961  -21.1769   21.0761 C   0  0  0  0  0  0  0  0  0  0  0  0
  -26.3444  -19.2438   22.2033 C   0  0  0  0  0  0  0  0  0  0  0  0
  -21.1879   -9.7857   19.3838 C   0  0  0  0  0  0  0  0  0  0  0  0
  -23.8118  -24.9997   23.8677 C   0  0  0  0  0  0  0  0  0  0  0  0
  -20.1589   -7.6891   19.1236 C   0  0  0  0  0  0  0  0  0  0  0  0
  -26.3497  -20.6144   21.9469 C   0  0  0  0  0  0  0  0  0  0  0  0
  -20.2721   -4.9153   19.3986 C   0  0  0  0  0  0  0  0  0  0  0  0
  -19.2253   -7.0288   19.9223 C   0  0  0  0  0  0  0  0  0  0  0  0
  -24.5583  -12.0222   20.6235 C   0  0  0  0  0  0  0  0  0  0  0  0
  -25.8887  -13.5273   21.5176 C   0  0  0  0  0  0  0  0  0  0  0  0
  -23.4595  -13.9407   21.9376 C   0  0  0  0  0  0  0  0  0  0  0  0
  -20.9663  -29.6035   23.4522 C   0  0  0  0  0  0  0  0  0  0  0  0
  -23.7805  -31.2016   23.2310 C   0  0  0  0  0  0  0  0  0  0  0  0
  -27.1894  -31.0670   23.1403 C   0  0  0  0  0  0  0  0  0  0  0  0
  -30.9562  -14.1152   19.5454 C   0  0  0  0  0  0  0  0  0  0  0  0
  -16.1058  -30.7240   24.5370 C   0  0  0  0  0  0  0  0  0  0  0  0
  -22.2254  -28.6821   25.4326 C   0  0  0  0  0  0  0  0  0  0  0  0
  -29.2875  -20.8890   19.5149 C   0  0  0  0  0  0  0  0  0  0  0  0
  -27.2415  -22.6614   20.8036 C   0  0  0  0  0  0  0  0  0  0  0  0
  -23.8851  -28.6928   22.9851 C   0  0  0  0  0  0  0  0  0  0  0  0
  -17.3049  -31.4888   23.9824 C   0  0  0  0  0  0  0  0  0  0  0  0
  -28.9857  -22.3025   19.0164 C   0  0  0  0  0  0  0  0  0  0  0  0
  -30.0567  -10.8934   20.4189 C   0  0  0  0  0  0  0  0  0  0  0  0
  -17.9637  -30.7026   22.8534 C   0  0  0  0  0  0  0  0  0  0  0  0
  -28.5435  -10.9816   20.6170 C   0  0  0  0  0  0  0  0  0  0  0  0
  -30.1300  -17.3526   21.1365 C   0  0  0  0  0  0  0  0  0  0  0  0
  -28.5518  -16.9606   19.1983 C   0  0  0  0  0  0  0  0  0  0  0  0
  -30.4973  -11.7049   19.2057 C   0  0  0  0  0  0  0  0  0  0  0  0
  -31.1233  -16.3883   20.4927 C   0  0  0  0  0  0  0  0  0  0  0  0
  -29.5807  -16.0072   18.5977 C   0  0  0  0  0  0  0  0  0  0  0  0
  -28.5781  -13.2437   19.4568 C   0  0  0  0  0  0  0  0  0  0  0  0
  -29.2293  -18.0214   20.0837 C   0  0  0  0  0  0  0  0  0  0  0  0
  -18.4926  -29.3538   23.3559 C   0  0  1  0  0  0  0  0  0  0  0  0
  -22.1199  -29.7961   24.3956 C   0  0  1  0  0  0  0  0  0  0  0  0
  -28.0794  -12.4475   20.6793 C   0  0  1  0  0  0  0  0  0  0  0  0
  -28.4934  -23.2232   20.1283 C   0  0  2  0  0  0  0  0  0  0  0  0
  -25.3419  -18.6421   23.1324 C   0  0  0  0  0  0  0  0  0  0  0  0
  -29.2134  -32.5332   22.9147 C   0  0  0  0  0  0  0  0  0  0  0  0
  -23.2482  -31.4717   20.2387 C   0  0  0  0  0  0  0  0  0  0  0  0
  -25.6612  -32.0656   19.9339 C   0  0  0  0  0  0  0  0  0  0  0  0
  -24.1857  -33.5222   21.3208 C   0  0  0  0  0  0  0  0  0  0  0  0
  -28.2105  -30.2646   25.7997 C   0  0  0  0  0  0  0  0  0  0  0  0
  -24.6036  -22.8033   24.3201 C   0  0  0  0  0  0  0  0  0  1  0  0
  -25.7625  -21.9671   23.8127 C   0  0  0  0  0  0  0  0  0  0  0  0
  -24.8959  -31.2669   22.2159 C   0  0  1  0  0  0  0  0  0  0  0  0
  -28.2489  -31.8629   23.8808 C   0  0  2  0  0  0  0  0  0  0  0  0
  -24.4904  -32.0571   20.9397 C   0  0  0  0  0  0  0  0  0  0  0  0
  -25.7880  -11.6234   20.2877 N   0  0  0  0  0  0  0  0  0  0  0  0
  -26.5750  -12.5590   20.8457 N   0  0  0  0  0  0  0  0  0  0  0  0
  -23.3263  -29.9205   23.5751 N   0  0  0  0  0  0  0  0  0  0  0  0
  -30.0319  -13.0884   19.2998 N   0  0  0  0  0  0  0  0  0  0  0  0
  -30.4453  -15.4208   19.6308 N   0  0  0  0  0  0  0  0  0  0  0  0
  -26.5251  -14.5436   22.1378 N   0  0  0  0  0  0  0  0  0  0  0  0
  -22.1597  -13.4676   21.7117 N   0  0  0  0  0  0  0  0  0  0  0  0
  -19.7351  -29.5345   24.0757 N   0  0  0  0  0  0  0  0  0  0  0  0
  -26.0530  -31.8148   22.9155 N   0  0  0  0  0  0  0  0  0  0  0  0
  -29.5660  -23.4044   21.1484 N   0  3  0  0  0  0  0  0  0  0  0  0
  -29.0311  -30.9708   24.7825 N   0  3  0  0  0  0  0  0  0  0  0  0
  -23.6229  -14.9974   22.5936 O   0  0  0  0  0  0  0  0  0  0  0  0
  -21.1776  -29.5249   22.2477 O   0  0  0  0  0  0  0  0  0  0  0  0
  -23.3337  -32.2484   23.7067 O   0  0  0  0  0  0  0  0  0  0  0  0
  -27.3548  -29.8998   22.7927 O   0  0  0  0  0  0  0  0  0  0  0  0
  -32.1632  -13.8821   19.6857 O   0  0  0  0  0  0  0  0  0  0  0  0
  -20.1036   -9.0659   18.9854 O   0  0  0  0  0  0  0  0  0  0  0  0
  -24.3203  -23.8272   23.3740 O   0  0  0  0  0  0  0  0  0  1  0  0
  -25.4144  -21.4069   22.5502 O   0  0  0  0  0  0  0  0  0  0  0  0
  -20.3256   -3.5833   19.5293 F   0  0  0  0  0  0  0  0  0  0  0  0
  -18.2710   -7.7213   20.5591 F   0  0  0  0  0  0  0  0  0  0  0  0
  1  2  1  0  0  0  0
  1  5  2  0  0  0  0
  2  6  2  0  0  0  0
  3  8  2  0  0  0  0
  3 16  1  0  0  0  0
  4  9  1  0  0  0  0
  4 16  2  0  0  0  0
  5 18  1  0  0  0  0
  6 20  1  0  0  0  0
  7 10  2  0  0  0  0
  7 19  1  0  0  0  0
  8 26  1  0  0  0  0
  9 26  2  0  0  0  0
 10 27  1  0  0  0  0
 11 12  2  0  0  0  0
 11 28  1  0  0  0  0
 12 30  1  0  0  0  0
 13 21  1  0  0  0  0
 13 25  2  0  0  0  0
 14 22  1  0  0  0  0
 14 27  2  0  0  0  0
 15 30  2  0  0  0  0
 15 31  1  0  0  0  0
 16 32  1  0  0  0  0
 17 32  1  0  0  0  0
 17 33  2  0  0  0  0
 17 34  1  0  0  0  0
 18 20  2  0  0  0  0
 18 39  1  0  0  0  0
 19 22  2  0  0  0  0
 19 40  1  0  0  0  0
 20 56  1  0  0  0  0
 21 23  2  0  0  0  0
 21 55  1  0  0  0  0
 22 43  1  0  0  0  0
 23 24  1  0  0  0  0
 23 41  1  0  0  0  0
 24 29  2  0  0  0  0
 24 42  1  0  0  0  0
 25 29  1  0  0  0  0
 25 60  1  0  0  0  0
 26 87  1  0  0  0  0
 27 88  1  0  0  0  0
 28 31  2  0  0  0  0
 28 87  1  0  0  0  0
 29 89  1  0  0  0  0
 30 90  1  0  0  0  0
 31 91  1  0  0  0  0
 32 71  2  0  0  0  0
 33 72  1  0  0  0  0
 33 76  1  0  0  0  0
 34 77  1  0  0  0  0
 34 82  2  0  0  0  0
 35 57  1  0  0  0  0
 35 78  1  0  0  0  0
 35 83  2  0  0  0  0
 36 68  1  0  0  0  0
 36 73  1  0  0  0  0
 36 84  2  0  0  0  0
 37 69  1  0  0  0  0
 37 79  1  0  0  0  0
 37 85  2  0  0  0  0
 38 74  1  0  0  0  0
 38 75  1  0  0  0  0
 38 86  2  0  0  0  0
 39 44  1  0  0  0  0
 40 57  1  0  0  0  0
 41 45  1  0  0  0  0
 42 59  1  0  0  0  0
 43 73  1  0  0  0  0
 44 47  1  0  0  0  0
 45 59  1  0  0  0  0
 46 48  1  0  0  0  0
 46 51  1  0  0  0  0
 47 56  1  0  0  0  0
 48 58  1  0  0  0  0
 49 52  1  0  0  0  0
 49 55  1  0  0  0  0
 50 53  1  0  0  0  0
 50 55  1  0  0  0  0
 51 74  1  0  0  0  0
 52 75  1  0  0  0  0
 53 75  1  0  0  0  0
 54 58  1  0  0  0  0
 54 74  1  0  0  0  0
 56 78  1  0  0  0  0
 57 73  1  0  0  0  0
 58 72  1  0  0  0  0
 59 80  1  0  0  0  0
 61 69  1  0  0  0  0
 62 70  1  0  0  0  0
 63 70  1  0  0  0  0
 64 70  1  0  0  0  0
 65 81  1  0  0  0  0
 66 67  1  0  0  0  0
 66 88  1  0  0  0  0
 67 89  1  0  0  0  0
 68 70  1  0  0  0  0
 68 79  1  0  0  0  0
 69 81  1  0  0  0  0
 71 72  1  0  0  0  0
M  CHG  2  80   1  81   1
M  ISO  4  38 100  66 101  75 100  88 101
M  END
> <Batch ID>
0155

> <Smiles>
CNC(C)C(=O)NC(C(=O)N1Cc2cc([101O:1][101CH2:1]COc3c(C)cc(C4CC[100N:0]([100C:0](=O)N5CCCC(n6nc(-c7ccc(Oc8ccc(F)cc8F)cc7)c(C(N)=O)c6N)C5)CC4)c4c3CC(N)CC4)ccc2CC1C(=O)NC1CCCc2ccccc21)C(C)(C)C

> <Shape>
0.277

> <Color>
0.087

> <Negative vol penalty>
0.000

$$$$

  -OEChem-04052321543D

 89 98  0     1  0  0  0  0  0999 V2000
  -29.8705  -30.2494   26.7346 C   0  0  0  0  0  0  0  0  0  0  0  0
  -29.0622  -29.4124   25.9721 C   0  0  0  0  0  0  0  0  0  0  0  0
  -24.4374   -9.9450   22.1101 C   0  0  0  0  0  0  0  0  0  0  0  0
  -24.5355  -11.2961   24.1106 C   0  0  0  0  0  0  0  0  0  0  0  0
  -29.4216  -31.5227   27.0826 C   0  0  0  0  0  0  0  0  0  0  0  0
  -27.8038  -29.8478   25.5582 C   0  0  0  0  0  0  0  0  0  0  0  0
  -26.8778  -28.7719   20.6971 C   0  0  0  0  0  0  0  0  0  0  0  0
  -23.9975   -8.8582   22.8657 C   0  0  0  0  0  0  0  0  0  0  0  0
  -24.0955  -10.2093   24.8662 C   0  0  0  0  0  0  0  0  0  0  0  0
  -26.5160  -27.4602   20.3930 C   0  0  0  0  0  0  0  0  0  0  0  0
  -21.1042   -7.8027   24.2614 C   0  0  0  0  0  0  0  0  0  0  0  0
  -20.0350   -7.0579   23.7640 C   0  0  0  0  0  0  0  0  0  0  0  0
  -24.1993  -28.1265   20.3031 C   0  0  0  0  0  0  0  0  0  0  0  0
  -25.4840  -22.4869   20.3038 C   0  0  0  0  0  0  0  0  0  0  0  0
  -24.0676  -22.1403   17.9255 C   0  0  0  0  0  0  0  0  0  0  0  0
  -21.4303   -5.0861   23.7173 C   0  0  0  0  0  0  0  0  0  0  0  0
  -24.7065  -11.1640   22.7326 C   0  0  0  0  0  0  0  0  0  0  0  0
  -24.3662  -13.2673   21.3298 C   0  0  0  0  0  0  0  0  0  0  0  0
  -28.1610  -31.9775   26.6646 C   0  0  0  0  0  0  0  0  0  0  0  0
  -25.9003  -29.7701   20.8174 C   0  0  0  0  0  0  0  0  0  0  0  0
  -27.3370  -31.1278   25.9021 C   0  0  0  0  0  0  0  0  0  0  0  0
  -24.5515  -29.4505   20.6062 C   0  0  0  0  0  0  0  0  0  0  0  0
  -25.2990  -23.5653   19.4388 C   0  0  0  0  0  0  0  0  0  0  0  0
  -24.9610  -21.2350   19.9796 C   0  0  0  0  0  0  0  0  0  0  0  0
  -24.5908  -23.3921   18.2497 C   0  0  0  0  0  0  0  0  0  0  0  0
  -23.8265   -8.9903   24.2437 C   0  0  0  0  0  0  0  0  0  0  0  0
  -25.1763  -27.1367   20.1988 C   0  0  0  0  0  0  0  0  0  0  0  0
  -22.3366   -7.1893   24.4867 C   0  0  0  0  0  0  0  0  0  0  0  0
  -24.2527  -21.0618   18.7905 C   0  0  0  0  0  0  0  0  0  0  0  0
  -20.1980   -5.6995   23.4920 C   0  0  0  0  0  0  0  0  0  0  0  0
  -22.4996   -5.8310   24.2146 C   0  0  0  0  0  0  0  0  0  0  0  0
  -25.1615  -12.2869   21.9528 C   0  0  0  0  0  0  0  0  0  0  0  0
  -25.2683  -14.1051   20.7208 C   0  0  0  0  0  0  0  0  0  0  0  0
  -22.9396  -13.4082   21.3040 C   0  0  0  0  0  0  0  0  0  0  0  0
  -24.9177  -31.6762   23.1637 C   0  0  0  0  0  0  0  0  0  0  0  0
  -23.1021  -32.9838   20.8150 C   0  0  0  0  0  0  0  0  0  0  0  0
  -21.5693  -32.6078   17.7891 C   0  0  0  0  0  0  0  0  0  0  0  0
  -29.9258  -16.9806   20.6192 C   0  0  0  0  0  0  0  0  0  0  0  0
  -27.6995  -33.3440   27.1054 C   0  0  0  0  0  0  0  0  0  0  0  0
  -26.3095  -31.1857   21.1196 C   0  0  0  0  0  0  0  0  0  0  0  0
  -23.4656  -30.4896   20.7040 C   0  0  0  0  0  0  0  0  0  0  0  0
  -26.5070  -33.8699   26.3107 C   0  0  0  0  0  0  0  0  0  0  0  0
  -30.2332  -13.6057   19.9339 C   0  0  0  0  0  0  0  0  0  0  0  0
  -25.4378  -32.7904   26.1753 C   0  0  0  0  0  0  0  0  0  0  0  0
  -28.8782  -13.0277   20.3418 C   0  0  0  0  0  0  0  0  0  0  0  0
  -27.2740  -19.4045   19.7142 C   0  0  0  0  0  0  0  0  0  0  0  0
  -26.8757  -18.5979   22.0679 C   0  0  0  0  0  0  0  0  0  0  0  0
  -30.7051  -14.6515   20.9376 C   0  0  0  0  0  0  0  0  0  0  0  0
  -28.7401  -19.0008   19.8438 C   0  0  0  0  0  0  0  0  0  0  0  0
  -28.3494  -18.2148   22.1550 C   0  0  0  0  0  0  0  0  0  0  0  0
  -28.3754  -15.2063   21.5541 C   0  0  0  0  0  0  0  0  0  0  0  0
  -25.9759  -31.5734   25.4132 C   0  0  1  0  0  0  0  0  0  0  0  0
  -25.1825  -32.0172   21.7245 C   0  0  1  0  0  0  0  0  0  0  0  0
  -26.6576  -19.7487   21.0763 C   0  0  0  0  0  0  0  0  0  0  0  0
  -27.8456  -14.1465   20.5673 C   0  0  2  0  0  0  0  0  0  0  0  0
  -24.3796  -24.5316   17.3077 C   0  0  0  0  0  0  0  0  0  0  0  0
  -23.0305  -20.5450   22.2633 C   0  0  0  0  0  0  0  0  0  0  0  0
  -20.1274  -33.8385   16.1448 C   0  0  0  0  0  0  0  0  0  0  0  0
  -20.6793  -32.5495   22.6182 C   0  0  0  0  0  0  0  0  0  0  0  0
  -19.2154  -32.8913   20.6162 C   0  0  0  0  0  0  0  0  0  0  0  0
  -20.6979  -34.7361   21.4046 C   0  0  0  0  0  0  0  0  0  0  0  0
  -23.6228  -32.4137   15.6667 C   0  0  0  0  0  0  0  0  0  0  0  0
  -23.0267  -19.7583   17.2241 C   0  0  0  0  0  0  0  0  0  0  0  0
  -25.8694  -24.8960   19.8057 C   0  0  0  0  0  0  0  0  0  1  0  0
  -24.5347  -20.3084   22.3224 C   0  0  0  0  0  0  0  0  0  0  0  0
  -25.1717  -20.0702   20.9354 C   0  0  1  0  0  0  0  0  0  0  0  0
  -21.7211  -32.7260   20.2624 C   0  0  1  0  0  0  0  0  0  0  0  0
  -21.5500  -33.4892   16.5533 C   0  0  2  0  0  0  0  0  0  0  0  0
  -20.5985  -33.2055   21.2253 C   0  0  0  0  0  0  0  0  0  0  0  0
  -26.4683  -12.4823   21.7573 N   0  0  0  0  0  0  0  0  0  0  0  0
  -26.5010  -13.5952   21.0047 N   0  0  0  0  0  0  0  0  0  0  0  0
  -23.9154  -31.8582   21.0079 N   0  0  0  0  0  0  0  0  0  0  0  0
  -29.6957  -15.6931   21.1272 N   0  0  0  0  0  0  0  0  0  0  0  0
  -28.9167  -17.9350   20.8292 N   0  0  0  0  0  0  0  0  0  0  0  0
  -25.1194  -15.2207   19.9755 N   0  0  0  0  0  0  0  0  0  0  0  0
  -22.1622  -12.4594   21.9820 N   0  0  0  0  0  0  0  0  0  0  0  0
  -26.0114  -31.8425   23.9917 N   0  0  0  0  0  0  0  0  0  0  0  0
  -21.6854  -33.3510   18.9447 N   0  0  0  0  0  0  0  0  0  0  0  0
  -22.2097  -32.7948   15.4115 N   0  3  0  0  0  0  0  0  0  0  0  0
  -22.3705  -14.3384   20.6840 O   0  0  0  0  0  0  0  0  0  0  0  0
  -23.8032  -31.2922   23.4984 O   0  0  0  0  0  0  0  0  0  0  0  0
  -23.4491  -34.1420   21.0595 O   0  0  0  0  0  0  0  0  0  0  0  0
  -21.4857  -31.3828   17.7350 O   0  0  0  0  0  0  0  0  0  0  0  0
  -30.9660  -17.2618   20.0110 O   0  0  0  0  0  0  0  0  0  0  0  0
  -23.3970   -7.9301   24.9812 O   0  0  0  0  0  0  0  0  0  0  0  0
  -23.7364  -19.8455   18.4580 O   0  0  0  0  0  0  0  0  0  0  0  0
  -24.8179  -25.8480   19.9005 O   0  0  0  0  0  0  0  0  0  1  0  0
  -19.1707   -4.9840   23.0158 F   0  0  0  0  0  0  0  0  0  0  0  0
  -23.6808   -5.2359   24.4302 F   0  0  0  0  0  0  0  0  0  0  0  0
  1  2  1  0  0  0  0
  1  5  2  0  0  0  0
  2  6  2  0  0  0  0
  3  8  2  0  0  0  0
  3 17  1  0  0  0  0
  4  9  1  0  0  0  0
  4 17  2  0  0  0  0
  5 19  1  0  0  0  0
  6 21  1  0  0  0  0
  7 10  2  0  0  0  0
  7 20  1  0  0  0  0
  8 26  1  0  0  0  0
  9 26  2  0  0  0  0
 10 27  1  0  0  0  0
 11 12  2  0  0  0  0
 11 28  1  0  0  0  0
 12 30  1  0  0  0  0
 13 22  1  0  0  0  0
 13 27  2  0  0  0  0
 14 23  2  0  0  0  0
 14 24  1  0  0  0  0
 15 25  2  0  0  0  0
 15 29  1  0  0  0  0
 16 30  2  0  0  0  0
 16 31  1  0  0  0  0
 17 32  1  0  0  0  0
 18 32  1  0  0  0  0
 18 33  2  0  0  0  0
 18 34  1  0  0  0  0
 19 21  2  0  0  0  0
 19 39  1  0  0  0  0
 20 22  2  0  0  0  0
 20 40  1  0  0  0  0
 21 52  1  0  0  0  0
 22 41  1  0  0  0  0
 23 25  1  0  0  0  0
 23 64  1  0  0  0  0
 24 29  2  0  0  0  0
 24 66  1  0  0  0  0
 25 56  1  0  0  0  0
 26 85  1  0  0  0  0
 27 87  1  0  0  0  0
 28 31  2  0  0  0  0
 28 85  1  0  0  0  0
 29 86  1  0  0  0  0
 30 88  1  0  0  0  0
 31 89  1  0  0  0  0
 32 70  2  0  0  0  0
 33 71  1  0  0  0  0
 33 75  1  0  0  0  0
 34 76  1  0  0  0  0
 34 80  2  0  0  0  0
 35 53  1  0  0  0  0
 35 77  1  0  0  0  0
 35 81  2  0  0  0  0
 36 67  1  0  0  0  0
 36 72  1  0  0  0  0
 36 82  2  0  0  0  0
 37 68  1  0  0  0  0
 37 78  1  0  0  0  0
 37 83  2  0  0  0  0
 38 73  1  0  0  0  0
 38 74  1  0  0  0  0
 38 84  2  0  0  0  0
 39 42  1  0  0  0  0
 40 53  1  0  0  0  0
 41 72  1  0  0  0  0
 42 44  1  0  0  0  0
 43 45  1  0  0  0  0
 43 48  1  0  0  0  0
 44 52  1  0  0  0  0
 45 55  1  0  0  0  0
 46 49  1  0  0  0  0
 46 54  1  0  0  0  0
 47 50  1  0  0  0  0
 47 54  1  0  0  0  0
 48 73  1  0  0  0  0
 49 74  1  0  0  0  0
 50 74  1  0  0  0  0
 51 55  1  0  0  0  0
 51 73  1  0  0  0  0
 52 77  1  0  0  0  0
 53 72  1  0  0  0  0
 54 66  1  0  0  0  0
 55 71  1  0  0  0  0
 57 65  1  0  0  0  0
 58 68  1  0  0  0  0
 59 69  1  0  0  0  0
 60 69  1  0  0  0  0
 61 69  1  0  0  0  0
 62 79  1  0  0  0  0
 63 86  1  0  0  0  0
 64 87  1  0  0  0  0
 65 66  1  0  0  0  0
 67 69  1  0  0  0  0
 67 78  1  0  0  0  0
 68 79  1  0  0  0  0
 70 71  1  0  0  0  0
M  CHG  1  79   1
M  ISO  4  38 100  64 101  74 100  87 101
M  END
> <Batch ID>
0155

> <Smiles>
CCC(c1cc([101CH2:1][101O:1]c2ccc3c(c2)CN(C(=O)C(NC(=O)C(C)NC)C(C)(C)C)C(C(=O)NC2CCCc4ccccc42)C3)c(C)cc1OC)C1CC[100N:0]([100C:0](=O)N2CCCC(n3nc(-c4ccc(Oc5ccc(F)cc5F)cc4)c(C(N)=O)c3N)C2)CC1

> <Shape>
0.258

> <Color>
0.128

> <Negative vol penalty>
0.000

$$$$

  -OEChem-04052321543D

 86 95  0     1  0  0  0  0  0999 V2000
  -28.3502  -33.5710   26.0130 C   0  0  0  0  0  0  0  0  0  0  0  0
  -28.3838  -32.3135   25.4188 C   0  0  0  0  0  0  0  0  0  0  0  0
  -25.3041   -9.9178   23.0234 C   0  0  0  0  0  0  0  0  0  0  0  0
  -24.0672   -9.0704   21.1289 C   0  0  0  0  0  0  0  0  0  0  0  0
  -27.1257  -34.1816   26.2810 C   0  0  0  0  0  0  0  0  0  0  0  0
  -27.1929  -31.6654   25.0934 C   0  0  0  0  0  0  0  0  0  0  0  0
  -27.3090  -29.5917   20.4748 C   0  0  0  0  0  0  0  0  0  0  0  0
  -30.0012  -23.8273   20.9670 C   0  0  0  0  0  0  0  0  0  0  0  0
  -30.5198  -22.5436   20.7975 C   0  0  0  0  0  0  0  0  0  0  0  0
  -24.4064   -9.2930   23.8890 C   0  0  0  0  0  0  0  0  0  0  0  0
  -23.1695   -8.4455   21.9946 C   0  0  0  0  0  0  0  0  0  0  0  0
  -27.9950  -28.3859   20.3353 C   0  0  0  0  0  0  0  0  0  0  0  0
  -23.0711   -5.6432   23.8808 C   0  0  0  0  0  0  0  0  0  0  0  0
  -22.7055   -4.3280   23.5941 C   0  0  0  0  0  0  0  0  0  0  0  0
  -25.9003  -27.1921   20.4146 C   0  0  0  0  0  0  0  0  0  0  0  0
  -30.3855  -24.2916   18.6274 C   0  0  0  0  0  0  0  0  0  0  0  0
  -20.3944   -5.0093   23.4159 C   0  0  0  0  0  0  0  0  0  0  0  0
  -25.1345   -9.8065   21.6433 C   0  0  0  0  0  0  0  0  0  0  0  0
  -27.2467   -9.9105   20.2166 C   0  0  0  0  0  0  0  0  0  0  0  0
  -25.9193  -33.5448   25.9498 C   0  0  0  0  0  0  0  0  0  0  0  0
  -25.9121  -29.6059   20.5964 C   0  0  0  0  0  0  0  0  0  0  0  0
  -25.9511  -32.2674   25.3584 C   0  0  0  0  0  0  0  0  0  0  0  0
  -25.1988  -28.3995   20.5530 C   0  0  0  0  0  0  0  0  0  0  0  0
  -29.9340  -24.7013   19.8819 C   0  0  0  0  0  0  0  0  0  0  0  0
  -30.9713  -22.1339   19.5429 C   0  0  0  0  0  0  0  0  0  0  0  0
  -23.3391   -8.5569   23.3746 C   0  0  0  0  0  0  0  0  0  0  0  0
  -27.2908  -27.1857   20.3081 C   0  0  0  0  0  0  0  0  0  0  0  0
  -22.0984   -6.6415   23.9351 C   0  0  0  0  0  0  0  0  0  0  0  0
  -30.9041  -23.0079   18.4578 C   0  0  0  0  0  0  0  0  0  0  0  0
  -21.3672   -4.0111   23.3617 C   0  0  0  0  0  0  0  0  0  0  0  0
  -20.7600   -6.3245   23.7026 C   0  0  0  0  0  0  0  0  0  0  0  0
  -26.0612  -10.4522   20.7486 C   0  0  0  0  0  0  0  0  0  0  0  0
  -27.7604  -10.9136   19.4315 C   0  0  0  0  0  0  0  0  0  0  0  0
  -27.8313   -8.6164   20.4144 C   0  0  0  0  0  0  0  0  0  0  0  0
  -23.8651  -30.5526   22.8363 C   0  0  0  0  0  0  0  0  0  0  0  0
  -21.6577  -29.8448   20.5672 C   0  0  0  0  0  0  0  0  0  0  0  0
  -20.8520  -28.0793   17.7600 C   0  0  0  0  0  0  0  0  0  0  0  0
  -29.1033  -16.0232   18.4781 C   0  0  0  0  0  0  0  0  0  0  0  0
  -24.6195  -34.2238   26.3020 C   0  0  0  0  0  0  0  0  0  0  0  0
  -25.1849  -30.9168   20.7194 C   0  0  0  0  0  0  0  0  0  0  0  0
  -23.6969  -28.3620   20.6593 C   0  0  0  0  0  0  0  0  0  0  0  0
  -23.4092  -33.6322   25.5841 C   0  0  0  0  0  0  0  0  0  0  0  0
  -25.7235  -15.2695   17.8842 C   0  0  0  0  0  0  0  0  0  0  0  0
  -23.4352  -32.1089   25.6604 C   0  0  0  0  0  0  0  0  0  0  0  0
  -25.6001  -13.8940   18.5390 C   0  0  0  0  0  0  0  0  0  0  0  0
  -26.5872  -16.2231   18.7116 C   0  0  0  0  0  0  0  0  0  0  0  0
  -28.5049  -18.4633   18.8134 C   0  0  0  0  0  0  0  0  0  0  0  0
  -30.3126  -17.8113   17.2658 C   0  0  0  0  0  0  0  0  0  0  0  0
  -27.8007  -14.3084   19.7017 C   0  0  0  0  0  0  0  0  0  0  0  0
  -29.4760  -19.3457   19.5911 C   0  0  0  0  0  0  0  0  0  0  0  0
  -31.3136  -18.6608   18.0319 C   0  0  0  0  0  0  0  0  0  0  0  0
  -24.6810  -31.5431   24.9680 C   0  0  1  0  0  0  0  0  0  0  0  0
  -23.8037  -30.7769   21.3519 C   0  0  1  0  0  0  0  0  0  0  0  0
  -26.9867  -13.3105   18.8636 C   0  0  1  0  0  0  0  0  0  0  0  0
  -18.9617  -27.6807   16.1584 C   0  0  0  0  0  0  0  0  0  0  0  0
  -20.2798  -28.0768   22.6373 C   0  0  0  0  0  0  0  0  0  0  0  0
  -19.0098  -26.9983   20.7686 C   0  0  0  0  0  0  0  0  0  0  0  0
  -18.7255  -29.4343   21.2245 C   0  0  0  0  0  0  0  0  0  0  0  0
  -22.4214  -29.1067   15.4708 C   0  0  0  0  0  0  0  0  0  0  0  0
  -31.2340  -23.5801   16.1732 C   0  0  0  0  0  0  0  0  0  0  0  0
  -31.5273  -20.7500   19.3796 C   0  0  0  0  0  0  0  0  0  0  0  0
  -29.3788  -26.0736   20.0636 C   0  0  0  0  0  0  0  0  0  1  0  0
  -20.8772  -28.6111   20.1830 C   0  0  1  0  0  0  0  0  0  0  0  0
  -20.2057  -28.5041   16.4538 C   0  0  2  0  0  0  0  0  0  0  0  0
  -19.7515  -28.2804   21.2033 C   0  0  0  0  0  0  0  0  0  0  0  0
  -25.8351  -11.7023   20.3364 N   0  0  0  0  0  0  0  0  0  0  0  0
  -26.8856  -11.9547   19.5371 N   0  0  0  0  0  0  0  0  0  0  0  0
  -23.0317  -29.6695   20.7844 N   0  0  0  0  0  0  0  0  0  0  0  0
  -27.8829  -15.6077   19.0312 N   0  0  0  0  0  0  0  0  0  0  0  0
  -29.2160  -17.3771   18.1285 N   0  0  0  0  0  0  0  0  0  0  0  0
  -28.8705  -10.9979   18.6680 N   0  0  0  0  0  0  0  0  0  0  0  0
  -27.1724   -7.7066   21.2526 N   0  0  0  0  0  0  0  0  0  0  0  0
  -24.5110  -31.5576   23.5309 N   0  0  0  0  0  0  0  0  0  0  0  0
  -20.4028  -28.8356   18.8218 N   0  0  0  0  0  0  0  0  0  0  0  0
  -30.5828  -19.8149   18.6776 N   0  3  0  0  0  0  0  0  0  0  0  0
  -21.1617  -28.3333   15.3233 N   0  3  0  0  0  0  0  0  0  0  0  0
  -28.9146   -8.2827   19.8772 O   0  0  0  0  0  0  0  0  0  0  0  0
  -23.3623  -29.5434   23.3162 O   0  0  0  0  0  0  0  0  0  0  0  0
  -21.0712  -30.9257   20.6639 O   0  0  0  0  0  0  0  0  0  0  0  0
  -21.6705  -27.1653   17.8319 O   0  0  0  0  0  0  0  0  0  0  0  0
  -30.0382  -15.2307   18.3071 O   0  0  0  0  0  0  0  0  0  0  0  0
  -22.4631   -7.9469   24.2190 O   0  0  0  0  0  0  0  0  0  0  0  0
  -31.3397  -22.6233   17.2255 O   0  0  0  0  0  0  0  0  0  0  0  0
  -27.9625  -25.9992   20.1718 O   0  0  0  0  0  0  0  0  0  1  0  0
  -21.0164   -2.7483   23.0849 F   0  0  0  0  0  0  0  0  0  0  0  0
  -19.8212   -7.2795   23.7523 F   0  0  0  0  0  0  0  0  0  0  0  0
  1  2  1  0  0  0  0
  1  5  2  0  0  0  0
  2  6  2  0  0  0  0
  3 10  2  0  0  0  0
  3 18  1  0  0  0  0
  4 11  1  0  0  0  0
  4 18  2  0  0  0  0
  5 20  1  0  0  0  0
  6 22  1  0  0  0  0
  7 12  2  0  0  0  0
  7 21  1  0  0  0  0
  8  9  2  0  0  0  0
  8 24  1  0  0  0  0
  9 25  1  0  0  0  0
 10 26  1  0  0  0  0
 11 26  2  0  0  0  0
 12 27  1  0  0  0  0
 13 14  2  0  0  0  0
 13 28  1  0  0  0  0
 14 30  1  0  0  0  0
 15 23  1  0  0  0  0
 15 27  2  0  0  0  0
 16 24  2  0  0  0  0
 16 29  1  0  0  0  0
 17 30  2  0  0  0  0
 17 31  1  0  0  0  0
 18 32  1  0  0  0  0
 19 32  1  0  0  0  0
 19 33  2  0  0  0  0
 19 34  1  0  0  0  0
 20 22  2  0  0  0  0
 20 39  1  0  0  0  0
 21 23  2  0  0  0  0
 21 40  1  0  0  0  0
 22 52  1  0  0  0  0
 23 41  1  0  0  0  0
 24 62  1  0  0  0  0
 25 29  2  0  0  0  0
 25 61  1  0  0  0  0
 26 82  1  0  0  0  0
 27 84  1  0  0  0  0
 28 31  2  0  0  0  0
 28 82  1  0  0  0  0
 29 83  1  0  0  0  0
 30 85  1  0  0  0  0
 31 86  1  0  0  0  0
 32 66  2  0  0  0  0
 33 67  1  0  0  0  0
 33 71  1  0  0  0  0
 34 72  1  0  0  0  0
 34 77  2  0  0  0  0
 35 53  1  0  0  0  0
 35 73  1  0  0  0  0
 35 78  2  0  0  0  0
 36 63  1  0  0  0  0
 36 68  1  0  0  0  0
 36 79  2  0  0  0  0
 37 64  1  0  0  0  0
 37 74  1  0  0  0  0
 37 80  2  0  0  0  0
 38 69  1  0  0  0  0
 38 70  1  0  0  0  0
 38 81  2  0  0  0  0
 39 42  1  0  0  0  0
 40 53  1  0  0  0  0
 41 68  1  0  0  0  0
 42 44  1  0  0  0  0
 43 45  1  0  0  0  0
 43 46  1  0  0  0  0
 44 52  1  0  0  0  0
 45 54  1  0  0  0  0
 46 69  1  0  0  0  0
 47 50  1  0  0  0  0
 47 70  1  0  0  0  0
 48 51  1  0  0  0  0
 48 70  1  0  0  0  0
 49 54  1  0  0  0  0
 49 69  1  0  0  0  0
 50 75  1  0  0  0  0
 51 75  1  0  0  0  0
 52 73  1  0  0  0  0
 53 68  1  0  0  0  0
 54 67  1  0  0  0  0
 55 64  1  0  0  0  0
 56 65  1  0  0  0  0
 57 65  1  0  0  0  0
 58 65  1  0  0  0  0
 59 76  1  0  0  0  0
 60 83  1  0  0  0  0
 61 75  1  0  0  0  0
 62 84  1  0  0  0  0
 63 65  1  0  0  0  0
 63 74  1  0  0  0  0
 64 76  1  0  0  0  0
 66 67  1  0  0  0  0
M  CHG  2  75   1  76   1
M  ISO  4  38 100  62 101  70 100  84 101
M  END
> <Batch ID>
0155

> <Smiles>
CNC(C)C(=O)NC(C(=O)N1Cc2cc([101O:1][101CH2:1]c3ccc(CN4CC[100N:0]([100C:0](=O)N5CCCC(n6nc(-c7ccc(Oc8ccc(F)cc8F)cc7)c(C(N)=O)c6N)C5)CC4)c(OC)c3)ccc2CC1C(=O)NC1CCCc2ccccc21)C(C)(C)C

> <Shape>
0.306

> <Color>
0.083

> <Negative vol penalty>
0.000

$$$$

  -OEChem-04052321543D

 88 98  0     1  0  0  0  0  0999 V2000
  -29.1279  -26.7493    5.4449 C   0  0  0  0  0  0  0  0  0  0  0  0
  -28.7257  -25.5328    5.9868 C   0  0  0  0  0  0  0  0  0  0  0  0
  -23.2056   -9.8106   19.9226 C   0  0  0  0  0  0  0  0  0  0  0  0
  -23.5255  -10.0039   22.3096 C   0  0  0  0  0  0  0  0  0  0  0  0
  -30.2581  -27.3945    5.9452 C   0  0  0  0  0  0  0  0  0  0  0  0
  -29.4542  -24.9601    7.0288 C   0  0  0  0  0  0  0  0  0  0  0  0
  -32.0220  -15.3577   12.9409 C   0  0  0  0  0  0  0  0  0  0  0  0
  -26.4864  -23.1876   10.7295 C   0  0  0  0  0  0  0  0  0  0  0  0
  -32.7991  -15.3842   11.7829 C   0  0  0  0  0  0  0  0  0  0  0  0
  -22.4311   -8.6674   20.1190 C   0  0  0  0  0  0  0  0  0  0  0  0
  -22.7509   -8.8606   22.5059 C   0  0  0  0  0  0  0  0  0  0  0  0
  -25.8548  -21.9645   10.5085 C   0  0  0  0  0  0  0  0  0  0  0  0
  -23.1485   -5.5113   22.2712 C   0  0  0  0  0  0  0  0  0  0  0  0
  -23.6221   -4.5538   23.1680 C   0  0  0  0  0  0  0  0  0  0  0  0
  -27.5401  -20.8613   11.8358 C   0  0  0  0  0  0  0  0  0  0  0  0
  -31.0332  -16.5576   10.6246 C   0  0  0  0  0  0  0  0  0  0  0  0
  -21.6325   -4.8274   24.5110 C   0  0  0  0  0  0  0  0  0  0  0  0
  -23.7529  -10.4789   21.0179 C   0  0  0  0  0  0  0  0  0  0  0  0
  -24.1050  -12.9931   20.7681 C   0  0  0  0  0  0  0  0  0  0  0  0
  -30.9953  -26.8342    7.0003 C   0  0  0  0  0  0  0  0  0  0  0  0
  -27.6576  -23.2554   11.4976 C   0  0  0  0  0  0  0  0  0  0  0  0
  -30.5961  -25.5977    7.5429 C   0  0  0  0  0  0  0  0  0  0  0  0
  -30.7503  -15.9311   12.9407 C   0  0  0  0  0  0  0  0  0  0  0  0
  -28.1832  -22.0869   12.0673 C   0  0  0  0  0  0  0  0  0  0  0  0
  -32.3048  -15.9842   10.6248 C   0  0  0  0  0  0  0  0  0  0  0  0
  -22.2036   -8.1924   21.4106 C   0  0  0  0  0  0  0  0  0  0  0  0
  -26.3833  -20.8007   11.0592 C   0  0  0  0  0  0  0  0  0  0  0  0
  -21.9168   -6.1270   22.4943 C   0  0  0  0  0  0  0  0  0  0  0  0
  -30.2560  -16.5310   11.7825 C   0  0  0  0  0  0  0  0  0  0  0  0
  -22.8641   -4.2118   24.2879 C   0  0  0  0  0  0  0  0  0  0  0  0
  -21.1588   -5.7850   23.6141 C   0  0  0  0  0  0  0  0  0  0  0  0
  -24.5536  -11.6596   20.8157 C   0  0  0  0  0  0  0  0  0  0  0  0
  -25.2438  -13.7312   20.5566 C   0  0  0  0  0  0  0  0  0  0  0  0
  -22.7775  -13.5177   20.9031 C   0  0  0  0  0  0  0  0  0  0  0  0
  -30.6580  -24.1437   10.9392 C   0  0  0  0  0  0  0  0  0  0  0  0
  -30.9779  -23.6825   14.1341 C   0  0  0  0  0  0  0  0  0  0  0  0
  -29.8584  -22.1401   16.9651 C   0  0  0  0  0  0  0  0  0  0  0  0
  -30.0628  -14.6425   18.1136 C   0  0  0  0  0  0  0  0  0  0  0  0
  -32.2372  -27.5454    7.4762 C   0  0  0  0  0  0  0  0  0  0  0  0
  -28.3119  -24.5862   11.7489 C   0  0  0  0  0  0  0  0  0  0  0  0
  -29.4270  -22.1086   12.9164 C   0  0  0  0  0  0  0  0  0  0  0  0
  -32.7378  -27.0554    8.8325 C   0  0  0  0  0  0  0  0  0  0  0  0
  -30.1162  -12.4153   20.7565 C   0  0  0  0  0  0  0  0  0  0  0  0
  -32.7559  -25.5308    8.8759 C   0  0  0  0  0  0  0  0  0  0  0  0
  -28.6384  -12.1223   21.0147 C   0  0  0  0  0  0  0  0  0  0  0  0
  -29.5907  -14.4527   14.6411 C   0  0  0  0  0  0  0  0  0  0  0  0
  -30.5892  -16.6650   15.3611 C   0  0  0  0  0  0  0  0  0  0  0  0
  -25.7597  -17.2949    9.8613 C   0  0  0  0  0  0  0  0  0  0  0  0
  -30.4074  -12.4759   19.2615 C   0  0  0  0  0  0  0  0  0  0  0  0
  -28.7798  -14.4210   15.9398 C   0  0  0  0  0  0  0  0  0  0  0  0
  -29.7383  -16.5944   16.6258 C   0  0  0  0  0  0  0  0  0  0  0  0
  -28.0906  -13.1908   18.7722 C   0  0  0  0  0  0  0  0  0  0  0  0
  -29.9196  -15.8932   14.2096 C   0  0  0  0  0  0  0  0  0  0  0  0
  -31.3460  -24.9569    8.6906 C   0  0  1  0  0  0  0  0  0  0  0  0
  -29.7868  -24.4664   12.1201 C   0  0  1  0  0  0  0  0  0  0  0  0
  -26.7644  -17.3078   10.9800 C   0  0  2  0  0  0  0  0  0  0  0  0
  -27.7378  -13.1253   20.2721 C   0  0  1  0  0  0  0  0  0  0  0  0
  -26.5124  -18.5580   10.1805 C   0  0  2  0  0  0  0  0  0  1  0  0
  -33.1357  -16.0120    9.3866 C   0  0  0  0  0  0  0  0  0  0  0  0
  -30.3454  -21.9299   19.4178 C   0  0  0  0  0  0  0  0  0  0  0  0
  -33.3325  -21.8461   13.5067 C   0  0  0  0  0  0  0  0  0  0  0  0
  -33.1632  -20.9481   15.8376 C   0  0  0  0  0  0  0  0  0  0  0  0
  -33.6831  -23.3595   15.4666 C   0  0  0  0  0  0  0  0  0  0  0  0
  -27.2135  -23.2440   17.7031 C   0  0  0  0  0  0  0  0  0  0  0  0
  -28.0748  -16.5637   10.8354 C   0  0  0  0  0  0  0  0  0  0  0  0
  -31.3446  -22.5118   15.0138 C   0  0  1  0  0  0  0  0  0  0  0  0
  -29.5576  -22.6769   18.3528 C   0  0  2  0  0  0  0  0  0  0  0  0
  -32.8585  -22.1654   14.9386 C   0  0  0  0  0  0  0  0  0  0  0  0
  -25.8745  -11.5536   20.6478 N   0  0  0  0  0  0  0  0  0  0  0  0
  -26.2655  -12.8300   20.4925 N   0  0  0  0  0  0  0  0  0  0  0  0
  -30.0338  -23.4332   13.1279 N   0  0  0  0  0  0  0  0  0  0  0  0
  -29.5300  -13.4360   18.5921 N   0  0  0  0  0  0  0  0  0  0  0  0
  -29.4462  -15.2075   16.9871 N   0  0  0  0  0  0  0  0  0  0  0  0
  -25.4609  -15.0566   20.4209 N   0  0  0  0  0  0  0  0  0  0  0  0
  -21.7227  -12.6198   21.1164 N   0  0  0  0  0  0  0  0  0  0  0  0
  -30.5881  -25.0721    9.9180 N   0  0  0  0  0  0  0  0  0  0  0  0
  -30.8737  -22.8449   16.3539 N   0  0  0  0  0  0  0  0  0  0  0  0
  -28.1056  -22.5380   18.6584 N   0  3  0  0  0  0  0  0  0  0  0  0
  -22.5317  -14.7450   20.8201 O   0  0  0  0  0  0  0  0  0  0  0  0
  -31.3442  -23.1285   10.9541 O   0  0  0  0  0  0  0  0  0  0  0  0
  -31.5042  -24.7796   14.3368 O   0  0  0  0  0  0  0  0  0  0  0  0
  -29.2557  -21.1883   16.4739 O   0  0  0  0  0  0  0  0  0  0  0  0
  -31.0317  -15.1841   18.6605 O   0  0  0  0  0  0  0  0  0  0  0  0
  -21.4476   -7.0769   21.6026 O   0  0  0  0  0  0  0  0  0  0  0  0
  -25.7602  -19.5879   10.8414 O   0  0  0  0  0  0  0  0  0  1  0  0
  -29.0161  -17.0955   11.7655 O   0  0  0  0  0  0  0  0  0  0  0  0
  -23.3184   -3.2911   25.1482 F   0  0  0  0  0  0  0  0  0  0  0  0
  -19.9743   -6.3722   23.8331 F   0  0  0  0  0  0  0  0  0  0  0  0
  1  2  1  0  0  0  0
  1  5  2  0  0  0  0
  2  6  2  0  0  0  0
  3 10  2  0  0  0  0
  3 18  1  0  0  0  0
  4 11  1  0  0  0  0
  4 18  2  0  0  0  0
  5 20  1  0  0  0  0
  6 22  1  0  0  0  0
  7  9  2  0  0  0  0
  7 23  1  0  0  0  0
  8 12  2  0  0  0  0
  8 21  1  0  0  0  0
  9 25  1  0  0  0  0
 10 26  1  0  0  0  0
 11 26  2  0  0  0  0
 12 27  1  0  0  0  0
 13 14  2  0  0  0  0
 13 28  1  0  0  0  0
 14 30  1  0  0  0  0
 15 24  1  0  0  0  0
 15 27  2  0  0  0  0
 16 25  2  0  0  0  0
 16 29  1  0  0  0  0
 17 30  2  0  0  0  0
 17 31  1  0  0  0  0
 18 32  1  0  0  0  0
 19 32  1  0  0  0  0
 19 33  2  0  0  0  0
 19 34  1  0  0  0  0
 20 22  2  0  0  0  0
 20 39  1  0  0  0  0
 21 24  2  0  0  0  0
 21 40  1  0  0  0  0
 22 54  1  0  0  0  0
 23 29  2  0  0  0  0
 23 53  1  0  0  0  0
 24 41  1  0  0  0  0
 25 59  1  0  0  0  0
 26 84  1  0  0  0  0
 27 85  1  0  0  0  0
 28 31  2  0  0  0  0
 28 84  1  0  0  0  0
 29 86  1  0  0  0  0
 30 87  1  0  0  0  0
 31 88  1  0  0  0  0
 32 69  2  0  0  0  0
 33 70  1  0  0  0  0
 33 74  1  0  0  0  0
 34 75  1  0  0  0  0
 34 79  2  0  0  0  0
 35 55  1  0  0  0  0
 35 76  1  0  0  0  0
 35 80  2  0  0  0  0
 36 66  1  0  0  0  0
 36 71  1  0  0  0  0
 36 81  2  0  0  0  0
 37 67  1  0  0  0  0
 37 77  1  0  0  0  0
 37 82  2  0  0  0  0
 38 72  1  0  0  0  0
 38 73  1  0  0  0  0
 38 83  2  0  0  0  0
 39 42  1  0  0  0  0
 40 55  1  0  0  0  0
 41 71  1  0  0  0  0
 42 44  1  0  0  0  0
 43 45  1  0  0  0  0
 43 49  1  0  0  0  0
 44 54  1  0  0  0  0
 45 57  1  0  0  0  0
 46 50  1  0  0  0  0
 46 53  1  0  0  0  0
 47 51  1  0  0  0  0
 47 53  1  0  0  0  0
 48 56  1  0  0  0  0
 48 58  1  0  0  0  0
 49 72  1  0  0  0  0
 50 73  1  0  0  0  0
 51 73  1  0  0  0  0
 52 57  1  0  0  0  0
 52 72  1  0  0  0  0
 54 76  1  0  0  0  0
 55 71  1  0  0  0  0
 56 58  1  0  0  0  0
 56 65  1  0  0  0  0
 57 70  1  0  0  0  0
 58 85  1  0  0  0  0
 60 67  1  0  0  0  0
 61 68  1  0  0  0  0
 62 68  1  0  0  0  0
 63 68  1  0  0  0  0
 64 78  1  0  0  0  0
 65 86  1  0  0  0  0
 66 68  1  0  0  0  0
 66 77  1  0  0  0  0
 67 78  1  0  0  0  0
 69 70  1  0  0  0  0
M  CHG  1  78   1
M  ISO  4  38 100  58 101  73 100  85 101
M  END
> <Batch ID>
0155

> <Smiles>
CNC(C)C(=O)NC(C(=O)N1Cc2cc([101O:1][101CH:1]3CC3COc3cc(C)ccc3C3CC[100N:0]([100C:0](=O)N4CCCC(n5nc(-c6ccc(Oc7ccc(F)cc7F)cc6)c(C(N)=O)c5N)C4)CC3)ccc2CC1C(=O)NC1CCCc2ccccc21)C(C)(C)C

> <Shape>
0.157

> <Color>
0.187

> <Negative vol penalty>
0.000

$$$$

  -OEChem-04052321543D

 89 98  0     1  0  0  0  0  0999 V2000
  -17.0561  -27.3354   22.6735 C   0  0  0  0  0  0  0  0  0  0  0  0
  -17.6824  -27.7654   21.5080 C   0  0  0  0  0  0  0  0  0  0  0  0
  -25.6583  -19.0339   20.5864 C   0  0  0  0  0  0  0  0  0  0  0  0
  -27.5397  -17.6039   20.0834 C   0  0  0  0  0  0  0  0  0  0  0  0
  -17.5437  -27.7398   23.9155 C   0  0  0  0  0  0  0  0  0  0  0  0
  -18.7961  -28.6010   21.5839 C   0  0  0  0  0  0  0  0  0  0  0  0
  -25.9698  -27.6534   18.6397 C   0  0  0  0  0  0  0  0  0  0  0  0
  -25.0373  -17.9807   21.2577 C   0  0  0  0  0  0  0  0  0  0  0  0
  -26.9186  -16.5507   20.7549 C   0  0  0  0  0  0  0  0  0  0  0  0
  -27.3177  -27.5264   18.3034 C   0  0  0  0  0  0  0  0  0  0  0  0
  -24.4704  -14.3020   20.1385 C   0  0  0  0  0  0  0  0  0  0  0  0
  -24.4743  -13.0497   19.5242 C   0  0  0  0  0  0  0  0  0  0  0  0
  -33.8545  -25.4827   16.6517 C   0  0  0  0  0  0  0  0  0  0  0  0
  -27.9250  -28.9664   20.1488 C   0  0  0  0  0  0  0  0  0  0  0  0
  -35.4404  -24.0351   18.4327 C   0  0  0  0  0  0  0  0  0  0  0  0
  -25.6719  -12.1286   21.4095 C   0  0  0  0  0  0  0  0  0  0  0  0
  -26.9095  -18.8455   19.9992 C   0  0  0  0  0  0  0  0  0  0  0  0
  -27.9228  -21.1812   19.8394 C   0  0  0  0  0  0  0  0  0  0  0  0
  -18.6698  -28.5730   24.0068 C   0  0  0  0  0  0  0  0  0  0  0  0
  -25.5950  -28.4260   19.7426 C   0  0  0  0  0  0  0  0  0  0  0  0
  -19.2985  -29.0181   22.8282 C   0  0  0  0  0  0  0  0  0  0  0  0
  -34.3267  -26.0885   17.8160 C   0  0  0  0  0  0  0  0  0  0  0  0
  -26.5773  -29.0872   20.4981 C   0  0  0  0  0  0  0  0  0  0  0  0
  -34.1751  -24.1531   16.3779 C   0  0  0  0  0  0  0  0  0  0  0  0
  -35.1197  -25.3648   18.7064 C   0  0  0  0  0  0  0  0  0  0  0  0
  -34.9681  -23.4293   17.2684 C   0  0  0  0  0  0  0  0  0  0  0  0
  -25.6674  -16.7392   21.3420 C   0  0  0  0  0  0  0  0  0  0  0  0
  -28.2928  -28.1814   19.0559 C   0  0  0  0  0  0  0  0  0  0  0  0
  -25.0673  -14.4676   21.3883 C   0  0  0  0  0  0  0  0  0  0  0  0
  -25.0751  -11.9630   20.1597 C   0  0  0  0  0  0  0  0  0  0  0  0
  -25.6680  -13.3809   22.0238 C   0  0  0  0  0  0  0  0  0  0  0  0
  -27.5513  -19.9328   19.3050 C   0  0  0  0  0  0  0  0  0  0  0  0
  -28.4908  -21.8513   18.7835 C   0  0  0  0  0  0  0  0  0  0  0  0
  -27.7682  -21.6895   21.1710 C   0  0  0  0  0  0  0  0  0  0  0  0
  -22.8047  -29.7152   21.8938 C   0  0  0  0  0  0  0  0  0  0  0  0
  -25.1097  -28.9704   23.7760 C   0  0  0  0  0  0  0  0  0  0  0  0
  -27.7147  -27.6381   25.5299 C   0  0  0  0  0  0  0  0  0  0  0  0
  -31.8831  -21.9711   14.3537 C   0  0  0  0  0  0  0  0  0  0  0  0
  -19.1318  -29.0221   25.3705 C   0  0  0  0  0  0  0  0  0  0  0  0
  -24.1506  -28.6407   20.1047 C   0  0  0  0  0  0  0  0  0  0  0  0
  -26.1251  -29.9356   21.6551 C   0  0  0  0  0  0  0  0  0  0  0  0
  -20.5428  -29.6048   25.3742 C   0  0  0  0  0  0  0  0  0  0  0  0
  -28.5776  -20.7487   13.8476 C   0  0  0  0  0  0  0  0  0  0  0  0
  -20.7147  -30.5945   24.2263 C   0  0  0  0  0  0  0  0  0  0  0  0
  -28.0494  -20.5247   15.2656 C   0  0  0  0  0  0  0  0  0  0  0  0
  -30.0623  -20.4084   13.7382 C   0  0  0  0  0  0  0  0  0  0  0  0
  -30.3997  -20.8669   16.1360 C   0  0  0  0  0  0  0  0  0  0  0  0
  -34.4734  -28.4969   17.0149 C   0  0  0  0  0  0  0  0  0  0  0  0
  -32.4294  -29.3401   18.0621 C   0  0  0  0  0  0  0  0  0  0  0  0
  -33.9668  -27.5303   18.0908 C   0  0  1  0  0  0  0  0  0  0  0  0
  -20.5240  -29.9049   22.8700 C   0  0  1  0  0  0  0  0  0  0  0  0
  -23.9183  -28.7468   21.6226 C   0  0  1  0  0  0  0  0  0  0  0  0
  -32.4611  -27.8226   18.1659 C   0  0  1  0  0  0  0  0  0  0  0  0
  -28.9200  -21.2499   16.3094 C   0  0  2  0  0  0  0  0  0  0  0  0
  -35.6373  -25.9925   19.9589 C   0  0  0  0  0  0  0  0  0  0  0  0
  -35.3237  -22.0044   16.9968 C   0  0  0  0  0  0  0  0  0  0  0  0
  -28.5290  -27.2747   27.8756 C   0  0  0  0  0  0  0  0  0  0  0  0
  -31.4484  -25.8394   19.3087 C   0  0  0  0  0  0  0  0  0  0  0  0
  -25.8826  -31.9154   23.9601 C   0  0  0  0  0  0  0  0  0  0  0  0
  -27.4723  -31.3101   25.7971 C   0  0  0  0  0  0  0  0  0  0  0  0
  -25.0251  -30.9263   26.0910 C   0  0  0  0  0  0  0  0  0  0  0  0
  -34.0708  -30.9961   17.1084 C   0  0  0  0  0  0  0  0  0  0  0  0
  -27.7219  -24.6976   25.1955 C   0  0  0  0  0  0  0  0  0  0  0  0
  -33.6573  -23.5254   15.1256 C   0  0  0  0  0  0  0  0  0  0  0  0
  -30.5557  -28.1378   19.7872 C   0  0  0  0  0  0  0  0  0  1  0  0
  -26.3339  -29.4363   24.5228 C   0  0  1  0  0  0  0  0  0  0  0  0
  -27.7516  -26.6837   26.7098 C   0  0  2  0  0  0  0  0  0  0  0  0
  -31.8026  -27.3189   19.4422 C   0  0  2  0  0  0  0  0  0  0  0  0
  -26.1805  -30.8846   25.0672 C   0  0  0  0  0  0  0  0  0  0  0  0
  -27.8575  -19.8144   18.0103 N   0  0  0  0  0  0  0  0  0  0  0  0
  -28.4272  -20.9970   17.7222 N   0  0  0  0  0  0  0  0  0  0  0  0
  -25.0652  -29.2414   22.4030 N   0  0  0  0  0  0  0  0  0  0  0  0
  -30.8321  -21.1298   14.7545 N   0  0  0  0  0  0  0  0  0  0  0  0
  -29.0334  -23.0821   18.6687 N   0  0  0  0  0  0  0  0  0  0  0  0
  -28.7992  -21.4686   22.0944 N   0  0  0  0  0  0  0  0  0  0  0  0
  -21.7073  -29.1509   22.5156 N   0  0  0  0  0  0  0  0  0  0  0  0
  -26.5896  -28.4349   25.5525 N   0  0  0  0  0  0  0  0  0  0  0  0
  -32.5571  -22.6222   15.3797 N   0  0  0  0  0  0  0  0  0  0  0  0
  -33.4655  -29.6336   17.0015 N   0  3  1  0  0  0  0  0  0  0  0  0
  -28.3975  -25.3993   26.3171 N   0  3  0  0  0  0  0  0  0  0  0  0
  -26.7390  -22.3067   21.5361 O   0  0  0  0  0  0  0  0  0  0  0  0
  -22.9312  -30.8889   21.5650 O   0  0  0  0  0  0  0  0  0  0  0  0
  -24.2133  -28.3869   24.3917 O   0  0  0  0  0  0  0  0  0  0  0  0
  -28.5977  -27.6759   24.6758 O   0  0  0  0  0  0  0  0  0  0  0  0
  -32.1941  -22.1344   13.1690 O   0  0  0  0  0  0  0  0  0  0  0  0
  -25.0618  -15.7113   21.9972 O   0  0  0  0  0  0  0  0  0  0  0  0
  -29.6072  -28.0495   18.7247 O   0  0  0  0  0  0  0  0  0  1  0  0
  -25.0775  -10.7602   19.5703 F   0  0  0  0  0  0  0  0  0  0  0  0
  -26.2420  -13.5337   23.2251 F   0  0  0  0  0  0  0  0  0  0  0  0
  1  2  1  0  0  0  0
  1  5  2  0  0  0  0
  2  6  2  0  0  0  0
  3  8  2  0  0  0  0
  3 17  1  0  0  0  0
  4  9  1  0  0  0  0
  4 17  2  0  0  0  0
  5 19  1  0  0  0  0
  6 21  1  0  0  0  0
  7 10  2  0  0  0  0
  7 20  1  0  0  0  0
  8 27  1  0  0  0  0
  9 27  2  0  0  0  0
 10 28  1  0  0  0  0
 11 12  2  0  0  0  0
 11 29  1  0  0  0  0
 12 30  1  0  0  0  0
 13 22  1  0  0  0  0
 13 24  2  0  0  0  0
 14 23  1  0  0  0  0
 14 28  2  0  0  0  0
 15 25  1  0  0  0  0
 15 26  2  0  0  0  0
 16 30  2  0  0  0  0
 16 31  1  0  0  0  0
 17 32  1  0  0  0  0
 18 32  1  0  0  0  0
 18 33  2  0  0  0  0
 18 34  1  0  0  0  0
 19 21  2  0  0  0  0
 19 39  1  0  0  0  0
 20 23  2  0  0  0  0
 20 40  1  0  0  0  0
 21 51  1  0  0  0  0
 22 25  2  0  0  0  0
 22 50  1  0  0  0  0
 23 41  1  0  0  0  0
 24 26  1  0  0  0  0
 24 64  1  0  0  0  0
 25 55  1  0  0  0  0
 26 56  1  0  0  0  0
 27 86  1  0  0  0  0
 28 87  1  0  0  0  0
 29 31  2  0  0  0  0
 29 86  1  0  0  0  0
 30 88  1  0  0  0  0
 31 89  1  0  0  0  0
 32 70  2  0  0  0  0
 33 71  1  0  0  0  0
 33 74  1  0  0  0  0
 34 75  1  0  0  0  0
 34 81  2  0  0  0  0
 35 52  1  0  0  0  0
 35 76  1  0  0  0  0
 35 82  2  0  0  0  0
 36 66  1  0  0  0  0
 36 72  1  0  0  0  0
 36 83  2  0  0  0  0
 37 67  1  0  0  0  0
 37 77  1  0  0  0  0
 37 84  2  0  0  0  0
 38 73  1  0  0  0  0
 38 78  1  0  0  0  0
 38 85  2  0  0  0  0
 39 42  1  0  0  0  0
 40 52  1  0  0  0  0
 41 72  1  0  0  0  0
 42 44  1  0  0  0  0
 43 45  1  0  0  0  0
 43 46  1  0  0  0  0
 44 51  1  0  0  0  0
 45 54  1  0  0  0  0
 46 73  1  0  0  0  0
 47 54  1  0  0  0  0
 47 73  1  0  0  0  0
 48 50  1  0  0  0  0
 48 79  1  0  0  0  0
 49 53  1  0  0  0  0
 49 79  1  0  0  0  0
 50 53  1  0  0  0  0
 51 76  1  0  0  0  0
 52 72  1  0  0  0  0
 53 68  1  0  0  0  0
 54 71  1  0  0  0  0
 57 67  1  0  0  0  0
 58 68  1  0  0  0  0
 59 69  1  0  0  0  0
 60 69  1  0  0  0  0
 61 69  1  0  0  0  0
 62 79  1  0  0  0  0
 63 80  1  0  0  0  0
 64 78  1  0  0  0  0
 65 68  1  0  0  0  0
 65 87  1  0  0  0  0
 66 69  1  0  0  0  0
 66 77  1  0  0  0  0
 67 80  1  0  0  0  0
 70 71  1  0  0  0  0
M  CHG  2  79   1  80   1
M  ISO  4  38 100  65 101  78 100  87 101
M  END
> <Batch ID>
0155

> <Smiles>
CNC(C)C(=O)NC(C(=O)N1Cc2cc([101O:1][101CH2:1]C(C)C3CN(C)CC3c3cc(C[100NH:0][100C:0](=O)N4CCCC(n5nc(-c6ccc(Oc7ccc(F)cc7F)cc6)c(C(N)=O)c5N)C4)c(C)cc3C)ccc2CC1C(=O)NC1CCCc2ccccc21)C(C)(C)C

> <Shape>
0.220

> <Color>
0.082

> <Negative vol penalty>
0.000

$$$$

  -OEChem-04052321543D

 87 96  0     1  0  0  0  0  0999 V2000
  -28.3931  -36.2381   22.4921 C   0  0  0  0  0  0  0  0  0  0  0  0
  -29.0976  -35.1393   22.0107 C   0  0  0  0  0  0  0  0  0  0  0  0
  -23.9772  -13.6049   20.7954 C   0  0  0  0  0  0  0  0  0  0  0  0
  -25.0430  -11.6518   21.7370 C   0  0  0  0  0  0  0  0  0  0  0  0
  -27.2053  -36.0488   23.1973 C   0  0  0  0  0  0  0  0  0  0  0  0
  -28.6152  -33.8504   22.2352 C   0  0  0  0  0  0  0  0  0  0  0  0
  -27.7963  -17.7871   21.9635 C   0  0  0  0  0  0  0  0  0  0  0  0
  -28.3748  -27.3704   19.1909 C   0  0  0  0  0  0  0  0  0  0  0  0
  -27.6830  -18.4109   20.7211 C   0  0  0  0  0  0  0  0  0  0  0  0
  -24.9273  -13.6313   19.7746 C   0  0  0  0  0  0  0  0  0  0  0  0
  -25.9932  -11.6781   20.7161 C   0  0  0  0  0  0  0  0  0  0  0  0
  -28.6635  -26.0361   19.4738 C   0  0  0  0  0  0  0  0  0  0  0  0
  -28.9115  -11.4437   18.5625 C   0  0  0  0  0  0  0  0  0  0  0  0
  -30.2484  -11.2619   18.9162 C   0  0  0  0  0  0  0  0  0  0  0  0
  -26.5595  -25.8336   20.6363 C   0  0  0  0  0  0  0  0  0  0  0  0
  -26.0162  -19.9082   21.6251 C   0  0  0  0  0  0  0  0  0  0  0  0
  -30.1421  -13.2213   20.3256 C   0  0  0  0  0  0  0  0  0  0  0  0
  -24.0351  -12.6151   21.7767 C   0  0  0  0  0  0  0  0  0  0  0  0
  -21.8195  -11.9115   22.8273 C   0  0  0  0  0  0  0  0  0  0  0  0
  -26.7031  -34.7574   23.4222 C   0  0  0  0  0  0  0  0  0  0  0  0
  -27.1791  -27.9503   19.6387 C   0  0  0  0  0  0  0  0  0  0  0  0
  -27.4203  -33.6436   22.9453 C   0  0  0  0  0  0  0  0  0  0  0  0
  -27.0196  -18.2237   23.0367 C   0  0  0  0  0  0  0  0  0  0  0  0
  -26.2568  -27.1747   20.3555 C   0  0  0  0  0  0  0  0  0  0  0  0
  -26.7930  -19.4715   20.5519 C   0  0  0  0  0  0  0  0  0  0  0  0
  -26.1295  -19.2843   22.8675 C   0  0  0  0  0  0  0  0  0  0  0  0
  -25.9353  -12.6679   19.7349 C   0  0  0  0  0  0  0  0  0  0  0  0
  -27.7571  -25.2683   20.1991 C   0  0  0  0  0  0  0  0  0  0  0  0
  -28.1899  -12.5144   19.0903 C   0  0  0  0  0  0  0  0  0  0  0  0
  -30.8637  -12.1506   19.7978 C   0  0  0  0  0  0  0  0  0  0  0  0
  -28.8051  -13.4032   19.9719 C   0  0  0  0  0  0  0  0  0  0  0  0
  -23.0542  -12.5877   22.8318 C   0  0  0  0  0  0  0  0  0  0  0  0
  -21.2663  -12.1986   24.0513 C   0  0  0  0  0  0  0  0  0  0  0  0
  -21.2258  -11.0966   21.8080 C   0  0  0  0  0  0  0  0  0  0  0  0
  -26.4425  -30.3472   21.5922 C   0  0  0  0  0  0  0  0  0  0  0  0
  -23.4244  -29.7358   20.5726 C   0  0  0  0  0  0  0  0  0  0  0  0
  -21.2103  -27.5013   19.2493 C   0  0  0  0  0  0  0  0  0  0  0  0
  -25.5636  -14.7958   26.4063 C   0  0  0  0  0  0  0  0  0  0  0  0
  -25.4397  -34.6004   24.2307 C   0  0  0  0  0  0  0  0  0  0  0  0
  -26.8705  -29.3835   19.3022 C   0  0  0  0  0  0  0  0  0  0  0  0
  -24.9499  -27.7443   20.8415 C   0  0  0  0  0  0  0  0  0  0  0  0
  -24.8016  -33.2196   24.1018 C   0  0  0  0  0  0  0  0  0  0  0  0
  -21.9468  -15.9903   26.9323 C   0  0  0  0  0  0  0  0  0  0  0  0
  -25.8567  -32.1280   24.2507 C   0  0  0  0  0  0  0  0  0  0  0  0
  -21.2698  -14.9322   26.0713 C   0  0  0  0  0  0  0  0  0  0  0  0
  -28.1644  -16.3820   24.3913 C   0  0  0  0  0  0  0  0  0  0  0  0
  -23.4042  -16.1628   26.5139 C   0  0  0  0  0  0  0  0  0  0  0  0
  -27.7587  -15.6116   25.6365 C   0  0  0  0  0  0  0  0  0  0  0  0
  -25.8709  -16.8819   24.8910 C   0  0  0  0  0  0  0  0  0  0  0  0
  -23.4037  -13.6906   26.7968 C   0  0  0  0  0  0  0  0  0  0  0  0
  -27.1596  -17.5339   24.3705 C   0  0  2  0  0  0  0  0  0  0  0  0
  -26.9164  -32.2309   23.1471 C   0  0  1  0  0  0  0  0  0  0  0  0
  -25.8550  -30.0144   20.2499 C   0  0  1  0  0  0  0  0  0  0  0  0
  -22.0419  -13.5995   26.0809 C   0  0  2  0  0  0  0  0  0  0  0  0
  -25.2873  -19.7688   24.0018 C   0  0  0  0  0  0  0  0  0  0  0  0
  -25.2520  -20.0850   18.6435 C   0  0  0  0  0  0  0  0  0  0  0  0
  -18.8060  -27.2802   18.5653 C   0  0  0  0  0  0  0  0  0  0  0  0
  -22.6135  -29.5093   23.5054 C   0  0  0  0  0  0  0  0  0  0  0  0
  -20.5065  -28.3788   22.7633 C   0  0  0  0  0  0  0  0  0  0  0  0
  -20.9744  -30.7262   22.0608 C   0  0  0  0  0  0  0  0  0  0  0  0
  -21.9411  -26.9452   16.4358 C   0  0  0  0  0  0  0  0  0  0  0  0
  -28.5186  -21.7795   19.5895 C   0  0  0  0  0  0  0  0  0  0  0  0
  -28.8448  -23.2591   19.5387 C   0  0  0  0  0  0  0  0  0  1  0  0
  -26.6716  -20.1383   19.2235 C   0  0  1  0  0  0  0  0  0  0  0  0
  -22.3023  -28.8366   21.0322 C   0  0  1  0  0  0  0  0  0  0  0  0
  -20.2154  -27.6238   18.1092 C   0  0  2  0  0  0  0  0  0  0  0  0
  -21.6246  -29.3523   22.3331 C   0  0  0  0  0  0  0  0  0  0  0  0
  -23.2729  -13.2543   23.9684 N   0  0  0  0  0  0  0  0  0  0  0  0
  -22.1681  -12.9985   24.6895 N   0  0  0  0  0  0  0  0  0  0  0  0
  -24.6967  -29.1521   20.4927 N   0  0  0  0  0  0  0  0  0  0  0  0
  -24.1656  -14.9084   26.4843 N   0  0  0  0  0  0  0  0  0  0  0  0
  -26.3064  -15.7611   25.7285 N   0  0  0  0  0  0  0  0  0  0  0  0
  -20.1014  -11.8424   24.6331 N   0  0  0  0  0  0  0  0  0  0  0  0
  -21.9298  -10.9049   20.6114 N   0  0  0  0  0  0  0  0  0  0  0  0
  -26.4060  -31.6928   21.9044 N   0  0  0  0  0  0  0  0  0  0  0  0
  -21.3947  -28.7041   19.8977 N   0  0  0  0  0  0  0  0  0  0  0  0
  -20.5867  -26.7044   16.9967 N   0  3  0  0  0  0  0  0  0  0  0  0
  -27.0942  -21.5808   19.2386 N   0  3  0  0  0  0  0  0  0  0  0  0
  -20.0968  -10.5679   21.9475 O   0  0  0  0  0  0  0  0  0  0  0  0
  -26.8942  -29.4494   22.2934 O   0  0  0  0  0  0  0  0  0  0  0  0
  -23.1798  -30.9108   20.2879 O   0  0  0  0  0  0  0  0  0  0  0  0
  -21.7653  -26.4435   19.5382 O   0  0  0  0  0  0  0  0  0  0  0  0
  -26.1423  -13.8255   26.9211 O   0  0  0  0  0  0  0  0  0  0  0  0
  -26.8624  -12.6932   18.7387 O   0  0  0  0  0  0  0  0  0  0  0  0
  -28.0387  -23.9565   20.4792 O   0  0  0  0  0  0  0  0  0  1  0  0
  -32.1472  -11.9749   20.1386 F   0  0  0  0  0  0  0  0  0  0  0  0
  -28.1166  -14.4329   20.4831 F   0  0  0  0  0  0  0  0  0  0  0  0
  1  2  1  0  0  0  0
  1  5  2  0  0  0  0
  2  6  2  0  0  0  0
  3 10  2  0  0  0  0
  3 18  1  0  0  0  0
  4 11  1  0  0  0  0
  4 18  2  0  0  0  0
  5 20  1  0  0  0  0
  6 22  1  0  0  0  0
  7  9  2  0  0  0  0
  7 23  1  0  0  0  0
  8 12  2  0  0  0  0
  8 21  1  0  0  0  0
  9 25  1  0  0  0  0
 10 27  1  0  0  0  0
 11 27  2  0  0  0  0
 12 28  1  0  0  0  0
 13 14  2  0  0  0  0
 13 29  1  0  0  0  0
 14 30  1  0  0  0  0
 15 24  1  0  0  0  0
 15 28  2  0  0  0  0
 16 25  2  0  0  0  0
 16 26  1  0  0  0  0
 17 30  2  0  0  0  0
 17 31  1  0  0  0  0
 18 32  1  0  0  0  0
 19 32  1  0  0  0  0
 19 33  2  0  0  0  0
 19 34  1  0  0  0  0
 20 22  2  0  0  0  0
 20 39  1  0  0  0  0
 21 24  2  0  0  0  0
 21 40  1  0  0  0  0
 22 52  1  0  0  0  0
 23 26  2  0  0  0  0
 23 51  1  0  0  0  0
 24 41  1  0  0  0  0
 25 64  1  0  0  0  0
 26 55  1  0  0  0  0
 27 84  1  0  0  0  0
 28 85  1  0  0  0  0
 29 31  2  0  0  0  0
 29 84  1  0  0  0  0
 30 86  1  0  0  0  0
 31 87  1  0  0  0  0
 32 68  2  0  0  0  0
 33 69  1  0  0  0  0
 33 73  1  0  0  0  0
 34 74  1  0  0  0  0
 34 79  2  0  0  0  0
 35 53  1  0  0  0  0
 35 75  1  0  0  0  0
 35 80  2  0  0  0  0
 36 65  1  0  0  0  0
 36 70  1  0  0  0  0
 36 81  2  0  0  0  0
 37 66  1  0  0  0  0
 37 76  1  0  0  0  0
 37 82  2  0  0  0  0
 38 71  1  0  0  0  0
 38 72  1  0  0  0  0
 38 83  2  0  0  0  0
 39 42  1  0  0  0  0
 40 53  1  0  0  0  0
 41 70  1  0  0  0  0
 42 44  1  0  0  0  0
 43 45  1  0  0  0  0
 43 47  1  0  0  0  0
 44 52  1  0  0  0  0
 45 54  1  0  0  0  0
 46 48  1  0  0  0  0
 46 51  1  0  0  0  0
 47 71  1  0  0  0  0
 48 72  1  0  0  0  0
 49 51  1  0  0  0  0
 49 72  1  0  0  0  0
 50 54  1  0  0  0  0
 50 71  1  0  0  0  0
 52 75  1  0  0  0  0
 53 70  1  0  0  0  0
 54 69  1  0  0  0  0
 56 64  1  0  0  0  0
 57 66  1  0  0  0  0
 58 67  1  0  0  0  0
 59 67  1  0  0  0  0
 60 67  1  0  0  0  0
 61 77  1  0  0  0  0
 62 63  1  0  0  0  0
 62 78  1  0  0  0  0
 63 85  1  0  0  0  0
 64 78  1  0  0  0  0
 65 67  1  0  0  0  0
 65 76  1  0  0  0  0
 66 77  1  0  0  0  0
 68 69  1  0  0  0  0
M  CHG  2  77   1  78   1
M  ISO  4  38 100  63 101  72 100  85 101
M  END
> <Batch ID>
0155

> <Smiles>
CNC(C)C(=O)NC(C(=O)N1Cc2cc([101O:1][101CH2:1]CNC(C)c3ccc(C4CC[100N:0]([100C:0](=O)N5CCCC(n6nc(-c7ccc(Oc8ccc(F)cc8F)cc7)c(C(N)=O)c6N)C5)C4)c(C)c3)ccc2CC1C(=O)NC1CCCc2ccccc21)C(C)(C)C

> <Shape>
0.257

> <Color>
0.047

> <Negative vol penalty>
0.000

$$$$

  -OEChem-04052321543D

 88 98  0     1  0  0  0  0  0999 V2000
  -34.8839  -36.3125   20.1768 C   0  0  0  0  0  0  0  0  0  0  0  0
  -34.5205  -34.9926   19.9293 C   0  0  0  0  0  0  0  0  0  0  0  0
  -24.7915   -8.8028   21.7274 C   0  0  0  0  0  0  0  0  0  0  0  0
  -24.3039   -8.3006   19.4151 C   0  0  0  0  0  0  0  0  0  0  0  0
  -34.2817  -37.0165   21.2187 C   0  0  0  0  0  0  0  0  0  0  0  0
  -33.5555  -34.3755   20.7245 C   0  0  0  0  0  0  0  0  0  0  0  0
  -29.4173  -30.2287   18.9401 C   0  0  0  0  0  0  0  0  0  0  0  0
  -23.5983   -8.1912   22.1119 C   0  0  0  0  0  0  0  0  0  0  0  0
  -23.1107   -7.6890   19.7995 C   0  0  0  0  0  0  0  0  0  0  0  0
  -29.3857  -28.8375   19.0269 C   0  0  0  0  0  0  0  0  0  0  0  0
  -20.8548   -6.4435   23.7348 C   0  0  0  0  0  0  0  0  0  0  0  0
  -20.8925   -5.5784   24.8282 C   0  0  0  0  0  0  0  0  0  0  0  0
  -28.0828  -28.9995   21.0506 C   0  0  0  0  0  0  0  0  0  0  0  0
  -28.1414  -22.5573   18.8369 C   0  0  0  0  0  0  0  0  0  0  0  0
  -29.7615  -22.6691   20.6257 C   0  0  0  0  0  0  0  0  0  0  0  0
  -22.4838   -4.1799   23.6668 C   0  0  0  0  0  0  0  0  0  0  0  0
  -25.1443   -8.8576   20.3790 C   0  0  0  0  0  0  0  0  0  0  0  0
  -27.6390   -8.8818   19.8467 C   0  0  0  0  0  0  0  0  0  0  0  0
  -33.3018  -36.4108   22.0210 C   0  0  0  0  0  0  0  0  0  0  0  0
  -28.7900  -31.0171   19.9154 C   0  0  0  0  0  0  0  0  0  0  0  0
  -32.9406  -35.0716   21.7791 C   0  0  0  0  0  0  0  0  0  0  0  0
  -28.1056  -30.4003   20.9724 C   0  0  0  0  0  0  0  0  0  0  0  0
  -28.2973  -23.9247   18.6102 C   0  0  0  0  0  0  0  0  0  0  0  0
  -29.9175  -24.0366   20.3989 C   0  0  0  0  0  0  0  0  0  0  0  0
  -29.1854  -24.6644   19.3912 C   0  0  0  0  0  0  0  0  0  0  0  0
  -22.7579   -7.6343   21.1480 C   0  0  0  0  0  0  0  0  0  0  0  0
  -28.7209  -28.2228   20.0838 C   0  0  0  0  0  0  0  0  0  0  0  0
  -21.6316   -6.1769   22.6073 C   0  0  0  0  0  0  0  0  0  0  0  0
  -28.8735  -21.9295   19.8447 C   0  0  0  0  0  0  0  0  0  0  0  0
  -21.7070   -4.4465   24.7943 C   0  0  0  0  0  0  0  0  0  0  0  0
  -22.4461   -5.0450   22.5733 C   0  0  0  0  0  0  0  0  0  0  0  0
  -26.3765   -9.4897   19.9812 C   0  0  0  0  0  0  0  0  0  0  0  0
  -28.4701   -9.9005   19.4494 C   0  0  0  0  0  0  0  0  0  0  0  0
  -28.0260   -7.5180   20.0617 C   0  0  0  0  0  0  0  0  0  0  0  0
  -29.7755  -33.1809   22.0250 C   0  0  0  0  0  0  0  0  0  0  0  0
  -26.5962  -33.5340   22.5631 C   0  0  0  0  0  0  0  0  0  0  0  0
  -23.4661  -32.1816   22.4214 C   0  0  0  0  0  0  0  0  0  0  0  0
  -28.4488  -15.6276   20.2159 C   0  0  0  0  0  0  0  0  0  0  0  0
  -32.7130  -37.1969   23.1656 C   0  0  0  0  0  0  0  0  0  0  0  0
  -28.8104  -32.5161   19.7928 C   0  0  0  0  0  0  0  0  0  0  0  0
  -27.3991  -31.2014   22.0343 C   0  0  0  0  0  0  0  0  0  0  0  0
  -31.4290  -36.5895   23.7248 C   0  0  0  0  0  0  0  0  0  0  0  0
  -28.4518  -14.0506   17.0799 C   0  0  0  0  0  0  0  0  0  0  0  0
  -26.6364  -25.7580   17.8657 C   0  0  0  0  0  0  0  0  0  0  0  0
  -26.0026  -24.4418   17.5400 C   0  0  0  0  0  0  0  0  0  0  0  0
  -31.5951  -35.0874   23.9320 C   0  0  0  0  0  0  0  0  0  0  0  0
  -28.0392  -12.6275   17.4555 C   0  0  0  0  0  0  0  0  0  0  0  0
  -30.1864  -18.7904   19.3641 C   0  0  0  0  0  0  0  0  0  0  0  0
  -27.7870  -18.9277   18.5681 C   0  0  0  0  0  0  0  0  0  0  0  0
  -27.6648  -15.1014   17.8648 C   0  0  0  0  0  0  0  0  0  0  0  0
  -29.7690  -17.7064   20.3568 C   0  0  0  0  0  0  0  0  0  0  0  0
  -27.4242  -17.8440   19.5809 C   0  0  0  0  0  0  0  0  0  0  0  0
  -27.2997  -13.4929   19.7076 C   0  0  0  0  0  0  0  0  0  0  0  0
  -27.5020  -24.5743   17.5262 C   0  0  0  0  0  0  0  0  0  0  0  0
  -31.8800  -34.3755   22.6040 C   0  0  1  0  0  0  0  0  0  0  0  0
  -28.5756  -33.2275   21.1218 C   0  0  1  0  0  0  0  0  0  0  0  0
  -28.1147  -12.4139   18.9778 C   0  0  1  0  0  0  0  0  0  0  0  0
  -29.0310  -19.7160   18.9813 C   0  0  0  0  0  0  0  0  0  0  0  0
  -30.8748  -24.8052   21.2494 C   0  0  0  0  0  0  0  0  0  0  0  0
  -21.0714  -32.6960   22.9674 C   0  0  0  0  0  0  0  0  0  0  0  0
  -27.1716  -33.0602   25.5219 C   0  0  0  0  0  0  0  0  0  0  0  0
  -24.7264  -32.6407   25.8586 C   0  0  0  0  0  0  0  0  0  0  0  0
  -25.5090  -34.8703   25.0592 C   0  0  0  0  0  0  0  0  0  0  0  0
  -22.6416  -31.9108   19.5920 C   0  0  0  0  0  0  0  0  0  0  0  0
  -29.3564  -26.1307   19.1481 C   0  0  0  0  0  0  0  0  0  1  0  0
  -25.5906  -32.8915   23.4877 C   0  0  1  0  0  0  0  0  0  0  0  0
  -22.1526  -32.7346   21.8987 C   0  0  2  0  0  0  0  0  0  0  0  0
  -25.7642  -33.3503   24.9631 C   0  0  0  0  0  0  0  0  0  0  0  0
  -26.3987  -10.7937   19.6928 N   0  0  0  0  0  0  0  0  0  0  0  0
  -27.6854  -11.0135   19.3732 N   0  0  0  0  0  0  0  0  0  0  0  0
  -27.4528  -32.6639   21.8740 N   0  0  0  0  0  0  0  0  0  0  0  0
  -27.7337  -14.8330   19.3074 N   0  0  0  0  0  0  0  0  0  0  0  0
  -28.5765  -16.9916   19.9032 N   0  0  0  0  0  0  0  0  0  0  0  0
  -29.7882   -9.9440   19.1612 N   0  0  0  0  0  0  0  0  0  0  0  0
  -27.0465   -6.6017   20.4681 N   0  0  0  0  0  0  0  0  0  0  0  0
  -30.6606  -34.2258   21.8391 N   0  0  0  0  0  0  0  0  0  0  0  0
  -24.2760  -33.1781   22.9236 N   0  0  0  0  0  0  0  0  0  0  0  0
  -21.6850  -31.9394   20.7282 N   0  3  0  0  0  0  0  0  0  0  0  0
  -29.2088   -7.1272   19.9142 O   0  0  0  0  0  0  0  0  0  0  0  0
  -29.8892  -32.2657   22.8319 O   0  0  0  0  0  0  0  0  0  0  0  0
  -26.6160  -34.7622   22.4508 O   0  0  0  0  0  0  0  0  0  0  0  0
  -23.7441  -30.9848   22.3910 O   0  0  0  0  0  0  0  0  0  0  0  0
  -28.9470  -15.1497   21.2428 O   0  0  0  0  0  0  0  0  0  0  0  0
  -21.5936   -7.0372   21.5228 O   0  0  0  0  0  0  0  0  0  0  0  0
  -28.7207  -20.5863   20.0673 O   0  0  0  0  0  0  0  0  0  0  0  0
  -28.6889  -26.8550   20.1720 O   0  0  0  0  0  0  0  0  0  1  0  0
  -21.7443   -3.6166   25.8450 F   0  0  0  0  0  0  0  0  0  0  0  0
  -23.1955   -4.7842   21.4934 F   0  0  0  0  0  0  0  0  0  0  0  0
  1  2  1  0  0  0  0
  1  5  2  0  0  0  0
  2  6  2  0  0  0  0
  3  8  2  0  0  0  0
  3 17  1  0  0  0  0
  4  9  1  0  0  0  0
  4 17  2  0  0  0  0
  5 19  1  0  0  0  0
  6 21  1  0  0  0  0
  7 10  2  0  0  0  0
  7 20  1  0  0  0  0
  8 26  1  0  0  0  0
  9 26  2  0  0  0  0
 10 27  1  0  0  0  0
 11 12  2  0  0  0  0
 11 28  1  0  0  0  0
 12 30  1  0  0  0  0
 13 22  1  0  0  0  0
 13 27  2  0  0  0  0
 14 23  1  0  0  0  0
 14 29  2  0  0  0  0
 15 24  2  0  0  0  0
 15 29  1  0  0  0  0
 16 30  2  0  0  0  0
 16 31  1  0  0  0  0
 17 32  1  0  0  0  0
 18 32  1  0  0  0  0
 18 33  2  0  0  0  0
 18 34  1  0  0  0  0
 19 21  2  0  0  0  0
 19 39  1  0  0  0  0
 20 22  2  0  0  0  0
 20 40  1  0  0  0  0
 21 55  1  0  0  0  0
 22 41  1  0  0  0  0
 23 25  2  0  0  0  0
 23 54  1  0  0  0  0
 24 25  1  0  0  0  0
 24 59  1  0  0  0  0
 25 65  1  0  0  0  0
 26 84  1  0  0  0  0
 27 86  1  0  0  0  0
 28 31  2  0  0  0  0
 28 84  1  0  0  0  0
 29 85  1  0  0  0  0
 30 87  1  0  0  0  0
 31 88  1  0  0  0  0
 32 69  2  0  0  0  0
 33 70  1  0  0  0  0
 33 74  1  0  0  0  0
 34 75  1  0  0  0  0
 34 79  2  0  0  0  0
 35 56  1  0  0  0  0
 35 76  1  0  0  0  0
 35 80  2  0  0  0  0
 36 66  1  0  0  0  0
 36 71  1  0  0  0  0
 36 81  2  0  0  0  0
 37 67  1  0  0  0  0
 37 77  1  0  0  0  0
 37 82  2  0  0  0  0
 38 72  1  0  0  0  0
 38 73  1  0  0  0  0
 38 83  2  0  0  0  0
 39 42  1  0  0  0  0
 40 56  1  0  0  0  0
 41 71  1  0  0  0  0
 42 46  1  0  0  0  0
 43 47  1  0  0  0  0
 43 50  1  0  0  0  0
 44 45  1  0  0  0  0
 44 54  1  0  0  0  0
 45 54  1  0  0  0  0
 46 55  1  0  0  0  0
 47 57  1  0  0  0  0
 48 51  1  0  0  0  0
 48 58  1  0  0  0  0
 49 52  1  0  0  0  0
 49 58  1  0  0  0  0
 50 72  1  0  0  0  0
 51 73  1  0  0  0  0
 52 73  1  0  0  0  0
 53 57  1  0  0  0  0
 53 72  1  0  0  0  0
 55 76  1  0  0  0  0
 56 71  1  0  0  0  0
 57 70  1  0  0  0  0
 58 85  1  0  0  0  0
 60 67  1  0  0  0  0
 61 68  1  0  0  0  0
 62 68  1  0  0  0  0
 63 68  1  0  0  0  0
 64 78  1  0  0  0  0
 65 86  1  0  0  0  0
 66 68  1  0  0  0  0
 66 77  1  0  0  0  0
 67 78  1  0  0  0  0
 69 70  1  0  0  0  0
M  CHG  1  78   1
M  ISO  4  38 100  65 101  73 100  86 101
M  END
> <Batch ID>
0155

> <Smiles>
CNC(C)C(=O)NC(C(=O)N1Cc2cc([101O:1][101CH2:1]c3c(C)cc(OC4CC[100N:0]([100C:0](=O)N5CCCC(n6nc(-c7ccc(Oc8ccc(F)cc8F)cc7)c(C(N)=O)c6N)C5)CC4)cc3C3CC3)ccc2CC1C(=O)NC1CCCc2ccccc21)C(C)(C)C

> <Shape>
0.254

> <Color>
0.097

> <Negative vol penalty>
0.000

$$$$

  -OEChem-04052321543D

 91100  0     1  0  0  0  0  0999 V2000
  -17.3374  -29.1249   23.3495 C   0  0  0  0  0  0  0  0  0  0  0  0
  -17.1987  -27.7480   23.4821 C   0  0  0  0  0  0  0  0  0  0  0  0
  -28.8587  -22.8025   20.7501 C   0  0  0  0  0  0  0  0  0  0  0  0
  -29.7911  -22.1035   18.6337 C   0  0  0  0  0  0  0  0  0  0  0  0
  -18.5522  -29.6620   22.9288 C   0  0  0  0  0  0  0  0  0  0  0  0
  -18.2783  -26.9084   23.2056 C   0  0  0  0  0  0  0  0  0  0  0  0
  -20.3143  -20.0741   22.4593 C   0  0  0  0  0  0  0  0  0  0  0  0
  -29.4478  -24.0573   20.5952 C   0  0  0  0  0  0  0  0  0  0  0  0
  -30.3801  -23.3583   18.4788 C   0  0  0  0  0  0  0  0  0  0  0  0
  -20.8775  -19.1445   21.5861 C   0  0  0  0  0  0  0  0  0  0  0  0
  -30.4069  -27.5637   20.5860 C   0  0  0  0  0  0  0  0  0  0  0  0
  -29.6280  -28.6853   20.8705 C   0  0  0  0  0  0  0  0  0  0  0  0
  -23.2067  -16.8356   17.8005 C   0  0  0  0  0  0  0  0  0  0  0  0
  -23.0640  -20.0621   22.0292 C   0  0  0  0  0  0  0  0  0  0  0  0
  -23.6474  -14.2052   18.5921 C   0  0  0  0  0  0  0  0  0  0  0  0
  -28.0537  -28.0258   19.1607 C   0  0  0  0  0  0  0  0  0  0  0  0
  -29.0304  -21.8255   19.7694 C   0  0  0  0  0  0  0  0  0  0  0  0
  -27.1435  -20.1305   19.4970 C   0  0  0  0  0  0  0  0  0  0  0  0
  -19.6429  -28.8271   22.6352 C   0  0  0  0  0  0  0  0  0  0  0  0
  -21.1218  -21.0133   23.1168 C   0  0  0  0  0  0  0  0  0  0  0  0
  -19.5198  -27.4327   22.8028 C   0  0  0  0  0  0  0  0  0  0  0  0
  -23.9490  -15.9823   16.9684 C   0  0  0  0  0  0  0  0  0  0  0  0
  -22.5089  -21.0008   22.9122 C   0  0  0  0  0  0  0  0  0  0  0  0
  -24.1643  -14.6488   17.3631 C   0  0  0  0  0  0  0  0  0  0  0  0
  -22.6986  -16.3809   19.0166 C   0  0  0  0  0  0  0  0  0  0  0  0
  -30.2084  -24.3353   19.4595 C   0  0  0  0  0  0  0  0  0  0  0  0
  -22.2522  -19.1403   21.3687 C   0  0  0  0  0  0  0  0  0  0  0  0
  -30.0092  -26.6732   19.5887 C   0  0  0  0  0  0  0  0  0  0  0  0
  -22.9191  -15.0658   19.4125 C   0  0  0  0  0  0  0  0  0  0  0  0
  -28.4514  -28.9164   20.1580 C   0  0  0  0  0  0  0  0  0  0  0  0
  -28.8326  -26.9042   18.8761 C   0  0  0  0  0  0  0  0  0  0  0  0
  -28.4227  -20.5289   19.9291 C   0  0  0  0  0  0  0  0  0  0  0  0
  -27.0433  -18.8170   19.8857 C   0  0  0  0  0  0  0  0  0  0  0  0
  -26.1359  -20.8808   18.8059 C   0  0  0  0  0  0  0  0  0  0  0  0
  -21.3121  -24.1861   23.1349 C   0  0  0  0  0  0  0  0  0  0  0  0
  -23.4766  -23.6539   25.4916 C   0  0  0  0  0  0  0  0  0  0  0  0
  -25.7099  -21.5229   26.9469 C   0  0  0  0  0  0  0  0  0  0  0  0
  -29.2244  -13.7020   20.3595 C   0  0  0  0  0  0  0  0  0  0  0  0
  -20.9371  -29.4620   22.1912 C   0  0  0  0  0  0  0  0  0  0  0  0
  -20.5020  -21.9920   24.0761 C   0  0  0  0  0  0  0  0  0  0  0  0
  -24.4312  -16.5082   15.6402 C   0  0  0  0  0  0  0  0  0  0  0  0
  -23.4221  -21.9749   23.6092 C   0  0  0  0  0  0  0  0  0  0  0  0
  -21.8755  -28.4783   21.5000 C   0  0  0  0  0  0  0  0  0  0  0  0
  -25.4798  -15.6265   14.9640 C   0  0  0  0  0  0  0  0  0  0  0  0
  -29.9911  -16.0490   22.9247 C   0  0  0  0  0  0  0  0  0  0  0  0
  -22.0184  -27.2182   22.3404 C   0  0  0  0  0  0  0  0  0  0  0  0
  -29.5518  -17.3908   22.3360 C   0  0  0  0  0  0  0  0  0  0  0  0
  -30.5840  -15.1315   21.8576 C   0  0  0  0  0  0  0  0  0  0  0  0
  -29.2837  -16.2556   20.0914 C   0  0  0  0  0  0  0  0  0  0  0  0
  -20.6711  -26.4980   22.4783 C   0  0  1  0  0  0  0  0  0  0  0  0
  -24.9793  -13.6926   16.5180 C   0  0  1  0  0  0  0  0  0  0  0  0
  -21.3580  -23.2353   24.2974 C   0  0  1  0  0  0  0  0  0  0  0  0
  -25.0765  -14.1491   15.0436 C   0  0  2  0  0  0  0  0  0  0  0  0
  -28.6278  -17.1937   21.1191 C   0  0  2  0  0  0  0  0  0  0  0  0
  -27.3566  -20.6765   28.6408 C   0  0  0  0  0  0  0  0  0  0  0  0
  -25.6576  -13.3709   12.7182 C   0  0  0  0  0  0  0  0  0  0  0  0
  -28.7489  -11.7824   17.7682 C   0  0  0  0  0  0  0  0  0  0  0  0
  -25.4393  -25.3681   23.9045 C   0  0  0  0  0  0  0  0  0  0  0  0
  -27.2874  -24.4275   25.3074 C   0  0  0  0  0  0  0  0  0  0  0  0
  -25.4700  -25.7625   26.3739 C   0  0  0  0  0  0  0  0  0  0  0  0
  -23.5696  -20.3127   28.5942 C   0  0  0  0  0  0  0  0  0  0  0  0
  -21.1265  -14.0276   20.5807 C   0  0  0  0  0  0  0  0  0  0  0  0
  -21.9180  -17.3174   19.8783 C   0  0  0  0  0  0  0  0  0  1  0  0
  -26.3793  -12.5895   18.2678 C   0  0  0  0  0  0  0  0  0  0  0  0
  -24.9684  -23.4283   25.5420 C   0  0  1  0  0  0  0  0  0  0  0  0
  -25.9238  -21.1233   28.3957 C   0  0  2  0  0  0  0  0  0  0  0  0
  -26.0087  -13.2851   14.1924 C   0  0  1  0  0  0  0  0  0  0  0  0
  -27.8037  -12.4062   18.7905 C   0  0  2  0  0  0  0  0  0  0  0  0
  -25.7741  -24.7294   25.2671 C   0  0  0  0  0  0  0  0  0  0  0  0
  -29.0874  -19.5479   20.5454 N   0  0  0  0  0  0  0  0  0  0  0  0
  -28.2225  -18.5201   20.5033 N   0  0  0  0  0  0  0  0  0  0  0  0
  -22.7677  -22.9164   24.5327 N   0  0  0  0  0  0  0  0  0  0  0  0
  -29.6577  -14.9851   20.7321 N   0  0  0  0  0  0  0  0  0  0  0  0
  -26.0624  -17.8986   19.7561 N   0  0  0  0  0  0  0  0  0  0  0  0
  -26.4027  -22.2182   18.4825 N   0  0  0  0  0  0  0  0  0  0  0  0
  -20.8025  -25.4321   23.4470 N   0  0  0  0  0  0  0  0  0  0  0  0
  -25.2452  -22.8164   26.8371 N   0  0  0  0  0  0  0  0  0  0  0  0
  -28.3425  -13.6529   19.2868 N   0  0  0  0  0  0  0  0  0  0  0  0
  -26.3471  -13.5007   17.0991 N   0  3  0  0  0  0  0  0  0  0  0  0
  -25.0126  -20.0030   28.7640 N   0  3  0  0  0  0  0  0  0  0  0  0
  -25.0253  -20.3848   18.4991 O   0  0  0  0  0  0  0  0  0  0  0  0
  -21.7108  -23.8172   22.0365 O   0  0  0  0  0  0  0  0  0  0  0  0
  -22.9584  -24.4496   26.2789 O   0  0  0  0  0  0  0  0  0  0  0  0
  -25.9362  -20.7646   26.0065 O   0  0  0  0  0  0  0  0  0  0  0  0
  -29.5918  -12.6766   20.9430 O   0  0  0  0  0  0  0  0  0  0  0  0
  -27.3472  -13.7212   14.3891 O   0  0  0  0  0  0  0  0  0  0  0  0
  -30.7831  -25.5597   19.3079 O   0  0  0  0  0  0  0  0  0  0  0  0
  -22.4316  -14.6026   20.5973 O   0  0  0  0  0  0  0  0  0  0  0  0
  -22.8083  -18.2281   20.5104 O   0  0  0  0  0  0  0  0  0  1  0  0
  -27.7028  -29.9926   20.4324 F   0  0  0  0  0  0  0  0  0  0  0  0
  -28.4447  -26.0516   17.9178 F   0  0  0  0  0  0  0  0  0  0  0  0
  1  2  1  0  0  0  0
  1  5  2  0  0  0  0
  2  6  2  0  0  0  0
  3  8  2  0  0  0  0
  3 17  1  0  0  0  0
  4  9  1  0  0  0  0
  4 17  2  0  0  0  0
  5 19  1  0  0  0  0
  6 21  1  0  0  0  0
  7 10  2  0  0  0  0
  7 20  1  0  0  0  0
  8 26  1  0  0  0  0
  9 26  2  0  0  0  0
 10 27  1  0  0  0  0
 11 12  2  0  0  0  0
 11 28  1  0  0  0  0
 12 30  1  0  0  0  0
 13 22  2  0  0  0  0
 13 25  1  0  0  0  0
 14 23  1  0  0  0  0
 14 27  2  0  0  0  0
 15 24  2  0  0  0  0
 15 29  1  0  0  0  0
 16 30  2  0  0  0  0
 16 31  1  0  0  0  0
 17 32  1  0  0  0  0
 18 32  1  0  0  0  0
 18 33  2  0  0  0  0
 18 34  1  0  0  0  0
 19 21  2  0  0  0  0
 19 39  1  0  0  0  0
 20 23  2  0  0  0  0
 20 40  1  0  0  0  0
 21 50  1  0  0  0  0
 22 24  1  0  0  0  0
 22 41  1  0  0  0  0
 23 42  1  0  0  0  0
 24 51  1  0  0  0  0
 25 29  2  0  0  0  0
 25 63  1  0  0  0  0
 26 87  1  0  0  0  0
 27 89  1  0  0  0  0
 28 31  2  0  0  0  0
 28 87  1  0  0  0  0
 29 88  1  0  0  0  0
 30 90  1  0  0  0  0
 31 91  1  0  0  0  0
 32 70  2  0  0  0  0
 33 71  1  0  0  0  0
 33 74  1  0  0  0  0
 34 75  1  0  0  0  0
 34 81  2  0  0  0  0
 35 52  1  0  0  0  0
 35 76  1  0  0  0  0
 35 82  2  0  0  0  0
 36 65  1  0  0  0  0
 36 72  1  0  0  0  0
 36 83  2  0  0  0  0
 37 66  1  0  0  0  0
 37 77  1  0  0  0  0
 37 84  2  0  0  0  0
 38 73  1  0  0  0  0
 38 78  1  0  0  0  0
 38 85  2  0  0  0  0
 39 43  1  0  0  0  0
 40 52  1  0  0  0  0
 41 44  1  0  0  0  0
 42 72  1  0  0  0  0
 43 46  1  0  0  0  0
 44 53  1  0  0  0  0
 45 47  1  0  0  0  0
 45 48  1  0  0  0  0
 46 50  1  0  0  0  0
 47 54  1  0  0  0  0
 48 73  1  0  0  0  0
 49 54  1  0  0  0  0
 49 73  1  0  0  0  0
 50 76  1  0  0  0  0
 51 53  1  0  0  0  0
 51 79  1  0  0  0  0
 52 72  1  0  0  0  0
 53 67  1  0  0  0  0
 54 71  1  0  0  0  0
 55 66  1  0  0  0  0
 56 67  1  0  0  0  0
 57 68  1  0  0  0  0
 58 69  1  0  0  0  0
 59 69  1  0  0  0  0
 60 69  1  0  0  0  0
 61 80  1  0  0  0  0
 62 88  1  0  0  0  0
 63 89  1  0  0  0  0
 64 68  1  0  0  0  0
 64 79  1  0  0  0  0
 65 69  1  0  0  0  0
 65 77  1  0  0  0  0
 66 80  1  0  0  0  0
 67 86  1  0  0  0  0
 68 78  1  0  0  0  0
 70 71  1  0  0  0  0
M  CHG  2  79   1  80   1
M  ISO  4  38 100  63 101  78 100  89 101
M  END
> <Batch ID>
0155

> <Smiles>
CNC(C)C(=O)NC(C(=O)N1Cc2cc([101O:1][101CH2:1]c3cc4c(cc3OC)C(NCC(C)[100NH:0][100C:0](=O)N3CCCC(n5nc(-c6ccc(Oc7ccc(F)cc7F)cc6)c(C(N)=O)c5N)C3)C(C(C)O)CC4)ccc2CC1C(=O)NC1CCCc2ccccc21)C(C)(C)C

> <Shape>
0.218

> <Color>
0.048

> <Negative vol penalty>
0.000

$$$$

  -OEChem-04052321543D

 93103  0     1  0  0  0  0  0999 V2000
  -26.4259  -37.9619   19.2044 C   0  0  0  0  0  0  0  0  0  0  0  0
  -27.0663  -36.7377   19.0409 C   0  0  0  0  0  0  0  0  0  0  0  0
  -21.7265   -7.3048   18.4480 C   0  0  0  0  0  0  0  0  0  0  0  0
  -23.8386   -6.2402   18.9409 C   0  0  0  0  0  0  0  0  0  0  0  0
  -25.5446  -38.1498   20.2683 C   0  0  0  0  0  0  0  0  0  0  0  0
  -26.8265  -35.7009   19.9420 C   0  0  0  0  0  0  0  0  0  0  0  0
  -26.6366  -29.7084   18.6934 C   0  0  0  0  0  0  0  0  0  0  0  0
  -21.5022   -6.3854   17.4233 C   0  0  0  0  0  0  0  0  0  0  0  0
  -23.6143   -5.3208   17.9161 C   0  0  0  0  0  0  0  0  0  0  0  0
  -27.5784  -28.6903   18.8357 C   0  0  0  0  0  0  0  0  0  0  0  0
  -20.4660   -3.1797   17.1355 C   0  0  0  0  0  0  0  0  0  0  0  0
  -19.1989   -2.6035   17.0475 C   0  0  0  0  0  0  0  0  0  0  0  0
  -31.5595  -19.6142   20.4879 C   0  0  0  0  0  0  0  0  0  0  0  0
  -29.2841  -20.4149   20.6225 C   0  0  0  0  0  0  0  0  0  0  0  0
  -26.6033  -28.0935   20.9599 C   0  0  0  0  0  0  0  0  0  0  0  0
  -18.9373   -3.5179   14.8266 C   0  0  0  0  0  0  0  0  0  0  0  0
  -22.8947   -7.2322   19.2068 C   0  0  0  0  0  0  0  0  0  0  0  0
  -22.7502   -8.0589   21.6158 C   0  0  0  0  0  0  0  0  0  0  0  0
  -25.2865  -37.1116   21.1773 C   0  0  0  0  0  0  0  0  0  0  0  0
  -25.6763  -29.9341   19.6901 C   0  0  0  0  0  0  0  0  0  0  0  0
  -25.9419  -35.8755   21.0199 C   0  0  0  0  0  0  0  0  0  0  0  0
  -30.6511  -20.6722   20.5192 C   0  0  0  0  0  0  0  0  0  0  0  0
  -25.6489  -29.1134   20.8267 C   0  0  0  0  0  0  0  0  0  0  0  0
  -31.1009  -18.2988   20.5597 C   0  0  0  0  0  0  0  0  0  0  0  0
  -29.7339  -18.0415   20.6629 C   0  0  0  0  0  0  0  0  0  0  0  0
  -22.4461   -5.3934   17.1574 C   0  0  0  0  0  0  0  0  0  0  0  0
  -27.5637  -27.8845   19.9704 C   0  0  0  0  0  0  0  0  0  0  0  0
  -20.9688   -3.9252   16.0691 C   0  0  0  0  0  0  0  0  0  0  0  0
  -28.8254  -19.0995   20.6943 C   0  0  0  0  0  0  0  0  0  0  0  0
  -18.4345   -2.7725   15.8931 C   0  0  0  0  0  0  0  0  0  0  0  0
  -20.2045   -4.0942   14.9146 C   0  0  0  0  0  0  0  0  0  0  0  0
  -23.1273   -8.1820   20.2650 C   0  0  0  0  0  0  0  0  0  0  0  0
  -23.1975   -9.2166   22.2040 C   0  0  0  0  0  0  0  0  0  0  0  0
  -22.0577   -6.9932   22.2795 C   0  0  0  0  0  0  0  0  0  0  0  0
  -24.9731  -32.3605   21.6192 C   0  0  0  0  0  0  0  0  0  0  0  0
  -22.4548  -30.4814   22.4250 C   0  0  0  0  0  0  0  0  0  0  0  0
  -21.1244  -27.3444   22.6149 C   0  0  0  0  0  0  0  0  0  0  0  0
  -27.5150  -12.8883   21.0613 C   0  0  0  0  0  0  0  0  0  0  0  0
  -24.3621  -37.3771   22.3391 C   0  0  0  0  0  0  0  0  0  0  0  0
  -24.6505  -31.0192   19.5091 C   0  0  0  0  0  0  0  0  0  0  0  0
  -24.6259  -29.3015   21.9161 C   0  0  0  0  0  0  0  0  0  0  0  0
  -23.8763  -36.1074   23.0334 C   0  0  0  0  0  0  0  0  0  0  0  0
  -24.1276  -13.8022   21.2332 C   0  0  0  0  0  0  0  0  0  0  0  0
  -25.0421  -35.1555   23.2821 C   0  0  0  0  0  0  0  0  0  0  0  0
  -23.4403  -12.4407   21.1343 C   0  0  0  0  0  0  0  0  0  0  0  0
  -30.5747  -22.7752   19.1931 C   0  0  0  0  0  0  0  0  0  0  0  0
  -30.7507  -22.8521   21.7130 C   0  0  0  0  0  0  0  0  0  0  0  0
  -25.3274  -13.9082   20.2904 C   0  0  0  0  0  0  0  0  0  0  0  0
  -29.1199  -16.0828   22.0468 C   0  0  0  0  0  0  0  0  0  0  0  0
  -28.3739  -16.2546   19.6677 C   0  0  0  0  0  0  0  0  0  0  0  0
  -29.1102  -14.5617   21.9208 C   0  0  0  0  0  0  0  0  0  0  0  0
  -28.3897  -14.7325   19.5802 C   0  0  0  0  0  0  0  0  0  0  0  0
  -25.6255  -11.4535   20.3485 C   0  0  0  0  0  0  0  0  0  0  0  0
  -30.9907  -24.2392   19.1290 C   0  0  0  0  0  0  0  0  0  0  0  0
  -31.1657  -24.3155   21.6296 C   0  0  0  0  0  0  0  0  0  0  0  0
  -31.1416  -22.0785   20.4420 C   0  0  0  0  0  0  0  0  0  0  0  0
  -25.6889  -34.7187   21.9621 C   0  0  1  0  0  0  0  0  0  0  0  0
  -24.0402  -31.4901   20.8256 C   0  0  1  0  0  0  0  0  0  0  0  0
  -24.4512  -11.2963   21.3270 C   0  0  2  0  0  0  0  0  0  0  0  0
  -32.0971  -17.1856   20.5246 C   0  0  0  0  0  0  0  0  0  0  0  0
  -19.0612  -26.1210   23.3524 C   0  0  0  0  0  0  0  0  0  0  0  0
  -23.3106  -30.7983   25.3366 C   0  0  0  0  0  0  0  0  0  0  0  0
  -21.8484  -28.8474   25.9059 C   0  0  0  0  0  0  0  0  0  0  0  0
  -20.8420  -30.9226   24.9554 C   0  0  0  0  0  0  0  0  0  0  0  0
  -20.6082  -26.3308   19.8827 C   0  0  0  0  0  0  0  0  0  0  0  0
  -26.6336  -20.0137   20.8197 C   0  0  0  0  0  0  0  0  0  0  0  0
  -30.8333  -26.4175   20.3312 C   0  0  0  0  0  0  0  0  0  0  0  0
  -29.7560  -27.0900   19.5033 C   0  0  0  0  0  0  0  0  0  1  0  0
  -22.2082  -29.4100   23.4595 C   0  0  1  0  0  0  0  0  0  0  0  0
  -19.7741  -26.7956   22.1907 C   0  0  2  0  0  0  0  0  0  0  0  0
  -22.0729  -29.9920   24.8949 C   0  0  0  0  0  0  0  0  0  0  0  0
  -23.7648   -9.3276   20.0100 N   0  0  0  0  0  0  0  0  0  0  0  0
  -23.7918   -9.9350   21.2085 N   0  0  0  0  0  0  0  0  0  0  0  0
  -29.2693  -16.7220   20.7349 N   0  0  0  0  0  0  0  0  0  0  0  0
  -23.6480  -30.3798   21.6959 N   0  0  0  0  0  0  0  0  0  0  0  0
  -26.2422  -12.7749   20.4824 N   0  0  0  0  0  0  0  0  0  0  0  0
  -28.1833  -14.1108   20.8899 N   0  0  0  0  0  0  0  0  0  0  0  0
  -23.1364   -9.6801   23.4704 N   0  0  0  0  0  0  0  0  0  0  0  0
  -21.6701   -5.8769   21.5259 N   0  0  0  0  0  0  0  0  0  0  0  0
  -24.8829  -33.7055   21.3154 N   0  0  0  0  0  0  0  0  0  0  0  0
  -21.0397  -28.6644   23.0044 N   0  0  0  0  0  0  0  0  0  0  0  0
  -30.5602  -24.9398   20.3953 N   0  3  0  0  0  0  0  0  0  0  0  0
  -19.9413  -25.7963   21.0978 N   0  3  0  0  0  0  0  0  0  0  0  0
  -21.7761   -7.0371   23.5011 O   0  0  0  0  0  0  0  0  0  0  0  0
  -25.7185  -31.8498   22.4471 O   0  0  0  0  0  0  0  0  0  0  0  0
  -21.6160  -31.3717   22.2647 O   0  0  0  0  0  0  0  0  0  0  0  0
  -22.1509  -26.6686   22.6055 O   0  0  0  0  0  0  0  0  0  0  0  0
  -28.0243  -11.9562   21.6960 O   0  0  0  0  0  0  0  0  0  0  0  0
  -22.2274   -4.4960   16.1577 O   0  0  0  0  0  0  0  0  0  0  0  0
  -27.4855  -18.8706   20.7948 O   0  0  0  0  0  0  0  0  0  0  0  0
  -28.4888  -26.8834   20.1132 O   0  0  0  0  0  0  0  0  0  1  0  0
  -17.2182   -2.2178   15.8081 F   0  0  0  0  0  0  0  0  0  0  0  0
  -20.6826   -4.8083   13.8864 F   0  0  0  0  0  0  0  0  0  0  0  0
  1  2  1  0  0  0  0
  1  5  2  0  0  0  0
  2  6  2  0  0  0  0
  3  8  2  0  0  0  0
  3 17  1  0  0  0  0
  4  9  1  0  0  0  0
  4 17  2  0  0  0  0
  5 19  1  0  0  0  0
  6 21  1  0  0  0  0
  7 10  2  0  0  0  0
  7 20  1  0  0  0  0
  8 26  1  0  0  0  0
  9 26  2  0  0  0  0
 10 27  1  0  0  0  0
 11 12  2  0  0  0  0
 11 28  1  0  0  0  0
 12 30  1  0  0  0  0
 13 22  1  0  0  0  0
 13 24  2  0  0  0  0
 14 22  2  0  0  0  0
 14 29  1  0  0  0  0
 15 23  1  0  0  0  0
 15 27  2  0  0  0  0
 16 30  2  0  0  0  0
 16 31  1  0  0  0  0
 17 32  1  0  0  0  0
 18 32  1  0  0  0  0
 18 33  2  0  0  0  0
 18 34  1  0  0  0  0
 19 21  2  0  0  0  0
 19 39  1  0  0  0  0
 20 23  2  0  0  0  0
 20 40  1  0  0  0  0
 21 57  1  0  0  0  0
 22 56  1  0  0  0  0
 23 41  1  0  0  0  0
 24 25  1  0  0  0  0
 24 60  1  0  0  0  0
 25 29  2  0  0  0  0
 25 74  1  0  0  0  0
 26 89  1  0  0  0  0
 27 91  1  0  0  0  0
 28 31  2  0  0  0  0
 28 89  1  0  0  0  0
 29 90  1  0  0  0  0
 30 92  1  0  0  0  0
 31 93  1  0  0  0  0
 32 72  2  0  0  0  0
 33 73  1  0  0  0  0
 33 78  1  0  0  0  0
 34 79  1  0  0  0  0
 34 84  2  0  0  0  0
 35 58  1  0  0  0  0
 35 80  1  0  0  0  0
 35 85  2  0  0  0  0
 36 69  1  0  0  0  0
 36 75  1  0  0  0  0
 36 86  2  0  0  0  0
 37 70  1  0  0  0  0
 37 81  1  0  0  0  0
 37 87  2  0  0  0  0
 38 76  1  0  0  0  0
 38 77  1  0  0  0  0
 38 88  2  0  0  0  0
 39 42  1  0  0  0  0
 40 58  1  0  0  0  0
 41 75  1  0  0  0  0
 42 44  1  0  0  0  0
 43 45  1  0  0  0  0
 43 48  1  0  0  0  0
 44 57  1  0  0  0  0
 45 59  1  0  0  0  0
 46 54  1  0  0  0  0
 46 56  1  0  0  0  0
 47 55  1  0  0  0  0
 47 56  1  0  0  0  0
 48 76  1  0  0  0  0
 49 51  1  0  0  0  0
 49 74  1  0  0  0  0
 50 52  1  0  0  0  0
 50 74  1  0  0  0  0
 51 77  1  0  0  0  0
 52 77  1  0  0  0  0
 53 59  1  0  0  0  0
 53 76  1  0  0  0  0
 54 82  1  0  0  0  0
 55 82  1  0  0  0  0
 57 80  1  0  0  0  0
 58 75  1  0  0  0  0
 59 73  1  0  0  0  0
 61 70  1  0  0  0  0
 62 71  1  0  0  0  0
 63 71  1  0  0  0  0
 64 71  1  0  0  0  0
 65 83  1  0  0  0  0
 66 90  1  0  0  0  0
 67 68  1  0  0  0  0
 67 82  1  0  0  0  0
 68 91  1  0  0  0  0
 69 71  1  0  0  0  0
 69 81  1  0  0  0  0
 70 83  1  0  0  0  0
 72 73  1  0  0  0  0
M  CHG  2  82   1  83   1
M  ISO  4  38 100  68 101  77 100  91 101
M  END
> <Batch ID>
0155

> <Smiles>
CNC(C)C(=O)NC(C(=O)N1Cc2cc([101O:1][101CH2:1]CN3CCC(c4cc(C)c(N5CC[100N:0]([100C:0](=O)N6CCCC(n7nc(-c8ccc(Oc9ccc(F)cc9F)cc8)c(C(N)=O)c7N)C6)CC5)c(OC)c4)CC3)ccc2CC1C(=O)NC1CCCc2ccccc21)C(C)(C)C

> <Shape>
0.311

> <Color>
0.083

> <Negative vol penalty>
0.000

$$$$

  -OEChem-04052321543D

 92102  0     1  0  0  0  0  0999 V2000
  -28.0905  -34.4487   25.8079 C   0  0  0  0  0  0  0  0  0  0  0  0
  -28.3044  -33.2458   25.1425 C   0  0  0  0  0  0  0  0  0  0  0  0
  -24.4667   -8.6264   22.7673 C   0  0  0  0  0  0  0  0  0  0  0  0
  -24.4477   -8.7287   20.3535 C   0  0  0  0  0  0  0  0  0  0  0  0
  -26.8176  -34.7660   26.2800 C   0  0  0  0  0  0  0  0  0  0  0  0
  -27.2457  -32.3590   24.9498 C   0  0  0  0  0  0  0  0  0  0  0  0
  -27.1133  -30.4845   20.2473 C   0  0  0  0  0  0  0  0  0  0  0  0
  -29.0613  -24.2193   19.5018 C   0  0  0  0  0  0  0  0  0  0  0  0
  -23.2741   -7.9033   22.7460 C   0  0  0  0  0  0  0  0  0  0  0  0
  -23.2551   -8.0055   20.3323 C   0  0  0  0  0  0  0  0  0  0  0  0
  -28.0136  -29.4644   19.9429 C   0  0  0  0  0  0  0  0  0  0  0  0
  -28.9053  -22.9008   19.9293 C   0  0  0  0  0  0  0  0  0  0  0  0
  -20.4239   -5.7192   23.3127 C   0  0  0  0  0  0  0  0  0  0  0  0
  -20.3286   -4.6011   24.1412 C   0  0  0  0  0  0  0  0  0  0  0  0
  -26.7325  -24.2876   18.8622 C   0  0  0  0  0  0  0  0  0  0  0  0
  -26.2605  -27.8352   20.2449 C   0  0  0  0  0  0  0  0  0  0  0  0
  -22.2074   -3.5966   23.0018 C   0  0  0  0  0  0  0  0  0  0  0  0
  -25.0535   -9.0392   21.5710 C   0  0  0  0  0  0  0  0  0  0  0  0
  -27.5206   -9.3744   22.1266 C   0  0  0  0  0  0  0  0  0  0  0  0
  -25.7406  -33.8871   26.0844 C   0  0  0  0  0  0  0  0  0  0  0  0
  -25.7802  -30.1862   20.5639 C   0  0  0  0  0  0  0  0  0  0  0  0
  -25.9574  -32.6643   25.4208 C   0  0  0  0  0  0  0  0  0  0  0  0
  -26.5764  -22.9690   19.2897 C   0  0  0  0  0  0  0  0  0  0  0  0
  -25.3446  -28.8535   20.5504 C   0  0  0  0  0  0  0  0  0  0  0  0
  -27.9749  -24.9127   18.9683 C   0  0  0  0  0  0  0  0  0  0  0  0
  -22.6683   -7.5928   21.5285 C   0  0  0  0  0  0  0  0  0  0  0  0
  -27.5880  -28.1393   19.9445 C   0  0  0  0  0  0  0  0  0  0  0  0
  -27.6629  -22.2756   19.8232 C   0  0  0  0  0  0  0  0  0  0  0  0
  -21.4109   -5.7759   22.3286 C   0  0  0  0  0  0  0  0  0  0  0  0
  -21.2203   -3.5398   23.9858 C   0  0  0  0  0  0  0  0  0  0  0  0
  -22.3027   -4.7147   22.1732 C   0  0  0  0  0  0  0  0  0  0  0  0
  -26.2851   -9.7867   21.5924 C   0  0  0  0  0  0  0  0  0  0  0  0
  -28.3639  -10.4344   21.8991 C   0  0  0  0  0  0  0  0  0  0  0  0
  -27.8744   -8.1433   22.7707 C   0  0  0  0  0  0  0  0  0  0  0  0
  -23.9358  -30.5975   23.1199 C   0  0  0  0  0  0  0  0  0  0  0  0
  -21.6185  -29.4789   21.1448 C   0  0  0  0  0  0  0  0  0  0  0  0
  -18.9377  -28.1067   19.5394 C   0  0  0  0  0  0  0  0  0  0  0  0
  -27.5861  -16.1321   21.3342 C   0  0  0  0  0  0  0  0  0  0  0  0
  -24.3928  -34.2523   26.6542 C   0  0  0  0  0  0  0  0  0  0  0  0
  -24.8150  -31.3001   20.8639 C   0  0  0  0  0  0  0  0  0  0  0  0
  -23.9190  -28.4819   20.8637 C   0  0  0  0  0  0  0  0  0  0  0  0
  -23.2446  -33.4267   26.0796 C   0  0  0  0  0  0  0  0  0  0  0  0
  -29.0760  -14.0871   18.9010 C   0  0  0  0  0  0  0  0  0  0  0  0
  -23.6085  -31.9454   26.0624 C   0  0  0  0  0  0  0  0  0  0  0  0
  -28.6473  -12.6967   19.3694 C   0  0  0  0  0  0  0  0  0  0  0  0
  -29.2820  -19.3505   20.6175 C   0  0  0  0  0  0  0  0  0  0  0  0
  -27.4689  -18.9718   18.8915 C   0  0  0  0  0  0  0  0  0  0  0  0
  -24.6020  -22.2332   17.7717 C   0  0  0  0  0  0  0  0  0  0  0  0
  -27.9497  -15.1122   19.0435 C   0  0  0  0  0  0  0  0  0  0  0  0
  -28.5542  -18.3899   21.5567 C   0  0  0  0  0  0  0  0  0  0  0  0
  -26.7812  -18.0234   19.8710 C   0  0  0  0  0  0  0  0  0  0  0  0
  -26.9361  -13.7875   20.8694 C   0  0  0  0  0  0  0  0  0  0  0  0
  -23.1703  -21.8335   18.0587 C   0  0  0  0  0  0  0  0  0  0  0  0
  -24.1219  -23.0048   19.9791 C   0  0  0  0  0  0  0  0  0  0  0  0
  -25.2209  -22.3068   19.1683 C   0  0  2  0  0  0  0  0  0  0  0  0
  -24.8290  -31.6876   25.1705 C   0  0  1  0  0  0  0  0  0  0  0  0
  -23.6065  -30.8415   21.6743 C   0  0  1  0  0  0  0  0  0  0  0  0
  -28.0655  -12.7483   20.7933 C   0  0  1  0  0  0  0  0  0  0  0  0
  -28.3452  -20.0051   19.6016 C   0  0  0  0  0  0  0  0  0  0  0  0
  -28.9249  -25.8138   16.1337 C   0  0  0  0  0  0  0  0  0  0  0  0
  -16.7390  -26.9821   19.9846 C   0  0  0  0  0  0  0  0  0  0  0  0
  -23.0858  -26.9059   21.8776 C   0  0  0  0  0  0  0  0  0  0  0  0
  -20.9808  -25.6457   21.3786 C   0  0  0  0  0  0  0  0  0  0  0  0
  -21.0136  -27.3405   23.2087 C   0  0  0  0  0  0  0  0  0  0  0  0
  -21.8017  -22.0063   20.1638 C   0  0  0  0  0  0  0  0  0  0  0  0
  -17.4325  -30.2395   18.1449 C   0  0  0  0  0  0  0  0  0  0  0  0
  -29.2358  -26.5242   17.4427 C   0  0  0  0  0  0  0  0  0  0  0  0
  -28.1421  -26.3229   18.5129 C   0  0  2  0  0  0  0  0  0  1  0  0
  -21.0730  -28.1136   20.8023 C   0  0  1  0  0  0  0  0  0  0  0  0
  -17.4439  -28.3041   19.7238 C   0  0  2  0  0  0  0  0  0  0  0  0
  -21.5502  -27.0180   21.7971 C   0  0  0  0  0  0  0  0  0  0  0  0
  -26.3346  -11.0130   21.0654 N   0  0  0  0  0  0  0  0  0  0  0  0
  -27.6114  -11.3805   21.2675 N   0  0  0  0  0  0  0  0  0  0  0  0
  -23.0147  -29.6061   21.1568 N   0  0  0  0  0  0  0  0  0  0  0  0
  -27.4009  -15.0965   20.4060 N   0  0  0  0  0  0  0  0  0  0  0  0
  -27.7364  -17.4298   20.8163 N   0  0  0  0  0  0  0  0  0  0  0  0
  -29.6682  -10.6403   22.1799 N   0  0  0  0  0  0  0  0  0  0  0  0
  -28.3502   -7.0883   21.9801 N   0  0  0  0  0  0  0  0  0  0  0  0
  -24.4470  -31.7018   23.7746 N   0  0  0  0  0  0  0  0  0  0  0  0
  -19.6235  -28.2606   20.7257 N   0  0  0  0  0  0  0  0  0  0  0  0
  -22.8216  -22.6500   19.2799 N   0  3  2  0  0  0  0  0  0  0  0  0
  -16.8486  -28.9218   18.5052 N   0  3  0  0  0  0  0  0  0  0  0  0
  -27.7561   -7.9780   24.0085 O   0  0  0  0  0  0  0  0  0  0  0  0
  -23.7393  -29.4898   23.6057 O   0  0  0  0  0  0  0  0  0  0  0  0
  -20.8346  -30.4003   21.3857 O   0  0  0  0  0  0  0  0  0  0  0  0
  -19.4450  -27.8389   18.4525 O   0  0  0  0  0  0  0  0  0  0  0  0
  -27.6193  -15.9132   22.5515 O   0  0  0  0  0  0  0  0  0  0  0  0
  -21.5048   -6.8870   21.5074 O   0  0  0  0  0  0  0  0  0  0  0  0
  -27.5280  -20.9796   20.2464 O   0  0  0  0  0  0  0  0  0  0  0  0
  -28.4672  -27.1390   19.6476 O   0  0  0  0  0  0  0  0  0  1  0  0
  -21.1297   -2.4669   24.7825 F   0  0  0  0  0  0  0  0  0  0  0  0
  -23.2538   -4.7640   21.2304 F   0  0  0  0  0  0  0  0  0  0  0  0
  1  2  1  0  0  0  0
  1  5  2  0  0  0  0
  2  6  2  0  0  0  0
  3  9  2  0  0  0  0
  3 18  1  0  0  0  0
  4 10  1  0  0  0  0
  4 18  2  0  0  0  0
  5 20  1  0  0  0  0
  6 22  1  0  0  0  0
  7 11  2  0  0  0  0
  7 21  1  0  0  0  0
  8 12  2  0  0  0  0
  8 25  1  0  0  0  0
  9 26  1  0  0  0  0
 10 26  2  0  0  0  0
 11 27  1  0  0  0  0
 12 28  1  0  0  0  0
 13 14  2  0  0  0  0
 13 29  1  0  0  0  0
 14 30  1  0  0  0  0
 15 23  1  0  0  0  0
 15 25  2  0  0  0  0
 16 24  1  0  0  0  0
 16 27  2  0  0  0  0
 17 30  2  0  0  0  0
 17 31  1  0  0  0  0
 18 32  1  0  0  0  0
 19 32  1  0  0  0  0
 19 33  2  0  0  0  0
 19 34  1  0  0  0  0
 20 22  2  0  0  0  0
 20 39  1  0  0  0  0
 21 24  2  0  0  0  0
 21 40  1  0  0  0  0
 22 56  1  0  0  0  0
 23 28  2  0  0  0  0
 23 55  1  0  0  0  0
 24 41  1  0  0  0  0
 25 68  1  0  0  0  0
 26 88  1  0  0  0  0
 27 90  1  0  0  0  0
 28 89  1  0  0  0  0
 29 31  2  0  0  0  0
 29 88  1  0  0  0  0
 30 91  1  0  0  0  0
 31 92  1  0  0  0  0
 32 72  2  0  0  0  0
 33 73  1  0  0  0  0
 33 77  1  0  0  0  0
 34 78  1  0  0  0  0
 34 83  2  0  0  0  0
 35 57  1  0  0  0  0
 35 79  1  0  0  0  0
 35 84  2  0  0  0  0
 36 69  1  0  0  0  0
 36 74  1  0  0  0  0
 36 85  2  0  0  0  0
 37 70  1  0  0  0  0
 37 80  1  0  0  0  0
 37 86  2  0  0  0  0
 38 75  1  0  0  0  0
 38 76  1  0  0  0  0
 38 87  2  0  0  0  0
 39 42  1  0  0  0  0
 40 57  1  0  0  0  0
 41 74  1  0  0  0  0
 42 44  1  0  0  0  0
 43 45  1  0  0  0  0
 43 49  1  0  0  0  0
 44 56  1  0  0  0  0
 45 58  1  0  0  0  0
 46 50  1  0  0  0  0
 46 59  1  0  0  0  0
 47 51  1  0  0  0  0
 47 59  1  0  0  0  0
 48 53  1  0  0  0  0
 48 55  1  0  0  0  0
 49 75  1  0  0  0  0
 50 76  1  0  0  0  0
 51 76  1  0  0  0  0
 52 58  1  0  0  0  0
 52 75  1  0  0  0  0
 53 81  1  0  0  0  0
 54 55  1  0  0  0  0
 54 81  1  0  0  0  0
 56 79  1  0  0  0  0
 57 74  1  0  0  0  0
 58 73  1  0  0  0  0
 59 89  1  0  0  0  0
 60 67  1  0  0  0  0
 61 70  1  0  0  0  0
 62 71  1  0  0  0  0
 63 71  1  0  0  0  0
 64 71  1  0  0  0  0
 65 81  1  0  0  0  0
 66 82  1  0  0  0  0
 67 68  1  0  0  0  0
 68 90  1  0  0  0  0
 69 71  1  0  0  0  0
 69 80  1  0  0  0  0
 70 82  1  0  0  0  0
 72 73  1  0  0  0  0
M  CHG  2  81   1  82   1
M  ISO  4  38 100  68 101  76 100  90 101
M  END
> <Batch ID>
0155

> <Smiles>
CC[101CH:1](c1ccc(OC2CC[100N:0]([100C:0](=O)N3CCCC(n4nc(-c5ccc(Oc6ccc(F)cc6F)cc5)c(C(N)=O)c4N)C3)CC2)c(C2CCN(C)C2)c1)[101O:1]c1ccc2c(c1)CN(C(=O)C(NC(=O)C(C)NC)C(C)(C)C)C(C(=O)NC1CCCc3ccccc31)C2

> <Shape>
0.302

> <Color>
0.087

> <Negative vol penalty>
0.000

$$$$

  -OEChem-04052321543D

 92102  0     1  0  0  0  0  0999 V2000
  -26.5141  -39.3697   23.7113 C   0  0  0  0  0  0  0  0  0  0  0  0
  -27.4604  -38.4439   24.1386 C   0  0  0  0  0  0  0  0  0  0  0  0
  -21.4223   -7.0683   23.0490 C   0  0  0  0  0  0  0  0  0  0  0  0
  -23.7879   -7.0374   23.5391 C   0  0  0  0  0  0  0  0  0  0  0  0
  -25.1562  -39.0624   23.7870 C   0  0  0  0  0  0  0  0  0  0  0  0
  -27.0494  -37.2106   24.6431 C   0  0  0  0  0  0  0  0  0  0  0  0
  -29.2146  -31.0512   21.5993 C   0  0  0  0  0  0  0  0  0  0  0  0
  -21.1886   -6.2092   24.1227 C   0  0  0  0  0  0  0  0  0  0  0  0
  -23.5542   -6.1783   24.6129 C   0  0  0  0  0  0  0  0  0  0  0  0
  -29.7539  -29.8272   21.2029 C   0  0  0  0  0  0  0  0  0  0  0  0
  -22.4427   -6.4170   27.7954 C   0  0  0  0  0  0  0  0  0  0  0  0
  -23.0888   -6.6966   28.9995 C   0  0  0  0  0  0  0  0  0  0  0  0
  -26.8454  -21.9494   22.1349 C   0  0  0  0  0  0  0  0  0  0  0  0
  -28.3516  -28.6787   22.8037 C   0  0  0  0  0  0  0  0  0  0  0  0
  -27.3231  -19.9038   20.2992 C   0  0  0  0  0  0  0  0  0  0  0  0
  -24.1862   -4.5461   28.9100 C   0  0  0  0  0  0  0  0  0  0  0  0
  -22.7220   -7.4824   22.7571 C   0  0  0  0  0  0  0  0  0  0  0  0
  -22.6697   -8.1341   20.2913 C   0  0  0  0  0  0  0  0  0  0  0  0
  -24.7287  -37.8210   24.2837 C   0  0  0  0  0  0  0  0  0  0  0  0
  -28.2295  -31.0922   22.5899 C   0  0  0  0  0  0  0  0  0  0  0  0
  -25.6845  -36.8870   24.7269 C   0  0  0  0  0  0  0  0  0  0  0  0
  -27.8282  -22.1051   21.1574 C   0  0  0  0  0  0  0  0  0  0  0  0
  -27.7988  -29.9007   23.1961 C   0  0  0  0  0  0  0  0  0  0  0  0
  -26.1016  -20.7709   22.1947 C   0  0  0  0  0  0  0  0  0  0  0  0
  -28.0670  -21.0823   20.2395 C   0  0  0  0  0  0  0  0  0  0  0  0
  -26.3404  -19.7481   21.2767 C   0  0  0  0  0  0  0  0  0  0  0  0
  -22.2545   -5.7643   24.9047 C   0  0  0  0  0  0  0  0  0  0  0  0
  -29.3237  -28.6440   21.8038 C   0  0  0  0  0  0  0  0  0  0  0  0
  -22.6683   -5.2019   27.1485 C   0  0  0  0  0  0  0  0  0  0  0  0
  -23.9605   -5.7612   29.5569 C   0  0  0  0  0  0  0  0  0  0  0  0
  -23.5401   -4.2665   27.7059 C   0  0  0  0  0  0  0  0  0  0  0  0
  -22.9642   -8.3693   21.6477 C   0  0  0  0  0  0  0  0  0  0  0  0
  -23.0889   -9.2722   19.6466 C   0  0  0  0  0  0  0  0  0  0  0  0
  -22.0707   -6.9893   19.6697 C   0  0  0  0  0  0  0  0  0  0  0  0
  -25.9022  -33.1993   24.6441 C   0  0  0  0  0  0  0  0  0  0  0  0
  -24.3511  -30.6751   23.8486 C   0  0  0  0  0  0  0  0  0  0  0  0
  -22.8657  -27.9609   22.4120 C   0  0  0  0  0  0  0  0  0  0  0  0
  -23.6629  -14.8018   21.2345 C   0  0  0  0  0  0  0  0  0  0  0  0
  -23.2484  -37.5526   24.3904 C   0  0  0  0  0  0  0  0  0  0  0  0
  -27.6648  -32.3935   23.0915 C   0  0  0  0  0  0  0  0  0  0  0  0
  -26.7619  -29.9962   24.2818 C   0  0  0  0  0  0  0  0  0  0  0  0
  -22.9096  -36.0774   24.5886 C   0  0  0  0  0  0  0  0  0  0  0  0
  -26.2762  -12.8167   19.9816 C   0  0  0  0  0  0  0  0  0  0  0  0
  -28.8290  -23.9921   22.5170 C   0  0  0  0  0  0  0  0  0  0  0  0
  -27.9914  -24.4269   20.1614 C   0  0  0  0  0  0  0  0  0  0  0  0
  -23.8017  -35.4645   25.6634 C   0  0  0  0  0  0  0  0  0  0  0  0
  -25.6920  -11.4128   20.1356 C   0  0  0  0  0  0  0  0  0  0  0  0
  -29.6381  -25.2854   22.4610 C   0  0  0  0  0  0  0  0  0  0  0  0
  -28.8052  -25.7175   20.1176 C   0  0  0  0  0  0  0  0  0  0  0  0
  -25.9482  -13.7086   21.1801 C   0  0  0  0  0  0  0  0  0  0  0  0
  -24.8022  -18.1629   20.1591 C   0  0  0  0  0  0  0  0  0  0  0  0
  -26.1131  -17.4721   22.1717 C   0  0  0  0  0  0  0  0  0  0  0  0
  -23.7103  -17.1717   20.5527 C   0  0  0  0  0  0  0  0  0  0  0  0
  -24.9934  -16.5035   22.5361 C   0  0  0  0  0  0  0  0  0  0  0  0
  -23.9204  -12.3739   21.6540 C   0  0  0  0  0  0  0  0  0  0  0  0
  -28.6250  -23.3961   21.1127 C   0  0  0  0  0  0  0  0  0  0  0  0
  -25.2789  -35.5288   25.2570 C   0  0  1  0  0  0  0  0  0  0  0  0
  -26.1778  -32.2974   23.4771 C   0  0  1  0  0  0  0  0  0  0  0  0
  -24.1841  -11.4722   20.4380 C   0  0  2  0  0  0  0  0  0  0  0  0
  -29.0088  -26.3042   21.5124 C   0  0  0  0  0  0  0  0  0  1  0  0
  -25.0570  -20.6298   23.2537 C   0  0  0  0  0  0  0  0  0  0  0  0
  -28.5262  -21.1788   17.7629 C   0  0  0  0  0  0  0  0  0  0  0  0
  -30.2351  -20.1795   19.3237 C   0  0  0  0  0  0  0  0  0  0  0  0
  -20.6754  -26.7410   22.3042 C   0  0  0  0  0  0  0  0  0  0  0  0
  -24.8677  -29.5103   26.6200 C   0  0  0  0  0  0  0  0  0  0  0  0
  -23.2601  -27.6717   26.0691 C   0  0  0  0  0  0  0  0  0  0  0  0
  -22.4706  -30.0369   26.1395 C   0  0  0  0  0  0  0  0  0  0  0  0
  -22.6331  -28.3985   19.4942 C   0  0  0  0  0  0  0  0  0  0  0  0
  -29.1146  -21.2264   19.1849 C   0  0  0  0  0  0  0  0  0  0  0  0
  -23.9346  -29.2755   24.2241 C   0  0  1  0  0  0  0  0  0  0  0  0
  -21.5519  -27.8079   21.6670 C   0  0  2  0  0  0  0  0  0  0  0  0
  -23.6559  -29.1285   25.7466 C   0  0  0  0  0  0  0  0  0  0  0  0
  -23.5271   -9.5629   21.8537 N   0  0  0  0  0  0  0  0  0  0  0  0
  -23.5898  -10.0879   20.6182 N   0  0  0  0  0  0  0  0  0  0  0  0
  -25.6036  -18.5577   21.3226 N   0  0  0  0  0  0  0  0  0  0  0  0
  -25.7206  -30.9623   23.8984 N   0  0  0  0  0  0  0  0  0  0  0  0
  -24.5051  -13.7016   21.4548 N   0  0  0  0  0  0  0  0  0  0  0  0
  -24.2392  -16.0760   21.3559 N   0  0  0  0  0  0  0  0  0  0  0  0
  -23.0743   -9.6446   18.3491 N   0  0  0  0  0  0  0  0  0  0  0  0
  -22.9072   -5.9567   19.2244 N   0  0  0  0  0  0  0  0  0  0  0  0
  -25.5825  -34.4961   24.2897 N   0  0  0  0  0  0  0  0  0  0  0  0
  -22.7957  -28.9466   23.3737 N   0  0  0  0  0  0  0  0  0  0  0  0
  -21.8023  -27.4251   20.2486 N   0  3  0  0  0  0  0  0  0  0  0  0
  -20.8317   -6.8926   19.4990 O   0  0  0  0  0  0  0  0  0  0  0  0
  -25.9727  -32.7524   25.7829 O   0  0  0  0  0  0  0  0  0  0  0  0
  -23.4873  -31.4952   23.5251 O   0  0  0  0  0  0  0  0  0  0  0  0
  -23.8539  -27.2722   22.1679 O   0  0  0  0  0  0  0  0  0  0  0  0
  -22.4691  -14.6568   20.9437 O   0  0  0  0  0  0  0  0  0  0  0  0
  -22.0268   -4.9262   25.9527 O   0  0  0  0  0  0  0  0  0  0  0  0
  -29.8545  -27.4443   21.4062 O   0  0  0  0  0  0  0  0  0  1  0  0
  -24.5821   -6.0304   30.7125 F   0  0  0  0  0  0  0  0  0  0  0  0
  -23.7618   -3.0979   27.0885 F   0  0  0  0  0  0  0  0  0  0  0  0
  1  2  1  0  0  0  0
  1  5  2  0  0  0  0
  2  6  2  0  0  0  0
  3  8  2  0  0  0  0
  3 17  1  0  0  0  0
  4  9  1  0  0  0  0
  4 17  2  0  0  0  0
  5 19  1  0  0  0  0
  6 21  1  0  0  0  0
  7 10  2  0  0  0  0
  7 20  1  0  0  0  0
  8 27  1  0  0  0  0
  9 27  2  0  0  0  0
 10 28  1  0  0  0  0
 11 12  2  0  0  0  0
 11 29  1  0  0  0  0
 12 30  1  0  0  0  0
 13 22  1  0  0  0  0
 13 24  2  0  0  0  0
 14 23  1  0  0  0  0
 14 28  2  0  0  0  0
 15 25  1  0  0  0  0
 15 26  2  0  0  0  0
 16 30  2  0  0  0  0
 16 31  1  0  0  0  0
 17 32  1  0  0  0  0
 18 32  1  0  0  0  0
 18 33  2  0  0  0  0
 18 34  1  0  0  0  0
 19 21  2  0  0  0  0
 19 39  1  0  0  0  0
 20 23  2  0  0  0  0
 20 40  1  0  0  0  0
 21 57  1  0  0  0  0
 22 25  2  0  0  0  0
 22 56  1  0  0  0  0
 23 41  1  0  0  0  0
 24 26  1  0  0  0  0
 24 61  1  0  0  0  0
 25 69  1  0  0  0  0
 26 75  1  0  0  0  0
 27 89  1  0  0  0  0
 28 90  1  0  0  0  0
 29 31  2  0  0  0  0
 29 89  1  0  0  0  0
 30 91  1  0  0  0  0
 31 92  1  0  0  0  0
 32 73  2  0  0  0  0
 33 74  1  0  0  0  0
 33 79  1  0  0  0  0
 34 80  1  0  0  0  0
 34 84  2  0  0  0  0
 35 58  1  0  0  0  0
 35 81  1  0  0  0  0
 35 85  2  0  0  0  0
 36 70  1  0  0  0  0
 36 76  1  0  0  0  0
 36 86  2  0  0  0  0
 37 71  1  0  0  0  0
 37 82  1  0  0  0  0
 37 87  2  0  0  0  0
 38 77  1  0  0  0  0
 38 78  1  0  0  0  0
 38 88  2  0  0  0  0
 39 42  1  0  0  0  0
 40 58  1  0  0  0  0
 41 76  1  0  0  0  0
 42 46  1  0  0  0  0
 43 47  1  0  0  0  0
 43 50  1  0  0  0  0
 44 48  1  0  0  0  0
 44 56  1  0  0  0  0
 45 49  1  0  0  0  0
 45 56  1  0  0  0  0
 46 57  1  0  0  0  0
 47 59  1  0  0  0  0
 48 60  1  0  0  0  0
 49 60  1  0  0  0  0
 50 77  1  0  0  0  0
 51 53  1  0  0  0  0
 51 75  1  0  0  0  0
 52 54  1  0  0  0  0
 52 75  1  0  0  0  0
 53 78  1  0  0  0  0
 54 78  1  0  0  0  0
 55 59  1  0  0  0  0
 55 77  1  0  0  0  0
 57 81  1  0  0  0  0
 58 76  1  0  0  0  0
 59 74  1  0  0  0  0
 60 90  1  0  0  0  0
 62 69  1  0  0  0  0
 63 69  1  0  0  0  0
 64 71  1  0  0  0  0
 65 72  1  0  0  0  0
 66 72  1  0  0  0  0
 67 72  1  0  0  0  0
 68 83  1  0  0  0  0
 70 72  1  0  0  0  0
 70 82  1  0  0  0  0
 71 83  1  0  0  0  0
 73 74  1  0  0  0  0
M  CHG  1  83   1
M  ISO  4  38 100  60 101  78 100  90 101
M  END
> <Batch ID>
0155

> <Smiles>
CNC(C)C(=O)NC(C(=O)N1Cc2cc([101O:1][101CH:1]3CCC(c4cc(C)c(N5CC[100N:0]([100C:0](=O)N6CCCC(n7nc(-c8ccc(Oc9ccc(F)cc9F)cc8)c(C(N)=O)c7N)C6)CC5)cc4C(C)C)CC3)ccc2CC1C(=O)NC1CCCc2ccccc21)C(C)(C)C

> <Shape>
0.274

> <Color>
0.080

> <Negative vol penalty>
0.000

$$$$

  -OEChem-04052321543D

 87 96  0     1  0  0  0  0  0999 V2000
  -24.1456  -23.3624   25.3963 C   0  0  0  0  0  0  0  0  0  0  0  0
  -24.8779  -24.0557   24.4380 C   0  0  0  0  0  0  0  0  0  0  0  0
  -23.6055  -12.5210   21.2466 C   0  0  0  0  0  0  0  0  0  0  0  0
  -24.6109  -12.2334   19.0686 C   0  0  0  0  0  0  0  0  0  0  0  0
  -22.9082  -23.8504   25.8141 C   0  0  0  0  0  0  0  0  0  0  0  0
  -24.3727  -25.2370   23.8961 C   0  0  0  0  0  0  0  0  0  0  0  0
  -27.8620  -28.8969   23.6220 C   0  0  0  0  0  0  0  0  0  0  0  0
  -22.5687  -11.6624   20.8814 C   0  0  0  0  0  0  0  0  0  0  0  0
  -23.5741  -11.3748   18.7034 C   0  0  0  0  0  0  0  0  0  0  0  0
  -28.7837  -28.8210   22.5787 C   0  0  0  0  0  0  0  0  0  0  0  0
  -19.8483   -9.2624   20.6482 C   0  0  0  0  0  0  0  0  0  0  0  0
  -19.4592   -8.2878   21.5671 C   0  0  0  0  0  0  0  0  0  0  0  0
  -27.5090  -30.4534   21.3419 C   0  0  0  0  0  0  0  0  0  0  0  0
  -30.9882  -25.4499   18.7977 C   0  0  0  0  0  0  0  0  0  0  0  0
  -21.6868   -7.3536   21.5196 C   0  0  0  0  0  0  0  0  0  0  0  0
  -28.6930  -26.8036   18.2105 C   0  0  0  0  0  0  0  0  0  0  0  0
  -24.6266  -12.8066   20.3402 C   0  0  0  0  0  0  0  0  0  0  0  0
  -26.9174  -13.3436   21.3259 C   0  0  0  0  0  0  0  0  0  0  0  0
  -22.3919  -25.0434   25.2842 C   0  0  0  0  0  0  0  0  0  0  0  0
  -26.7491  -29.7449   23.5283 C   0  0  0  0  0  0  0  0  0  0  0  0
  -23.1266  -25.7407   24.3062 C   0  0  0  0  0  0  0  0  0  0  0  0
  -26.5760  -30.5401   22.3864 C   0  0  0  0  0  0  0  0  0  0  0  0
  -29.8741  -27.5225   18.3006 C   0  0  0  0  0  0  0  0  0  0  0  0
  -22.5530  -11.0892   19.6098 C   0  0  0  0  0  0  0  0  0  0  0  0
  -28.6058  -29.5971   21.4372 C   0  0  0  0  0  0  0  0  0  0  0  0
  -21.1566   -9.2825   20.1649 C   0  0  0  0  0  0  0  0  0  0  0  0
  -31.0391  -26.8253   18.6002 C   0  0  0  0  0  0  0  0  0  0  0  0
  -20.3784   -7.3335   22.0029 C   0  0  0  0  0  0  0  0  0  0  0  0
  -22.0759   -8.3281   20.6006 C   0  0  0  0  0  0  0  0  0  0  0  0
  -25.6976  -13.6939   20.7167 C   0  0  0  0  0  0  0  0  0  0  0  0
  -29.7573  -24.8238   18.6856 C   0  0  0  0  0  0  0  0  0  0  0  0
  -27.5821  -14.5363   21.4743 C   0  0  0  0  0  0  0  0  0  0  0  0
  -27.4060  -12.0552   21.7220 C   0  0  0  0  0  0  0  0  0  0  0  0
  -23.5992  -29.3191   23.5159 C   0  0  0  0  0  0  0  0  0  0  0  0
  -23.5524  -32.5622   23.5684 C   0  0  0  0  0  0  0  0  0  0  0  0
  -25.1619  -35.4943   22.8909 C   0  0  0  0  0  0  0  0  0  0  0  0
  -29.2854  -19.3123   19.7042 C   0  0  0  0  0  0  0  0  0  0  0  0
  -21.0283  -25.5065   25.7322 C   0  0  0  0  0  0  0  0  0  0  0  0
  -25.7784  -29.8352   24.6737 C   0  0  0  0  0  0  0  0  0  0  0  0
  -25.4090  -31.4816   22.2452 C   0  0  0  0  0  0  0  0  0  0  0  0
  -20.7346  -26.9632   25.3827 C   0  0  0  0  0  0  0  0  0  0  0  0
  -25.9889  -19.2972   20.9176 C   0  0  0  0  0  0  0  0  0  0  0  0
  -21.1215  -27.2535   23.9361 C   0  0  0  0  0  0  0  0  0  0  0  0
  -25.7111  -17.7980   21.0236 C   0  0  0  0  0  0  0  0  0  0  0  0
  -26.7742  -19.6464   19.6524 C   0  0  0  0  0  0  0  0  0  0  0  0
  -30.1543  -22.8866   20.1747 C   0  0  0  0  0  0  0  0  0  0  0  0
  -28.7169  -22.6662   18.1421 C   0  0  0  0  0  0  0  0  0  0  0  0
  -30.5317  -21.4133   20.0452 C   0  0  0  0  0  0  0  0  0  0  0  0
  -29.1293  -21.2018   18.0413 C   0  0  0  0  0  0  0  0  0  0  0  0
  -27.7475  -17.3732   19.5954 C   0  0  0  0  0  0  0  0  0  0  0  0
  -22.6234  -27.0388   23.7130 C   0  0  1  0  0  0  0  0  0  0  0  0
  -24.4051  -30.3503   24.2539 C   0  0  1  0  0  0  0  0  0  0  0  0
  -27.0103  -16.9845   20.8864 C   0  0  2  0  0  0  0  0  0  0  0  0
  -29.4377  -29.3674   16.6460 C   0  0  0  0  0  0  0  0  0  0  0  0
  -24.8554  -37.9822   23.0072 C   0  0  0  0  0  0  0  0  0  0  0  0
  -21.7409  -32.4511   21.1156 C   0  0  0  0  0  0  0  0  0  0  0  0
  -22.2430  -34.8721   20.7216 C   0  0  0  0  0  0  0  0  0  0  0  0
  -21.0893  -34.1643   22.8170 C   0  0  0  0  0  0  0  0  0  0  0  0
  -27.4513  -35.8066   24.7403 C   0  0  0  0  0  0  0  0  0  0  0  0
  -33.3766  -26.6784   19.0128 C   0  0  0  0  0  0  0  0  0  0  0  0
  -29.0102  -29.7654   19.0997 C   0  0  0  0  0  0  0  0  0  1  0  0
  -29.8780  -28.9946   18.0770 C   0  0  1  0  0  0  0  0  0  0  0  0
  -23.5465  -33.6484   22.5201 C   0  0  1  0  0  0  0  0  0  0  0  0
  -25.3708  -36.7449   23.7256 C   0  0  2  0  0  0  0  0  0  0  0  0
  -22.1760  -33.7649   21.7951 C   0  0  0  0  0  0  0  0  0  0  0  0
  -28.6043  -25.4675   18.3959 N   0  0  0  0  0  0  0  0  0  0  0  0
  -25.5909  -15.0065   20.4936 N   0  0  0  0  0  0  0  0  0  0  0  0
  -26.7522  -15.4914   20.9652 N   0  0  0  0  0  0  0  0  0  0  0  0
  -29.7220  -23.4379   18.8859 N   0  0  0  0  0  0  0  0  0  0  0  0
  -24.4839  -31.5296   23.3895 N   0  0  0  0  0  0  0  0  0  0  0  0
  -27.9824  -18.8177   19.5441 N   0  0  0  0  0  0  0  0  0  0  0  0
  -29.5039  -20.6517   19.3457 N   0  0  0  0  0  0  0  0  0  0  0  0
  -28.7896  -14.8509   21.9894 N   0  0  0  0  0  0  0  0  0  0  0  0
  -26.5949  -10.9347   21.4964 N   0  0  0  0  0  0  0  0  0  0  0  0
  -23.3769  -28.1594   24.2335 N   0  0  0  0  0  0  0  0  0  0  0  0
  -23.9709  -34.8699   23.1955 N   0  0  0  0  0  0  0  0  0  0  0  0
  -26.8198  -36.9387   24.0148 N   0  3  0  0  0  0  0  0  0  0  0  0
  -28.5217  -11.9041   22.2751 O   0  0  0  0  0  0  0  0  0  0  0  0
  -23.2066  -29.5586   22.3799 O   0  0  0  0  0  0  0  0  0  0  0  0
  -22.7646  -32.6311   24.5151 O   0  0  0  0  0  0  0  0  0  0  0  0
  -25.9725  -35.1117   22.0500 O   0  0  0  0  0  0  0  0  0  0  0  0
  -30.1990  -18.6030   20.1436 O   0  0  0  0  0  0  0  0  0  0  0  0
  -21.5416  -10.2511   19.2532 O   0  0  0  0  0  0  0  0  0  0  0  0
  -32.2330  -27.4724   18.7022 O   0  0  0  0  0  0  0  0  0  0  0  0
  -29.5095  -29.5240   20.4104 O   0  0  0  0  0  0  0  0  0  1  0  0
  -20.0051   -6.3986   22.8865 F   0  0  0  0  0  0  0  0  0  0  0  0
  -23.3345   -8.3431   20.1407 F   0  0  0  0  0  0  0  0  0  0  0  0
  1  2  1  0  0  0  0
  1  5  2  0  0  0  0
  2  6  2  0  0  0  0
  3  8  2  0  0  0  0
  3 17  1  0  0  0  0
  4  9  1  0  0  0  0
  4 17  2  0  0  0  0
  5 19  1  0  0  0  0
  6 21  1  0  0  0  0
  7 10  2  0  0  0  0
  7 20  1  0  0  0  0
  8 24  1  0  0  0  0
  9 24  2  0  0  0  0
 10 25  1  0  0  0  0
 11 12  2  0  0  0  0
 11 26  1  0  0  0  0
 12 28  1  0  0  0  0
 13 22  1  0  0  0  0
 13 25  2  0  0  0  0
 14 27  1  0  0  0  0
 14 31  2  0  0  0  0
 15 28  2  0  0  0  0
 15 29  1  0  0  0  0
 16 23  1  0  0  0  0
 16 66  2  0  0  0  0
 17 30  1  0  0  0  0
 18 30  1  0  0  0  0
 18 32  2  0  0  0  0
 18 33  1  0  0  0  0
 19 21  2  0  0  0  0
 19 38  1  0  0  0  0
 20 22  2  0  0  0  0
 20 39  1  0  0  0  0
 21 51  1  0  0  0  0
 22 40  1  0  0  0  0
 23 27  2  0  0  0  0
 23 62  1  0  0  0  0
 24 83  1  0  0  0  0
 25 85  1  0  0  0  0
 26 29  2  0  0  0  0
 26 83  1  0  0  0  0
 27 84  1  0  0  0  0
 28 86  1  0  0  0  0
 29 87  1  0  0  0  0
 30 67  2  0  0  0  0
 31 66  1  0  0  0  0
 31 69  1  0  0  0  0
 32 68  1  0  0  0  0
 32 73  1  0  0  0  0
 33 74  1  0  0  0  0
 33 78  2  0  0  0  0
 34 52  1  0  0  0  0
 34 75  1  0  0  0  0
 34 79  2  0  0  0  0
 35 63  1  0  0  0  0
 35 70  1  0  0  0  0
 35 80  2  0  0  0  0
 36 64  1  0  0  0  0
 36 76  1  0  0  0  0
 36 81  2  0  0  0  0
 37 71  1  0  0  0  0
 37 72  1  0  0  0  0
 37 82  2  0  0  0  0
 38 41  1  0  0  0  0
 39 52  1  0  0  0  0
 40 70  1  0  0  0  0
 41 43  1  0  0  0  0
 42 44  1  0  0  0  0
 42 45  1  0  0  0  0
 43 51  1  0  0  0  0
 44 53  1  0  0  0  0
 45 71  1  0  0  0  0
 46 48  1  0  0  0  0
 46 69  1  0  0  0  0
 47 49  1  0  0  0  0
 47 69  1  0  0  0  0
 48 72  1  0  0  0  0
 49 72  1  0  0  0  0
 50 53  1  0  0  0  0
 50 71  1  0  0  0  0
 51 75  1  0  0  0  0
 52 70  1  0  0  0  0
 53 68  1  0  0  0  0
 54 62  1  0  0  0  0
 55 64  1  0  0  0  0
 56 65  1  0  0  0  0
 57 65  1  0  0  0  0
 58 65  1  0  0  0  0
 59 77  1  0  0  0  0
 60 84  1  0  0  0  0
 61 62  1  0  0  0  0
 61 85  1  0  0  0  0
 63 65  1  0  0  0  0
 63 76  1  0  0  0  0
 64 77  1  0  0  0  0
 67 68  1  0  0  0  0
M  CHG  1  77   1
M  ISO  4  37 100  61 101  72 100  85 101
M  END
> <Batch ID>
0155

> <Smiles>
CNC(C)C(=O)NC(C(=O)N1Cc2cc([101O:1][101CH2:1]C(C)c3cnc(N4CC[100N:0]([100C:0](=O)N5CCCC(n6nc(-c7ccc(Oc8ccc(F)cc8F)cc7)c(C(N)=O)c6N)C5)CC4)cc3OC)ccc2CC1C(=O)NC1CCCc2ccccc21)C(C)(C)C

> <Shape>
0.277

> <Color>
0.074

> <Negative vol penalty>
0.000

$$$$

  -OEChem-04052321543D

 90100  0     1  0  0  0  0  0999 V2000
  -24.5300   -3.4432   21.9001 C   0  0  0  0  0  0  0  0  0  0  0  0
  -24.9556   -4.0766   20.7369 C   0  0  0  0  0  0  0  0  0  0  0  0
  -21.6376  -29.8237   21.1278 C   0  0  0  0  0  0  0  0  0  0  0  0
  -22.7755  -27.9490   22.1418 C   0  0  0  0  0  0  0  0  0  0  0  0
  -23.6642   -4.1002   22.7735 C   0  0  0  0  0  0  0  0  0  0  0  0
  -24.5147   -5.3671   20.4458 C   0  0  0  0  0  0  0  0  0  0  0  0
  -28.6263  -11.8549   19.0210 C   0  0  0  0  0  0  0  0  0  0  0  0
  -33.9619  -18.5171   19.5102 C   0  0  0  0  0  0  0  0  0  0  0  0
  -20.4108  -29.2983   21.5332 C   0  0  0  0  0  0  0  0  0  0  0  0
  -21.5486  -27.4237   22.5473 C   0  0  0  0  0  0  0  0  0  0  0  0
  -29.2424  -13.1015   18.9094 C   0  0  0  0  0  0  0  0  0  0  0  0
  -32.8095  -17.8781   19.9725 C   0  0  0  0  0  0  0  0  0  0  0  0
  -18.5821  -29.1471   24.3733 C   0  0  0  0  0  0  0  0  0  0  0  0
  -17.6603  -30.0221   24.9481 C   0  0  0  0  0  0  0  0  0  0  0  0
  -27.2470  -14.1753   19.7539 C   0  0  0  0  0  0  0  0  0  0  0  0
  -31.3996  -19.5624   18.9256 C   0  0  0  0  0  0  0  0  0  0  0  0
  -16.0811  -29.5118   23.1923 C   0  0  0  0  0  0  0  0  0  0  0  0
  -22.8200  -29.1490   21.4320 C   0  0  0  0  0  0  0  0  0  0  0  0
  -24.6373  -30.9380   21.3656 C   0  0  0  0  0  0  0  0  0  0  0  0
  -23.2202   -5.4031   22.4977 C   0  0  0  0  0  0  0  0  0  0  0  0
  -27.3219  -11.7623   19.5145 C   0  0  0  0  0  0  0  0  0  0  0  0
  -33.8157  -19.6656   18.7508 C   0  0  0  0  0  0  0  0  0  0  0  0
  -23.6411   -6.0416   21.3156 C   0  0  0  0  0  0  0  0  0  0  0  0
  -26.6290  -12.9283   19.8795 C   0  0  0  0  0  0  0  0  0  0  0  0
  -32.5473  -20.1865   18.4642 C   0  0  0  0  0  0  0  0  0  0  0  0
  -20.3662  -28.0983   22.2430 C   0  0  0  0  0  0  0  0  0  0  0  0
  -28.5544  -14.2589   19.2748 C   0  0  0  0  0  0  0  0  0  0  0  0
  -31.5377  -18.3966   19.6818 C   0  0  0  0  0  0  0  0  0  0  0  0
  -18.2534  -28.4545   23.2080 C   0  0  0  0  0  0  0  0  0  0  0  0
  -16.4098  -30.2044   24.3576 C   0  0  0  0  0  0  0  0  0  0  0  0
  -17.0029  -28.6368   22.6175 C   0  0  0  0  0  0  0  0  0  0  0  0
  -24.0876  -29.6909   21.0130 C   0  0  0  0  0  0  0  0  0  0  0  0
  -25.8459  -30.9771   20.7141 C   0  0  0  0  0  0  0  0  0  0  0  0
  -24.1033  -31.9690   22.2067 C   0  0  0  0  0  0  0  0  0  0  0  0
  -24.4427   -9.5386   20.4313 C   0  0  0  0  0  0  0  0  0  0  0  0
  -24.6198  -11.7051   22.5959 C   0  0  0  0  0  0  0  0  0  0  0  0
  -25.4155  -14.0048   24.9865 C   0  0  0  0  0  0  0  0  0  0  0  0
  -29.5723  -26.9343   18.9299 C   0  0  0  0  0  0  0  0  0  0  0  0
  -22.2473   -6.0548   23.4482 C   0  0  0  0  0  0  0  0  0  0  0  0
  -34.8919  -20.5352   18.1812 C   0  0  0  0  0  0  0  0  0  0  0  0
  -26.5970  -10.4462   19.5938 C   0  0  0  0  0  0  0  0  0  0  0  0
  -25.2153  -12.7836   20.3727 C   0  0  0  0  0  0  0  0  0  0  0  0
  -22.1235   -7.5638   23.2533 C   0  0  0  0  0  0  0  0  0  0  0  0
  -34.1006  -21.3475   17.1416 C   0  0  0  0  0  0  0  0  0  0  0  0
  -28.0680  -29.3097   16.8253 C   0  0  0  0  0  0  0  0  0  0  0  0
  -21.9733   -7.9003   21.7731 C   0  0  0  0  0  0  0  0  0  0  0  0
  -26.9175  -29.8057   17.7007 C   0  0  0  0  0  0  0  0  0  0  0  0
  -32.4464  -24.9966   18.8623 C   0  0  0  0  0  0  0  0  0  0  0  0
  -30.5992  -23.8512   17.5741 C   0  0  0  0  0  0  0  0  0  0  0  0
  -28.2631  -27.7967   16.9384 C   0  0  0  0  0  0  0  0  0  0  0  0
  -31.9112  -26.3388   18.3731 C   0  0  0  0  0  0  0  0  0  0  0  0
  -30.0817  -25.2219   17.1301 C   0  0  0  0  0  0  0  0  0  0  0  0
  -27.2719  -27.8108   19.2048 C   0  0  0  0  0  0  0  0  0  0  0  0
  -23.2045   -7.4506   20.9773 C   0  0  1  0  0  0  0  0  0  0  0  0
  -32.6555  -21.4499   17.6647 C   0  0  2  0  0  0  0  0  0  0  0  0
  -25.6479  -10.3519   20.8018 C   0  0  1  0  0  0  0  0  0  0  0  0
  -27.0886  -29.3356   19.1562 C   0  0  2  0  0  0  0  0  0  0  0  0
  -32.0930  -23.8975   17.8685 C   0  0  0  0  0  0  0  0  0  0  0  0
  -24.6674  -14.8593   27.2243 C   0  0  0  0  0  0  0  0  0  0  0  0
  -22.3274  -13.2038   21.2531 C   0  0  0  0  0  0  0  0  0  0  0  0
  -22.2378  -14.7117   23.2497 C   0  0  0  0  0  0  0  0  0  0  0  0
  -21.7852  -12.2724   23.5099 C   0  0  0  0  0  0  0  0  0  0  0  0
  -27.9777  -13.2501   26.2610 C   0  0  0  0  0  0  0  0  0  0  0  0
  -28.4047  -16.6158   19.5576 C   0  0  0  0  0  0  0  0  0  1  0  0
  -29.2415  -17.8654   19.3635 C   0  0  0  0  0  0  0  0  0  0  0  0
  -24.1498  -13.0549   23.0760 C   0  0  1  0  0  0  0  0  0  0  0  0
  -25.5719  -13.8809   26.4914 C   0  0  2  0  0  0  0  0  0  0  0  0
  -22.6492  -13.3077   22.7573 C   0  0  0  0  0  0  0  0  0  0  0  0
  -24.8817  -28.9885   20.2005 N   0  0  0  0  0  0  0  0  0  0  0  0
  -25.9427  -29.7971   20.0371 N   0  0  0  0  0  0  0  0  0  0  0  0
  -25.1177  -11.6367   21.2891 N   0  0  0  0  0  0  0  0  0  0  0  0
  -28.3812  -27.3911   18.3459 N   0  0  0  0  0  0  0  0  0  0  0  0
  -30.4757  -26.2636   18.0919 N   0  0  0  0  0  0  0  0  0  0  0  0
  -26.8245  -31.9054   20.6601 N   0  0  0  0  0  0  0  0  0  0  0  0
  -24.3982  -31.9333   23.5764 N   0  0  0  0  0  0  0  0  0  0  0  0
  -24.2975   -8.3795   21.1695 N   0  0  0  0  0  0  0  0  0  0  0  0
  -24.4784  -13.1202   24.4959 N   0  0  0  0  0  0  0  0  0  0  0  0
  -32.4599  -22.6203   18.4784 N   0  0  3  0  0  0  0  0  0  0  0  0
  -26.9815  -14.1551   26.8899 N   0  3  0  0  0  0  0  0  0  0  0  0
  -32.6261  -22.5197   19.8989 O   0  5  0  0  0  0  0  0  0  0  0  0
  -23.3723  -32.8852   21.7598 O   0  0  0  0  0  0  0  0  0  0  0  0
  -23.6974   -9.9333   19.5422 O   0  0  0  0  0  0  0  0  0  0  0  0
  -24.5433  -10.7348   23.3549 O   0  0  0  0  0  0  0  0  0  0  0  0
  -26.0574  -14.8087   24.3141 O   0  0  0  0  0  0  0  0  0  0  0  0
  -29.8145  -27.1149   20.1299 O   0  0  0  0  0  0  0  0  0  0  0  0
  -19.1692  -27.5855   22.6390 O   0  0  0  0  0  0  0  0  0  0  0  0
  -29.1676  -15.4805   19.1669 O   0  0  0  0  0  0  0  0  0  1  0  0
  -30.4277  -17.7582   20.1478 O   0  0  0  0  0  0  0  0  0  0  0  0
  -15.5242  -31.0435   24.9105 F   0  0  0  0  0  0  0  0  0  0  0  0
  -16.6809  -27.9733   21.4986 F   0  0  0  0  0  0  0  0  0  0  0  0
  1  2  1  0  0  0  0
  1  5  2  0  0  0  0
  2  6  2  0  0  0  0
  3  9  2  0  0  0  0
  3 18  1  0  0  0  0
  4 10  1  0  0  0  0
  4 18  2  0  0  0  0
  5 20  1  0  0  0  0
  6 23  1  0  0  0  0
  7 11  2  0  0  0  0
  7 21  1  0  0  0  0
  8 12  2  0  0  0  0
  8 22  1  0  0  0  0
  9 26  1  0  0  0  0
 10 26  2  0  0  0  0
 11 27  1  0  0  0  0
 12 28  1  0  0  0  0
 13 14  2  0  0  0  0
 13 29  1  0  0  0  0
 14 30  1  0  0  0  0
 15 24  1  0  0  0  0
 15 27  2  0  0  0  0
 16 25  1  0  0  0  0
 16 28  2  0  0  0  0
 17 30  2  0  0  0  0
 17 31  1  0  0  0  0
 18 32  1  0  0  0  0
 19 32  1  0  0  0  0
 19 33  2  0  0  0  0
 19 34  1  0  0  0  0
 20 23  2  0  0  0  0
 20 39  1  0  0  0  0
 21 24  2  0  0  0  0
 21 41  1  0  0  0  0
 22 25  2  0  0  0  0
 22 40  1  0  0  0  0
 23 54  1  0  0  0  0
 24 42  1  0  0  0  0
 25 55  1  0  0  0  0
 26 86  1  0  0  0  0
 27 87  1  0  0  0  0
 28 88  1  0  0  0  0
 29 31  2  0  0  0  0
 29 86  1  0  0  0  0
 30 89  1  0  0  0  0
 31 90  1  0  0  0  0
 32 69  2  0  0  0  0
 33 70  1  0  0  0  0
 33 74  1  0  0  0  0
 34 75  1  0  0  0  0
 34 81  2  0  0  0  0
 35 56  1  0  0  0  0
 35 76  1  0  0  0  0
 35 82  2  0  0  0  0
 36 66  1  0  0  0  0
 36 71  1  0  0  0  0
 36 83  2  0  0  0  0
 37 67  1  0  0  0  0
 37 77  1  0  0  0  0
 37 84  2  0  0  0  0
 38 72  1  0  0  0  0
 38 73  1  0  0  0  0
 38 85  2  0  0  0  0
 39 43  1  0  0  0  0
 40 44  1  0  0  0  0
 41 56  1  0  0  0  0
 42 71  1  0  0  0  0
 43 46  1  0  0  0  0
 44 55  1  0  0  0  0
 45 47  1  0  0  0  0
 45 50  1  0  0  0  0
 46 54  1  0  0  0  0
 47 57  1  0  0  0  0
 48 51  1  0  0  0  0
 48 58  1  0  0  0  0
 49 52  1  0  0  0  0
 49 58  1  0  0  0  0
 50 72  1  0  0  0  0
 51 73  1  0  0  0  0
 52 73  1  0  0  0  0
 53 57  1  0  0  0  0
 53 72  1  0  0  0  0
 54 76  1  0  0  0  0
 55 78  1  0  0  0  0
 56 71  1  0  0  0  0
 57 70  1  0  0  0  0
 58 78  1  0  0  0  0
 59 67  1  0  0  0  0
 60 68  1  0  0  0  0
 61 68  1  0  0  0  0
 62 68  1  0  0  0  0
 63 79  1  0  0  0  0
 64 65  1  0  0  0  0
 64 87  1  0  0  0  0
 65 88  1  0  0  0  0
 66 68  1  0  0  0  0
 66 77  1  0  0  0  0
 67 79  1  0  0  0  0
 69 70  1  0  0  0  0
 78 80  1  0  0  0  0
M  CHG  2  79   1  80  -1
M  ISO  4  38 100  64 101  73 100  87 101
M  END
> <Batch ID>
0155

> <Smiles>
CNC(C)C(=O)NC(C(=O)N1Cc2cc([101O:1][101CH2:1]COc3ccc4c(c3)C(N(O)C3CC[100N:0]([100C:0](=O)N5CCCC(n6nc(-c7ccc(Oc8ccc(F)cc8F)cc7)c(C(N)=O)c6N)C5)CC3)CC4)ccc2CC1C(=O)NC1CCCc2ccccc21)C(C)(C)C

> <Shape>
0.289

> <Color>
0.056

> <Negative vol penalty>
0.000

$$$$

  -OEChem-04052321543D

 88 97  0     1  0  0  0  0  0999 V2000
  -24.7710  -27.7431   11.2571 C   0  0  0  0  0  0  0  0  0  0  0  0
  -25.5735  -27.8401   12.3893 C   0  0  0  0  0  0  0  0  0  0  0  0
  -24.2752   -9.3485   22.2051 C   0  0  0  0  0  0  0  0  0  0  0  0
  -24.1546   -8.8908   19.8359 C   0  0  0  0  0  0  0  0  0  0  0  0
  -23.5336  -28.3847   11.2241 C   0  0  0  0  0  0  0  0  0  0  0  0
  -25.1395  -28.5798   13.4889 C   0  0  0  0  0  0  0  0  0  0  0  0
  -25.9133  -26.1730   17.8768 C   0  0  0  0  0  0  0  0  0  0  0  0
  -23.1723   -8.5223   22.4209 C   0  0  0  0  0  0  0  0  0  0  0  0
  -23.0517   -8.0646   20.0517 C   0  0  0  0  0  0  0  0  0  0  0  0
  -27.2097  -26.1850   18.3896 C   0  0  0  0  0  0  0  0  0  0  0  0
  -22.5485   -5.2061   22.6364 C   0  0  0  0  0  0  0  0  0  0  0  0
  -22.6133   -4.3022   23.6968 C   0  0  0  0  0  0  0  0  0  0  0  0
  -26.5899  -27.9619   19.8987 C   0  0  0  0  0  0  0  0  0  0  0  0
  -20.6769   -5.3413   24.7008 C   0  0  0  0  0  0  0  0  0  0  0  0
  -28.8568  -23.4454   21.8800 C   0  0  0  0  0  0  0  0  0  0  0  0
  -24.7664   -9.5328   20.9126 C   0  0  0  0  0  0  0  0  0  0  0  0
  -27.2623  -10.0120   20.6921 C   0  0  0  0  0  0  0  0  0  0  0  0
  -23.0799  -29.1245   12.3275 C   0  0  0  0  0  0  0  0  0  0  0  0
  -24.9468  -27.0644   18.3644 C   0  0  0  0  0  0  0  0  0  0  0  0
  -23.8955  -29.2329   13.4701 C   0  0  0  0  0  0  0  0  0  0  0  0
  -25.2813  -27.9575   19.3922 C   0  0  0  0  0  0  0  0  0  0  0  0
  -31.2196  -23.2023   21.7589 C   0  0  0  0  0  0  0  0  0  0  0  0
  -31.3323  -24.5881   21.7721 C   0  0  0  0  0  0  0  0  0  0  0  0
  -22.5606   -7.8803   21.3442 C   0  0  0  0  0  0  0  0  0  0  0  0
  -27.5490  -27.0815   19.3987 C   0  0  0  0  0  0  0  0  0  0  0  0
  -21.5480   -6.1777   22.6083 C   0  0  0  0  0  0  0  0  0  0  0  0
  -29.9618  -22.6121   21.8135 C   0  0  0  0  0  0  0  0  0  0  0  0
  -21.6775   -4.3698   24.7290 C   0  0  0  0  0  0  0  0  0  0  0  0
  -20.6122   -6.2452   23.6404 C   0  0  0  0  0  0  0  0  0  0  0  0
  -25.9053  -10.3866   20.6890 C   0  0  0  0  0  0  0  0  0  0  0  0
  -30.1659  -25.3329   21.8402 C   0  0  0  0  0  0  0  0  0  0  0  0
  -27.9408  -11.1773   20.4315 C   0  0  0  0  0  0  0  0  0  0  0  0
  -27.8563   -8.7255   20.9108 C   0  0  0  0  0  0  0  0  0  0  0  0
  -23.2212  -29.4146   17.0985 C   0  0  0  0  0  0  0  0  0  0  0  0
  -21.8020  -29.4186   20.0154 C   0  0  0  0  0  0  0  0  0  0  0  0
  -22.0116  -28.6785   23.3403 C   0  0  0  0  0  0  0  0  0  0  0  0
  -28.8929  -16.4136   21.1300 C   0  0  0  0  0  0  0  0  0  0  0  0
  -21.7558  -29.8396   12.2272 C   0  0  0  0  0  0  0  0  0  0  0  0
  -23.5456  -27.0206   17.8193 C   0  0  0  0  0  0  0  0  0  0  0  0
  -24.2749  -28.9211   19.9642 C   0  0  0  0  0  0  0  0  0  0  0  0
  -21.2051  -30.2937   13.5766 C   0  0  0  0  0  0  0  0  0  0  0  0
  -26.2800  -15.6949   18.8987 C   0  0  0  0  0  0  0  0  0  0  0  0
  -22.2965  -30.9735   14.3972 C   0  0  0  0  0  0  0  0  0  0  0  0
  -26.0538  -14.2070   19.1656 C   0  0  0  0  0  0  0  0  0  0  0  0
  -29.9093  -19.7597   19.8979 C   0  0  0  0  0  0  0  0  0  0  0  0
  -27.7983  -19.9947   21.2756 C   0  0  0  0  0  0  0  0  0  0  0  0
  -26.5415  -16.4750   20.1882 C   0  0  0  0  0  0  0  0  0  0  0  0
  -30.1994  -18.4408   20.6126 C   0  0  0  0  0  0  0  0  0  0  0  0
  -28.1384  -18.6733   21.9609 C   0  0  0  0  0  0  0  0  0  0  0  0
  -27.4116  -14.4339   21.2804 C   0  0  0  0  0  0  0  0  0  0  0  0
  -23.4486  -30.0055   14.6923 C   0  0  1  0  0  0  0  0  0  0  0  0
  -22.7806  -28.3232   18.0325 C   0  0  1  0  0  0  0  0  0  0  0  0
  -27.2045  -13.6136   19.9977 C   0  0  1  0  0  0  0  0  0  0  0  0
  -29.0396  -20.7027   20.7301 C   0  0  0  0  0  0  0  0  0  0  0  0
  -32.4408  -22.3435   21.6856 C   0  0  0  0  0  0  0  0  0  0  0  0
  -32.6678  -25.2507   21.7159 C   0  0  0  0  0  0  0  0  0  0  0  0
  -20.7073  -28.8321   25.4786 C   0  0  0  0  0  0  0  0  0  0  0  0
  -22.4071  -32.4054   20.1671 C   0  0  0  0  0  0  0  0  0  0  0  0
  -21.9664  -32.2987   22.6293 C   0  0  0  0  0  0  0  0  0  0  0  0
  -20.1455  -31.7548   21.0135 C   0  0  0  0  0  0  0  0  0  0  0  0
  -22.0205  -25.7400   23.6925 C   0  0  0  0  0  0  0  0  0  0  0  0
  -28.9701  -27.4851   21.2624 C   0  0  0  0  0  0  0  0  0  1  0  0
  -30.2235  -26.8256   21.8557 C   0  0  1  0  0  0  0  0  0  0  0  0
  -22.0532  -30.1253   21.3255 C   0  0  1  0  0  0  0  0  0  0  0  0
  -21.0515  -27.9668   24.2763 C   0  0  2  0  0  0  0  0  0  0  0  0
  -21.6627  -31.6294   21.2719 C   0  0  0  0  0  0  0  0  0  0  0  0
  -28.9267  -24.7954   21.8948 N   0  0  0  0  0  0  0  0  0  0  0  0
  -25.7303  -11.6883   20.4459 N   0  0  0  0  0  0  0  0  0  0  0  0
  -26.9863  -12.1417   20.2939 N   0  0  0  0  0  0  0  0  0  0  0  0
  -22.9199  -28.8441   19.3939 N   0  0  0  0  0  0  0  0  0  0  0  0
  -27.6191  -15.8489   20.9658 N   0  0  0  0  0  0  0  0  0  0  0  0
  -28.9733  -17.8163   21.1083 N   0  0  0  0  0  0  0  0  0  0  0  0
  -29.2550  -11.4610   20.3091 N   0  0  0  0  0  0  0  0  0  0  0  0
  -27.0134   -7.6349   21.1652 N   0  0  0  0  0  0  0  0  0  0  0  0
  -23.0858  -29.0986   15.7601 N   0  0  0  0  0  0  0  0  0  0  0  0
  -21.3437  -29.3598   22.3448 N   0  0  0  0  0  0  0  0  0  0  0  0
  -21.6546  -26.6962   24.7689 N   0  3  0  0  0  0  0  0  0  0  0  0
  -29.0984   -8.5514   20.8978 O   0  0  0  0  0  0  0  0  0  0  0  0
  -23.6508  -30.4663   17.5581 O   0  0  0  0  0  0  0  0  0  0  0  0
  -20.6551  -29.3717   19.5638 O   0  0  0  0  0  0  0  0  0  0  0  0
  -23.2320  -28.6374   23.4806 O   0  0  0  0  0  0  0  0  0  0  0  0
  -29.8990  -15.7099   21.2831 O   0  0  0  0  0  0  0  0  0  0  0  0
  -30.3889  -27.2815   23.2033 O   0  0  0  0  0  0  0  0  0  0  0  0
  -21.4845   -7.0738   21.5544 O   0  0  0  0  0  0  0  0  0  0  0  0
  -29.8014  -21.2515   21.8034 O   0  0  0  0  0  0  0  0  0  0  0  0
  -28.8234  -27.0958   19.9043 O   0  0  0  0  0  0  0  0  0  1  0  0
  -21.7389   -3.5007   25.7464 F   0  0  0  0  0  0  0  0  0  0  0  0
  -19.6479   -7.1756   23.6183 F   0  0  0  0  0  0  0  0  0  0  0  0
  1  2  1  0  0  0  0
  1  5  2  0  0  0  0
  2  6  2  0  0  0  0
  3  8  2  0  0  0  0
  3 16  1  0  0  0  0
  4  9  1  0  0  0  0
  4 16  2  0  0  0  0
  5 18  1  0  0  0  0
  6 20  1  0  0  0  0
  7 10  2  0  0  0  0
  7 19  1  0  0  0  0
  8 24  1  0  0  0  0
  9 24  2  0  0  0  0
 10 25  1  0  0  0  0
 11 12  2  0  0  0  0
 11 26  1  0  0  0  0
 12 28  1  0  0  0  0
 13 21  1  0  0  0  0
 13 25  2  0  0  0  0
 14 28  2  0  0  0  0
 14 29  1  0  0  0  0
 15 27  1  0  0  0  0
 15 67  2  0  0  0  0
 16 30  1  0  0  0  0
 17 30  1  0  0  0  0
 17 32  2  0  0  0  0
 17 33  1  0  0  0  0
 18 20  2  0  0  0  0
 18 38  1  0  0  0  0
 19 21  2  0  0  0  0
 19 39  1  0  0  0  0
 20 51  1  0  0  0  0
 21 40  1  0  0  0  0
 22 23  1  0  0  0  0
 22 27  2  0  0  0  0
 22 55  1  0  0  0  0
 23 31  2  0  0  0  0
 23 56  1  0  0  0  0
 24 84  1  0  0  0  0
 25 86  1  0  0  0  0
 26 29  2  0  0  0  0
 26 84  1  0  0  0  0
 27 85  1  0  0  0  0
 28 87  1  0  0  0  0
 29 88  1  0  0  0  0
 30 68  2  0  0  0  0
 31 63  1  0  0  0  0
 31 67  1  0  0  0  0
 32 69  1  0  0  0  0
 32 73  1  0  0  0  0
 33 74  1  0  0  0  0
 33 78  2  0  0  0  0
 34 52  1  0  0  0  0
 34 75  1  0  0  0  0
 34 79  2  0  0  0  0
 35 64  1  0  0  0  0
 35 70  1  0  0  0  0
 35 80  2  0  0  0  0
 36 65  1  0  0  0  0
 36 76  1  0  0  0  0
 36 81  2  0  0  0  0
 37 71  1  0  0  0  0
 37 72  1  0  0  0  0
 37 82  2  0  0  0  0
 38 41  1  0  0  0  0
 39 52  1  0  0  0  0
 40 70  1  0  0  0  0
 41 43  1  0  0  0  0
 42 44  1  0  0  0  0
 42 47  1  0  0  0  0
 43 51  1  0  0  0  0
 44 53  1  0  0  0  0
 45 48  1  0  0  0  0
 45 54  1  0  0  0  0
 46 49  1  0  0  0  0
 46 54  1  0  0  0  0
 47 71  1  0  0  0  0
 48 72  1  0  0  0  0
 49 72  1  0  0  0  0
 50 53  1  0  0  0  0
 50 71  1  0  0  0  0
 51 75  1  0  0  0  0
 52 70  1  0  0  0  0
 53 69  1  0  0  0  0
 54 85  1  0  0  0  0
 57 65  1  0  0  0  0
 58 66  1  0  0  0  0
 59 66  1  0  0  0  0
 60 66  1  0  0  0  0
 61 77  1  0  0  0  0
 62 63  1  0  0  0  0
 62 86  1  0  0  0  0
 63 83  1  0  0  0  0
 64 66  1  0  0  0  0
 64 76  1  0  0  0  0
 65 77  1  0  0  0  0
 68 69  1  0  0  0  0
M  CHG  1  77   1
M  ISO  4  37 100  62 101  72 100  86 101
M  END
> <Batch ID>
0155

> <Smiles>
CNC(C)C(=O)NC(C(=O)N1Cc2cc([101O:1][101CH2:1]C(O)c3ncc(OC4CC[100N:0]([100C:0](=O)N5CCCC(n6nc(-c7ccc(Oc8ccc(F)cc8F)cc7)c(C(N)=O)c6N)C5)CC4)c(C)c3C)ccc2CC1C(=O)NC1CCCc2ccccc21)C(C)(C)C

> <Shape>
0.246

> <Color>
0.119

> <Negative vol penalty>
0.000

$$$$

  -OEChem-04052321543D

 92102  0     1  0  0  0  0  0999 V2000
  -27.8807  -35.3754   24.2838 C   0  0  0  0  0  0  0  0  0  0  0  0
  -28.6429  -34.3188   23.7958 C   0  0  0  0  0  0  0  0  0  0  0  0
  -25.9748  -12.1208   21.0128 C   0  0  0  0  0  0  0  0  0  0  0  0
  -25.4124  -12.7315   18.7439 C   0  0  0  0  0  0  0  0  0  0  0  0
  -26.5479  -35.1674   24.6364 C   0  0  0  0  0  0  0  0  0  0  0  0
  -28.0730  -33.0533   23.6611 C   0  0  0  0  0  0  0  0  0  0  0  0
  -29.2844  -28.9140   19.3133 C   0  0  0  0  0  0  0  0  0  0  0  0
  -25.4459  -10.8475   20.8012 C   0  0  0  0  0  0  0  0  0  0  0  0
  -24.8836  -11.4582   18.5322 C   0  0  0  0  0  0  0  0  0  0  0  0
  -30.1072  -27.7887   19.2927 C   0  0  0  0  0  0  0  0  0  0  0  0
  -22.3906   -9.4060   20.6949 C   0  0  0  0  0  0  0  0  0  0  0  0
  -21.5652   -8.8750   21.6860 C   0  0  0  0  0  0  0  0  0  0  0  0
  -28.8321  -23.5739   14.7799 C   0  0  0  0  0  0  0  0  0  0  0  0
  -28.2103  -26.3993   19.8317 C   0  0  0  0  0  0  0  0  0  0  0  0
  -26.1114  -23.1546   14.3275 C   0  0  0  0  0  0  0  0  0  0  0  0
  -23.0902   -7.0216   21.9628 C   0  0  0  0  0  0  0  0  0  0  0  0
  -25.9580  -13.0628   19.9842 C   0  0  0  0  0  0  0  0  0  0  0  0
  -27.8307  -14.7950   19.9854 C   0  0  0  0  0  0  0  0  0  0  0  0
  -25.9586  -33.9009   24.4969 C   0  0  0  0  0  0  0  0  0  0  0  0
  -27.9182  -28.7915   19.6045 C   0  0  0  0  0  0  0  0  0  0  0  0
  -26.7314  -32.8279   24.0134 C   0  0  0  0  0  0  0  0  0  0  0  0
  -27.9972  -23.2110   15.8367 C   0  0  0  0  0  0  0  0  0  0  0  0
  -27.3718  -27.5243   19.8529 C   0  0  0  0  0  0  0  0  0  0  0  0
  -28.3067  -23.7272   13.4969 C   0  0  0  0  0  0  0  0  0  0  0  0
  -26.9464  -23.5176   13.2707 C   0  0  0  0  0  0  0  0  0  0  0  0
  -24.9004  -10.5162   19.5609 C   0  0  0  0  0  0  0  0  0  0  0  0
  -29.5708  -26.5314   19.5548 C   0  0  0  0  0  0  0  0  0  0  0  0
  -23.5657   -8.7449   20.3376 C   0  0  0  0  0  0  0  0  0  0  0  0
  -26.6369  -23.0013   15.6105 C   0  0  0  0  0  0  0  0  0  0  0  0
  -21.9150   -7.6828   22.3200 C   0  0  0  0  0  0  0  0  0  0  0  0
  -23.9155   -7.5527   20.9716 C   0  0  0  0  0  0  0  0  0  0  0  0
  -26.5036  -14.3784   20.2023 C   0  0  0  0  0  0  0  0  0  0  0  0
  -27.8364  -16.1218   20.3402 C   0  0  0  0  0  0  0  0  0  0  0  0
  -28.9575  -14.0493   19.5059 C   0  0  0  0  0  0  0  0  0  0  0  0
  -26.0051  -29.8907   21.8926 C   0  0  0  0  0  0  0  0  0  0  0  0
  -23.6899  -28.5370   20.0678 C   0  0  0  0  0  0  0  0  0  0  0  0
  -22.8421  -26.2115   17.7184 C   0  0  0  0  0  0  0  0  0  0  0  0
  -24.6088  -20.8713   20.1117 C   0  0  0  0  0  0  0  0  0  0  0  0
  -24.5278  -33.7137   24.9356 C   0  0  0  0  0  0  0  0  0  0  0  0
  -27.0389  -30.0119   19.5965 C   0  0  0  0  0  0  0  0  0  0  0  0
  -25.9074  -27.3366   20.1509 C   0  0  0  0  0  0  0  0  0  0  0  0
  -23.8927  -32.4290   24.4099 C   0  0  0  0  0  0  0  0  0  0  0  0
  -26.1765  -19.5401   22.9820 C   0  0  0  0  0  0  0  0  0  0  0  0
  -24.8361  -31.2469   24.6085 C   0  0  0  0  0  0  0  0  0  0  0  0
  -26.7160  -18.1878   22.5244 C   0  0  0  0  0  0  0  0  0  0  0  0
  -23.6131  -21.6094   16.6227 C   0  0  0  0  0  0  0  0  0  0  0  0
  -29.1754  -24.3633   17.7567 C   0  0  0  0  0  0  0  0  0  0  0  0
  -29.6374  -21.9182   17.2691 C   0  0  0  0  0  0  0  0  0  0  0  0
  -30.8089  -23.0769   19.1909 C   0  0  0  0  0  0  0  0  0  0  0  0
  -26.3117  -20.5780   21.8760 C   0  0  0  0  0  0  0  0  0  0  0  0
  -23.3929  -21.7065   18.1255 C   0  0  0  0  0  0  0  0  0  0  0  0
  -26.1204  -18.8274   20.1302 C   0  0  0  0  0  0  0  0  0  0  0  0
  -25.4432  -20.5240   17.7084 C   0  0  0  0  0  0  0  0  0  0  0  0
  -28.5875  -23.0468   17.2274 C   0  0  2  0  0  0  0  0  0  0  0  0
  -26.1419  -31.4463   23.8297 C   0  0  1  0  0  0  0  0  0  0  0  0
  -25.7614  -29.8333   20.4111 C   0  0  1  0  0  0  0  0  0  0  0  0
  -26.0301  -17.7426   21.2234 C   0  0  1  0  0  0  0  0  0  0  0  0
  -25.1197  -21.4046   16.5075 C   0  0  2  0  0  0  0  0  0  0  0  0
  -29.7650  -24.1951   19.1554 C   0  0  1  0  0  0  0  0  0  1  0  0
  -30.2808  -21.7250   18.6641 C   0  0  0  0  0  0  0  0  0  0  0  0
  -29.2200  -24.1187   12.3819 C   0  0  0  0  0  0  0  0  0  0  0  0
  -26.3616  -23.6779   11.9059 C   0  0  0  0  0  0  0  0  0  0  0  0
  -29.2678  -21.1160   19.6529 C   0  0  0  0  0  0  0  0  0  0  0  0
  -31.4616  -20.7433   18.5364 C   0  0  0  0  0  0  0  0  0  0  0  0
  -20.8669  -25.3171   16.4550 C   0  0  0  0  0  0  0  0  0  0  0  0
  -22.7815  -27.0294   22.5602 C   0  0  0  0  0  0  0  0  0  0  0  0
  -21.4811  -25.4927   21.0717 C   0  0  0  0  0  0  0  0  0  0  0  0
  -20.9224  -27.9227   21.1458 C   0  0  0  0  0  0  0  0  0  0  0  0
  -24.0156  -26.9777   15.1117 C   0  0  0  0  0  0  0  0  0  0  0  0
  -23.0458  -27.1736   19.9959 C   0  0  1  0  0  0  0  0  0  0  0  0
  -22.0136  -26.3161   16.4507 C   0  0  2  0  0  0  0  0  0  0  0  0
  -22.0857  -26.9080   21.1897 C   0  0  0  0  0  0  0  0  0  0  0  0
  -25.7229  -15.3609   20.6597 N   0  0  0  0  0  0  0  0  0  0  0  0
  -26.5621  -16.4081   20.7331 N   0  0  0  0  0  0  0  0  0  0  0  0
  -25.0900  -28.5610   20.1377 N   0  0  0  0  0  0  0  0  0  0  0  0
  -25.6773  -20.1339   20.6336 N   0  0  0  0  0  0  0  0  0  0  0  0
  -24.4599  -20.9129   18.7256 N   0  0  0  0  0  0  0  0  0  0  0  0
  -28.8070  -17.0600   20.3514 N   0  0  0  0  0  0  0  0  0  0  0  0
  -28.7768  -12.6965   19.1873 N   0  0  0  0  0  0  0  0  0  0  0  0
  -25.9403  -31.1644   22.4245 N   0  0  0  0  0  0  0  0  0  0  0  0
  -22.4078  -27.0921   18.6864 N   0  0  0  0  0  0  0  0  0  0  0  0
  -22.8620  -26.0525   15.2541 N   0  3  0  0  0  0  0  0  0  0  0  0
  -30.0949  -14.5631   19.3797 O   0  0  0  0  0  0  0  0  0  0  0  0
  -26.2333  -28.8557   22.5079 O   0  0  0  0  0  0  0  0  0  0  0  0
  -22.9773  -29.5439   20.0550 O   0  0  0  0  0  0  0  0  0  0  0  0
  -23.7784  -25.4245   17.8391 O   0  0  0  0  0  0  0  0  0  0  0  0
  -23.8424  -21.5034   20.8513 O   0  0  0  0  0  0  0  0  0  0  0  0
  -24.3845   -9.2738   19.3540 O   0  0  0  0  0  0  0  0  0  0  0  0
  -30.3765  -25.4250   19.5359 O   0  0  0  0  0  0  0  0  0  1  0  0
  -25.8028  -22.6451   16.6376 O   0  0  0  0  0  0  0  0  0  0  0  0
  -21.1232   -7.1737   23.2729 F   0  0  0  0  0  0  0  0  0  0  0  0
  -25.0439   -6.9136   20.6336 F   0  0  0  0  0  0  0  0  0  0  0  0
  1  2  1  0  0  0  0
  1  5  2  0  0  0  0
  2  6  2  0  0  0  0
  3  8  2  0  0  0  0
  3 17  1  0  0  0  0
  4  9  1  0  0  0  0
  4 17  2  0  0  0  0
  5 19  1  0  0  0  0
  6 21  1  0  0  0  0
  7 10  2  0  0  0  0
  7 20  1  0  0  0  0
  8 26  1  0  0  0  0
  9 26  2  0  0  0  0
 10 27  1  0  0  0  0
 11 12  2  0  0  0  0
 11 28  1  0  0  0  0
 12 30  1  0  0  0  0
 13 22  1  0  0  0  0
 13 24  2  0  0  0  0
 14 23  1  0  0  0  0
 14 27  2  0  0  0  0
 15 25  2  0  0  0  0
 15 29  1  0  0  0  0
 16 30  2  0  0  0  0
 16 31  1  0  0  0  0
 17 32  1  0  0  0  0
 18 32  1  0  0  0  0
 18 33  2  0  0  0  0
 18 34  1  0  0  0  0
 19 21  2  0  0  0  0
 19 39  1  0  0  0  0
 20 23  2  0  0  0  0
 20 40  1  0  0  0  0
 21 55  1  0  0  0  0
 22 29  2  0  0  0  0
 22 54  1  0  0  0  0
 23 41  1  0  0  0  0
 24 25  1  0  0  0  0
 24 61  1  0  0  0  0
 25 62  1  0  0  0  0
 26 88  1  0  0  0  0
 27 89  1  0  0  0  0
 28 31  2  0  0  0  0
 28 88  1  0  0  0  0
 29 90  1  0  0  0  0
 30 91  1  0  0  0  0
 31 92  1  0  0  0  0
 32 73  2  0  0  0  0
 33 74  1  0  0  0  0
 33 78  1  0  0  0  0
 34 79  1  0  0  0  0
 34 83  2  0  0  0  0
 35 56  1  0  0  0  0
 35 80  1  0  0  0  0
 35 84  2  0  0  0  0
 36 70  1  0  0  0  0
 36 75  1  0  0  0  0
 36 85  2  0  0  0  0
 37 71  1  0  0  0  0
 37 81  1  0  0  0  0
 37 86  2  0  0  0  0
 38 76  1  0  0  0  0
 38 77  1  0  0  0  0
 38 87  2  0  0  0  0
 39 42  1  0  0  0  0
 40 56  1  0  0  0  0
 41 75  1  0  0  0  0
 42 44  1  0  0  0  0
 43 45  1  0  0  0  0
 43 50  1  0  0  0  0
 44 55  1  0  0  0  0
 45 57  1  0  0  0  0
 46 51  1  0  0  0  0
 46 58  1  0  0  0  0
 47 54  1  0  0  0  0
 47 59  1  0  0  0  0
 48 54  1  0  0  0  0
 48 60  1  0  0  0  0
 49 59  1  0  0  0  0
 49 60  1  0  0  0  0
 50 76  1  0  0  0  0
 51 77  1  0  0  0  0
 52 57  1  0  0  0  0
 52 76  1  0  0  0  0
 53 58  1  0  0  0  0
 53 77  1  0  0  0  0
 55 80  1  0  0  0  0
 56 75  1  0  0  0  0
 57 74  1  0  0  0  0
 58 90  1  0  0  0  0
 59 89  1  0  0  0  0
 60 63  1  0  0  0  0
 60 64  1  0  0  0  0
 65 71  1  0  0  0  0
 66 72  1  0  0  0  0
 67 72  1  0  0  0  0
 68 72  1  0  0  0  0
 69 82  1  0  0  0  0
 70 72  1  0  0  0  0
 70 81  1  0  0  0  0
 71 82  1  0  0  0  0
 73 74  1  0  0  0  0
M  CHG  1  82   1
M  ISO  4  38 100  59 101  77 100  89 101
M  END
> <Batch ID>
0155

> <Smiles>
CNC(C)C(=O)NC(C(=O)N1Cc2cc([101O:1][101CH:1]3CC(c4cc(C)c(C)cc4OC4CC[100N:0]([100C:0](=O)N5CCCC(n6nc(-c7ccc(Oc8ccc(F)cc8F)cc7)c(C(N)=O)c6N)C5)C4)CC(C)(C)C3)ccc2CC1C(=O)NC1CCCc2ccccc21)C(C)(C)C

> <Shape>
0.259

> <Color>
0.054

> <Negative vol penalty>
0.000

$$$$

  -OEChem-04052321543D

 89 99  0     1  0  0  0  0  0999 V2000
  -26.9222  -35.6777   26.1769 C   0  0  0  0  0  0  0  0  0  0  0  0
  -27.3582  -34.4257   25.7554 C   0  0  0  0  0  0  0  0  0  0  0  0
  -23.7782  -10.4386   22.6915 C   0  0  0  0  0  0  0  0  0  0  0  0
  -24.3273   -8.6933   21.1136 C   0  0  0  0  0  0  0  0  0  0  0  0
  -25.5675  -36.0011   26.1122 C   0  0  0  0  0  0  0  0  0  0  0  0
  -26.4395  -33.4957   25.2700 C   0  0  0  0  0  0  0  0  0  0  0  0
  -27.3595  -29.3886   20.8213 C   0  0  0  0  0  0  0  0  0  0  0  0
  -22.6763   -9.7009   23.1241 C   0  0  0  0  0  0  0  0  0  0  0  0
  -23.2254   -7.9555   21.5463 C   0  0  0  0  0  0  0  0  0  0  0  0
  -27.6763  -28.0312   20.8487 C   0  0  0  0  0  0  0  0  0  0  0  0
  -20.7646   -5.4499   22.4868 C   0  0  0  0  0  0  0  0  0  0  0  0
  -20.9470   -4.0869   22.7201 C   0  0  0  0  0  0  0  0  0  0  0  0
  -28.2268  -21.7919   19.7735 C   0  0  0  0  0  0  0  0  0  0  0  0
  -29.0623  -23.2775   21.9821 C   0  0  0  0  0  0  0  0  0  0  0  0
  -25.3375  -27.4869   20.6182 C   0  0  0  0  0  0  0  0  0  0  0  0
  -22.6155   -4.5962   24.3916 C   0  0  0  0  0  0  0  0  0  0  0  0
  -24.6037   -9.9349   21.6862 C   0  0  0  0  0  0  0  0  0  0  0  0
  -27.0525  -10.6469   21.7495 C   0  0  0  0  0  0  0  0  0  0  0  0
  -24.6330  -35.0781   25.6167 C   0  0  0  0  0  0  0  0  0  0  0  0
  -26.0261  -29.8061   20.7028 C   0  0  0  0  0  0  0  0  0  0  0  0
  -25.0708  -33.8066   25.1998 C   0  0  0  0  0  0  0  0  0  0  0  0
  -28.7924  -21.1477   20.8738 C   0  0  0  0  0  0  0  0  0  0  0  0
  -29.2101  -21.8905   21.9781 C   0  0  0  0  0  0  0  0  0  0  0  0
  -25.0067  -28.8503   20.5868 C   0  0  0  0  0  0  0  0  0  0  0  0
  -28.0791  -23.1790   19.7774 C   0  0  0  0  0  0  0  0  0  0  0  0
  -28.4967  -23.9218   20.8817 C   0  0  0  0  0  0  0  0  0  0  0  0
  -22.4000   -8.4593   22.5516 C   0  0  0  0  0  0  0  0  0  0  0  0
  -26.6650  -27.0801   20.7501 C   0  0  0  0  0  0  0  0  0  0  0  0
  -21.5078   -6.3861   23.2059 C   0  0  0  0  0  0  0  0  0  0  0  0
  -21.8724   -3.6600   23.6724 C   0  0  0  0  0  0  0  0  0  0  0  0
  -22.4332   -5.9592   24.1583 C   0  0  0  0  0  0  0  0  0  0  0  0
  -25.7417  -10.6968   21.2384 C   0  0  0  0  0  0  0  0  0  0  0  0
  -27.7519  -11.5525   20.9898 C   0  0  0  0  0  0  0  0  0  0  0  0
  -27.5898   -9.8528   22.8155 C   0  0  0  0  0  0  0  0  0  0  0  0
  -24.0304  -31.4827   22.5221 C   0  0  0  0  0  0  0  0  0  0  0  0
  -22.0826  -31.2293   19.9407 C   0  0  0  0  0  0  0  0  0  0  0  0
  -21.2310  -29.5237   17.1101 C   0  0  0  0  0  0  0  0  0  0  0  0
  -28.2926  -16.3767   18.4489 C   0  0  0  0  0  0  0  0  0  0  0  0
  -23.1729  -35.4560   25.6101 C   0  0  0  0  0  0  0  0  0  0  0  0
  -25.7035  -31.2742   20.6478 C   0  0  0  0  0  0  0  0  0  0  0  0
  -23.5613  -29.2465   20.4375 C   0  0  0  0  0  0  0  0  0  0  0  0
  -22.3132  -34.5495   24.7328 C   0  0  0  0  0  0  0  0  0  0  0  0
  -31.7065  -20.8665   24.3376 C   0  0  0  0  0  0  0  0  0  0  0  0
  -26.4866  -13.9742   16.7417 C   0  0  0  0  0  0  0  0  0  0  0  0
  -22.6459  -33.0837   24.9924 C   0  0  0  0  0  0  0  0  0  0  0  0
  -26.2338  -12.8942   17.7933 C   0  0  0  0  0  0  0  0  0  0  0  0
  -31.1781  -20.3534   22.9877 C   0  0  0  0  0  0  0  0  0  0  0  0
  -30.7586  -22.0671   24.1814 C   0  0  0  0  0  0  0  0  0  0  0  0
  -27.5841  -18.9233   20.7578 C   0  0  0  0  0  0  0  0  0  0  0  0
  -29.8804  -19.1704   19.7208 C   0  0  0  0  0  0  0  0  0  0  0  0
  -26.3229  -15.3668   17.3395 C   0  0  0  0  0  0  0  0  0  0  0  0
  -27.7464  -17.4016   20.7010 C   0  0  0  0  0  0  0  0  0  0  0  0
  -29.9991  -17.6491   19.7128 C   0  0  0  0  0  0  0  0  0  0  0  0
  -26.9536  -14.5483   19.5868 C   0  0  0  0  0  0  0  0  0  0  0  0
  -28.9441  -19.6384   20.8496 C   0  0  0  0  0  0  0  0  0  0  0  0
  -24.1080  -32.7798   24.6440 C   0  0  1  0  0  0  0  0  0  0  0  0
  -24.2626  -31.5845   21.0411 C   0  0  1  0  0  0  0  0  0  0  0  0
  -27.1131  -13.1164   19.0367 C   0  0  1  0  0  0  0  0  0  0  0  0
  -29.8622  -21.1718   23.2512 C   0  0  0  0  0  0  0  0  0  0  0  0
  -27.4706  -23.8466   18.5881 C   0  0  0  0  0  0  0  0  0  0  0  0
  -19.5718  -29.5349   15.2274 C   0  0  0  0  0  0  0  0  0  0  0  0
  -19.9517  -30.1086   21.8151 C   0  0  0  0  0  0  0  0  0  0  0  0
  -18.7203  -29.2721   19.8021 C   0  0  0  0  0  0  0  0  0  0  0  0
  -19.0942  -31.7198   20.1054 C   0  0  0  0  0  0  0  0  0  0  0  0
  -23.3595  -29.8637   15.0821 C   0  0  0  0  0  0  0  0  0  0  0  0
  -28.3483  -25.4076   20.9089 C   0  0  0  0  0  0  0  0  0  1  0  0
  -21.0434  -30.2365   19.4788 C   0  0  1  0  0  0  0  0  0  0  0  0
  -20.9423  -29.9974   15.6970 C   0  0  2  0  0  0  0  0  0  0  0  0
  -19.7293  -30.3265   20.3051 C   0  0  0  0  0  0  0  0  0  0  0  0
  -25.6133  -11.5655   20.2320 N   0  0  0  0  0  0  0  0  0  0  0  0
  -26.8525  -12.0700   20.1046 N   0  0  0  0  0  0  0  0  0  0  0  0
  -23.2961  -30.6940   20.3952 N   0  0  0  0  0  0  0  0  0  0  0  0
  -27.1708  -15.5371   18.5192 N   0  0  0  0  0  0  0  0  0  0  0  0
  -28.6817  -17.0187   19.6342 N   0  0  0  0  0  0  0  0  0  0  0  0
  -29.0423  -11.9489   20.9993 N   0  0  0  0  0  0  0  0  0  0  0  0
  -26.7327   -8.9735   23.4911 N   0  0  0  0  0  0  0  0  0  0  0  0
  -24.2710  -32.6560   23.2113 N   0  0  0  0  0  0  0  0  0  0  0  0
  -20.8669  -30.4656   18.0489 N   0  0  0  0  0  0  0  0  0  0  0  0
  -21.9663  -29.4663   14.7534 N   0  3  0  0  0  0  0  0  0  0  0  0
  -28.7905   -9.9331   23.1696 O   0  0  0  0  0  0  0  0  0  0  0  0
  -23.6590  -30.4188   23.0038 O   0  0  0  0  0  0  0  0  0  0  0  0
  -21.8297  -32.4357   19.8929 O   0  0  0  0  0  0  0  0  0  0  0  0
  -21.7262  -28.4261   17.3566 O   0  0  0  0  0  0  0  0  0  0  0  0
  -28.9112  -16.5430   17.3902 O   0  0  0  0  0  0  0  0  0  0  0  0
  -28.8605  -20.4110   23.9779 O   0  0  0  0  0  0  0  0  0  0  0  0
  -21.3250   -7.7390   22.9737 O   0  0  0  0  0  0  0  0  0  0  0  0
  -26.9735  -25.7450   20.7775 O   0  0  0  0  0  0  0  0  0  1  0  0
  -22.0463   -2.3510   23.8974 F   0  0  0  0  0  0  0  0  0  0  0  0
  -23.1491   -6.8539   24.8530 F   0  0  0  0  0  0  0  0  0  0  0  0
  1  2  1  0  0  0  0
  1  5  2  0  0  0  0
  2  6  2  0  0  0  0
  3  8  2  0  0  0  0
  3 17  1  0  0  0  0
  4  9  1  0  0  0  0
  4 17  2  0  0  0  0
  5 19  1  0  0  0  0
  6 21  1  0  0  0  0
  7 10  2  0  0  0  0
  7 20  1  0  0  0  0
  8 27  1  0  0  0  0
  9 27  2  0  0  0  0
 10 28  1  0  0  0  0
 11 12  2  0  0  0  0
 11 29  1  0  0  0  0
 12 30  1  0  0  0  0
 13 22  2  0  0  0  0
 13 25  1  0  0  0  0
 14 23  2  0  0  0  0
 14 26  1  0  0  0  0
 15 24  1  0  0  0  0
 15 28  2  0  0  0  0
 16 30  2  0  0  0  0
 16 31  1  0  0  0  0
 17 32  1  0  0  0  0
 18 32  1  0  0  0  0
 18 33  2  0  0  0  0
 18 34  1  0  0  0  0
 19 21  2  0  0  0  0
 19 39  1  0  0  0  0
 20 24  2  0  0  0  0
 20 40  1  0  0  0  0
 21 56  1  0  0  0  0
 22 23  1  0  0  0  0
 22 55  1  0  0  0  0
 23 59  1  0  0  0  0
 24 41  1  0  0  0  0
 25 26  2  0  0  0  0
 25 60  1  0  0  0  0
 26 66  1  0  0  0  0
 27 86  1  0  0  0  0
 28 87  1  0  0  0  0
 29 31  2  0  0  0  0
 29 86  1  0  0  0  0
 30 88  1  0  0  0  0
 31 89  1  0  0  0  0
 32 70  2  0  0  0  0
 33 71  1  0  0  0  0
 33 75  1  0  0  0  0
 34 76  1  0  0  0  0
 34 80  2  0  0  0  0
 35 57  1  0  0  0  0
 35 77  1  0  0  0  0
 35 81  2  0  0  0  0
 36 67  1  0  0  0  0
 36 72  1  0  0  0  0
 36 82  2  0  0  0  0
 37 68  1  0  0  0  0
 37 78  1  0  0  0  0
 37 83  2  0  0  0  0
 38 73  1  0  0  0  0
 38 74  1  0  0  0  0
 38 84  2  0  0  0  0
 39 42  1  0  0  0  0
 40 57  1  0  0  0  0
 41 72  1  0  0  0  0
 42 45  1  0  0  0  0
 43 47  1  0  0  0  0
 43 48  1  0  0  0  0
 44 46  1  0  0  0  0
 44 51  1  0  0  0  0
 45 56  1  0  0  0  0
 46 58  1  0  0  0  0
 47 59  1  0  0  0  0
 48 59  1  0  0  0  0
 49 52  1  0  0  0  0
 49 55  1  0  0  0  0
 50 53  1  0  0  0  0
 50 55  1  0  0  0  0
 51 73  1  0  0  0  0
 52 74  1  0  0  0  0
 53 74  1  0  0  0  0
 54 58  1  0  0  0  0
 54 73  1  0  0  0  0
 56 77  1  0  0  0  0
 57 72  1  0  0  0  0
 58 71  1  0  0  0  0
 59 85  1  0  0  0  0
 61 68  1  0  0  0  0
 62 69  1  0  0  0  0
 63 69  1  0  0  0  0
 64 69  1  0  0  0  0
 65 79  1  0  0  0  0
 66 87  1  0  0  0  0
 67 69  1  0  0  0  0
 67 78  1  0  0  0  0
 68 79  1  0  0  0  0
 70 71  1  0  0  0  0
M  CHG  1  79   1
M  ISO  4  38 100  66 101  74 100  87 101
M  END
> <Batch ID>
0155

> <Smiles>
CNC(C)C(=O)NC(C(=O)N1Cc2cc([101O:1][101CH2:1]c3cc(C4(O)CCC4)c(C4CC[100N:0]([100C:0](=O)N5CCCC(n6nc(-c7ccc(Oc8ccc(F)cc8F)cc7)c(C(N)=O)c6N)C5)CC4)cc3C)ccc2CC1C(=O)NC1CCCc2ccccc21)C(C)(C)C

> <Shape>
0.267

> <Color>
0.071

> <Negative vol penalty>
0.000

$$$$

  -OEChem-04052321543D

 90100  0     1  0  0  0  0  0999 V2000
  -16.3275  -29.6729   21.1030 C   0  0  0  0  0  0  0  0  0  0  0  0
  -17.0236  -28.4813   20.9271 C   0  0  0  0  0  0  0  0  0  0  0  0
  -23.4058  -10.1580   22.2152 C   0  0  0  0  0  0  0  0  0  0  0  0
  -23.4410   -9.7635   19.8319 C   0  0  0  0  0  0  0  0  0  0  0  0
  -17.0240  -30.8749   21.2209 C   0  0  0  0  0  0  0  0  0  0  0  0
  -18.4168  -28.4912   20.8678 C   0  0  0  0  0  0  0  0  0  0  0  0
  -29.2088  -16.7025   25.5002 C   0  0  0  0  0  0  0  0  0  0  0  0
  -28.7877  -17.6467   26.4364 C   0  0  0  0  0  0  0  0  0  0  0  0
  -22.3546  -24.6870   25.5489 C   0  0  0  0  0  0  0  0  0  0  0  0
  -22.6389   -9.0068   22.3945 C   0  0  0  0  0  0  0  0  0  0  0  0
  -22.6741   -8.6122   20.0112 C   0  0  0  0  0  0  0  0  0  0  0  0
  -23.1726  -23.8206   26.2745 C   0  0  0  0  0  0  0  0  0  0  0  0
  -19.4044   -8.0898   22.0458 C   0  0  0  0  0  0  0  0  0  0  0  0
  -18.3056   -8.1707   22.9011 C   0  0  0  0  0  0  0  0  0  0  0  0
  -30.9896  -18.1817   24.8091 C   0  0  0  0  0  0  0  0  0  0  0  0
  -25.1310  -24.7679   25.2185 C   0  0  0  0  0  0  0  0  0  0  0  0
  -19.2665   -6.4498   24.2985 C   0  0  0  0  0  0  0  0  0  0  0  0
  -23.8068  -10.5364   20.9339 C   0  0  0  0  0  0  0  0  0  0  0  0
  -24.2457  -13.0444   21.0926 C   0  0  0  0  0  0  0  0  0  0  0  0
  -30.3098  -16.9699   24.6865 C   0  0  0  0  0  0  0  0  0  0  0  0
  -18.4268  -30.8984   21.1727 C   0  0  0  0  0  0  0  0  0  0  0  0
  -22.9235  -25.6088   24.6657 C   0  0  0  0  0  0  0  0  0  0  0  0
  -19.1327  -29.6948   20.9838 C   0  0  0  0  0  0  0  0  0  0  0  0
  -29.4676  -18.8586   26.5590 C   0  0  0  0  0  0  0  0  0  0  0  0
  -24.3176  -25.6468   24.4983 C   0  0  0  0  0  0  0  0  0  0  0  0
  -30.5685  -19.1261   25.7453 C   0  0  0  0  0  0  0  0  0  0  0  0
  -22.2731   -8.2339   21.2925 C   0  0  0  0  0  0  0  0  0  0  0  0
  -24.5573  -23.8608   26.1095 C   0  0  0  0  0  0  0  0  0  0  0  0
  -20.4343   -7.1889   22.3168 C   0  0  0  0  0  0  0  0  0  0  0  0
  -18.2366   -7.3507   24.0275 C   0  0  0  0  0  0  0  0  0  0  0  0
  -20.3654   -6.3689   23.4431 C   0  0  0  0  0  0  0  0  0  0  0  0
  -24.5985  -11.7258   20.7479 C   0  0  0  0  0  0  0  0  0  0  0  0
  -25.3289  -13.7996   20.7148 C   0  0  0  0  0  0  0  0  0  0  0  0
  -23.0460  -13.5420   21.7000 C   0  0  0  0  0  0  0  0  0  0  0  0
  -22.3646  -28.3930   22.2138 C   0  0  0  0  0  0  0  0  0  0  0  0
  -24.8338  -29.1470   23.8705 C   0  0  0  0  0  0  0  0  0  0  0  0
  -27.3170  -30.7700   25.5548 C   0  0  0  0  0  0  0  0  0  0  0  0
  -30.9343  -14.4526   20.6079 C   0  0  0  0  0  0  0  0  0  0  0  0
  -19.1339  -32.2278   21.2575 C   0  0  0  0  0  0  0  0  0  0  0  0
  -22.0773  -26.5192   23.8179 C   0  0  0  0  0  0  0  0  0  0  0  0
  -24.8831  -26.6312   23.5114 C   0  0  0  0  0  0  0  0  0  0  0  0
  -20.6253  -32.1063   21.5596 C   0  0  0  0  0  0  0  0  0  0  0  0
  -29.3613  -12.6428   17.9278 C   0  0  0  0  0  0  0  0  0  0  0  0
  -21.2639  -31.0397   20.6757 C   0  0  0  0  0  0  0  0  0  0  0  0
  -27.9757  -12.3013   18.4655 C   0  0  0  0  0  0  0  0  0  0  0  0
  -28.2776  -19.3224   28.8202 C   0  0  0  0  0  0  0  0  0  0  0  0
  -30.3980  -12.6219   19.0431 C   0  0  0  0  0  0  0  0  0  0  0  0
  -29.7255  -15.0828   22.8444 C   0  0  0  0  0  0  0  0  0  0  0  0
  -31.2887  -16.3816   22.2421 C   0  0  0  0  0  0  0  0  0  0  0  0
  -28.6812  -13.2549   20.7181 C   0  0  0  0  0  0  0  0  0  0  0  0
  -27.6705  -20.5666   29.4329 C   0  0  0  0  0  0  0  0  0  0  0  0
  -27.9725  -20.8700   27.0283 C   0  0  0  0  0  0  0  0  0  0  0  0
  -30.7878  -15.8968   23.6221 C   0  0  0  0  0  0  0  0  0  0  0  0
  -28.9921  -19.8671   27.5825 C   0  0  2  0  0  0  0  0  0  0  0  0
  -20.6450  -29.6617   20.9394 C   0  0  1  0  0  0  0  0  0  0  0  0
  -22.7210  -27.8977   23.5847 C   0  0  1  0  0  0  0  0  0  0  0  0
  -27.6003  -13.2426   19.6191 C   0  0  2  0  0  0  0  0  0  0  0  0
  -32.6295  -20.2607   26.6122 C   0  0  0  0  0  0  0  0  0  0  0  0
  -29.0922  -32.5163   25.2444 C   0  0  0  0  0  0  0  0  0  0  0  0
  -26.2715  -23.1318   29.6201 C   0  0  0  0  0  0  0  0  0  0  0  0
  -26.5444  -27.1322   22.3479 C   0  0  0  0  0  0  0  0  0  0  0  0
  -28.5500  -28.5259   22.8984 C   0  0  0  0  0  0  0  0  0  0  0  0
  -26.7100  -29.4837   21.5129 C   0  0  0  0  0  0  0  0  0  0  0  0
  -26.1212  -32.5191   27.6211 C   0  0  0  0  0  0  0  0  0  0  0  0
  -31.3122  -20.4165   25.8585 C   0  0  0  0  0  0  0  0  0  0  0  0
  -26.6624  -23.4732   27.1471 C   0  0  0  0  0  0  0  0  0  1  0  0
  -26.3369  -29.1167   23.9863 C   0  0  1  0  0  0  0  0  0  0  0  0
  -27.6582  -32.2446   25.6715 C   0  0  2  0  0  0  0  0  0  0  0  0
  -27.1631  -22.8183   28.4296 C   0  0  2  0  0  0  0  0  0  0  0  0
  -27.0186  -28.5545   22.7070 C   0  0  0  0  0  0  0  0  0  0  0  0
  -25.8110  -11.6446   20.1937 N   0  0  0  0  0  0  0  0  0  0  0  0
  -26.2295  -12.9217   20.1871 N   0  0  0  0  0  0  0  0  0  0  0  0
  -24.1925  -27.9240   23.6395 N   0  0  0  0  0  0  0  0  0  0  0  0
  -30.0214  -13.4899   20.1631 N   0  0  0  0  0  0  0  0  0  0  0  0
  -30.5815  -15.2373   21.6805 N   0  0  0  0  0  0  0  0  0  0  0  0
  -25.5894  -15.1223   20.7858 N   0  0  0  0  0  0  0  0  0  0  0  0
  -22.0330  -12.6293   22.0241 N   0  0  0  0  0  0  0  0  0  0  0  0
  -21.1753  -29.0947   22.1607 N   0  0  0  0  0  0  0  0  0  0  0  0
  -26.7468  -30.4727   24.3351 N   0  0  0  0  0  0  0  0  0  0  0  0
  -27.1738  -21.3361   28.2326 N   0  3  2  0  0  0  0  0  0  0  0  0
  -27.4918  -32.7050   27.0791 N   0  3  0  0  0  0  0  0  0  0  0  0
  -22.8707  -14.7620   21.9329 O   0  0  0  0  0  0  0  0  0  0  0  0
  -23.1135  -28.1578   21.2728 O   0  0  0  0  0  0  0  0  0  0  0  0
  -24.2424  -30.2251   23.9760 O   0  0  0  0  0  0  0  0  0  0  0  0
  -27.5379  -29.9620   26.4542 O   0  0  0  0  0  0  0  0  0  0  0  0
  -32.0470  -14.5898   20.0824 O   0  0  0  0  0  0  0  0  0  0  0  0
  -21.5250   -7.1103   21.4671 O   0  0  0  0  0  0  0  0  0  0  0  0
  -25.3555  -23.0095   26.8292 O   0  0  0  0  0  0  0  0  0  1  0  0
  -17.1820   -7.4296   24.8495 F   0  0  0  0  0  0  0  0  0  0  0  0
  -21.3523   -5.5023   23.7093 F   0  0  0  0  0  0  0  0  0  0  0  0
  1  2  1  0  0  0  0
  1  5  2  0  0  0  0
  2  6  2  0  0  0  0
  3 10  2  0  0  0  0
  3 18  1  0  0  0  0
  4 11  1  0  0  0  0
  4 18  2  0  0  0  0
  5 21  1  0  0  0  0
  6 23  1  0  0  0  0
  7  8  2  0  0  0  0
  7 20  1  0  0  0  0
  8 24  1  0  0  0  0
  9 12  2  0  0  0  0
  9 22  1  0  0  0  0
 10 27  1  0  0  0  0
 11 27  2  0  0  0  0
 12 28  1  0  0  0  0
 13 14  2  0  0  0  0
 13 29  1  0  0  0  0
 14 30  1  0  0  0  0
 15 20  2  0  0  0  0
 15 26  1  0  0  0  0
 16 25  1  0  0  0  0
 16 28  2  0  0  0  0
 17 30  2  0  0  0  0
 17 31  1  0  0  0  0
 18 32  1  0  0  0  0
 19 32  1  0  0  0  0
 19 33  2  0  0  0  0
 19 34  1  0  0  0  0
 20 53  1  0  0  0  0
 21 23  2  0  0  0  0
 21 39  1  0  0  0  0
 22 25  2  0  0  0  0
 22 40  1  0  0  0  0
 23 55  1  0  0  0  0
 24 26  2  0  0  0  0
 24 54  1  0  0  0  0
 25 41  1  0  0  0  0
 26 65  1  0  0  0  0
 27 87  1  0  0  0  0
 28 88  1  0  0  0  0
 29 31  2  0  0  0  0
 29 87  1  0  0  0  0
 30 89  1  0  0  0  0
 31 90  1  0  0  0  0
 32 71  2  0  0  0  0
 33 72  1  0  0  0  0
 33 76  1  0  0  0  0
 34 77  1  0  0  0  0
 34 82  2  0  0  0  0
 35 56  1  0  0  0  0
 35 78  1  0  0  0  0
 35 83  2  0  0  0  0
 36 67  1  0  0  0  0
 36 73  1  0  0  0  0
 36 84  2  0  0  0  0
 37 68  1  0  0  0  0
 37 79  1  0  0  0  0
 37 85  2  0  0  0  0
 38 74  1  0  0  0  0
 38 75  1  0  0  0  0
 38 86  2  0  0  0  0
 39 42  1  0  0  0  0
 40 56  1  0  0  0  0
 41 73  1  0  0  0  0
 42 44  1  0  0  0  0
 43 45  1  0  0  0  0
 43 47  1  0  0  0  0
 44 55  1  0  0  0  0
 45 57  1  0  0  0  0
 46 51  1  0  0  0  0
 46 54  1  0  0  0  0
 47 74  1  0  0  0  0
 48 53  1  0  0  0  0
 48 75  1  0  0  0  0
 49 53  1  0  0  0  0
 49 75  1  0  0  0  0
 50 57  1  0  0  0  0
 50 74  1  0  0  0  0
 51 80  1  0  0  0  0
 52 54  1  0  0  0  0
 52 80  1  0  0  0  0
 55 78  1  0  0  0  0
 56 73  1  0  0  0  0
 57 72  1  0  0  0  0
 58 65  1  0  0  0  0
 59 68  1  0  0  0  0
 60 69  1  0  0  0  0
 61 70  1  0  0  0  0
 62 70  1  0  0  0  0
 63 70  1  0  0  0  0
 64 81  1  0  0  0  0
 66 69  1  0  0  0  0
 66 88  1  0  0  0  0
 67 70  1  0  0  0  0
 67 79  1  0  0  0  0
 68 81  1  0  0  0  0
 69 80  1  0  0  0  0
 71 72  1  0  0  0  0
M  CHG  2  80   1  81   1
M  ISO  4  38 100  66 101  75 100  88 101
M  END
> <Batch ID>
0155

> <Smiles>
CCc1cc(C2C[100N:0]([100C:0](=O)N3CCCC(n4nc(-c5ccc(Oc6ccc(F)cc6F)cc5)c(C(N)=O)c4N)C3)C2)ccc1C1CCN(C(C)[101CH2:1][101O:1]c2ccc3c(c2)CN(C(=O)C(NC(=O)C(C)NC)C(C)(C)C)C(C(=O)NC2CCCc4ccccc42)C3)C1

> <Shape>
0.240

> <Color>
0.190

> <Negative vol penalty>
0.000

$$$$

  -OEChem-04052321543D

 88 97  0     1  0  0  0  0  0999 V2000
  -30.3864  -28.2622   13.7741 C   0  0  0  0  0  0  0  0  0  0  0  0
  -29.9518  -27.5740   14.9023 C   0  0  0  0  0  0  0  0  0  0  0  0
  -23.1449   -9.8429   19.9298 C   0  0  0  0  0  0  0  0  0  0  0  0
  -23.7445   -9.9623   22.2671 C   0  0  0  0  0  0  0  0  0  0  0  0
  -30.9036  -29.5507   13.9011 C   0  0  0  0  0  0  0  0  0  0  0  0
  -30.0352  -28.1736   16.1585 C   0  0  0  0  0  0  0  0  0  0  0  0
  -25.8224  -27.5411   18.8966 C   0  0  0  0  0  0  0  0  0  0  0  0
  -22.4124   -8.6819   20.1769 C   0  0  0  0  0  0  0  0  0  0  0  0
  -23.0120   -8.8013   22.5143 C   0  0  0  0  0  0  0  0  0  0  0  0
  -25.6407  -26.3015   19.5083 C   0  0  0  0  0  0  0  0  0  0  0  0
  -24.8320  -20.3606   23.1579 C   0  0  0  0  0  0  0  0  0  0  0  0
  -23.7068  -21.0837   22.7619 C   0  0  0  0  0  0  0  0  0  0  0  0
  -23.4174   -5.4681   22.1184 C   0  0  0  0  0  0  0  0  0  0  0  0
  -24.0055   -4.4890   22.9191 C   0  0  0  0  0  0  0  0  0  0  0  0
  -26.4168  -27.2253   21.5972 C   0  0  0  0  0  0  0  0  0  0  0  0
  -22.1870   -4.6872   24.4973 C   0  0  0  0  0  0  0  0  0  0  0  0
  -23.8110  -10.4831   20.9748 C   0  0  0  0  0  0  0  0  0  0  0  0
  -24.1017  -13.0094   20.7721 C   0  0  0  0  0  0  0  0  0  0  0  0
  -30.9845  -30.1701   15.1583 C   0  0  0  0  0  0  0  0  0  0  0  0
  -26.3138  -28.6311   19.6292 C   0  0  0  0  0  0  0  0  0  0  0  0
  -30.5552  -29.4711   16.3026 C   0  0  0  0  0  0  0  0  0  0  0  0
  -26.6014  -28.4783   20.9931 C   0  0  0  0  0  0  0  0  0  0  0  0
  -26.2469  -21.8974   21.9440 C   0  0  0  0  0  0  0  0  0  0  0  0
  -25.1217  -22.6204   21.5479 C   0  0  0  0  0  0  0  0  0  0  0  0
  -22.3459   -8.1610   21.4692 C   0  0  0  0  0  0  0  0  0  0  0  0
  -25.9407  -26.1427   20.8581 C   0  0  0  0  0  0  0  0  0  0  0  0
  -26.1020  -20.7675   22.7490 C   0  0  0  0  0  0  0  0  0  0  0  0
  -23.8517  -22.2136   21.9569 C   0  0  0  0  0  0  0  0  0  0  0  0
  -22.2141   -6.0569   22.5072 C   0  0  0  0  0  0  0  0  0  0  0  0
  -23.3903   -4.0985   24.1085 C   0  0  0  0  0  0  0  0  0  0  0  0
  -21.5989   -5.6664   23.6966 C   0  0  0  0  0  0  0  0  0  0  0  0
  -24.5682  -11.6821   20.7200 C   0  0  0  0  0  0  0  0  0  0  0  0
  -25.1987  -13.7716   20.4526 C   0  0  0  0  0  0  0  0  0  0  0  0
  -22.7938  -13.5085   21.0816 C   0  0  0  0  0  0  0  0  0  0  0  0
  -28.9004  -30.4701   19.4517 C   0  0  0  0  0  0  0  0  0  0  0  0
  -27.4060  -32.1282   21.8054 C   0  0  0  0  0  0  0  0  0  0  0  0
  -25.1391  -32.1318   24.3564 C   0  0  0  0  0  0  0  0  0  0  0  0
  -30.5204  -15.0098   20.7947 C   0  0  0  0  0  0  0  0  0  0  0  0
  -31.5948  -31.5461   15.2517 C   0  0  0  0  0  0  0  0  0  0  0  0
  -26.4789  -29.9686   18.9611 C   0  0  0  0  0  0  0  0  0  0  0  0
  -27.1123  -29.6224   21.8288 C   0  0  0  0  0  0  0  0  0  0  0  0
  -31.3018  -32.2541   16.5720 C   0  0  0  0  0  0  0  0  0  0  0  0
  -29.7137  -12.4564   18.6077 C   0  0  0  0  0  0  0  0  0  0  0  0
  -31.5404  -31.3116   17.7475 C   0  0  0  0  0  0  0  0  0  0  0  0
  -28.2622  -12.1262   18.9551 C   0  0  0  0  0  0  0  0  0  0  0  0
  -28.7421  -18.1574   21.6054 C   0  0  0  0  0  0  0  0  0  0  0  0
  -28.2002  -16.4361   23.3638 C   0  0  0  0  0  0  0  0  0  0  0  0
  -30.5318  -12.7132   19.8681 C   0  0  0  0  0  0  0  0  0  0  0  0
  -30.0081  -17.3784   21.2595 C   0  0  0  0  0  0  0  0  0  0  0  0
  -29.4783  -15.6931   22.9889 C   0  0  0  0  0  0  0  0  0  0  0  0
  -28.5245  -13.4761   21.0946 C   0  0  0  0  0  0  0  0  0  0  0  0
  -30.6065  -30.0973   17.6793 C   0  0  1  0  0  0  0  0  0  0  0  0
  -27.4720  -30.8768   19.6795 C   0  0  1  0  0  0  0  0  0  0  0  0
  -28.3204  -17.9363   23.0638 C   0  0  0  0  0  0  0  0  0  0  0  0
  -27.6478  -13.2143   19.8535 C   0  0  2  0  0  0  0  0  0  0  0  0
  -27.6119  -22.3269   21.5095 C   0  0  0  0  0  0  0  0  0  0  0  0
  -24.1625  -33.6242   26.1217 C   0  0  0  0  0  0  0  0  0  0  0  0
  -29.9576  -31.8435   23.4541 C   0  0  0  0  0  0  0  0  0  0  0  0
  -28.6354  -32.4814   25.4821 C   0  0  0  0  0  0  0  0  0  0  0  0
  -28.8718  -34.0922   23.5921 C   0  0  0  0  0  0  0  0  0  0  0  0
  -22.4104  -31.8562   23.2441 C   0  0  0  0  0  0  0  0  0  0  0  0
  -22.3131  -23.9622   22.4374 C   0  0  0  0  0  0  0  0  0  0  0  0
  -25.2695  -23.8324   20.6841 C   0  0  0  0  0  0  0  0  0  1  0  0
  -27.0091  -18.6575   23.3662 C   0  0  0  0  0  0  0  0  0  0  0  0
  -27.3890  -32.0635   23.3135 C   0  0  1  0  0  0  0  0  0  0  0  0
  -24.0161  -33.0920   24.7046 C   0  0  2  0  0  0  0  0  0  0  0  0
  -28.7057  -32.5979   23.9445 C   0  0  0  0  0  0  0  0  0  0  0  0
  -25.8608  -11.6024   20.3930 N   0  0  0  0  0  0  0  0  0  0  0  0
  -26.2158  -12.8891   20.2366 N   0  0  0  0  0  0  0  0  0  0  0  0
  -27.2630  -30.9087   21.1285 N   0  0  0  0  0  0  0  0  0  0  0  0
  -29.9135  -13.7487   20.6958 N   0  0  0  0  0  0  0  0  0  0  0  0
  -29.8755  -15.9627   21.6005 N   0  0  0  0  0  0  0  0  0  0  0  0
  -25.3827  -15.1041   20.3380 N   0  0  0  0  0  0  0  0  0  0  0  0
  -21.7823  -12.5877   21.3874 N   0  0  0  0  0  0  0  0  0  0  0  0
  -29.2765  -30.4571   18.1220 N   0  0  0  0  0  0  0  0  0  0  0  0
  -26.1898  -32.7770   23.7392 N   0  0  0  0  0  0  0  0  0  0  0  0
  -22.6966  -32.4082   24.5933 N   0  3  0  0  0  0  0  0  0  0  0  0
  -22.5257  -14.7339   21.0709 O   0  0  0  0  0  0  0  0  0  0  0  0
  -29.6093  -30.1902   20.4113 O   0  0  0  0  0  0  0  0  0  0  0  0
  -27.5341  -33.2213   21.2484 O   0  0  0  0  0  0  0  0  0  0  0  0
  -25.0907  -30.9302   24.6101 O   0  0  0  0  0  0  0  0  0  0  0  0
  -31.5716  -15.2727   20.1973 O   0  0  0  0  0  0  0  0  0  0  0  0
  -21.6311   -7.0283   21.7109 O   0  0  0  0  0  0  0  0  0  0  0  0
  -22.7405  -22.9059   21.5798 O   0  0  0  0  0  0  0  0  0  0  0  0
  -25.7614  -24.9095   21.4695 O   0  0  0  0  0  0  0  0  0  1  0  0
  -27.1980  -20.0434   23.1492 O   0  0  0  0  0  0  0  0  0  0  0  0
  -23.9544   -3.1572   24.8765 F   0  0  0  0  0  0  0  0  0  0  0  0
  -20.4422   -6.2276   24.0747 F   0  0  0  0  0  0  0  0  0  0  0  0
  1  2  1  0  0  0  0
  1  5  2  0  0  0  0
  2  6  2  0  0  0  0
  3  8  2  0  0  0  0
  3 17  1  0  0  0  0
  4  9  1  0  0  0  0
  4 17  2  0  0  0  0
  5 19  1  0  0  0  0
  6 21  1  0  0  0  0
  7 10  2  0  0  0  0
  7 20  1  0  0  0  0
  8 25  1  0  0  0  0
  9 25  2  0  0  0  0
 10 26  1  0  0  0  0
 11 12  1  0  0  0  0
 11 27  2  0  0  0  0
 12 28  2  0  0  0  0
 13 14  2  0  0  0  0
 13 29  1  0  0  0  0
 14 30  1  0  0  0  0
 15 22  1  0  0  0  0
 15 26  2  0  0  0  0
 16 30  2  0  0  0  0
 16 31  1  0  0  0  0
 17 32  1  0  0  0  0
 18 32  1  0  0  0  0
 18 33  2  0  0  0  0
 18 34  1  0  0  0  0
 19 21  2  0  0  0  0
 19 39  1  0  0  0  0
 20 22  2  0  0  0  0
 20 40  1  0  0  0  0
 21 52  1  0  0  0  0
 22 41  1  0  0  0  0
 23 24  2  0  0  0  0
 23 27  1  0  0  0  0
 23 56  1  0  0  0  0
 24 28  1  0  0  0  0
 24 63  1  0  0  0  0
 25 83  1  0  0  0  0
 26 85  1  0  0  0  0
 27 86  1  0  0  0  0
 28 84  1  0  0  0  0
 29 31  2  0  0  0  0
 29 83  1  0  0  0  0
 30 87  1  0  0  0  0
 31 88  1  0  0  0  0
 32 68  2  0  0  0  0
 33 69  1  0  0  0  0
 33 73  1  0  0  0  0
 34 74  1  0  0  0  0
 34 78  2  0  0  0  0
 35 53  1  0  0  0  0
 35 75  1  0  0  0  0
 35 79  2  0  0  0  0
 36 65  1  0  0  0  0
 36 70  1  0  0  0  0
 36 80  2  0  0  0  0
 37 66  1  0  0  0  0
 37 76  1  0  0  0  0
 37 81  2  0  0  0  0
 38 71  1  0  0  0  0
 38 72  1  0  0  0  0
 38 82  2  0  0  0  0
 39 42  1  0  0  0  0
 40 53  1  0  0  0  0
 41 70  1  0  0  0  0
 42 44  1  0  0  0  0
 43 45  1  0  0  0  0
 43 48  1  0  0  0  0
 44 52  1  0  0  0  0
 45 55  1  0  0  0  0
 46 49  1  0  0  0  0
 46 54  1  0  0  0  0
 47 50  1  0  0  0  0
 47 54  1  0  0  0  0
 48 71  1  0  0  0  0
 49 72  1  0  0  0  0
 50 72  1  0  0  0  0
 51 55  1  0  0  0  0
 51 71  1  0  0  0  0
 52 75  1  0  0  0  0
 53 70  1  0  0  0  0
 54 64  1  0  0  0  0
 55 69  1  0  0  0  0
 57 66  1  0  0  0  0
 58 67  1  0  0  0  0
 59 67  1  0  0  0  0
 60 67  1  0  0  0  0
 61 77  1  0  0  0  0
 62 84  1  0  0  0  0
 63 85  1  0  0  0  0
 64 86  1  0  0  0  0
 65 67  1  0  0  0  0
 65 76  1  0  0  0  0
 66 77  1  0  0  0  0
 68 69  1  0  0  0  0
M  CHG  1  77   1
M  ISO  4  38 100  63 101  72 100  85 101
M  END
> <Batch ID>
0155

> <Smiles>
CNC(C)C(=O)NC(C(=O)N1Cc2cc([101O:1][101CH2:1]c3c(OC)ccc(OCC4CC[100N:0]([100C:0](=O)N5CCCC(n6nc(-c7ccc(Oc8ccc(F)cc8F)cc7)c(C(N)=O)c6N)C5)CC4)c3C)ccc2CC1C(=O)NC1CCCc2ccccc21)C(C)(C)C

> <Shape>
0.269

> <Color>
0.209

> <Negative vol penalty>
0.000

$$$$

  -OEChem-04052321543D

 93103  0     1  0  0  0  0  0999 V2000
  -20.5678  -24.3929   25.0651 C   0  0  0  0  0  0  0  0  0  0  0  0
  -21.9227  -24.5623   24.7989 C   0  0  0  0  0  0  0  0  0  0  0  0
  -22.9432  -11.1822   21.3234 C   0  0  0  0  0  0  0  0  0  0  0  0
  -23.9307   -8.9825   21.1708 C   0  0  0  0  0  0  0  0  0  0  0  0
  -19.6291  -25.2223   24.4528 C   0  0  0  0  0  0  0  0  0  0  0  0
  -22.3397  -25.5606   23.9192 C   0  0  0  0  0  0  0  0  0  0  0  0
  -27.4717  -28.8823   24.2860 C   0  0  0  0  0  0  0  0  0  0  0  0
  -21.6987  -10.6465   20.9923 C   0  0  0  0  0  0  0  0  0  0  0  0
  -22.6862   -8.4468   20.8397 C   0  0  0  0  0  0  0  0  0  0  0  0
  -28.7097  -28.7686   23.6550 C   0  0  0  0  0  0  0  0  0  0  0  0
  -19.8529   -7.5527   22.4502 C   0  0  0  0  0  0  0  0  0  0  0  0
  -19.4651   -6.3751   23.0894 C   0  0  0  0  0  0  0  0  0  0  0  0
  -30.9553  -20.7136   19.7347 C   0  0  0  0  0  0  0  0  0  0  0  0
  -30.1621  -21.5969   21.8388 C   0  0  0  0  0  0  0  0  0  0  0  0
  -28.0054  -30.3738   21.9976 C   0  0  0  0  0  0  0  0  0  0  0  0
  -19.3116   -5.2641   20.9495 C   0  0  0  0  0  0  0  0  0  0  0  0
  -24.0593  -10.3502   21.4126 C   0  0  0  0  0  0  0  0  0  0  0  0
  -25.8890  -11.0576   23.0434 C   0  0  0  0  0  0  0  0  0  0  0  0
  -20.0355  -26.2375   23.5726 C   0  0  0  0  0  0  0  0  0  0  0  0
  -26.4857  -29.7358   23.7705 C   0  0  0  0  0  0  0  0  0  0  0  0
  -21.4055  -26.4035   23.2934 C   0  0  0  0  0  0  0  0  0  0  0  0
  -30.4318  -20.5072   21.0110 C   0  0  0  0  0  0  0  0  0  0  0  0
  -26.7567  -30.4984   22.6255 C   0  0  0  0  0  0  0  0  0  0  0  0
  -30.9396  -23.0996   20.1142 C   0  0  0  0  0  0  0  0  0  0  0  0
  -31.2093  -22.0099   19.2863 C   0  0  0  0  0  0  0  0  0  0  0  0
  -21.5701   -9.2788   20.7505 C   0  0  0  0  0  0  0  0  0  0  0  0
  -28.9757  -29.5122   22.5089 C   0  0  0  0  0  0  0  0  0  0  0  0
  -19.9699   -7.5860   21.0606 C   0  0  0  0  0  0  0  0  0  0  0  0
  -30.4160  -22.8931   21.3905 C   0  0  0  0  0  0  0  0  0  0  0  0
  -19.1945   -5.2308   22.3390 C   0  0  0  0  0  0  0  0  0  0  0  0
  -19.6994   -6.4417   20.3103 C   0  0  0  0  0  0  0  0  0  0  0  0
  -25.3453  -10.9031   21.7541 C   0  0  0  0  0  0  0  0  0  0  0  0
  -27.1217  -11.6248   22.8305 C   0  0  0  0  0  0  0  0  0  0  0  0
  -25.3299  -10.7186   24.3194 C   0  0  0  0  0  0  0  0  0  0  0  0
  -23.5516  -29.3341   22.6158 C   0  0  0  0  0  0  0  0  0  0  0  0
  -23.5470  -32.5775   22.5680 C   0  0  0  0  0  0  0  0  0  0  0  0
  -25.3451  -35.4759   22.4553 C   0  0  0  0  0  0  0  0  0  0  0  0
  -30.4769  -15.1735   20.3463 C   0  0  0  0  0  0  0  0  0  0  0  0
  -18.9809  -27.0787   22.8981 C   0  0  0  0  0  0  0  0  0  0  0  0
  -25.1650  -29.8671   24.4783 C   0  0  0  0  0  0  0  0  0  0  0  0
  -25.7393  -31.4443   22.0436 C   0  0  0  0  0  0  0  0  0  0  0  0
  -19.5313  -28.3555   22.2679 C   0  0  0  0  0  0  0  0  0  0  0  0
  -29.7582  -12.2937   18.5746 C   0  0  0  0  0  0  0  0  0  0  0  0
  -20.7920  -28.0535   21.4640 C   0  0  0  0  0  0  0  0  0  0  0  0
  -28.5899  -11.6765   19.3429 C   0  0  0  0  0  0  0  0  0  0  0  0
  -29.0953  -18.3863   20.6403 C   0  0  0  0  0  0  0  0  0  0  0  0
  -31.4422  -18.2538   21.5805 C   0  0  0  0  0  0  0  0  0  0  0  0
  -29.9048  -25.3038   19.6064 C   0  0  0  0  0  0  0  0  0  0  0  0
  -32.2475  -25.1710   20.5448 C   0  0  0  0  0  0  0  0  0  0  0  0
  -29.6063  -13.8071   18.4739 C   0  0  0  0  0  0  0  0  0  0  0  0
  -28.8465  -16.9529   21.1184 C   0  0  0  0  0  0  0  0  0  0  0  0
  -31.1306  -16.8384   22.0579 C   0  0  0  0  0  0  0  0  0  0  0  0
  -28.3063  -13.8827   20.5768 C   0  0  0  0  0  0  0  0  0  0  0  0
  -30.1582  -26.7511   19.2045 C   0  0  0  0  0  0  0  0  0  0  0  0
  -32.4831  -26.6193   20.1354 C   0  0  0  0  0  0  0  0  0  0  0  0
  -30.1569  -19.0972   21.4988 C   0  0  0  0  0  0  0  0  0  0  0  0
  -31.2091  -24.4914   19.6382 C   0  0  0  0  0  0  0  0  0  0  0  0
  -21.8988  -27.4913   22.3642 C   0  0  1  0  0  0  0  0  0  0  0  0
  -24.0500  -30.3803   23.5722 C   0  0  1  0  0  0  0  0  0  0  0  0
  -28.4127  -12.3504   20.7150 C   0  0  1  0  0  0  0  0  0  0  0  0
  -31.7713  -22.2042   17.9161 C   0  0  0  0  0  0  0  0  0  0  0  0
  -25.0620  -37.9685   22.3900 C   0  0  0  0  0  0  0  0  0  0  0  0
  -22.7569  -32.4083   19.6257 C   0  0  0  0  0  0  0  0  0  0  0  0
  -23.4116  -34.8127   19.3836 C   0  0  0  0  0  0  0  0  0  0  0  0
  -21.5588  -34.1758   20.9277 C   0  0  0  0  0  0  0  0  0  0  0  0
  -26.8044  -35.8249   25.0063 C   0  0  0  0  0  0  0  0  0  0  0  0
  -29.6119  -23.6413   23.4998 C   0  0  0  0  0  0  0  0  0  0  0  0
  -31.3621  -28.8301   19.8702 C   0  0  0  0  0  0  0  0  0  0  0  0
  -30.2126  -29.6080   20.4799 C   0  0  0  0  0  0  0  0  0  1  0  0
  -23.9445  -33.6325   21.5640 C   0  0  1  0  0  0  0  0  0  0  0  0
  -25.2565  -36.7490   23.2775 C   0  0  2  0  0  0  0  0  0  0  0  0
  -22.9366  -33.7381   20.3848 C   0  0  0  0  0  0  0  0  0  0  0  0
  -26.1653  -11.3373   20.7933 N   0  0  0  0  0  0  0  0  0  0  0  0
  -27.2367  -11.7703   21.4793 N   0  0  0  0  0  0  0  0  0  0  0  0
  -24.4607  -31.5330   22.7680 N   0  0  0  0  0  0  0  0  0  0  0  0
  -29.4369  -14.4090   19.7963 N   0  0  0  0  0  0  0  0  0  0  0  0
  -30.1114  -16.2115   21.2166 N   0  0  0  0  0  0  0  0  0  0  0  0
  -28.1075  -12.0084   23.6692 N   0  0  0  0  0  0  0  0  0  0  0  0
  -24.0525  -10.1433   24.3575 N   0  0  0  0  0  0  0  0  0  0  0  0
  -22.5265  -28.5554   23.1180 N   0  0  0  0  0  0  0  0  0  0  0  0
  -24.1142  -34.8700   22.3177 N   0  0  0  0  0  0  0  0  0  0  0  0
  -31.1695  -27.3637   20.1435 N   0  3  0  0  0  0  0  0  0  0  0  0
  -26.5026  -36.9400   24.0723 N   0  3  0  0  0  0  0  0  0  0  0  0
  -25.9381  -10.9350   25.3949 O   0  0  0  0  0  0  0  0  0  0  0  0
  -24.0585  -29.2412   21.5040 O   0  0  0  0  0  0  0  0  0  0  0  0
  -22.4688  -32.6803   23.1584 O   0  0  0  0  0  0  0  0  0  0  0  0
  -26.4002  -35.0626   21.9792 O   0  0  0  0  0  0  0  0  0  0  0  0
  -31.6622  -14.9424   20.0768 O   0  0  0  0  0  0  0  0  0  0  0  0
  -20.3558   -8.7556   20.4276 O   0  0  0  0  0  0  0  0  0  0  0  0
  -30.1453  -23.9453   22.2126 O   0  0  0  0  0  0  0  0  0  0  0  0
  -30.1917  -29.4019   21.8862 O   0  0  0  0  0  0  0  0  0  1  0  0
  -18.8237   -4.0996   22.9531 F   0  0  0  0  0  0  0  0  0  0  0  0
  -19.8113   -6.4673   18.9751 F   0  0  0  0  0  0  0  0  0  0  0  0
  1  2  1  0  0  0  0
  1  5  2  0  0  0  0
  2  6  2  0  0  0  0
  3  8  2  0  0  0  0
  3 17  1  0  0  0  0
  4  9  1  0  0  0  0
  4 17  2  0  0  0  0
  5 19  1  0  0  0  0
  6 21  1  0  0  0  0
  7 10  2  0  0  0  0
  7 20  1  0  0  0  0
  8 26  1  0  0  0  0
  9 26  2  0  0  0  0
 10 27  1  0  0  0  0
 11 12  2  0  0  0  0
 11 28  1  0  0  0  0
 12 30  1  0  0  0  0
 13 22  1  0  0  0  0
 13 25  2  0  0  0  0
 14 22  2  0  0  0  0
 14 29  1  0  0  0  0
 15 23  1  0  0  0  0
 15 27  2  0  0  0  0
 16 30  2  0  0  0  0
 16 31  1  0  0  0  0
 17 32  1  0  0  0  0
 18 32  1  0  0  0  0
 18 33  2  0  0  0  0
 18 34  1  0  0  0  0
 19 21  2  0  0  0  0
 19 39  1  0  0  0  0
 20 23  2  0  0  0  0
 20 40  1  0  0  0  0
 21 58  1  0  0  0  0
 22 56  1  0  0  0  0
 23 41  1  0  0  0  0
 24 25  1  0  0  0  0
 24 29  2  0  0  0  0
 24 57  1  0  0  0  0
 25 61  1  0  0  0  0
 26 89  1  0  0  0  0
 27 91  1  0  0  0  0
 28 31  2  0  0  0  0
 28 89  1  0  0  0  0
 29 90  1  0  0  0  0
 30 92  1  0  0  0  0
 31 93  1  0  0  0  0
 32 73  2  0  0  0  0
 33 74  1  0  0  0  0
 33 78  1  0  0  0  0
 34 79  1  0  0  0  0
 34 84  2  0  0  0  0
 35 59  1  0  0  0  0
 35 80  1  0  0  0  0
 35 85  2  0  0  0  0
 36 70  1  0  0  0  0
 36 75  1  0  0  0  0
 36 86  2  0  0  0  0
 37 71  1  0  0  0  0
 37 81  1  0  0  0  0
 37 87  2  0  0  0  0
 38 76  1  0  0  0  0
 38 77  1  0  0  0  0
 38 88  2  0  0  0  0
 39 42  1  0  0  0  0
 40 59  1  0  0  0  0
 41 75  1  0  0  0  0
 42 44  1  0  0  0  0
 43 45  1  0  0  0  0
 43 50  1  0  0  0  0
 44 58  1  0  0  0  0
 45 60  1  0  0  0  0
 46 51  1  0  0  0  0
 46 56  1  0  0  0  0
 47 52  1  0  0  0  0
 47 56  1  0  0  0  0
 48 54  1  0  0  0  0
 48 57  1  0  0  0  0
 49 55  1  0  0  0  0
 49 57  1  0  0  0  0
 50 76  1  0  0  0  0
 51 77  1  0  0  0  0
 52 77  1  0  0  0  0
 53 60  1  0  0  0  0
 53 76  1  0  0  0  0
 54 82  1  0  0  0  0
 55 82  1  0  0  0  0
 58 80  1  0  0  0  0
 59 75  1  0  0  0  0
 60 74  1  0  0  0  0
 62 71  1  0  0  0  0
 63 72  1  0  0  0  0
 64 72  1  0  0  0  0
 65 72  1  0  0  0  0
 66 83  1  0  0  0  0
 67 90  1  0  0  0  0
 68 69  1  0  0  0  0
 68 82  1  0  0  0  0
 69 91  1  0  0  0  0
 70 72  1  0  0  0  0
 70 81  1  0  0  0  0
 71 83  1  0  0  0  0
 73 74  1  0  0  0  0
M  CHG  2  82   1  83   1
M  ISO  4  38 100  69 101  77 100  91 101
M  END
> <Batch ID>
0155

> <Smiles>
CNC(C)C(=O)NC(C(=O)N1Cc2cc([101O:1][101CH2:1]CN3CCC(c4c(C)cc(C5CC[100N:0]([100C:0](=O)N6CCCC(n7nc(-c8ccc(Oc9ccc(F)cc9F)cc8)c(C(N)=O)c7N)C6)CC5)cc4OC)CC3)ccc2CC1C(=O)NC1CCCc2ccccc21)C(C)(C)C

> <Shape>
0.300

> <Color>
0.120

> <Negative vol penalty>
0.000

$$$$

  -OEChem-04052321543D

 93104  0     1  0  0  0  0  0999 V2000
  -29.9915  -34.2562   25.1012 C   0  0  0  0  0  0  0  0  0  0  0  0
  -29.5072  -33.0497   24.6062 C   0  0  0  0  0  0  0  0  0  0  0  0
  -25.1657   -8.3289   22.0763 C   0  0  0  0  0  0  0  0  0  0  0  0
  -24.8335   -7.8616   19.7293 C   0  0  0  0  0  0  0  0  0  0  0  0
  -29.1111  -35.1851   25.6543 C   0  0  0  0  0  0  0  0  0  0  0  0
  -28.1421  -32.7709   24.6649 C   0  0  0  0  0  0  0  0  0  0  0  0
  -26.3705  -30.8172   20.3418 C   0  0  0  0  0  0  0  0  0  0  0  0
  -23.8583   -7.9220   22.3423 C   0  0  0  0  0  0  0  0  0  0  0  0
  -23.5262   -7.4545   19.9954 C   0  0  0  0  0  0  0  0  0  0  0  0
  -26.6282  -29.4686   20.0998 C   0  0  0  0  0  0  0  0  0  0  0  0
  -22.1803   -5.0083   22.6989 C   0  0  0  0  0  0  0  0  0  0  0  0
  -21.9728   -4.1683   23.7930 C   0  0  0  0  0  0  0  0  0  0  0  0
  -24.3967  -28.9172   20.8319 C   0  0  0  0  0  0  0  0  0  0  0  0
  -28.2863  -21.5663   22.7394 C   0  0  0  0  0  0  0  0  0  0  0  0
  -20.5177   -5.8216   24.7863 C   0  0  0  0  0  0  0  0  0  0  0  0
  -25.6533   -8.2988   20.7697 C   0  0  0  0  0  0  0  0  0  0  0  0
  -28.1600   -7.9169   20.4901 C   0  0  0  0  0  0  0  0  0  0  0  0
  -27.7334  -34.9217   25.7111 C   0  0  0  0  0  0  0  0  0  0  0  0
  -25.1256  -31.2255   20.8417 C   0  0  0  0  0  0  0  0  0  0  0  0
  -27.2427  -33.6967   25.2205 C   0  0  0  0  0  0  0  0  0  0  0  0
  -24.1249  -30.2719   21.0769 C   0  0  0  0  0  0  0  0  0  0  0  0
  -28.0338  -23.1823   20.9762 C   0  0  0  0  0  0  0  0  0  0  0  0
  -27.8471  -22.8113   22.3031 C   0  0  0  0  0  0  0  0  0  0  0  0
  -23.0386   -7.4848   21.3019 C   0  0  0  0  0  0  0  0  0  0  0  0
  -25.6422  -28.5180   20.3476 C   0  0  0  0  0  0  0  0  0  0  0  0
  -21.5565   -6.2549   22.6485 C   0  0  0  0  0  0  0  0  0  0  0  0
  -21.1415   -4.5749   24.8366 C   0  0  0  0  0  0  0  0  0  0  0  0
  -20.7252   -6.6616   23.6922 C   0  0  0  0  0  0  0  0  0  0  0  0
  -27.0035   -8.7196   20.4941 C   0  0  0  0  0  0  0  0  0  0  0  0
  -28.6602  -22.2795   20.1323 C   0  0  0  0  0  0  0  0  0  0  0  0
  -28.9013  -20.7357   21.8165 C   0  0  0  0  0  0  0  0  0  0  0  0
  -29.1778   -8.7828   20.1727 C   0  0  0  0  0  0  0  0  0  0  0  0
  -28.3016   -6.5140   20.7499 C   0  0  0  0  0  0  0  0  0  0  0  0
  -24.1399  -32.6813   23.4899 C   0  0  0  0  0  0  0  0  0  0  0  0
  -21.2753  -32.6622   21.9680 C   0  0  0  0  0  0  0  0  0  0  0  0
  -19.2540  -31.2391   19.6152 C   0  0  0  0  0  0  0  0  0  0  0  0
  -29.9916  -14.4563   20.9070 C   0  0  0  0  0  0  0  0  0  0  0  0
  -26.8265  -35.9365   26.3610 C   0  0  0  0  0  0  0  0  0  0  0  0
  -24.8544  -32.6869   21.0721 C   0  0  0  0  0  0  0  0  0  0  0  0
  -22.7650  -30.6606   21.5945 C   0  0  0  0  0  0  0  0  0  0  0  0
  -25.3484  -35.7232   26.0449 C   0  0  0  0  0  0  0  0  0  0  0  0
  -30.0528  -12.8347   17.7932 C   0  0  0  0  0  0  0  0  0  0  0  0
  -26.4629  -24.3909   19.4038 C   0  0  0  0  0  0  0  0  0  0  0  0
  -28.7159  -25.4173   19.9736 C   0  0  0  0  0  0  0  0  0  0  0  0
  -24.9732  -34.2542   26.2127 C   0  0  0  0  0  0  0  0  0  0  0  0
  -29.4681  -21.6005   17.7743 C   0  0  0  0  0  0  0  0  0  0  0  0
  -30.2923  -22.7781   18.1917 C   0  0  0  0  0  0  0  0  0  0  0  0
  -29.3842  -11.5026   18.1317 C   0  0  0  0  0  0  0  0  0  0  0  0
  -26.4027  -25.5703   18.4250 C   0  0  0  0  0  0  0  0  0  0  0  0
  -28.2423  -26.8359   19.6310 C   0  0  0  0  0  0  0  0  0  0  0  0
  -28.9435  -17.7992   20.5683 C   0  0  0  0  0  0  0  0  0  0  0  0
  -30.7781  -17.5382   22.2812 C   0  0  0  0  0  0  0  0  0  0  0  0
  -29.3696  -14.0125   18.4905 C   0  0  0  0  0  0  0  0  0  0  0  0
  -29.5740  -16.6711   19.7465 C   0  0  0  0  0  0  0  0  0  0  0  0
  -31.3857  -16.4387   21.4146 C   0  0  0  0  0  0  0  0  0  0  0  0
  -28.5751  -12.5187   20.2950 C   0  0  0  0  0  0  0  0  0  0  0  0
  -27.5637  -24.5354   20.4744 C   0  0  0  0  0  0  0  0  0  0  0  0
  -25.7656  -33.3683   25.2437 C   0  0  1  0  0  0  0  0  0  0  0  0
  -28.8826  -22.6343   18.6973 C   0  0  0  0  0  0  0  0  0  0  0  0
  -23.7258  -32.9354   22.0680 C   0  0  1  0  0  0  0  0  0  0  0  0
  -29.2758  -11.3103   19.6549 C   0  0  1  0  0  0  0  0  0  0  0  0
  -29.9875  -18.5261   21.4194 C   0  0  0  0  0  0  0  0  0  0  0  0
  -26.8173  -26.8901   19.0664 C   0  0  0  0  0  0  0  0  0  1  0  0
  -27.1802  -23.7285   23.2744 C   0  0  0  0  0  0  0  0  0  0  0  0
  -16.9547  -31.4167   18.6257 C   0  0  0  0  0  0  0  0  0  0  0  0
  -20.1064  -31.3279   24.4506 C   0  0  0  0  0  0  0  0  0  0  0  0
  -18.1138  -30.6814   23.0797 C   0  0  0  0  0  0  0  0  0  0  0  0
  -18.6542  -33.0910   23.4324 C   0  0  0  0  0  0  0  0  0  0  0  0
  -20.3323  -31.8122   16.9193 C   0  0  0  0  0  0  0  0  0  0  0  0
  -20.1090  -31.7064   21.8967 C   0  0  1  0  0  0  0  0  0  0  0  0
  -18.4084  -31.8488   18.5118 C   0  0  2  0  0  0  0  0  0  0  0  0
  -19.2720  -31.6938   23.2069 C   0  0  0  0  0  0  0  0  0  0  0  0
  -27.2616   -9.9973   20.2026 N   0  0  0  0  0  0  0  0  0  0  0  0
  -29.1004  -21.0614   20.5196 N   0  0  0  0  0  0  0  0  0  0  0  0
  -28.5920  -10.0040   20.0126 N   0  0  0  0  0  0  0  0  0  0  0  0
  -22.5504  -32.1011   21.8100 N   0  0  0  0  0  0  0  0  0  0  0  0
  -29.2530  -13.7657   19.9345 N   0  0  0  0  0  0  0  0  0  0  0  0
  -30.3603  -15.7763   20.6078 N   0  0  0  0  0  0  0  0  0  0  0  0
  -30.5079   -8.6112   20.0180 N   0  0  0  0  0  0  0  0  0  0  0  0
  -27.1533   -5.7729   21.0608 N   0  0  0  0  0  0  0  0  0  0  0  0
  -29.3317  -19.4994   22.2646 N   0  0  0  0  0  0  0  0  0  0  0  0
  -25.2071  -33.4514   23.9112 N   0  0  0  0  0  0  0  0  0  0  0  0
  -19.3504  -32.0762   20.7066 N   0  0  0  0  0  0  0  0  0  0  0  0
  -18.9198  -31.4304   17.1760 N   0  3  0  0  0  0  0  0  0  0  0  0
  -29.4156   -5.9380   20.7237 O   0  0  0  0  0  0  0  0  0  0  0  0
  -23.5350  -31.8493   24.1559 O   0  0  0  0  0  0  0  0  0  0  0  0
  -21.0624  -33.8636   22.1499 O   0  0  0  0  0  0  0  0  0  0  0  0
  -19.7738  -30.1294   19.5201 O   0  0  0  0  0  0  0  0  0  0  0  0
  -30.3033  -13.9249   21.9801 O   0  0  0  0  0  0  0  0  0  0  0  0
  -21.7629   -7.0874   21.5612 O   0  0  0  0  0  0  0  0  0  0  0  0
  -25.8929  -27.1923   20.1114 O   0  0  0  0  0  0  0  0  0  1  0  0
  -20.9411   -3.7676   25.8865 F   0  0  0  0  0  0  0  0  0  0  0  0
  -20.1223   -7.8576   23.6488 F   0  0  0  0  0  0  0  0  0  0  0  0
  1  2  1  0  0  0  0
  1  5  2  0  0  0  0
  2  6  2  0  0  0  0
  3  8  2  0  0  0  0
  3 16  1  0  0  0  0
  4  9  1  0  0  0  0
  4 16  2  0  0  0  0
  5 18  1  0  0  0  0
  6 20  1  0  0  0  0
  7 10  2  0  0  0  0
  7 19  1  0  0  0  0
  8 24  1  0  0  0  0
  9 24  2  0  0  0  0
 10 25  1  0  0  0  0
 11 12  2  0  0  0  0
 11 26  1  0  0  0  0
 12 27  1  0  0  0  0
 13 21  1  0  0  0  0
 13 25  2  0  0  0  0
 14 23  2  0  0  0  0
 14 31  1  0  0  0  0
 15 27  2  0  0  0  0
 15 28  1  0  0  0  0
 16 29  1  0  0  0  0
 17 29  1  0  0  0  0
 17 32  2  0  0  0  0
 17 33  1  0  0  0  0
 18 20  2  0  0  0  0
 18 38  1  0  0  0  0
 19 21  2  0  0  0  0
 19 39  1  0  0  0  0
 20 58  1  0  0  0  0
 21 40  1  0  0  0  0
 22 23  1  0  0  0  0
 22 30  2  0  0  0  0
 22 57  1  0  0  0  0
 23 64  1  0  0  0  0
 24 90  1  0  0  0  0
 25 91  1  0  0  0  0
 26 28  2  0  0  0  0
 26 90  1  0  0  0  0
 27 92  1  0  0  0  0
 28 93  1  0  0  0  0
 29 73  2  0  0  0  0
 30 59  1  0  0  0  0
 30 74  1  0  0  0  0
 31 74  2  0  0  0  0
 31 81  1  0  0  0  0
 32 75  1  0  0  0  0
 32 79  1  0  0  0  0
 33 80  1  0  0  0  0
 33 85  2  0  0  0  0
 34 60  1  0  0  0  0
 34 82  1  0  0  0  0
 34 86  2  0  0  0  0
 35 70  1  0  0  0  0
 35 76  1  0  0  0  0
 35 87  2  0  0  0  0
 36 71  1  0  0  0  0
 36 83  1  0  0  0  0
 36 88  2  0  0  0  0
 37 77  1  0  0  0  0
 37 78  1  0  0  0  0
 37 89  2  0  0  0  0
 38 41  1  0  0  0  0
 39 60  1  0  0  0  0
 40 76  1  0  0  0  0
 41 45  1  0  0  0  0
 42 48  1  0  0  0  0
 42 53  1  0  0  0  0
 43 49  1  0  0  0  0
 43 57  1  0  0  0  0
 44 50  1  0  0  0  0
 44 57  1  0  0  0  0
 45 58  1  0  0  0  0
 46 47  1  0  0  0  0
 46 59  1  0  0  0  0
 47 59  1  0  0  0  0
 48 61  1  0  0  0  0
 49 63  1  0  0  0  0
 50 63  1  0  0  0  0
 51 54  1  0  0  0  0
 51 62  1  0  0  0  0
 52 55  1  0  0  0  0
 52 62  1  0  0  0  0
 53 77  1  0  0  0  0
 54 78  1  0  0  0  0
 55 78  1  0  0  0  0
 56 61  1  0  0  0  0
 56 77  1  0  0  0  0
 58 82  1  0  0  0  0
 60 76  1  0  0  0  0
 61 75  1  0  0  0  0
 62 81  1  0  0  0  0
 63 91  1  0  0  0  0
 65 71  1  0  0  0  0
 66 72  1  0  0  0  0
 67 72  1  0  0  0  0
 68 72  1  0  0  0  0
 69 84  1  0  0  0  0
 70 72  1  0  0  0  0
 70 83  1  0  0  0  0
 71 84  1  0  0  0  0
 73 75  1  0  0  0  0
M  CHG  1  84   1
M  ISO  4  37 100  63 101  78 100  91 101
M  END
> <Batch ID>
0155

> <Smiles>
CNC(C)C(=O)NC(C(=O)N1Cc2cc([101O:1][101CH:1]3CCC(c4c(C)cc(NC5CC[100N:0]([100C:0](=O)N6CCCC(n7nc(-c8ccc(Oc9ccc(F)cc9F)cc8)c(C(N)=O)c7N)C6)CC5)nc4C4CC4)CC3)ccc2CC1C(=O)NC1CCCc2ccccc21)C(C)(C)C

> <Shape>
0.297

> <Color>
0.097

> <Negative vol penalty>
0.000

$$$$

  -OEChem-04052321543D

 89 98  0     1  0  0  0  0  0999 V2000
  -29.0394  -32.9371   25.1899 C   0  0  0  0  0  0  0  0  0  0  0  0
  -28.9258  -31.6790   24.6070 C   0  0  0  0  0  0  0  0  0  0  0  0
  -26.9170  -15.0274   25.8092 C   0  0  0  0  0  0  0  0  0  0  0  0
  -28.3878  -16.7759   25.0238 C   0  0  0  0  0  0  0  0  0  0  0  0
  -27.9046  -33.5821   25.6800 C   0  0  0  0  0  0  0  0  0  0  0  0
  -27.6774  -31.0647   24.5149 C   0  0  0  0  0  0  0  0  0  0  0  0
  -26.8651  -28.9874   19.9684 C   0  0  0  0  0  0  0  0  0  0  0  0
  -27.2397  -15.3483   27.1277 C   0  0  0  0  0  0  0  0  0  0  0  0
  -28.7104  -17.0968   26.3423 C   0  0  0  0  0  0  0  0  0  0  0  0
  -27.4789  -27.7627   19.7091 C   0  0  0  0  0  0  0  0  0  0  0  0
  -26.3870  -17.7044   29.3981 C   0  0  0  0  0  0  0  0  0  0  0  0
  -25.3424  -17.7918   30.3182 C   0  0  0  0  0  0  0  0  0  0  0  0
  -25.4042  -26.6286   20.1876 C   0  0  0  0  0  0  0  0  0  0  0  0
  -26.4865  -19.8021   19.1741 C   0  0  0  0  0  0  0  0  0  0  0  0
  -26.3523  -16.0336   31.6318 C   0  0  0  0  0  0  0  0  0  0  0  0
  -28.8168  -19.7262   18.7046 C   0  0  0  0  0  0  0  0  0  0  0  0
  -27.4911  -15.7412   24.7572 C   0  0  0  0  0  0  0  0  0  0  0  0
  -26.1107  -15.9441   22.6215 C   0  0  0  0  0  0  0  0  0  0  0  0
  -26.6403  -32.9795   25.5851 C   0  0  0  0  0  0  0  0  0  0  0  0
  -25.5169  -29.0412   20.3505 C   0  0  0  0  0  0  0  0  0  0  0  0
  -26.5248  -31.7016   25.0054 C   0  0  0  0  0  0  0  0  0  0  0  0
  -24.7750  -27.8554   20.4487 C   0  0  0  0  0  0  0  0  0  0  0  0
  -27.7425  -20.3899   19.2749 C   0  0  0  0  0  0  0  0  0  0  0  0
  -26.3452  -18.5858   18.5153 C   0  0  0  0  0  0  0  0  0  0  0  0
  -28.1363  -16.3830   27.3943 C   0  0  0  0  0  0  0  0  0  0  0  0
  -26.7492  -26.5829   19.8215 C   0  0  0  0  0  0  0  0  0  0  0  0
  -27.4143  -16.7815   29.5948 C   0  0  0  0  0  0  0  0  0  0  0  0
  -25.3250  -16.9564   31.4351 C   0  0  0  0  0  0  0  0  0  0  0  0
  -27.3970  -15.9462   30.7117 C   0  0  0  0  0  0  0  0  0  0  0  0
  -27.1587  -15.4098   23.3949 C   0  0  0  0  0  0  0  0  0  0  0  0
  -27.4820  -18.0030   17.9788 C   0  0  0  0  0  0  0  0  0  0  0  0
  -26.2203  -15.3085   21.4089 C   0  0  0  0  0  0  0  0  0  0  0  0
  -25.1264  -16.9272   22.9682 C   0  0  0  0  0  0  0  0  0  0  0  0
  -23.9549  -30.0459   22.9301 C   0  0  0  0  0  0  0  0  0  0  0  0
  -21.3413  -29.4002   21.1205 C   0  0  0  0  0  0  0  0  0  0  0  0
  -19.9733  -27.6574   18.5247 C   0  0  0  0  0  0  0  0  0  0  0  0
  -29.1377  -13.3674   17.1907 C   0  0  0  0  0  0  0  0  0  0  0  0
  -25.4492  -33.6951   26.1716 C   0  0  0  0  0  0  0  0  0  0  0  0
  -24.8624  -30.3721   20.6007 C   0  0  0  0  0  0  0  0  0  0  0  0
  -23.3195  -27.8604   20.8357 C   0  0  0  0  0  0  0  0  0  0  0  0
  -24.1095  -33.1377   25.6974 C   0  0  0  0  0  0  0  0  0  0  0  0
  -27.0051  -15.5039   15.0458 C   0  0  0  0  0  0  0  0  0  0  0  0
  -28.9996  -11.3340   19.9968 C   0  0  0  0  0  0  0  0  0  0  0  0
  -24.1073  -31.6144   25.7759 C   0  0  0  0  0  0  0  0  0  0  0  0
  -27.0741  -16.8566   15.7531 C   0  0  0  0  0  0  0  0  0  0  0  0
  -28.4243  -12.2463   21.0799 C   0  0  0  0  0  0  0  0  0  0  0  0
  -28.2618  -14.6726   15.2863 C   0  0  0  0  0  0  0  0  0  0  0  0
  -30.0006  -12.0843   19.1255 C   0  0  0  0  0  0  0  0  0  0  0  0
  -28.6626  -15.8379   17.4309 C   0  0  0  0  0  0  0  0  0  0  0  0
  -28.8600  -14.2358   19.5579 C   0  0  0  0  0  0  0  0  0  0  0  0
  -25.1844  -31.0134   24.8648 C   0  0  1  0  0  0  0  0  0  0  0  0
  -27.3888  -16.6767   17.2483 C   0  0  1  0  0  0  0  0  0  0  0  0
  -23.6215  -30.2714   21.4824 C   0  0  1  0  0  0  0  0  0  0  0  0
  -27.8345  -13.5276   20.4652 C   0  0  2  0  0  0  0  0  0  0  0  0
  -25.0026  -17.9496   18.4052 C   0  0  0  0  0  0  0  0  0  0  0  0
  -28.9071  -21.6187   21.1528 C   0  0  0  0  0  0  0  0  0  0  0  0
  -17.8051  -27.3121   17.3093 C   0  0  0  0  0  0  0  0  0  0  0  0
  -27.9905  -24.0462   17.0264 C   0  0  0  0  0  0  0  0  0  0  0  0
  -20.3289  -27.6723   23.4225 C   0  0  0  0  0  0  0  0  0  0  0  0
  -18.7007  -26.6297   21.8319 C   0  0  0  0  0  0  0  0  0  0  0  0
  -18.5749  -29.0728   22.3197 C   0  0  0  0  0  0  0  0  0  0  0  0
  -21.1119  -28.6396   15.9756 C   0  0  0  0  0  0  0  0  0  0  0  0
  -26.5183  -24.3422   19.0586 C   0  0  0  0  0  0  0  0  0  1  0  0
  -27.9271  -21.6905   19.9722 C   0  0  1  0  0  0  0  0  0  0  0  0
  -20.4686  -28.1889   20.8967 C   0  0  1  0  0  0  0  0  0  0  0  0
  -19.1048  -28.1000   17.3609 C   0  0  2  0  0  0  0  0  0  0  0  0
  -27.3352  -23.3673   18.2181 C   0  0  2  0  0  0  0  0  0  0  0  0
  -19.5462  -27.8904   22.1123 C   0  0  0  0  0  0  0  0  0  0  0  0
  -28.7186  -18.5437   18.0569 N   0  0  0  0  0  0  0  0  0  0  0  0
  -27.8807  -14.5043   22.7295 N   0  0  0  0  0  0  0  0  0  0  0  0
  -27.2854  -14.4646   21.5253 N   0  0  0  0  0  0  0  0  0  0  0  0
  -22.7262  -29.1862   21.0763 N   0  0  0  0  0  0  0  0  0  0  0  0
  -28.5651  -14.5578   16.7131 N   0  0  0  0  0  0  0  0  0  0  0  0
  -29.4082  -13.2992   18.5658 N   0  0  0  0  0  0  0  0  0  0  0  0
  -25.5083  -15.3945   20.2652 N   0  0  0  0  0  0  0  0  0  0  0  0
  -25.1576  -17.4786   24.2564 N   0  0  0  0  0  0  0  0  0  0  0  0
  -24.7475  -31.0323   23.4852 N   0  0  0  0  0  0  0  0  0  0  0  0
  -19.7530  -28.4264   19.6478 N   0  0  0  0  0  0  0  0  0  0  0  0
  -19.8259  -27.9021   16.0718 N   0  3  0  0  0  0  0  0  0  0  0  0
  -28.4030  -22.7952   19.0679 N   0  3  0  0  0  0  0  0  0  0  0  0
  -24.2351  -17.2935   22.1651 O   0  0  0  0  0  0  0  0  0  0  0  0
  -23.5236  -29.0513   23.5015 O   0  0  0  0  0  0  0  0  0  0  0  0
  -20.8136  -30.4973   21.3197 O   0  0  0  0  0  0  0  0  0  0  0  0
  -20.7650  -26.7207   18.4464 O   0  0  0  0  0  0  0  0  0  0  0  0
  -29.3882  -12.4215   16.4333 O   0  0  0  0  0  0  0  0  0  0  0  0
  -28.4512  -16.6965   28.6808 O   0  0  0  0  0  0  0  0  0  0  0  0
  -27.3500  -25.3780   19.5679 O   0  0  0  0  0  0  0  0  0  1  0  0
  -24.3225  -17.0415   32.3194 F   0  0  0  0  0  0  0  0  0  0  0  0
  -28.3817  -15.0584   30.9067 F   0  0  0  0  0  0  0  0  0  0  0  0
  1  2  1  0  0  0  0
  1  5  2  0  0  0  0
  2  6  2  0  0  0  0
  3  8  2  0  0  0  0
  3 17  1  0  0  0  0
  4  9  1  0  0  0  0
  4 17  2  0  0  0  0
  5 19  1  0  0  0  0
  6 21  1  0  0  0  0
  7 10  2  0  0  0  0
  7 20  1  0  0  0  0
  8 25  1  0  0  0  0
  9 25  2  0  0  0  0
 10 26  1  0  0  0  0
 11 12  2  0  0  0  0
 11 27  1  0  0  0  0
 12 28  1  0  0  0  0
 13 22  1  0  0  0  0
 13 26  2  0  0  0  0
 14 23  2  0  0  0  0
 14 24  1  0  0  0  0
 15 28  2  0  0  0  0
 15 29  1  0  0  0  0
 16 23  1  0  0  0  0
 16 69  2  0  0  0  0
 17 30  1  0  0  0  0
 18 30  1  0  0  0  0
 18 32  2  0  0  0  0
 18 33  1  0  0  0  0
 19 21  2  0  0  0  0
 19 38  1  0  0  0  0
 20 22  2  0  0  0  0
 20 39  1  0  0  0  0
 21 51  1  0  0  0  0
 22 40  1  0  0  0  0
 23 64  1  0  0  0  0
 24 31  2  0  0  0  0
 24 55  1  0  0  0  0
 25 86  1  0  0  0  0
 26 87  1  0  0  0  0
 27 29  2  0  0  0  0
 27 86  1  0  0  0  0
 28 88  1  0  0  0  0
 29 89  1  0  0  0  0
 30 70  2  0  0  0  0
 31 52  1  0  0  0  0
 31 69  1  0  0  0  0
 32 71  1  0  0  0  0
 32 75  1  0  0  0  0
 33 76  1  0  0  0  0
 33 81  2  0  0  0  0
 34 53  1  0  0  0  0
 34 77  1  0  0  0  0
 34 82  2  0  0  0  0
 35 65  1  0  0  0  0
 35 72  1  0  0  0  0
 35 83  2  0  0  0  0
 36 66  1  0  0  0  0
 36 78  1  0  0  0  0
 36 84  2  0  0  0  0
 37 73  1  0  0  0  0
 37 74  1  0  0  0  0
 37 85  2  0  0  0  0
 38 41  1  0  0  0  0
 39 53  1  0  0  0  0
 40 72  1  0  0  0  0
 41 44  1  0  0  0  0
 42 45  1  0  0  0  0
 42 47  1  0  0  0  0
 43 46  1  0  0  0  0
 43 48  1  0  0  0  0
 44 51  1  0  0  0  0
 45 52  1  0  0  0  0
 46 54  1  0  0  0  0
 47 73  1  0  0  0  0
 48 74  1  0  0  0  0
 49 52  1  0  0  0  0
 49 73  1  0  0  0  0
 50 54  1  0  0  0  0
 50 74  1  0  0  0  0
 51 77  1  0  0  0  0
 53 72  1  0  0  0  0
 54 71  1  0  0  0  0
 56 64  1  0  0  0  0
 57 66  1  0  0  0  0
 58 67  1  0  0  0  0
 59 68  1  0  0  0  0
 60 68  1  0  0  0  0
 61 68  1  0  0  0  0
 62 79  1  0  0  0  0
 63 67  1  0  0  0  0
 63 87  1  0  0  0  0
 64 80  1  0  0  0  0
 65 68  1  0  0  0  0
 65 78  1  0  0  0  0
 66 79  1  0  0  0  0
 67 80  1  0  0  0  0
 70 71  1  0  0  0  0
M  CHG  2  79   1  80   1
M  ISO  4  37 100  63 101  73 100  87 101
M  END
> <Batch ID>
0155

> <Smiles>
CNC(C)C(=O)NC(C(=O)N1Cc2cc([101O:1][101CH2:1]C(C)NC(C)c3cnc(C4CCC[100N:0]([100C:0](=O)N5CCCC(n6nc(-c7ccc(Oc8ccc(F)cc8F)cc7)c(C(N)=O)c6N)C5)C4)c(C)c3)ccc2CC1C(=O)NC1CCCc2ccccc21)C(C)(C)C

> <Shape>
0.243

> <Color>
0.092

> <Negative vol penalty>
0.000

$$$$

  -OEChem-04052321543D

 92103  0     1  0  0  0  0  0999 V2000
  -27.7579  -32.8410   19.5157 C   0  0  0  0  0  0  0  0  0  0  0  0
  -27.6571  -31.4596   19.6461 C   0  0  0  0  0  0  0  0  0  0  0  0
  -23.1889   -7.3546   20.8081 C   0  0  0  0  0  0  0  0  0  0  0  0
  -24.1205   -8.1625   18.7304 C   0  0  0  0  0  0  0  0  0  0  0  0
  -26.9977  -33.6746   20.3348 C   0  0  0  0  0  0  0  0  0  0  0  0
  -26.7967  -30.9110   20.5965 C   0  0  0  0  0  0  0  0  0  0  0  0
  -24.0038  -27.0156   18.7210 C   0  0  0  0  0  0  0  0  0  0  0  0
  -23.2202   -6.0502   20.3150 C   0  0  0  0  0  0  0  0  0  0  0  0
  -24.1519   -6.8581   18.2373 C   0  0  0  0  0  0  0  0  0  0  0  0
  -24.6132  -25.7692   18.5843 C   0  0  0  0  0  0  0  0  0  0  0  0
  -21.9680   -4.6409   16.9160 C   0  0  0  0  0  0  0  0  0  0  0  0
  -21.5122   -4.4288   15.6149 C   0  0  0  0  0  0  0  0  0  0  0  0
  -31.6724  -23.1675   19.9260 C   0  0  0  0  0  0  0  0  0  0  0  0
  -31.1112  -20.8459   19.5627 C   0  0  0  0  0  0  0  0  0  0  0  0
  -23.6316  -25.0668   20.6727 C   0  0  0  0  0  0  0  0  0  0  0  0
  -23.6841   -3.5721   14.9937 C   0  0  0  0  0  0  0  0  0  0  0  0
  -23.6389   -8.4108   20.0158 C   0  0  0  0  0  0  0  0  0  0  0  0
  -22.4742  -10.4797   20.9490 C   0  0  0  0  0  0  0  0  0  0  0  0
  -26.1203  -33.1360   21.2892 C   0  0  0  0  0  0  0  0  0  0  0  0
  -23.2105  -27.3016   19.8416 C   0  0  0  0  0  0  0  0  0  0  0  0
  -26.0250  -31.7383   21.4301 C   0  0  0  0  0  0  0  0  0  0  0  0
  -32.0412  -21.8847   19.5211 C   0  0  0  0  0  0  0  0  0  0  0  0
  -23.0094  -26.3160   20.8188 C   0  0  0  0  0  0  0  0  0  0  0  0
  -29.4437  -22.3727   20.4144 C   0  0  0  0  0  0  0  0  0  0  0  0
  -30.3736  -23.4115   20.3728 C   0  0  0  0  0  0  0  0  0  0  0  0
  -23.7018   -5.8019   19.0296 C   0  0  0  0  0  0  0  0  0  0  0  0
  -24.4290  -24.7954   19.5613 C   0  0  0  0  0  0  0  0  0  0  0  0
  -23.2819   -4.3187   17.2559 C   0  0  0  0  0  0  0  0  0  0  0  0
  -29.8125  -21.0899   20.0093 C   0  0  0  0  0  0  0  0  0  0  0  0
  -22.3702   -3.8944   14.6538 C   0  0  0  0  0  0  0  0  0  0  0  0
  -24.1400   -3.7843   16.2948 C   0  0  0  0  0  0  0  0  0  0  0  0
  -23.6062   -9.7585   20.5244 C   0  0  0  0  0  0  0  0  0  0  0  0
  -22.9704  -11.7000   21.3377 C   0  0  0  0  0  0  0  0  0  0  0  0
  -21.0973  -10.0820   20.9885 C   0  0  0  0  0  0  0  0  0  0  0  0
  -23.2628  -29.4214   22.2395 C   0  0  0  0  0  0  0  0  0  0  0  0
  -20.3388  -27.9779   22.8875 C   0  0  0  0  0  0  0  0  0  0  0  0
  -19.6252  -30.5128   25.0566 C   0  0  0  0  0  0  0  0  0  0  0  0
  -26.0711  -16.0312   20.6749 C   0  0  0  0  0  0  0  0  0  0  0  0
  -25.3542  -34.0776   22.1842 C   0  0  0  0  0  0  0  0  0  0  0  0
  -22.5371  -28.6425   19.9551 C   0  0  0  0  0  0  0  0  0  0  0  0
  -22.1646  -26.5721   22.0375 C   0  0  0  0  0  0  0  0  0  0  0  0
  -24.1873  -33.4135   22.9105 C   0  0  0  0  0  0  0  0  0  0  0  0
  -34.3206  -19.6475   19.4313 C   0  0  0  0  0  0  0  0  0  0  0  0
  -27.7219  -13.2575   22.0546 C   0  0  0  0  0  0  0  0  0  0  0  0
  -34.5429  -21.0411   20.0452 C   0  0  0  0  0  0  0  0  0  0  0  0
  -33.8467  -20.3528   18.1476 C   0  0  0  0  0  0  0  0  0  0  0  0
  -24.6240  -32.0845   23.5189 C   0  0  0  0  0  0  0  0  0  0  0  0
  -26.7011  -12.1458   21.8131 C   0  0  0  0  0  0  0  0  0  0  0  0
  -28.1990  -18.7764   21.9723 C   0  0  0  0  0  0  0  0  0  0  0  0
  -29.3707  -17.6802   20.0140 C   0  0  0  0  0  0  0  0  0  0  0  0
  -27.2689  -23.9775   20.5280 C   0  0  0  0  0  0  0  0  0  0  0  0
  -26.7824  -21.9341   20.2052 C   0  0  0  0  0  0  0  0  0  0  0  0
  -27.8235  -14.2110   20.8628 C   0  0  0  0  0  0  0  0  0  0  0  0
  -26.8703  -18.2323   21.4500 C   0  0  0  0  0  0  0  0  0  0  0  0
  -28.0156  -17.1647   19.5349 C   0  0  0  0  0  0  0  0  0  0  0  0
  -25.5052  -13.6680   20.1942 C   0  0  0  0  0  0  0  0  0  0  0  0
  -33.5276  -21.6054   19.0102 C   0  0  0  0  0  0  0  0  0  0  0  0
  -27.9675  -22.6441   20.9206 C   0  0  0  0  0  0  0  0  0  0  0  0
  -25.0844  -31.1052   22.4324 C   0  0  1  0  0  0  0  0  0  0  0  0
  -22.1086  -28.9916   21.3789 C   0  0  1  0  0  0  0  0  0  0  0  0
  -25.3381  -12.7278   21.3981 C   0  0  1  0  0  0  0  0  0  0  0  0
  -29.2432  -18.9430   20.8677 C   0  0  0  0  0  0  0  0  0  0  0  0
  -25.9365  -23.1979   20.4734 C   0  0  0  0  0  0  0  0  0  1  0  0
  -30.0005  -24.7923   20.8014 C   0  0  0  0  0  0  0  0  0  0  0  0
  -17.7557  -31.4519   26.4423 C   0  0  0  0  0  0  0  0  0  0  0  0
  -19.0662  -29.1457   20.3732 C   0  0  0  0  0  0  0  0  0  0  0  0
  -17.8529  -30.7796   21.8314 C   0  0  0  0  0  0  0  0  0  0  0  0
  -17.4360  -28.3334   22.0870 C   0  0  0  0  0  0  0  0  0  0  0  0
  -21.1299  -30.1050   27.5722 C   0  0  0  0  0  0  0  0  0  0  0  0
  -19.6271  -29.3077   22.8881 C   0  0  1  0  0  0  0  0  0  0  0  0
  -18.9532  -30.5148   26.4178 C   0  0  2  0  0  0  0  0  0  0  0  0
  -18.5240  -29.3899   21.7956 C   0  0  0  0  0  0  0  0  0  0  0  0
  -24.7364  -10.4621   20.6329 N   0  0  0  0  0  0  0  0  0  0  0  0
  -24.3170  -11.6381   21.1301 N   0  0  0  0  0  0  0  0  0  0  0  0
  -21.4628  -27.8621   22.0597 N   0  0  0  0  0  0  0  0  0  0  0  0
  -26.4955  -14.7083   20.4795 N   0  0  0  0  0  0  0  0  0  0  0  0
  -27.0619  -17.0272   20.6438 N   0  0  0  0  0  0  0  0  0  0  0  0
  -22.3819  -12.8092   21.8334 N   0  0  0  0  0  0  0  0  0  0  0  0
  -20.2991  -10.3249   19.8623 N   0  0  0  0  0  0  0  0  0  0  0  0
  -23.9428  -30.5242   21.7589 N   0  0  0  0  0  0  0  0  0  0  0  0
  -19.1377  -29.5081   24.2478 N   0  0  0  0  0  0  0  0  0  0  0  0
  -19.9142  -30.9527   27.4692 N   0  3  0  0  0  0  0  0  0  0  0  0
  -20.5856   -9.5426   21.9988 O   0  0  0  0  0  0  0  0  0  0  0  0
  -23.5167  -28.7995   23.2644 O   0  0  0  0  0  0  0  0  0  0  0  0
  -19.9076  -27.0630   23.5948 O   0  0  0  0  0  0  0  0  0  0  0  0
  -20.4930  -31.3239   24.7409 O   0  0  0  0  0  0  0  0  0  0  0  0
  -24.8809  -16.3081   20.8691 O   0  0  0  0  0  0  0  0  0  0  0  0
  -23.7328   -4.5292   18.5483 O   0  0  0  0  0  0  0  0  0  0  0  0
  -25.0235  -23.5752   19.4297 O   0  0  0  0  0  0  0  0  0  1  0  0
  -28.9109  -20.0589   20.0445 O   0  0  0  0  0  0  0  0  0  0  0  0
  -21.9319   -3.6892   13.4048 F   0  0  0  0  0  0  0  0  0  0  0  0
  -25.4029   -3.4717   16.6157 F   0  0  0  0  0  0  0  0  0  0  0  0
  1  2  1  0  0  0  0
  1  5  2  0  0  0  0
  2  6  2  0  0  0  0
  3  8  2  0  0  0  0
  3 17  1  0  0  0  0
  4  9  1  0  0  0  0
  4 17  2  0  0  0  0
  5 19  1  0  0  0  0
  6 21  1  0  0  0  0
  7 10  2  0  0  0  0
  7 20  1  0  0  0  0
  8 26  1  0  0  0  0
  9 26  2  0  0  0  0
 10 27  1  0  0  0  0
 11 12  2  0  0  0  0
 11 28  1  0  0  0  0
 12 30  1  0  0  0  0
 13 22  1  0  0  0  0
 13 25  2  0  0  0  0
 14 22  2  0  0  0  0
 14 29  1  0  0  0  0
 15 23  1  0  0  0  0
 15 27  2  0  0  0  0
 16 30  2  0  0  0  0
 16 31  1  0  0  0  0
 17 32  1  0  0  0  0
 18 32  1  0  0  0  0
 18 33  2  0  0  0  0
 18 34  1  0  0  0  0
 19 21  2  0  0  0  0
 19 39  1  0  0  0  0
 20 23  2  0  0  0  0
 20 40  1  0  0  0  0
 21 59  1  0  0  0  0
 22 57  1  0  0  0  0
 23 41  1  0  0  0  0
 24 25  1  0  0  0  0
 24 29  2  0  0  0  0
 24 58  1  0  0  0  0
 25 64  1  0  0  0  0
 26 88  1  0  0  0  0
 27 89  1  0  0  0  0
 28 31  2  0  0  0  0
 28 88  1  0  0  0  0
 29 90  1  0  0  0  0
 30 91  1  0  0  0  0
 31 92  1  0  0  0  0
 32 73  2  0  0  0  0
 33 74  1  0  0  0  0
 33 78  1  0  0  0  0
 34 79  1  0  0  0  0
 34 83  2  0  0  0  0
 35 60  1  0  0  0  0
 35 80  1  0  0  0  0
 35 84  2  0  0  0  0
 36 70  1  0  0  0  0
 36 75  1  0  0  0  0
 36 85  2  0  0  0  0
 37 71  1  0  0  0  0
 37 81  1  0  0  0  0
 37 86  2  0  0  0  0
 38 76  1  0  0  0  0
 38 77  1  0  0  0  0
 38 87  2  0  0  0  0
 39 42  1  0  0  0  0
 40 60  1  0  0  0  0
 41 75  1  0  0  0  0
 42 47  1  0  0  0  0
 43 45  1  0  0  0  0
 43 46  1  0  0  0  0
 44 48  1  0  0  0  0
 44 53  1  0  0  0  0
 45 57  1  0  0  0  0
 46 57  1  0  0  0  0
 47 59  1  0  0  0  0
 48 61  1  0  0  0  0
 49 54  1  0  0  0  0
 49 62  1  0  0  0  0
 50 55  1  0  0  0  0
 50 62  1  0  0  0  0
 51 58  1  0  0  0  0
 51 63  1  0  0  0  0
 52 58  1  0  0  0  0
 52 63  1  0  0  0  0
 53 76  1  0  0  0  0
 54 77  1  0  0  0  0
 55 77  1  0  0  0  0
 56 61  1  0  0  0  0
 56 76  1  0  0  0  0
 59 80  1  0  0  0  0
 60 75  1  0  0  0  0
 61 74  1  0  0  0  0
 62 90  1  0  0  0  0
 63 89  1  0  0  0  0
 65 71  1  0  0  0  0
 66 72  1  0  0  0  0
 67 72  1  0  0  0  0
 68 72  1  0  0  0  0
 69 82  1  0  0  0  0
 70 72  1  0  0  0  0
 70 81  1  0  0  0  0
 71 82  1  0  0  0  0
 73 74  1  0  0  0  0
M  CHG  1  82   1
M  ISO  4  38 100  63 101  77 100  89 101
M  END
> <Batch ID>
0155

> <Smiles>
CNC(C)C(=O)NC(C(=O)N1Cc2cc([101O:1][101CH:1]3CC(c4c(C)cc(C5CCC5)cc4OC4CC[100N:0]([100C:0](=O)N5CCCC(n6nc(-c7ccc(Oc8ccc(F)cc8F)cc7)c(C(N)=O)c6N)C5)CC4)C3)ccc2CC1C(=O)NC1CCCc2ccccc21)C(C)(C)C

> <Shape>
0.244

> <Color>
0.055

> <Negative vol penalty>
0.000

$$$$

  -OEChem-04052321543D

 90 99  0     1  0  0  0  0  0999 V2000
  -27.5283  -34.8957   23.6050 C   0  0  0  0  0  0  0  0  0  0  0  0
  -28.1269  -34.0679   24.5494 C   0  0  0  0  0  0  0  0  0  0  0  0
  -23.0970   -9.8244   19.9493 C   0  0  0  0  0  0  0  0  0  0  0  0
  -23.8467   -9.8705   22.2456 C   0  0  0  0  0  0  0  0  0  0  0  0
  -26.7149  -34.3470   22.6144 C   0  0  0  0  0  0  0  0  0  0  0  0
  -27.9115  -32.6910   24.5044 C   0  0  0  0  0  0  0  0  0  0  0  0
  -31.1985  -26.4781   25.8873 C   0  0  0  0  0  0  0  0  0  0  0  0
  -22.3653   -8.6662   20.2114 C   0  0  0  0  0  0  0  0  0  0  0  0
  -23.1149   -8.7123   22.5078 C   0  0  0  0  0  0  0  0  0  0  0  0
  -31.0056  -25.2912   26.5929 C   0  0  0  0  0  0  0  0  0  0  0  0
  -19.8935   -7.8855   23.1072 C   0  0  0  0  0  0  0  0  0  0  0  0
  -19.1319   -7.8524   24.2753 C   0  0  0  0  0  0  0  0  0  0  0  0
  -30.2830  -18.1845   23.9700 C   0  0  0  0  0  0  0  0  0  0  0  0
  -29.6451  -24.4468   24.7887 C   0  0  0  0  0  0  0  0  0  0  0  0
  -20.3921   -5.9393   25.0427 C   0  0  0  0  0  0  0  0  0  0  0  0
  -23.8378  -10.4265   20.9664 C   0  0  0  0  0  0  0  0  0  0  0  0
  -24.1513  -12.9536   20.8142 C   0  0  0  0  0  0  0  0  0  0  0  0
  -26.4972  -32.9616   22.5514 C   0  0  0  0  0  0  0  0  0  0  0  0
  -30.6062  -26.6629   24.6297 C   0  0  0  0  0  0  0  0  0  0  0  0
  -27.0934  -32.1234   23.5128 C   0  0  0  0  0  0  0  0  0  0  0  0
  -29.4833  -19.0015   24.7808 C   0  0  0  0  0  0  0  0  0  0  0  0
  -29.8341  -25.6360   24.0680 C   0  0  0  0  0  0  0  0  0  0  0  0
  -28.2370  -19.4446   24.3047 C   0  0  0  0  0  0  0  0  0  0  0  0
  -29.8613  -17.8305   22.6888 C   0  0  0  0  0  0  0  0  0  0  0  0
  -28.6361  -18.2859   22.2086 C   0  0  0  0  0  0  0  0  0  0  0  0
  -22.3742   -8.1101   21.4907 C   0  0  0  0  0  0  0  0  0  0  0  0
  -30.2264  -24.2765   26.0449 C   0  0  0  0  0  0  0  0  0  0  0  0
  -20.9043   -6.9454   22.9067 C   0  0  0  0  0  0  0  0  0  0  0  0
  -27.8286  -19.0920   23.0106 C   0  0  0  0  0  0  0  0  0  0  0  0
  -19.3812   -6.8793   25.2430 C   0  0  0  0  0  0  0  0  0  0  0  0
  -21.1536   -5.9724   23.8745 C   0  0  0  0  0  0  0  0  0  0  0  0
  -24.5943  -11.6226   20.6961 C   0  0  0  0  0  0  0  0  0  0  0  0
  -25.2364  -13.7107   20.4457 C   0  0  0  0  0  0  0  0  0  0  0  0
  -22.8731  -13.4603   21.2209 C   0  0  0  0  0  0  0  0  0  0  0  0
  -28.4840  -28.7011   23.4275 C   0  0  0  0  0  0  0  0  0  0  0  0
  -29.2170  -27.2142   20.6392 C   0  0  0  0  0  0  0  0  0  0  0  0
  -30.4054  -24.4282   19.0668 C   0  0  0  0  0  0  0  0  0  0  0  0
  -30.7072  -14.7950   20.6437 C   0  0  0  0  0  0  0  0  0  0  0  0
  -25.5720  -32.4196   21.4908 C   0  0  0  0  0  0  0  0  0  0  0  0
  -30.8459  -27.9385   23.8696 C   0  0  0  0  0  0  0  0  0  0  0  0
  -27.3653  -20.3467   25.1408 C   0  0  0  0  0  0  0  0  0  0  0  0
  -29.1930  -25.7766   22.7124 C   0  0  0  0  0  0  0  0  0  0  0  0
  -29.9464  -19.3468   26.1698 C   0  0  0  0  0  0  0  0  0  0  0  0
  -25.6961  -30.9119   21.2870 C   0  0  0  0  0  0  0  0  0  0  0  0
  -29.6075  -12.3662   18.2841 C   0  0  0  0  0  0  0  0  0  0  0  0
  -25.7037  -30.1903   22.6309 C   0  0  0  0  0  0  0  0  0  0  0  0
  -28.1716  -12.0617   18.7148 C   0  0  0  0  0  0  0  0  0  0  0  0
  -30.5167  -12.6134   19.4858 C   0  0  0  0  0  0  0  0  0  0  0  0
  -28.6007  -13.3409   20.8545 C   0  0  0  0  0  0  0  0  0  0  0  0
  -27.6833  -20.2806   26.6305 C   0  0  0  0  0  0  0  0  0  0  0  0
  -26.9038  -30.6223   23.4821 C   0  0  1  0  0  0  0  0  0  0  0  0
  -29.7728  -28.2208   22.8227 C   0  0  1  0  0  0  0  0  0  0  0  0
  -27.6337  -13.1396   19.6751 C   0  0  2  0  0  0  0  0  0  0  0  0
  -28.1844  -17.9133   20.8322 C   0  0  0  0  0  0  0  0  0  0  0  0
  -30.8501  -23.4957   16.7799 C   0  0  0  0  0  0  0  0  0  0  0  0
  -29.1735  -22.1596   30.2824 C   0  0  0  0  0  0  0  0  0  0  0  0
  -28.8847  -19.5476   29.0635 C   0  0  0  0  0  0  0  0  0  0  0  0
  -26.2298  -26.7195   20.2627 C   0  0  0  0  0  0  0  0  0  0  0  0
  -26.8027  -25.0114   18.5242 C   0  0  0  0  0  0  0  0  0  0  0  0
  -27.4449  -27.3978   18.1848 C   0  0  0  0  0  0  0  0  0  0  0  0
  -33.3004  -24.1517   19.6156 C   0  0  0  0  0  0  0  0  0  0  0  0
  -25.4935  -18.7224   22.7530 C   0  0  0  0  0  0  0  0  0  0  0  0
  -30.7431  -16.9624   21.8522 C   0  0  0  0  0  0  0  0  0  0  0  0
  -30.0514  -23.1965   28.1565 C   0  0  0  0  0  0  0  0  0  1  0  0
  -28.6857  -26.0118   19.8970 C   0  0  1  0  0  0  0  0  0  0  0  0
  -31.4317  -24.2559   17.9616 C   0  0  2  0  0  0  0  0  0  0  0  0
  -29.1742  -22.0820   28.7476 C   0  0  1  0  0  0  0  0  0  0  0  0
  -29.5421  -20.6629   28.2583 C   0  0  2  0  0  0  0  0  0  0  0  0
  -27.3011  -26.2829   19.2436 C   0  0  0  0  0  0  0  0  0  0  0  0
  -25.8620  -11.5358   20.2845 N   0  0  0  0  0  0  0  0  0  0  0  0
  -26.2248  -12.8218   20.1407 N   0  0  0  0  0  0  0  0  0  0  0  0
  -29.4517  -27.0450   22.0112 N   0  0  0  0  0  0  0  0  0  0  0  0
  -29.9506  -13.6472   20.3557 N   0  0  0  0  0  0  0  0  0  0  0  0
  -25.4319  -15.0434   20.3558 N   0  0  0  0  0  0  0  0  0  0  0  0
  -21.8702  -12.5441   21.5659 N   0  0  0  0  0  0  0  0  0  0  0  0
  -28.1106  -29.9686   23.0230 N   0  0  0  0  0  0  0  0  0  0  0  0
  -29.7266  -25.6229   18.9517 N   0  0  0  0  0  0  0  0  0  0  0  0
  -30.0938  -15.7280   21.4708 N   0  0  0  0  0  0  0  0  0  0  0  0
  -29.1670  -20.4741   26.8160 N   0  3  1  0  0  0  0  0  0  0  0  0
  -32.6157  -23.5050   18.4667 N   0  3  0  0  0  0  0  0  0  0  0  0
  -22.6226  -14.6888   21.2608 O   0  0  0  0  0  0  0  0  0  0  0  0
  -27.8727  -27.9749   24.2025 O   0  0  0  0  0  0  0  0  0  0  0  0
  -29.4232  -28.2628   20.0231 O   0  0  0  0  0  0  0  0  0  0  0  0
  -30.2214  -23.5855   19.9422 O   0  0  0  0  0  0  0  0  0  0  0  0
  -31.8431  -14.9775   20.1926 O   0  0  0  0  0  0  0  0  0  0  0  0
  -21.6601   -6.9801   21.7469 O   0  0  0  0  0  0  0  0  0  0  0  0
  -26.6357  -19.5416   22.5206 O   0  0  0  0  0  0  0  0  0  0  0  0
  -30.0360  -23.1173   26.7318 O   0  0  0  0  0  0  0  0  0  1  0  0
  -18.6508   -6.8486   26.3654 F   0  0  0  0  0  0  0  0  0  0  0  0
  -22.1242   -5.0673   23.6881 F   0  0  0  0  0  0  0  0  0  0  0  0
  1  2  1  0  0  0  0
  1  5  2  0  0  0  0
  2  6  2  0  0  0  0
  3  8  2  0  0  0  0
  3 16  1  0  0  0  0
  4  9  1  0  0  0  0
  4 16  2  0  0  0  0
  5 18  1  0  0  0  0
  6 20  1  0  0  0  0
  7 10  2  0  0  0  0
  7 19  1  0  0  0  0
  8 26  1  0  0  0  0
  9 26  2  0  0  0  0
 10 27  1  0  0  0  0
 11 12  2  0  0  0  0
 11 28  1  0  0  0  0
 12 30  1  0  0  0  0
 13 21  2  0  0  0  0
 13 24  1  0  0  0  0
 14 22  1  0  0  0  0
 14 27  2  0  0  0  0
 15 30  2  0  0  0  0
 15 31  1  0  0  0  0
 16 32  1  0  0  0  0
 17 32  1  0  0  0  0
 17 33  2  0  0  0  0
 17 34  1  0  0  0  0
 18 20  2  0  0  0  0
 18 39  1  0  0  0  0
 19 22  2  0  0  0  0
 19 40  1  0  0  0  0
 20 51  1  0  0  0  0
 21 23  1  0  0  0  0
 21 43  1  0  0  0  0
 22 42  1  0  0  0  0
 23 29  2  0  0  0  0
 23 41  1  0  0  0  0
 24 25  2  0  0  0  0
 24 63  1  0  0  0  0
 25 29  1  0  0  0  0
 25 54  1  0  0  0  0
 26 86  1  0  0  0  0
 27 88  1  0  0  0  0
 28 31  2  0  0  0  0
 28 86  1  0  0  0  0
 29 87  1  0  0  0  0
 30 89  1  0  0  0  0
 31 90  1  0  0  0  0
 32 70  2  0  0  0  0
 33 71  1  0  0  0  0
 33 74  1  0  0  0  0
 34 75  1  0  0  0  0
 34 81  2  0  0  0  0
 35 52  1  0  0  0  0
 35 76  1  0  0  0  0
 35 82  2  0  0  0  0
 36 65  1  0  0  0  0
 36 72  1  0  0  0  0
 36 83  2  0  0  0  0
 37 66  1  0  0  0  0
 37 77  1  0  0  0  0
 37 84  2  0  0  0  0
 38 73  1  0  0  0  0
 38 78  1  0  0  0  0
 38 85  2  0  0  0  0
 39 44  1  0  0  0  0
 40 52  1  0  0  0  0
 41 50  1  0  0  0  0
 42 72  1  0  0  0  0
 43 79  1  0  0  0  0
 44 46  1  0  0  0  0
 45 47  1  0  0  0  0
 45 48  1  0  0  0  0
 46 51  1  0  0  0  0
 47 53  1  0  0  0  0
 48 73  1  0  0  0  0
 49 53  1  0  0  0  0
 49 73  1  0  0  0  0
 50 79  1  0  0  0  0
 51 76  1  0  0  0  0
 52 72  1  0  0  0  0
 53 71  1  0  0  0  0
 55 66  1  0  0  0  0
 56 67  1  0  0  0  0
 57 68  1  0  0  0  0
 58 69  1  0  0  0  0
 59 69  1  0  0  0  0
 60 69  1  0  0  0  0
 61 80  1  0  0  0  0
 62 87  1  0  0  0  0
 63 78  1  0  0  0  0
 64 67  1  0  0  0  0
 64 88  1  0  0  0  0
 65 69  1  0  0  0  0
 65 77  1  0  0  0  0
 66 80  1  0  0  0  0
 67 68  1  0  0  0  0
 68 79  1  0  0  0  0
 70 71  1  0  0  0  0
M  CHG  2  79   1  80   1
M  ISO  4  38 100  64 101  78 100  88 101
M  END
> <Batch ID>
0155

> <Smiles>
CNC(C)C(=O)NC(C(=O)N1Cc2cc([101O:1][101CH2:1]C(C)C(C)N3CCc4c(cc(C[100NH:0][100C:0](=O)N5CCCC(n6nc(-c7ccc(Oc8ccc(F)cc8F)cc7)c(C(N)=O)c6N)C5)c(C)c4OC)C3)ccc2CC1C(=O)NC1CCCc2ccccc21)C(C)(C)C

> <Shape>
0.300

> <Color>
0.182

> <Negative vol penalty>
0.000

$$$$

  -OEChem-04052321543D

 91101  0     1  0  0  0  0  0999 V2000
  -17.4192  -33.2931   22.6843 C   0  0  0  0  0  0  0  0  0  0  0  0
  -18.7475  -33.3793   23.0890 C   0  0  0  0  0  0  0  0  0  0  0  0
  -22.9613  -11.9382   23.1488 C   0  0  0  0  0  0  0  0  0  0  0  0
  -22.2925  -10.8543   21.0957 C   0  0  0  0  0  0  0  0  0  0  0  0
  -16.7969  -32.0483   22.5996 C   0  0  0  0  0  0  0  0  0  0  0  0
  -19.4538  -32.2207   23.4103 C   0  0  0  0  0  0  0  0  0  0  0  0
  -26.1742  -29.4932   20.5080 C   0  0  0  0  0  0  0  0  0  0  0  0
  -21.7961  -11.4853   23.7675 C   0  0  0  0  0  0  0  0  0  0  0  0
  -21.1274  -10.4012   21.7145 C   0  0  0  0  0  0  0  0  0  0  0  0
  -27.2732  -28.8297   19.9620 C   0  0  0  0  0  0  0  0  0  0  0  0
  -19.1712  -10.3109   25.9913 C   0  0  0  0  0  0  0  0  0  0  0  0
  -19.2857   -9.7664   27.2704 C   0  0  0  0  0  0  0  0  0  0  0  0
  -30.9774  -21.4758   21.7241 C   0  0  0  0  0  0  0  0  0  0  0  0
  -26.3387  -26.7039   20.6369 C   0  0  0  0  0  0  0  0  0  0  0  0
  -32.8946  -21.6451   23.7435 C   0  0  0  0  0  0  0  0  0  0  0  0
  -20.7709   -8.0646   26.4130 C   0  0  0  0  0  0  0  0  0  0  0  0
  -23.2095  -11.6228   21.8128 C   0  0  0  0  0  0  0  0  0  0  0  0
  -25.6558  -11.4331   21.1151 C   0  0  0  0  0  0  0  0  0  0  0  0
  -17.4988  -30.8732   22.9107 C   0  0  0  0  0  0  0  0  0  0  0  0
  -25.1446  -28.7626   21.1076 C   0  0  0  0  0  0  0  0  0  0  0  0
  -18.8399  -30.9592   23.3310 C   0  0  0  0  0  0  0  0  0  0  0  0
  -31.4492  -22.7224   22.1350 C   0  0  0  0  0  0  0  0  0  0  0  0
  -31.4641  -20.3138   22.3229 C   0  0  0  0  0  0  0  0  0  0  0  0
  -25.2294  -27.3622   21.1745 C   0  0  0  0  0  0  0  0  0  0  0  0
  -32.4078  -22.8071   23.1447 C   0  0  0  0  0  0  0  0  0  0  0  0
  -20.8792  -10.7167   23.0504 C   0  0  0  0  0  0  0  0  0  0  0  0
  -27.3553  -27.4386   20.0265 C   0  0  0  0  0  0  0  0  0  0  0  0
  -19.8564   -9.7321   24.9230 C   0  0  0  0  0  0  0  0  0  0  0  0
  -32.4227  -20.3984   23.3325 C   0  0  0  0  0  0  0  0  0  0  0  0
  -20.0856   -8.6433   27.4812 C   0  0  0  0  0  0  0  0  0  0  0  0
  -20.6563   -8.6090   25.1339 C   0  0  0  0  0  0  0  0  0  0  0  0
  -24.4126  -12.0909   21.1730 C   0  0  0  0  0  0  0  0  0  0  0  0
  -26.4624  -12.2855   20.4014 C   0  0  0  0  0  0  0  0  0  0  0  0
  -26.0467  -10.1649   21.6579 C   0  0  0  0  0  0  0  0  0  0  0  0
  -21.8231  -28.8325   22.8507 C   0  0  0  0  0  0  0  0  0  0  0  0
  -21.7622  -26.4559   20.9121 C   0  0  0  0  0  0  0  0  0  0  0  0
  -21.9445  -24.2008   18.3589 C   0  0  0  0  0  0  0  0  0  0  0  0
  -28.3722  -17.2669   19.1528 C   0  0  0  0  0  0  0  0  0  0  0  0
  -16.7697  -29.5543   22.8498 C   0  0  0  0  0  0  0  0  0  0  0  0
  -23.9716  -29.4393   21.7633 C   0  0  0  0  0  0  0  0  0  0  0  0
  -24.1149  -26.6198   21.8598 C   0  0  0  0  0  0  0  0  0  0  0  0
  -17.6996  -28.3438   22.8473 C   0  0  0  0  0  0  0  0  0  0  0  0
  -25.3454  -16.4155   17.7169 C   0  0  0  0  0  0  0  0  0  0  0  0
  -29.7008  -24.5510   22.2367 C   0  0  0  0  0  0  0  0  0  0  0  0
  -30.5514  -23.7281   19.9921 C   0  0  0  0  0  0  0  0  0  0  0  0
  -18.7709  -28.4913   23.9231 C   0  0  0  0  0  0  0  0  0  0  0  0
  -24.9242  -15.1575   18.4760 C   0  0  0  0  0  0  0  0  0  0  0  0
  -29.1655  -25.8125   21.5641 C   0  0  0  0  0  0  0  0  0  0  0  0
  -30.0122  -24.9941   19.3314 C   0  0  0  0  0  0  0  0  0  0  0  0
  -29.4299  -18.8164   22.1190 C   0  0  0  0  0  0  0  0  0  0  0  0
  -31.2692  -18.6938   20.3836 C   0  0  0  0  0  0  0  0  0  0  0  0
  -25.9518  -17.4459   18.6623 C   0  0  0  0  0  0  0  0  0  0  0  0
  -28.9019  -17.4673   21.6227 C   0  0  0  0  0  0  0  0  0  0  0  0
  -30.7157  -17.3404   19.9473 C   0  0  0  0  0  0  0  0  0  0  0  0
  -26.7083  -15.6744   20.2139 C   0  0  0  0  0  0  0  0  0  0  0  0
  -30.9038  -23.9731   21.4702 C   0  0  0  0  0  0  0  0  0  0  0  0
  -30.9403  -18.9664   21.8626 C   0  0  0  0  0  0  0  0  0  0  0  0
  -19.6468  -29.7231   23.6641 C   0  0  1  0  0  0  0  0  0  0  0  0
  -22.6599  -28.6469   21.6191 C   0  0  1  0  0  0  0  0  0  0  0  0
  -26.0932  -14.5929   19.3025 C   0  0  1  0  0  0  0  0  0  0  0  0
  -28.8213  -25.5668   20.0962 C   0  0  0  0  0  0  0  0  0  1  0  0
  -32.9282  -24.1303   23.6016 C   0  0  0  0  0  0  0  0  0  0  0  0
  -20.6158  -22.4011   17.2218 C   0  0  0  0  0  0  0  0  0  0  0  0
  -22.3313  -24.5696   23.2405 C   0  0  0  0  0  0  0  0  0  0  0  0
  -21.8657  -22.6478   21.7049 C   0  0  0  0  0  0  0  0  0  0  0  0
  -20.0684  -24.3022   22.2100 C   0  0  0  0  0  0  0  0  0  0  0  0
  -21.9830  -25.6437   15.7752 C   0  0  0  0  0  0  0  0  0  0  0  0
  -33.8853  -19.4523   24.9517 C   0  0  0  0  0  0  0  0  0  0  0  0
  -21.9910  -24.9788   20.7141 C   0  0  1  0  0  0  0  0  0  0  0  0
  -20.9825  -23.8769   17.2301 C   0  0  2  0  0  0  0  0  0  0  0  0
  -21.5841  -24.1437   21.9609 C   0  0  0  0  0  0  0  0  0  0  0  0
  -24.4236  -13.2703   20.5461 N   0  0  0  0  0  0  0  0  0  0  0  0
  -25.6837  -13.3603   20.0876 N   0  0  0  0  0  0  0  0  0  0  0  0
  -22.8164  -27.1903   21.4687 N   0  0  0  0  0  0  0  0  0  0  0  0
  -27.0554  -16.8708   19.4312 N   0  0  0  0  0  0  0  0  0  0  0  0
  -29.2820  -17.2451   20.2207 N   0  0  0  0  0  0  0  0  0  0  0  0
  -27.7547  -12.2129   20.0179 N   0  0  0  0  0  0  0  0  0  0  0  0
  -25.0936   -9.4179   22.3636 N   0  0  0  0  0  0  0  0  0  0  0  0
  -20.6083  -29.4486   22.6178 N   0  0  0  0  0  0  0  0  0  0  0  0
  -21.2795  -24.6154   19.4934 N   0  0  0  0  0  0  0  0  0  0  0  0
  -21.5947  -24.2165   15.9144 N   0  3  0  0  0  0  0  0  0  0  0  0
  -27.2112   -9.7152   21.5353 O   0  0  0  0  0  0  0  0  0  0  0  0
  -22.2466  -28.4443   23.9331 O   0  0  0  0  0  0  0  0  0  0  0  0
  -20.6771  -26.9468   20.5881 O   0  0  0  0  0  0  0  0  0  0  0  0
  -23.1636  -24.0928   18.2468 O   0  0  0  0  0  0  0  0  0  0  0  0
  -28.7158  -17.6188   18.0174 O   0  0  0  0  0  0  0  0  0  0  0  0
  -19.7423  -10.2743   23.6539 O   0  0  0  0  0  0  0  0  0  0  0  0
  -28.4358  -26.7927   19.4840 O   0  0  0  0  0  0  0  0  0  1  0  0
  -32.9077  -19.2734   23.9288 O   0  0  0  0  0  0  0  0  0  0  0  0
  -20.1967   -8.1215   28.7099 F   0  0  0  0  0  0  0  0  0  0  0  0
  -21.3180   -8.0494   24.1117 F   0  0  0  0  0  0  0  0  0  0  0  0
  1  2  1  0  0  0  0
  1  5  2  0  0  0  0
  2  6  2  0  0  0  0
  3  8  2  0  0  0  0
  3 17  1  0  0  0  0
  4  9  1  0  0  0  0
  4 17  2  0  0  0  0
  5 19  1  0  0  0  0
  6 21  1  0  0  0  0
  7 10  2  0  0  0  0
  7 20  1  0  0  0  0
  8 26  1  0  0  0  0
  9 26  2  0  0  0  0
 10 27  1  0  0  0  0
 11 12  2  0  0  0  0
 11 28  1  0  0  0  0
 12 30  1  0  0  0  0
 13 22  1  0  0  0  0
 13 23  2  0  0  0  0
 14 24  1  0  0  0  0
 14 27  2  0  0  0  0
 15 25  1  0  0  0  0
 15 29  2  0  0  0  0
 16 30  2  0  0  0  0
 16 31  1  0  0  0  0
 17 32  1  0  0  0  0
 18 32  1  0  0  0  0
 18 33  2  0  0  0  0
 18 34  1  0  0  0  0
 19 21  2  0  0  0  0
 19 39  1  0  0  0  0
 20 24  2  0  0  0  0
 20 40  1  0  0  0  0
 21 58  1  0  0  0  0
 22 25  2  0  0  0  0
 22 56  1  0  0  0  0
 23 29  1  0  0  0  0
 23 57  1  0  0  0  0
 24 41  1  0  0  0  0
 25 62  1  0  0  0  0
 26 87  1  0  0  0  0
 27 88  1  0  0  0  0
 28 31  2  0  0  0  0
 28 87  1  0  0  0  0
 29 89  1  0  0  0  0
 30 90  1  0  0  0  0
 31 91  1  0  0  0  0
 32 72  2  0  0  0  0
 33 73  1  0  0  0  0
 33 77  1  0  0  0  0
 34 78  1  0  0  0  0
 34 82  2  0  0  0  0
 35 59  1  0  0  0  0
 35 79  1  0  0  0  0
 35 83  2  0  0  0  0
 36 69  1  0  0  0  0
 36 74  1  0  0  0  0
 36 84  2  0  0  0  0
 37 70  1  0  0  0  0
 37 80  1  0  0  0  0
 37 85  2  0  0  0  0
 38 75  1  0  0  0  0
 38 76  1  0  0  0  0
 38 86  2  0  0  0  0
 39 42  1  0  0  0  0
 40 59  1  0  0  0  0
 41 74  1  0  0  0  0
 42 46  1  0  0  0  0
 43 47  1  0  0  0  0
 43 52  1  0  0  0  0
 44 48  1  0  0  0  0
 44 56  1  0  0  0  0
 45 49  1  0  0  0  0
 45 56  1  0  0  0  0
 46 58  1  0  0  0  0
 47 60  1  0  0  0  0
 48 61  1  0  0  0  0
 49 61  1  0  0  0  0
 50 53  1  0  0  0  0
 50 57  1  0  0  0  0
 51 54  1  0  0  0  0
 51 57  1  0  0  0  0
 52 75  1  0  0  0  0
 53 76  1  0  0  0  0
 54 76  1  0  0  0  0
 55 60  1  0  0  0  0
 55 75  1  0  0  0  0
 58 79  1  0  0  0  0
 59 74  1  0  0  0  0
 60 73  1  0  0  0  0
 61 88  1  0  0  0  0
 63 70  1  0  0  0  0
 64 71  1  0  0  0  0
 65 71  1  0  0  0  0
 66 71  1  0  0  0  0
 67 81  1  0  0  0  0
 68 89  1  0  0  0  0
 69 71  1  0  0  0  0
 69 80  1  0  0  0  0
 70 81  1  0  0  0  0
 72 73  1  0  0  0  0
M  CHG  1  81   1
M  ISO  4  38 100  61 101  76 100  88 101
M  END
> <Batch ID>
0155

> <Smiles>
CNC(C)C(=O)NC(C(=O)N1Cc2cc([101O:1][101CH:1]3CCC(c4cc(C5CC[100N:0]([100C:0](=O)N6CCCC(n7nc(-c8ccc(Oc9ccc(F)cc9F)cc8)c(C(N)=O)c7N)C6)CC5)c(OC)cc4C)CC3)ccc2CC1C(=O)NC1CCCc2ccccc21)C(C)(C)C

> <Shape>
0.216

> <Color>
0.076

> <Negative vol penalty>
0.000

$$$$

  -OEChem-04052321543D

 84 93  0     1  0  0  0  0  0999 V2000
  -23.4893  -32.9315   15.0800 C   0  0  0  0  0  0  0  0  0  0  0  0
  -23.5741  -31.5750   15.3768 C   0  0  0  0  0  0  0  0  0  0  0  0
  -22.6088  -10.6034   20.7355 C   0  0  0  0  0  0  0  0  0  0  0  0
  -23.6750  -10.6752   22.9024 C   0  0  0  0  0  0  0  0  0  0  0  0
  -24.0136  -33.8718   15.9660 C   0  0  0  0  0  0  0  0  0  0  0  0
  -24.1842  -31.1579   16.5592 C   0  0  0  0  0  0  0  0  0  0  0  0
  -22.6206  -26.3464   20.0103 C   0  0  0  0  0  0  0  0  0  0  0  0
  -21.7360   -9.6184   21.1977 C   0  0  0  0  0  0  0  0  0  0  0  0
  -22.8021   -9.6902   23.3645 C   0  0  0  0  0  0  0  0  0  0  0  0
  -23.1303  -25.0518   20.1009 C   0  0  0  0  0  0  0  0  0  0  0  0
  -18.9328   -9.4590   23.0818 C   0  0  0  0  0  0  0  0  0  0  0  0
  -26.3762  -18.9932   22.4154 C   0  0  0  0  0  0  0  0  0  0  0  0
  -17.5798   -9.5943   22.7710 C   0  0  0  0  0  0  0  0  0  0  0  0
  -27.3616  -18.0375   22.6361 C   0  0  0  0  0  0  0  0  0  0  0  0
  -24.4898  -25.7247   21.9765 C   0  0  0  0  0  0  0  0  0  0  0  0
  -17.6365   -7.4797   21.6037 C   0  0  0  0  0  0  0  0  0  0  0  0
  -27.6664  -19.8290   20.6006 C   0  0  0  0  0  0  0  0  0  0  0  0
  -23.5784  -11.1317   21.5879 C   0  0  0  0  0  0  0  0  0  0  0  0
  -24.2916  -13.5430   21.1580 C   0  0  0  0  0  0  0  0  0  0  0  0
  -24.6219  -33.4665   17.1645 C   0  0  0  0  0  0  0  0  0  0  0  0
  -23.0507  -27.3442   20.8968 C   0  0  0  0  0  0  0  0  0  0  0  0
  -24.7184  -32.0936   17.4614 C   0  0  0  0  0  0  0  0  0  0  0  0
  -23.9822  -27.0305   21.8967 C   0  0  0  0  0  0  0  0  0  0  0  0
  -21.8326   -9.1619   22.5121 C   0  0  0  0  0  0  0  0  0  0  0  0
  -24.0672  -24.7415   21.0822 C   0  0  0  0  0  0  0  0  0  0  0  0
  -26.5238  -19.9097   21.3802 C   0  0  0  0  0  0  0  0  0  0  0  0
  -19.6378   -8.3341   22.6535 C   0  0  0  0  0  0  0  0  0  0  0  0
  -16.9316   -8.6046   22.0320 C   0  0  0  0  0  0  0  0  0  0  0  0
  -18.9896   -7.3445   21.9145 C   0  0  0  0  0  0  0  0  0  0  0  0
  -24.4808  -12.1488   21.1109 C   0  0  0  0  0  0  0  0  0  0  0  0
  -28.4666  -18.0404   21.8001 C   0  0  0  0  0  0  0  0  0  0  0  0
  -25.4258  -14.0629   20.5837 C   0  0  0  0  0  0  0  0  0  0  0  0
  -23.1893  -14.3004   21.6748 C   0  0  0  0  0  0  0  0  0  0  0  0
  -24.5598  -30.1242   20.5838 C   0  0  0  0  0  0  0  0  0  0  0  0
  -23.9465  -30.3707   23.7596 C   0  0  0  0  0  0  0  0  0  0  0  0
  -23.2804  -28.7949   26.7125 C   0  0  0  0  0  0  0  0  0  0  0  0
  -31.0349  -14.0012   20.3252 C   0  0  0  0  0  0  0  0  0  0  0  0
  -25.2163  -34.5173   18.0684 C   0  0  0  0  0  0  0  0  0  0  0  0
  -22.4713  -28.7291   20.8028 C   0  0  0  0  0  0  0  0  0  0  0  0
  -24.4613  -28.0606   22.8856 C   0  0  0  0  0  0  0  0  0  0  0  0
  -25.5131  -34.0113   19.4777 C   0  0  0  0  0  0  0  0  0  0  0  0
  -29.1741  -11.8245   18.0241 C   0  0  0  0  0  0  0  0  0  0  0  0
  -26.2270  -32.6644   19.4220 C   0  0  0  0  0  0  0  0  0  0  0  0
  -27.7811  -11.7928   18.6581 C   0  0  0  0  0  0  0  0  0  0  0  0
  -30.9774  -17.4117   21.5797 C   0  0  0  0  0  0  0  0  0  0  0  0
  -30.2752  -12.0161   19.0655 C   0  0  0  0  0  0  0  0  0  0  0  0
  -31.7069  -16.0800   21.5046 C   0  0  0  0  0  0  0  0  0  0  0  0
  -29.3544  -15.6994   21.2395 C   0  0  0  0  0  0  0  0  0  0  0  0
  -28.6918  -13.1183   20.5969 C   0  0  0  0  0  0  0  0  0  0  0  0
  -25.3507  -31.6031   18.7458 C   0  0  1  0  0  0  0  0  0  0  0  0
  -29.5586  -17.0143   22.0104 C   0  0  2  0  0  0  0  0  0  0  0  0
  -23.3641  -29.7942   21.4319 C   0  0  1  0  0  0  0  0  0  0  0  0
  -27.5555  -13.0138   19.5712 C   0  0  2  0  0  0  0  0  0  0  0  0
  -22.8657  -29.2595   29.1435 C   0  0  0  0  0  0  0  0  0  0  0  0
  -26.9272  -30.8792   24.1683 C   0  0  0  0  0  0  0  0  0  0  0  0
  -26.6058  -30.3898   26.6026 C   0  0  0  0  0  0  0  0  0  0  0  0
  -25.4236  -32.3197   25.5534 C   0  0  0  0  0  0  0  0  0  0  0  0
  -20.5750  -27.6006   26.5986 C   0  0  0  0  0  0  0  0  0  0  0  0
  -24.6525  -22.7262   19.9634 C   0  0  0  0  0  0  0  0  0  1  0  0
  -25.8125  -21.7541   20.0580 C   0  0  0  0  0  0  0  0  0  0  0  0
  -24.6682  -29.9661   25.0223 C   0  0  1  0  0  0  0  0  0  0  0  0
  -22.2299  -29.0532   27.7775 C   0  0  2  0  0  0  0  0  0  0  0  0
  -25.8988  -30.8696   25.3170 C   0  0  0  0  0  0  0  0  0  0  0  0
  -28.6451  -18.9147   20.7845 N   0  0  0  0  0  0  0  0  0  0  0  0
  -25.6435  -11.8048   20.5508 N   0  0  0  0  0  0  0  0  0  0  0  0
  -26.1951  -12.9903   20.2405 N   0  0  0  0  0  0  0  0  0  0  0  0
  -23.8700  -29.4019   22.7489 N   0  0  0  0  0  0  0  0  0  0  0  0
  -29.9882  -13.1697   19.9156 N   0  0  0  0  0  0  0  0  0  0  0  0
  -30.6926  -15.1225   21.0852 N   0  0  0  0  0  0  0  0  0  0  0  0
  -25.8299  -15.3284   20.3436 N   0  0  0  0  0  0  0  0  0  0  0  0
  -22.1049  -13.6078   22.2305 N   0  0  0  0  0  0  0  0  0  0  0  0
  -24.3353  -31.1281   19.6611 N   0  0  0  0  0  0  0  0  0  0  0  0
  -23.6648  -29.9591   26.0814 N   0  0  0  0  0  0  0  0  0  0  0  0
  -21.2884  -27.9014   27.8665 N   0  3  0  0  0  0  0  0  0  0  0  0
  -23.1594  -15.5536   21.6298 O   0  0  0  0  0  0  0  0  0  0  0  0
  -25.6087  -29.5142   20.7549 O   0  0  0  0  0  0  0  0  0  0  0  0
  -23.4621  -31.5021   23.6759 O   0  0  0  0  0  0  0  0  0  0  0  0
  -23.7190  -27.6732   26.4677 O   0  0  0  0  0  0  0  0  0  0  0  0
  -32.2029  -13.7803   19.9819 O   0  0  0  0  0  0  0  0  0  0  0  0
  -20.9808   -8.2009   22.9635 O   0  0  0  0  0  0  0  0  0  0  0  0
  -24.5701  -23.4703   21.1730 O   0  0  0  0  0  0  0  0  0  1  0  0
  -25.5791  -20.8529   21.1424 O   0  0  0  0  0  0  0  0  0  0  0  0
  -15.6319   -8.7339   21.7349 F   0  0  0  0  0  0  0  0  0  0  0  0
  -19.6613   -6.2610   21.5013 F   0  0  0  0  0  0  0  0  0  0  0  0
  1  2  1  0  0  0  0
  1  5  2  0  0  0  0
  2  6  2  0  0  0  0
  3  8  2  0  0  0  0
  3 18  1  0  0  0  0
  4  9  1  0  0  0  0
  4 18  2  0  0  0  0
  5 20  1  0  0  0  0
  6 22  1  0  0  0  0
  7 10  2  0  0  0  0
  7 21  1  0  0  0  0
  8 24  1  0  0  0  0
  9 24  2  0  0  0  0
 10 25  1  0  0  0  0
 11 13  2  0  0  0  0
 11 27  1  0  0  0  0
 12 14  2  0  0  0  0
 12 26  1  0  0  0  0
 13 28  1  0  0  0  0
 14 31  1  0  0  0  0
 15 23  1  0  0  0  0
 15 25  2  0  0  0  0
 16 28  2  0  0  0  0
 16 29  1  0  0  0  0
 17 26  2  0  0  0  0
 17 64  1  0  0  0  0
 18 30  1  0  0  0  0
 19 30  1  0  0  0  0
 19 32  2  0  0  0  0
 19 33  1  0  0  0  0
 20 22  2  0  0  0  0
 20 38  1  0  0  0  0
 21 23  2  0  0  0  0
 21 39  1  0  0  0  0
 22 50  1  0  0  0  0
 23 40  1  0  0  0  0
 24 80  1  0  0  0  0
 25 81  1  0  0  0  0
 26 82  1  0  0  0  0
 27 29  2  0  0  0  0
 27 80  1  0  0  0  0
 28 83  1  0  0  0  0
 29 84  1  0  0  0  0
 30 65  2  0  0  0  0
 31 51  1  0  0  0  0
 31 64  2  0  0  0  0
 32 66  1  0  0  0  0
 32 70  1  0  0  0  0
 33 71  1  0  0  0  0
 33 75  2  0  0  0  0
 34 52  1  0  0  0  0
 34 72  1  0  0  0  0
 34 76  2  0  0  0  0
 35 61  1  0  0  0  0
 35 67  1  0  0  0  0
 35 77  2  0  0  0  0
 36 62  1  0  0  0  0
 36 73  1  0  0  0  0
 36 78  2  0  0  0  0
 37 68  1  0  0  0  0
 37 69  1  0  0  0  0
 37 79  2  0  0  0  0
 38 41  1  0  0  0  0
 39 52  1  0  0  0  0
 40 67  1  0  0  0  0
 41 43  1  0  0  0  0
 42 44  1  0  0  0  0
 42 46  1  0  0  0  0
 43 50  1  0  0  0  0
 44 53  1  0  0  0  0
 45 47  1  0  0  0  0
 45 51  1  0  0  0  0
 46 68  1  0  0  0  0
 47 69  1  0  0  0  0
 48 51  1  0  0  0  0
 48 69  1  0  0  0  0
 49 53  1  0  0  0  0
 49 68  1  0  0  0  0
 50 72  1  0  0  0  0
 52 67  1  0  0  0  0
 53 66  1  0  0  0  0
 54 62  1  0  0  0  0
 55 63  1  0  0  0  0
 56 63  1  0  0  0  0
 57 63  1  0  0  0  0
 58 74  1  0  0  0  0
 59 60  1  0  0  0  0
 59 81  1  0  0  0  0
 60 82  1  0  0  0  0
 61 63  1  0  0  0  0
 61 73  1  0  0  0  0
 62 74  1  0  0  0  0
 65 66  1  0  0  0  0
M  CHG  1  74   1
M  ISO  4  37 100  59 101  69 100  81 101
M  END
> <Batch ID>
0155

> <Smiles>
CNC(C)C(=O)NC(C(=O)N1Cc2cc([101O:1][101CH2:1]COc3ccc(C4CC[100N:0]([100C:0](=O)N5CCCC(n6nc(-c7ccc(Oc8ccc(F)cc8F)cc7)c(C(N)=O)c6N)C5)C4)nc3)ccc2CC1C(=O)NC1CCCc2ccccc21)C(C)(C)C

> <Shape>
0.236

> <Color>
0.141

> <Negative vol penalty>
0.000

$$$$

  -OEChem-04052321543D

 89 98  0     1  0  0  0  0  0999 V2000
  -26.9553  -32.2430   27.8334 C   0  0  0  0  0  0  0  0  0  0  0  0
  -27.2962  -31.2634   26.9063 C   0  0  0  0  0  0  0  0  0  0  0  0
  -26.1348   -9.5060   22.8287 C   0  0  0  0  0  0  0  0  0  0  0  0
  -25.1614   -8.1991   21.0450 C   0  0  0  0  0  0  0  0  0  0  0  0
  -25.6151  -32.5618   28.0481 C   0  0  0  0  0  0  0  0  0  0  0  0
  -26.2969  -30.6011   26.1941 C   0  0  0  0  0  0  0  0  0  0  0  0
  -27.3806  -30.1753   21.2657 C   0  0  0  0  0  0  0  0  0  0  0  0
  -25.6335   -8.6017   23.7649 C   0  0  0  0  0  0  0  0  0  0  0  0
  -24.6601   -7.2948   21.9812 C   0  0  0  0  0  0  0  0  0  0  0  0
  -28.2898  -29.1848   20.8970 C   0  0  0  0  0  0  0  0  0  0  0  0
  -22.8180   -4.8366   23.9238 C   0  0  0  0  0  0  0  0  0  0  0  0
  -21.4987   -4.4102   23.7715 C   0  0  0  0  0  0  0  0  0  0  0  0
  -28.1482  -21.3719   20.6390 C   0  0  0  0  0  0  0  0  0  0  0  0
  -26.4593  -27.7580   20.2391 C   0  0  0  0  0  0  0  0  0  0  0  0
  -30.5631  -22.7669   20.5698 C   0  0  0  0  0  0  0  0  0  0  0  0
  -20.7367   -6.6935   23.9794 C   0  0  0  0  0  0  0  0  0  0  0  0
  -25.8987   -9.3048   21.4687 C   0  0  0  0  0  0  0  0  0  0  0  0
  -27.6657  -10.1893   19.8552 C   0  0  0  0  0  0  0  0  0  0  0  0
  -24.5993  -31.9099   27.3312 C   0  0  0  0  0  0  0  0  0  0  0  0
  -26.0012  -29.9601   21.1339 C   0  0  0  0  0  0  0  0  0  0  0  0
  -24.9417  -30.9105   26.4004 C   0  0  0  0  0  0  0  0  0  0  0  0
  -29.3080  -20.7367   20.1955 C   0  0  0  0  0  0  0  0  0  0  0  0
  -25.5348  -28.7483   20.6045 C   0  0  0  0  0  0  0  0  0  0  0  0
  -28.1957  -22.7047   21.0479 C   0  0  0  0  0  0  0  0  0  0  0  0
  -30.5155  -21.4341   20.1609 C   0  0  0  0  0  0  0  0  0  0  0  0
  -24.8962   -7.4961   23.3412 C   0  0  0  0  0  0  0  0  0  0  0  0
  -27.8292  -27.9748   20.3863 C   0  0  0  0  0  0  0  0  0  0  0  0
  -23.0967   -6.1915   24.1041 C   0  0  0  0  0  0  0  0  0  0  0  0
  -29.4032  -23.4022   21.0133 C   0  0  0  0  0  0  0  0  0  0  0  0
  -20.4581   -5.3386   23.7992 C   0  0  0  0  0  0  0  0  0  0  0  0
  -22.0561   -7.1199   24.1318 C   0  0  0  0  0  0  0  0  0  0  0  0
  -26.4158  -10.2389   20.5012 C   0  0  0  0  0  0  0  0  0  0  0  0
  -27.6747  -11.2942   19.0395 C   0  0  0  0  0  0  0  0  0  0  0  0
  -28.7238   -9.2300   19.9813 C   0  0  0  0  0  0  0  0  0  0  0  0
  -23.5467  -29.8418   23.1501 C   0  0  0  0  0  0  0  0  0  0  0  0
  -21.8149  -29.6172   20.4164 C   0  0  0  0  0  0  0  0  0  0  0  0
  -21.7130  -28.7669   17.1129 C   0  0  0  0  0  0  0  0  0  0  0  0
  -26.6876  -16.5842   18.0085 C   0  0  0  0  0  0  0  0  0  0  0  0
  -23.1623  -32.2552   27.6318 C   0  0  0  0  0  0  0  0  0  0  0  0
  -25.0344  -31.0488   21.5112 C   0  0  0  0  0  0  0  0  0  0  0  0
  -24.0646  -28.4754   20.4241 C   0  0  0  0  0  0  0  0  0  0  0  0
  -22.1835  -31.7706   26.5652 C   0  0  0  0  0  0  0  0  0  0  0  0
  -23.9676  -14.4684   17.7381 C   0  0  0  0  0  0  0  0  0  0  0  0
  -22.4810  -30.3235   26.1856 C   0  0  0  0  0  0  0  0  0  0  0  0
  -24.4541  -13.1678   18.3769 C   0  0  0  0  0  0  0  0  0  0  0  0
  -28.1750  -18.4974   20.5472 C   0  0  0  0  0  0  0  0  0  0  0  0
  -28.9835  -19.1569   18.2405 C   0  0  0  0  0  0  0  0  0  0  0  0
  -24.4438  -15.6784   18.5335 C   0  0  0  0  0  0  0  0  0  0  0  0
  -28.0807  -17.0439   20.0746 C   0  0  0  0  0  0  0  0  0  0  0  0
  -28.8957  -17.6894   17.8314 C   0  0  0  0  0  0  0  0  0  0  0  0
  -26.4282  -14.4458   19.3466 C   0  0  0  0  0  0  0  0  0  0  0  0
  -29.2318  -19.2872   19.7542 C   0  0  0  0  0  0  0  0  0  0  0  0
  -23.8877  -30.1873   25.5904 C   0  0  1  0  0  0  0  0  0  0  0  0
  -23.6339  -30.5254   21.8149 C   0  0  1  0  0  0  0  0  0  0  0  0
  -25.9799  -13.1868   18.5769 C   0  0  1  0  0  0  0  0  0  0  0  0
  -31.7705  -20.7755   19.6901 C   0  0  0  0  0  0  0  0  0  0  0  0
  -26.3649  -22.6996   22.7804 C   0  0  0  0  0  0  0  0  0  0  0  0
  -25.8673  -23.4409   20.4229 C   0  0  0  0  0  0  0  0  0  0  0  0
  -20.1482  -28.6580   15.1542 C   0  0  0  0  0  0  0  0  0  0  0  0
  -20.5361  -27.1035   21.5810 C   0  0  0  0  0  0  0  0  0  0  0  0
  -19.7356  -26.5288   19.2794 C   0  0  0  0  0  0  0  0  0  0  0  0
  -18.9499  -28.6225   20.3847 C   0  0  0  0  0  0  0  0  0  0  0  0
  -23.3432  -30.6845   15.5558 C   0  0  0  0  0  0  0  0  0  0  0  0
  -29.9488  -26.9560   20.7400 C   0  0  0  0  0  0  0  0  0  1  0  0
  -30.4492  -25.5250   20.7785 C   0  0  0  0  0  0  0  0  0  0  0  0
  -26.9447  -23.3687   21.5206 C   0  0  0  0  0  0  0  0  0  0  0  0
  -21.3313  -28.4814   19.5475 C   0  0  1  0  0  0  0  0  0  0  0  0
  -21.1706  -29.5012   15.9000 C   0  0  2  0  0  0  0  0  0  0  0  0
  -20.1659  -27.6882   20.2032 C   0  0  0  0  0  0  0  0  0  0  0  0
  -25.6841  -11.2922   20.1281 N   0  0  0  0  0  0  0  0  0  0  0  0
  -26.4766  -11.9146   19.2390 N   0  0  0  0  0  0  0  0  0  0  0  0
  -23.1587  -29.5686   20.8134 N   0  0  0  0  0  0  0  0  0  0  0  0
  -25.8964  -15.6581   18.7048 N   0  0  0  0  0  0  0  0  0  0  0  0
  -27.8862  -16.9828   18.6193 N   0  0  0  0  0  0  0  0  0  0  0  0
  -28.5906  -11.7861   18.1784 N   0  0  0  0  0  0  0  0  0  0  0  0
  -28.5500   -8.1556   20.8643 N   0  0  0  0  0  0  0  0  0  0  0  0
  -23.9019  -30.6445   24.2173 N   0  0  0  0  0  0  0  0  0  0  0  0
  -21.0004  -29.0694   18.2539 N   0  0  0  0  0  0  0  0  0  0  0  0
  -22.2774  -29.8379   14.9605 N   0  3  0  0  0  0  0  0  0  0  0  0
  -29.7985   -9.3318   19.3423 O   0  0  0  0  0  0  0  0  0  0  0  0
  -23.1825  -28.6732   23.2079 O   0  0  0  0  0  0  0  0  0  0  0  0
  -21.0311  -30.5182   20.7255 O   0  0  0  0  0  0  0  0  0  0  0  0
  -22.6706  -27.9988   17.0533 O   0  0  0  0  0  0  0  0  0  0  0  0
  -26.3445  -17.0286   16.9058 O   0  0  0  0  0  0  0  0  0  0  0  0
  -24.4071   -6.6133   24.2544 O   0  0  0  0  0  0  0  0  0  0  0  0
  -28.7205  -26.9995   20.0238 O   0  0  0  0  0  0  0  0  0  1  0  0
  -29.4668  -24.7048   21.4078 O   0  0  0  0  0  0  0  0  0  0  0  0
  -19.1913   -4.9292   23.6513 F   0  0  0  0  0  0  0  0  0  0  0  0
  -22.3177   -8.4229   24.3034 F   0  0  0  0  0  0  0  0  0  0  0  0
  1  2  1  0  0  0  0
  1  5  2  0  0  0  0
  2  6  2  0  0  0  0
  3  8  2  0  0  0  0
  3 17  1  0  0  0  0
  4  9  1  0  0  0  0
  4 17  2  0  0  0  0
  5 19  1  0  0  0  0
  6 21  1  0  0  0  0
  7 10  2  0  0  0  0
  7 20  1  0  0  0  0
  8 26  1  0  0  0  0
  9 26  2  0  0  0  0
 10 27  1  0  0  0  0
 11 12  2  0  0  0  0
 11 28  1  0  0  0  0
 12 30  1  0  0  0  0
 13 22  2  0  0  0  0
 13 24  1  0  0  0  0
 14 23  1  0  0  0  0
 14 27  2  0  0  0  0
 15 25  2  0  0  0  0
 15 29  1  0  0  0  0
 16 30  2  0  0  0  0
 16 31  1  0  0  0  0
 17 32  1  0  0  0  0
 18 32  1  0  0  0  0
 18 33  2  0  0  0  0
 18 34  1  0  0  0  0
 19 21  2  0  0  0  0
 19 39  1  0  0  0  0
 20 23  2  0  0  0  0
 20 40  1  0  0  0  0
 21 53  1  0  0  0  0
 22 25  1  0  0  0  0
 22 52  1  0  0  0  0
 23 41  1  0  0  0  0
 24 29  2  0  0  0  0
 24 66  1  0  0  0  0
 25 56  1  0  0  0  0
 26 85  1  0  0  0  0
 27 86  1  0  0  0  0
 28 31  2  0  0  0  0
 28 85  1  0  0  0  0
 29 87  1  0  0  0  0
 30 88  1  0  0  0  0
 31 89  1  0  0  0  0
 32 70  2  0  0  0  0
 33 71  1  0  0  0  0
 33 75  1  0  0  0  0
 34 76  1  0  0  0  0
 34 80  2  0  0  0  0
 35 54  1  0  0  0  0
 35 77  1  0  0  0  0
 35 81  2  0  0  0  0
 36 67  1  0  0  0  0
 36 72  1  0  0  0  0
 36 82  2  0  0  0  0
 37 68  1  0  0  0  0
 37 78  1  0  0  0  0
 37 83  2  0  0  0  0
 38 73  1  0  0  0  0
 38 74  1  0  0  0  0
 38 84  2  0  0  0  0
 39 42  1  0  0  0  0
 40 54  1  0  0  0  0
 41 72  1  0  0  0  0
 42 44  1  0  0  0  0
 43 45  1  0  0  0  0
 43 48  1  0  0  0  0
 44 53  1  0  0  0  0
 45 55  1  0  0  0  0
 46 49  1  0  0  0  0
 46 52  1  0  0  0  0
 47 50  1  0  0  0  0
 47 52  1  0  0  0  0
 48 73  1  0  0  0  0
 49 74  1  0  0  0  0
 50 74  1  0  0  0  0
 51 55  1  0  0  0  0
 51 73  1  0  0  0  0
 53 77  1  0  0  0  0
 54 72  1  0  0  0  0
 55 71  1  0  0  0  0
 57 66  1  0  0  0  0
 58 66  1  0  0  0  0
 59 68  1  0  0  0  0
 60 69  1  0  0  0  0
 61 69  1  0  0  0  0
 62 69  1  0  0  0  0
 63 79  1  0  0  0  0
 64 65  1  0  0  0  0
 64 86  1  0  0  0  0
 65 87  1  0  0  0  0
 67 69  1  0  0  0  0
 67 78  1  0  0  0  0
 68 79  1  0  0  0  0
 70 71  1  0  0  0  0
M  CHG  1  79   1
M  ISO  4  38 100  64 101  74 100  86 101
M  END
> <Batch ID>
0155

> <Smiles>
CNC(C)C(=O)NC(C(=O)N1Cc2cc([101O:1][101CH2:1]COc3cc(C)c(C4CC[100N:0]([100C:0](=O)N5CCCC(n6nc(-c7ccc(Oc8ccc(F)cc8F)cc7)c(C(N)=O)c6N)C5)CC4)cc3C(C)C)ccc2CC1C(=O)NC1CCCc2ccccc21)C(C)(C)C

> <Shape>
0.264

> <Color>
0.079

> <Negative vol penalty>
0.000

$$$$

  -OEChem-04052321543D

 88 97  0     1  0  0  0  0  0999 V2000
  -17.0667  -29.7645   24.8086 C   0  0  0  0  0  0  0  0  0  0  0  0
  -18.3471  -29.5252   25.2972 C   0  0  0  0  0  0  0  0  0  0  0  0
  -26.0318  -13.5397   21.5471 C   0  0  0  0  0  0  0  0  0  0  0  0
  -25.0224  -13.1493   19.3870 C   0  0  0  0  0  0  0  0  0  0  0  0
  -16.7699  -29.4956   23.4731 C   0  0  0  0  0  0  0  0  0  0  0  0
  -19.3312  -29.0157   24.4508 C   0  0  0  0  0  0  0  0  0  0  0  0
  -26.3961  -29.2947   23.2993 C   0  0  0  0  0  0  0  0  0  0  0  0
  -25.0725  -12.7213   22.1433 C   0  0  0  0  0  0  0  0  0  0  0  0
  -24.0631  -12.3308   19.9833 C   0  0  0  0  0  0  0  0  0  0  0  0
  -27.4959  -28.4524   23.1427 C   0  0  0  0  0  0  0  0  0  0  0  0
  -21.8426  -12.9663   23.1088 C   0  0  0  0  0  0  0  0  0  0  0  0
  -21.2430  -13.4213   24.2831 C   0  0  0  0  0  0  0  0  0  0  0  0
  -26.8900  -28.1003   20.8345 C   0  0  0  0  0  0  0  0  0  0  0  0
  -31.6257  -28.8602   20.4736 C   0  0  0  0  0  0  0  0  0  0  0  0
  -31.6370  -27.3809   18.1084 C   0  0  0  0  0  0  0  0  0  0  0  0
  -22.0716  -11.4800   25.4585 C   0  0  0  0  0  0  0  0  0  0  0  0
  -26.0067  -13.7538   20.1690 C   0  0  0  0  0  0  0  0  0  0  0  0
  -28.2479  -14.2085   19.0385 C   0  0  0  0  0  0  0  0  0  0  0  0
  -17.7534  -28.9916   22.6075 C   0  0  0  0  0  0  0  0  0  0  0  0
  -25.5273  -29.5380   22.2258 C   0  0  0  0  0  0  0  0  0  0  0  0
  -19.0469  -28.7384   23.1028 C   0  0  0  0  0  0  0  0  0  0  0  0
  -25.7813  -28.9481   20.9793 C   0  0  0  0  0  0  0  0  0  0  0  0
  -31.8196  -29.5021   19.2505 C   0  0  0  0  0  0  0  0  0  0  0  0
  -31.4375  -27.4786   20.5141 C   0  0  0  0  0  0  0  0  0  0  0  0
  -31.8252  -28.7625   18.0679 C   0  0  0  0  0  0  0  0  0  0  0  0
  -24.0881  -12.1168   21.3614 C   0  0  0  0  0  0  0  0  0  0  0  0
  -27.7414  -27.8527   21.9110 C   0  0  0  0  0  0  0  0  0  0  0  0
  -22.5567  -11.7680   23.1093 C   0  0  0  0  0  0  0  0  0  0  0  0
  -31.4431  -26.7390   19.3315 C   0  0  0  0  0  0  0  0  0  0  0  0
  -21.3575  -12.6782   25.4580 C   0  0  0  0  0  0  0  0  0  0  0  0
  -22.6712  -11.0249   24.2842 C   0  0  0  0  0  0  0  0  0  0  0  0
  -26.9971  -14.5996   19.5526 C   0  0  0  0  0  0  0  0  0  0  0  0
  -28.8045  -15.3723   18.5672 C   0  0  0  0  0  0  0  0  0  0  0  0
  -28.8526  -12.9093   18.9913 C   0  0  0  0  0  0  0  0  0  0  0  0
  -22.4428  -29.0065   21.6715 C   0  0  0  0  0  0  0  0  0  0  0  0
  -23.0381  -30.6950   18.9665 C   0  0  0  0  0  0  0  0  0  0  0  0
  -25.3149  -31.7608   16.6585 C   0  0  0  0  0  0  0  0  0  0  0  0
  -30.0620  -20.5753   18.9680 C   0  0  0  0  0  0  0  0  0  0  0  0
  -17.3725  -28.6718   21.1837 C   0  0  0  0  0  0  0  0  0  0  0  0
  -24.3604  -30.4703   22.4037 C   0  0  0  0  0  0  0  0  0  0  0  0
  -24.8904  -29.1930   19.7898 C   0  0  0  0  0  0  0  0  0  0  0  0
  -18.5729  -28.4858   20.2592 C   0  0  0  0  0  0  0  0  0  0  0  0
  -26.7886  -19.9505   17.8650 C   0  0  0  0  0  0  0  0  0  0  0  0
  -19.6163  -27.5858   20.9135 C   0  0  0  0  0  0  0  0  0  0  0  0
  -26.6467  -18.4586   18.1658 C   0  0  0  0  0  0  0  0  0  0  0  0
  -30.6150  -23.9417   17.5156 C   0  0  0  0  0  0  0  0  0  0  0  0
  -29.1795  -24.1640   19.5892 C   0  0  0  0  0  0  0  0  0  0  0  0
  -27.5310  -20.6913   18.9785 C   0  0  0  0  0  0  0  0  0  0  0  0
  -31.1231  -22.6000   18.0413 C   0  0  0  0  0  0  0  0  0  0  0  0
  -29.7230  -22.8201   20.0688 C   0  0  0  0  0  0  0  0  0  0  0  0
  -28.7026  -18.6103   19.6212 C   0  0  0  0  0  0  0  0  0  0  0  0
  -20.1480  -28.2095   22.2096 C   0  0  1  0  0  0  0  0  0  0  0  0
  -23.2506  -30.2401   21.3826 C   0  0  1  0  0  0  0  0  0  0  0  0
  -28.0123  -17.8284   18.4927 C   0  0  1  0  0  0  0  0  0  0  0  0
  -30.1411  -24.8717   18.6330 C   0  0  0  0  0  0  0  0  0  0  0  0
  -32.0207  -30.9819   19.2315 C   0  0  0  0  0  0  0  0  0  0  0  0
  -32.0308  -29.4273   16.7465 C   0  0  0  0  0  0  0  0  0  0  0  0
  -32.4524  -26.9643   22.7585 C   0  0  0  0  0  0  0  0  0  0  0  0
  -25.4964  -33.0950   14.5409 C   0  0  0  0  0  0  0  0  0  0  0  0
  -21.8462  -28.3644   17.3989 C   0  0  0  0  0  0  0  0  0  0  0  0
  -22.9006  -29.3060   15.3325 C   0  0  0  0  0  0  0  0  0  0  0  0
  -21.1834  -30.6281   16.5678 C   0  0  0  0  0  0  0  0  0  0  0  0
  -27.1396  -33.7235   17.9144 C   0  0  0  0  0  0  0  0  0  0  0  0
  -29.9599  -27.2969   22.5632 C   0  0  0  0  0  0  0  0  0  1  0  0
  -31.2305  -26.8081   21.8321 C   0  0  1  0  0  0  0  0  0  0  0  0
  -23.4887  -30.3493   17.5678 C   0  0  1  0  0  0  0  0  0  0  0  0
  -25.5758  -33.1309   16.0591 C   0  0  2  0  0  0  0  0  0  0  0  0
  -22.3706  -29.6556   16.7395 C   0  0  0  0  0  0  0  0  0  0  0  0
  -26.7720  -15.9095   19.4204 N   0  0  0  0  0  0  0  0  0  0  0  0
  -27.8890  -16.3517   18.8181 N   0  0  0  0  0  0  0  0  0  0  0  0
  -23.7588  -30.1072   20.0157 N   0  0  0  0  0  0  0  0  0  0  0  0
  -28.8076  -20.0309   19.2817 N   0  0  0  0  0  0  0  0  0  0  0  0
  -30.1588  -21.9770   18.9474 N   0  0  0  0  0  0  0  0  0  0  0  0
  -29.9829  -15.6433   17.9668 N   0  0  0  0  0  0  0  0  0  0  0  0
  -28.1431  -11.8225   19.5201 N   0  0  0  0  0  0  0  0  0  0  0  0
  -21.1048  -29.2539   21.9125 N   0  0  0  0  0  0  0  0  0  0  0  0
  -23.9853  -31.5891   16.9808 N   0  0  0  0  0  0  0  0  0  0  0  0
  -26.9300  -33.6169   16.4476 N   0  3  0  0  0  0  0  0  0  0  0  0
  -29.9954  -12.7206   18.5096 O   0  0  0  0  0  0  0  0  0  0  0  0
  -22.9924  -27.9113   21.6741 O   0  0  0  0  0  0  0  0  0  0  0  0
  -22.0863  -31.4641   19.1225 O   0  0  0  0  0  0  0  0  0  0  0  0
  -26.2013  -30.9250   16.8209 O   0  0  0  0  0  0  0  0  0  0  0  0
  -31.0368  -19.8554   18.7177 O   0  0  0  0  0  0  0  0  0  0  0  0
  -23.1520  -11.3180   21.9428 O   0  0  0  0  0  0  0  0  0  0  0  0
  -31.2612  -25.3813   19.3535 O   0  0  0  0  0  0  0  0  0  0  0  0
  -28.8210  -27.0241   21.7546 O   0  0  0  0  0  0  0  0  0  1  0  0
  -20.7830  -13.1161   26.5859 F   0  0  0  0  0  0  0  0  0  0  0  0
  -23.3570   -9.8736   24.2911 F   0  0  0  0  0  0  0  0  0  0  0  0
  1  2  1  0  0  0  0
  1  5  2  0  0  0  0
  2  6  2  0  0  0  0
  3  8  2  0  0  0  0
  3 17  1  0  0  0  0
  4  9  1  0  0  0  0
  4 17  2  0  0  0  0
  5 19  1  0  0  0  0
  6 21  1  0  0  0  0
  7 10  2  0  0  0  0
  7 20  1  0  0  0  0
  8 26  1  0  0  0  0
  9 26  2  0  0  0  0
 10 27  1  0  0  0  0
 11 12  2  0  0  0  0
 11 28  1  0  0  0  0
 12 30  1  0  0  0  0
 13 22  1  0  0  0  0
 13 27  2  0  0  0  0
 14 23  2  0  0  0  0
 14 24  1  0  0  0  0
 15 25  2  0  0  0  0
 15 29  1  0  0  0  0
 16 30  2  0  0  0  0
 16 31  1  0  0  0  0
 17 32  1  0  0  0  0
 18 32  1  0  0  0  0
 18 33  2  0  0  0  0
 18 34  1  0  0  0  0
 19 21  2  0  0  0  0
 19 39  1  0  0  0  0
 20 22  2  0  0  0  0
 20 40  1  0  0  0  0
 21 52  1  0  0  0  0
 22 41  1  0  0  0  0
 23 25  1  0  0  0  0
 23 56  1  0  0  0  0
 24 29  2  0  0  0  0
 24 65  1  0  0  0  0
 25 57  1  0  0  0  0
 26 84  1  0  0  0  0
 27 86  1  0  0  0  0
 28 31  2  0  0  0  0
 28 84  1  0  0  0  0
 29 85  1  0  0  0  0
 30 87  1  0  0  0  0
 31 88  1  0  0  0  0
 32 69  2  0  0  0  0
 33 70  1  0  0  0  0
 33 74  1  0  0  0  0
 34 75  1  0  0  0  0
 34 79  2  0  0  0  0
 35 53  1  0  0  0  0
 35 76  1  0  0  0  0
 35 80  2  0  0  0  0
 36 66  1  0  0  0  0
 36 71  1  0  0  0  0
 36 81  2  0  0  0  0
 37 67  1  0  0  0  0
 37 77  1  0  0  0  0
 37 82  2  0  0  0  0
 38 72  1  0  0  0  0
 38 73  1  0  0  0  0
 38 83  2  0  0  0  0
 39 42  1  0  0  0  0
 40 53  1  0  0  0  0
 41 71  1  0  0  0  0
 42 44  1  0  0  0  0
 43 45  1  0  0  0  0
 43 48  1  0  0  0  0
 44 52  1  0  0  0  0
 45 54  1  0  0  0  0
 46 49  1  0  0  0  0
 46 55  1  0  0  0  0
 47 50  1  0  0  0  0
 47 55  1  0  0  0  0
 48 72  1  0  0  0  0
 49 73  1  0  0  0  0
 50 73  1  0  0  0  0
 51 54  1  0  0  0  0
 51 72  1  0  0  0  0
 52 76  1  0  0  0  0
 53 71  1  0  0  0  0
 54 70  1  0  0  0  0
 55 85  1  0  0  0  0
 58 65  1  0  0  0  0
 59 67  1  0  0  0  0
 60 68  1  0  0  0  0
 61 68  1  0  0  0  0
 62 68  1  0  0  0  0
 63 78  1  0  0  0  0
 64 65  1  0  0  0  0
 64 86  1  0  0  0  0
 66 68  1  0  0  0  0
 66 77  1  0  0  0  0
 67 78  1  0  0  0  0
 69 70  1  0  0  0  0
M  CHG  1  78   1
M  ISO  4  38 100  64 101  73 100  86 101
M  END
> <Batch ID>
0155

> <Smiles>
CNC(C)C(=O)NC(C(=O)N1Cc2cc([101O:1][101CH2:1]C(C)c3cc(C)c(C)cc3OC3CC[100N:0]([100C:0](=O)N4CCCC(n5nc(-c6ccc(Oc7ccc(F)cc7F)cc6)c(C(N)=O)c5N)C4)CC3)ccc2CC1C(=O)NC1CCCc2ccccc21)C(C)(C)C

> <Shape>
0.270

> <Color>
0.082

> <Negative vol penalty>
0.000

$$$$

  -OEChem-04052321543D

 88 97  0     1  0  0  0  0  0999 V2000
  -28.6449  -36.3093   24.3458 C   0  0  0  0  0  0  0  0  0  0  0  0
  -28.9248  -35.0043   23.9536 C   0  0  0  0  0  0  0  0  0  0  0  0
  -23.6962  -10.5200   22.5326 C   0  0  0  0  0  0  0  0  0  0  0  0
  -24.4657   -8.6814   21.1672 C   0  0  0  0  0  0  0  0  0  0  0  0
  -27.3583  -36.6506   24.7606 C   0  0  0  0  0  0  0  0  0  0  0  0
  -27.9184  -34.0393   23.9771 C   0  0  0  0  0  0  0  0  0  0  0  0
  -27.2003  -29.3732   20.0762 C   0  0  0  0  0  0  0  0  0  0  0  0
  -22.5558   -9.7916   22.8709 C   0  0  0  0  0  0  0  0  0  0  0  0
  -23.3253   -7.9529   21.5055 C   0  0  0  0  0  0  0  0  0  0  0  0
  -27.5436  -28.0242   20.1541 C   0  0  0  0  0  0  0  0  0  0  0  0
  -22.2239   -6.1294   24.1290 C   0  0  0  0  0  0  0  0  0  0  0  0
  -22.3930   -4.7907   24.4819 C   0  0  0  0  0  0  0  0  0  0  0  0
  -25.3097  -27.5050   20.9020 C   0  0  0  0  0  0  0  0  0  0  0  0
  -27.8243  -21.6923   19.7455 C   0  0  0  0  0  0  0  0  0  0  0  0
  -29.3947  -23.4230   21.2691 C   0  0  0  0  0  0  0  0  0  0  0  0
  -20.9628   -4.1273   22.6512 C   0  0  0  0  0  0  0  0  0  0  0  0
  -24.6511   -9.9650   21.6807 C   0  0  0  0  0  0  0  0  0  0  0  0
  -27.0627  -10.7296   22.0085 C   0  0  0  0  0  0  0  0  0  0  0  0
  -26.3332  -35.6917   24.7800 C   0  0  0  0  0  0  0  0  0  0  0  0
  -25.9101  -29.8004   20.4217 C   0  0  0  0  0  0  0  0  0  0  0  0
  -26.6172  -34.3678   24.3939 C   0  0  0  0  0  0  0  0  0  0  0  0
  -24.9518  -28.8596   20.8252 C   0  0  0  0  0  0  0  0  0  0  0  0
  -28.7828  -21.1781   20.6188 C   0  0  0  0  0  0  0  0  0  0  0  0
  -29.5679  -22.0434   21.3806 C   0  0  0  0  0  0  0  0  0  0  0  0
  -28.4362  -23.9372   20.3958 C   0  0  0  0  0  0  0  0  0  0  0  0
  -22.3704   -8.5080   22.3574 C   0  0  0  0  0  0  0  0  0  0  0  0
  -26.5992  -27.0902   20.5697 C   0  0  0  0  0  0  0  0  0  0  0  0
  -21.4241   -6.4672   23.0371 C   0  0  0  0  0  0  0  0  0  0  0  0
  -27.6511  -23.0719   19.6340 C   0  0  0  0  0  0  0  0  0  0  0  0
  -21.7625   -3.7896   23.7430 C   0  0  0  0  0  0  0  0  0  0  0  0
  -20.7936   -5.4662   22.2982 C   0  0  0  0  0  0  0  0  0  0  0  0
  -25.8291  -10.7172   21.3303 C   0  0  0  0  0  0  0  0  0  0  0  0
  -27.8447  -11.5947   21.2829 C   0  0  0  0  0  0  0  0  0  0  0  0
  -27.4656  -10.0224   23.1888 C   0  0  0  0  0  0  0  0  0  0  0  0
  -24.7066  -31.7403   22.6334 C   0  0  0  0  0  0  0  0  0  0  0  0
  -21.9326  -31.1975   21.0421 C   0  0  0  0  0  0  0  0  0  0  0  0
  -20.1203  -29.1591   18.9909 C   0  0  0  0  0  0  0  0  0  0  0  0
  -28.6569  -16.2416   18.4958 C   0  0  0  0  0  0  0  0  0  0  0  0
  -24.9696  -36.0967   25.2812 C   0  0  0  0  0  0  0  0  0  0  0  0
  -25.5477  -31.2556   20.3067 C   0  0  0  0  0  0  0  0  0  0  0  0
  -23.5470  -29.2642   21.1877 C   0  0  0  0  0  0  0  0  0  0  0  0
  -23.8682  -35.1032   24.9203 C   0  0  0  0  0  0  0  0  0  0  0  0
  -27.1158  -13.6902   16.7454 C   0  0  0  0  0  0  0  0  0  0  0  0
  -24.3177  -33.6764   25.2185 C   0  0  0  0  0  0  0  0  0  0  0  0
  -26.7406  -12.6806   17.8298 C   0  0  0  0  0  0  0  0  0  0  0  0
  -27.6251  -18.9267   20.5065 C   0  0  0  0  0  0  0  0  0  0  0  0
  -30.0340  -19.1484   19.7597 C   0  0  0  0  0  0  0  0  0  0  0  0
  -26.8599  -15.1172   17.2163 C   0  0  0  0  0  0  0  0  0  0  0  0
  -27.8106  -17.4083   20.5798 C   0  0  0  0  0  0  0  0  0  0  0  0
  -30.1699  -17.6330   19.8755 C   0  0  0  0  0  0  0  0  0  0  0  0
  -27.2020  -14.4692   19.5787 C   0  0  0  0  0  0  0  0  0  0  0  0
  -28.9534  -19.6742   20.7219 C   0  0  0  0  0  0  0  0  0  0  0  0
  -25.5462  -33.2987   24.3820 C   0  0  1  0  0  0  0  0  0  0  0  0
  -24.3557  -31.6450   21.1756 C   0  0  1  0  0  0  0  0  0  0  0  0
  -27.4480  -13.0062   19.1572 C   0  0  1  0  0  0  0  0  0  0  0  0
  -30.3067  -21.8936   23.7859 C   0  0  0  0  0  0  0  0  0  0  0  0
  -32.0240  -21.9599   21.9416 C   0  0  0  0  0  0  0  0  0  0  0  0
  -17.8708  -28.9627   17.8962 C   0  0  0  0  0  0  0  0  0  0  0  0
  -20.7075  -30.3743   23.7126 C   0  0  0  0  0  0  0  0  0  0  0  0
  -18.8290  -29.3114   22.4439 C   0  0  0  0  0  0  0  0  0  0  0  0
  -19.2177  -31.7691   22.2672 C   0  0  0  0  0  0  0  0  0  0  0  0
  -21.3079  -29.1886   16.2803 C   0  0  0  0  0  0  0  0  0  0  0  0
  -25.9524  -22.6019   18.0373 C   0  0  0  0  0  0  0  0  0  0  0  0
  -28.2653  -25.4166   20.2882 C   0  0  0  0  0  0  0  0  0  1  0  0
  -30.5999  -21.5157   22.3224 C   0  0  0  0  0  0  0  0  0  0  0  0
  -20.8256  -30.1759   21.1411 C   0  0  1  0  0  0  0  0  0  0  0  0
  -19.3027  -29.4524   17.7459 C   0  0  2  0  0  0  0  0  0  0  0  0
  -19.9219  -30.4000   22.3863 C   0  0  0  0  0  0  0  0  0  0  0  0
  -25.8230  -11.5114   20.2565 N   0  0  0  0  0  0  0  0  0  0  0  0
  -27.0624  -12.0311   20.2544 N   0  0  0  0  0  0  0  0  0  0  0  0
  -23.2430  -30.6995   21.0652 N   0  0  0  0  0  0  0  0  0  0  0  0
  -27.5451  -15.3860   18.4804 N   0  0  0  0  0  0  0  0  0  0  0  0
  -28.8811  -16.9718   19.6726 N   0  0  0  0  0  0  0  0  0  0  0  0
  -29.1183  -12.0170   21.4306 N   0  0  0  0  0  0  0  0  0  0  0  0
  -26.5379   -9.1745   23.8091 N   0  0  0  0  0  0  0  0  0  0  0  0
  -25.1563  -32.9874   23.0235 N   0  0  0  0  0  0  0  0  0  0  0  0
  -20.1125  -30.2221   19.8692 N   0  0  0  0  0  0  0  0  0  0  0  0
  -19.9066  -28.7821   16.5598 N   0  3  0  0  0  0  0  0  0  0  0  0
  -28.6090  -10.1515   23.6883 O   0  0  0  0  0  0  0  0  0  0  0  0
  -24.5776  -30.7558   23.3516 O   0  0  0  0  0  0  0  0  0  0  0  0
  -21.6451  -32.3928   20.9407 O   0  0  0  0  0  0  0  0  0  0  0  0
  -20.7041  -28.0923   19.1684 O   0  0  0  0  0  0  0  0  0  0  0  0
  -29.4061  -16.3468   17.5166 O   0  0  0  0  0  0  0  0  0  0  0  0
  -21.2578   -7.7968   22.6875 O   0  0  0  0  0  0  0  0  0  0  0  0
  -26.7099  -23.5576   18.7768 O   0  0  0  0  0  0  0  0  0  0  0  0
  -26.9342  -25.7636   20.6478 O   0  0  0  0  0  0  0  0  0  1  0  0
  -21.9262   -2.5039   24.0811 F   0  0  0  0  0  0  0  0  0  0  0  0
  -20.0251   -5.7844   21.2476 F   0  0  0  0  0  0  0  0  0  0  0  0
  1  2  1  0  0  0  0
  1  5  2  0  0  0  0
  2  6  2  0  0  0  0
  3  8  2  0  0  0  0
  3 17  1  0  0  0  0
  4  9  1  0  0  0  0
  4 17  2  0  0  0  0
  5 19  1  0  0  0  0
  6 21  1  0  0  0  0
  7 10  2  0  0  0  0
  7 20  1  0  0  0  0
  8 26  1  0  0  0  0
  9 26  2  0  0  0  0
 10 27  1  0  0  0  0
 11 12  2  0  0  0  0
 11 28  1  0  0  0  0
 12 30  1  0  0  0  0
 13 22  1  0  0  0  0
 13 27  2  0  0  0  0
 14 23  2  0  0  0  0
 14 29  1  0  0  0  0
 15 24  2  0  0  0  0
 15 25  1  0  0  0  0
 16 30  2  0  0  0  0
 16 31  1  0  0  0  0
 17 32  1  0  0  0  0
 18 32  1  0  0  0  0
 18 33  2  0  0  0  0
 18 34  1  0  0  0  0
 19 21  2  0  0  0  0
 19 39  1  0  0  0  0
 20 22  2  0  0  0  0
 20 40  1  0  0  0  0
 21 53  1  0  0  0  0
 22 41  1  0  0  0  0
 23 24  1  0  0  0  0
 23 52  1  0  0  0  0
 24 65  1  0  0  0  0
 25 29  2  0  0  0  0
 25 64  1  0  0  0  0
 26 84  1  0  0  0  0
 27 86  1  0  0  0  0
 28 31  2  0  0  0  0
 28 84  1  0  0  0  0
 29 85  1  0  0  0  0
 30 87  1  0  0  0  0
 31 88  1  0  0  0  0
 32 69  2  0  0  0  0
 33 70  1  0  0  0  0
 33 74  1  0  0  0  0
 34 75  1  0  0  0  0
 34 79  2  0  0  0  0
 35 54  1  0  0  0  0
 35 76  1  0  0  0  0
 35 80  2  0  0  0  0
 36 66  1  0  0  0  0
 36 71  1  0  0  0  0
 36 81  2  0  0  0  0
 37 67  1  0  0  0  0
 37 77  1  0  0  0  0
 37 82  2  0  0  0  0
 38 72  1  0  0  0  0
 38 73  1  0  0  0  0
 38 83  2  0  0  0  0
 39 42  1  0  0  0  0
 40 54  1  0  0  0  0
 41 71  1  0  0  0  0
 42 44  1  0  0  0  0
 43 45  1  0  0  0  0
 43 48  1  0  0  0  0
 44 53  1  0  0  0  0
 45 55  1  0  0  0  0
 46 49  1  0  0  0  0
 46 52  1  0  0  0  0
 47 50  1  0  0  0  0
 47 52  1  0  0  0  0
 48 72  1  0  0  0  0
 49 73  1  0  0  0  0
 50 73  1  0  0  0  0
 51 55  1  0  0  0  0
 51 72  1  0  0  0  0
 53 76  1  0  0  0  0
 54 71  1  0  0  0  0
 55 70  1  0  0  0  0
 56 65  1  0  0  0  0
 57 65  1  0  0  0  0
 58 67  1  0  0  0  0
 59 68  1  0  0  0  0
 60 68  1  0  0  0  0
 61 68  1  0  0  0  0
 62 78  1  0  0  0  0
 63 85  1  0  0  0  0
 64 86  1  0  0  0  0
 66 68  1  0  0  0  0
 66 77  1  0  0  0  0
 67 78  1  0  0  0  0
 69 70  1  0  0  0  0
M  CHG  1  78   1
M  ISO  4  38 100  64 101  73 100  86 101
M  END
> <Batch ID>
0155

> <Smiles>
CNC(C)C(=O)NC(C(=O)N1Cc2cc([101O:1][101CH2:1]c3cc(C(C)C)c(C4CC[100N:0]([100C:0](=O)N5CCCC(n6nc(-c7ccc(Oc8ccc(F)cc8F)cc7)c(C(N)=O)c6N)C5)CC4)cc3OC)ccc2CC1C(=O)NC1CCCc2ccccc21)C(C)(C)C

> <Shape>
0.308

> <Color>
0.083

> <Negative vol penalty>
0.000

$$$$

  -OEChem-04052321543D

 91100  0     1  0  0  0  0  0999 V2000
  -32.2736  -14.4416   20.8870 C   0  0  0  0  0  0  0  0  0  0  0  0
  -31.4252  -15.5407   20.7992 C   0  0  0  0  0  0  0  0  0  0  0  0
  -29.9285  -24.2509   19.2712 C   0  0  0  0  0  0  0  0  0  0  0  0
  -27.5612  -23.7981   19.4386 C   0  0  0  0  0  0  0  0  0  0  0  0
  -31.7879  -13.1639   20.6123 C   0  0  0  0  0  0  0  0  0  0  0  0
  -30.0909  -15.3628   20.4356 C   0  0  0  0  0  0  0  0  0  0  0  0
  -25.2681  -18.5513   22.4555 C   0  0  0  0  0  0  0  0  0  0  0  0
  -30.1998  -22.8922   19.4328 C   0  0  0  0  0  0  0  0  0  0  0  0
  -27.8325  -22.4394   19.6001 C   0  0  0  0  0  0  0  0  0  0  0  0
  -24.5558  -19.6197   21.9123 C   0  0  0  0  0  0  0  0  0  0  0  0
  -28.6506  -19.8138   17.6362 C   0  0  0  0  0  0  0  0  0  0  0  0
  -27.8807  -18.9094   16.9049 C   0  0  0  0  0  0  0  0  0  0  0  0
  -19.5045  -26.7753   19.6255 C   0  0  0  0  0  0  0  0  0  0  0  0
  -21.2720  -26.5259   21.2535 C   0  0  0  0  0  0  0  0  0  0  0  0
  -22.9313  -18.0753   21.0206 C   0  0  0  0  0  0  0  0  0  0  0  0
  -20.4508  -28.7270   20.6898 C   0  0  0  0  0  0  0  0  0  0  0  0
  -27.1128  -17.9004   18.9615 C   0  0  0  0  0  0  0  0  0  0  0  0
  -28.6092  -24.7038   19.2742 C   0  0  0  0  0  0  0  0  0  0  0  0
  -28.1114  -26.7933   17.8979 C   0  0  0  0  0  0  0  0  0  0  0  0
  -30.4445  -12.9691   20.2544 C   0  0  0  0  0  0  0  0  0  0  0  0
  -24.8225  -17.2339   22.2758 C   0  0  0  0  0  0  0  0  0  0  0  0
  -29.5871  -14.0814   20.1545 C   0  0  0  0  0  0  0  0  0  0  0  0
  -20.3674  -25.9585   20.3560 C   0  0  0  0  0  0  0  0  0  0  0  0
  -23.6383  -16.9922   21.5647 C   0  0  0  0  0  0  0  0  0  0  0  0
  -19.5462  -28.1596   19.7923 C   0  0  0  0  0  0  0  0  0  0  0  0
  -21.3137  -27.9101   21.4204 C   0  0  0  0  0  0  0  0  0  0  0  0
  -29.1518  -21.9865   19.5972 C   0  0  0  0  0  0  0  0  0  0  0  0
  -23.3888  -19.3816   21.1923 C   0  0  0  0  0  0  0  0  0  0  0  0
  -28.6518  -19.7615   19.0301 C   0  0  0  0  0  0  0  0  0  0  0  0
  -27.1117  -17.9527   17.5676 C   0  0  0  0  0  0  0  0  0  0  0  0
  -27.8829  -18.8048   19.6927 C   0  0  0  0  0  0  0  0  0  0  0  0
  -28.3283  -26.1072   19.1079 C   0  0  0  0  0  0  0  0  0  0  0  0
  -27.8884  -28.0946   18.2762 C   0  0  0  0  0  0  0  0  0  0  0  0
  -28.1113  -26.2984   16.5523 C   0  0  0  0  0  0  0  0  0  0  0  0
  -26.0062  -14.6367   20.8769 C   0  0  0  0  0  0  0  0  0  0  0  0
  -23.3865  -13.2235   22.1662 C   0  0  0  0  0  0  0  0  0  0  0  0
  -20.2097  -13.5582   23.3674 C   0  0  0  0  0  0  0  0  0  0  0  0
  -25.8825  -30.5822   23.3398 C   0  0  0  0  0  0  0  0  0  0  0  0
  -29.9769  -11.5746   19.9208 C   0  0  0  0  0  0  0  0  0  0  0  0
  -25.5878  -16.0945   22.8908 C   0  0  0  0  0  0  0  0  0  0  0  0
  -23.1065  -15.5980   21.3606 C   0  0  0  0  0  0  0  0  0  0  0  0
  -28.4575  -11.4286   19.9068 C   0  0  0  0  0  0  0  0  0  0  0  0
  -28.9836  -31.2340   21.7165 C   0  0  0  0  0  0  0  0  0  0  0  0
  -27.8181  -12.5755   19.1304 C   0  0  0  0  0  0  0  0  0  0  0  0
  -29.1477  -30.0559   20.7547 C   0  0  0  0  0  0  0  0  0  0  0  0
  -28.3299  -30.8049   23.0282 C   0  0  0  0  0  0  0  0  0  0  0  0
  -27.2136  -28.9105   21.9150 C   0  0  0  0  0  0  0  0  0  0  0  0
  -21.4464  -23.5794   20.8096 C   0  0  0  0  0  0  0  0  0  0  0  0
  -20.8391  -23.8379   18.8359 C   0  0  0  0  0  0  0  0  0  0  0  0
  -20.3236  -24.4371   20.1702 C   0  0  0  0  0  0  0  0  0  0  0  0
  -28.1272  -13.9262   19.7873 C   0  0  1  0  0  0  0  0  0  0  0  0
  -25.3194  -14.7569   22.2079 C   0  0  1  0  0  0  0  0  0  0  0  0
  -27.8175  -29.3046   20.5562 C   0  0  2  0  0  0  0  0  0  0  0  0
  -19.3745  -29.9969   18.0752 C   0  0  0  0  0  0  0  0  0  0  0  0
  -17.6594  -29.8267   19.9150 C   0  0  0  0  0  0  0  0  0  0  0  0
  -18.3107  -12.2190   24.3149 C   0  0  0  0  0  0  0  0  0  0  0  0
  -23.1992  -29.6189   24.9223 C   0  0  0  0  0  0  0  0  0  0  0  0
  -22.5735  -21.4589   17.9095 C   0  0  0  0  0  0  0  0  0  0  0  0
  -22.7187  -12.1976   19.3713 C   0  0  0  0  0  0  0  0  0  0  0  0
  -20.4003  -11.7091   20.1802 C   0  0  0  0  0  0  0  0  0  0  0  0
  -22.3499  -10.5396   21.2068 C   0  0  0  0  0  0  0  0  0  0  0  0
  -20.2792  -15.0505   25.9223 C   0  0  0  0  0  0  0  0  0  0  0  0
  -22.3256  -29.8937   22.5460 C   0  0  0  0  0  0  0  0  0  0  0  0
  -23.4389  -21.5775   20.2805 C   0  0  0  0  0  0  0  0  0  1  0  0
  -18.6225  -29.0327   19.0122 C   0  0  0  0  0  0  0  0  0  0  0  0
  -21.9665  -12.9871   21.7115 C   0  0  1  0  0  0  0  0  0  0  0  0
  -19.5514  -13.0389   24.6329 C   0  0  2  0  0  0  0  0  0  0  0  0
  -23.4339  -30.2345   23.5462 C   0  0  2  0  0  0  0  0  0  0  0  0
  -22.7339  -22.3206   19.1514 C   0  0  2  0  0  0  0  0  0  0  0  0
  -21.8696  -11.8846   20.6195 C   0  0  0  0  0  0  0  0  0  0  0  0
  -28.2504  -26.9067   20.1751 N   0  0  0  0  0  0  0  0  0  0  0  0
  -27.9820  -28.1085   19.6368 N   0  0  0  0  0  0  0  0  0  0  0  0
  -23.8937  -14.5167   21.9760 N   0  0  0  0  0  0  0  0  0  0  0  0
  -27.0722  -30.0995   22.7700 N   0  0  0  0  0  0  0  0  0  0  0  0
  -27.6234  -29.2170   17.5745 N   0  0  0  0  0  0  0  0  0  0  0  0
  -28.3580  -24.9348   16.3418 N   0  0  0  0  0  0  0  0  0  0  0  0
  -22.2298  -28.4837   22.3264 N   0  0  0  0  0  0  0  0  0  0  0  0
  -27.2884  -14.1267   20.9495 N   0  0  0  0  0  0  0  0  0  0  0  0
  -21.1938  -12.7042   22.9163 N   0  0  0  0  0  0  0  0  0  0  0  0
  -24.7349  -29.8585   23.0395 N   0  0  0  0  0  0  0  0  0  0  0  0
  -21.3748  -22.7166   19.6214 N   0  3  0  0  0  0  0  0  0  0  0  0
  -19.1521  -14.1738   25.5123 N   0  3  0  0  0  0  0  0  0  0  0  0
  -27.9151  -27.0463   15.5646 O   0  0  0  0  0  0  0  0  0  0  0  0
  -25.4159  -14.9797   19.8593 O   0  0  0  0  0  0  0  0  0  0  0  0
  -24.0198  -12.2969   22.6780 O   0  0  0  0  0  0  0  0  0  0  0  0
  -19.8810  -14.6138   22.8306 O   0  0  0  0  0  0  0  0  0  0  0  0
  -25.8448  -31.5868   24.0582 O   0  0  0  0  0  0  0  0  0  0  0  0
  -29.4161  -20.6607   19.7546 O   0  0  0  0  0  0  0  0  0  0  0  0
  -22.6920  -20.4225   20.6605 O   0  0  0  0  0  0  0  0  0  1  0  0
  -26.3712  -17.0852   16.8653 F   0  0  0  0  0  0  0  0  0  0  0  0
  -27.8790  -18.7505   21.0317 F   0  0  0  0  0  0  0  0  0  0  0  0
  1  2  1  0  0  0  0
  1  5  2  0  0  0  0
  2  6  2  0  0  0  0
  3  8  2  0  0  0  0
  3 18  1  0  0  0  0
  4  9  1  0  0  0  0
  4 18  2  0  0  0  0
  5 20  1  0  0  0  0
  6 22  1  0  0  0  0
  7 10  2  0  0  0  0
  7 21  1  0  0  0  0
  8 27  1  0  0  0  0
  9 27  2  0  0  0  0
 10 28  1  0  0  0  0
 11 12  2  0  0  0  0
 11 29  1  0  0  0  0
 12 30  1  0  0  0  0
 13 23  2  0  0  0  0
 13 25  1  0  0  0  0
 14 23  1  0  0  0  0
 14 26  2  0  0  0  0
 15 24  1  0  0  0  0
 15 28  2  0  0  0  0
 16 25  2  0  0  0  0
 16 26  1  0  0  0  0
 17 30  2  0  0  0  0
 17 31  1  0  0  0  0
 18 32  1  0  0  0  0
 19 32  1  0  0  0  0
 19 33  2  0  0  0  0
 19 34  1  0  0  0  0
 20 22  2  0  0  0  0
 20 39  1  0  0  0  0
 21 24  2  0  0  0  0
 21 40  1  0  0  0  0
 22 51  1  0  0  0  0
 23 50  1  0  0  0  0
 24 41  1  0  0  0  0
 25 65  1  0  0  0  0
 26 77  1  0  0  0  0
 27 88  1  0  0  0  0
 28 89  1  0  0  0  0
 29 31  2  0  0  0  0
 29 88  1  0  0  0  0
 30 90  1  0  0  0  0
 31 91  1  0  0  0  0
 32 71  2  0  0  0  0
 33 72  1  0  0  0  0
 33 75  1  0  0  0  0
 34 76  1  0  0  0  0
 34 83  2  0  0  0  0
 35 52  1  0  0  0  0
 35 78  1  0  0  0  0
 35 84  2  0  0  0  0
 36 66  1  0  0  0  0
 36 73  1  0  0  0  0
 36 85  2  0  0  0  0
 37 67  1  0  0  0  0
 37 79  1  0  0  0  0
 37 86  2  0  0  0  0
 38 74  1  0  0  0  0
 38 80  1  0  0  0  0
 38 87  2  0  0  0  0
 39 42  1  0  0  0  0
 40 52  1  0  0  0  0
 41 73  1  0  0  0  0
 42 44  1  0  0  0  0
 43 45  1  0  0  0  0
 43 46  1  0  0  0  0
 44 51  1  0  0  0  0
 45 53  1  0  0  0  0
 46 74  1  0  0  0  0
 47 53  1  0  0  0  0
 47 74  1  0  0  0  0
 48 50  1  0  0  0  0
 48 81  1  0  0  0  0
 49 50  1  0  0  0  0
 49 81  1  0  0  0  0
 51 78  1  0  0  0  0
 52 73  1  0  0  0  0
 53 72  1  0  0  0  0
 54 65  1  0  0  0  0
 55 65  1  0  0  0  0
 56 67  1  0  0  0  0
 57 68  1  0  0  0  0
 58 69  1  0  0  0  0
 59 70  1  0  0  0  0
 60 70  1  0  0  0  0
 61 70  1  0  0  0  0
 62 82  1  0  0  0  0
 63 68  1  0  0  0  0
 63 77  1  0  0  0  0
 64 69  1  0  0  0  0
 64 89  1  0  0  0  0
 66 70  1  0  0  0  0
 66 79  1  0  0  0  0
 67 82  1  0  0  0  0
 68 80  1  0  0  0  0
 69 81  1  0  0  0  0
 71 72  1  0  0  0  0
M  CHG  2  81   1  82   1
M  ISO  4  38 100  64 101  80 100  89 101
M  END
> <Batch ID>
0155

> <Smiles>
CNC(C)C(=O)NC(C(=O)N1Cc2cc([101O:1][101CH2:1]C(C)N3CC(c4cc(NCC(C)[100NH:0][100C:0](=O)N5CCCC(n6nc(-c7ccc(Oc8ccc(F)cc8F)cc7)c(C(N)=O)c6N)C5)cc(C(C)C)c4)C3)ccc2CC1C(=O)NC1CCCc2ccccc21)C(C)(C)C

> <Shape>
0.236

> <Color>
0.071

> <Negative vol penalty>
0.000

$$$$

  -OEChem-04052321543D

 95105  0     1  0  0  0  0  0999 V2000
  -34.3111   -9.4638   18.9853 C   0  0  0  0  0  0  0  0  0  0  0  0
  -33.9930  -10.7554   19.3928 C   0  0  0  0  0  0  0  0  0  0  0  0
  -23.4691  -22.2247   22.0776 C   0  0  0  0  0  0  0  0  0  0  0  0
  -21.3056  -21.2884   22.6064 C   0  0  0  0  0  0  0  0  0  0  0  0
  -33.4360   -8.7591   18.1598 C   0  0  0  0  0  0  0  0  0  0  0  0
  -32.8001  -11.3435   18.9740 C   0  0  0  0  0  0  0  0  0  0  0  0
  -29.2867  -15.2162   22.1621 C   0  0  0  0  0  0  0  0  0  0  0  0
  -24.0893  -21.1674   22.7430 C   0  0  0  0  0  0  0  0  0  0  0  0
  -21.9259  -20.2310   23.2718 C   0  0  0  0  0  0  0  0  0  0  0  0
  -29.1727  -16.6057   22.1504 C   0  0  0  0  0  0  0  0  0  0  0  0
  -24.7544  -20.2821   25.9365 C   0  0  0  0  0  0  0  0  0  0  0  0
  -25.8073  -20.5883   26.7985 C   0  0  0  0  0  0  0  0  0  0  0  0
  -27.2981  -16.4333   20.6420 C   0  0  0  0  0  0  0  0  0  0  0  0
  -26.9336  -28.5048   21.7494 C   0  0  0  0  0  0  0  0  0  0  0  0
  -27.2896  -19.2124   25.4767 C   0  0  0  0  0  0  0  0  0  0  0  0
  -22.0771  -22.2853   22.0093 C   0  0  0  0  0  0  0  0  0  0  0  0
  -21.0787  -23.4338   19.9620 C   0  0  0  0  0  0  0  0  0  0  0  0
  -32.2272   -9.3352   17.7385 C   0  0  0  0  0  0  0  0  0  0  0  0
  -28.4126  -14.4240   21.4039 C   0  0  0  0  0  0  0  0  0  0  0  0
  -31.9086  -10.6463   18.1409 C   0  0  0  0  0  0  0  0  0  0  0  0
  -27.4015  -15.0339   20.6477 C   0  0  0  0  0  0  0  0  0  0  0  0
  -26.6930  -29.6497   22.5008 C   0  0  0  0  0  0  0  0  0  0  0  0
  -23.3178  -20.1705   23.3401 C   0  0  0  0  0  0  0  0  0  0  0  0
  -28.1802  -17.2146   21.3881 C   0  0  0  0  0  0  0  0  0  0  0  0
  -24.9690  -19.4409   24.8446 C   0  0  0  0  0  0  0  0  0  0  0  0
  -28.2208  -28.2331   21.2995 C   0  0  0  0  0  0  0  0  0  0  0  0
  -27.0749  -20.0535   26.5686 C   0  0  0  0  0  0  0  0  0  0  0  0
  -26.2366  -18.9061   24.6148 C   0  0  0  0  0  0  0  0  0  0  0  0
  -21.4358  -23.3776   21.3226 C   0  0  0  0  0  0  0  0  0  0  0  0
  -27.7652  -30.4839   22.7732 C   0  0  0  0  0  0  0  0  0  0  0  0
  -29.2246  -29.1308   21.6254 C   0  0  0  0  0  0  0  0  0  0  0  0
  -20.5043  -24.6721   19.8087 C   0  0  0  0  0  0  0  0  0  0  0  0
  -21.2506  -22.4544   18.9292 C   0  0  0  0  0  0  0  0  0  0  0  0
  -28.7576  -12.3752   18.9982 C   0  0  0  0  0  0  0  0  0  0  0  0
  -25.5904  -11.8719   19.4857 C   0  0  0  0  0  0  0  0  0  0  0  0
  -22.6183  -13.0543   20.6755 C   0  0  0  0  0  0  0  0  0  0  0  0
  -21.0078  -29.8103   22.5839 C   0  0  0  0  0  0  0  0  0  0  0  0
  -31.3353   -8.5522   16.8079 C   0  0  0  0  0  0  0  0  0  0  0  0
  -28.5319  -12.9253   21.4482 C   0  0  0  0  0  0  0  0  0  0  0  0
  -26.4252  -14.2274   19.8323 C   0  0  0  0  0  0  0  0  0  0  0  0
  -29.9164   -9.1072   16.7137 C   0  0  0  0  0  0  0  0  0  0  0  0
  -18.0782  -28.0119   22.2170 C   0  0  0  0  0  0  0  0  0  0  0  0
  -29.9464  -10.6212   16.5300 C   0  0  0  0  0  0  0  0  0  0  0  0
  -18.5578  -26.6182   21.8112 C   0  0  0  0  0  0  0  0  0  0  0  0
  -24.5142  -30.8473   22.0135 C   0  0  0  0  0  0  0  0  0  0  0  0
  -24.4981  -28.6685   23.2993 C   0  0  0  0  0  0  0  0  0  0  0  0
  -29.4692  -25.0587   21.2745 C   0  0  0  0  0  0  0  0  0  0  0  0
  -27.1335  -25.1192   20.3420 C   0  0  0  0  0  0  0  0  0  0  0  0
  -18.9695  -28.6014   23.3044 C   0  0  0  0  0  0  0  0  0  0  0  0
  -23.0965  -31.1233   22.5088 C   0  0  0  0  0  0  0  0  0  0  0  0
  -23.0826  -28.9942   23.7667 C   0  0  0  0  0  0  0  0  0  0  0  0
  -20.9073  -27.2788   22.5237 C   0  0  0  0  0  0  0  0  0  0  0  0
  -29.2185  -23.6556   21.8044 C   0  0  0  0  0  0  0  0  0  0  0  0
  -26.8881  -23.7158   20.8739 C   0  0  0  0  0  0  0  0  0  0  0  0
  -25.2905  -29.9520   22.9946 C   0  0  0  0  0  0  0  0  0  0  0  0
  -30.6124  -11.3092   17.7278 C   0  0  1  0  0  0  0  0  0  0  0  0
  -27.9130  -12.2405   20.2336 C   0  0  1  0  0  0  0  0  0  0  0  0
  -20.0452  -26.6394   21.4169 C   0  0  1  0  0  0  0  0  0  0  0  0
  -28.1770  -25.8635   21.1712 C   0  0  0  0  0  0  0  0  0  0  0  0
  -27.5655  -31.7278   23.5757 C   0  0  0  0  0  0  0  0  0  0  0  0
  -30.6244  -28.8872   21.1659 C   0  0  0  0  0  0  0  0  0  0  0  0
  -20.1978  -12.4311   20.8987 C   0  0  0  0  0  0  0  0  0  0  0  0
  -25.1685  -12.4586   16.5213 C   0  0  0  0  0  0  0  0  0  0  0  0
  -22.7294  -12.7592   16.9993 C   0  0  0  0  0  0  0  0  0  0  0  0
  -23.8163  -10.5518   17.4101 C   0  0  0  0  0  0  0  0  0  0  0  0
  -22.7329  -13.2014   23.6292 C   0  0  0  0  0  0  0  0  0  0  0  0
  -27.9980  -21.5312   21.3381 C   0  0  0  0  0  0  0  0  0  0  0  0
  -29.2667  -19.3228   21.5633 C   0  0  0  0  0  0  0  0  0  1  0  0
  -24.3165  -12.4869   18.9584 C   0  0  1  0  0  0  0  0  0  0  0  0
  -21.5648  -12.4188   21.5647 C   0  0  2  0  0  0  0  0  0  0  0  0
  -29.1399  -20.6548   20.8309 C   0  0  1  0  0  0  0  0  0  0  0  0
  -24.0271  -12.0797   17.4860 C   0  0  0  0  0  0  0  0  0  0  0  0
  -21.1153  -24.4915   21.9863 N   0  0  0  0  0  0  0  0  0  0  0  0
  -29.0293  -30.2532   22.3533 N   0  0  0  0  0  0  0  0  0  0  0  0
  -20.5509  -25.2594   21.0388 N   0  0  0  0  0  0  0  0  0  0  0  0
  -26.5866  -12.7657   19.9033 N   0  0  0  0  0  0  0  0  0  0  0  0
  -20.3736  -28.5978   22.8944 N   0  0  0  0  0  0  0  0  0  0  0  0
  -22.3901  -29.8820   22.8228 N   0  0  0  0  0  0  0  0  0  0  0  0
  -19.9692  -25.3048   18.7431 N   0  0  0  0  0  0  0  0  0  0  0  0
  -21.8594  -21.2358   19.2587 N   0  0  0  0  0  0  0  0  0  0  0  0
  -29.6971  -11.3733   18.8469 N   0  0  0  0  0  0  0  0  0  0  0  0
  -23.2645  -12.1161   19.8987 N   0  0  0  0  0  0  0  0  0  0  0  0
  -28.1980  -22.9649   20.9301 N   0  3  0  0  0  0  0  0  0  0  0  0
  -21.4648  -13.1550   22.8566 N   0  3  0  0  0  0  0  0  0  0  0  0
  -20.8904  -22.6604   17.7454 O   0  0  0  0  0  0  0  0  0  0  0  0
  -28.5698  -13.3177   18.2378 O   0  0  0  0  0  0  0  0  0  0  0  0
  -25.6948  -10.6437   19.5322 O   0  0  0  0  0  0  0  0  0  0  0  0
  -22.8428  -14.2627   20.6679 O   0  0  0  0  0  0  0  0  0  0  0  0
  -20.3813  -30.7695   22.1166 O   0  0  0  0  0  0  0  0  0  0  0  0
  -28.9565  -20.3896   19.4393 O   0  0  0  0  0  0  0  0  0  0  0  0
  -23.9227  -19.1384   23.9893 O   0  0  0  0  0  0  0  0  0  0  0  0
  -28.4671  -27.1181   20.5657 O   0  0  0  0  0  0  0  0  0  0  0  0
  -28.0664  -18.5789   21.3743 O   0  0  0  0  0  0  0  0  0  1  0  0
  -28.0864  -20.3490   27.3956 F   0  0  0  0  0  0  0  0  0  0  0  0
  -26.4491  -18.0984   23.5668 F   0  0  0  0  0  0  0  0  0  0  0  0
  1  2  1  0  0  0  0
  1  5  2  0  0  0  0
  2  6  2  0  0  0  0
  3  8  2  0  0  0  0
  3 16  1  0  0  0  0
  4  9  1  0  0  0  0
  4 16  2  0  0  0  0
  5 18  1  0  0  0  0
  6 20  1  0  0  0  0
  7 10  2  0  0  0  0
  7 19  1  0  0  0  0
  8 23  1  0  0  0  0
  9 23  2  0  0  0  0
 10 24  1  0  0  0  0
 11 12  2  0  0  0  0
 11 25  1  0  0  0  0
 12 27  1  0  0  0  0
 13 21  1  0  0  0  0
 13 24  2  0  0  0  0
 14 22  2  0  0  0  0
 14 26  1  0  0  0  0
 15 27  2  0  0  0  0
 15 28  1  0  0  0  0
 16 29  1  0  0  0  0
 17 29  1  0  0  0  0
 17 32  2  0  0  0  0
 17 33  1  0  0  0  0
 18 20  2  0  0  0  0
 18 38  1  0  0  0  0
 19 21  2  0  0  0  0
 19 39  1  0  0  0  0
 20 56  1  0  0  0  0
 21 40  1  0  0  0  0
 22 30  1  0  0  0  0
 22 55  1  0  0  0  0
 23 91  1  0  0  0  0
 24 93  1  0  0  0  0
 25 28  2  0  0  0  0
 25 91  1  0  0  0  0
 26 31  2  0  0  0  0
 26 92  1  0  0  0  0
 27 94  1  0  0  0  0
 28 95  1  0  0  0  0
 29 73  2  0  0  0  0
 30 60  1  0  0  0  0
 30 74  2  0  0  0  0
 31 61  1  0  0  0  0
 31 74  1  0  0  0  0
 32 75  1  0  0  0  0
 32 79  1  0  0  0  0
 33 80  1  0  0  0  0
 33 85  2  0  0  0  0
 34 57  1  0  0  0  0
 34 81  1  0  0  0  0
 34 86  2  0  0  0  0
 35 69  1  0  0  0  0
 35 76  1  0  0  0  0
 35 87  2  0  0  0  0
 36 70  1  0  0  0  0
 36 82  1  0  0  0  0
 36 88  2  0  0  0  0
 37 77  1  0  0  0  0
 37 78  1  0  0  0  0
 37 89  2  0  0  0  0
 38 41  1  0  0  0  0
 39 57  1  0  0  0  0
 40 76  1  0  0  0  0
 41 43  1  0  0  0  0
 42 44  1  0  0  0  0
 42 49  1  0  0  0  0
 43 56  1  0  0  0  0
 44 58  1  0  0  0  0
 45 50  1  0  0  0  0
 45 55  1  0  0  0  0
 46 51  1  0  0  0  0
 46 55  1  0  0  0  0
 47 53  1  0  0  0  0
 47 59  1  0  0  0  0
 48 54  1  0  0  0  0
 48 59  1  0  0  0  0
 49 77  1  0  0  0  0
 50 78  1  0  0  0  0
 51 78  1  0  0  0  0
 52 58  1  0  0  0  0
 52 77  1  0  0  0  0
 53 83  1  0  0  0  0
 54 83  1  0  0  0  0
 56 81  1  0  0  0  0
 57 76  1  0  0  0  0
 58 75  1  0  0  0  0
 59 92  1  0  0  0  0
 62 70  1  0  0  0  0
 63 72  1  0  0  0  0
 64 72  1  0  0  0  0
 65 72  1  0  0  0  0
 66 84  1  0  0  0  0
 67 71  1  0  0  0  0
 67 83  1  0  0  0  0
 68 71  1  0  0  0  0
 68 93  1  0  0  0  0
 69 72  1  0  0  0  0
 69 82  1  0  0  0  0
 70 84  1  0  0  0  0
 71 90  1  0  0  0  0
 73 75  1  0  0  0  0
M  CHG  2  83   1  84   1
M  ISO  4  37 100  68 101  78 100  93 101
M  END
> <Batch ID>
0155

> <Smiles>
CNC(C)C(=O)NC(C(=O)N1Cc2cc([101O:1][101CH2:1]C(O)CN3CCC(Oc4cc(C5CC[100N:0]([100C:0](=O)N6CCCC(n7nc(-c8ccc(Oc9ccc(F)cc9F)cc8)c(C(N)=O)c7N)C6)CC5)c(C)nc4C)CC3)ccc2CC1C(=O)NC1CCCc2ccccc21)C(C)(C)C

> <Shape>
0.242

> <Color>
0.059

> <Negative vol penalty>
0.000

$$$$

  -OEChem-04052321543D

 93103  0     1  0  0  0  0  0999 V2000
  -20.5678  -24.3929   25.0651 C   0  0  0  0  0  0  0  0  0  0  0  0
  -21.9227  -24.5623   24.7989 C   0  0  0  0  0  0  0  0  0  0  0  0
  -22.9432  -11.1822   21.3234 C   0  0  0  0  0  0  0  0  0  0  0  0
  -23.9307   -8.9825   21.1708 C   0  0  0  0  0  0  0  0  0  0  0  0
  -19.6291  -25.2223   24.4528 C   0  0  0  0  0  0  0  0  0  0  0  0
  -22.3397  -25.5606   23.9192 C   0  0  0  0  0  0  0  0  0  0  0  0
  -27.4717  -28.8823   24.2860 C   0  0  0  0  0  0  0  0  0  0  0  0
  -21.6987  -10.6465   20.9923 C   0  0  0  0  0  0  0  0  0  0  0  0
  -22.6862   -8.4468   20.8397 C   0  0  0  0  0  0  0  0  0  0  0  0
  -28.7097  -28.7686   23.6550 C   0  0  0  0  0  0  0  0  0  0  0  0
  -19.8529   -7.5527   22.4502 C   0  0  0  0  0  0  0  0  0  0  0  0
  -19.4651   -6.3751   23.0894 C   0  0  0  0  0  0  0  0  0  0  0  0
  -30.9553  -20.7136   19.7347 C   0  0  0  0  0  0  0  0  0  0  0  0
  -30.1621  -21.5969   21.8388 C   0  0  0  0  0  0  0  0  0  0  0  0
  -28.0054  -30.3738   21.9976 C   0  0  0  0  0  0  0  0  0  0  0  0
  -19.3116   -5.2641   20.9495 C   0  0  0  0  0  0  0  0  0  0  0  0
  -24.0593  -10.3502   21.4126 C   0  0  0  0  0  0  0  0  0  0  0  0
  -25.8890  -11.0576   23.0434 C   0  0  0  0  0  0  0  0  0  0  0  0
  -20.0355  -26.2375   23.5726 C   0  0  0  0  0  0  0  0  0  0  0  0
  -26.4857  -29.7358   23.7705 C   0  0  0  0  0  0  0  0  0  0  0  0
  -21.4055  -26.4035   23.2934 C   0  0  0  0  0  0  0  0  0  0  0  0
  -30.4318  -20.5072   21.0110 C   0  0  0  0  0  0  0  0  0  0  0  0
  -26.7567  -30.4984   22.6255 C   0  0  0  0  0  0  0  0  0  0  0  0
  -30.9396  -23.0996   20.1142 C   0  0  0  0  0  0  0  0  0  0  0  0
  -31.2093  -22.0099   19.2863 C   0  0  0  0  0  0  0  0  0  0  0  0
  -21.5701   -9.2788   20.7505 C   0  0  0  0  0  0  0  0  0  0  0  0
  -28.9757  -29.5122   22.5089 C   0  0  0  0  0  0  0  0  0  0  0  0
  -19.9699   -7.5860   21.0606 C   0  0  0  0  0  0  0  0  0  0  0  0
  -30.4160  -22.8931   21.3905 C   0  0  0  0  0  0  0  0  0  0  0  0
  -19.1945   -5.2308   22.3390 C   0  0  0  0  0  0  0  0  0  0  0  0
  -19.6994   -6.4417   20.3103 C   0  0  0  0  0  0  0  0  0  0  0  0
  -25.3453  -10.9031   21.7541 C   0  0  0  0  0  0  0  0  0  0  0  0
  -27.1217  -11.6248   22.8305 C   0  0  0  0  0  0  0  0  0  0  0  0
  -25.3299  -10.7186   24.3194 C   0  0  0  0  0  0  0  0  0  0  0  0
  -23.5516  -29.3341   22.6158 C   0  0  0  0  0  0  0  0  0  0  0  0
  -23.5470  -32.5775   22.5680 C   0  0  0  0  0  0  0  0  0  0  0  0
  -25.3451  -35.4759   22.4553 C   0  0  0  0  0  0  0  0  0  0  0  0
  -30.4769  -15.1735   20.3463 C   0  0  0  0  0  0  0  0  0  0  0  0
  -18.9809  -27.0787   22.8981 C   0  0  0  0  0  0  0  0  0  0  0  0
  -25.1650  -29.8671   24.4783 C   0  0  0  0  0  0  0  0  0  0  0  0
  -25.7393  -31.4443   22.0436 C   0  0  0  0  0  0  0  0  0  0  0  0
  -19.5313  -28.3555   22.2679 C   0  0  0  0  0  0  0  0  0  0  0  0
  -29.7582  -12.2937   18.5746 C   0  0  0  0  0  0  0  0  0  0  0  0
  -20.7920  -28.0535   21.4640 C   0  0  0  0  0  0  0  0  0  0  0  0
  -28.5899  -11.6765   19.3429 C   0  0  0  0  0  0  0  0  0  0  0  0
  -29.0953  -18.3863   20.6403 C   0  0  0  0  0  0  0  0  0  0  0  0
  -31.4422  -18.2538   21.5805 C   0  0  0  0  0  0  0  0  0  0  0  0
  -29.9048  -25.3038   19.6064 C   0  0  0  0  0  0  0  0  0  0  0  0
  -32.2475  -25.1710   20.5448 C   0  0  0  0  0  0  0  0  0  0  0  0
  -29.6063  -13.8071   18.4739 C   0  0  0  0  0  0  0  0  0  0  0  0
  -28.8465  -16.9529   21.1184 C   0  0  0  0  0  0  0  0  0  0  0  0
  -31.1306  -16.8384   22.0579 C   0  0  0  0  0  0  0  0  0  0  0  0
  -28.3063  -13.8827   20.5768 C   0  0  0  0  0  0  0  0  0  0  0  0
  -30.1582  -26.7511   19.2045 C   0  0  0  0  0  0  0  0  0  0  0  0
  -32.4831  -26.6193   20.1354 C   0  0  0  0  0  0  0  0  0  0  0  0
  -30.1569  -19.0972   21.4988 C   0  0  0  0  0  0  0  0  0  0  0  0
  -31.2091  -24.4914   19.6382 C   0  0  0  0  0  0  0  0  0  0  0  0
  -21.8988  -27.4913   22.3642 C   0  0  1  0  0  0  0  0  0  0  0  0
  -24.0500  -30.3803   23.5722 C   0  0  1  0  0  0  0  0  0  0  0  0
  -28.4127  -12.3504   20.7150 C   0  0  1  0  0  0  0  0  0  0  0  0
  -31.7713  -22.2042   17.9161 C   0  0  0  0  0  0  0  0  0  0  0  0
  -25.0620  -37.9685   22.3900 C   0  0  0  0  0  0  0  0  0  0  0  0
  -22.7569  -32.4083   19.6257 C   0  0  0  0  0  0  0  0  0  0  0  0
  -23.4116  -34.8127   19.3836 C   0  0  0  0  0  0  0  0  0  0  0  0
  -21.5588  -34.1758   20.9277 C   0  0  0  0  0  0  0  0  0  0  0  0
  -26.8044  -35.8249   25.0063 C   0  0  0  0  0  0  0  0  0  0  0  0
  -29.6119  -23.6413   23.4998 C   0  0  0  0  0  0  0  0  0  0  0  0
  -31.3621  -28.8301   19.8702 C   0  0  0  0  0  0  0  0  0  0  0  0
  -30.2126  -29.6080   20.4799 C   0  0  0  0  0  0  0  0  0  1  0  0
  -23.9445  -33.6325   21.5640 C   0  0  1  0  0  0  0  0  0  0  0  0
  -25.2565  -36.7490   23.2775 C   0  0  2  0  0  0  0  0  0  0  0  0
  -22.9366  -33.7381   20.3848 C   0  0  0  0  0  0  0  0  0  0  0  0
  -26.1653  -11.3373   20.7933 N   0  0  0  0  0  0  0  0  0  0  0  0
  -27.2367  -11.7703   21.4793 N   0  0  0  0  0  0  0  0  0  0  0  0
  -24.4607  -31.5330   22.7680 N   0  0  0  0  0  0  0  0  0  0  0  0
  -29.4369  -14.4090   19.7963 N   0  0  0  0  0  0  0  0  0  0  0  0
  -30.1114  -16.2115   21.2166 N   0  0  0  0  0  0  0  0  0  0  0  0
  -28.1075  -12.0084   23.6692 N   0  0  0  0  0  0  0  0  0  0  0  0
  -24.0525  -10.1433   24.3575 N   0  0  0  0  0  0  0  0  0  0  0  0
  -22.5265  -28.5554   23.1180 N   0  0  0  0  0  0  0  0  0  0  0  0
  -24.1142  -34.8700   22.3177 N   0  0  0  0  0  0  0  0  0  0  0  0
  -31.1695  -27.3637   20.1435 N   0  3  0  0  0  0  0  0  0  0  0  0
  -26.5026  -36.9400   24.0723 N   0  3  0  0  0  0  0  0  0  0  0  0
  -25.9381  -10.9350   25.3949 O   0  0  0  0  0  0  0  0  0  0  0  0
  -24.0585  -29.2412   21.5040 O   0  0  0  0  0  0  0  0  0  0  0  0
  -22.4688  -32.6803   23.1584 O   0  0  0  0  0  0  0  0  0  0  0  0
  -26.4002  -35.0626   21.9792 O   0  0  0  0  0  0  0  0  0  0  0  0
  -31.6622  -14.9424   20.0768 O   0  0  0  0  0  0  0  0  0  0  0  0
  -20.3558   -8.7556   20.4276 O   0  0  0  0  0  0  0  0  0  0  0  0
  -30.1453  -23.9453   22.2126 O   0  0  0  0  0  0  0  0  0  0  0  0
  -30.1917  -29.4019   21.8862 O   0  0  0  0  0  0  0  0  0  1  0  0
  -18.8237   -4.0996   22.9531 F   0  0  0  0  0  0  0  0  0  0  0  0
  -19.8113   -6.4673   18.9751 F   0  0  0  0  0  0  0  0  0  0  0  0
  1  2  1  0  0  0  0
  1  5  2  0  0  0  0
  2  6  2  0  0  0  0
  3  8  2  0  0  0  0
  3 17  1  0  0  0  0
  4  9  1  0  0  0  0
  4 17  2  0  0  0  0
  5 19  1  0  0  0  0
  6 21  1  0  0  0  0
  7 10  2  0  0  0  0
  7 20  1  0  0  0  0
  8 26  1  0  0  0  0
  9 26  2  0  0  0  0
 10 27  1  0  0  0  0
 11 12  2  0  0  0  0
 11 28  1  0  0  0  0
 12 30  1  0  0  0  0
 13 22  1  0  0  0  0
 13 25  2  0  0  0  0
 14 22  2  0  0  0  0
 14 29  1  0  0  0  0
 15 23  1  0  0  0  0
 15 27  2  0  0  0  0
 16 30  2  0  0  0  0
 16 31  1  0  0  0  0
 17 32  1  0  0  0  0
 18 32  1  0  0  0  0
 18 33  2  0  0  0  0
 18 34  1  0  0  0  0
 19 21  2  0  0  0  0
 19 39  1  0  0  0  0
 20 23  2  0  0  0  0
 20 40  1  0  0  0  0
 21 58  1  0  0  0  0
 22 56  1  0  0  0  0
 23 41  1  0  0  0  0
 24 25  1  0  0  0  0
 24 29  2  0  0  0  0
 24 57  1  0  0  0  0
 25 61  1  0  0  0  0
 26 89  1  0  0  0  0
 27 91  1  0  0  0  0
 28 31  2  0  0  0  0
 28 89  1  0  0  0  0
 29 90  1  0  0  0  0
 30 92  1  0  0  0  0
 31 93  1  0  0  0  0
 32 73  2  0  0  0  0
 33 74  1  0  0  0  0
 33 78  1  0  0  0  0
 34 79  1  0  0  0  0
 34 84  2  0  0  0  0
 35 59  1  0  0  0  0
 35 80  1  0  0  0  0
 35 85  2  0  0  0  0
 36 70  1  0  0  0  0
 36 75  1  0  0  0  0
 36 86  2  0  0  0  0
 37 71  1  0  0  0  0
 37 81  1  0  0  0  0
 37 87  2  0  0  0  0
 38 76  1  0  0  0  0
 38 77  1  0  0  0  0
 38 88  2  0  0  0  0
 39 42  1  0  0  0  0
 40 59  1  0  0  0  0
 41 75  1  0  0  0  0
 42 44  1  0  0  0  0
 43 45  1  0  0  0  0
 43 50  1  0  0  0  0
 44 58  1  0  0  0  0
 45 60  1  0  0  0  0
 46 51  1  0  0  0  0
 46 56  1  0  0  0  0
 47 52  1  0  0  0  0
 47 56  1  0  0  0  0
 48 54  1  0  0  0  0
 48 57  1  0  0  0  0
 49 55  1  0  0  0  0
 49 57  1  0  0  0  0
 50 76  1  0  0  0  0
 51 77  1  0  0  0  0
 52 77  1  0  0  0  0
 53 60  1  0  0  0  0
 53 76  1  0  0  0  0
 54 82  1  0  0  0  0
 55 82  1  0  0  0  0
 58 80  1  0  0  0  0
 59 75  1  0  0  0  0
 60 74  1  0  0  0  0
 62 71  1  0  0  0  0
 63 72  1  0  0  0  0
 64 72  1  0  0  0  0
 65 72  1  0  0  0  0
 66 83  1  0  0  0  0
 67 90  1  0  0  0  0
 68 69  1  0  0  0  0
 68 82  1  0  0  0  0
 69 91  1  0  0  0  0
 70 72  1  0  0  0  0
 70 81  1  0  0  0  0
 71 83  1  0  0  0  0
 73 74  1  0  0  0  0
M  CHG  2  82   1  83   1
M  ISO  4  38 100  69 101  77 100  91 101
M  END
> <Batch ID>
0155

> <Smiles>
CNC(C)C(=O)NC(C(=O)N1Cc2cc([101O:1][101CH2:1]CN3CCC(c4c(C)cc(C5CC[100N:0]([100C:0](=O)N6CCCC(n7nc(-c8ccc(Oc9ccc(F)cc9F)cc8)c(C(N)=O)c7N)C6)CC5)cc4OC)CC3)ccc2CC1C(=O)NC1CCCc2ccccc21)C(C)(C)C

> <Shape>
0.300

> <Color>
0.120

> <Negative vol penalty>
0.000

$$$$

  -OEChem-04052321543D

 93103  0     1  0  0  0  0  0999 V2000
  -16.5383  -29.0651   23.0379 C   0  0  0  0  0  0  0  0  0  0  0  0
  -17.6128  -29.0725   22.1543 C   0  0  0  0  0  0  0  0  0  0  0  0
  -24.8132   -8.5542   22.0800 C   0  0  0  0  0  0  0  0  0  0  0  0
  -23.1646  -10.2338   21.5339 C   0  0  0  0  0  0  0  0  0  0  0  0
  -16.6628  -29.6655   24.2901 C   0  0  0  0  0  0  0  0  0  0  0  0
  -18.8122  -29.6813   22.5221 C   0  0  0  0  0  0  0  0  0  0  0  0
  -24.9706  -25.9474   22.6793 C   0  0  0  0  0  0  0  0  0  0  0  0
  -23.8670   -7.5535   21.8588 C   0  0  0  0  0  0  0  0  0  0  0  0
  -22.2184   -9.2331   21.3126 C   0  0  0  0  0  0  0  0  0  0  0  0
  -26.2243  -25.3540   22.5308 C   0  0  0  0  0  0  0  0  0  0  0  0
  -21.2624   -6.1784   23.5170 C   0  0  0  0  0  0  0  0  0  0  0  0
  -21.1808   -5.1466   24.4520 C   0  0  0  0  0  0  0  0  0  0  0  0
  -27.2850  -27.3621   23.3618 C   0  0  0  0  0  0  0  0  0  0  0  0
  -28.4932  -22.9265   16.9644 C   0  0  0  0  0  0  0  0  0  0  0  0
  -29.6828  -25.0233   16.8053 C   0  0  0  0  0  0  0  0  0  0  0  0
  -21.7039   -3.5401   22.7249 C   0  0  0  0  0  0  0  0  0  0  0  0
  -24.4620   -9.8944   21.9176 C   0  0  0  0  0  0  0  0  0  0  0  0
  -26.1330  -11.1926   23.3424 C   0  0  0  0  0  0  0  0  0  0  0  0
  -17.8675  -30.2735   24.6771 C   0  0  0  0  0  0  0  0  0  0  0  0
  -24.8683  -27.2464   23.1849 C   0  0  0  0  0  0  0  0  0  0  0  0
  -18.9526  -30.2916   23.7801 C   0  0  0  0  0  0  0  0  0  0  0  0
  -26.0312  -27.9571   23.5246 C   0  0  0  0  0  0  0  0  0  0  0  0
  -29.9003  -23.6584   18.7869 C   0  0  0  0  0  0  0  0  0  0  0  0
  -28.8172  -24.0804   16.2509 C   0  0  0  0  0  0  0  0  0  0  0  0
  -22.5696   -7.8929   21.4751 C   0  0  0  0  0  0  0  0  0  0  0  0
  -27.3787  -26.0597   22.8709 C   0  0  0  0  0  0  0  0  0  0  0  0
  -21.5647   -5.8911   22.1859 C   0  0  0  0  0  0  0  0  0  0  0  0
  -29.0347  -22.7155   18.2325 C   0  0  0  0  0  0  0  0  0  0  0  0
  -30.2244  -24.8123   18.0733 C   0  0  0  0  0  0  0  0  0  0  0  0
  -21.4016   -3.8275   24.0560 C   0  0  0  0  0  0  0  0  0  0  0  0
  -21.7855   -4.5720   21.7899 C   0  0  0  0  0  0  0  0  0  0  0  0
  -25.4388  -10.9286   22.1465 C   0  0  0  0  0  0  0  0  0  0  0  0
  -26.9366  -12.2654   23.0432 C   0  0  0  0  0  0  0  0  0  0  0  0
  -26.0581  -10.5274   24.6103 C   0  0  0  0  0  0  0  0  0  0  0  0
  -22.6196  -30.0797   24.1809 C   0  0  0  0  0  0  0  0  0  0  0  0
  -24.8448  -29.9254   26.2869 C   0  0  0  0  0  0  0  0  0  0  0  0
  -26.7185  -30.0589   29.1345 C   0  0  0  0  0  0  0  0  0  0  0  0
  -27.8595  -17.0921   20.8835 C   0  0  0  0  0  0  0  0  0  0  0  0
  -17.9392  -30.9510   26.0227 C   0  0  0  0  0  0  0  0  0  0  0  0
  -23.5423  -27.9475   23.3039 C   0  0  0  0  0  0  0  0  0  0  0  0
  -25.8749  -29.3646   24.0320 C   0  0  0  0  0  0  0  0  0  0  0  0
  -19.3651  -31.2466   26.4806 C   0  0  0  0  0  0  0  0  0  0  0  0
  -28.0553  -14.4213   18.6140 C   0  0  0  0  0  0  0  0  0  0  0  0
  -20.1703  -31.8747   25.3474 C   0  0  0  0  0  0  0  0  0  0  0  0
  -27.4429  -13.2836   19.4308 C   0  0  0  0  0  0  0  0  0  0  0  0
  -30.0319  -19.5659   19.1780 C   0  0  0  0  0  0  0  0  0  0  0  0
  -27.7746  -19.5228   18.0325 C   0  0  0  0  0  0  0  0  0  0  0  0
  -27.3047  -15.7390   18.8144 C   0  0  0  0  0  0  0  0  0  0  0  0
  -29.3802  -18.9805   20.4299 C   0  0  0  0  0  0  0  0  0  0  0  0
  -27.1744  -18.9423   19.3109 C   0  0  0  0  0  0  0  0  0  0  0  0
  -26.5447  -14.9993   21.0487 C   0  0  0  0  0  0  0  0  0  0  0  0
  -32.0179  -23.3550   20.1590 C   0  0  0  0  0  0  0  0  0  0  0  0
  -31.1794  -24.2059   22.2954 C   0  0  0  0  0  0  0  0  0  0  0  0
  -30.4878  -23.4300   20.1601 C   0  0  1  0  0  0  0  0  0  0  0  0
  -20.2779  -30.9202   24.1521 C   0  0  1  0  0  0  0  0  0  0  0  0
  -23.4632  -28.8864   24.5211 C   0  0  1  0  0  0  0  0  0  0  0  0
  -30.1799  -24.5237   21.1929 C   0  0  1  0  0  0  0  0  0  0  0  0
  -27.3131  -13.6755   20.9135 C   0  0  1  0  0  0  0  0  0  0  0  0
  -29.0421  -20.3354   18.3027 C   0  0  0  0  0  0  0  0  0  0  0  0
  -28.2382  -24.3059   14.8951 C   0  0  0  0  0  0  0  0  0  0  0  0
  -27.4535  -31.6434   30.9363 C   0  0  0  0  0  0  0  0  0  0  0  0
  -26.8408  -31.1883   24.3569 C   0  0  0  0  0  0  0  0  0  0  0  0
  -28.1292  -32.0113   26.3396 C   0  0  0  0  0  0  0  0  0  0  0  0
  -25.7886  -32.7886   25.9652 C   0  0  0  0  0  0  0  0  0  0  0  0
  -33.3503  -22.9279   22.2704 C   0  0  0  0  0  0  0  0  0  0  0  0
  -25.4128  -28.4471   31.2455 C   0  0  0  0  0  0  0  0  0  0  0  0
  -31.3433  -26.8928   17.7990 C   0  0  0  0  0  0  0  0  0  0  0  0
  -28.7433  -24.5046   21.6955 C   0  0  0  0  0  0  0  0  0  1  0  0
  -26.1983  -30.4156   26.7352 C   0  0  1  0  0  0  0  0  0  0  0  0
  -26.4161  -30.6145   30.5144 C   0  0  2  0  0  0  0  0  0  0  0  0
  -26.7337  -31.5732   25.8460 C   0  0  0  0  0  0  0  0  0  0  0  0
  -25.7721  -11.7663   21.1611 N   0  0  0  0  0  0  0  0  0  0  0  0
  -26.6845  -12.5673   21.7372 N   0  0  0  0  0  0  0  0  0  0  0  0
  -24.7509  -29.4355   24.9786 N   0  0  0  0  0  0  0  0  0  0  0  0
  -27.1717  -16.0499   20.2440 N   0  0  0  0  0  0  0  0  0  0  0  0
  -28.1766  -18.2167   20.1028 N   0  0  0  0  0  0  0  0  0  0  0  0
  -27.8272  -12.9707   23.7725 N   0  0  0  0  0  0  0  0  0  0  0  0
  -25.1805   -9.4430   24.7451 N   0  0  0  0  0  0  0  0  0  0  0  0
  -21.2691  -29.8976   24.4096 N   0  0  0  0  0  0  0  0  0  0  0  0
  -26.0609  -30.7603   28.1461 N   0  0  0  0  0  0  0  0  0  0  0  0
  -32.4360  -23.8520   21.5324 N   0  3  1  0  0  0  0  0  0  0  0  0
  -26.4045  -29.5178   31.5234 N   0  3  0  0  0  0  0  0  0  0  0  0
  -26.7370  -10.8944   25.5992 O   0  0  0  0  0  0  0  0  0  0  0  0
  -23.1537  -31.0925   23.7444 O   0  0  0  0  0  0  0  0  0  0  0  0
  -23.8935  -29.9795   27.0715 O   0  0  0  0  0  0  0  0  0  0  0  0
  -27.4663  -29.1009   28.9514 O   0  0  0  0  0  0  0  0  0  0  0  0
  -28.1754  -17.0233   22.0778 O   0  0  0  0  0  0  0  0  0  0  0  0
  -21.6461   -6.9167   21.2589 O   0  0  0  0  0  0  0  0  0  0  0  0
  -28.7058  -21.5765   18.9191 O   0  0  0  0  0  0  0  0  0  0  0  0
  -31.0680  -25.7445   18.5986 O   0  0  0  0  0  0  0  0  0  0  0  0
  -28.6097  -25.4678   22.7264 O   0  0  0  0  0  0  0  0  0  1  0  0
  -21.3247   -2.8369   24.9543 F   0  0  0  0  0  0  0  0  0  0  0  0
  -22.0774   -4.2899   20.5128 F   0  0  0  0  0  0  0  0  0  0  0  0
  1  2  1  0  0  0  0
  1  5  2  0  0  0  0
  2  6  2  0  0  0  0
  3  8  2  0  0  0  0
  3 17  1  0  0  0  0
  4  9  1  0  0  0  0
  4 17  2  0  0  0  0
  5 19  1  0  0  0  0
  6 21  1  0  0  0  0
  7 10  2  0  0  0  0
  7 20  1  0  0  0  0
  8 25  1  0  0  0  0
  9 25  2  0  0  0  0
 10 26  1  0  0  0  0
 11 12  2  0  0  0  0
 11 27  1  0  0  0  0
 12 30  1  0  0  0  0
 13 22  1  0  0  0  0
 13 26  2  0  0  0  0
 14 24  2  0  0  0  0
 14 28  1  0  0  0  0
 15 24  1  0  0  0  0
 15 29  2  0  0  0  0
 16 30  2  0  0  0  0
 16 31  1  0  0  0  0
 17 32  1  0  0  0  0
 18 32  1  0  0  0  0
 18 33  2  0  0  0  0
 18 34  1  0  0  0  0
 19 21  2  0  0  0  0
 19 39  1  0  0  0  0
 20 22  2  0  0  0  0
 20 40  1  0  0  0  0
 21 55  1  0  0  0  0
 22 41  1  0  0  0  0
 23 28  2  0  0  0  0
 23 29  1  0  0  0  0
 23 54  1  0  0  0  0
 24 60  1  0  0  0  0
 25 88  1  0  0  0  0
 26 91  1  0  0  0  0
 27 31  2  0  0  0  0
 27 88  1  0  0  0  0
 28 89  1  0  0  0  0
 29 90  1  0  0  0  0
 30 92  1  0  0  0  0
 31 93  1  0  0  0  0
 32 72  2  0  0  0  0
 33 73  1  0  0  0  0
 33 77  1  0  0  0  0
 34 78  1  0  0  0  0
 34 83  2  0  0  0  0
 35 56  1  0  0  0  0
 35 79  1  0  0  0  0
 35 84  2  0  0  0  0
 36 69  1  0  0  0  0
 36 74  1  0  0  0  0
 36 85  2  0  0  0  0
 37 70  1  0  0  0  0
 37 80  1  0  0  0  0
 37 86  2  0  0  0  0
 38 75  1  0  0  0  0
 38 76  1  0  0  0  0
 38 87  2  0  0  0  0
 39 42  1  0  0  0  0
 40 56  1  0  0  0  0
 41 74  1  0  0  0  0
 42 44  1  0  0  0  0
 43 45  1  0  0  0  0
 43 48  1  0  0  0  0
 44 55  1  0  0  0  0
 45 58  1  0  0  0  0
 46 49  1  0  0  0  0
 46 59  1  0  0  0  0
 47 50  1  0  0  0  0
 47 59  1  0  0  0  0
 48 75  1  0  0  0  0
 49 76  1  0  0  0  0
 50 76  1  0  0  0  0
 51 58  1  0  0  0  0
 51 75  1  0  0  0  0
 52 54  1  0  0  0  0
 52 81  1  0  0  0  0
 53 57  1  0  0  0  0
 53 81  1  0  0  0  0
 54 57  1  0  0  0  0
 55 79  1  0  0  0  0
 56 74  1  0  0  0  0
 57 68  1  0  0  0  0
 58 73  1  0  0  0  0
 59 89  1  0  0  0  0
 61 70  1  0  0  0  0
 62 71  1  0  0  0  0
 63 71  1  0  0  0  0
 64 71  1  0  0  0  0
 65 81  1  0  0  0  0
 66 82  1  0  0  0  0
 67 90  1  0  0  0  0
 68 91  1  0  0  0  0
 69 71  1  0  0  0  0
 69 80  1  0  0  0  0
 70 82  1  0  0  0  0
 72 73  1  0  0  0  0
M  CHG  2  81   1  82   1
M  ISO  4  38 100  68 101  76 100  91 101
M  END
> <Batch ID>
0155

> <Smiles>
CNC(C)C(=O)NC(C(=O)N1Cc2cc([101O:1][101CH2:1]C3CN(C)CC3c3c(OC)cc(C)cc3OC3CC[100N:0]([100C:0](=O)N4CCCC(n5nc(-c6ccc(Oc7ccc(F)cc7F)cc6)c(C(N)=O)c5N)C4)CC3)ccc2CC1C(=O)NC1CCCc2ccccc21)C(C)(C)C

> <Shape>
0.279

> <Color>
0.102

> <Negative vol penalty>
0.000

$$$$

  -OEChem-04052321543D

 92102  0     1  0  0  0  0  0999 V2000
  -32.4181  -34.0158   20.6025 C   0  0  0  0  0  0  0  0  0  0  0  0
  -31.4885  -33.6697   19.6270 C   0  0  0  0  0  0  0  0  0  0  0  0
  -24.3817   -9.1021   21.3934 C   0  0  0  0  0  0  0  0  0  0  0  0
  -24.5998  -10.5087   23.3455 C   0  0  0  0  0  0  0  0  0  0  0  0
  -32.5085  -33.2663   21.7747 C   0  0  0  0  0  0  0  0  0  0  0  0
  -30.6496  -32.5732   19.8227 C   0  0  0  0  0  0  0  0  0  0  0  0
  -24.0393  -30.2617   18.3138 C   0  0  0  0  0  0  0  0  0  0  0  0
  -24.1477   -7.9990   22.2143 C   0  0  0  0  0  0  0  0  0  0  0  0
  -24.3657   -9.4056   24.1665 C   0  0  0  0  0  0  0  0  0  0  0  0
  -23.3826  -29.1653   17.7566 C   0  0  0  0  0  0  0  0  0  0  0  0
  -21.5691   -6.7130   23.9835 C   0  0  0  0  0  0  0  0  0  0  0  0
  -20.5228   -5.8578   23.6376 C   0  0  0  0  0  0  0  0  0  0  0  0
  -26.5782  -20.3060   20.4223 C   0  0  0  0  0  0  0  0  0  0  0  0
  -25.6059  -19.9106   22.5983 C   0  0  0  0  0  0  0  0  0  0  0  0
  -23.5744  -27.9915   19.8554 C   0  0  0  0  0  0  0  0  0  0  0  0
  -22.0854   -4.0257   23.4407 C   0  0  0  0  0  0  0  0  0  0  0  0
  -24.6078  -10.3570   21.9590 C   0  0  0  0  0  0  0  0  0  0  0  0
  -23.8917  -12.3812   20.5815 C   0  0  0  0  0  0  0  0  0  0  0  0
  -31.6637  -32.1659   21.9891 C   0  0  0  0  0  0  0  0  0  0  0  0
  -24.4788  -30.2271   19.6450 C   0  0  0  0  0  0  0  0  0  0  0  0
  -30.7298  -31.8074   20.9983 C   0  0  0  0  0  0  0  0  0  0  0  0
  -25.6089  -20.5948   21.3828 C   0  0  0  0  0  0  0  0  0  0  0  0
  -24.2340  -29.0898   20.4279 C   0  0  0  0  0  0  0  0  0  0  0  0
  -27.5415  -18.6487   21.8928 C   0  0  0  0  0  0  0  0  0  0  0  0
  -27.5445  -19.3328   20.6772 C   0  0  0  0  0  0  0  0  0  0  0  0
  -26.5722  -18.9375   22.8533 C   0  0  0  0  0  0  0  0  0  0  0  0
  -24.1397   -8.1507   23.6009 C   0  0  0  0  0  0  0  0  0  0  0  0
  -23.1527  -28.0289   18.5265 C   0  0  0  0  0  0  0  0  0  0  0  0
  -22.8735   -6.2245   24.0579 C   0  0  0  0  0  0  0  0  0  0  0  0
  -20.7809   -4.5142   23.3662 C   0  0  0  0  0  0  0  0  0  0  0  0
  -23.1317   -4.8809   23.7866 C   0  0  0  0  0  0  0  0  0  0  0  0
  -24.8502  -11.4968   21.1115 C   0  0  0  0  0  0  0  0  0  0  0  0
  -24.6245  -13.2838   19.8503 C   0  0  0  0  0  0  0  0  0  0  0  0
  -22.4663  -12.3864   20.7364 C   0  0  0  0  0  0  0  0  0  0  0  0
  -27.3102  -30.4099   21.0778 C   0  0  0  0  0  0  0  0  0  0  0  0
  -25.5081  -30.4324   23.7749 C   0  0  0  0  0  0  0  0  0  0  0  0
  -22.5612  -29.6289   25.2970 C   0  0  0  0  0  0  0  0  0  0  0  0
  -30.4497  -14.8550   20.3968 C   0  0  0  0  0  0  0  0  0  0  0  0
  -31.8309  -31.3574   23.2513 C   0  0  0  0  0  0  0  0  0  0  0  0
  -25.1618  -31.4282   20.2391 C   0  0  0  0  0  0  0  0  0  0  0  0
  -24.6678  -29.0101   21.8680 C   0  0  0  0  0  0  0  0  0  0  0  0
  -30.6497  -30.4362   23.5454 C   0  0  0  0  0  0  0  0  0  0  0  0
  -28.7115  -13.6861   17.3788 C   0  0  0  0  0  0  0  0  0  0  0  0
  -30.2393  -29.6763   22.2880 C   0  0  0  0  0  0  0  0  0  0  0  0
  -27.4581  -13.0253   17.9583 C   0  0  0  0  0  0  0  0  0  0  0  0
  -30.0578  -18.0390   22.1048 C   0  0  0  0  0  0  0  0  0  0  0  0
  -25.2400  -23.0035   20.8835 C   0  0  0  0  0  0  0  0  0  0  0  0
  -23.7284  -21.2398   19.8879 C   0  0  0  0  0  0  0  0  0  0  0  0
  -29.8984  -13.6064   18.3372 C   0  0  0  0  0  0  0  0  0  0  0  0
  -30.8174  -16.7275   21.9850 C   0  0  0  0  0  0  0  0  0  0  0  0
  -28.5788  -16.4109   21.1862 C   0  0  0  0  0  0  0  0  0  0  0  0
  -28.3798  -13.4258   20.2682 C   0  0  0  0  0  0  0  0  0  0  0  0
  -24.2166  -24.0718   20.5203 C   0  0  0  0  0  0  0  0  0  0  0  0
  -22.7164  -22.3216   19.5326 C   0  0  0  0  0  0  0  0  0  0  0  0
  -24.5753  -21.6347   21.1099 C   0  0  0  0  0  0  0  0  0  0  0  0
  -28.5903  -17.5934   22.1693 C   0  0  2  0  0  0  0  0  0  0  0  0
  -29.7854  -30.6398   21.1847 C   0  0  1  0  0  0  0  0  0  0  0  0
  -26.0222  -31.0873   21.4519 C   0  0  1  0  0  0  0  0  0  0  0  0
  -27.1447  -13.5631   19.3683 C   0  0  2  0  0  0  0  0  0  0  0  0
  -28.5722  -19.0432   19.6324 C   0  0  0  0  0  0  0  0  0  0  0  0
  -26.5473  -18.2191   24.1630 C   0  0  0  0  0  0  0  0  0  0  0  0
  -21.3969  -29.7383   27.5174 C   0  0  0  0  0  0  0  0  0  0  0  0
  -23.4308  -25.2764   16.5147 C   0  0  0  0  0  0  0  0  0  0  0  0
  -27.1967  -28.0951   24.7728 C   0  0  0  0  0  0  0  0  0  0  0  0
  -25.4341  -27.6469   26.4934 C   0  0  0  0  0  0  0  0  0  0  0  0
  -26.6669  -29.8155   26.5089 C   0  0  0  0  0  0  0  0  0  0  0  0
  -20.3992  -31.3328   24.2101 C   0  0  0  0  0  0  0  0  0  0  0  0
  -22.4992  -24.7028   18.8271 C   0  0  0  0  0  0  0  0  0  0  0  0
  -24.9558  -29.3754   24.7005 C   0  0  1  0  0  0  0  0  0  0  0  0
  -21.6343  -30.4367   26.1875 C   0  0  2  0  0  0  0  0  0  0  0  0
  -23.2295  -25.7210   17.9575 C   0  0  2  0  0  0  0  0  0  1  0  0
  -26.0568  -28.7337   25.5912 C   0  0  0  0  0  0  0  0  0  0  0  0
  -26.0968  -11.8091   20.7477 N   0  0  0  0  0  0  0  0  0  0  0  0
  -25.9267  -12.8999   19.9814 N   0  0  0  0  0  0  0  0  0  0  0  0
  -25.3374  -30.2078   22.4015 N   0  0  0  0  0  0  0  0  0  0  0  0
  -29.5287  -14.1032   19.6610 N   0  0  0  0  0  0  0  0  0  0  0  0
  -29.9330  -15.8523   21.2277 N   0  0  0  0  0  0  0  0  0  0  0  0
  -24.2757  -14.3605   19.1144 N   0  0  0  0  0  0  0  0  0  0  0  0
  -21.8759  -11.3869   21.5217 N   0  0  0  0  0  0  0  0  0  0  0  0
  -28.4424  -31.1112   21.4464 N   0  0  0  0  0  0  0  0  0  0  0  0
  -23.8771  -30.0115   25.4490 N   0  0  0  0  0  0  0  0  0  0  0  0
  -23.4372  -23.6288   19.3055 N   0  3  0  0  0  0  0  0  0  0  0  0
  -20.3172  -30.6355   25.5193 N   0  3  0  0  0  0  0  0  0  0  0  0
  -21.7363  -13.2422   20.1812 O   0  0  0  0  0  0  0  0  0  0  0  0
  -27.2792  -29.3302   20.4991 O   0  0  0  0  0  0  0  0  0  0  0  0
  -26.0639  -31.4243   24.2531 O   0  0  0  0  0  0  0  0  0  0  0  0
  -22.1585  -28.7443   24.5448 O   0  0  0  0  0  0  0  0  0  0  0  0
  -31.6681  -14.6782   20.2733 O   0  0  0  0  0  0  0  0  0  0  0  0
  -23.9111   -7.0746   24.4022 O   0  0  0  0  0  0  0  0  0  0  0  0
  -22.5089  -26.9508   17.9818 O   0  0  0  0  0  0  0  0  0  1  0  0
  -19.7759   -3.6928   23.0355 F   0  0  0  0  0  0  0  0  0  0  0  0
  -24.3826   -4.4055   23.8576 F   0  0  0  0  0  0  0  0  0  0  0  0
  1  2  1  0  0  0  0
  1  5  2  0  0  0  0
  2  6  2  0  0  0  0
  3  8  2  0  0  0  0
  3 17  1  0  0  0  0
  4  9  1  0  0  0  0
  4 17  2  0  0  0  0
  5 19  1  0  0  0  0
  6 21  1  0  0  0  0
  7 10  2  0  0  0  0
  7 20  1  0  0  0  0
  8 27  1  0  0  0  0
  9 27  2  0  0  0  0
 10 28  1  0  0  0  0
 11 12  2  0  0  0  0
 11 29  1  0  0  0  0
 12 30  1  0  0  0  0
 13 22  1  0  0  0  0
 13 25  2  0  0  0  0
 14 22  2  0  0  0  0
 14 26  1  0  0  0  0
 15 23  1  0  0  0  0
 15 28  2  0  0  0  0
 16 30  2  0  0  0  0
 16 31  1  0  0  0  0
 17 32  1  0  0  0  0
 18 32  1  0  0  0  0
 18 33  2  0  0  0  0
 18 34  1  0  0  0  0
 19 21  2  0  0  0  0
 19 39  1  0  0  0  0
 20 23  2  0  0  0  0
 20 40  1  0  0  0  0
 21 57  1  0  0  0  0
 22 55  1  0  0  0  0
 23 41  1  0  0  0  0
 24 25  1  0  0  0  0
 24 26  2  0  0  0  0
 24 56  1  0  0  0  0
 25 60  1  0  0  0  0
 26 61  1  0  0  0  0
 27 89  1  0  0  0  0
 28 90  1  0  0  0  0
 29 31  2  0  0  0  0
 29 89  1  0  0  0  0
 30 91  1  0  0  0  0
 31 92  1  0  0  0  0
 32 73  2  0  0  0  0
 33 74  1  0  0  0  0
 33 78  1  0  0  0  0
 34 79  1  0  0  0  0
 34 84  2  0  0  0  0
 35 58  1  0  0  0  0
 35 80  1  0  0  0  0
 35 85  2  0  0  0  0
 36 69  1  0  0  0  0
 36 75  1  0  0  0  0
 36 86  2  0  0  0  0
 37 70  1  0  0  0  0
 37 81  1  0  0  0  0
 37 87  2  0  0  0  0
 38 76  1  0  0  0  0
 38 77  1  0  0  0  0
 38 88  2  0  0  0  0
 39 42  1  0  0  0  0
 40 58  1  0  0  0  0
 41 75  1  0  0  0  0
 42 44  1  0  0  0  0
 43 45  1  0  0  0  0
 43 49  1  0  0  0  0
 44 57  1  0  0  0  0
 45 59  1  0  0  0  0
 46 50  1  0  0  0  0
 46 56  1  0  0  0  0
 47 53  1  0  0  0  0
 47 55  1  0  0  0  0
 48 54  1  0  0  0  0
 48 55  1  0  0  0  0
 49 76  1  0  0  0  0
 50 77  1  0  0  0  0
 51 56  1  0  0  0  0
 51 77  1  0  0  0  0
 52 59  1  0  0  0  0
 52 76  1  0  0  0  0
 53 82  1  0  0  0  0
 54 82  1  0  0  0  0
 57 80  1  0  0  0  0
 58 75  1  0  0  0  0
 59 74  1  0  0  0  0
 62 70  1  0  0  0  0
 63 71  1  0  0  0  0
 64 72  1  0  0  0  0
 65 72  1  0  0  0  0
 66 72  1  0  0  0  0
 67 83  1  0  0  0  0
 68 71  1  0  0  0  0
 68 82  1  0  0  0  0
 69 72  1  0  0  0  0
 69 81  1  0  0  0  0
 70 83  1  0  0  0  0
 71 90  1  0  0  0  0
 73 74  1  0  0  0  0
M  CHG  2  82   1  83   1
M  ISO  4  38 100  71 101  77 100  90 101
M  END
> <Batch ID>
0155

> <Smiles>
CNC(C)C(=O)NC(C(=O)N1Cc2cc([101O:1][101CH:1](C)CN3CCC(c4cc(C)c(C5CC[100N:0]([100C:0](=O)N6CCCC(n7nc(-c8ccc(Oc9ccc(F)cc9F)cc8)c(C(N)=O)c7N)C6)C5)c(C)c4)CC3)ccc2CC1C(=O)NC1CCCc2ccccc21)C(C)(C)C

> <Shape>
0.244

> <Color>
0.099

> <Negative vol penalty>
0.000

$$$$

  -OEChem-04052321543D

 90100  0     1  0  0  0  0  0999 V2000
  -31.8704  -14.8307   20.5247 C   0  0  0  0  0  0  0  0  0  0  0  0
  -30.7804  -15.5192   21.0474 C   0  0  0  0  0  0  0  0  0  0  0  0
  -21.9851  -28.1973   20.4928 C   0  0  0  0  0  0  0  0  0  0  0  0
  -22.2722  -29.6009   22.4382 C   0  0  0  0  0  0  0  0  0  0  0  0
  -31.6679  -13.6706   19.7783 C   0  0  0  0  0  0  0  0  0  0  0  0
  -29.4871  -15.0485   20.8232 C   0  0  0  0  0  0  0  0  0  0  0  0
  -26.5930  -19.4654   22.1617 C   0  0  0  0  0  0  0  0  0  0  0  0
  -26.6353  -15.1356   25.0070 C   0  0  0  0  0  0  0  0  0  0  0  0
  -20.7745  -27.7325   21.0068 C   0  0  0  0  0  0  0  0  0  0  0  0
  -21.0616  -29.1362   22.9521 C   0  0  0  0  0  0  0  0  0  0  0  0
  -27.8282  -19.2507   21.5504 C   0  0  0  0  0  0  0  0  0  0  0  0
  -26.1117  -16.3681   25.3951 C   0  0  0  0  0  0  0  0  0  0  0  0
  -17.7670  -29.7128   22.4688 C   0  0  0  0  0  0  0  0  0  0  0  0
  -16.8878  -30.6542   23.0038 C   0  0  0  0  0  0  0  0  0  0  0  0
  -26.7273  -21.8134   21.6086 C   0  0  0  0  0  0  0  0  0  0  0  0
  -23.9925  -15.7715   24.4090 C   0  0  0  0  0  0  0  0  0  0  0  0
  -16.9907  -29.5349   25.1424 C   0  0  0  0  0  0  0  0  0  0  0  0
  -22.7340  -29.1315   21.2085 C   0  0  0  0  0  0  0  0  0  0  0  0
  -24.1819  -30.7280   19.8440 C   0  0  0  0  0  0  0  0  0  0  0  0
  -26.0425  -20.7467   22.1908 C   0  0  0  0  0  0  0  0  0  0  0  0
  -30.3721  -13.1801   19.5530 C   0  0  0  0  0  0  0  0  0  0  0  0
  -25.8434  -14.2146   24.3062 C   0  0  0  0  0  0  0  0  0  0  0  0
  -29.2670  -13.8814   20.0720 C   0  0  0  0  0  0  0  0  0  0  0  0
  -24.5077  -14.5270   24.0154 C   0  0  0  0  0  0  0  0  0  0  0  0
  -20.3128  -28.2020   22.2364 C   0  0  0  0  0  0  0  0  0  0  0  0
  -24.7910  -16.6873   25.0936 C   0  0  0  0  0  0  0  0  0  0  0  0
  -28.5130  -20.3173   20.9681 C   0  0  0  0  0  0  0  0  0  0  0  0
  -18.2580  -28.6823   23.2705 C   0  0  0  0  0  0  0  0  0  0  0  0
  -27.9626  -21.5987   20.9973 C   0  0  0  0  0  0  0  0  0  0  0  0
  -16.4996  -30.5653   24.3406 C   0  0  0  0  0  0  0  0  0  0  0  0
  -17.8699  -28.5934   24.6074 C   0  0  0  0  0  0  0  0  0  0  0  0
  -23.9848  -29.6115   20.6784 C   0  0  0  0  0  0  0  0  0  0  0  0
  -25.5374  -30.7572   19.6239 C   0  0  0  0  0  0  0  0  0  0  0  0
  -23.2253  -31.6559   19.3151 C   0  0  0  0  0  0  0  0  0  0  0  0
  -25.9871  -12.8613   21.4337 C   0  0  0  0  0  0  0  0  0  0  0  0
  -23.4565  -11.1591   22.5387 C   0  0  0  0  0  0  0  0  0  0  0  0
  -20.8225  -10.9563   24.6990 C   0  0  0  0  0  0  0  0  0  0  0  0
  -29.7605  -26.5217   19.7963 C   0  0  0  0  0  0  0  0  0  0  0  0
  -30.2003  -11.9481   18.7001 C   0  0  0  0  0  0  0  0  0  0  0  0
  -26.4151  -12.8787   23.9181 C   0  0  0  0  0  0  0  0  0  0  0  0
  -23.6097  -13.5649   23.2829 C   0  0  0  0  0  0  0  0  0  0  0  0
  -28.8197  -11.3088   18.8245 C   0  0  0  0  0  0  0  0  0  0  0  0
  -29.6946  -29.5449   21.6195 C   0  0  0  0  0  0  0  0  0  0  0  0
  -27.7291  -12.3712   18.7305 C   0  0  0  0  0  0  0  0  0  0  0  0
  -28.2404  -30.0014   21.5410 C   0  0  0  0  0  0  0  0  0  0  0  0
  -28.8161  -23.3584   18.1198 C   0  0  0  0  0  0  0  0  0  0  0  0
  -24.6128  -22.0256   23.9244 C   0  0  0  0  0  0  0  0  0  0  0  0
  -29.7791  -28.0304   21.7515 C   0  0  0  0  0  0  0  0  0  0  0  0
  -29.8007  -24.4873   18.3891 C   0  0  0  0  0  0  0  0  0  0  0  0
  -27.6503  -27.7454   20.5121 C   0  0  0  0  0  0  0  0  0  0  0  0
  -27.8402  -24.8182   19.7392 C   0  0  0  0  0  0  0  0  0  0  0  0
  -24.7233  -20.9762   22.8444 C   0  0  2  0  0  0  0  0  0  0  0  0
  -27.8503  -13.3887   19.8713 C   0  0  1  0  0  0  0  0  0  0  0  0
  -25.6714  -12.2248   22.7576 C   0  0  1  0  0  0  0  0  0  0  0  0
  -24.5424  -20.5726   24.2892 C   0  0  2  0  0  0  0  0  0  0  0  0
  -27.5058  -29.2774   20.4019 C   0  0  1  0  0  0  0  0  0  0  0  0
  -27.9573  -23.3419   19.3797 C   0  0  2  0  0  0  0  0  0  0  0  0
  -18.9116   -9.4616   25.3408 C   0  0  0  0  0  0  0  0  0  0  0  0
  -21.9390  -12.0300   20.0390 C   0  0  0  0  0  0  0  0  0  0  0  0
  -19.8166  -11.3323   21.1691 C   0  0  0  0  0  0  0  0  0  0  0  0
  -21.5882   -9.6418   20.6933 C   0  0  0  0  0  0  0  0  0  0  0  0
  -21.8404  -10.6466   27.4607 C   0  0  0  0  0  0  0  0  0  0  0  0
  -30.8779  -20.2158   21.1978 C   0  0  0  0  0  0  0  0  0  0  0  0
  -23.2549  -18.4479   24.6503 C   0  0  0  0  0  0  0  0  0  1  0  0
  -21.9581  -11.3421   22.5274 C   0  0  1  0  0  0  0  0  0  0  0  0
  -20.3576   -9.8418   25.6189 C   0  0  2  0  0  0  0  0  0  0  0  0
  -23.2535  -19.9756   24.7393 C   0  0  1  0  0  0  0  0  0  0  0  0
  -21.3427  -11.1057   21.1193 C   0  0  0  0  0  0  0  0  0  0  0  0
  -25.1239  -28.9772   20.9686 N   0  0  0  0  0  0  0  0  0  0  0  0
  -26.0497  -29.6975   20.3128 N   0  0  0  0  0  0  0  0  0  0  0  0
  -24.2169  -12.2740   22.9191 N   0  0  0  0  0  0  0  0  0  0  0  0
  -29.0550  -27.3500   20.6762 N   0  0  0  0  0  0  0  0  0  0  0  0
  -29.0982  -25.4117   19.2724 N   0  0  0  0  0  0  0  0  0  0  0  0
  -26.3290  -31.5857   18.9102 N   0  0  0  0  0  0  0  0  0  0  0  0
  -21.8735  -31.4801   19.6405 N   0  0  0  0  0  0  0  0  0  0  0  0
  -27.3281  -12.8334   21.1015 N   0  0  0  0  0  0  0  0  0  0  0  0
  -21.4316  -10.4621   23.5651 N   0  0  0  0  0  0  0  0  0  0  0  0
  -20.4663  -10.2664   27.0432 N   0  3  0  0  0  0  0  0  0  0  0  0
  -23.5575  -32.6029   18.5625 O   0  0  0  0  0  0  0  0  0  0  0  0
  -25.0809  -13.3409   20.7625 O   0  0  0  0  0  0  0  0  0  0  0  0
  -23.9345  -10.0650   22.2284 O   0  0  0  0  0  0  0  0  0  0  0  0
  -20.6581  -12.1463   24.9586 O   0  0  0  0  0  0  0  0  0  0  0  0
  -30.9484  -26.7394   19.5221 O   0  0  0  0  0  0  0  0  0  0  0  0
  -23.0202  -20.3531   26.0968 O   0  0  0  0  0  0  0  0  0  0  0  0
  -19.1314  -27.7489   22.7381 O   0  0  0  0  0  0  0  0  0  0  0  0
  -28.6260  -22.6548   20.4298 O   0  0  0  0  0  0  0  0  0  0  0  0
  -29.7191  -20.0953   20.3751 O   0  0  0  0  0  0  0  0  0  0  0  0
  -24.2737  -17.8990   25.4736 O   0  0  0  0  0  0  0  0  0  1  0  0
  -15.6565  -31.4703   24.8547 F   0  0  0  0  0  0  0  0  0  0  0  0
  -18.3392  -27.6064   25.3828 F   0  0  0  0  0  0  0  0  0  0  0  0
  1  2  1  0  0  0  0
  1  5  2  0  0  0  0
  2  6  2  0  0  0  0
  3  9  2  0  0  0  0
  3 18  1  0  0  0  0
  4 10  1  0  0  0  0
  4 18  2  0  0  0  0
  5 21  1  0  0  0  0
  6 23  1  0  0  0  0
  7 11  2  0  0  0  0
  7 20  1  0  0  0  0
  8 12  2  0  0  0  0
  8 22  1  0  0  0  0
  9 25  1  0  0  0  0
 10 25  2  0  0  0  0
 11 27  1  0  0  0  0
 12 26  1  0  0  0  0
 13 14  2  0  0  0  0
 13 28  1  0  0  0  0
 14 30  1  0  0  0  0
 15 20  2  0  0  0  0
 15 29  1  0  0  0  0
 16 24  1  0  0  0  0
 16 26  2  0  0  0  0
 17 30  2  0  0  0  0
 17 31  1  0  0  0  0
 18 32  1  0  0  0  0
 19 32  1  0  0  0  0
 19 33  2  0  0  0  0
 19 34  1  0  0  0  0
 20 52  1  0  0  0  0
 21 23  2  0  0  0  0
 21 39  1  0  0  0  0
 22 24  2  0  0  0  0
 22 40  1  0  0  0  0
 23 53  1  0  0  0  0
 24 41  1  0  0  0  0
 25 85  1  0  0  0  0
 26 88  1  0  0  0  0
 27 29  2  0  0  0  0
 27 87  1  0  0  0  0
 28 31  2  0  0  0  0
 28 85  1  0  0  0  0
 29 86  1  0  0  0  0
 30 89  1  0  0  0  0
 31 90  1  0  0  0  0
 32 69  2  0  0  0  0
 33 70  1  0  0  0  0
 33 74  1  0  0  0  0
 34 75  1  0  0  0  0
 34 79  2  0  0  0  0
 35 54  1  0  0  0  0
 35 76  1  0  0  0  0
 35 80  2  0  0  0  0
 36 65  1  0  0  0  0
 36 71  1  0  0  0  0
 36 81  2  0  0  0  0
 37 66  1  0  0  0  0
 37 77  1  0  0  0  0
 37 82  2  0  0  0  0
 38 72  1  0  0  0  0
 38 73  1  0  0  0  0
 38 83  2  0  0  0  0
 39 42  1  0  0  0  0
 40 54  1  0  0  0  0
 41 71  1  0  0  0  0
 42 44  1  0  0  0  0
 43 45  1  0  0  0  0
 43 48  1  0  0  0  0
 44 53  1  0  0  0  0
 45 56  1  0  0  0  0
 46 49  1  0  0  0  0
 46 57  1  0  0  0  0
 47 52  1  0  0  0  0
 47 55  1  0  0  0  0
 48 72  1  0  0  0  0
 49 73  1  0  0  0  0
 50 56  1  0  0  0  0
 50 72  1  0  0  0  0
 51 57  1  0  0  0  0
 51 73  1  0  0  0  0
 52 55  1  0  0  0  0
 53 76  1  0  0  0  0
 54 71  1  0  0  0  0
 55 67  1  0  0  0  0
 56 70  1  0  0  0  0
 57 86  1  0  0  0  0
 58 66  1  0  0  0  0
 59 68  1  0  0  0  0
 60 68  1  0  0  0  0
 61 68  1  0  0  0  0
 62 78  1  0  0  0  0
 63 87  1  0  0  0  0
 64 67  1  0  0  0  0
 64 88  1  0  0  0  0
 65 68  1  0  0  0  0
 65 77  1  0  0  0  0
 66 78  1  0  0  0  0
 67 84  1  0  0  0  0
 69 70  1  0  0  0  0
M  CHG  1  78   1
M  ISO  4  38 100  64 101  73 100  88 101
M  END
> <Batch ID>
0155

> <Smiles>
CNC(C)C(=O)NC(C(=O)N1Cc2cc([101O:1][101CH2:1]C(O)C3CC3c3ccc(OC)c(OC4CC[100N:0]([100C:0](=O)N5CCCC(n6nc(-c7ccc(Oc8ccc(F)cc8F)cc7)c(C(N)=O)c6N)C5)C4)c3)ccc2CC1C(=O)NC1CCCc2ccccc21)C(C)(C)C

> <Shape>
0.283

> <Color>
0.056

> <Negative vol penalty>
0.000

$$$$

  -OEChem-04052321543D

 89 99  0     1  0  0  0  0  0999 V2000
  -29.0246  -36.3530   24.9200 C   0  0  0  0  0  0  0  0  0  0  0  0
  -29.2738  -35.0721   24.4379 C   0  0  0  0  0  0  0  0  0  0  0  0
  -27.0769   -6.9841   22.0581 C   0  0  0  0  0  0  0  0  0  0  0  0
  -25.1938   -7.2647   20.5708 C   0  0  0  0  0  0  0  0  0  0  0  0
  -27.7457  -36.6956   25.3570 C   0  0  0  0  0  0  0  0  0  0  0  0
  -28.2444  -34.1325   24.3936 C   0  0  0  0  0  0  0  0  0  0  0  0
  -27.4224  -29.7684   20.1764 C   0  0  0  0  0  0  0  0  0  0  0  0
  -28.5563  -23.5995   18.9062 C   0  0  0  0  0  0  0  0  0  0  0  0
  -26.3997   -5.9616   22.7226 C   0  0  0  0  0  0  0  0  0  0  0  0
  -24.5166   -6.2421   21.2353 C   0  0  0  0  0  0  0  0  0  0  0  0
  -27.7330  -28.4093   20.1602 C   0  0  0  0  0  0  0  0  0  0  0  0
  -28.6853  -22.2106   18.9066 C   0  0  0  0  0  0  0  0  0  0  0  0
  -22.7681   -5.8662   24.1045 C   0  0  0  0  0  0  0  0  0  0  0  0
  -21.4274   -6.0785   24.4253 C   0  0  0  0  0  0  0  0  0  0  0  0
  -28.6291  -23.6070   21.3211 C   0  0  0  0  0  0  0  0  0  0  0  0
  -25.4856  -27.8935   20.8689 C   0  0  0  0  0  0  0  0  0  0  0  0
  -20.8045   -4.1640   23.0898 C   0  0  0  0  0  0  0  0  0  0  0  0
  -26.4739   -7.6357   20.9822 C   0  0  0  0  0  0  0  0  0  0  0  0
  -28.4074   -8.5998   19.6259 C   0  0  0  0  0  0  0  0  0  0  0  0
  -26.6978  -35.7627   25.3089 C   0  0  0  0  0  0  0  0  0  0  0  0
  -26.1422  -30.2015   20.5502 C   0  0  0  0  0  0  0  0  0  0  0  0
  -26.9506  -34.4625   24.8316 C   0  0  0  0  0  0  0  0  0  0  0  0
  -28.7580  -22.2181   21.3215 C   0  0  0  0  0  0  0  0  0  0  0  0
  -25.1606  -29.2585   20.8866 C   0  0  0  0  0  0  0  0  0  0  0  0
  -28.5283  -24.2977   20.1134 C   0  0  0  0  0  0  0  0  0  0  0  0
  -25.1196   -5.5906   22.3112 C   0  0  0  0  0  0  0  0  0  0  0  0
  -26.7654  -27.4718   20.5092 C   0  0  0  0  0  0  0  0  0  0  0  0
  -28.7861  -21.5199   20.1142 C   0  0  0  0  0  0  0  0  0  0  0  0
  -23.1270   -4.8027   23.2762 C   0  0  0  0  0  0  0  0  0  0  0  0
  -20.4456   -5.2274   23.9180 C   0  0  0  0  0  0  0  0  0  0  0  0
  -22.1453   -3.9516   22.7689 C   0  0  0  0  0  0  0  0  0  0  0  0
  -27.1727   -8.6923   20.2957 C   0  0  0  0  0  0  0  0  0  0  0  0
  -28.6339   -9.8670   19.1469 C   0  0  0  0  0  0  0  0  0  0  0  0
  -29.2722   -7.4695   19.4522 C   0  0  0  0  0  0  0  0  0  0  0  0
  -24.9810  -32.0112   22.8912 C   0  0  0  0  0  0  0  0  0  0  0  0
  -22.1982  -31.6479   21.2646 C   0  0  0  0  0  0  0  0  0  0  0  0
  -20.3417  -29.8020   19.0753 C   0  0  0  0  0  0  0  0  0  0  0  0
  -28.7579  -15.2111   19.6346 C   0  0  0  0  0  0  0  0  0  0  0  0
  -25.3433  -36.1648   25.8365 C   0  0  0  0  0  0  0  0  0  0  0  0
  -25.8152  -31.6696   20.5368 C   0  0  0  0  0  0  0  0  0  0  0  0
  -23.7652  -29.6706   21.2757 C   0  0  0  0  0  0  0  0  0  0  0  0
  -24.2190  -35.2258   25.4067 C   0  0  0  0  0  0  0  0  0  0  0  0
  -25.5928  -13.8918   18.8839 C   0  0  0  0  0  0  0  0  0  0  0  0
  -24.6333  -33.7712   25.6048 C   0  0  0  0  0  0  0  0  0  0  0  0
  -25.8191  -12.4006   19.1317 C   0  0  0  0  0  0  0  0  0  0  0  0
  -28.3791  -18.6421   18.2809 C   0  0  0  0  0  0  0  0  0  0  0  0
  -27.1909  -18.5003   20.5119 C   0  0  0  0  0  0  0  0  0  0  0  0
  -27.7256  -21.6803   23.6415 C   0  0  0  0  0  0  0  0  0  0  0  0
  -26.2833  -14.7591   19.9378 C   0  0  0  0  0  0  0  0  0  0  0  0
  -29.2289  -17.4383   18.6849 C   0  0  0  0  0  0  0  0  0  0  0  0
  -28.0699  -17.3030   20.8661 C   0  0  0  0  0  0  0  0  0  0  0  0
  -27.9519  -12.9806   20.3495 C   0  0  0  0  0  0  0  0  0  0  0  0
  -28.2883  -21.1160   24.9299 C   0  0  0  0  0  0  0  0  0  0  0  0
  -30.0805  -21.8990   23.4769 C   0  0  0  0  0  0  0  0  0  0  0  0
  -28.8675  -21.4850   22.6410 C   0  0  2  0  0  0  0  0  0  0  0  0
  -25.8541  -33.4231   24.7446 C   0  0  1  0  0  0  0  0  0  0  0  0
  -24.6311  -32.0262   21.4301 C   0  0  1  0  0  0  0  0  0  0  0  0
  -27.3189  -12.0852   19.2729 C   0  0  1  0  0  0  0  0  0  0  0  0
  -27.8511  -19.4222   19.4854 C   0  0  0  0  0  0  0  0  0  0  0  0
  -18.0905  -29.7369   17.9684 C   0  0  0  0  0  0  0  0  0  0  0  0
  -20.9478  -30.6705   23.8706 C   0  0  0  0  0  0  0  0  0  0  0  0
  -19.0469  -29.7444   22.5299 C   0  0  0  0  0  0  0  0  0  0  0  0
  -19.4952  -32.1983   22.5252 C   0  0  0  0  0  0  0  0  0  0  0  0
  -21.5356  -29.9915   16.3739 C   0  0  0  0  0  0  0  0  0  0  0  0
  -28.3918  -25.7827   20.1123 C   0  0  0  0  0  0  0  0  0  1  0  0
  -21.0666  -30.6490   21.2915 C   0  0  1  0  0  0  0  0  0  0  0  0
  -19.5341  -30.2010   17.8534 C   0  0  2  0  0  0  0  0  0  0  0  0
  -20.1659  -30.8076   22.5489 C   0  0  0  0  0  0  0  0  0  0  0  0
  -26.6513   -9.9212   20.2487 N   0  0  0  0  0  0  0  0  0  0  0  0
  -27.5630  -10.6125   19.5438 N   0  0  0  0  0  0  0  0  0  0  0  0
  -23.4961  -31.1179   21.2535 N   0  0  0  0  0  0  0  0  0  0  0  0
  -27.7008  -14.3948   20.0642 N   0  0  0  0  0  0  0  0  0  0  0  0
  -28.5415  -16.5992   19.6658 N   0  0  0  0  0  0  0  0  0  0  0  0
  -29.6428  -10.4052   18.4293 N   0  0  0  0  0  0  0  0  0  0  0  0
  -29.0876   -6.6535   18.3278 N   0  0  0  0  0  0  0  0  0  0  0  0
  -25.4598  -33.2168   23.3675 N   0  0  0  0  0  0  0  0  0  0  0  0
  -20.3577  -30.8010   20.0256 N   0  0  0  0  0  0  0  0  0  0  0  0
  -29.7428  -21.4686   24.8755 N   0  3  0  0  0  0  0  0  0  0  0  0
  -20.1243  -29.6006   16.6238 N   0  3  0  0  0  0  0  0  0  0  0  0
  -30.1712   -7.1820   20.2785 O   0  0  0  0  0  0  0  0  0  0  0  0
  -24.8267  -30.9824   23.5389 O   0  0  0  0  0  0  0  0  0  0  0  0
  -21.9398  -32.8540   21.2466 O   0  0  0  0  0  0  0  0  0  0  0  0
  -20.8992  -28.7115   19.1783 O   0  0  0  0  0  0  0  0  0  0  0  0
  -29.8293  -14.7318   19.2432 O   0  0  0  0  0  0  0  0  0  0  0  0
  -24.4586   -4.5927   22.9592 O   0  0  0  0  0  0  0  0  0  0  0  0
  -28.9106  -20.1556   20.0960 O   0  0  0  0  0  0  0  0  0  0  0  0
  -27.0681  -26.1355   20.4948 O   0  0  0  0  0  0  0  0  0  1  0  0
  -19.1583   -5.4306   24.2275 F   0  0  0  0  0  0  0  0  0  0  0  0
  -22.4841   -2.9276   21.9737 F   0  0  0  0  0  0  0  0  0  0  0  0
  1  2  1  0  0  0  0
  1  5  2  0  0  0  0
  2  6  2  0  0  0  0
  3  9  2  0  0  0  0
  3 18  1  0  0  0  0
  4 10  1  0  0  0  0
  4 18  2  0  0  0  0
  5 20  1  0  0  0  0
  6 22  1  0  0  0  0
  7 11  2  0  0  0  0
  7 21  1  0  0  0  0
  8 12  2  0  0  0  0
  8 25  1  0  0  0  0
  9 26  1  0  0  0  0
 10 26  2  0  0  0  0
 11 27  1  0  0  0  0
 12 28  1  0  0  0  0
 13 14  2  0  0  0  0
 13 29  1  0  0  0  0
 14 30  1  0  0  0  0
 15 23  1  0  0  0  0
 15 25  2  0  0  0  0
 16 24  1  0  0  0  0
 16 27  2  0  0  0  0
 17 30  2  0  0  0  0
 17 31  1  0  0  0  0
 18 32  1  0  0  0  0
 19 32  1  0  0  0  0
 19 33  2  0  0  0  0
 19 34  1  0  0  0  0
 20 22  2  0  0  0  0
 20 39  1  0  0  0  0
 21 24  2  0  0  0  0
 21 40  1  0  0  0  0
 22 56  1  0  0  0  0
 23 28  2  0  0  0  0
 23 55  1  0  0  0  0
 24 41  1  0  0  0  0
 25 65  1  0  0  0  0
 26 85  1  0  0  0  0
 27 87  1  0  0  0  0
 28 86  1  0  0  0  0
 29 31  2  0  0  0  0
 29 85  1  0  0  0  0
 30 88  1  0  0  0  0
 31 89  1  0  0  0  0
 32 69  2  0  0  0  0
 33 70  1  0  0  0  0
 33 74  1  0  0  0  0
 34 75  1  0  0  0  0
 34 80  2  0  0  0  0
 35 57  1  0  0  0  0
 35 76  1  0  0  0  0
 35 81  2  0  0  0  0
 36 66  1  0  0  0  0
 36 71  1  0  0  0  0
 36 82  2  0  0  0  0
 37 67  1  0  0  0  0
 37 77  1  0  0  0  0
 37 83  2  0  0  0  0
 38 72  1  0  0  0  0
 38 73  1  0  0  0  0
 38 84  2  0  0  0  0
 39 42  1  0  0  0  0
 40 57  1  0  0  0  0
 41 71  1  0  0  0  0
 42 44  1  0  0  0  0
 43 45  1  0  0  0  0
 43 49  1  0  0  0  0
 44 56  1  0  0  0  0
 45 58  1  0  0  0  0
 46 50  1  0  0  0  0
 46 59  1  0  0  0  0
 47 51  1  0  0  0  0
 47 59  1  0  0  0  0
 48 53  1  0  0  0  0
 48 55  1  0  0  0  0
 49 72  1  0  0  0  0
 50 73  1  0  0  0  0
 51 73  1  0  0  0  0
 52 58  1  0  0  0  0
 52 72  1  0  0  0  0
 53 78  1  0  0  0  0
 54 55  1  0  0  0  0
 54 78  1  0  0  0  0
 56 76  1  0  0  0  0
 57 71  1  0  0  0  0
 58 70  1  0  0  0  0
 59 86  1  0  0  0  0
 60 67  1  0  0  0  0
 61 68  1  0  0  0  0
 62 68  1  0  0  0  0
 63 68  1  0  0  0  0
 64 79  1  0  0  0  0
 65 87  1  0  0  0  0
 66 68  1  0  0  0  0
 66 77  1  0  0  0  0
 67 79  1  0  0  0  0
 69 70  1  0  0  0  0
M  CHG  2  78   1  79   1
M  ISO  4  38 100  65 101  73 100  87 101
M  END
> <Batch ID>
0155

> <Smiles>
CNC(C)C(=O)NC(C(=O)N1Cc2cc([101O:1][101CH2:1]c3ccc(OC4CC[100N:0]([100C:0](=O)N5CCCC(n6nc(-c7ccc(Oc8ccc(F)cc8F)cc7)c(C(N)=O)c6N)C5)CC4)c(C4CCNC4)c3)ccc2CC1C(=O)NC1CCCc2ccccc21)C(C)(C)C

> <Shape>
0.263

> <Color>
0.063

> <Negative vol penalty>
0.000

$$$$

  -OEChem-04052321543D

 94104  0     1  0  0  0  0  0999 V2000
  -24.5029  -33.0695   19.6951 C   0  0  0  0  0  0  0  0  0  0  0  0
  -24.7420  -32.7218   18.3694 C   0  0  0  0  0  0  0  0  0  0  0  0
  -23.2579   -9.9226   19.8260 C   0  0  0  0  0  0  0  0  0  0  0  0
  -23.7678   -9.8761   22.1871 C   0  0  0  0  0  0  0  0  0  0  0  0
  -25.4490  -32.7705   20.6745 C   0  0  0  0  0  0  0  0  0  0  0  0
  -25.9281  -32.0759   18.0223 C   0  0  0  0  0  0  0  0  0  0  0  0
  -34.4341  -19.1249   12.1463 C   0  0  0  0  0  0  0  0  0  0  0  0
  -28.5095  -27.2442   13.4062 C   0  0  0  0  0  0  0  0  0  0  0  0
  -34.7052  -18.1416   13.0977 C   0  0  0  0  0  0  0  0  0  0  0  0
  -22.5223   -8.7453   19.9616 C   0  0  0  0  0  0  0  0  0  0  0  0
  -23.0321   -8.6988   22.3228 C   0  0  0  0  0  0  0  0  0  0  0  0
  -29.5363  -27.0838   12.4769 C   0  0  0  0  0  0  0  0  0  0  0  0
  -19.7802   -7.8080   22.5513 C   0  0  0  0  0  0  0  0  0  0  0  0
  -18.9037   -7.7142   23.6323 C   0  0  0  0  0  0  0  0  0  0  0  0
  -33.9222  -20.6923   13.9121 C   0  0  0  0  0  0  0  0  0  0  0  0
  -31.0632  -26.5469   14.2656 C   0  0  0  0  0  0  0  0  0  0  0  0
  -20.1099   -5.7842   24.4429 C   0  0  0  0  0  0  0  0  0  0  0  0
  -23.8807  -10.4880   20.9387 C   0  0  0  0  0  0  0  0  0  0  0  0
  -24.1667  -13.0229   20.9278 C   0  0  0  0  0  0  0  0  0  0  0  0
  -34.0426  -20.4003   12.5535 C   0  0  0  0  0  0  0  0  0  0  0  0
  -26.6430  -32.1120   20.3407 C   0  0  0  0  0  0  0  0  0  0  0  0
  -28.7548  -27.0676   14.7756 C   0  0  0  0  0  0  0  0  0  0  0  0
  -26.8917  -31.7691   18.9980 C   0  0  0  0  0  0  0  0  0  0  0  0
  -30.0372  -26.7031   15.2100 C   0  0  0  0  0  0  0  0  0  0  0  0
  -34.5848  -18.4336   14.4563 C   0  0  0  0  0  0  0  0  0  0  0  0
  -22.4093   -8.1334   21.2100 C   0  0  0  0  0  0  0  0  0  0  0  0
  -30.8140  -26.7379   12.9067 C   0  0  0  0  0  0  0  0  0  0  0  0
  -20.8215   -6.8898   22.4161 C   0  0  0  0  0  0  0  0  0  0  0  0
  -34.1933  -19.7090   14.8636 C   0  0  0  0  0  0  0  0  0  0  0  0
  -19.0685   -6.7024   24.5781 C   0  0  0  0  0  0  0  0  0  0  0  0
  -20.9864   -5.8780   23.3619 C   0  0  0  0  0  0  0  0  0  0  0  0
  -24.6413  -11.7038   20.7992 C   0  0  0  0  0  0  0  0  0  0  0  0
  -25.2712  -13.8084   20.7057 C   0  0  0  0  0  0  0  0  0  0  0  0
  -22.8455  -13.4958   21.2220 C   0  0  0  0  0  0  0  0  0  0  0  0
  -28.5871  -28.9334   17.3435 C   0  0  0  0  0  0  0  0  0  0  0  0
  -29.2408  -26.1707   18.9129 C   0  0  0  0  0  0  0  0  0  0  0  0
  -30.5849  -23.0352   18.8217 C   0  0  0  0  0  0  0  0  0  0  0  0
  -29.7107  -15.1623   18.0092 C   0  0  0  0  0  0  0  0  0  0  0  0
  -27.6568  -31.8522   21.4267 C   0  0  0  0  0  0  0  0  0  0  0  0
  -27.6301  -27.2181   15.7629 C   0  0  0  0  0  0  0  0  0  0  0  0
  -30.3478  -26.4820   16.6671 C   0  0  0  0  0  0  0  0  0  0  0  0
  -28.7216  -30.8311   21.0343 C   0  0  0  0  0  0  0  0  0  0  0  0
  -30.1663  -12.6067   20.3721 C   0  0  0  0  0  0  0  0  0  0  0  0
  -29.2642  -31.1342   19.6413 C   0  0  0  0  0  0  0  0  0  0  0  0
  -28.7202  -12.2441   20.7095 C   0  0  0  0  0  0  0  0  0  0  0  0
  -33.1589  -16.5129   17.8269 C   0  0  0  0  0  0  0  0  0  0  0  0
  -33.0425  -14.3664   16.4897 C   0  0  0  0  0  0  0  0  0  0  0  0
  -32.2919  -21.9180   11.6486 C   0  0  0  0  0  0  0  0  0  0  0  0
  -34.7124  -22.6420   11.7089 C   0  0  0  0  0  0  0  0  0  0  0  0
  -30.3569  -12.8715   18.8777 C   0  0  0  0  0  0  0  0  0  0  0  0
  -31.6449  -16.6573   17.6804 C   0  0  0  0  0  0  0  0  0  0  0  0
  -31.5328  -14.5617   16.3706 C   0  0  0  0  0  0  0  0  0  0  0  0
  -27.9789  -13.5148   18.6592 C   0  0  0  0  0  0  0  0  0  0  0  0
  -31.9872  -23.0510   10.6771 C   0  0  0  0  0  0  0  0  0  0  0  0
  -34.3893  -23.7693   10.7366 C   0  0  0  0  0  0  0  0  0  0  0  0
  -33.7535  -21.4516   11.5358 C   0  0  0  0  0  0  0  0  0  0  0  0
  -28.1553  -31.0454   18.5859 C   0  0  1  0  0  0  0  0  0  0  0  0
  -28.1139  -27.5168   17.1786 C   0  0  1  0  0  0  0  0  0  0  0  0
  -27.7436  -13.3004   20.1625 C   0  0  1  0  0  0  0  0  0  0  0  0
  -33.7843  -15.6871   16.7022 C   0  0  0  0  0  0  0  0  0  0  0  0
  -31.0049  -21.0291   20.2696 C   0  0  0  0  0  0  0  0  0  0  0  0
  -31.5595  -27.6293   20.2568 C   0  0  0  0  0  0  0  0  0  0  0  0
  -32.4851  -25.4001   20.9217 C   0  0  0  0  0  0  0  0  0  0  0  0
  -30.2547  -26.1261   21.7709 C   0  0  0  0  0  0  0  0  0  0  0  0
  -28.9120  -21.3004   17.1038 C   0  0  0  0  0  0  0  0  0  0  0  0
  -33.6666  -21.3390   16.5132 C   0  0  0  0  0  0  0  0  0  0  0  0
  -34.8791  -17.3629   15.4655 C   0  0  0  0  0  0  0  0  0  0  0  0
  -32.6133  -25.3860   10.0681 C   0  0  0  0  0  0  0  0  0  0  0  0
  -31.4549  -26.1344   10.6974 C   0  0  0  0  0  0  0  0  0  1  0  0
  -30.5000  -25.4587   19.3447 C   0  0  1  0  0  0  0  0  0  0  0  0
  -30.0487  -21.6953   19.2926 C   0  0  2  0  0  0  0  0  0  0  0  0
  -31.1948  -26.1595   20.5462 C   0  0  0  0  0  0  0  0  0  0  0  0
  -25.9457  -11.6503   20.5170 N   0  0  0  0  0  0  0  0  0  0  0  0
  -26.3001  -12.9456   20.4664 N   0  0  0  0  0  0  0  0  0  0  0  0
  -29.2163  -26.6473   17.5945 N   0  0  0  0  0  0  0  0  0  0  0  0
  -29.3784  -13.8548   18.3944 N   0  0  0  0  0  0  0  0  0  0  0  0
  -30.9976  -15.3611   17.4810 N   0  0  0  0  0  0  0  0  0  0  0  0
  -25.4530  -15.1460   20.6935 N   0  0  0  0  0  0  0  0  0  0  0  0
  -21.8277  -12.5534   21.4224 N   0  0  0  0  0  0  0  0  0  0  0  0
  -27.8672  -29.6627   18.2705 N   0  0  0  0  0  0  0  0  0  0  0  0
  -30.1188  -24.0738   19.5996 N   0  0  0  0  0  0  0  0  0  0  0  0
  -32.9500  -24.1895   10.9150 N   0  3  0  0  0  0  0  0  0  0  0  0
  -29.8490  -20.7808   18.1330 N   0  3  0  0  0  0  0  0  0  0  0  0
  -22.5721  -14.7183   21.2884 O   0  0  0  0  0  0  0  0  0  0  0  0
  -29.5360  -29.3345   16.6799 O   0  0  0  0  0  0  0  0  0  0  0  0
  -28.3105  -26.2931   19.7135 O   0  0  0  0  0  0  0  0  0  0  0  0
  -31.3444  -23.1486   17.8621 O   0  0  0  0  0  0  0  0  0  0  0  0
  -28.9098  -16.0975   18.1319 O   0  0  0  0  0  0  0  0  0  0  0  0
  -21.6913   -6.9847   21.3427 O   0  0  0  0  0  0  0  0  0  0  0  0
  -34.0719  -20.0113   16.1865 O   0  0  0  0  0  0  0  0  0  0  0  0
  -31.8254  -26.5803   11.9953 O   0  0  0  0  0  0  0  0  0  1  0  0
  -33.7987  -16.4407   15.4917 O   0  0  0  0  0  0  0  0  0  0  0  0
  -18.2277   -6.6134   25.6170 F   0  0  0  0  0  0  0  0  0  0  0  0
  -21.9856   -4.9937   23.2379 F   0  0  0  0  0  0  0  0  0  0  0  0
  1  2  1  0  0  0  0
  1  5  2  0  0  0  0
  2  6  2  0  0  0  0
  3 10  2  0  0  0  0
  3 18  1  0  0  0  0
  4 11  1  0  0  0  0
  4 18  2  0  0  0  0
  5 21  1  0  0  0  0
  6 23  1  0  0  0  0
  7  9  2  0  0  0  0
  7 20  1  0  0  0  0
  8 12  2  0  0  0  0
  8 22  1  0  0  0  0
  9 25  1  0  0  0  0
 10 26  1  0  0  0  0
 11 26  2  0  0  0  0
 12 27  1  0  0  0  0
 13 14  2  0  0  0  0
 13 28  1  0  0  0  0
 14 30  1  0  0  0  0
 15 20  2  0  0  0  0
 15 29  1  0  0  0  0
 16 24  1  0  0  0  0
 16 27  2  0  0  0  0
 17 30  2  0  0  0  0
 17 31  1  0  0  0  0
 18 32  1  0  0  0  0
 19 32  1  0  0  0  0
 19 33  2  0  0  0  0
 19 34  1  0  0  0  0
 20 56  1  0  0  0  0
 21 23  2  0  0  0  0
 21 39  1  0  0  0  0
 22 24  2  0  0  0  0
 22 40  1  0  0  0  0
 23 57  1  0  0  0  0
 24 41  1  0  0  0  0
 25 29  2  0  0  0  0
 25 67  1  0  0  0  0
 26 89  1  0  0  0  0
 27 91  1  0  0  0  0
 28 31  2  0  0  0  0
 28 89  1  0  0  0  0
 29 90  1  0  0  0  0
 30 93  1  0  0  0  0
 31 94  1  0  0  0  0
 32 73  2  0  0  0  0
 33 74  1  0  0  0  0
 33 78  1  0  0  0  0
 34 79  1  0  0  0  0
 34 84  2  0  0  0  0
 35 58  1  0  0  0  0
 35 80  1  0  0  0  0
 35 85  2  0  0  0  0
 36 70  1  0  0  0  0
 36 75  1  0  0  0  0
 36 86  2  0  0  0  0
 37 71  1  0  0  0  0
 37 81  1  0  0  0  0
 37 87  2  0  0  0  0
 38 76  1  0  0  0  0
 38 77  1  0  0  0  0
 38 88  2  0  0  0  0
 39 42  1  0  0  0  0
 40 58  1  0  0  0  0
 41 75  1  0  0  0  0
 42 44  1  0  0  0  0
 43 45  1  0  0  0  0
 43 50  1  0  0  0  0
 44 57  1  0  0  0  0
 45 59  1  0  0  0  0
 46 51  1  0  0  0  0
 46 60  1  0  0  0  0
 47 52  1  0  0  0  0
 47 60  1  0  0  0  0
 48 54  1  0  0  0  0
 48 56  1  0  0  0  0
 49 55  1  0  0  0  0
 49 56  1  0  0  0  0
 50 76  1  0  0  0  0
 51 77  1  0  0  0  0
 52 77  1  0  0  0  0
 53 59  1  0  0  0  0
 53 76  1  0  0  0  0
 54 82  1  0  0  0  0
 55 82  1  0  0  0  0
 57 80  1  0  0  0  0
 58 75  1  0  0  0  0
 59 74  1  0  0  0  0
 60 92  1  0  0  0  0
 61 71  1  0  0  0  0
 62 72  1  0  0  0  0
 63 72  1  0  0  0  0
 64 72  1  0  0  0  0
 65 83  1  0  0  0  0
 66 90  1  0  0  0  0
 67 92  1  0  0  0  0
 68 69  1  0  0  0  0
 68 82  1  0  0  0  0
 69 91  1  0  0  0  0
 70 72  1  0  0  0  0
 70 81  1  0  0  0  0
 71 83  1  0  0  0  0
 73 74  1  0  0  0  0
M  CHG  2  82   1  83   1
M  ISO  4  38 100  69 101  77 100  91 101
M  END
> <Batch ID>
0155

> <Smiles>
CNC(C)C(=O)NC(C(=O)N1Cc2cc([101O:1][101CH2:1]CN3CCC(c4ccc(COC5CC[100N:0]([100C:0](=O)N6CCCC(n7nc(-c8ccc(Oc9ccc(F)cc9F)cc8)c(C(N)=O)c7N)C6)CC5)c(OC)c4)CC3)ccc2CC1C(=O)NC1CCCc2ccccc21)C(C)(C)C

> <Shape>
0.197

> <Color>
0.174

> <Negative vol penalty>
0.000

$$$$

  -OEChem-04052321543D

 94104  0     1  0  0  0  0  0999 V2000
  -31.1720  -23.5411   21.2773 C   0  0  0  0  0  0  0  0  0  0  0  0
  -30.4610  -24.1030   20.2218 C   0  0  0  0  0  0  0  0  0  0  0  0
  -23.2866  -10.0714   21.3161 C   0  0  0  0  0  0  0  0  0  0  0  0
  -24.8159   -8.4408   22.2324 C   0  0  0  0  0  0  0  0  0  0  0  0
  -30.5366  -23.3013   22.4949 C   0  0  0  0  0  0  0  0  0  0  0  0
  -29.1137  -24.4244   20.3830 C   0  0  0  0  0  0  0  0  0  0  0  0
  -27.9676  -28.9879   18.5105 C   0  0  0  0  0  0  0  0  0  0  0  0
  -22.3299   -9.0726   21.1354 C   0  0  0  0  0  0  0  0  0  0  0  0
  -23.8591   -7.4420   22.0518 C   0  0  0  0  0  0  0  0  0  0  0  0
  -27.8191  -29.0899   17.1280 C   0  0  0  0  0  0  0  0  0  0  0  0
  -21.6886   -4.5275   22.1658 C   0  0  0  0  0  0  0  0  0  0  0  0
  -21.4833   -3.6282   23.2122 C   0  0  0  0  0  0  0  0  0  0  0  0
  -28.7203  -21.3400   15.5543 C   0  0  0  0  0  0  0  0  0  0  0  0
  -27.2731  -22.6511   16.9767 C   0  0  0  0  0  0  0  0  0  0  0  0
  -25.4222  -29.0023   17.3851 C   0  0  0  0  0  0  0  0  0  0  0  0
  -20.8586   -5.4574   24.6616 C   0  0  0  0  0  0  0  0  0  0  0  0
  -24.5297   -9.7554   21.8645 C   0  0  0  0  0  0  0  0  0  0  0  0
  -25.6995  -11.5954   23.1888 C   0  0  0  0  0  0  0  0  0  0  0  0
  -29.1834  -23.6288   22.6742 C   0  0  0  0  0  0  0  0  0  0  0  0
  -26.8430  -28.8812   19.3413 C   0  0  0  0  0  0  0  0  0  0  0  0
  -28.4593  -24.1875   21.6037 C   0  0  0  0  0  0  0  0  0  0  0  0
  -27.9991  -22.5095   15.7941 C   0  0  0  0  0  0  0  0  0  0  0  0
  -25.5590  -28.9016   18.7780 C   0  0  0  0  0  0  0  0  0  0  0  0
  -27.9896  -20.4535   17.6797 C   0  0  0  0  0  0  0  0  0  0  0  0
  -28.7156  -20.3119   16.4971 C   0  0  0  0  0  0  0  0  0  0  0  0
  -27.2683  -21.6231   17.9195 C   0  0  0  0  0  0  0  0  0  0  0  0
  -22.6160   -7.7579   21.5033 C   0  0  0  0  0  0  0  0  0  0  0  0
  -26.5464  -29.0942   16.5649 C   0  0  0  0  0  0  0  0  0  0  0  0
  -21.4790   -5.8917   22.3674 C   0  0  0  0  0  0  0  0  0  0  0  0
  -21.0683   -4.0932   24.4600 C   0  0  0  0  0  0  0  0  0  0  0  0
  -21.0640   -6.3567   23.6153 C   0  0  0  0  0  0  0  0  0  0  0  0
  -25.5186  -10.7866   22.0508 C   0  0  0  0  0  0  0  0  0  0  0  0
  -26.7594  -12.4078   22.8677 C   0  0  0  0  0  0  0  0  0  0  0  0
  -24.9743  -11.6109   24.4255 C   0  0  0  0  0  0  0  0  0  0  0  0
  -25.7487  -26.6871   21.3642 C   0  0  0  0  0  0  0  0  0  0  0  0
  -23.5294  -28.9605   22.0193 C   0  0  0  0  0  0  0  0  0  0  0  0
  -21.8265  -31.7306   20.9832 C   0  0  0  0  0  0  0  0  0  0  0  0
  -29.5565  -15.6135   19.4151 C   0  0  0  0  0  0  0  0  0  0  0  0
  -28.5273  -23.3073   23.9936 C   0  0  0  0  0  0  0  0  0  0  0  0
  -27.0193  -28.7988   20.8327 C   0  0  0  0  0  0  0  0  0  0  0  0
  -24.3188  -28.8100   19.6277 C   0  0  0  0  0  0  0  0  0  0  0  0
  -27.1949  -24.0226   24.2016 C   0  0  0  0  0  0  0  0  0  0  0  0
  -30.0224  -12.2116   19.0172 C   0  0  0  0  0  0  0  0  0  0  0  0
  -26.3267  -23.9077   22.9526 C   0  0  0  0  0  0  0  0  0  0  0  0
  -28.9107  -11.5913   19.8633 C   0  0  0  0  0  0  0  0  0  0  0  0
  -27.3639  -18.0426   18.1462 C   0  0  0  0  0  0  0  0  0  0  0  0
  -29.3916  -19.0624   19.2677 C   0  0  0  0  0  0  0  0  0  0  0  0
  -26.5769  -23.8707   14.2736 C   0  0  0  0  0  0  0  0  0  0  0  0
  -28.6006  -24.8896   15.3931 C   0  0  0  0  0  0  0  0  0  0  0  0
  -29.5122  -13.4277   18.2528 C   0  0  0  0  0  0  0  0  0  0  0  0
  -27.3920  -16.9091   19.1755 C   0  0  0  0  0  0  0  0  0  0  0  0
  -29.3562  -17.9235   20.2827 C   0  0  0  0  0  0  0  0  0  0  0  0
  -27.7978  -13.8757   19.9785 C   0  0  0  0  0  0  0  0  0  0  0  0
  -26.5353  -25.0438   13.3028 C   0  0  0  0  0  0  0  0  0  0  0  0
  -28.5437  -26.0548   14.4135 C   0  0  0  0  0  0  0  0  0  0  0  0
  -28.0036  -23.6084   14.7858 C   0  0  0  0  0  0  0  0  0  0  0  0
  -27.9850  -19.3354   18.7051 C   0  0  0  0  0  0  0  0  0  0  0  0
  -27.0029  -24.5727   21.7476 C   0  0  1  0  0  0  0  0  0  0  0  0
  -25.8205  -28.1773   21.5427 C   0  0  1  0  0  0  0  0  0  0  0  0
  -28.2616  -12.6428   20.7805 C   0  0  1  0  0  0  0  0  0  0  0  0
  -29.4972  -19.0701   16.2166 C   0  0  0  0  0  0  0  0  0  0  0  0
  -26.4829  -21.7995   19.1780 C   0  0  0  0  0  0  0  0  0  0  0  0
  -20.0493  -33.3411   21.7216 C   0  0  0  0  0  0  0  0  0  0  0  0
  -21.3912  -26.8609   21.4446 C   0  0  0  0  0  0  0  0  0  0  0  0
  -19.7188  -28.7150   21.2619 C   0  0  0  0  0  0  0  0  0  0  0  0
  -20.9139  -28.3235   23.4163 C   0  0  0  0  0  0  0  0  0  0  0  0
  -23.6860  -34.0285   20.8394 C   0  0  0  0  0  0  0  0  0  0  0  0
  -26.9839  -27.4876   13.0985 C   0  0  0  0  0  0  0  0  0  0  0  0
  -25.2521  -28.5633   14.6416 C   0  0  0  0  0  0  0  0  0  1  0  0
  -22.1728  -29.3216   21.4641 C   0  0  1  0  0  0  0  0  0  0  0  0
  -21.5418  -33.0537   21.6707 C   0  0  2  0  0  0  0  0  0  0  0  0
  -25.5929  -28.1020   13.2282 C   0  0  1  0  0  0  0  0  0  0  0  0
  -21.0724  -28.3051   21.8803 C   0  0  0  0  0  0  0  0  0  0  0  0
  -26.3934  -11.0604   21.0793 N   0  0  0  0  0  0  0  0  0  0  0  0
  -27.1342  -12.0504   21.6060 N   0  0  0  0  0  0  0  0  0  0  0  0
  -24.5435  -28.7248   21.0802 N   0  0  0  0  0  0  0  0  0  0  0  0
  -28.9002  -14.4005   19.1577 N   0  0  0  0  0  0  0  0  0  0  0  0
  -28.7496  -16.7237   19.7066 N   0  0  0  0  0  0  0  0  0  0  0  0
  -27.3981  -13.3859   23.5444 N   0  0  0  0  0  0  0  0  0  0  0  0
  -23.9137  -10.7095   24.5895 N   0  0  0  0  0  0  0  0  0  0  0  0
  -26.8643  -26.0114   21.8206 N   0  0  0  0  0  0  0  0  0  0  0  0
  -21.9104  -30.6929   21.8873 N   0  0  0  0  0  0  0  0  0  0  0  0
  -27.1166  -26.2679   13.9686 N   0  3  0  0  0  0  0  0  0  0  0  0
  -22.2108  -34.1696   20.9439 N   0  3  0  0  0  0  0  0  0  0  0  0
  -25.2479  -12.4119   25.3513 O   0  0  0  0  0  0  0  0  0  0  0  0
  -24.7541  -26.1872   20.8518 O   0  0  0  0  0  0  0  0  0  0  0  0
  -23.6854  -28.8971   23.2413 O   0  0  0  0  0  0  0  0  0  0  0  0
  -21.9573  -31.6272   19.7655 O   0  0  0  0  0  0  0  0  0  0  0  0
  -30.7905  -15.7003   19.3870 O   0  0  0  0  0  0  0  0  0  0  0  0
  -25.4818  -29.2218   12.3482 O   0  0  0  0  0  0  0  0  0  0  0  0
  -21.6826   -6.7831   21.3274 O   0  0  0  0  0  0  0  0  0  0  0  0
  -26.3977  -29.1936   15.2075 O   0  0  0  0  0  0  0  0  0  1  0  0
  -20.8696   -3.2294   25.4643 F   0  0  0  0  0  0  0  0  0  0  0  0
  -20.8598   -7.6660   23.8146 F   0  0  0  0  0  0  0  0  0  0  0  0
  1  2  1  0  0  0  0
  1  5  2  0  0  0  0
  2  6  2  0  0  0  0
  3  8  2  0  0  0  0
  3 17  1  0  0  0  0
  4  9  1  0  0  0  0
  4 17  2  0  0  0  0
  5 19  1  0  0  0  0
  6 21  1  0  0  0  0
  7 10  2  0  0  0  0
  7 20  1  0  0  0  0
  8 27  1  0  0  0  0
  9 27  2  0  0  0  0
 10 28  1  0  0  0  0
 11 12  2  0  0  0  0
 11 29  1  0  0  0  0
 12 30  1  0  0  0  0
 13 22  1  0  0  0  0
 13 25  2  0  0  0  0
 14 22  2  0  0  0  0
 14 26  1  0  0  0  0
 15 23  1  0  0  0  0
 15 28  2  0  0  0  0
 16 30  2  0  0  0  0
 16 31  1  0  0  0  0
 17 32  1  0  0  0  0
 18 32  1  0  0  0  0
 18 33  2  0  0  0  0
 18 34  1  0  0  0  0
 19 21  2  0  0  0  0
 19 39  1  0  0  0  0
 20 23  2  0  0  0  0
 20 40  1  0  0  0  0
 21 58  1  0  0  0  0
 22 56  1  0  0  0  0
 23 41  1  0  0  0  0
 24 25  1  0  0  0  0
 24 26  2  0  0  0  0
 24 57  1  0  0  0  0
 25 61  1  0  0  0  0
 26 62  1  0  0  0  0
 27 91  1  0  0  0  0
 28 92  1  0  0  0  0
 29 31  2  0  0  0  0
 29 91  1  0  0  0  0
 30 93  1  0  0  0  0
 31 94  1  0  0  0  0
 32 74  2  0  0  0  0
 33 75  1  0  0  0  0
 33 79  1  0  0  0  0
 34 80  1  0  0  0  0
 34 85  2  0  0  0  0
 35 59  1  0  0  0  0
 35 81  1  0  0  0  0
 35 86  2  0  0  0  0
 36 70  1  0  0  0  0
 36 76  1  0  0  0  0
 36 87  2  0  0  0  0
 37 71  1  0  0  0  0
 37 82  1  0  0  0  0
 37 88  2  0  0  0  0
 38 77  1  0  0  0  0
 38 78  1  0  0  0  0
 38 89  2  0  0  0  0
 39 42  1  0  0  0  0
 40 59  1  0  0  0  0
 41 76  1  0  0  0  0
 42 44  1  0  0  0  0
 43 45  1  0  0  0  0
 43 50  1  0  0  0  0
 44 58  1  0  0  0  0
 45 60  1  0  0  0  0
 46 51  1  0  0  0  0
 46 57  1  0  0  0  0
 47 52  1  0  0  0  0
 47 57  1  0  0  0  0
 48 54  1  0  0  0  0
 48 56  1  0  0  0  0
 49 55  1  0  0  0  0
 49 56  1  0  0  0  0
 50 77  1  0  0  0  0
 51 78  1  0  0  0  0
 52 78  1  0  0  0  0
 53 60  1  0  0  0  0
 53 77  1  0  0  0  0
 54 83  1  0  0  0  0
 55 83  1  0  0  0  0
 58 81  1  0  0  0  0
 59 76  1  0  0  0  0
 60 75  1  0  0  0  0
 63 71  1  0  0  0  0
 64 73  1  0  0  0  0
 65 73  1  0  0  0  0
 66 73  1  0  0  0  0
 67 84  1  0  0  0  0
 68 72  1  0  0  0  0
 68 83  1  0  0  0  0
 69 72  1  0  0  0  0
 69 92  1  0  0  0  0
 70 73  1  0  0  0  0
 70 82  1  0  0  0  0
 71 84  1  0  0  0  0
 72 90  1  0  0  0  0
 74 75  1  0  0  0  0
M  CHG  2  83   1  84   1
M  ISO  4  38 100  69 101  78 100  92 101
M  END
> <Batch ID>
0155

> <Smiles>
CNC(C)C(=O)NC(C(=O)N1Cc2cc([101O:1][101CH2:1]C(O)CN3CCC(c4cc(C)c(C5CC[100N:0]([100C:0](=O)N6CCCC(n7nc(-c8ccc(Oc9ccc(F)cc9F)cc8)c(C(N)=O)c7N)C6)CC5)c(C)c4)CC3)ccc2CC1C(=O)NC1CCCc2ccccc21)C(C)(C)C

> <Shape>
0.233

> <Color>
0.103

> <Negative vol penalty>
0.000

$$$$

  -OEChem-04052321543D

 84 93  0     1  0  0  0  0  0999 V2000
  -23.6040  -35.7447   15.7212 C   0  0  0  0  0  0  0  0  0  0  0  0
  -24.0498  -34.4270   15.7043 C   0  0  0  0  0  0  0  0  0  0  0  0
  -22.3670  -10.3767   21.9272 C   0  0  0  0  0  0  0  0  0  0  0  0
  -23.1591   -9.8126   19.7155 C   0  0  0  0  0  0  0  0  0  0  0  0
  -23.8373  -36.5440   16.8395 C   0  0  0  0  0  0  0  0  0  0  0  0
  -24.7301  -33.9081   16.8054 C   0  0  0  0  0  0  0  0  0  0  0  0
  -24.4764  -28.1654   18.9181 C   0  0  0  0  0  0  0  0  0  0  0  0
  -21.8751   -9.0807   22.0816 C   0  0  0  0  0  0  0  0  0  0  0  0
  -22.6673   -8.5165   19.8700 C   0  0  0  0  0  0  0  0  0  0  0  0
  -25.3175  -27.0663   18.7504 C   0  0  0  0  0  0  0  0  0  0  0  0
  -23.1089   -6.0191   22.8150 C   0  0  0  0  0  0  0  0  0  0  0  0
  -23.3612   -5.3698   24.0234 C   0  0  0  0  0  0  0  0  0  0  0  0
  -28.3007  -19.2406   16.9664 C   0  0  0  0  0  0  0  0  0  0  0  0
  -26.4102  -27.5921   20.8358 C   0  0  0  0  0  0  0  0  0  0  0  0
  -25.5976  -20.0407   17.1475 C   0  0  0  0  0  0  0  0  0  0  0  0
  -20.9851   -5.1649   24.4095 C   0  0  0  0  0  0  0  0  0  0  0  0
  -23.0089  -10.7428   20.7441 C   0  0  0  0  0  0  0  0  0  0  0  0
  -24.7998  -12.5506   20.9235 C   0  0  0  0  0  0  0  0  0  0  0  0
  -24.5123  -36.0318   17.9587 C   0  0  0  0  0  0  0  0  0  0  0  0
  -24.6033  -28.9939   20.0423 C   0  0  0  0  0  0  0  0  0  0  0  0
  -24.9738  -34.7017   17.9392 C   0  0  0  0  0  0  0  0  0  0  0  0
  -27.9561  -20.5729   17.1081 C   0  0  0  0  0  0  0  0  0  0  0  0
  -25.5678  -28.6996   21.0166 C   0  0  0  0  0  0  0  0  0  0  0  0
  -27.2732  -18.2953   16.9074 C   0  0  0  0  0  0  0  0  0  0  0  0
  -25.9292  -18.6933   16.9976 C   0  0  0  0  0  0  0  0  0  0  0  0
  -26.6319  -20.9543   17.1976 C   0  0  0  0  0  0  0  0  0  0  0  0
  -22.0253   -8.1505   21.0530 C   0  0  0  0  0  0  0  0  0  0  0  0
  -26.2865  -26.7811   19.7079 C   0  0  0  0  0  0  0  0  0  0  0  0
  -21.7946   -6.2415   22.4038 C   0  0  0  0  0  0  0  0  0  0  0  0
  -22.2993   -4.9426   24.8206 C   0  0  0  0  0  0  0  0  0  0  0  0
  -20.7327   -5.8144   23.2011 C   0  0  0  0  0  0  0  0  0  0  0  0
  -23.5167  -12.0816   20.5837 C   0  0  0  0  0  0  0  0  0  0  0  0
  -24.7825  -13.8796   20.5774 C   0  0  0  0  0  0  0  0  0  0  0  0
  -25.9083  -11.8476   21.5003 C   0  0  0  0  0  0  0  0  0  0  0  0
  -25.3038  -32.0602   20.5017 C   0  0  0  0  0  0  0  0  0  0  0  0
  -24.5922  -31.3579   23.5876 C   0  0  0  0  0  0  0  0  0  0  0  0
  -24.3298  -28.9935   26.0345 C   0  0  0  0  0  0  0  0  0  0  0  0
  -23.5162  -17.9698   17.0179 C   0  0  0  0  0  0  0  0  0  0  0  0
  -24.7826  -36.9482   19.1257 C   0  0  0  0  0  0  0  0  0  0  0  0
  -23.6705  -30.1601   20.2217 C   0  0  0  0  0  0  0  0  0  0  0  0
  -25.7313  -29.5460   22.2517 C   0  0  0  0  0  0  0  0  0  0  0  0
  -25.1818  -36.2094   20.4005 C   0  0  0  0  0  0  0  0  0  0  0  0
  -20.9386  -16.8798   19.2190 C   0  0  0  0  0  0  0  0  0  0  0  0
  -26.2362  -35.1501   20.0958 C   0  0  0  0  0  0  0  0  0  0  0  0
  -21.4851  -15.5729   19.7982 C   0  0  0  0  0  0  0  0  0  0  0  0
  -21.3252  -17.0552   17.7516 C   0  0  0  0  0  0  0  0  0  0  0  0
  -23.3071  -15.6221   18.0476 C   0  0  0  0  0  0  0  0  0  0  0  0
  -25.6936  -34.0952   19.1241 C   0  0  1  0  0  0  0  0  0  0  0  0
  -28.7987  -21.7872   17.2302 C   0  0  1  0  0  0  0  0  0  0  0  0
  -24.2288  -31.2345   21.1499 C   0  0  1  0  0  0  0  0  0  0  0  0
  -22.9983  -15.4320   19.5416 C   0  0  2  0  0  0  0  0  0  0  0  0
  -27.6364  -16.8529   16.7517 C   0  0  0  0  0  0  0  0  0  0  0  0
  -29.7954  -21.9500   16.0883 C   0  0  0  0  0  0  0  0  0  0  0  0
  -23.7627  -28.7280   28.4646 C   0  0  0  0  0  0  0  0  0  0  0  0
  -27.3145  -32.5087   24.3461 C   0  0  0  0  0  0  0  0  0  0  0  0
  -27.0967  -31.3753   26.5679 C   0  0  0  0  0  0  0  0  0  0  0  0
  -25.4520  -33.1265   25.8965 C   0  0  0  0  0  0  0  0  0  0  0  0
  -22.0539  -27.2017   25.4270 C   0  0  0  0  0  0  0  0  0  0  0  0
  -27.9630  -23.7755   18.3657 C   0  0  0  0  0  0  0  0  0  0  0  0
  -26.9319  -24.8936   18.3518 C   0  0  0  0  0  0  0  0  0  1  0  0
  -25.3750  -30.8602   24.7786 C   0  0  1  0  0  0  0  0  0  0  0  0
  -23.2305  -28.7024   27.0402 C   0  0  2  0  0  0  0  0  0  0  0  0
  -26.3080  -31.9527   25.3731 C   0  0  0  0  0  0  0  0  0  0  0  0
  -22.7406  -13.0353   20.0619 N   0  0  0  0  0  0  0  0  0  0  0  0
  -23.5384  -14.1168   20.0713 N   0  0  0  0  0  0  0  0  0  0  0  0
  -24.7997  -30.6789   22.3786 N   0  0  0  0  0  0  0  0  0  0  0  0
  -22.7734  -16.9130   17.5855 N   0  0  0  0  0  0  0  0  0  0  0  0
  -27.8256  -22.9086   17.1975 N   0  0  2  0  0  0  0  0  0  0  0  0
  -25.7102  -14.8568   20.6596 N   0  0  0  0  0  0  0  0  0  0  0  0
  -25.7560  -10.4857   21.7940 N   0  0  0  0  0  0  0  0  0  0  0  0
  -24.8883  -17.7336   16.9405 N   0  0  0  0  0  0  0  0  0  0  0  0
  -24.8303  -33.1644   19.8191 N   0  0  0  0  0  0  0  0  0  0  0  0
  -24.3935  -30.3348   25.7215 N   0  0  0  0  0  0  0  0  0  0  0  0
  -22.6367  -27.3597   26.7843 N   0  3  0  0  0  0  0  0  0  0  0  0
  -26.9961  -12.4144   21.7632 O   0  0  0  0  0  0  0  0  0  0  0  0
  -26.4761  -31.7213   20.6137 O   0  0  0  0  0  0  0  0  0  0  0  0
  -23.8197  -32.3095   23.7265 O   0  0  0  0  0  0  0  0  0  0  0  0
  -25.0613  -28.1190   25.5755 O   0  0  0  0  0  0  0  0  0  0  0  0
  -22.9785  -19.0189   16.6542 O   0  0  0  0  0  0  0  0  0  0  0  0
  -26.4790  -22.3058   17.3449 O   0  0  0  0  0  0  0  0  0  0  0  0
  -21.5457   -6.8857   21.2035 O   0  0  0  0  0  0  0  0  0  0  0  0
  -27.1093  -25.7093   19.5463 O   0  0  0  0  0  0  0  0  0  1  0  0
  -22.5418   -4.3177   25.9802 F   0  0  0  0  0  0  0  0  0  0  0  0
  -19.4680   -6.0241   22.8108 F   0  0  0  0  0  0  0  0  0  0  0  0
  1  2  1  0  0  0  0
  1  5  2  0  0  0  0
  2  6  2  0  0  0  0
  3  8  2  0  0  0  0
  3 17  1  0  0  0  0
  4  9  1  0  0  0  0
  4 17  2  0  0  0  0
  5 19  1  0  0  0  0
  6 21  1  0  0  0  0
  7 10  2  0  0  0  0
  7 20  1  0  0  0  0
  8 27  1  0  0  0  0
  9 27  2  0  0  0  0
 10 28  1  0  0  0  0
 11 12  2  0  0  0  0
 11 29  1  0  0  0  0
 12 30  1  0  0  0  0
 13 22  1  0  0  0  0
 13 24  2  0  0  0  0
 14 23  1  0  0  0  0
 14 28  2  0  0  0  0
 15 25  2  0  0  0  0
 15 26  1  0  0  0  0
 16 30  2  0  0  0  0
 16 31  1  0  0  0  0
 17 32  1  0  0  0  0
 18 32  1  0  0  0  0
 18 33  2  0  0  0  0
 18 34  1  0  0  0  0
 19 21  2  0  0  0  0
 19 39  1  0  0  0  0
 20 23  2  0  0  0  0
 20 40  1  0  0  0  0
 21 48  1  0  0  0  0
 22 26  2  0  0  0  0
 22 49  1  0  0  0  0
 23 41  1  0  0  0  0
 24 25  1  0  0  0  0
 24 52  1  0  0  0  0
 25 71  1  0  0  0  0
 26 80  1  0  0  0  0
 27 81  1  0  0  0  0
 28 82  1  0  0  0  0
 29 31  2  0  0  0  0
 29 81  1  0  0  0  0
 30 83  1  0  0  0  0
 31 84  1  0  0  0  0
 32 64  2  0  0  0  0
 33 65  1  0  0  0  0
 33 69  1  0  0  0  0
 34 70  1  0  0  0  0
 34 75  2  0  0  0  0
 35 50  1  0  0  0  0
 35 72  1  0  0  0  0
 35 76  2  0  0  0  0
 36 61  1  0  0  0  0
 36 66  1  0  0  0  0
 36 77  2  0  0  0  0
 37 62  1  0  0  0  0
 37 73  1  0  0  0  0
 37 78  2  0  0  0  0
 38 67  1  0  0  0  0
 38 71  1  0  0  0  0
 38 79  2  0  0  0  0
 39 42  1  0  0  0  0
 40 50  1  0  0  0  0
 41 66  1  0  0  0  0
 42 44  1  0  0  0  0
 43 45  1  0  0  0  0
 43 46  1  0  0  0  0
 44 48  1  0  0  0  0
 45 51  1  0  0  0  0
 46 67  1  0  0  0  0
 47 51  1  0  0  0  0
 47 67  1  0  0  0  0
 48 72  1  0  0  0  0
 49 53  1  0  0  0  0
 49 68  1  0  0  0  0
 50 66  1  0  0  0  0
 51 65  1  0  0  0  0
 54 62  1  0  0  0  0
 55 63  1  0  0  0  0
 56 63  1  0  0  0  0
 57 63  1  0  0  0  0
 58 74  1  0  0  0  0
 59 60  1  0  0  0  0
 59 68  1  0  0  0  0
 60 82  1  0  0  0  0
 61 63  1  0  0  0  0
 61 73  1  0  0  0  0
 62 74  1  0  0  0  0
 64 65  1  0  0  0  0
 68 80  1  0  0  0  0
M  CHG  1  74   1
M  ISO  4  38 100  60 101  71 100  82 101
M  END
> <Batch ID>
0155

> <Smiles>
CNC(C)C(=O)NC(C(=O)N1Cc2cc([101O:1][101CH2:1]CN3Oc4cc([100NH:0][100C:0](=O)N5CCCC(n6nc(-c7ccc(Oc8ccc(F)cc8F)cc7)c(C(N)=O)c6N)C5)c(C)cc4C3C)ccc2CC1C(=O)NC1CCCc2ccccc21)C(C)(C)C

> <Shape>
0.216

> <Color>
0.144

> <Negative vol penalty>
0.000

$$$$

  -OEChem-04052321543D

 91101  0     1  0  0  0  0  0999 V2000
  -27.2807  -23.3792   17.7020 C   0  0  0  0  0  0  0  0  0  0  0  0
  -26.1919  -24.1663   18.0596 C   0  0  0  0  0  0  0  0  0  0  0  0
  -26.5885  -18.5217   18.9265 C   0  0  0  0  0  0  0  0  0  0  0  0
  -28.0353  -16.9532   20.0594 C   0  0  0  0  0  0  0  0  0  0  0  0
  -28.4874  -23.5137   18.3853 C   0  0  0  0  0  0  0  0  0  0  0  0
  -26.3129  -25.0966   19.0925 C   0  0  0  0  0  0  0  0  0  0  0  0
  -22.5067  -28.1250   19.8302 C   0  0  0  0  0  0  0  0  0  0  0  0
  -27.4889  -19.5509   19.2015 C   0  0  0  0  0  0  0  0  0  0  0  0
  -28.9358  -17.9824   20.3344 C   0  0  0  0  0  0  0  0  0  0  0  0
  -21.3002  -27.6983   20.3833 C   0  0  0  0  0  0  0  0  0  0  0  0
  -29.2139  -20.5248   22.5456 C   0  0  0  0  0  0  0  0  0  0  0  0
  -29.7400  -20.5983   23.8353 C   0  0  0  0  0  0  0  0  0  0  0  0
  -18.5504  -18.7614   21.7003 C   0  0  0  0  0  0  0  0  0  0  0  0
  -21.9120  -28.7122   22.4849 C   0  0  0  0  0  0  0  0  0  0  0  0
  -18.7054  -20.9554   23.4164 C   0  0  0  0  0  0  0  0  0  0  0  0
  -31.9691  -20.3367   22.9409 C   0  0  0  0  0  0  0  0  0  0  0  0
  -26.8616  -17.2228   19.3556 C   0  0  0  0  0  0  0  0  0  0  0  0
  -25.5069  -15.7164   17.8054 C   0  0  0  0  0  0  0  0  0  0  0  0
  -28.6188  -24.4375   19.4352 C   0  0  0  0  0  0  0  0  0  0  0  0
  -23.4312  -28.8404   20.6047 C   0  0  0  0  0  0  0  0  0  0  0  0
  -27.5296  -25.2640   19.7783 C   0  0  0  0  0  0  0  0  0  0  0  0
  -19.0710  -18.6065   22.9850 C   0  0  0  0  0  0  0  0  0  0  0  0
  -23.1284  -29.1491   21.9385 C   0  0  0  0  0  0  0  0  0  0  0  0
  -18.1074  -20.0133   21.2735 C   0  0  0  0  0  0  0  0  0  0  0  0
  -19.1484  -19.7035   23.8431 C   0  0  0  0  0  0  0  0  0  0  0  0
  -18.1848  -21.1103   22.1316 C   0  0  0  0  0  0  0  0  0  0  0  0
  -28.6625  -19.2812   19.9054 C   0  0  0  0  0  0  0  0  0  0  0  0
  -21.0039  -27.9894   21.7117 C   0  0  0  0  0  0  0  0  0  0  0  0
  -30.0654  -20.3572   21.4535 C   0  0  0  0  0  0  0  0  0  0  0  0
  -31.1176  -20.5043   24.0330 C   0  0  0  0  0  0  0  0  0  0  0  0
  -31.4429  -20.2632   21.6511 C   0  0  0  0  0  0  0  0  0  0  0  0
  -25.9316  -16.1594   19.0724 C   0  0  0  0  0  0  0  0  0  0  0  0
  -24.6305  -14.6939   18.0752 C   0  0  0  0  0  0  0  0  0  0  0  0
  -25.8721  -16.1871   16.5012 C   0  0  0  0  0  0  0  0  0  0  0  0
  -26.4190  -28.3358   21.5653 C   0  0  0  0  0  0  0  0  0  0  0  0
  -26.1528  -31.3636   22.6985 C   0  0  0  0  0  0  0  0  0  0  0  0
  -24.1216  -33.8871   23.7724 C   0  0  0  0  0  0  0  0  0  0  0  0
  -21.1687  -13.3331   22.6052 C   0  0  0  0  0  0  0  0  0  0  0  0
  -29.9501  -24.5472   20.1357 C   0  0  0  0  0  0  0  0  0  0  0  0
  -24.7166  -29.3167   19.9855 C   0  0  0  0  0  0  0  0  0  0  0  0
  -24.0783  -29.9318   22.8066 C   0  0  0  0  0  0  0  0  0  0  0  0
  -29.8524  -25.2343   21.4939 C   0  0  0  0  0  0  0  0  0  0  0  0
  -23.6756  -11.3246   21.3273 C   0  0  0  0  0  0  0  0  0  0  0  0
  -29.0712  -26.5333   21.3642 C   0  0  0  0  0  0  0  0  0  0  0  0
  -24.5074  -12.2828   20.4747 C   0  0  0  0  0  0  0  0  0  0  0  0
  -17.3283  -24.7672   22.0095 C   0  0  0  0  0  0  0  0  0  0  0  0
  -19.6435  -23.8833   21.4981 C   0  0  0  0  0  0  0  0  0  0  0  0
  -17.9356  -26.0998   22.4410 C   0  0  0  0  0  0  0  0  0  0  0  0
  -20.2455  -25.2183   21.9297 C   0  0  0  0  0  0  0  0  0  0  0  0
  -18.7233  -16.1049   22.7856 C   0  0  0  0  0  0  0  0  0  0  0  0
  -21.0481  -17.0319   23.1552 C   0  0  0  0  0  0  0  0  0  0  0  0
  -23.2471  -11.9859   22.6324 C   0  0  0  0  0  0  0  0  0  0  0  0
  -19.2279  -14.7300   23.2171 C   0  0  0  0  0  0  0  0  0  0  0  0
  -21.4996  -15.6375   23.5798 C   0  0  0  0  0  0  0  0  0  0  0  0
  -23.3125  -14.2285   21.5930 C   0  0  0  0  0  0  0  0  0  0  0  0
  -19.5470  -17.2352   23.4265 C   0  0  0  0  0  0  0  0  0  0  0  0
  -27.6288  -26.2610   20.9188 C   0  0  1  0  0  0  0  0  0  0  0  0
  -25.8088  -29.5934   21.0140 C   0  0  1  0  0  0  0  0  0  0  0  0
  -23.7642  -13.6121   20.2540 C   0  0  1  0  0  0  0  0  0  0  0  0
  -18.3172  -23.6164   22.2135 C   0  0  0  0  0  0  0  0  0  0  0  0
  -19.2617  -26.3708   21.7336 C   0  0  0  0  0  0  0  0  0  1  0  0
  -17.5567  -20.1513   19.8914 C   0  0  0  0  0  0  0  0  0  0  0  0
  -19.7029  -19.5615   25.2225 C   0  0  0  0  0  0  0  0  0  0  0  0
  -24.1964  -36.2290   24.6708 C   0  0  0  0  0  0  0  0  0  0  0  0
  -27.0339  -30.2906   25.4156 C   0  0  0  0  0  0  0  0  0  0  0  0
  -26.1866  -32.4080   26.4485 C   0  0  0  0  0  0  0  0  0  0  0  0
  -28.0438  -32.4899   24.7851 C   0  0  0  0  0  0  0  0  0  0  0  0
  -22.5696  -34.9389   21.4825 C   0  0  0  0  0  0  0  0  0  0  0  0
  -25.6956  -31.9827   23.9972 C   0  0  1  0  0  0  0  0  0  0  0  0
  -24.0809  -35.3643   23.4251 C   0  0  2  0  0  0  0  0  0  0  0  0
  -26.7227  -31.7764   25.1461 C   0  0  0  0  0  0  0  0  0  0  0  0
  -25.3710  -15.4745   20.0727 N   0  0  0  0  0  0  0  0  0  0  0  0
  -24.5850  -14.5908   19.4344 N   0  0  0  0  0  0  0  0  0  0  0  0
  -25.3248  -30.3699   22.1573 N   0  0  0  0  0  0  0  0  0  0  0  0
  -22.5511  -13.2475   22.3803 N   0  0  0  0  0  0  0  0  0  0  0  0
  -20.6638  -14.5896   22.9781 N   0  0  0  0  0  0  0  0  0  0  0  0
  -23.9019  -13.8819   17.2800 N   0  0  0  0  0  0  0  0  0  0  0  0
  -26.9734  -15.6002   15.8633 N   0  0  0  0  0  0  0  0  0  0  0  0
  -17.7419  -22.3853   21.7160 N   0  0  0  0  0  0  0  0  0  0  0  0
  -26.9858  -27.5183   20.6063 N   0  0  0  0  0  0  0  0  0  0  0  0
  -25.4023  -33.3810   23.7019 N   0  0  0  0  0  0  0  0  0  0  0  0
  -22.8021  -35.6996   22.7372 N   0  3  0  0  0  0  0  0  0  0  0  0
  -25.2505  -17.1123   15.9258 O   0  0  0  0  0  0  0  0  0  0  0  0
  -26.3797  -28.1237   22.7716 O   0  0  0  0  0  0  0  0  0  0  0  0
  -27.2021  -31.7525   22.1796 O   0  0  0  0  0  0  0  0  0  0  0  0
  -23.1183  -33.2471   24.0794 O   0  0  0  0  0  0  0  0  0  0  0  0
  -20.4280  -12.3504   22.4760 O   0  0  0  0  0  0  0  0  0  0  0  0
  -29.5415  -20.2852   20.1736 O   0  0  0  0  0  0  0  0  0  0  0  0
  -19.8196  -27.5708   22.2578 O   0  0  0  0  0  0  0  0  0  1  0  0
  -31.6229  -20.5764   25.2714 F   0  0  0  0  0  0  0  0  0  0  0  0
  -32.2660  -20.1033   20.6058 F   0  0  0  0  0  0  0  0  0  0  0  0
  1  2  1  0  0  0  0
  1  5  2  0  0  0  0
  2  6  2  0  0  0  0
  3  8  2  0  0  0  0
  3 17  1  0  0  0  0
  4  9  1  0  0  0  0
  4 17  2  0  0  0  0
  5 19  1  0  0  0  0
  6 21  1  0  0  0  0
  7 10  2  0  0  0  0
  7 20  1  0  0  0  0
  8 27  1  0  0  0  0
  9 27  2  0  0  0  0
 10 28  1  0  0  0  0
 11 12  2  0  0  0  0
 11 29  1  0  0  0  0
 12 30  1  0  0  0  0
 13 22  2  0  0  0  0
 13 24  1  0  0  0  0
 14 23  1  0  0  0  0
 14 28  2  0  0  0  0
 15 25  2  0  0  0  0
 15 26  1  0  0  0  0
 16 30  2  0  0  0  0
 16 31  1  0  0  0  0
 17 32  1  0  0  0  0
 18 32  1  0  0  0  0
 18 33  2  0  0  0  0
 18 34  1  0  0  0  0
 19 21  2  0  0  0  0
 19 39  1  0  0  0  0
 20 23  2  0  0  0  0
 20 40  1  0  0  0  0
 21 57  1  0  0  0  0
 22 25  1  0  0  0  0
 22 56  1  0  0  0  0
 23 41  1  0  0  0  0
 24 26  2  0  0  0  0
 24 62  1  0  0  0  0
 25 63  1  0  0  0  0
 26 79  1  0  0  0  0
 27 88  1  0  0  0  0
 28 89  1  0  0  0  0
 29 31  2  0  0  0  0
 29 88  1  0  0  0  0
 30 90  1  0  0  0  0
 31 91  1  0  0  0  0
 32 72  2  0  0  0  0
 33 73  1  0  0  0  0
 33 77  1  0  0  0  0
 34 78  1  0  0  0  0
 34 83  2  0  0  0  0
 35 58  1  0  0  0  0
 35 80  1  0  0  0  0
 35 84  2  0  0  0  0
 36 69  1  0  0  0  0
 36 74  1  0  0  0  0
 36 85  2  0  0  0  0
 37 70  1  0  0  0  0
 37 81  1  0  0  0  0
 37 86  2  0  0  0  0
 38 75  1  0  0  0  0
 38 76  1  0  0  0  0
 38 87  2  0  0  0  0
 39 42  1  0  0  0  0
 40 58  1  0  0  0  0
 41 74  1  0  0  0  0
 42 44  1  0  0  0  0
 43 45  1  0  0  0  0
 43 52  1  0  0  0  0
 44 57  1  0  0  0  0
 45 59  1  0  0  0  0
 46 48  1  0  0  0  0
 46 60  1  0  0  0  0
 47 49  1  0  0  0  0
 47 60  1  0  0  0  0
 48 61  1  0  0  0  0
 49 61  1  0  0  0  0
 50 53  1  0  0  0  0
 50 56  1  0  0  0  0
 51 54  1  0  0  0  0
 51 56  1  0  0  0  0
 52 75  1  0  0  0  0
 53 76  1  0  0  0  0
 54 76  1  0  0  0  0
 55 59  1  0  0  0  0
 55 75  1  0  0  0  0
 57 80  1  0  0  0  0
 58 74  1  0  0  0  0
 59 73  1  0  0  0  0
 60 79  1  0  0  0  0
 61 89  1  0  0  0  0
 64 70  1  0  0  0  0
 65 71  1  0  0  0  0
 66 71  1  0  0  0  0
 67 71  1  0  0  0  0
 68 82  1  0  0  0  0
 69 71  1  0  0  0  0
 69 81  1  0  0  0  0
 70 82  1  0  0  0  0
 72 73  1  0  0  0  0
M  CHG  1  82   1
M  ISO  4  38 100  61 101  76 100  89 101
M  END
> <Batch ID>
0155

> <Smiles>
CNC(C)C(=O)NC(C(=O)N1Cc2cc([101O:1][101CH:1]3CCC(Nc4cc(C)c(C5CC[100N:0]([100C:0](=O)N6CCCC(n7nc(-c8ccc(Oc9ccc(F)cc9F)cc8)c(C(N)=O)c7N)C6)CC5)cc4C)CC3)ccc2CC1C(=O)NC1CCCc2ccccc21)C(C)(C)C

> <Shape>
0.257

> <Color>
0.074

> <Negative vol penalty>
0.000

$$$$

  -OEChem-04052321543D

 93103  0     1  0  0  0  0  0999 V2000
  -17.0618  -27.5083   24.1944 C   0  0  0  0  0  0  0  0  0  0  0  0
  -18.3696  -27.1656   23.8663 C   0  0  0  0  0  0  0  0  0  0  0  0
  -22.9793  -10.0340   19.9702 C   0  0  0  0  0  0  0  0  0  0  0  0
  -23.9527   -9.8918   22.1769 C   0  0  0  0  0  0  0  0  0  0  0  0
  -16.5048  -28.6851   23.6957 C   0  0  0  0  0  0  0  0  0  0  0  0
  -19.1208  -27.9992   23.0384 C   0  0  0  0  0  0  0  0  0  0  0  0
  -28.4362  -22.9483   22.3632 C   0  0  0  0  0  0  0  0  0  0  0  0
  -23.8321  -28.7080   24.7548 C   0  0  0  0  0  0  0  0  0  0  0  0
  -27.4338  -23.8597   22.6951 C   0  0  0  0  0  0  0  0  0  0  0  0
  -22.2472   -8.8729   20.2183 C   0  0  0  0  0  0  0  0  0  0  0  0
  -23.2206   -8.7307   22.4250 C   0  0  0  0  0  0  0  0  0  0  0  0
  -24.7494  -27.6802   24.5402 C   0  0  0  0  0  0  0  0  0  0  0  0
  -20.0536   -7.9204   23.2817 C   0  0  0  0  0  0  0  0  0  0  0  0
  -19.4103   -7.8127   24.5147 C   0  0  0  0  0  0  0  0  0  0  0  0
  -25.6506  -28.8863   22.6554 C   0  0  0  0  0  0  0  0  0  0  0  0
  -28.7276  -24.5883   24.6011 C   0  0  0  0  0  0  0  0  0  0  0  0
  -20.6900   -5.8239   25.0088 C   0  0  0  0  0  0  0  0  0  0  0  0
  -23.8321  -10.5434   20.9495 C   0  0  0  0  0  0  0  0  0  0  0  0
  -24.1944  -13.0686   20.9534 C   0  0  0  0  0  0  0  0  0  0  0  0
  -17.2527  -29.5383   22.8691 C   0  0  0  0  0  0  0  0  0  0  0  0
  -23.8100  -29.8295   23.9133 C   0  0  0  0  0  0  0  0  0  0  0  0
  -18.5728  -29.1878   22.5272 C   0  0  0  0  0  0  0  0  0  0  0  0
  -29.5842  -22.8568   23.1502 C   0  0  0  0  0  0  0  0  0  0  0  0
  -24.7338  -29.9282   22.8630 C   0  0  0  0  0  0  0  0  0  0  0  0
  -27.5795  -24.6797   23.8140 C   0  0  0  0  0  0  0  0  0  0  0  0
  -29.7299  -23.6768   24.2691 C   0  0  0  0  0  0  0  0  0  0  0  0
  -22.3678   -8.2213   21.4457 C   0  0  0  0  0  0  0  0  0  0  0  0
  -25.6569  -27.7679   23.4886 C   0  0  0  0  0  0  0  0  0  0  0  0
  -21.0151   -6.9798   22.9122 C   0  0  0  0  0  0  0  0  0  0  0  0
  -19.7285   -6.7645   25.3782 C   0  0  0  0  0  0  0  0  0  0  0  0
  -21.3333   -5.9316   23.7758 C   0  0  0  0  0  0  0  0  0  0  0  0
  -24.5891  -11.7425   20.6936 C   0  0  0  0  0  0  0  0  0  0  0  0
  -25.2571  -13.8313   20.5347 C   0  0  0  0  0  0  0  0  0  0  0  0
  -22.9762  -13.5664   21.5223 C   0  0  0  0  0  0  0  0  0  0  0  0
  -21.6717  -31.1135   21.9428 C   0  0  0  0  0  0  0  0  0  0  0  0
  -23.8849  -33.4731   21.7050 C   0  0  0  0  0  0  0  0  0  0  0  0
  -27.1529  -34.4182   21.9767 C   0  0  0  0  0  0  0  0  0  0  0  0
  -30.9111  -14.4423   20.6748 C   0  0  0  0  0  0  0  0  0  0  0  0
  -16.5919  -30.7760   22.3159 C   0  0  0  0  0  0  0  0  0  0  0  0
  -22.8320  -30.9420   24.1745 C   0  0  0  0  0  0  0  0  0  0  0  0
  -24.7646  -31.1205   21.9434 C   0  0  0  0  0  0  0  0  0  0  0  0
  -17.5798  -31.7923   21.7489 C   0  0  0  0  0  0  0  0  0  0  0  0
  -29.3552  -12.6117   17.8518 C   0  0  0  0  0  0  0  0  0  0  0  0
  -18.6053  -31.0997   20.8570 C   0  0  0  0  0  0  0  0  0  0  0  0
  -27.9717  -12.2706   18.4022 C   0  0  0  0  0  0  0  0  0  0  0  0
  -31.7804  -17.0944   22.7358 C   0  0  0  0  0  0  0  0  0  0  0  0
  -29.6913  -17.6595   21.4325 C   0  0  0  0  0  0  0  0  0  0  0  0
  -32.1824  -21.0627   20.9205 C   0  0  0  0  0  0  0  0  0  0  0  0
  -30.3913  -12.7411   18.9639 C   0  0  0  0  0  0  0  0  0  0  0  0
  -31.3064  -15.6451   22.8037 C   0  0  0  0  0  0  0  0  0  0  0  0
  -29.2703  -16.1887   21.5036 C   0  0  0  0  0  0  0  0  0  0  0  0
  -28.6267  -13.3697   20.5805 C   0  0  0  0  0  0  0  0  0  0  0  0
  -31.5642  -19.6755   21.0176 C   0  0  0  0  0  0  0  0  0  0  0  0
  -30.0474  -20.4584   22.8576 C   0  0  0  0  0  0  0  0  0  0  0  0
  -30.6470  -21.8710   22.7740 C   0  0  1  0  0  0  0  0  0  0  0  0
  -19.4278  -30.0785   21.6521 C   0  0  1  0  0  0  0  0  0  0  0  0
  -22.5593  -31.7995   22.9425 C   0  0  1  0  0  0  0  0  0  0  0  0
  -27.5511  -13.2763   19.4877 C   0  0  2  0  0  0  0  0  0  0  0  0
  -30.5829  -18.0346   22.6143 C   0  0  0  0  0  0  0  0  0  0  0  0
  -31.1955  -22.1437   21.3597 C   0  0  1  0  0  0  0  0  0  0  0  0
  -30.9500  -23.5963   25.1269 C   0  0  0  0  0  0  0  0  0  0  0  0
  -28.6608  -36.4022   21.6814 C   0  0  0  0  0  0  0  0  0  0  0  0
  -23.7563  -33.1171   18.6773 C   0  0  0  0  0  0  0  0  0  0  0  0
  -25.9017  -34.3962   18.5058 C   0  0  0  0  0  0  0  0  0  0  0  0
  -23.8683  -35.4949   19.4443 C   0  0  0  0  0  0  0  0  0  0  0  0
  -27.9506  -34.3822   24.8265 C   0  0  0  0  0  0  0  0  0  0  0  0
  -33.2883  -23.3679   21.9270 C   0  0  0  0  0  0  0  0  0  0  0  0
  -31.9292  -24.0700   19.9622 C   0  0  0  0  0  0  0  0  0  0  0  0
  -26.5077  -25.6539   24.1691 C   0  0  0  0  0  0  0  0  0  1  0  0
  -25.0711  -33.7400   20.8102 C   0  0  1  0  0  0  0  0  0  0  0  0
  -27.8037  -35.6095   22.6561 C   0  0  2  0  0  0  0  0  0  0  0  0
  -24.6477  -34.1635   19.3754 C   0  0  0  0  0  0  0  0  0  0  0  0
  -25.8073  -11.6638   20.1517 N   0  0  0  0  0  0  0  0  0  0  0  0
  -26.1873  -12.9501   20.0675 N   0  0  0  0  0  0  0  0  0  0  0  0
  -23.7843  -32.1793   22.2358 N   0  0  0  0  0  0  0  0  0  0  0  0
  -29.9488  -13.6659   20.0076 N   0  0  0  0  0  0  0  0  0  0  0  0
  -30.4438  -15.3178   21.6667 N   0  0  0  0  0  0  0  0  0  0  0  0
  -25.4773  -15.1632   20.5242 N   0  0  0  0  0  0  0  0  0  0  0  0
  -21.9887  -12.6453   21.8977 N   0  0  0  0  0  0  0  0  0  0  0  0
  -20.4367  -30.7488   22.4441 N   0  0  0  0  0  0  0  0  0  0  0  0
  -25.8936  -34.7241   21.5055 N   0  0  0  0  0  0  0  0  0  0  0  0
  -31.0741  -19.4247   22.4302 N   0  3  1  0  0  0  0  0  0  0  0  0
  -28.6692  -35.1553   23.7810 N   0  3  0  0  0  0  0  0  0  0  0  0
  -31.9055  -23.4554   21.3369 N   0  3  0  0  0  0  0  0  0  0  0  0
  -22.7627  -14.7927   21.6776 O   0  0  0  0  0  0  0  0  0  0  0  0
  -22.0767  -30.9301   20.8009 O   0  0  0  0  0  0  0  0  0  0  0  0
  -23.0811  -34.3812   21.9305 O   0  0  0  0  0  0  0  0  0  0  0  0
  -27.7076  -33.3266   21.8712 O   0  0  0  0  0  0  0  0  0  0  0  0
  -32.1143  -14.3587   20.3982 O   0  0  0  0  0  0  0  0  0  0  0  0
  -21.6534   -7.0885   21.6882 O   0  0  0  0  0  0  0  0  0  0  0  0
  -26.5590  -26.7589   23.2750 O   0  0  0  0  0  0  0  0  0  1  0  0
  -19.1118   -6.6622   26.5628 F   0  0  0  0  0  0  0  0  0  0  0  0
  -22.2570   -5.0256   23.4268 F   0  0  0  0  0  0  0  0  0  0  0  0
  1  2  1  0  0  0  0
  1  5  2  0  0  0  0
  2  6  2  0  0  0  0
  3 10  2  0  0  0  0
  3 18  1  0  0  0  0
  4 11  1  0  0  0  0
  4 18  2  0  0  0  0
  5 20  1  0  0  0  0
  6 22  1  0  0  0  0
  7  9  2  0  0  0  0
  7 23  1  0  0  0  0
  8 12  2  0  0  0  0
  8 21  1  0  0  0  0
  9 25  1  0  0  0  0
 10 27  1  0  0  0  0
 11 27  2  0  0  0  0
 12 28  1  0  0  0  0
 13 14  2  0  0  0  0
 13 29  1  0  0  0  0
 14 30  1  0  0  0  0
 15 24  1  0  0  0  0
 15 28  2  0  0  0  0
 16 25  2  0  0  0  0
 16 26  1  0  0  0  0
 17 30  2  0  0  0  0
 17 31  1  0  0  0  0
 18 32  1  0  0  0  0
 19 32  1  0  0  0  0
 19 33  2  0  0  0  0
 19 34  1  0  0  0  0
 20 22  2  0  0  0  0
 20 39  1  0  0  0  0
 21 24  2  0  0  0  0
 21 40  1  0  0  0  0
 22 56  1  0  0  0  0
 23 26  2  0  0  0  0
 23 55  1  0  0  0  0
 24 41  1  0  0  0  0
 25 69  1  0  0  0  0
 26 61  1  0  0  0  0
 27 90  1  0  0  0  0
 28 91  1  0  0  0  0
 29 31  2  0  0  0  0
 29 90  1  0  0  0  0
 30 92  1  0  0  0  0
 31 93  1  0  0  0  0
 32 73  2  0  0  0  0
 33 74  1  0  0  0  0
 33 78  1  0  0  0  0
 34 79  1  0  0  0  0
 34 85  2  0  0  0  0
 35 57  1  0  0  0  0
 35 80  1  0  0  0  0
 35 86  2  0  0  0  0
 36 70  1  0  0  0  0
 36 75  1  0  0  0  0
 36 87  2  0  0  0  0
 37 71  1  0  0  0  0
 37 81  1  0  0  0  0
 37 88  2  0  0  0  0
 38 76  1  0  0  0  0
 38 77  1  0  0  0  0
 38 89  2  0  0  0  0
 39 42  1  0  0  0  0
 40 57  1  0  0  0  0
 41 75  1  0  0  0  0
 42 44  1  0  0  0  0
 43 45  1  0  0  0  0
 43 49  1  0  0  0  0
 44 56  1  0  0  0  0
 45 58  1  0  0  0  0
 46 50  1  0  0  0  0
 46 59  1  0  0  0  0
 47 51  1  0  0  0  0
 47 59  1  0  0  0  0
 48 53  1  0  0  0  0
 48 60  1  0  0  0  0
 49 76  1  0  0  0  0
 50 77  1  0  0  0  0
 51 77  1  0  0  0  0
 52 58  1  0  0  0  0
 52 76  1  0  0  0  0
 53 82  1  0  0  0  0
 54 55  1  0  0  0  0
 54 82  1  0  0  0  0
 55 60  1  0  0  0  0
 56 80  1  0  0  0  0
 57 75  1  0  0  0  0
 58 74  1  0  0  0  0
 59 82  1  0  0  0  0
 60 84  1  0  0  0  0
 62 71  1  0  0  0  0
 63 72  1  0  0  0  0
 64 72  1  0  0  0  0
 65 72  1  0  0  0  0
 66 83  1  0  0  0  0
 67 84  1  0  0  0  0
 68 84  1  0  0  0  0
 69 91  1  0  0  0  0
 70 72  1  0  0  0  0
 70 81  1  0  0  0  0
 71 83  1  0  0  0  0
 73 74  1  0  0  0  0
M  CHG  3  82   1  83   1  84   1
M  ISO  4  38 100  69 101  77 100  91 101
M  END
> <Batch ID>
0155

> <Smiles>
CNC(C)C(=O)NC(C(=O)N1Cc2cc([101O:1][101CH2:1]c3ccc(C4CN(C5CC[100N:0]([100C:0](=O)N6CCCC(n7nc(-c8ccc(Oc9ccc(F)cc9F)cc8)c(C(N)=O)c7N)C6)CC5)CCC4N(C)C)c(C)c3)ccc2CC1C(=O)NC1CCCc2ccccc21)C(C)(C)C

> <Shape>
0.280

> <Color>
0.178

> <Negative vol penalty>
0.000

$$$$

  -OEChem-04052321543D

 88 97  0     1  0  0  0  0  0999 V2000
  -27.5868  -36.8708   22.1371 C   0  0  0  0  0  0  0  0  0  0  0  0
  -27.9999  -35.6926   21.5235 C   0  0  0  0  0  0  0  0  0  0  0  0
  -23.6393   -9.7307   21.3871 C   0  0  0  0  0  0  0  0  0  0  0  0
  -24.3815  -10.7400   23.4529 C   0  0  0  0  0  0  0  0  0  0  0  0
  -26.8984  -36.8204   23.3484 C   0  0  0  0  0  0  0  0  0  0  0  0
  -27.7257  -34.4631   22.1215 C   0  0  0  0  0  0  0  0  0  0  0  0
  -26.4345  -29.1937   19.2805 C   0  0  0  0  0  0  0  0  0  0  0  0
  -23.1041   -8.6597   22.1026 C   0  0  0  0  0  0  0  0  0  0  0  0
  -23.8463   -9.6689   24.1685 C   0  0  0  0  0  0  0  0  0  0  0  0
  -27.2163  -28.0845   18.9605 C   0  0  0  0  0  0  0  0  0  0  0  0
  -20.3334   -8.0230   23.9331 C   0  0  0  0  0  0  0  0  0  0  0  0
  -19.0550   -7.5859   23.5864 C   0  0  0  0  0  0  0  0  0  0  0  0
  -26.4575  -26.9788   20.9657 C   0  0  0  0  0  0  0  0  0  0  0  0
  -28.3593  -22.4586   19.6408 C   0  0  0  0  0  0  0  0  0  0  0  0
  -31.0863  -22.9469   19.3127 C   0  0  0  0  0  0  0  0  0  0  0  0
  -19.9434   -5.4001   23.0666 C   0  0  0  0  0  0  0  0  0  0  0  0
  -24.2780  -10.7709   22.0622 C   0  0  0  0  0  0  0  0  0  0  0  0
  -24.1810  -13.0753   20.9722 C   0  0  0  0  0  0  0  0  0  0  0  0
  -26.6071  -35.5892   23.9568 C   0  0  0  0  0  0  0  0  0  0  0  0
  -25.6656  -29.2081   20.4530 C   0  0  0  0  0  0  0  0  0  0  0  0
  -27.0339  -34.3962   23.3428 C   0  0  0  0  0  0  0  0  0  0  0  0
  -25.6649  -28.0883   21.2970 C   0  0  0  0  0  0  0  0  0  0  0  0
  -28.8807  -23.7209   19.9240 C   0  0  0  0  0  0  0  0  0  0  0  0
  -29.2013  -21.4403   19.1936 C   0  0  0  0  0  0  0  0  0  0  0  0
  -30.2442  -23.9651   19.7599 C   0  0  0  0  0  0  0  0  0  0  0  0
  -23.2076   -8.6288   23.4933 C   0  0  0  0  0  0  0  0  0  0  0  0
  -27.2301  -26.9780   19.8046 C   0  0  0  0  0  0  0  0  0  0  0  0
  -21.4168   -7.1487   23.8465 C   0  0  0  0  0  0  0  0  0  0  0  0
  -30.5648  -21.6845   19.0296 C   0  0  0  0  0  0  0  0  0  0  0  0
  -18.8600   -6.2745   23.1531 C   0  0  0  0  0  0  0  0  0  0  0  0
  -21.2218   -5.8372   23.4133 C   0  0  0  0  0  0  0  0  0  0  0  0
  -24.8315  -11.8773   21.3236 C   0  0  0  0  0  0  0  0  0  0  0  0
  -25.1289  -13.7913   20.2828 C   0  0  0  0  0  0  0  0  0  0  0  0
  -22.8398  -13.5027   21.2448 C   0  0  0  0  0  0  0  0  0  0  0  0
  -25.6185  -30.9930   23.0828 C   0  0  0  0  0  0  0  0  0  0  0  0
  -22.9706  -29.2434   23.7536 C   0  0  0  0  0  0  0  0  0  0  0  0
  -21.2049  -26.3619   23.2782 C   0  0  0  0  0  0  0  0  0  0  0  0
  -30.5191  -15.5767   20.2492 C   0  0  0  0  0  0  0  0  0  0  0  0
  -25.9019  -35.5871   25.2900 C   0  0  0  0  0  0  0  0  0  0  0  0
  -24.8069  -30.4016   20.7703 C   0  0  0  0  0  0  0  0  0  0  0  0
  -24.8414  -28.0457   22.5573 C   0  0  0  0  0  0  0  0  0  0  0  0
  -25.3226  -34.2270   25.6704 C   0  0  0  0  0  0  0  0  0  0  0  0
  -29.6460  -12.4389   18.4780 C   0  0  0  0  0  0  0  0  0  0  0  0
  -26.3482  -33.1237   25.4300 C   0  0  0  0  0  0  0  0  0  0  0  0
  -28.2959  -12.0778   19.0956 C   0  0  0  0  0  0  0  0  0  0  0  0
  -29.6002  -19.0861   21.0082 C   0  0  0  0  0  0  0  0  0  0  0  0
  -27.6506  -17.9569   19.8862 C   0  0  0  0  0  0  0  0  0  0  0  0
  -30.5135  -13.2433   19.4414 C   0  0  0  0  0  0  0  0  0  0  0  0
  -30.5332  -18.0393   20.4065 C   0  0  0  0  0  0  0  0  0  0  0  0
  -28.6150  -16.9317   19.2999 C   0  0  0  0  0  0  0  0  0  0  0  0
  -28.4978  -14.1040   20.5891 C   0  0  0  0  0  0  0  0  0  0  0  0
  -26.7336  -33.0421   23.9480 C   0  0  1  0  0  0  0  0  0  0  0  0
  -24.4621  -30.5126   22.2523 C   0  0  1  0  0  0  0  0  0  0  0  0
  -27.5833  -13.3341   19.6251 C   0  0  2  0  0  0  0  0  0  0  0  0
  -28.3274  -19.3060   20.1773 C   0  0  0  0  0  0  0  0  0  0  0  0
  -30.8257  -25.3083   20.0566 C   0  0  0  0  0  0  0  0  0  0  0  0
  -19.0954  -25.2040   23.9901 C   0  0  0  0  0  0  0  0  0  0  0  0
  -24.2526  -28.5632   26.4375 C   0  0  0  0  0  0  0  0  0  0  0  0
  -22.5947  -26.7028   26.6791 C   0  0  0  0  0  0  0  0  0  0  0  0
  -21.8052  -29.0655   26.5479 C   0  0  0  0  0  0  0  0  0  0  0  0
  -20.1706  -26.2912   20.5062 C   0  0  0  0  0  0  0  0  0  0  0  0
  -32.7801  -21.0375   18.4556 C   0  0  0  0  0  0  0  0  0  0  0  0
  -28.6225  -20.0874   18.8925 C   0  0  0  0  0  0  0  0  0  0  0  0
  -27.9606  -24.7953   20.4030 C   0  0  0  0  0  0  0  0  0  1  0  0
  -22.7024  -27.9412   24.4687 C   0  0  1  0  0  0  0  0  0  0  0  0
  -19.7405  -26.1186   22.9605 C   0  0  2  0  0  0  0  0  0  0  0  0
  -22.8559  -28.0694   26.0106 C   0  0  0  0  0  0  0  0  0  0  0  0
  -26.0950  -11.8311   20.8928 N   0  0  0  0  0  0  0  0  0  0  0  0
  -26.2459  -13.0090   20.2636 N   0  0  0  0  0  0  0  0  0  0  0  0
  -24.0232  -29.2395   22.8274 N   0  0  0  0  0  0  0  0  0  0  0  0
  -29.7972  -14.4042   19.9701 N   0  0  0  0  0  0  0  0  0  0  0  0
  -29.8241  -16.7917   20.1227 N   0  0  0  0  0  0  0  0  0  0  0  0
  -25.1075  -15.0074   19.6972 N   0  0  0  0  0  0  0  0  0  0  0  0
  -21.9985  -12.6442   21.9656 N   0  0  0  0  0  0  0  0  0  0  0  0
  -25.6990  -32.3680   23.1932 N   0  0  0  0  0  0  0  0  0  0  0  0
  -21.3810  -27.5015   24.0342 N   0  0  0  0  0  0  0  0  0  0  0  0
  -19.5996  -25.4878   21.6177 N   0  3  0  0  0  0  0  0  0  0  0  0
  -22.3954  -14.6060   20.8463 O   0  0  0  0  0  0  0  0  0  0  0  0
  -26.3803  -30.1765   23.5874 O   0  0  0  0  0  0  0  0  0  0  0  0
  -22.2673  -30.2259   24.0022 O   0  0  0  0  0  0  0  0  0  0  0  0
  -22.1023  -25.6136   22.8972 O   0  0  0  0  0  0  0  0  0  0  0  0
  -31.7073  -15.5416   20.5925 O   0  0  0  0  0  0  0  0  0  0  0  0
  -27.4333  -20.1002   20.9631 O   0  0  0  0  0  0  0  0  0  0  0  0
  -22.6853   -7.5839   24.1919 O   0  0  0  0  0  0  0  0  0  0  0  0
  -31.4014  -20.7008   18.5950 O   0  0  0  0  0  0  0  0  0  0  0  0
  -27.9982  -25.8866   19.4927 O   0  0  0  0  0  0  0  0  0  1  0  0
  -17.6320   -5.8544   22.8217 F   0  0  0  0  0  0  0  0  0  0  0  0
  -22.2585   -4.9923   23.3292 F   0  0  0  0  0  0  0  0  0  0  0  0
  1  2  1  0  0  0  0
  1  5  2  0  0  0  0
  2  6  2  0  0  0  0
  3  8  2  0  0  0  0
  3 17  1  0  0  0  0
  4  9  1  0  0  0  0
  4 17  2  0  0  0  0
  5 19  1  0  0  0  0
  6 21  1  0  0  0  0
  7 10  2  0  0  0  0
  7 20  1  0  0  0  0
  8 26  1  0  0  0  0
  9 26  2  0  0  0  0
 10 27  1  0  0  0  0
 11 12  2  0  0  0  0
 11 28  1  0  0  0  0
 12 30  1  0  0  0  0
 13 22  1  0  0  0  0
 13 27  2  0  0  0  0
 14 23  1  0  0  0  0
 14 24  2  0  0  0  0
 15 25  1  0  0  0  0
 15 29  2  0  0  0  0
 16 30  2  0  0  0  0
 16 31  1  0  0  0  0
 17 32  1  0  0  0  0
 18 32  1  0  0  0  0
 18 33  2  0  0  0  0
 18 34  1  0  0  0  0
 19 21  2  0  0  0  0
 19 39  1  0  0  0  0
 20 22  2  0  0  0  0
 20 40  1  0  0  0  0
 21 52  1  0  0  0  0
 22 41  1  0  0  0  0
 23 25  2  0  0  0  0
 23 64  1  0  0  0  0
 24 29  1  0  0  0  0
 24 63  1  0  0  0  0
 25 56  1  0  0  0  0
 26 84  1  0  0  0  0
 27 86  1  0  0  0  0
 28 31  2  0  0  0  0
 28 84  1  0  0  0  0
 29 85  1  0  0  0  0
 30 87  1  0  0  0  0
 31 88  1  0  0  0  0
 32 68  2  0  0  0  0
 33 69  1  0  0  0  0
 33 73  1  0  0  0  0
 34 74  1  0  0  0  0
 34 78  2  0  0  0  0
 35 53  1  0  0  0  0
 35 75  1  0  0  0  0
 35 79  2  0  0  0  0
 36 65  1  0  0  0  0
 36 70  1  0  0  0  0
 36 80  2  0  0  0  0
 37 66  1  0  0  0  0
 37 76  1  0  0  0  0
 37 81  2  0  0  0  0
 38 71  1  0  0  0  0
 38 72  1  0  0  0  0
 38 82  2  0  0  0  0
 39 42  1  0  0  0  0
 40 53  1  0  0  0  0
 41 70  1  0  0  0  0
 42 44  1  0  0  0  0
 43 45  1  0  0  0  0
 43 48  1  0  0  0  0
 44 52  1  0  0  0  0
 45 54  1  0  0  0  0
 46 49  1  0  0  0  0
 46 55  1  0  0  0  0
 47 50  1  0  0  0  0
 47 55  1  0  0  0  0
 48 71  1  0  0  0  0
 49 72  1  0  0  0  0
 50 72  1  0  0  0  0
 51 54  1  0  0  0  0
 51 71  1  0  0  0  0
 52 75  1  0  0  0  0
 53 70  1  0  0  0  0
 54 69  1  0  0  0  0
 55 63  1  0  0  0  0
 55 83  1  0  0  0  0
 57 66  1  0  0  0  0
 58 67  1  0  0  0  0
 59 67  1  0  0  0  0
 60 67  1  0  0  0  0
 61 77  1  0  0  0  0
 62 85  1  0  0  0  0
 64 86  1  0  0  0  0
 65 67  1  0  0  0  0
 65 76  1  0  0  0  0
 66 77  1  0  0  0  0
 68 69  1  0  0  0  0
M  CHG  1  77   1
M  ISO  4  38 100  64 101  72 100  86 101
M  END
> <Batch ID>
0155

> <Smiles>
CNC(C)C(=O)NC(C(=O)N1Cc2cc([101O:1][101CH2:1]c3cc(CC4(O)CC[100N:0]([100C:0](=O)N5CCCC(n6nc(-c7ccc(Oc8ccc(F)cc8F)cc7)c(C(N)=O)c6N)C5)CC4)c(OC)cc3C)ccc2CC1C(=O)NC1CCCc2ccccc21)C(C)(C)C

> <Shape>
0.378

> <Color>
0.153

> <Negative vol penalty>
0.000

$$$$

  -OEChem-04052321543D

 93102  0     1  0  0  0  0  0999 V2000
  -31.5149  -16.9905   31.2351 C   0  0  0  0  0  0  0  0  0  0  0  0
  -32.0419  -18.2140   30.8342 C   0  0  0  0  0  0  0  0  0  0  0  0
  -23.0732   -9.8690   19.9418 C   0  0  0  0  0  0  0  0  0  0  0  0
  -23.8338   -9.8773   22.2349 C   0  0  0  0  0  0  0  0  0  0  0  0
  -30.4594  -16.4209   30.5242 C   0  0  0  0  0  0  0  0  0  0  0  0
  -31.5143  -18.8682   29.7215 C   0  0  0  0  0  0  0  0  0  0  0  0
  -30.9508  -24.9149   28.9301 C   0  0  0  0  0  0  0  0  0  0  0  0
  -22.3301   -8.7155   20.1924 C   0  0  0  0  0  0  0  0  0  0  0  0
  -23.0907   -8.7238   22.4856 C   0  0  0  0  0  0  0  0  0  0  0  0
  -31.7303  -25.8483   28.2483 C   0  0  0  0  0  0  0  0  0  0  0  0
  -19.3828   -7.9177   21.6450 C   0  0  0  0  0  0  0  0  0  0  0  0
  -18.0758   -7.8705   21.1602 C   0  0  0  0  0  0  0  0  0  0  0  0
  -31.2641  -21.3720   22.5894 C   0  0  0  0  0  0  0  0  0  0  0  0
  -33.1729  -20.7250   21.2573 C   0  0  0  0  0  0  0  0  0  0  0  0
  -30.2833  -25.6457   26.3288 C   0  0  0  0  0  0  0  0  0  0  0  0
  -18.6362   -5.9272   19.8385 C   0  0  0  0  0  0  0  0  0  0  0  0
  -23.8251  -10.4499   20.9630 C   0  0  0  0  0  0  0  0  0  0  0  0
  -24.1653  -12.9752   20.8419 C   0  0  0  0  0  0  0  0  0  0  0  0
  -29.9122  -17.0731   29.4080 C   0  0  0  0  0  0  0  0  0  0  0  0
  -29.8361  -24.3307   28.3114 C   0  0  0  0  0  0  0  0  0  0  0  0
  -30.4513  -18.3062   28.9943 C   0  0  0  0  0  0  0  0  0  0  0  0
  -32.5500  -21.6312   22.1154 C   0  0  0  0  0  0  0  0  0  0  0  0
  -29.4898  -24.7070   27.0058 C   0  0  0  0  0  0  0  0  0  0  0  0
  -30.6010  -20.2065   22.2054 C   0  0  0  0  0  0  0  0  0  0  0  0
  -31.2238  -19.3002   21.3473 C   0  0  0  0  0  0  0  0  0  0  0  0
  -22.3388   -8.1429   21.4643 C   0  0  0  0  0  0  0  0  0  0  0  0
  -31.3983  -26.2117   26.9464 C   0  0  0  0  0  0  0  0  0  0  0  0
  -20.3166   -6.9697   21.2265 C   0  0  0  0  0  0  0  0  0  0  0  0
  -32.5098  -19.5594   20.8732 C   0  0  0  0  0  0  0  0  0  0  0  0
  -17.7025   -6.8752   20.2570 C   0  0  0  0  0  0  0  0  0  0  0  0
  -19.9433   -5.9745   20.3233 C   0  0  0  0  0  0  0  0  0  0  0  0
  -24.5934  -11.6411   20.7046 C   0  0  0  0  0  0  0  0  0  0  0  0
  -25.2569  -13.7252   20.4780 C   0  0  0  0  0  0  0  0  0  0  0  0
  -22.8947  -13.4904   21.2610 C   0  0  0  0  0  0  0  0  0  0  0  0
  -29.0137  -21.3677   27.5065 C   0  0  0  0  0  0  0  0  0  0  0  0
  -26.1993  -22.7779   26.7240 C   0  0  0  0  0  0  0  0  0  0  0  0
  -24.5337  -25.6157   25.8186 C   0  0  0  0  0  0  0  0  0  0  0  0
  -30.7401  -14.7477   20.6641 C   0  0  0  0  0  0  0  0  0  0  0  0
  -28.8029  -16.3956   28.6431 C   0  0  0  0  0  0  0  0  0  0  0  0
  -28.9899  -23.3453   29.0700 C   0  0  0  0  0  0  0  0  0  0  0  0
  -28.2913  -24.1243   26.3041 C   0  0  0  0  0  0  0  0  0  0  0  0
  -28.0535  -17.3325   27.6991 C   0  0  0  0  0  0  0  0  0  0  0  0
  -29.6032  -12.3615   18.2787 C   0  0  0  0  0  0  0  0  0  0  0  0
  -29.0362  -18.1736   26.8906 C   0  0  0  0  0  0  0  0  0  0  0  0
  -28.1660  -12.0671   18.7122 C   0  0  0  0  0  0  0  0  0  0  0  0
  -32.4756  -24.1170   22.0639 C   0  0  0  0  0  0  0  0  0  0  0  0
  -33.4532  -22.9028   24.0530 C   0  0  0  0  0  0  0  0  0  0  0  0
  -30.5206  -12.5834   19.4792 C   0  0  0  0  0  0  0  0  0  0  0  0
  -28.6188  -13.3138   20.8661 C   0  0  0  0  0  0  0  0  0  0  0  0
  -33.1313  -25.4065   22.5411 C   0  0  0  0  0  0  0  0  0  0  0  0
  -34.1018  -24.2015   24.5148 C   0  0  0  0  0  0  0  0  0  0  0  0
  -33.2609  -22.8797   22.5281 C   0  0  0  0  0  0  0  0  0  0  0  0
  -29.8896  -19.0583   27.8073 C   0  0  1  0  0  0  0  0  0  0  0  0
  -28.1764  -22.4309   28.1593 C   0  0  1  0  0  0  0  0  0  0  0  0
  -27.6444  -13.1382   19.6889 C   0  0  2  0  0  0  0  0  0  0  0  0
  -29.2251  -19.9514   22.7280 C   0  0  0  0  0  0  0  0  0  0  0  0
  -22.2456  -26.4479   25.2111 C   0  0  0  0  0  0  0  0  0  0  0  0
  -34.4073  -27.8276   26.7819 C   0  0  0  0  0  0  0  0  0  0  0  0
  -26.4693  -21.5001   23.9665 C   0  0  0  0  0  0  0  0  0  0  0  0
  -24.7234  -23.0904   23.1353 C   0  0  0  0  0  0  0  0  0  0  0  0
  -24.1585  -21.4427   24.9210 C   0  0  0  0  0  0  0  0  0  0  0  0
  -24.4836  -27.4952   28.1042 C   0  0  0  0  0  0  0  0  0  0  0  0
  -34.4470  -19.0318   19.5986 C   0  0  0  0  0  0  0  0  0  0  0  0
  -30.8050  -16.8988   21.9002 C   0  0  0  0  0  0  0  0  0  0  0  0
  -33.7985  -26.6751   24.5808 C   0  0  0  0  0  0  0  0  0  0  0  0
  -25.6340  -23.4183   25.4793 C   0  0  1  0  0  0  0  0  0  0  0  0
  -23.2486  -26.2374   26.3347 C   0  0  2  0  0  0  0  0  0  0  0  0
  -33.5331  -26.7982   26.0777 C   0  0  2  0  0  0  0  0  0  1  0  0
  -30.5171  -18.0495   20.9317 C   0  0  0  0  0  0  0  0  0  0  0  0
  -25.2701  -22.3726   24.3878 C   0  0  0  0  0  0  0  0  0  0  0  0
  -25.8581  -11.5459   20.2859 N   0  0  0  0  0  0  0  0  0  0  0  0
  -26.2342  -12.8297   20.1570 N   0  0  0  0  0  0  0  0  0  0  0  0
  -27.4989  -23.1602   27.0853 N   0  0  0  0  0  0  0  0  0  0  0  0
  -29.9697  -13.6119   20.3649 N   0  0  0  0  0  0  0  0  0  0  0  0
  -25.4665  -15.0568   20.4044 N   0  0  0  0  0  0  0  0  0  0  0  0
  -21.8834  -12.5808   21.5990 N   0  0  0  0  0  0  0  0  0  0  0  0
  -29.1305  -20.2084   28.2494 N   0  0  0  0  0  0  0  0  0  0  0  0
  -24.5112  -24.2406   25.9171 N   0  0  0  0  0  0  0  0  0  0  0  0
  -30.1407  -15.6765   21.5060 N   0  0  0  0  0  0  0  0  0  0  0  0
  -33.2796  -25.3895   24.0510 N   0  3  0  0  0  0  0  0  0  0  0  0
  -23.5293  -27.5572   26.9674 N   0  3  0  0  0  0  0  0  0  0  0  0
  -22.6577  -14.7209   21.3180 O   0  0  0  0  0  0  0  0  0  0  0  0
  -29.5154  -21.5826   26.4093 O   0  0  0  0  0  0  0  0  0  0  0  0
  -25.5102  -21.9737   27.3565 O   0  0  0  0  0  0  0  0  0  0  0  0
  -25.4630  -26.2830   25.3695 O   0  0  0  0  0  0  0  0  0  0  0  0
  -31.8758  -14.9236   20.2101 O   0  0  0  0  0  0  0  0  0  0  0  0
  -21.6136   -7.0175   21.7094 O   0  0  0  0  0  0  0  0  0  0  0  0
  -33.1334  -18.6863   20.0335 O   0  0  0  0  0  0  0  0  0  0  0  0
  -32.1578  -27.1220   26.2784 O   0  0  0  0  0  0  0  0  0  1  0  0
  -16.4469   -6.8291   19.7927 F   0  0  0  0  0  0  0  0  0  0  0  0
  -20.8357   -5.0603   19.9186 F   0  0  0  0  0  0  0  0  0  0  0  0
  -29.1571  -18.2096   20.8679 F   0  0  0  0  0  0  0  0  0  0  0  0
  -30.8755  -17.6356   19.6749 F   0  0  0  0  0  0  0  0  0  0  0  0
  1  2  1  0  0  0  0
  1  5  2  0  0  0  0
  2  6  2  0  0  0  0
  3  8  2  0  0  0  0
  3 17  1  0  0  0  0
  4  9  1  0  0  0  0
  4 17  2  0  0  0  0
  5 19  1  0  0  0  0
  6 21  1  0  0  0  0
  7 10  2  0  0  0  0
  7 20  1  0  0  0  0
  8 26  1  0  0  0  0
  9 26  2  0  0  0  0
 10 27  1  0  0  0  0
 11 12  2  0  0  0  0
 11 28  1  0  0  0  0
 12 30  1  0  0  0  0
 13 22  1  0  0  0  0
 13 24  2  0  0  0  0
 14 22  2  0  0  0  0
 14 29  1  0  0  0  0
 15 23  1  0  0  0  0
 15 27  2  0  0  0  0
 16 30  2  0  0  0  0
 16 31  1  0  0  0  0
 17 32  1  0  0  0  0
 18 32  1  0  0  0  0
 18 33  2  0  0  0  0
 18 34  1  0  0  0  0
 19 21  2  0  0  0  0
 19 39  1  0  0  0  0
 20 23  2  0  0  0  0
 20 40  1  0  0  0  0
 21 53  1  0  0  0  0
 22 52  1  0  0  0  0
 23 41  1  0  0  0  0
 24 25  1  0  0  0  0
 24 56  1  0  0  0  0
 25 29  2  0  0  0  0
 25 69  1  0  0  0  0
 26 87  1  0  0  0  0
 27 89  1  0  0  0  0
 28 31  2  0  0  0  0
 28 87  1  0  0  0  0
 29 88  1  0  0  0  0
 30 90  1  0  0  0  0
 31 91  1  0  0  0  0
 32 71  2  0  0  0  0
 33 72  1  0  0  0  0
 33 75  1  0  0  0  0
 34 76  1  0  0  0  0
 34 82  2  0  0  0  0
 35 54  1  0  0  0  0
 35 77  1  0  0  0  0
 35 83  2  0  0  0  0
 36 66  1  0  0  0  0
 36 73  1  0  0  0  0
 36 84  2  0  0  0  0
 37 67  1  0  0  0  0
 37 78  1  0  0  0  0
 37 85  2  0  0  0  0
 38 74  1  0  0  0  0
 38 79  1  0  0  0  0
 38 86  2  0  0  0  0
 39 42  1  0  0  0  0
 40 54  1  0  0  0  0
 41 73  1  0  0  0  0
 42 44  1  0  0  0  0
 43 45  1  0  0  0  0
 43 48  1  0  0  0  0
 44 53  1  0  0  0  0
 45 55  1  0  0  0  0
 46 50  1  0  0  0  0
 46 52  1  0  0  0  0
 47 51  1  0  0  0  0
 47 52  1  0  0  0  0
 48 74  1  0  0  0  0
 49 55  1  0  0  0  0
 49 74  1  0  0  0  0
 50 80  1  0  0  0  0
 51 80  1  0  0  0  0
 53 77  1  0  0  0  0
 54 73  1  0  0  0  0
 55 72  1  0  0  0  0
 57 67  1  0  0  0  0
 58 68  1  0  0  0  0
 59 70  1  0  0  0  0
 60 70  1  0  0  0  0
 61 70  1  0  0  0  0
 62 81  1  0  0  0  0
 63 88  1  0  0  0  0
 64 69  1  0  0  0  0
 64 79  1  0  0  0  0
 65 68  1  0  0  0  0
 65 80  1  0  0  0  0
 66 70  1  0  0  0  0
 66 78  1  0  0  0  0
 67 81  1  0  0  0  0
 68 89  1  0  0  0  0
 69 92  1  0  0  0  0
 69 93  1  0  0  0  0
 71 72  1  0  0  0  0
M  CHG  2  80   1  81   1
M  ISO  4  38 100  68 101  79 100  89 101
M  END
> <Batch ID>
0155

> <Smiles>
CNC(C)C(=O)NC(C(=O)N1Cc2cc([101O:1][101CH:1](C)CN3CCC(c4cc(C)c(C(F)(F)C[100NH:0][100C:0](=O)N5CCCC(n6nc(-c7ccc(Oc8ccc(F)cc8F)cc7)c(C(N)=O)c6N)C5)c(OC)c4)CC3)ccc2CC1C(=O)NC1CCCc2ccccc21)C(C)(C)C

> <Shape>
0.155

> <Color>
0.184

> <Negative vol penalty>
0.000

$$$$

  -OEChem-04052321543D

 88 97  0     1  0  0  0  0  0999 V2000
  -22.8897   -8.1130   20.4491 C   0  0  0  0  0  0  0  0  0  0  0  0
  -22.2459   -9.1559   19.7910 C   0  0  0  0  0  0  0  0  0  0  0  0
  -27.9328  -28.6829   20.8180 C   0  0  0  0  0  0  0  0  0  0  0  0
  -26.3999  -27.0315   19.9463 C   0  0  0  0  0  0  0  0  0  0  0  0
  -23.6247   -8.3685   21.6060 C   0  0  0  0  0  0  0  0  0  0  0  0
  -22.3357  -10.4549   20.2900 C   0  0  0  0  0  0  0  0  0  0  0  0
  -22.5434  -17.2735   18.1038 C   0  0  0  0  0  0  0  0  0  0  0  0
  -28.9848  -27.7769   20.6846 C   0  0  0  0  0  0  0  0  0  0  0  0
  -27.4520  -26.1254   19.8128 C   0  0  0  0  0  0  0  0  0  0  0  0
  -21.9128  -18.4964   18.3288 C   0  0  0  0  0  0  0  0  0  0  0  0
  -29.9911  -25.5593   17.6557 C   0  0  0  0  0  0  0  0  0  0  0  0
  -30.0725  -24.8335   16.4674 C   0  0  0  0  0  0  0  0  0  0  0  0
  -23.2758  -18.8315   20.2907 C   0  0  0  0  0  0  0  0  0  0  0  0
  -29.8763  -22.7725   17.7128 C   0  0  0  0  0  0  0  0  0  0  0  0
  -26.6403  -28.3102   20.4489 C   0  0  0  0  0  0  0  0  0  0  0  0
  -25.1009  -30.1712   19.6276 C   0  0  0  0  0  0  0  0  0  0  0  0
  -23.7317   -9.6728   22.1141 C   0  0  0  0  0  0  0  0  0  0  0  0
  -23.5390  -16.8146   18.9782 C   0  0  0  0  0  0  0  0  0  0  0  0
  -23.0718  -10.7279   21.4556 C   0  0  0  0  0  0  0  0  0  0  0  0
  -23.9193  -17.6037   20.0731 C   0  0  0  0  0  0  0  0  0  0  0  0
  -18.7588  -23.5828   20.5509 C   0  0  0  0  0  0  0  0  0  0  0  0
  -19.9975  -24.5932   18.7393 C   0  0  0  0  0  0  0  0  0  0  0  0
  -19.2539  -22.3296   20.1905 C   0  0  0  0  0  0  0  0  0  0  0  0
  -20.4926  -23.3400   18.3789 C   0  0  0  0  0  0  0  0  0  0  0  0
  -19.1305  -24.7146   19.8253 C   0  0  0  0  0  0  0  0  0  0  0  0
  -20.1208  -22.2082   19.1045 C   0  0  0  0  0  0  0  0  0  0  0  0
  -28.7445  -26.4981   20.1820 C   0  0  0  0  0  0  0  0  0  0  0  0
  -22.2769  -19.2743   19.4240 C   0  0  0  0  0  0  0  0  0  0  0  0
  -29.8524  -24.8918   18.8726 C   0  0  0  0  0  0  0  0  0  0  0  0
  -30.0151  -23.4401   16.4959 C   0  0  0  0  0  0  0  0  0  0  0  0
  -29.7949  -23.4984   18.9012 C   0  0  0  0  0  0  0  0  0  0  0  0
  -25.5530  -29.2455   20.5870 C   0  0  0  0  0  0  0  0  0  0  0  0
  -24.0551  -30.8174   20.2400 C   0  0  0  0  0  0  0  0  0  0  0  0
  -25.5832  -30.4244   18.3013 C   0  0  0  0  0  0  0  0  0  0  0  0
  -23.8606  -14.2924   20.8857 C   0  0  0  0  0  0  0  0  0  0  0  0
  -26.8517  -15.4771   21.3009 C   0  0  0  0  0  0  0  0  0  0  0  0
  -28.9364  -18.1777   21.2123 C   0  0  0  0  0  0  0  0  0  0  0  0
  -20.2708  -29.4033   24.4935 C   0  0  0  0  0  0  0  0  0  0  0  0
  -24.4983   -9.8926   23.3942 C   0  0  0  0  0  0  0  0  0  0  0  0
  -24.2284  -15.5057   18.7065 C   0  0  0  0  0  0  0  0  0  0  0  0
  -24.9966  -17.1656   21.0302 C   0  0  0  0  0  0  0  0  0  0  0  0
  -24.8536  -11.3553   23.6478 C   0  0  0  0  0  0  0  0  0  0  0  0
  -22.4393  -32.0956   24.5522 C   0  0  0  0  0  0  0  0  0  0  0  0
  -23.6409  -12.2488   23.4071 C   0  0  0  0  0  0  0  0  0  0  0  0
  -23.4469  -31.7740   23.4487 C   0  0  0  0  0  0  0  0  0  0  0  0
  -18.0535  -27.5077   22.2095 C   0  0  0  0  0  0  0  0  0  0  0  0
  -20.4500  -26.9269   21.6913 C   0  0  0  0  0  0  0  0  0  0  0  0
  -22.0902  -30.8466   25.3537 C   0  0  0  0  0  0  0  0  0  0  0  0
  -18.4828  -27.9538   23.6044 C   0  0  0  0  0  0  0  0  0  0  0  0
  -20.8329  -27.3784   23.0968 C   0  0  0  0  0  0  0  0  0  0  0  0
  -22.5637  -29.3892   23.4127 C   0  0  0  0  0  0  0  0  0  0  0  0
  -23.1662  -12.1543   21.9521 C   0  0  1  0  0  0  0  0  0  0  0  0
  -24.8689  -14.8982   19.9508 C   0  0  1  0  0  0  0  0  0  0  0  0
  -18.9958  -26.4391   21.6404 C   0  0  0  0  0  0  0  0  0  0  0  0
  -22.9472  -30.6180   22.5640 C   0  0  2  0  0  0  0  0  0  0  0  0
  -17.8290  -23.7133   21.7161 C   0  0  0  0  0  0  0  0  0  0  0  0
  -20.3969  -25.8071   17.9608 C   0  0  0  0  0  0  0  0  0  0  0  0
  -18.8549  -21.1156   20.9691 C   0  0  0  0  0  0  0  0  0  0  0  0
  -21.4240  -23.2093   17.2150 C   0  0  0  0  0  0  0  0  0  0  0  0
  -31.0902  -19.4610   21.3187 C   0  0  0  0  0  0  0  0  0  0  0  0
  -26.3333  -15.3910   24.3066 C   0  0  0  0  0  0  0  0  0  0  0  0
  -28.2981  -16.9111   24.6185 C   0  0  0  0  0  0  0  0  0  0  0  0
  -28.6206  -14.6477   23.6207 C   0  0  0  0  0  0  0  0  0  0  0  0
  -29.4729  -17.7418   18.3346 C   0  0  0  0  0  0  0  0  0  0  0  0
  -18.5975  -26.0662   20.2144 C   0  0  0  0  0  0  0  0  0  0  0  0
  -20.6542  -20.8640   18.7200 C   0  0  0  0  0  0  0  0  0  1  0  0
  -27.4915  -16.4535   22.2582 C   0  0  1  0  0  0  0  0  0  0  0  0
  -30.3133  -18.3677   20.6020 C   0  0  2  0  0  0  0  0  0  0  0  0
  -27.6642  -15.8585   23.6842 C   0  0  0  0  0  0  0  0  0  0  0  0
  -24.8518  -29.2961   21.7227 N   0  0  0  0  0  0  0  0  0  0  0  0
  -23.9486  -30.2614   21.4809 N   0  0  0  0  0  0  0  0  0  0  0  0
  -25.6366  -15.8752   20.7256 N   0  0  0  0  0  0  0  0  0  0  0  0
  -21.6246  -29.7716   24.4778 N   0  0  0  0  0  0  0  0  0  0  0  0
  -19.8850  -28.3679   23.6261 N   0  0  0  0  0  0  0  0  0  0  0  0
  -23.2253  -31.8014   19.8329 N   0  0  0  0  0  0  0  0  0  0  0  0
  -26.6658  -29.6700   17.8287 N   0  0  0  0  0  0  0  0  0  0  0  0
  -24.0254  -12.9355   21.0884 N   0  0  0  0  0  0  0  0  0  0  0  0
  -28.7391  -16.8796   21.6334 N   0  0  0  0  0  0  0  0  0  0  0  0
  -30.1954  -18.7404   19.1639 N   0  3  0  0  0  0  0  0  0  0  0  0
  -25.0798  -31.3050   17.5633 O   0  0  0  0  0  0  0  0  0  0  0  0
  -22.9980  -15.0037   21.3873 O   0  0  0  0  0  0  0  0  0  0  0  0
  -27.4130  -14.4039   21.0667 O   0  0  0  0  0  0  0  0  0  0  0  0
  -28.1191  -19.0904   21.3094 O   0  0  0  0  0  0  0  0  0  0  0  0
  -19.4538  -29.9663   25.2328 O   0  0  0  0  0  0  0  0  0  0  0  0
  -29.7709  -25.6138   20.0515 O   0  0  0  0  0  0  0  0  0  0  0  0
  -21.6579  -20.4769   19.6479 O   0  0  0  0  0  0  0  0  0  1  0  0
  -30.0917  -22.7433   15.3546 F   0  0  0  0  0  0  0  0  0  0  0  0
  -29.6605  -22.8515   20.0671 F   0  0  0  0  0  0  0  0  0  0  0  0
  1  2  1  0  0  0  0
  1  5  2  0  0  0  0
  2  6  2  0  0  0  0
  3  8  2  0  0  0  0
  3 15  1  0  0  0  0
  4  9  1  0  0  0  0
  4 15  2  0  0  0  0
  5 17  1  0  0  0  0
  6 19  1  0  0  0  0
  7 10  2  0  0  0  0
  7 18  1  0  0  0  0
  8 27  1  0  0  0  0
  9 27  2  0  0  0  0
 10 28  1  0  0  0  0
 11 12  2  0  0  0  0
 11 29  1  0  0  0  0
 12 30  1  0  0  0  0
 13 20  1  0  0  0  0
 13 28  2  0  0  0  0
 14 30  2  0  0  0  0
 14 31  1  0  0  0  0
 15 32  1  0  0  0  0
 16 32  1  0  0  0  0
 16 33  2  0  0  0  0
 16 34  1  0  0  0  0
 17 19  2  0  0  0  0
 17 39  1  0  0  0  0
 18 20  2  0  0  0  0
 18 40  1  0  0  0  0
 19 52  1  0  0  0  0
 20 41  1  0  0  0  0
 21 23  2  0  0  0  0
 21 25  1  0  0  0  0
 21 56  1  0  0  0  0
 22 24  1  0  0  0  0
 22 25  2  0  0  0  0
 22 57  1  0  0  0  0
 23 26  1  0  0  0  0
 23 58  1  0  0  0  0
 24 26  2  0  0  0  0
 24 59  1  0  0  0  0
 25 65  1  0  0  0  0
 26 66  1  0  0  0  0
 27 85  1  0  0  0  0
 28 86  1  0  0  0  0
 29 31  2  0  0  0  0
 29 85  1  0  0  0  0
 30 87  1  0  0  0  0
 31 88  1  0  0  0  0
 32 70  2  0  0  0  0
 33 71  1  0  0  0  0
 33 75  1  0  0  0  0
 34 76  1  0  0  0  0
 34 80  2  0  0  0  0
 35 53  1  0  0  0  0
 35 77  1  0  0  0  0
 35 81  2  0  0  0  0
 36 67  1  0  0  0  0
 36 72  1  0  0  0  0
 36 82  2  0  0  0  0
 37 68  1  0  0  0  0
 37 78  1  0  0  0  0
 37 83  2  0  0  0  0
 38 73  1  0  0  0  0
 38 74  1  0  0  0  0
 38 84  2  0  0  0  0
 39 42  1  0  0  0  0
 40 53  1  0  0  0  0
 41 72  1  0  0  0  0
 42 44  1  0  0  0  0
 43 45  1  0  0  0  0
 43 48  1  0  0  0  0
 44 52  1  0  0  0  0
 45 55  1  0  0  0  0
 46 49  1  0  0  0  0
 46 54  1  0  0  0  0
 47 50  1  0  0  0  0
 47 54  1  0  0  0  0
 48 73  1  0  0  0  0
 49 74  1  0  0  0  0
 50 74  1  0  0  0  0
 51 55  1  0  0  0  0
 51 73  1  0  0  0  0
 52 77  1  0  0  0  0
 53 72  1  0  0  0  0
 54 65  1  0  0  0  0
 55 71  1  0  0  0  0
 60 68  1  0  0  0  0
 61 69  1  0  0  0  0
 62 69  1  0  0  0  0
 63 69  1  0  0  0  0
 64 79  1  0  0  0  0
 66 86  1  0  0  0  0
 67 69  1  0  0  0  0
 67 78  1  0  0  0  0
 68 79  1  0  0  0  0
 70 71  1  0  0  0  0
M  CHG  1  79   1
M  ISO  4  38 100  66 101  74 100  86 101
M  END
> <Batch ID>
0155

> <Smiles>
CNC(C)C(=O)NC(C(=O)N1Cc2cc([101O:1][101CH2:1]c3c(C)c(C)c(CC4CC[100N:0]([100C:0](=O)N5CCCC(n6nc(-c7ccc(Oc8ccc(F)cc8F)cc7)c(C(N)=O)c6N)C5)CC4)c(C)c3C)ccc2CC1C(=O)NC1CCCc2ccccc21)C(C)(C)C

> <Shape>
0.283

> <Color>
0.067

> <Negative vol penalty>
0.000

$$$$

  -OEChem-04052321543D

 88 97  0     1  0  0  0  0  0999 V2000
  -27.3080  -37.7251   23.1757 C   0  0  0  0  0  0  0  0  0  0  0  0
  -27.8839  -36.5898   22.6146 C   0  0  0  0  0  0  0  0  0  0  0  0
  -23.8696  -11.6536   23.9094 C   0  0  0  0  0  0  0  0  0  0  0  0
  -22.1066  -11.5016   22.2644 C   0  0  0  0  0  0  0  0  0  0  0  0
  -26.2928  -37.5951   24.1225 C   0  0  0  0  0  0  0  0  0  0  0  0
  -27.4457  -35.3237   23.0008 C   0  0  0  0  0  0  0  0  0  0  0  0
  -27.0509  -30.3310   19.4762 C   0  0  0  0  0  0  0  0  0  0  0  0
  -22.9730  -11.2680   24.9059 C   0  0  0  0  0  0  0  0  0  0  0  0
  -21.2100  -11.1160   23.2609 C   0  0  0  0  0  0  0  0  0  0  0  0
  -27.8924  -29.2321   19.3088 C   0  0  0  0  0  0  0  0  0  0  0  0
  -18.5416   -9.7422   25.3128 C   0  0  0  0  0  0  0  0  0  0  0  0
  -17.6900   -8.6714   25.0410 C   0  0  0  0  0  0  0  0  0  0  0  0
  -26.5759  -27.9888   20.9026 C   0  0  0  0  0  0  0  0  0  0  0  0
  -30.1682  -25.0299   17.7507 C   0  0  0  0  0  0  0  0  0  0  0  0
  -31.8840  -24.2604   19.8115 C   0  0  0  0  0  0  0  0  0  0  0  0
  -19.6033   -7.2338   24.7099 C   0  0  0  0  0  0  0  0  0  0  0  0
  -23.4364  -11.7705   22.5886 C   0  0  0  0  0  0  0  0  0  0  0  0
  -25.1700  -11.3287   20.7701 C   0  0  0  0  0  0  0  0  0  0  0  0
  -25.8352  -36.3268   24.5133 C   0  0  0  0  0  0  0  0  0  0  0  0
  -25.9702  -30.2706   20.3677 C   0  0  0  0  0  0  0  0  0  0  0  0
  -26.4243  -35.1765   23.9546 C   0  0  0  0  0  0  0  0  0  0  0  0
  -25.7206  -29.0875   21.0776 C   0  0  0  0  0  0  0  0  0  0  0  0
  -30.3233  -25.8467   18.8707 C   0  0  0  0  0  0  0  0  0  0  0  0
  -30.8709  -23.8283   17.6611 C   0  0  0  0  0  0  0  0  0  0  0  0
  -31.1812  -25.4620   19.9011 C   0  0  0  0  0  0  0  0  0  0  0  0
  -21.6433  -10.9992   24.5817 C   0  0  0  0  0  0  0  0  0  0  0  0
  -27.6567  -28.0617   20.0242 C   0  0  0  0  0  0  0  0  0  0  0  0
  -19.9240   -9.5588   25.2830 C   0  0  0  0  0  0  0  0  0  0  0  0
  -31.7289  -23.4436   18.6915 C   0  0  0  0  0  0  0  0  0  0  0  0
  -18.2208   -7.4172   24.7396 C   0  0  0  0  0  0  0  0  0  0  0  0
  -20.4549   -8.3046   24.9816 C   0  0  0  0  0  0  0  0  0  0  0  0
  -24.3619  -12.1693   21.5588 C   0  0  0  0  0  0  0  0  0  0  0  0
  -25.8604  -12.1871   19.9497 C   0  0  0  0  0  0  0  0  0  0  0  0
  -25.2862   -9.8996   20.7783 C   0  0  0  0  0  0  0  0  0  0  0  0
  -25.1490  -31.8406   23.0067 C   0  0  0  0  0  0  0  0  0  0  0  0
  -22.4213  -30.1085   22.7207 C   0  0  0  0  0  0  0  0  0  0  0  0
  -20.8748  -27.3183   21.5084 C   0  0  0  0  0  0  0  0  0  0  0  0
  -28.7306  -16.6250   19.0077 C   0  0  0  0  0  0  0  0  0  0  0  0
  -24.7680  -36.2356   25.5751 C   0  0  0  0  0  0  0  0  0  0  0  0
  -25.0560  -31.4557   20.5169 C   0  0  0  0  0  0  0  0  0  0  0  0
  -24.5619  -28.9646   22.0319 C   0  0  0  0  0  0  0  0  0  0  0  0
  -24.1023  -34.8641   25.6534 C   0  0  0  0  0  0  0  0  0  0  0  0
  -25.2536  -17.1249   19.0743 C   0  0  0  0  0  0  0  0  0  0  0  0
  -25.1534  -33.7587   25.6341 C   0  0  0  0  0  0  0  0  0  0  0  0
  -24.7687  -15.8031   19.6689 C   0  0  0  0  0  0  0  0  0  0  0  0
  -26.5267  -17.6280   19.7571 C   0  0  0  0  0  0  0  0  0  0  0  0
  -29.0972  -19.0662   19.5827 C   0  0  0  0  0  0  0  0  0  0  0  0
  -30.2637  -18.0344   17.6688 C   0  0  0  0  0  0  0  0  0  0  0  0
  -27.1395  -15.3139   20.3804 C   0  0  0  0  0  0  0  0  0  0  0  0
  -30.4354  -19.4726   20.1914 C   0  0  0  0  0  0  0  0  0  0  0  0
  -31.6157  -18.4014   18.2584 C   0  0  0  0  0  0  0  0  0  0  0  0
  -25.9589  -33.7861   24.3295 C   0  0  1  0  0  0  0  0  0  0  0  0
  -24.2893  -31.4565   21.8358 C   0  0  1  0  0  0  0  0  0  0  0  0
  -25.8947  -14.7540   19.6748 C   0  0  1  0  0  0  0  0  0  0  0  0
  -30.6936  -22.9668   16.4546 C   0  0  0  0  0  0  0  0  0  0  0  0
  -31.3638  -26.3197   21.1100 C   0  0  0  0  0  0  0  0  0  0  0  0
  -18.6493  -26.1594   21.4693 C   0  0  0  0  0  0  0  0  0  0  0  0
  -22.8543  -29.1851   25.5964 C   0  0  0  0  0  0  0  0  0  0  0  0
  -21.1992  -27.3526   25.1836 C   0  0  0  0  0  0  0  0  0  0  0  0
  -20.4832  -29.7368   25.0238 C   0  0  0  0  0  0  0  0  0  0  0  0
  -20.7046  -27.4943   18.5590 C   0  0  0  0  0  0  0  0  0  0  0  0
  -29.5596  -27.1280   18.9458 C   0  0  0  0  0  0  0  0  0  1  0  0
  -32.7805  -20.1221   19.6403 C   0  0  0  0  0  0  0  0  0  0  0  0
  -32.7250  -21.6222   19.8517 C   0  0  0  0  0  0  0  0  0  0  0  0
  -21.9542  -28.7604   23.2141 C   0  0  1  0  0  0  0  0  0  0  0  0
  -19.5694  -27.1371   20.7550 C   0  0  2  0  0  0  0  0  0  0  0  0
  -21.6458  -28.7614   24.7380 C   0  0  0  0  0  0  0  0  0  0  0  0
  -24.5230  -13.4625   21.2660 N   0  0  0  0  0  0  0  0  0  0  0  0
  -25.4404  -13.4409   20.2841 N   0  0  0  0  0  0  0  0  0  0  0  0
  -23.7003  -30.1527   22.1480 N   0  0  0  0  0  0  0  0  0  0  0  0
  -27.5570  -16.5803   19.7750 N   0  0  0  0  0  0  0  0  0  0  0  0
  -29.2508  -17.8939   18.7127 N   0  0  0  0  0  0  0  0  0  0  0  0
  -26.7797  -11.9842   18.9822 N   0  0  0  0  0  0  0  0  0  0  0  0
  -24.5042   -9.1709   21.6848 N   0  0  0  0  0  0  0  0  0  0  0  0
  -25.1932  -33.2001   23.2503 N   0  0  0  0  0  0  0  0  0  0  0  0
  -20.8198  -28.3893   22.3751 N   0  0  0  0  0  0  0  0  0  0  0  0
  -31.4613  -19.6484   19.0976 N   0  3  0  0  0  0  0  0  0  0  0  0
  -19.8311  -26.6191   19.3824 N   0  3  0  0  0  0  0  0  0  0  0  0
  -26.0726   -9.2882   20.0159 O   0  0  0  0  0  0  0  0  0  0  0  0
  -25.7281  -30.9680   23.6430 O   0  0  0  0  0  0  0  0  0  0  0  0
  -21.6758  -31.0849   22.8326 O   0  0  0  0  0  0  0  0  0  0  0  0
  -21.8448  -26.5810   21.3471 O   0  0  0  0  0  0  0  0  0  0  0  0
  -29.2821  -15.5910   18.6100 O   0  0  0  0  0  0  0  0  0  0  0  0
  -20.7682  -10.6227   25.5538 O   0  0  0  0  0  0  0  0  0  0  0  0
  -28.4827  -26.9802   19.8620 O   0  0  0  0  0  0  0  0  0  1  0  0
  -32.4257  -22.2656   18.6200 O   0  0  0  0  0  0  0  0  0  0  0  0
  -17.4029   -6.3887   24.4802 F   0  0  0  0  0  0  0  0  0  0  0  0
  -21.7822   -8.1220   24.9527 F   0  0  0  0  0  0  0  0  0  0  0  0
  1  2  1  0  0  0  0
  1  5  2  0  0  0  0
  2  6  2  0  0  0  0
  3  8  2  0  0  0  0
  3 17  1  0  0  0  0
  4  9  1  0  0  0  0
  4 17  2  0  0  0  0
  5 19  1  0  0  0  0
  6 21  1  0  0  0  0
  7 10  2  0  0  0  0
  7 20  1  0  0  0  0
  8 26  1  0  0  0  0
  9 26  2  0  0  0  0
 10 27  1  0  0  0  0
 11 12  2  0  0  0  0
 11 28  1  0  0  0  0
 12 30  1  0  0  0  0
 13 22  1  0  0  0  0
 13 27  2  0  0  0  0
 14 23  1  0  0  0  0
 14 24  2  0  0  0  0
 15 25  1  0  0  0  0
 15 29  2  0  0  0  0
 16 30  2  0  0  0  0
 16 31  1  0  0  0  0
 17 32  1  0  0  0  0
 18 32  1  0  0  0  0
 18 33  2  0  0  0  0
 18 34  1  0  0  0  0
 19 21  2  0  0  0  0
 19 39  1  0  0  0  0
 20 22  2  0  0  0  0
 20 40  1  0  0  0  0
 21 52  1  0  0  0  0
 22 41  1  0  0  0  0
 23 25  2  0  0  0  0
 23 62  1  0  0  0  0
 24 29  1  0  0  0  0
 24 55  1  0  0  0  0
 25 56  1  0  0  0  0
 26 84  1  0  0  0  0
 27 85  1  0  0  0  0
 28 31  2  0  0  0  0
 28 84  1  0  0  0  0
 29 86  1  0  0  0  0
 30 87  1  0  0  0  0
 31 88  1  0  0  0  0
 32 68  2  0  0  0  0
 33 69  1  0  0  0  0
 33 73  1  0  0  0  0
 34 74  1  0  0  0  0
 34 79  2  0  0  0  0
 35 53  1  0  0  0  0
 35 75  1  0  0  0  0
 35 80  2  0  0  0  0
 36 65  1  0  0  0  0
 36 70  1  0  0  0  0
 36 81  2  0  0  0  0
 37 66  1  0  0  0  0
 37 76  1  0  0  0  0
 37 82  2  0  0  0  0
 38 71  1  0  0  0  0
 38 72  1  0  0  0  0
 38 83  2  0  0  0  0
 39 42  1  0  0  0  0
 40 53  1  0  0  0  0
 41 70  1  0  0  0  0
 42 44  1  0  0  0  0
 43 45  1  0  0  0  0
 43 46  1  0  0  0  0
 44 52  1  0  0  0  0
 45 54  1  0  0  0  0
 46 71  1  0  0  0  0
 47 50  1  0  0  0  0
 47 72  1  0  0  0  0
 48 51  1  0  0  0  0
 48 72  1  0  0  0  0
 49 54  1  0  0  0  0
 49 71  1  0  0  0  0
 50 77  1  0  0  0  0
 51 77  1  0  0  0  0
 52 75  1  0  0  0  0
 53 70  1  0  0  0  0
 54 69  1  0  0  0  0
 57 66  1  0  0  0  0
 58 67  1  0  0  0  0
 59 67  1  0  0  0  0
 60 67  1  0  0  0  0
 61 78  1  0  0  0  0
 62 85  1  0  0  0  0
 63 64  1  0  0  0  0
 63 77  1  0  0  0  0
 64 86  1  0  0  0  0
 65 67  1  0  0  0  0
 65 76  1  0  0  0  0
 66 78  1  0  0  0  0
 68 69  1  0  0  0  0
M  CHG  2  77   1  78   1
M  ISO  4  38 100  62 101  72 100  85 101
M  END
> <Batch ID>
0155

> <Smiles>
CNC(C)C(=O)NC(C(=O)N1Cc2cc([101O:1][101CH2:1]c3cc(C)c(OCCN4CC[100N:0]([100C:0](=O)N5CCCC(n6nc(-c7ccc(Oc8ccc(F)cc8F)cc7)c(C(N)=O)c6N)C5)CC4)cc3C)ccc2CC1C(=O)NC1CCCc2ccccc21)C(C)(C)C

> <Shape>
0.307

> <Color>
0.066

> <Negative vol penalty>
0.000

$$$$

  -OEChem-04052321543D

 87 96  0     1  0  0  0  0  0999 V2000
  -27.5037  -33.5909   21.0574 C   0  0  0  0  0  0  0  0  0  0  0  0
  -27.6999  -32.7719   19.9501 C   0  0  0  0  0  0  0  0  0  0  0  0
  -23.1410   -9.8209   19.9524 C   0  0  0  0  0  0  0  0  0  0  0  0
  -23.5228   -9.9870   22.3323 C   0  0  0  0  0  0  0  0  0  0  0  0
  -27.3038  -33.0242   22.3155 C   0  0  0  0  0  0  0  0  0  0  0  0
  -27.6975  -31.3856   20.1005 C   0  0  0  0  0  0  0  0  0  0  0  0
  -25.8945  -25.3947   16.6112 C   0  0  0  0  0  0  0  0  0  0  0  0
  -22.3473   -8.6926   20.1585 C   0  0  0  0  0  0  0  0  0  0  0  0
  -22.7290   -8.8587   22.5383 C   0  0  0  0  0  0  0  0  0  0  0  0
  -26.4333  -24.1665   16.2303 C   0  0  0  0  0  0  0  0  0  0  0  0
  -23.0493   -5.5039   22.2670 C   0  0  0  0  0  0  0  0  0  0  0  0
  -23.5241   -4.5289   23.1443 C   0  0  0  0  0  0  0  0  0  0  0  0
  -24.7836  -17.5588   17.3012 C   0  0  0  0  0  0  0  0  0  0  0  0
  -25.9992  -23.2982   18.4387 C   0  0  0  0  0  0  0  0  0  0  0  0
  -24.5284  -20.0879   16.1517 C   0  0  0  0  0  0  0  0  0  0  0  0
  -21.5740   -4.8329   24.5377 C   0  0  0  0  0  0  0  0  0  0  0  0
  -23.7289  -10.4681   21.0394 C   0  0  0  0  0  0  0  0  0  0  0  0
  -24.1282  -12.9764   20.8012 C   0  0  0  0  0  0  0  0  0  0  0  0
  -27.2893  -31.6301   22.4798 C   0  0  0  0  0  0  0  0  0  0  0  0
  -25.4133  -25.5876   17.9141 C   0  0  0  0  0  0  0  0  0  0  0  0
  -27.4986  -30.7997   21.3622 C   0  0  0  0  0  0  0  0  0  0  0  0
  -25.8553  -18.1211   16.6078 C   0  0  0  0  0  0  0  0  0  0  0  0
  -25.4525  -24.5290   18.8328 C   0  0  0  0  0  0  0  0  0  0  0  0
  -23.5842  -18.2610   17.4198 C   0  0  0  0  0  0  0  0  0  0  0  0
  -25.7278  -19.3856   16.0331 C   0  0  0  0  0  0  0  0  0  0  0  0
  -23.4566  -19.5256   16.8451 C   0  0  0  0  0  0  0  0  0  0  0  0
  -22.1412   -8.2115   21.4514 C   0  0  0  0  0  0  0  0  0  0  0  0
  -26.4883  -23.1189   17.1450 C   0  0  0  0  0  0  0  0  0  0  0  0
  -21.8369   -6.1435   22.5251 C   0  0  0  0  0  0  0  0  0  0  0  0
  -22.7864   -4.1934   24.2796 C   0  0  0  0  0  0  0  0  0  0  0  0
  -21.0992   -5.8080   23.6604 C   0  0  0  0  0  0  0  0  0  0  0  0
  -24.5494  -11.6333   20.8271 C   0  0  0  0  0  0  0  0  0  0  0  0
  -25.2771  -13.6920   20.5678 C   0  0  0  0  0  0  0  0  0  0  0  0
  -22.8159  -13.5277   20.9728 C   0  0  0  0  0  0  0  0  0  0  0  0
  -26.1850  -27.5041   20.3297 C   0  0  0  0  0  0  0  0  0  0  0  0
  -23.5453  -26.2032   21.6942 C   0  0  0  0  0  0  0  0  0  0  0  0
  -21.3553  -23.5907   21.8544 C   0  0  0  0  0  0  0  0  0  0  0  0
  -30.0402  -14.5351   18.0152 C   0  0  0  0  0  0  0  0  0  0  0  0
  -27.1166  -31.0644   23.8672 C   0  0  0  0  0  0  0  0  0  0  0  0
  -24.8107  -26.9102   18.3013 C   0  0  0  0  0  0  0  0  0  0  0  0
  -24.9305  -24.6785   20.2376 C   0  0  0  0  0  0  0  0  0  0  0  0
  -26.7548  -29.5815   23.8796 C   0  0  0  0  0  0  0  0  0  0  0  0
  -30.1258  -12.2770   20.6316 C   0  0  0  0  0  0  0  0  0  0  0  0
  -27.6548  -28.8043   22.9242 C   0  0  0  0  0  0  0  0  0  0  0  0
  -28.6500  -12.0082   20.9257 C   0  0  0  0  0  0  0  0  0  0  0  0
  -28.1348  -17.6832   17.6233 C   0  0  0  0  0  0  0  0  0  0  0  0
  -26.9024  -15.8208   16.4344 C   0  0  0  0  0  0  0  0  0  0  0  0
  -30.3795  -12.3493   19.1300 C   0  0  0  0  0  0  0  0  0  0  0  0
  -29.4229  -16.8711   17.5113 C   0  0  0  0  0  0  0  0  0  0  0  0
  -28.2176  -15.0520   16.3476 C   0  0  0  0  0  0  0  0  0  0  0  0
  -28.0641  -13.1086   18.7098 C   0  0  0  0  0  0  0  0  0  0  0  0
  -27.1501  -17.3386   16.4926 C   0  0  0  0  0  0  0  0  0  0  0  0
  -27.4780  -29.2912   21.4808 C   0  0  1  0  0  0  0  0  0  0  0  0
  -24.8205  -27.1534   19.8073 C   0  0  1  0  0  0  0  0  0  0  0  0
  -27.7499  -13.0360   20.2175 C   0  0  1  0  0  0  0  0  0  0  0  0
  -22.4502  -17.6385   18.1660 C   0  0  0  0  0  0  0  0  0  0  0  0
  -22.1821  -20.2958   16.9584 C   0  0  0  0  0  0  0  0  0  0  0  0
  -26.8667  -19.6022   13.7998 C   0  0  0  0  0  0  0  0  0  0  0  0
  -19.3226  -22.7973   23.0938 C   0  0  0  0  0  0  0  0  0  0  0  0
  -25.2894  -25.4929   24.0949 C   0  0  0  0  0  0  0  0  0  0  0  0
  -23.4966  -23.9130   24.8418 C   0  0  0  0  0  0  0  0  0  0  0  0
  -23.0150  -26.3550   24.6765 C   0  0  0  0  0  0  0  0  0  0  0  0
  -19.7324  -23.5181   19.3805 C   0  0  0  0  0  0  0  0  0  0  0  0
  -26.8858  -21.5485   15.4038 C   0  0  0  0  0  0  0  0  0  1  0  0
  -26.8618  -20.0080   15.2866 C   0  0  1  0  0  0  0  0  0  0  0  0
  -23.2736  -24.9967   22.5599 C   0  0  1  0  0  0  0  0  0  0  0  0
  -19.8380  -23.5482   21.8759 C   0  0  2  0  0  0  0  0  0  0  0  0
  -23.7804  -25.1868   24.0175 C   0  0  0  0  0  0  0  0  0  0  0  0
  -25.8632  -11.5010   20.6261 N   0  0  0  0  0  0  0  0  0  0  0  0
  -26.2775  -12.7700   20.4715 N   0  0  0  0  0  0  0  0  0  0  0  0
  -24.3566  -25.9928   20.5702 N   0  0  0  0  0  0  0  0  0  0  0  0
  -29.5014  -13.3311   18.4939 N   0  0  0  0  0  0  0  0  0  0  0  0
  -29.1440  -15.4385   17.4206 N   0  0  0  0  0  0  0  0  0  0  0  0
  -25.5190  -15.0137   20.4375 N   0  0  0  0  0  0  0  0  0  0  0  0
  -21.7477  -12.6505   21.2046 N   0  0  0  0  0  0  0  0  0  0  0  0
  -26.2601  -28.7549   20.9121 N   0  0  0  0  0  0  0  0  0  0  0  0
  -21.8427  -24.7325   22.4545 N   0  0  0  0  0  0  0  0  0  0  0  0
  -19.3214  -22.8709   20.6530 N   0  3  0  0  0  0  0  0  0  0  0  0
  -22.5944  -14.7606   20.9058 O   0  0  0  0  0  0  0  0  0  0  0  0
  -27.1015  -26.6988   20.2143 O   0  0  0  0  0  0  0  0  0  0  0  0
  -23.0499  -27.2908   21.9999 O   0  0  0  0  0  0  0  0  0  0  0  0
  -22.0397  -22.6985   21.3584 O   0  0  0  0  0  0  0  0  0  0  0  0
  -31.2463  -14.7921   18.1165 O   0  0  0  0  0  0  0  0  0  0  0  0
  -21.3665   -7.1107   21.6528 O   0  0  0  0  0  0  0  0  0  0  0  0
  -27.0177  -21.9114   16.7736 O   0  0  0  0  0  0  0  0  0  1  0  0
  -23.2417   -3.2560   25.1211 F   0  0  0  0  0  0  0  0  0  0  0  0
  -19.9332   -6.4182   23.9130 F   0  0  0  0  0  0  0  0  0  0  0  0
  1  2  1  0  0  0  0
  1  5  2  0  0  0  0
  2  6  2  0  0  0  0
  3  8  2  0  0  0  0
  3 17  1  0  0  0  0
  4  9  1  0  0  0  0
  4 17  2  0  0  0  0
  5 19  1  0  0  0  0
  6 21  1  0  0  0  0
  7 10  2  0  0  0  0
  7 20  1  0  0  0  0
  8 27  1  0  0  0  0
  9 27  2  0  0  0  0
 10 28  1  0  0  0  0
 11 12  2  0  0  0  0
 11 29  1  0  0  0  0
 12 30  1  0  0  0  0
 13 22  1  0  0  0  0
 13 24  2  0  0  0  0
 14 23  1  0  0  0  0
 14 28  2  0  0  0  0
 15 25  1  0  0  0  0
 15 26  2  0  0  0  0
 16 30  2  0  0  0  0
 16 31  1  0  0  0  0
 17 32  1  0  0  0  0
 18 32  1  0  0  0  0
 18 33  2  0  0  0  0
 18 34  1  0  0  0  0
 19 21  2  0  0  0  0
 19 39  1  0  0  0  0
 20 23  2  0  0  0  0
 20 40  1  0  0  0  0
 21 53  1  0  0  0  0
 22 25  2  0  0  0  0
 22 52  1  0  0  0  0
 23 41  1  0  0  0  0
 24 26  1  0  0  0  0
 24 56  1  0  0  0  0
 25 65  1  0  0  0  0
 26 57  1  0  0  0  0
 27 84  1  0  0  0  0
 28 85  1  0  0  0  0
 29 31  2  0  0  0  0
 29 84  1  0  0  0  0
 30 86  1  0  0  0  0
 31 87  1  0  0  0  0
 32 69  2  0  0  0  0
 33 70  1  0  0  0  0
 33 74  1  0  0  0  0
 34 75  1  0  0  0  0
 34 79  2  0  0  0  0
 35 54  1  0  0  0  0
 35 76  1  0  0  0  0
 35 80  2  0  0  0  0
 36 66  1  0  0  0  0
 36 71  1  0  0  0  0
 36 81  2  0  0  0  0
 37 67  1  0  0  0  0
 37 77  1  0  0  0  0
 37 82  2  0  0  0  0
 38 72  1  0  0  0  0
 38 73  1  0  0  0  0
 38 83  2  0  0  0  0
 39 42  1  0  0  0  0
 40 54  1  0  0  0  0
 41 71  1  0  0  0  0
 42 44  1  0  0  0  0
 43 45  1  0  0  0  0
 43 48  1  0  0  0  0
 44 53  1  0  0  0  0
 45 55  1  0  0  0  0
 46 49  1  0  0  0  0
 46 52  1  0  0  0  0
 47 50  1  0  0  0  0
 47 52  1  0  0  0  0
 48 72  1  0  0  0  0
 49 73  1  0  0  0  0
 50 73  1  0  0  0  0
 51 55  1  0  0  0  0
 51 72  1  0  0  0  0
 53 76  1  0  0  0  0
 54 71  1  0  0  0  0
 55 70  1  0  0  0  0
 58 65  1  0  0  0  0
 59 67  1  0  0  0  0
 60 68  1  0  0  0  0
 61 68  1  0  0  0  0
 62 68  1  0  0  0  0
 63 78  1  0  0  0  0
 64 65  1  0  0  0  0
 64 85  1  0  0  0  0
 66 68  1  0  0  0  0
 66 77  1  0  0  0  0
 67 78  1  0  0  0  0
 69 70  1  0  0  0  0
M  CHG  1  78   1
M  ISO  4  38 100  64 101  73 100  85 101
M  END
> <Batch ID>
0155

> <Smiles>
CNC(C)C(=O)NC(C(=O)N1Cc2cc([101O:1][101CH2:1]C(C)c3cc(C)c(C)cc3C3CC[100N:0]([100C:0](=O)N4CCCC(n5nc(-c6ccc(Oc7ccc(F)cc7F)cc6)c(C(N)=O)c5N)C4)CC3)ccc2CC1C(=O)NC1CCCc2ccccc21)C(C)(C)C

> <Shape>
0.216

> <Color>
0.190

> <Negative vol penalty>
0.000

$$$$

  -OEChem-04052321543D

 90101  0     1  0  0  0  0  0999 V2000
  -25.5204  -38.9653   20.1018 C   0  0  0  0  0  0  0  0  0  0  0  0
  -26.3798  -37.9586   19.6738 C   0  0  0  0  0  0  0  0  0  0  0  0
  -24.2912   -9.8189   22.5124 C   0  0  0  0  0  0  0  0  0  0  0  0
  -23.7994   -8.3251   20.6784 C   0  0  0  0  0  0  0  0  0  0  0  0
  -24.7303  -38.7713   21.2341 C   0  0  0  0  0  0  0  0  0  0  0  0
  -26.4506  -36.7575   20.3786 C   0  0  0  0  0  0  0  0  0  0  0  0
  -31.2371  -20.2858   20.7724 C   0  0  0  0  0  0  0  0  0  0  0  0
  -31.4070  -21.6522   20.9950 C   0  0  0  0  0  0  0  0  0  0  0  0
  -27.5302  -29.7479   19.3701 C   0  0  0  0  0  0  0  0  0  0  0  0
  -23.3238   -9.1826   23.2901 C   0  0  0  0  0  0  0  0  0  0  0  0
  -22.8320   -7.6887   21.4561 C   0  0  0  0  0  0  0  0  0  0  0  0
  -28.3227  -28.7016   19.8402 C   0  0  0  0  0  0  0  0  0  0  0  0
  -22.7458   -5.3939   23.9355 C   0  0  0  0  0  0  0  0  0  0  0  0
  -22.7240   -3.9993   23.9268 C   0  0  0  0  0  0  0  0  0  0  0  0
  -29.4692  -20.7622   19.1962 C   0  0  0  0  0  0  0  0  0  0  0  0
  -26.8528  -28.4480   21.7360 C   0  0  0  0  0  0  0  0  0  0  0  0
  -20.4647   -4.0398   23.0718 C   0  0  0  0  0  0  0  0  0  0  0  0
  -24.5290   -9.3902   21.2065 C   0  0  0  0  0  0  0  0  0  0  0  0
  -26.8928   -9.7175   20.3049 C   0  0  0  0  0  0  0  0  0  0  0  0
  -30.2683  -19.8408   19.8730 C   0  0  0  0  0  0  0  0  0  0  0  0
  -24.7843  -37.5635   21.9475 C   0  0  0  0  0  0  0  0  0  0  0  0
  -26.3972  -30.1600   20.0863 C   0  0  0  0  0  0  0  0  0  0  0  0
  -25.6615  -36.5476   21.5223 C   0  0  0  0  0  0  0  0  0  0  0  0
  -30.6080  -22.5737   20.3182 C   0  0  0  0  0  0  0  0  0  0  0  0
  -26.0461  -29.4981   21.2715 C   0  0  0  0  0  0  0  0  0  0  0  0
  -22.5943   -8.1175   22.7620 C   0  0  0  0  0  0  0  0  0  0  0  0
  -27.9857  -28.0534   21.0248 C   0  0  0  0  0  0  0  0  0  0  0  0
  -21.6270   -6.1115   23.5123 C   0  0  0  0  0  0  0  0  0  0  0  0
  -29.6390  -22.1287   19.4188 C   0  0  0  0  0  0  0  0  0  0  0  0
  -21.5835   -3.3222   23.4950 C   0  0  0  0  0  0  0  0  0  0  0  0
  -20.4865   -5.4345   23.0805 C   0  0  0  0  0  0  0  0  0  0  0  0
  -25.5277  -10.0475   20.4024 C   0  0  0  0  0  0  0  0  0  0  0  0
  -27.4052  -10.6342   19.4198 C   0  0  0  0  0  0  0  0  0  0  0  0
  -27.6315   -8.6754   20.9562 C   0  0  0  0  0  0  0  0  0  0  0  0
  -25.5037  -32.8560   21.5136 C   0  0  0  0  0  0  0  0  0  0  0  0
  -22.7124  -31.2553   21.9248 C   0  0  0  0  0  0  0  0  0  0  0  0
  -21.0991  -28.2570   22.1573 C   0  0  0  0  0  0  0  0  0  0  0  0
  -27.8792  -15.7069   17.4039 C   0  0  0  0  0  0  0  0  0  0  0  0
  -23.9461  -37.4179   23.1928 C   0  0  0  0  0  0  0  0  0  0  0  0
  -25.5377  -31.2727   19.5519 C   0  0  0  0  0  0  0  0  0  0  0  0
  -24.8285  -29.8888   22.0672 C   0  0  0  0  0  0  0  0  0  0  0  0
  -23.8047  -35.9736   23.6665 C   0  0  0  0  0  0  0  0  0  0  0  0
  -25.0927  -13.9375   16.3781 C   0  0  0  0  0  0  0  0  0  0  0  0
  -25.1606  -35.2749   23.6613 C   0  0  0  0  0  0  0  0  0  0  0  0
  -25.0595  -12.7340   17.3198 C   0  0  0  0  0  0  0  0  0  0  0  0
  -28.5664  -24.2775   16.6273 C   0  0  0  0  0  0  0  0  0  0  0  0
  -29.9970  -23.8301   16.7035 C   0  0  0  0  0  0  0  0  0  0  0  0
  -28.6823  -17.8719   20.0469 C   0  0  0  0  0  0  0  0  0  0  0  0
  -30.3791  -17.9669   18.1703 C   0  0  0  0  0  0  0  0  0  0  0  0
  -30.7354  -24.5456   21.9856 C   0  0  0  0  0  0  0  0  0  0  0  0
  -25.4694  -15.2086   17.1302 C   0  0  0  0  0  0  0  0  0  0  0  0
  -28.4916  -16.3780   19.7694 C   0  0  0  0  0  0  0  0  0  0  0  0
  -30.1686  -16.4709   17.9550 C   0  0  0  0  0  0  0  0  0  0  0  0
  -26.7536  -13.9169   18.8036 C   0  0  0  0  0  0  0  0  0  0  0  0
  -30.0835  -18.3546   19.6305 C   0  0  0  0  0  0  0  0  0  0  0  0
  -30.8021  -24.0320   20.5685 C   0  0  2  0  0  0  0  0  0  0  0  0
  -25.7482  -35.2213   22.2459 C   0  0  1  0  0  0  0  0  0  0  0  0
  -24.6958  -31.9479   20.6302 C   0  0  1  0  0  0  0  0  0  0  0  0
  -29.6236  -24.8564   21.0282 C   0  0  2  0  0  0  0  0  0  0  0  0
  -26.3838  -12.5995   18.0921 C   0  0  1  0  0  0  0  0  0  0  0  0
  -28.9153  -22.9940   17.3252 C   0  0  0  0  0  0  0  0  0  0  0  0
  -18.8234  -27.2685   22.5331 C   0  0  0  0  0  0  0  0  0  0  0  0
  -22.9277  -31.8969   24.9000 C   0  0  0  0  0  0  0  0  0  0  0  0
  -21.2080  -30.1299   25.3343 C   0  0  0  0  0  0  0  0  0  0  0  0
  -20.6257  -32.1207   23.9485 C   0  0  0  0  0  0  0  0  0  0  0  0
  -21.1120  -26.9285   19.5127 C   0  0  0  0  0  0  0  0  0  0  0  0
  -29.4429  -26.2440   20.5163 C   0  0  0  0  0  0  0  0  0  1  0  0
  -22.1487  -30.3452   22.9892 C   0  0  1  0  0  0  0  0  0  0  0  0
  -19.8327  -27.7408   21.4982 C   0  0  2  0  0  0  0  0  0  0  0  0
  -21.7516  -31.1169   24.2793 C   0  0  0  0  0  0  0  0  0  0  0  0
  -25.1941  -11.0923   19.6402 N   0  0  0  0  0  0  0  0  0  0  0  0
  -26.3569  -11.4269   19.0554 N   0  0  0  0  0  0  0  0  0  0  0  0
  -24.0235  -30.9867   21.5068 N   0  0  0  0  0  0  0  0  0  0  0  0
  -26.7298  -15.0395   17.8530 N   0  0  0  0  0  0  0  0  0  0  0  0
  -28.8283  -16.0621   18.3743 N   0  0  0  0  0  0  0  0  0  0  0  0
  -28.6459  -10.8315   18.9254 N   0  0  0  0  0  0  0  0  0  0  0  0
  -26.9501   -7.8222   21.8348 N   0  0  0  0  0  0  0  0  0  0  0  0
  -25.1079  -34.1793   21.4721 N   0  0  0  0  0  0  0  0  0  0  0  0
  -21.0482  -29.6192   22.3645 N   0  0  0  0  0  0  0  0  0  0  0  0
  -20.1479  -26.5990   20.5938 N   0  3  0  0  0  0  0  0  0  0  0  0
  -28.8628   -8.5162   20.7772 O   0  0  0  0  0  0  0  0  0  0  0  0
  -26.4174  -32.3903   22.1843 O   0  0  0  0  0  0  0  0  0  0  0  0
  -22.0126  -32.1664   21.4756 O   0  0  0  0  0  0  0  0  0  0  0  0
  -22.0379  -27.5244   22.4614 O   0  0  0  0  0  0  0  0  0  0  0  0
  -28.0487  -15.9697   16.2067 O   0  0  0  0  0  0  0  0  0  0  0  0
  -21.6504   -7.4961   23.5207 O   0  0  0  0  0  0  0  0  0  0  0  0
  -28.8484  -23.0142   18.7495 O   0  0  0  0  0  0  0  0  0  0  0  0
  -28.7637  -27.0247   21.4896 O   0  0  0  0  0  0  0  0  0  1  0  0
  -21.5633   -1.9829   23.4853 F   0  0  0  0  0  0  0  0  0  0  0  0
  -19.4090   -6.1184   22.6717 F   0  0  0  0  0  0  0  0  0  0  0  0
  1  2  1  0  0  0  0
  1  5  2  0  0  0  0
  2  6  2  0  0  0  0
  3 10  2  0  0  0  0
  3 18  1  0  0  0  0
  4 11  1  0  0  0  0
  4 18  2  0  0  0  0
  5 21  1  0  0  0  0
  6 23  1  0  0  0  0
  7  8  2  0  0  0  0
  7 20  1  0  0  0  0
  8 24  1  0  0  0  0
  9 12  2  0  0  0  0
  9 22  1  0  0  0  0
 10 26  1  0  0  0  0
 11 26  2  0  0  0  0
 12 27  1  0  0  0  0
 13 14  2  0  0  0  0
 13 28  1  0  0  0  0
 14 30  1  0  0  0  0
 15 20  2  0  0  0  0
 15 29  1  0  0  0  0
 16 25  1  0  0  0  0
 16 27  2  0  0  0  0
 17 30  2  0  0  0  0
 17 31  1  0  0  0  0
 18 32  1  0  0  0  0
 19 32  1  0  0  0  0
 19 33  2  0  0  0  0
 19 34  1  0  0  0  0
 20 55  1  0  0  0  0
 21 23  2  0  0  0  0
 21 39  1  0  0  0  0
 22 25  2  0  0  0  0
 22 40  1  0  0  0  0
 23 57  1  0  0  0  0
 24 29  2  0  0  0  0
 24 56  1  0  0  0  0
 25 41  1  0  0  0  0
 26 86  1  0  0  0  0
 27 88  1  0  0  0  0
 28 31  2  0  0  0  0
 28 86  1  0  0  0  0
 29 87  1  0  0  0  0
 30 89  1  0  0  0  0
 31 90  1  0  0  0  0
 32 71  2  0  0  0  0
 33 72  1  0  0  0  0
 33 76  1  0  0  0  0
 34 77  1  0  0  0  0
 34 81  2  0  0  0  0
 35 58  1  0  0  0  0
 35 78  1  0  0  0  0
 35 82  2  0  0  0  0
 36 68  1  0  0  0  0
 36 73  1  0  0  0  0
 36 83  2  0  0  0  0
 37 69  1  0  0  0  0
 37 79  1  0  0  0  0
 37 84  2  0  0  0  0
 38 74  1  0  0  0  0
 38 75  1  0  0  0  0
 38 85  2  0  0  0  0
 39 42  1  0  0  0  0
 40 58  1  0  0  0  0
 41 73  1  0  0  0  0
 42 44  1  0  0  0  0
 43 45  1  0  0  0  0
 43 51  1  0  0  0  0
 44 57  1  0  0  0  0
 45 60  1  0  0  0  0
 46 47  1  0  0  0  0
 46 61  1  0  0  0  0
 47 61  1  0  0  0  0
 48 52  1  0  0  0  0
 48 55  1  0  0  0  0
 49 53  1  0  0  0  0
 49 55  1  0  0  0  0
 50 56  1  0  0  0  0
 50 59  1  0  0  0  0
 51 74  1  0  0  0  0
 52 75  1  0  0  0  0
 53 75  1  0  0  0  0
 54 60  1  0  0  0  0
 54 74  1  0  0  0  0
 56 59  1  0  0  0  0
 57 78  1  0  0  0  0
 58 73  1  0  0  0  0
 59 67  1  0  0  0  0
 60 72  1  0  0  0  0
 61 87  1  0  0  0  0
 62 69  1  0  0  0  0
 63 70  1  0  0  0  0
 64 70  1  0  0  0  0
 65 70  1  0  0  0  0
 66 80  1  0  0  0  0
 67 88  1  0  0  0  0
 68 70  1  0  0  0  0
 68 79  1  0  0  0  0
 69 80  1  0  0  0  0
 71 72  1  0  0  0  0
M  CHG  1  80   1
M  ISO  4  38 100  67 101  75 100  88 101
M  END
> <Batch ID>
0155

> <Smiles>
CNC(C)C(=O)NC(C(=O)N1Cc2cc([101O:1][101CH2:1]C3CC3c3ccc(C4CC[100N:0]([100C:0](=O)N5CCCC(n6nc(-c7ccc(Oc8ccc(F)cc8F)cc7)c(C(N)=O)c6N)C5)CC4)cc3OC3CC3)ccc2CC1C(=O)NC1CCCc2ccccc21)C(C)(C)C

> <Shape>
0.286

> <Color>
0.077

> <Negative vol penalty>
0.000

$$$$

  -OEChem-04052321543D

 91101  0     1  0  0  0  0  0999 V2000
  -21.4901  -24.2805   23.7921 C   0  0  0  0  0  0  0  0  0  0  0  0
  -22.5643  -24.8619   23.1262 C   0  0  0  0  0  0  0  0  0  0  0  0
  -24.4395   -8.8183   21.5332 C   0  0  0  0  0  0  0  0  0  0  0  0
  -23.0014  -10.4786   20.5270 C   0  0  0  0  0  0  0  0  0  0  0  0
  -20.2631  -24.9408   23.8432 C   0  0  0  0  0  0  0  0  0  0  0  0
  -22.4119  -26.1034   22.5099 C   0  0  0  0  0  0  0  0  0  0  0  0
  -26.2877  -29.2255   23.4455 C   0  0  0  0  0  0  0  0  0  0  0  0
  -23.3672   -7.9286   21.5978 C   0  0  0  0  0  0  0  0  0  0  0  0
  -21.9291   -9.5889   20.5915 C   0  0  0  0  0  0  0  0  0  0  0  0
  -27.4612  -29.0185   22.7218 C   0  0  0  0  0  0  0  0  0  0  0  0
  -21.7098   -5.8680   19.4907 C   0  0  0  0  0  0  0  0  0  0  0  0
  -21.9349   -4.5512   19.0895 C   0  0  0  0  0  0  0  0  0  0  0  0
  -28.3028  -23.1713   19.9412 C   0  0  0  0  0  0  0  0  0  0  0  0
  -28.8533  -22.3752   17.7276 C   0  0  0  0  0  0  0  0  0  0  0  0
  -26.8533  -30.8168   21.2332 C   0  0  0  0  0  0  0  0  0  0  0  0
  -21.3190   -3.7746   21.2928 C   0  0  0  0  0  0  0  0  0  0  0  0
  -24.2566  -10.0933   20.9978 C   0  0  0  0  0  0  0  0  0  0  0  0
  -26.2799  -11.1655   19.8733 C   0  0  0  0  0  0  0  0  0  0  0  0
  -20.0983  -26.1954   23.2355 C   0  0  0  0  0  0  0  0  0  0  0  0
  -25.3814  -30.2243   23.0615 C   0  0  0  0  0  0  0  0  0  0  0  0
  -21.1812  -26.7805   22.5518 C   0  0  0  0  0  0  0  0  0  0  0  0
  -28.7666  -23.4187   18.6492 C   0  0  0  0  0  0  0  0  0  0  0  0
  -25.6703  -31.0362   21.9553 C   0  0  0  0  0  0  0  0  0  0  0  0
  -28.0124  -20.8370   19.3900 C   0  0  0  0  0  0  0  0  0  0  0  0
  -27.9257  -21.8804   20.3116 C   0  0  0  0  0  0  0  0  0  0  0  0
  -28.4762  -21.0844   18.0980 C   0  0  0  0  0  0  0  0  0  0  0  0
  -22.1120   -8.3138   21.1269 C   0  0  0  0  0  0  0  0  0  0  0  0
  -27.7427  -29.8122   21.6137 C   0  0  0  0  0  0  0  0  0  0  0  0
  -21.2893   -6.1381   20.7930 C   0  0  0  0  0  0  0  0  0  0  0  0
  -21.7395   -3.5045   19.9905 C   0  0  0  0  0  0  0  0  0  0  0  0
  -21.0939   -5.0914   21.6940 C   0  0  0  0  0  0  0  0  0  0  0  0
  -25.3638  -11.0130   20.9313 C   0  0  0  0  0  0  0  0  0  0  0  0
  -27.1296  -12.1586   20.2954 C   0  0  0  0  0  0  0  0  0  0  0  0
  -26.3558  -10.4717   18.6210 C   0  0  0  0  0  0  0  0  0  0  0  0
  -22.3540  -30.2543   22.0933 C   0  0  0  0  0  0  0  0  0  0  0  0
  -22.7371  -33.4706   22.2695 C   0  0  0  0  0  0  0  0  0  0  0  0
  -24.8606  -36.1418   22.2293 C   0  0  0  0  0  0  0  0  0  0  0  0
  -27.9551  -17.1288   22.6856 C   0  0  0  0  0  0  0  0  0  0  0  0
  -18.7398  -26.8492   23.2768 C   0  0  0  0  0  0  0  0  0  0  0  0
  -24.1329  -30.4527   23.8686 C   0  0  0  0  0  0  0  0  0  0  0  0
  -24.7399  -32.1352   21.5138 C   0  0  0  0  0  0  0  0  0  0  0  0
  -18.7667  -28.3329   22.9189 C   0  0  0  0  0  0  0  0  0  0  0  0
  -27.7095  -14.3183   24.8124 C   0  0  0  0  0  0  0  0  0  0  0  0
  -19.6068  -28.5650   21.6671 C   0  0  0  0  0  0  0  0  0  0  0  0
  -27.1221  -13.2247   23.9245 C   0  0  0  0  0  0  0  0  0  0  0  0
  -26.1614  -19.2537   20.2936 C   0  0  0  0  0  0  0  0  0  0  0  0
  -27.9752  -25.7601   18.3694 C   0  0  0  0  0  0  0  0  0  0  0  0
  -30.3389  -25.2859   19.1275 C   0  0  0  0  0  0  0  0  0  0  0  0
  -27.0930  -15.6713   24.4835 C   0  0  0  0  0  0  0  0  0  0  0  0
  -26.2066  -17.8930   20.9758 C   0  0  0  0  0  0  0  0  0  0  0  0
  -28.4036  -18.8498   20.9626 C   0  0  0  0  0  0  0  0  0  0  0  0
  -26.7031  -14.9866   22.1321 C   0  0  0  0  0  0  0  0  0  0  0  0
  -28.3754  -27.1951   18.0512 C   0  0  0  0  0  0  0  0  0  0  0  0
  -30.7211  -26.7244   18.8032 C   0  0  0  0  0  0  0  0  0  0  0  0
  -29.1705  -24.7986   18.2534 C   0  0  0  0  0  0  0  0  0  0  0  0
  -27.6029  -19.4373   19.7918 C   0  0  2  0  0  0  0  0  0  0  0  0
  -21.0621  -28.1373   21.8923 C   0  0  1  0  0  0  0  0  0  0  0  0
  -23.0335  -31.1593   23.0817 C   0  0  1  0  0  0  0  0  0  0  0  0
  -27.2797  -13.5893   22.4402 C   0  0  2  0  0  0  0  0  0  0  0  0
  -27.4313  -21.6423   21.7010 C   0  0  0  0  0  0  0  0  0  0  0  0
  -28.5784  -19.9844   17.0923 C   0  0  0  0  0  0  0  0  0  0  0  0
  -24.8762  -38.6480   22.3563 C   0  0  0  0  0  0  0  0  0  0  0  0
  -21.7502  -33.6204   19.3862 C   0  0  0  0  0  0  0  0  0  0  0  0
  -22.6733  -35.9444   19.2645 C   0  0  0  0  0  0  0  0  0  0  0  0
  -20.8573  -35.4091   20.8887 C   0  0  0  0  0  0  0  0  0  0  0  0
  -26.5077  -36.1227   24.6881 C   0  0  0  0  0  0  0  0  0  0  0  0
  -29.8601  -29.0637   18.7713 C   0  0  0  0  0  0  0  0  0  0  0  0
  -28.8530  -29.9200   19.5133 C   0  0  0  0  0  0  0  0  0  1  0  0
  -23.1953  -34.5465   21.3149 C   0  0  1  0  0  0  0  0  0  0  0  0
  -24.9774  -37.3496   23.1415 C   0  0  2  0  0  0  0  0  0  0  0  0
  -22.1358  -34.8582   20.2205 C   0  0  0  0  0  0  0  0  0  0  0  0
  -25.6087  -11.8426   21.9491 N   0  0  0  0  0  0  0  0  0  0  0  0
  -26.6883  -12.5260   21.5326 N   0  0  0  0  0  0  0  0  0  0  0  0
  -23.5290  -32.3152   22.3317 N   0  0  0  0  0  0  0  0  0  0  0  0
  -27.2231  -15.9973   23.0621 N   0  0  0  0  0  0  0  0  0  0  0  0
  -27.5523  -17.8148   21.5405 N   0  0  0  0  0  0  0  0  0  0  0  0
  -28.2039  -12.7446   19.7254 N   0  0  0  0  0  0  0  0  0  0  0  0
  -25.4037   -9.4802   18.3476 N   0  0  0  0  0  0  0  0  0  0  0  0
  -21.7698  -29.1383   22.6615 N   0  0  0  0  0  0  0  0  0  0  0  0
  -23.5595  -35.6945   22.1382 N   0  0  0  0  0  0  0  0  0  0  0  0
  -29.5098  -27.6127   18.9559 N   0  3  0  0  0  0  0  0  0  0  0  0
  -26.2846  -37.3337   23.8571 N   0  3  0  0  0  0  0  0  0  0  0  0
  -27.2517  -10.7120   17.7764 O   0  0  0  0  0  0  0  0  0  0  0  0
  -22.3580  -30.5476   20.9035 O   0  0  0  0  0  0  0  0  0  0  0  0
  -21.7181  -33.6516   22.9408 O   0  0  0  0  0  0  0  0  0  0  0  0
  -25.8264  -35.6471   21.6522 O   0  0  0  0  0  0  0  0  0  0  0  0
  -28.9057  -17.5357   23.3673 O   0  0  0  0  0  0  0  0  0  0  0  0
  -21.0655   -7.4459   21.1896 O   0  0  0  0  0  0  0  0  0  0  0  0
  -28.8953  -29.6103   20.9000 O   0  0  0  0  0  0  0  0  0  1  0  0
  -21.9542   -2.2399   19.6046 F   0  0  0  0  0  0  0  0  0  0  0  0
  -20.6888   -5.3446   22.9461 F   0  0  0  0  0  0  0  0  0  0  0  0
  1  2  1  0  0  0  0
  1  5  2  0  0  0  0
  2  6  2  0  0  0  0
  3  8  2  0  0  0  0
  3 17  1  0  0  0  0
  4  9  1  0  0  0  0
  4 17  2  0  0  0  0
  5 19  1  0  0  0  0
  6 21  1  0  0  0  0
  7 10  2  0  0  0  0
  7 20  1  0  0  0  0
  8 27  1  0  0  0  0
  9 27  2  0  0  0  0
 10 28  1  0  0  0  0
 11 12  2  0  0  0  0
 11 29  1  0  0  0  0
 12 30  1  0  0  0  0
 13 22  1  0  0  0  0
 13 25  2  0  0  0  0
 14 22  2  0  0  0  0
 14 26  1  0  0  0  0
 15 23  1  0  0  0  0
 15 28  2  0  0  0  0
 16 30  2  0  0  0  0
 16 31  1  0  0  0  0
 17 32  1  0  0  0  0
 18 32  1  0  0  0  0
 18 33  2  0  0  0  0
 18 34  1  0  0  0  0
 19 21  2  0  0  0  0
 19 39  1  0  0  0  0
 20 23  2  0  0  0  0
 20 40  1  0  0  0  0
 21 57  1  0  0  0  0
 22 55  1  0  0  0  0
 23 41  1  0  0  0  0
 24 25  1  0  0  0  0
 24 26  2  0  0  0  0
 24 56  1  0  0  0  0
 25 60  1  0  0  0  0
 26 61  1  0  0  0  0
 27 88  1  0  0  0  0
 28 89  1  0  0  0  0
 29 31  2  0  0  0  0
 29 88  1  0  0  0  0
 30 90  1  0  0  0  0
 31 91  1  0  0  0  0
 32 72  2  0  0  0  0
 33 73  1  0  0  0  0
 33 77  1  0  0  0  0
 34 78  1  0  0  0  0
 34 83  2  0  0  0  0
 35 58  1  0  0  0  0
 35 79  1  0  0  0  0
 35 84  2  0  0  0  0
 36 69  1  0  0  0  0
 36 74  1  0  0  0  0
 36 85  2  0  0  0  0
 37 70  1  0  0  0  0
 37 80  1  0  0  0  0
 37 86  2  0  0  0  0
 38 75  1  0  0  0  0
 38 76  1  0  0  0  0
 38 87  2  0  0  0  0
 39 42  1  0  0  0  0
 40 58  1  0  0  0  0
 41 74  1  0  0  0  0
 42 44  1  0  0  0  0
 43 45  1  0  0  0  0
 43 49  1  0  0  0  0
 44 57  1  0  0  0  0
 45 59  1  0  0  0  0
 46 50  1  0  0  0  0
 46 56  1  0  0  0  0
 47 53  1  0  0  0  0
 47 55  1  0  0  0  0
 48 54  1  0  0  0  0
 48 55  1  0  0  0  0
 49 75  1  0  0  0  0
 50 76  1  0  0  0  0
 51 56  1  0  0  0  0
 51 76  1  0  0  0  0
 52 59  1  0  0  0  0
 52 75  1  0  0  0  0
 53 81  1  0  0  0  0
 54 81  1  0  0  0  0
 57 79  1  0  0  0  0
 58 74  1  0  0  0  0
 59 73  1  0  0  0  0
 62 70  1  0  0  0  0
 63 71  1  0  0  0  0
 64 71  1  0  0  0  0
 65 71  1  0  0  0  0
 66 82  1  0  0  0  0
 67 68  1  0  0  0  0
 67 81  1  0  0  0  0
 68 89  1  0  0  0  0
 69 71  1  0  0  0  0
 69 80  1  0  0  0  0
 70 82  1  0  0  0  0
 72 73  1  0  0  0  0
M  CHG  2  81   1  82   1
M  ISO  4  38 100  68 101  76 100  89 101
M  END
> <Batch ID>
0155

> <Smiles>
CNC(C)C(=O)NC(C(=O)N1Cc2cc([101O:1][101CH2:1]CN3CCC(c4cc(C)c(C5CC[100N:0]([100C:0](=O)N6CCCC(n7nc(-c8ccc(Oc9ccc(F)cc9F)cc8)c(C(N)=O)c7N)C6)C5)c(C)c4)CC3)ccc2CC1C(=O)NC1CCCc2ccccc21)C(C)(C)C

> <Shape>
0.294

> <Color>
0.104

> <Negative vol penalty>
0.000

$$$$

  -OEChem-04052321543D

 91101  0     1  0  0  0  0  0999 V2000
  -26.5063  -38.4859   22.2321 C   0  0  0  0  0  0  0  0  0  0  0  0
  -27.1517  -37.5345   21.4487 C   0  0  0  0  0  0  0  0  0  0  0  0
  -24.5716   -7.7185   24.1297 C   0  0  0  0  0  0  0  0  0  0  0  0
  -23.0278   -6.1215   23.1791 C   0  0  0  0  0  0  0  0  0  0  0  0
  -25.8196  -38.0925   23.3799 C   0  0  0  0  0  0  0  0  0  0  0  0
  -27.1117  -36.1892   21.8133 C   0  0  0  0  0  0  0  0  0  0  0  0
  -26.9939  -29.6276   18.9414 C   0  0  0  0  0  0  0  0  0  0  0  0
  -24.7955   -6.8610   25.2067 C   0  0  0  0  0  0  0  0  0  0  0  0
  -23.2518   -5.2640   24.2562 C   0  0  0  0  0  0  0  0  0  0  0  0
  -27.6620  -28.4063   19.0177 C   0  0  0  0  0  0  0  0  0  0  0  0
  -23.6907   -2.4972   26.5737 C   0  0  0  0  0  0  0  0  0  0  0  0
  -23.8927   -1.1453   26.2961 C   0  0  0  0  0  0  0  0  0  0  0  0
  -25.1475  -20.7763   19.1596 C   0  0  0  0  0  0  0  0  0  0  0  0
  -26.3785  -27.8335   20.9783 C   0  0  0  0  0  0  0  0  0  0  0  0
  -26.1251  -18.5093   20.4588 C   0  0  0  0  0  0  0  0  0  0  0  0
  -25.8243   -1.7085   24.9586 C   0  0  0  0  0  0  0  0  0  0  0  0
  -23.6877   -7.3488   23.1159 C   0  0  0  0  0  0  0  0  0  0  0  0
  -24.1627   -8.2746   20.7867 C   0  0  0  0  0  0  0  0  0  0  0  0
  -25.7630  -36.7405   23.7536 C   0  0  0  0  0  0  0  0  0  0  0  0
  -26.0191  -29.9662   19.8909 C   0  0  0  0  0  0  0  0  0  0  0  0
  -26.4247  -35.7775   22.9680 C   0  0  0  0  0  0  0  0  0  0  0  0
  -26.3235  -20.8528   19.9059 C   0  0  0  0  0  0  0  0  0  0  0  0
  -25.6976  -29.0586   20.9103 C   0  0  0  0  0  0  0  0  0  0  0  0
  -24.4603  -19.5663   19.0630 C   0  0  0  0  0  0  0  0  0  0  0  0
  -26.8123  -19.7194   20.5554 C   0  0  0  0  0  0  0  0  0  0  0  0
  -24.9491  -18.4328   19.7126 C   0  0  0  0  0  0  0  0  0  0  0  0
  -24.1356   -5.6337   25.2700 C   0  0  0  0  0  0  0  0  0  0  0  0
  -27.3565  -27.5103   20.0379 C   0  0  0  0  0  0  0  0  0  0  0  0
  -24.5555   -3.4548   26.0436 C   0  0  0  0  0  0  0  0  0  0  0  0
  -24.9594   -0.7509   25.4886 C   0  0  0  0  0  0  0  0  0  0  0  0
  -25.6222   -3.0604   25.2361 C   0  0  0  0  0  0  0  0  0  0  0  0
  -23.4555   -8.2345   22.0033 C   0  0  0  0  0  0  0  0  0  0  0  0
  -23.5602   -9.2811   20.0723 C   0  0  0  0  0  0  0  0  0  0  0  0
  -25.2657   -7.4736   20.3422 C   0  0  0  0  0  0  0  0  0  0  0  0
  -25.7039  -32.2694   22.0587 C   0  0  0  0  0  0  0  0  0  0  0  0
  -22.7596  -30.9647   22.4476 C   0  0  0  0  0  0  0  0  0  0  0  0
  -20.7401  -28.2298   22.1488 C   0  0  0  0  0  0  0  0  0  0  0  0
  -21.3463  -14.2808   19.6373 C   0  0  0  0  0  0  0  0  0  0  0  0
  -25.0482  -36.3691   25.0286 C   0  0  0  0  0  0  0  0  0  0  0  0
  -25.2885  -31.2762   19.7790 C   0  0  0  0  0  0  0  0  0  0  0  0
  -24.6448  -29.3658   21.9426 C   0  0  0  0  0  0  0  0  0  0  0  0
  -24.7382  -34.8786   25.1411 C   0  0  0  0  0  0  0  0  0  0  0  0
  -19.2724  -11.8152   20.9072 C   0  0  0  0  0  0  0  0  0  0  0  0
  -26.6160  -22.9914   21.2296 C   0  0  0  0  0  0  0  0  0  0  0  0
  -26.8992  -23.0076   18.7079 C   0  0  0  0  0  0  0  0  0  0  0  0
  -25.9631  -34.0490   24.7694 C   0  0  0  0  0  0  0  0  0  0  0  0
  -20.2243  -10.6591   21.2121 C   0  0  0  0  0  0  0  0  0  0  0  0
  -27.3618  -24.3205   21.3154 C   0  0  0  0  0  0  0  0  0  0  0  0
  -27.6440  -24.3363   18.8071 C   0  0  0  0  0  0  0  0  0  0  0  0
  -19.8951  -13.1512   21.2953 C   0  0  0  0  0  0  0  0  0  0  0  0
  -23.7817  -16.5757   20.8492 C   0  0  0  0  0  0  0  0  0  0  0  0
  -23.5173  -15.0879   20.6332 C   0  0  0  0  0  0  0  0  0  0  0  0
  -22.1771  -12.2661   20.9371 C   0  0  0  0  0  0  0  0  0  0  0  0
  -24.2135  -16.4630   18.3735 C   0  0  0  0  0  0  0  0  0  0  0  0
  -27.0534  -22.1805   19.9967 C   0  0  0  0  0  0  0  0  0  0  0  0
  -26.3831  -34.3056   23.3171 C   0  0  1  0  0  0  0  0  0  0  0  0
  -24.6781  -31.7346   21.0999 C   0  0  1  0  0  0  0  0  0  0  0  0
  -21.5981  -10.8881   20.5575 C   0  0  1  0  0  0  0  0  0  0  0  0
  -27.2103  -25.1365   20.0329 C   0  0  0  0  0  0  0  0  0  1  0  0
  -22.9182  -15.6351   18.2744 C   0  0  1  0  0  0  0  0  0  0  0  0
  -23.2018  -19.5134   18.2593 C   0  0  0  0  0  0  0  0  0  0  0  0
  -28.0687  -19.7778   21.3606 C   0  0  0  0  0  0  0  0  0  0  0  0
  -23.0100  -14.6929   17.0691 C   0  0  0  0  0  0  0  0  0  0  0  0
  -18.3923  -27.4578   22.5838 C   0  0  0  0  0  0  0  0  0  0  0  0
  -23.3827  -30.7566   25.4272 C   0  0  0  0  0  0  0  0  0  0  0  0
  -21.4683  -29.1578   25.6448 C   0  0  0  0  0  0  0  0  0  0  0  0
  -21.0548  -31.5017   24.8978 C   0  0  0  0  0  0  0  0  0  0  0  0
  -20.2709  -27.6654   19.2817 C   0  0  0  0  0  0  0  0  0  0  0  0
  -22.1786  -29.8777   23.3193 C   0  0  1  0  0  0  0  0  0  0  0  0
  -19.3474  -28.0647   21.5678 C   0  0  2  0  0  0  0  0  0  0  0  0
  -22.0423  -30.3182   24.8041 C   0  0  0  0  0  0  0  0  0  0  0  0
  -22.4785   -9.1433   22.0620 N   0  0  0  0  0  0  0  0  0  0  0  0
  -22.5675   -9.7640   20.8733 N   0  0  0  0  0  0  0  0  0  0  0  0
  -24.2741  -17.2145   19.6275 N   0  0  3  0  0  0  0  0  0  0  0  0
  -23.9627  -30.6621   21.7943 N   0  0  0  0  0  0  0  0  0  0  0  0
  -21.2001  -13.3299   20.6589 N   0  0  0  0  0  0  0  0  0  0  0  0
  -22.6124  -14.8801   19.5002 N   0  0  0  0  0  0  0  0  0  0  0  0
  -23.7879   -9.7913   18.8434 N   0  0  0  0  0  0  0  0  0  0  0  0
  -25.7618   -6.4838   21.2015 N   0  0  0  0  0  0  0  0  0  0  0  0
  -25.5131  -33.5932   22.4060 N   0  0  0  0  0  0  0  0  0  0  0  0
  -20.9203  -29.4829   22.6952 N   0  0  0  0  0  0  0  0  0  0  0  0
  -19.3871  -27.1771   20.3714 N   0  3  0  0  0  0  0  0  0  0  0  0
  -25.8062   -7.6420   19.2228 O   0  0  0  0  0  0  0  0  0  0  0  0
  -26.6011  -31.5350   22.4553 O   0  0  0  0  0  0  0  0  0  0  0  0
  -22.1641  -32.0400   22.3442 O   0  0  0  0  0  0  0  0  0  0  0  0
  -21.5826  -27.3353   22.1240 O   0  0  0  0  0  0  0  0  0  0  0  0
  -20.4066  -14.5753   18.8880 O   0  0  0  0  0  0  0  0  0  0  0  0
  -24.3541   -4.7966   26.3208 O   0  0  0  0  0  0  0  0  0  0  0  0
  -28.0118  -26.3101   20.1157 O   0  0  0  0  0  0  0  0  0  1  0  0
  -25.1542    0.5475   25.2234 F   0  0  0  0  0  0  0  0  0  0  0  0
  -26.4571   -3.9757   24.7251 F   0  0  0  0  0  0  0  0  0  0  0  0
  1  2  1  0  0  0  0
  1  5  2  0  0  0  0
  2  6  2  0  0  0  0
  3  8  2  0  0  0  0
  3 17  1  0  0  0  0
  4  9  1  0  0  0  0
  4 17  2  0  0  0  0
  5 19  1  0  0  0  0
  6 21  1  0  0  0  0
  7 10  2  0  0  0  0
  7 20  1  0  0  0  0
  8 27  1  0  0  0  0
  9 27  2  0  0  0  0
 10 28  1  0  0  0  0
 11 12  2  0  0  0  0
 11 29  1  0  0  0  0
 12 30  1  0  0  0  0
 13 22  1  0  0  0  0
 13 24  2  0  0  0  0
 14 23  1  0  0  0  0
 14 28  2  0  0  0  0
 15 25  1  0  0  0  0
 15 26  2  0  0  0  0
 16 30  2  0  0  0  0
 16 31  1  0  0  0  0
 17 32  1  0  0  0  0
 18 32  1  0  0  0  0
 18 33  2  0  0  0  0
 18 34  1  0  0  0  0
 19 21  2  0  0  0  0
 19 39  1  0  0  0  0
 20 23  2  0  0  0  0
 20 40  1  0  0  0  0
 21 56  1  0  0  0  0
 22 25  2  0  0  0  0
 22 55  1  0  0  0  0
 23 41  1  0  0  0  0
 24 26  1  0  0  0  0
 24 61  1  0  0  0  0
 25 62  1  0  0  0  0
 26 74  1  0  0  0  0
 27 88  1  0  0  0  0
 28 89  1  0  0  0  0
 29 31  2  0  0  0  0
 29 88  1  0  0  0  0
 30 90  1  0  0  0  0
 31 91  1  0  0  0  0
 32 72  2  0  0  0  0
 33 73  1  0  0  0  0
 33 78  1  0  0  0  0
 34 79  1  0  0  0  0
 34 83  2  0  0  0  0
 35 57  1  0  0  0  0
 35 80  1  0  0  0  0
 35 84  2  0  0  0  0
 36 69  1  0  0  0  0
 36 75  1  0  0  0  0
 36 85  2  0  0  0  0
 37 70  1  0  0  0  0
 37 81  1  0  0  0  0
 37 86  2  0  0  0  0
 38 76  1  0  0  0  0
 38 77  1  0  0  0  0
 38 87  2  0  0  0  0
 39 42  1  0  0  0  0
 40 57  1  0  0  0  0
 41 75  1  0  0  0  0
 42 46  1  0  0  0  0
 43 47  1  0  0  0  0
 43 50  1  0  0  0  0
 44 48  1  0  0  0  0
 44 55  1  0  0  0  0
 45 49  1  0  0  0  0
 45 55  1  0  0  0  0
 46 56  1  0  0  0  0
 47 58  1  0  0  0  0
 48 59  1  0  0  0  0
 49 59  1  0  0  0  0
 50 76  1  0  0  0  0
 51 52  1  0  0  0  0
 51 74  1  0  0  0  0
 52 77  1  0  0  0  0
 53 58  1  0  0  0  0
 53 76  1  0  0  0  0
 54 60  1  0  0  0  0
 54 74  1  0  0  0  0
 56 80  1  0  0  0  0
 57 75  1  0  0  0  0
 58 73  1  0  0  0  0
 59 89  1  0  0  0  0
 60 63  1  0  0  0  0
 60 77  1  0  0  0  0
 64 70  1  0  0  0  0
 65 71  1  0  0  0  0
 66 71  1  0  0  0  0
 67 71  1  0  0  0  0
 68 82  1  0  0  0  0
 69 71  1  0  0  0  0
 69 81  1  0  0  0  0
 70 82  1  0  0  0  0
 72 73  1  0  0  0  0
M  CHG  1  82   1
M  ISO  4  38 100  59 101  77 100  89 101
M  END
> <Batch ID>
0155

> <Smiles>
CNC(C)C(=O)NC(C(=O)N1Cc2cc([101O:1][101CH:1]3CCC(c4cc(C)c(N5CC[100N:0]([100C:0](=O)N6CCCC(n7nc(-c8ccc(Oc9ccc(F)cc9F)cc8)c(C(N)=O)c7N)C6)C(C)C5)cc4C)CC3)ccc2CC1C(=O)NC1CCCc2ccccc21)C(C)(C)C

> <Shape>
0.219

> <Color>
0.073

> <Negative vol penalty>
0.000

$$$$

  -OEChem-04052321543D

 84 93  0     1  0  0  0  0  0999 V2000
  -17.1743  -29.8524   24.2162 C   0  0  0  0  0  0  0  0  0  0  0  0
  -18.3070  -29.6618   25.0012 C   0  0  0  0  0  0  0  0  0  0  0  0
  -27.0906  -17.7996   19.9885 C   0  0  0  0  0  0  0  0  0  0  0  0
  -29.0480  -17.4775   21.3675 C   0  0  0  0  0  0  0  0  0  0  0  0
  -17.0747  -29.2261   22.9745 C   0  0  0  0  0  0  0  0  0  0  0  0
  -19.3402  -28.8439   24.5454 C   0  0  0  0  0  0  0  0  0  0  0  0
  -25.3383  -29.5989   25.5249 C   0  0  0  0  0  0  0  0  0  0  0  0
  -32.0319  -28.0423   24.7650 C   0  0  0  0  0  0  0  0  0  0  0  0
  -26.8918  -16.4196   19.9483 C   0  0  0  0  0  0  0  0  0  0  0  0
  -28.8492  -16.0974   21.3273 C   0  0  0  0  0  0  0  0  0  0  0  0
  -26.2180  -29.0273   26.4432 C   0  0  0  0  0  0  0  0  0  0  0  0
  -25.6250  -14.0254   21.9721 C   0  0  0  0  0  0  0  0  0  0  0  0
  -24.3289  -13.5510   22.1737 C   0  0  0  0  0  0  0  0  0  0  0  0
  -32.3477  -27.9736   23.4126 C   0  0  0  0  0  0  0  0  0  0  0  0
  -26.8779  -27.4002   24.7890 C   0  0  0  0  0  0  0  0  0  0  0  0
  -24.3632  -12.5274   19.9855 C   0  0  0  0  0  0  0  0  0  0  0  0
  -28.1687  -18.3286   20.6981 C   0  0  0  0  0  0  0  0  0  0  0  0
  -27.8585  -20.6605   21.6848 C   0  0  0  0  0  0  0  0  0  0  0  0
  -18.1115  -28.4078   22.4990 C   0  0  0  0  0  0  0  0  0  0  0  0
  -25.2136  -29.0678   24.2331 C   0  0  0  0  0  0  0  0  0  0  0  0
  -19.2538  -28.2050   23.2968 C   0  0  0  0  0  0  0  0  0  0  0  0
  -31.9115  -26.8715   25.5053 C   0  0  0  0  0  0  0  0  0  0  0  0
  -25.9978  -27.9685   23.8554 C   0  0  0  0  0  0  0  0  0  0  0  0
  -27.7711  -15.5685   20.6177 C   0  0  0  0  0  0  0  0  0  0  0  0
  -26.9858  -27.9260   26.0762 C   0  0  0  0  0  0  0  0  0  0  0  0
  -26.2902  -13.7508   20.7771 C   0  0  0  0  0  0  0  0  0  0  0  0
  -23.6980  -12.8020   21.1804 C   0  0  0  0  0  0  0  0  0  0  0  0
  -25.6593  -13.0019   19.7839 C   0  0  0  0  0  0  0  0  0  0  0  0
  -28.3750  -19.7540   20.7396 C   0  0  0  0  0  0  0  0  0  0  0  0
  -32.5317  -26.7198   22.8524 C   0  0  0  0  0  0  0  0  0  0  0  0
  -32.1148  -25.6670   24.8514 C   0  0  0  0  0  0  0  0  0  0  0  0
  -28.3411  -21.8834   21.2870 C   0  0  0  0  0  0  0  0  0  0  0  0
  -27.0179  -20.4188   22.8208 C   0  0  0  0  0  0  0  0  0  0  0  0
  -22.8477  -27.7514   22.5678 C   0  0  0  0  0  0  0  0  0  0  0  0
  -25.0203  -27.8298   20.1603 C   0  0  0  0  0  0  0  0  0  0  0  0
  -28.2993  -27.9211   19.2188 C   0  0  0  0  0  0  0  0  0  0  0  0
  -32.5125  -25.1091   19.4595 C   0  0  0  0  0  0  0  0  0  0  0  0
  -17.9379  -27.7141   21.1711 C   0  0  0  0  0  0  0  0  0  0  0  0
  -24.2797  -29.7124   23.2458 C   0  0  0  0  0  0  0  0  0  0  0  0
  -25.9160  -27.3732   22.4743 C   0  0  0  0  0  0  0  0  0  0  0  0
  -19.2405  -27.1627   20.5971 C   0  0  0  0  0  0  0  0  0  0  0  0
  -30.6805  -23.2707   17.0221 C   0  0  0  0  0  0  0  0  0  0  0  0
  -20.0218  -26.4125   21.6711 C   0  0  0  0  0  0  0  0  0  0  0  0
  -29.8801  -22.2632   17.8493 C   0  0  0  0  0  0  0  0  0  0  0  0
  -30.8768  -28.1637   27.4904 C   0  0  0  0  0  0  0  0  0  0  0  0
  -32.0657  -23.5151   17.6166 C   0  0  0  0  0  0  0  0  0  0  0  0
  -31.2687  -22.8990   19.8658 C   0  0  0  0  0  0  0  0  0  0  0  0
  -31.5739  -26.9371   26.9485 C   0  0  1  0  0  0  0  0  0  0  0  0
  -20.4066  -27.3449   22.8261 C   0  0  1  0  0  0  0  0  0  0  0  0
  -23.8564  -28.7718   22.1218 C   0  0  1  0  0  0  0  0  0  0  0  0
  -29.8438  -22.6620   19.3369 C   0  0  2  0  0  0  0  0  0  0  0  0
  -30.1272  -26.8578   27.4299 C   0  0  1  0  0  0  0  0  0  0  0  0
  -31.9972  -24.3761   25.5939 C   0  0  0  0  0  0  0  0  0  0  0  0
  -29.8692  -26.1333   28.7258 C   0  0  0  0  0  0  0  0  0  0  0  0
  -29.7640  -27.9388   17.1811 C   0  0  0  0  0  0  0  0  0  0  0  0
  -24.5097  -24.8469   19.7704 C   0  0  0  0  0  0  0  0  0  0  0  0
  -26.6203  -24.7321   18.4285 C   0  0  0  0  0  0  0  0  0  0  0  0
  -24.7248  -26.1544   17.6495 C   0  0  0  0  0  0  0  0  0  0  0  0
  -29.4501  -30.5543   19.9264 C   0  0  0  0  0  0  0  0  0  0  0  0
  -32.8721  -26.6090   21.4037 C   0  0  0  0  0  0  0  0  0  0  0  0
  -29.0158  -26.7429   26.4442 C   0  0  0  0  0  0  0  0  0  1  0  0
  -26.0850  -26.8890   19.6501 C   0  0  1  0  0  0  0  0  0  0  0  0
  -29.0343  -28.7867   18.2113 C   0  0  2  0  0  0  0  0  0  0  0  0
  -25.4853  -25.6654   18.9013 C   0  0  0  0  0  0  0  0  0  0  0  0
  -29.1277  -20.3501   19.8112 N   0  0  0  0  0  0  0  0  0  0  0  0
  -32.4231  -25.5606   23.5394 N   0  0  0  0  0  0  0  0  0  0  0  0
  -29.0878  -21.6443   20.1710 N   0  0  0  0  0  0  0  0  0  0  0  0
  -24.9836  -28.0349   21.5468 N   0  0  0  0  0  0  0  0  0  0  0  0
  -31.9609  -23.8912   19.0285 N   0  0  0  0  0  0  0  0  0  0  0  0
  -28.1952  -23.1290   21.7864 N   0  0  0  0  0  0  0  0  0  0  0  0
  -26.6141  -19.1030   23.0853 N   0  0  0  0  0  0  0  0  0  0  0  0
  -21.5358  -28.1704   22.4546 N   0  0  0  0  0  0  0  0  0  0  0  0
  -26.9916  -27.6980   18.8426 N   0  0  0  0  0  0  0  0  0  0  0  0
  -32.3636  -25.3917   20.8118 N   0  0  0  0  0  0  0  0  0  0  0  0
  -30.0334  -29.6504   18.9018 N   0  3  0  0  0  0  0  0  0  0  0  0
  -26.6227  -21.3444   23.5695 O   0  0  0  0  0  0  0  0  0  0  0  0
  -23.2311  -26.6639   22.9824 O   0  0  0  0  0  0  0  0  0  0  0  0
  -24.2541  -28.3684   19.3575 O   0  0  0  0  0  0  0  0  0  0  0  0
  -28.8330  -27.4833   20.2356 O   0  0  0  0  0  0  0  0  0  0  0  0
  -33.0898  -25.8893   18.6947 O   0  0  0  0  0  0  0  0  0  0  0  0
  -27.5772  -14.2218   20.5788 O   0  0  0  0  0  0  0  0  0  0  0  0
  -27.8448  -27.3658   26.9707 O   0  0  0  0  0  0  0  0  0  1  0  0
  -22.4539  -12.3452   21.3748 F   0  0  0  0  0  0  0  0  0  0  0  0
  -26.2937  -12.7339   18.6343 F   0  0  0  0  0  0  0  0  0  0  0  0
  1  2  1  0  0  0  0
  1  5  2  0  0  0  0
  2  6  2  0  0  0  0
  3  9  2  0  0  0  0
  3 17  1  0  0  0  0
  4 10  1  0  0  0  0
  4 17  2  0  0  0  0
  5 19  1  0  0  0  0
  6 21  1  0  0  0  0
  7 11  2  0  0  0  0
  7 20  1  0  0  0  0
  8 14  2  0  0  0  0
  8 22  1  0  0  0  0
  9 24  1  0  0  0  0
 10 24  2  0  0  0  0
 11 25  1  0  0  0  0
 12 13  2  0  0  0  0
 12 26  1  0  0  0  0
 13 27  1  0  0  0  0
 14 30  1  0  0  0  0
 15 23  1  0  0  0  0
 15 25  2  0  0  0  0
 16 27  2  0  0  0  0
 16 28  1  0  0  0  0
 17 29  1  0  0  0  0
 18 29  1  0  0  0  0
 18 32  2  0  0  0  0
 18 33  1  0  0  0  0
 19 21  2  0  0  0  0
 19 38  1  0  0  0  0
 20 23  2  0  0  0  0
 20 39  1  0  0  0  0
 21 49  1  0  0  0  0
 22 31  2  0  0  0  0
 22 48  1  0  0  0  0
 23 40  1  0  0  0  0
 24 81  1  0  0  0  0
 25 82  1  0  0  0  0
 26 28  2  0  0  0  0
 26 81  1  0  0  0  0
 27 83  1  0  0  0  0
 28 84  1  0  0  0  0
 29 65  2  0  0  0  0
 30 60  1  0  0  0  0
 30 66  2  0  0  0  0
 31 53  1  0  0  0  0
 31 66  1  0  0  0  0
 32 67  1  0  0  0  0
 32 70  1  0  0  0  0
 33 71  1  0  0  0  0
 33 76  2  0  0  0  0
 34 50  1  0  0  0  0
 34 72  1  0  0  0  0
 34 77  2  0  0  0  0
 35 62  1  0  0  0  0
 35 68  1  0  0  0  0
 35 78  2  0  0  0  0
 36 63  1  0  0  0  0
 36 73  1  0  0  0  0
 36 79  2  0  0  0  0
 37 69  1  0  0  0  0
 37 74  1  0  0  0  0
 37 80  2  0  0  0  0
 38 41  1  0  0  0  0
 39 50  1  0  0  0  0
 40 68  1  0  0  0  0
 41 43  1  0  0  0  0
 42 44  1  0  0  0  0
 42 46  1  0  0  0  0
 43 49  1  0  0  0  0
 44 51  1  0  0  0  0
 45 48  1  0  0  0  0
 45 52  1  0  0  0  0
 46 69  1  0  0  0  0
 47 51  1  0  0  0  0
 47 69  1  0  0  0  0
 48 52  1  0  0  0  0
 49 72  1  0  0  0  0
 50 68  1  0  0  0  0
 51 67  1  0  0  0  0
 52 54  1  0  0  0  0
 52 61  1  0  0  0  0
 55 63  1  0  0  0  0
 56 64  1  0  0  0  0
 57 64  1  0  0  0  0
 58 64  1  0  0  0  0
 59 75  1  0  0  0  0
 60 74  1  0  0  0  0
 61 82  1  0  0  0  0
 62 64  1  0  0  0  0
 62 73  1  0  0  0  0
 63 75  1  0  0  0  0
 65 67  1  0  0  0  0
M  CHG  1  75   1
M  ISO  4  37 100  61 101  74 100  82 101
M  END
> <Batch ID>
0155

> <Smiles>
CNC(C)C(=O)NC(C(=O)N1Cc2cc([101O:1][101CH2:1]C3(C)CC3c3ccc(C[100NH:0][100C:0](=O)N4CCCC(n5nc(-c6ccc(Oc7ccc(F)cc7F)cc6)c(C(N)=O)c5N)C4)nc3C)ccc2CC1C(=O)NC1CCCc2ccccc21)C(C)(C)C

> <Shape>
0.235

> <Color>
0.070

> <Negative vol penalty>
0.000

$$$$

  -OEChem-04052321543D

 93103  0     1  0  0  0  0  0999 V2000
  -21.6966  -27.7294   25.0863 C   0  0  0  0  0  0  0  0  0  0  0  0
  -21.5629  -26.4937   24.4614 C   0  0  0  0  0  0  0  0  0  0  0  0
  -27.5834  -23.4057   20.6503 C   0  0  0  0  0  0  0  0  0  0  0  0
  -28.9379  -23.3993   18.6498 C   0  0  0  0  0  0  0  0  0  0  0  0
  -20.8375  -28.7752   24.7516 C   0  0  0  0  0  0  0  0  0  0  0  0
  -20.5690  -26.3028   23.5021 C   0  0  0  0  0  0  0  0  0  0  0  0
  -22.2669  -23.8565   19.4060 C   0  0  0  0  0  0  0  0  0  0  0  0
  -24.7804  -15.3894   18.6304 C   0  0  0  0  0  0  0  0  0  0  0  0
  -27.6403  -24.7989   20.6845 C   0  0  0  0  0  0  0  0  0  0  0  0
  -28.9948  -24.7926   18.6839 C   0  0  0  0  0  0  0  0  0  0  0  0
  -22.4231  -22.4749   19.5087 C   0  0  0  0  0  0  0  0  0  0  0  0
  -23.6574  -16.1671   18.3482 C   0  0  0  0  0  0  0  0  0  0  0  0
  -26.1389  -27.3924   19.1185 C   0  0  0  0  0  0  0  0  0  0  0  0
  -24.9531  -28.0838   19.3663 C   0  0  0  0  0  0  0  0  0  0  0  0
  -28.6913  -13.2918   18.7054 C   0  0  0  0  0  0  0  0  0  0  0  0
  -20.3200  -22.1585   18.3704 C   0  0  0  0  0  0  0  0  0  0  0  0
  -23.2840  -16.4864   20.7137 C   0  0  0  0  0  0  0  0  0  0  0  0
  -25.9389  -29.0673   21.3406 C   0  0  0  0  0  0  0  0  0  0  0  0
  -28.2322  -22.7058   19.6330 C   0  0  0  0  0  0  0  0  0  0  0  0
  -27.2118  -20.4703   18.9482 C   0  0  0  0  0  0  0  0  0  0  0  0
  -19.8388  -28.5998   23.7808 C   0  0  0  0  0  0  0  0  0  0  0  0
  -21.1289  -24.4005   18.7934 C   0  0  0  0  0  0  0  0  0  0  0  0
  -19.6948  -27.3468   23.1551 C   0  0  0  0  0  0  0  0  0  0  0  0
  -25.1551  -15.1601   19.9543 C   0  0  0  0  0  0  0  0  0  0  0  0
  -27.7235  -12.4059   19.1658 C   0  0  0  0  0  0  0  0  0  0  0  0
  -20.1529  -23.5473   18.2589 C   0  0  0  0  0  0  0  0  0  0  0  0
  -29.9074  -12.8039   18.2404 C   0  0  0  0  0  0  0  0  0  0  0  0
  -24.4070  -15.7087   20.9960 C   0  0  0  0  0  0  0  0  0  0  0  0
  -28.3460  -25.4924   19.7013 C   0  0  0  0  0  0  0  0  0  0  0  0
  -21.4482  -21.6257   18.9934 C   0  0  0  0  0  0  0  0  0  0  0  0
  -22.9092  -16.7157   19.3898 C   0  0  0  0  0  0  0  0  0  0  0  0
  -27.2247  -27.5384   19.9819 C   0  0  0  0  0  0  0  0  0  0  0  0
  -24.8531  -28.9213   20.4773 C   0  0  0  0  0  0  0  0  0  0  0  0
  -27.1248  -28.3759   21.0929 C   0  0  0  0  0  0  0  0  0  0  0  0
  -28.1742  -21.2665   19.5975 C   0  0  0  0  0  0  0  0  0  0  0  0
  -28.0187  -11.0524   19.1405 C   0  0  0  0  0  0  0  0  0  0  0  0
  -30.1049  -11.4326   18.2567 C   0  0  0  0  0  0  0  0  0  0  0  0
  -27.5988  -19.1794   19.2134 C   0  0  0  0  0  0  0  0  0  0  0  0
  -26.0702  -20.8625   18.1746 C   0  0  0  0  0  0  0  0  0  0  0  0
  -18.7435  -26.2706   19.7507 C   0  0  0  0  0  0  0  0  0  0  0  0
  -17.9409  -26.1954   16.6086 C   0  0  0  0  0  0  0  0  0  0  0  0
  -18.1080  -24.5673   13.6139 C   0  0  0  0  0  0  0  0  0  0  0  0
  -31.5623  -15.2703   19.6070 C   0  0  0  0  0  0  0  0  0  0  0  0
  -18.9033  -29.7457   23.4865 C   0  0  0  0  0  0  0  0  0  0  0  0
  -20.9881  -25.8927   18.6668 C   0  0  0  0  0  0  0  0  0  0  0  0
  -18.9224  -24.0809   17.5736 C   0  0  0  0  0  0  0  0  0  0  0  0
  -18.1172  -29.5725   22.1894 C   0  0  0  0  0  0  0  0  0  0  0  0
  -31.0563  -17.3744   22.4342 C   0  0  0  0  0  0  0  0  0  0  0  0
  -17.5345  -28.1655   22.1022 C   0  0  0  0  0  0  0  0  0  0  0  0
  -30.1877  -18.5114   21.8932 C   0  0  0  0  0  0  0  0  0  0  0  0
  -26.2316  -13.1370   21.1413 C   0  0  0  0  0  0  0  0  0  0  0  0
  -32.0751  -16.9011   21.3997 C   0  0  0  0  0  0  0  0  0  0  0  0
  -30.6340  -17.6644   19.5518 C   0  0  0  0  0  0  0  0  0  0  0  0
  -26.3609  -14.3251   20.2324 C   0  0  1  0  0  0  0  0  0  0  0  0
  -26.4238  -12.9185   19.6634 C   0  0  1  0  0  0  0  0  0  0  0  0
  -18.6450  -27.1081   22.0916 C   0  0  1  0  0  0  0  0  0  0  0  0
  -19.5425  -26.3428   18.4802 C   0  0  1  0  0  0  0  0  0  0  0  0
  -29.5540  -18.1376   20.5397 C   0  0  2  0  0  0  0  0  0  0  0  0
  -24.7883  -15.4793   22.4219 C   0  0  0  0  0  0  0  0  0  0  0  0
  -27.0181  -10.0533   19.6224 C   0  0  0  0  0  0  0  0  0  0  0  0
  -31.3920  -10.8522   17.7692 C   0  0  0  0  0  0  0  0  0  0  0  0
  -17.3217  -24.7306   11.2364 C   0  0  0  0  0  0  0  0  0  0  0  0
  -15.1559  -25.2947   17.4703 C   0  0  0  0  0  0  0  0  0  0  0  0
  -14.7354  -24.5722   15.1104 C   0  0  0  0  0  0  0  0  0  0  0  0
  -15.1824  -26.9735   15.6169 C   0  0  0  0  0  0  0  0  0  0  0  0
  -20.8797  -24.6905   12.5837 C   0  0  0  0  0  0  0  0  0  0  0  0
  -30.9484  -13.7478   17.7457 C   0  0  0  0  0  0  0  0  0  0  0  0
  -21.0110  -19.4806   18.0644 C   0  0  0  0  0  0  0  0  0  1  0  0
  -21.8259  -18.2132   17.8933 C   0  0  0  0  0  0  0  0  0  0  0  0
  -17.0781  -25.3057   15.7466 C   0  0  1  0  0  0  0  0  0  0  0  0
  -18.4370  -25.0603   12.2164 C   0  0  2  0  0  0  0  0  0  0  0  0
  -15.5601  -25.5262   16.0006 C   0  0  0  0  0  0  0  0  0  0  0  0
  -29.1026  -20.5421   20.2278 N   0  0  0  0  0  0  0  0  0  0  0  0
  -29.1886  -10.5411   18.6962 N   0  0  0  0  0  0  0  0  0  0  0  0
  -28.7254  -19.2771   19.9759 N   0  0  0  0  0  0  0  0  0  0  0  0
  -18.8274  -25.5471   17.4803 N   0  0  0  0  0  0  0  0  0  0  0  0
  -31.4094  -16.5608   20.1399 N   0  0  0  0  0  0  0  0  0  0  0  0
  -27.0819  -17.9816   18.8663 N   0  0  0  0  0  0  0  0  0  0  0  0
  -25.8187  -22.2303   18.0008 N   0  0  0  0  0  0  0  0  0  0  0  0
  -19.2579  -27.0320   20.7828 N   0  0  0  0  0  0  0  0  0  0  0  0
  -17.4943  -25.5444   14.3689 N   0  0  0  0  0  0  0  0  0  0  0  0
  -30.8928  -15.0291   18.4135 N   0  0  0  0  0  0  0  0  0  0  0  0
  -19.6948  -24.4284   11.7269 N   0  3  0  0  0  0  0  0  0  0  0  0
  -25.2868  -20.0248   17.6665 O   0  0  0  0  0  0  0  0  0  0  0  0
  -17.7343  -25.5768   19.7911 O   0  0  0  0  0  0  0  0  0  0  0  0
  -17.8374  -27.4203   16.5070 O   0  0  0  0  0  0  0  0  0  0  0  0
  -18.3660  -23.4282   13.9963 O   0  0  0  0  0  0  0  0  0  0  0  0
  -32.2406  -14.3959   20.1570 O   0  0  0  0  0  0  0  0  0  0  0  0
  -28.4016  -26.8519   19.7341 O   0  0  0  0  0  0  0  0  0  0  0  0
  -21.5979  -20.2768   19.0929 O   0  0  0  0  0  0  0  0  0  1  0  0
  -21.8069  -17.4805   19.1123 O   0  0  0  0  0  0  0  0  0  0  0  0
  -23.7148  -29.5863   20.7142 F   0  0  0  0  0  0  0  0  0  0  0  0
  -28.1650  -28.5210   21.9252 F   0  0  0  0  0  0  0  0  0  0  0  0
  1  2  1  0  0  0  0
  1  5  2  0  0  0  0
  2  6  2  0  0  0  0
  3  9  2  0  0  0  0
  3 19  1  0  0  0  0
  4 10  1  0  0  0  0
  4 19  2  0  0  0  0
  5 21  1  0  0  0  0
  6 23  1  0  0  0  0
  7 11  2  0  0  0  0
  7 22  1  0  0  0  0
  8 12  2  0  0  0  0
  8 24  1  0  0  0  0
  9 29  1  0  0  0  0
 10 29  2  0  0  0  0
 11 30  1  0  0  0  0
 12 31  1  0  0  0  0
 13 14  2  0  0  0  0
 13 32  1  0  0  0  0
 14 33  1  0  0  0  0
 15 25  1  0  0  0  0
 15 27  2  0  0  0  0
 16 26  1  0  0  0  0
 16 30  2  0  0  0  0
 17 28  1  0  0  0  0
 17 31  2  0  0  0  0
 18 33  2  0  0  0  0
 18 34  1  0  0  0  0
 19 35  1  0  0  0  0
 20 35  1  0  0  0  0
 20 38  2  0  0  0  0
 20 39  1  0  0  0  0
 21 23  2  0  0  0  0
 21 44  1  0  0  0  0
 22 26  2  0  0  0  0
 22 45  1  0  0  0  0
 23 56  1  0  0  0  0
 24 28  2  0  0  0  0
 24 54  1  0  0  0  0
 25 36  2  0  0  0  0
 25 55  1  0  0  0  0
 26 46  1  0  0  0  0
 27 37  1  0  0  0  0
 27 67  1  0  0  0  0
 28 59  1  0  0  0  0
 29 89  1  0  0  0  0
 30 90  1  0  0  0  0
 31 91  1  0  0  0  0
 32 34  2  0  0  0  0
 32 89  1  0  0  0  0
 33 92  1  0  0  0  0
 34 93  1  0  0  0  0
 35 73  2  0  0  0  0
 36 60  1  0  0  0  0
 36 74  1  0  0  0  0
 37 61  1  0  0  0  0
 37 74  2  0  0  0  0
 38 75  1  0  0  0  0
 38 78  1  0  0  0  0
 39 79  1  0  0  0  0
 39 84  2  0  0  0  0
 40 57  1  0  0  0  0
 40 80  1  0  0  0  0
 40 85  2  0  0  0  0
 41 70  1  0  0  0  0
 41 76  1  0  0  0  0
 41 86  2  0  0  0  0
 42 71  1  0  0  0  0
 42 81  1  0  0  0  0
 42 87  2  0  0  0  0
 43 77  1  0  0  0  0
 43 82  1  0  0  0  0
 43 88  2  0  0  0  0
 44 47  1  0  0  0  0
 45 57  1  0  0  0  0
 46 76  1  0  0  0  0
 47 49  1  0  0  0  0
 48 50  1  0  0  0  0
 48 52  1  0  0  0  0
 49 56  1  0  0  0  0
 50 58  1  0  0  0  0
 51 54  1  0  0  0  0
 51 55  1  0  0  0  0
 52 77  1  0  0  0  0
 53 58  1  0  0  0  0
 53 77  1  0  0  0  0
 54 55  1  0  0  0  0
 56 80  1  0  0  0  0
 57 76  1  0  0  0  0
 58 75  1  0  0  0  0
 62 71  1  0  0  0  0
 63 72  1  0  0  0  0
 64 72  1  0  0  0  0
 65 72  1  0  0  0  0
 66 83  1  0  0  0  0
 67 82  1  0  0  0  0
 68 69  1  0  0  0  0
 68 90  1  0  0  0  0
 69 91  1  0  0  0  0
 70 72  1  0  0  0  0
 70 81  1  0  0  0  0
 71 83  1  0  0  0  0
 73 75  1  0  0  0  0
M  CHG  1  83   1
M  ISO  4  43 100  68 101  82 100  90 101
M  END
> <Batch ID>
0155

> <Smiles>
CNC(C)C(=O)NC(C(=O)N1Cc2cc([101O:1][101CH2:1]COc3ccc(C4CC4c4cc(C[100NH:0][100C:0](=O)N5CCCC(n6nc(-c7ccc(Oc8ccc(F)cc8F)cc7)c(C(N)=O)c6N)C5)c(C)nc4C)c(C)c3)ccc2CC1C(=O)NC1CCCc2ccccc21)C(C)(C)C

> <Shape>
0.245

> <Color>
0.080

> <Negative vol penalty>
0.000

$$$$

  -OEChem-04052321543D

 87 96  0     1  0  0  0  0  0999 V2000
  -19.3514  -27.9857   26.6498 C   0  0  0  0  0  0  0  0  0  0  0  0
  -20.6885  -27.7550   26.3424 C   0  0  0  0  0  0  0  0  0  0  0  0
  -27.7718  -12.8137   18.6574 C   0  0  0  0  0  0  0  0  0  0  0  0
  -27.6154  -11.6702   20.7799 C   0  0  0  0  0  0  0  0  0  0  0  0
  -18.4311  -28.2114   25.6270 C   0  0  0  0  0  0  0  0  0  0  0  0
  -21.1058  -27.7489   25.0119 C   0  0  0  0  0  0  0  0  0  0  0  0
  -26.4887  -29.6936   22.8330 C   0  0  0  0  0  0  0  0  0  0  0  0
  -28.9169  -12.0804   18.3466 C   0  0  0  0  0  0  0  0  0  0  0  0
  -28.7605  -10.9368   20.4691 C   0  0  0  0  0  0  0  0  0  0  0  0
  -27.6577  -29.0194   22.4827 C   0  0  0  0  0  0  0  0  0  0  0  0
  -29.6608   -8.9740   17.2377 C   0  0  0  0  0  0  0  0  0  0  0  0
  -29.7530   -8.4276   15.9577 C   0  0  0  0  0  0  0  0  0  0  0  0
  -26.9425  -28.9884   20.1791 C   0  0  0  0  0  0  0  0  0  0  0  0
  -28.9596  -23.9320   20.6625 C   0  0  0  0  0  0  0  0  0  0  0  0
  -31.7659   -9.7028   15.5583 C   0  0  0  0  0  0  0  0  0  0  0  0
  -29.3369  -25.3242   18.9335 C   0  0  0  0  0  0  0  0  0  0  0  0
  -27.1211  -12.6087   19.8741 C   0  0  0  0  0  0  0  0  0  0  0  0
  -24.6038  -13.0205   19.9115 C   0  0  0  0  0  0  0  0  0  0  0  0
  -18.8391  -28.2176   24.2839 C   0  0  0  0  0  0  0  0  0  0  0  0
  -25.5312  -30.0112   21.8589 C   0  0  0  0  0  0  0  0  0  0  0  0
  -20.1898  -27.9736   23.9701 C   0  0  0  0  0  0  0  0  0  0  0  0
  -25.7634  -29.6690   20.5191 C   0  0  0  0  0  0  0  0  0  0  0  0
  -29.6035  -25.1317   20.2711 C   0  0  0  0  0  0  0  0  0  0  0  0
  -29.4112  -11.1419   19.2524 C   0  0  0  0  0  0  0  0  0  0  0  0
  -27.8834  -28.6641   21.1561 C   0  0  0  0  0  0  0  0  0  0  0  0
  -30.6210   -9.8850   17.6780 C   0  0  0  0  0  0  0  0  0  0  0  0
  -30.8056   -8.7919   15.1180 C   0  0  0  0  0  0  0  0  0  0  0  0
  -31.6736  -10.2493   16.8384 C   0  0  0  0  0  0  0  0  0  0  0  0
  -25.9385  -13.3663   20.1959 C   0  0  0  0  0  0  0  0  0  0  0  0
  -28.3193  -23.4277   19.5520 C   0  0  0  0  0  0  0  0  0  0  0  0
  -23.8641  -14.0609   20.4185 C   0  0  0  0  0  0  0  0  0  0  0  0
  -24.0795  -11.8625   19.2484 C   0  0  0  0  0  0  0  0  0  0  0  0
  -22.4892  -29.2322   21.3660 C   0  0  0  0  0  0  0  0  0  0  0  0
  -22.7279  -31.4024   18.9669 C   0  0  0  0  0  0  0  0  0  0  0  0
  -24.7261  -33.0878   16.7730 C   0  0  0  0  0  0  0  0  0  0  0  0
  -24.9222  -19.7351   21.4799 C   0  0  0  0  0  0  0  0  0  0  0  0
  -17.7993  -28.4193   23.2102 C   0  0  0  0  0  0  0  0  0  0  0  0
  -24.2878  -30.7625   22.2488 C   0  0  0  0  0  0  0  0  0  0  0  0
  -24.7762  -30.0049   19.4323 C   0  0  0  0  0  0  0  0  0  0  0  0
  -18.3910  -28.7682   21.8470 C   0  0  0  0  0  0  0  0  0  0  0  0
  -23.9339  -17.4025   23.8316 C   0  0  0  0  0  0  0  0  0  0  0  0
  -19.5539  -27.8381   21.5160 C   0  0  0  0  0  0  0  0  0  0  0  0
  -24.1997  -16.0617   23.1475 C   0  0  0  0  0  0  0  0  0  0  0  0
  -27.9670  -21.0381   20.3185 C   0  0  0  0  0  0  0  0  0  0  0  0
  -25.9833  -22.4471   19.6191 C   0  0  0  0  0  0  0  0  0  0  0  0
  -25.0615  -18.3898   23.5539 C   0  0  0  0  0  0  0  0  0  0  0  0
  -27.0974  -19.7851   20.1812 C   0  0  0  0  0  0  0  0  0  0  0  0
  -25.1709  -21.1636   19.4734 C   0  0  0  0  0  0  0  0  0  0  0  0
  -25.5846  -17.2886   21.4018 C   0  0  0  0  0  0  0  0  0  0  0  0
  -20.6856  -27.9837   22.5404 C   0  0  1  0  0  0  0  0  0  0  0  0
  -27.4817  -22.1722   19.3977 C   0  0  0  0  0  0  0  0  0  0  0  0
  -23.1437  -30.5802   21.2562 C   0  0  1  0  0  0  0  0  0  0  0  0
  -24.4689  -16.2517   21.6442 C   0  0  1  0  0  0  0  0  0  0  0  0
  -24.6293  -34.7665   14.9102 C   0  0  0  0  0  0  0  0  0  0  0  0
  -29.2034  -23.9505   16.1490 C   0  0  0  0  0  0  0  0  0  0  0  0
  -27.1244  -25.2620   16.7520 C   0  0  0  0  0  0  0  0  0  0  0  0
  -21.6853  -29.2439   17.0791 C   0  0  0  0  0  0  0  0  0  0  0  0
  -22.4990  -30.6287   15.1586 C   0  0  0  0  0  0  0  0  0  0  0  0
  -20.7378  -31.5239   16.6815 C   0  0  0  0  0  0  0  0  0  0  0  0
  -26.4146  -35.0094   18.2613 C   0  0  0  0  0  0  0  0  0  0  0  0
  -29.6028  -27.1515   21.7976 C   0  0  0  0  0  0  0  0  0  1  0  0
  -30.4105  -26.0135   21.1358 C   0  0  2  0  0  0  0  0  0  0  0  0
  -23.1198  -31.3468   17.5101 C   0  0  1  0  0  0  0  0  0  0  0  0
  -24.8034  -34.5590   16.4067 C   0  0  2  0  0  0  0  0  0  0  0  0
  -28.0644  -24.1245   17.1555 C   0  0  0  0  0  0  0  0  0  0  0  0
  -22.0284  -30.6776   16.6279 C   0  0  0  0  0  0  0  0  0  0  0  0
  -26.0436  -14.5350   20.8339 N   0  0  0  0  0  0  0  0  0  0  0  0
  -28.5558  -24.2820   18.5068 N   0  0  0  0  0  0  0  0  0  0  0  0
  -24.7656  -14.9327   20.9546 N   0  0  0  0  0  0  0  0  0  0  0  0
  -23.5727  -30.7345   19.8646 N   0  0  0  0  0  0  0  0  0  0  0  0
  -25.2887  -18.5398   22.1167 N   0  0  0  0  0  0  0  0  0  0  0  0
  -25.6771  -20.1167   20.3606 N   0  0  0  0  0  0  0  0  0  0  0  0
  -22.5370  -14.3058   20.4535 N   0  0  0  0  0  0  0  0  0  0  0  0
  -24.9792  -10.8904   18.7901 N   0  0  0  0  0  0  0  0  0  0  0  0
  -21.4530  -29.1825   22.2788 N   0  0  0  0  0  0  0  0  0  0  0  0
  -23.4454  -32.7151   17.1225 N   0  0  0  0  0  0  0  0  0  0  0  0
  -31.5713  -26.6644   20.4176 N   0  3  0  0  0  0  0  0  0  0  0  0
  -26.1221  -35.1244   16.8093 N   0  3  0  0  0  0  0  0  0  0  0  0
  -22.8508  -11.7025   19.0531 O   0  0  0  0  0  0  0  0  0  0  0  0
  -22.8934  -28.3060   20.6727 O   0  0  0  0  0  0  0  0  0  0  0  0
  -21.7135  -32.0218   19.2970 O   0  0  0  0  0  0  0  0  0  0  0  0
  -25.7033  -32.3428   16.7477 O   0  0  0  0  0  0  0  0  0  0  0  0
  -23.9760  -20.4211   21.8864 O   0  0  0  0  0  0  0  0  0  0  0  0
  -30.5285  -10.4260   18.9494 O   0  0  0  0  0  0  0  0  0  0  0  0
  -29.0308  -28.0011   20.8094 O   0  0  0  0  0  0  0  0  0  1  0  0
  -30.8949   -8.2659   13.8894 F   0  0  0  0  0  0  0  0  0  0  0  0
  -32.5997  -11.1230   17.2563 F   0  0  0  0  0  0  0  0  0  0  0  0
  1  2  1  0  0  0  0
  1  5  2  0  0  0  0
  2  6  2  0  0  0  0
  3  8  2  0  0  0  0
  3 17  1  0  0  0  0
  4  9  1  0  0  0  0
  4 17  2  0  0  0  0
  5 19  1  0  0  0  0
  6 21  1  0  0  0  0
  7 10  2  0  0  0  0
  7 20  1  0  0  0  0
  8 24  1  0  0  0  0
  9 24  2  0  0  0  0
 10 25  1  0  0  0  0
 11 12  2  0  0  0  0
 11 26  1  0  0  0  0
 12 27  1  0  0  0  0
 13 22  1  0  0  0  0
 13 25  2  0  0  0  0
 14 23  1  0  0  0  0
 14 30  2  0  0  0  0
 15 27  2  0  0  0  0
 15 28  1  0  0  0  0
 16 23  2  0  0  0  0
 16 68  1  0  0  0  0
 17 29  1  0  0  0  0
 18 29  1  0  0  0  0
 18 31  2  0  0  0  0
 18 32  1  0  0  0  0
 19 21  2  0  0  0  0
 19 37  1  0  0  0  0
 20 22  2  0  0  0  0
 20 38  1  0  0  0  0
 21 50  1  0  0  0  0
 22 39  1  0  0  0  0
 23 62  1  0  0  0  0
 24 84  1  0  0  0  0
 25 85  1  0  0  0  0
 26 28  2  0  0  0  0
 26 84  1  0  0  0  0
 27 86  1  0  0  0  0
 28 87  1  0  0  0  0
 29 67  2  0  0  0  0
 30 51  1  0  0  0  0
 30 68  1  0  0  0  0
 31 69  1  0  0  0  0
 31 73  1  0  0  0  0
 32 74  1  0  0  0  0
 32 79  2  0  0  0  0
 33 52  1  0  0  0  0
 33 75  1  0  0  0  0
 33 80  2  0  0  0  0
 34 63  1  0  0  0  0
 34 70  1  0  0  0  0
 34 81  2  0  0  0  0
 35 64  1  0  0  0  0
 35 76  1  0  0  0  0
 35 82  2  0  0  0  0
 36 71  1  0  0  0  0
 36 72  1  0  0  0  0
 36 83  2  0  0  0  0
 37 40  1  0  0  0  0
 38 52  1  0  0  0  0
 39 70  1  0  0  0  0
 40 42  1  0  0  0  0
 41 43  1  0  0  0  0
 41 46  1  0  0  0  0
 42 50  1  0  0  0  0
 43 53  1  0  0  0  0
 44 47  1  0  0  0  0
 44 51  1  0  0  0  0
 45 48  1  0  0  0  0
 45 51  1  0  0  0  0
 46 71  1  0  0  0  0
 47 72  1  0  0  0  0
 48 72  1  0  0  0  0
 49 53  1  0  0  0  0
 49 71  1  0  0  0  0
 50 75  1  0  0  0  0
 52 70  1  0  0  0  0
 53 69  1  0  0  0  0
 54 64  1  0  0  0  0
 55 65  1  0  0  0  0
 56 65  1  0  0  0  0
 57 66  1  0  0  0  0
 58 66  1  0  0  0  0
 59 66  1  0  0  0  0
 60 78  1  0  0  0  0
 61 62  1  0  0  0  0
 61 85  1  0  0  0  0
 62 77  1  0  0  0  0
 63 66  1  0  0  0  0
 63 76  1  0  0  0  0
 64 78  1  0  0  0  0
 65 68  1  0  0  0  0
 67 69  1  0  0  0  0
M  CHG  2  77   1  78   1
M  ISO  4  36 100  61 101  72 100  85 101
M  END
> <Batch ID>
0155

> <Smiles>
CNC(C)C(=O)NC(C(=O)N1Cc2cc([101O:1][101CH2:1]C(N)c3cc(C4CC[100N:0]([100C:0](=O)N5CCCC(n6nc(-c7ccc(Oc8ccc(F)cc8F)cc7)c(C(N)=O)c6N)C5)CC4)n(C(C)C)c3)ccc2CC1C(=O)NC1CCCc2ccccc21)C(C)(C)C

> <Shape>
0.230

> <Color>
0.082

> <Negative vol penalty>
0.000

$$$$

  -OEChem-04052321543D

 86 95  0     1  0  0  0  0  0999 V2000
  -31.0941  -19.7187   26.5367 C   0  0  0  0  0  0  0  0  0  0  0  0
  -30.7625  -20.4314   25.3889 C   0  0  0  0  0  0  0  0  0  0  0  0
  -23.1474   -9.8895   20.0001 C   0  0  0  0  0  0  0  0  0  0  0  0
  -23.9988   -9.9578   22.2601 C   0  0  0  0  0  0  0  0  0  0  0  0
  -30.1151  -19.4387   27.4892 C   0  0  0  0  0  0  0  0  0  0  0  0
  -29.4514  -20.8636   25.1924 C   0  0  0  0  0  0  0  0  0  0  0  0
  -29.2076  -25.6553   23.5722 C   0  0  0  0  0  0  0  0  0  0  0  0
  -22.4666   -8.7077   20.2924 C   0  0  0  0  0  0  0  0  0  0  0  0
  -23.3180   -8.7760   22.5524 C   0  0  0  0  0  0  0  0  0  0  0  0
  -29.4781  -25.8861   22.2241 C   0  0  0  0  0  0  0  0  0  0  0  0
  -20.1559   -7.8435   23.2954 C   0  0  0  0  0  0  0  0  0  0  0  0
  -19.4497   -7.7843   24.4968 C   0  0  0  0  0  0  0  0  0  0  0  0
  -27.1108  -26.0033   21.7753 C   0  0  0  0  0  0  0  0  0  0  0  0
  -20.8054   -5.9128   25.2015 C   0  0  0  0  0  0  0  0  0  0  0  0
  -23.9135  -10.5146   20.9840 C   0  0  0  0  0  0  0  0  0  0  0  0
  -24.1370  -13.0507   20.8240 C   0  0  0  0  0  0  0  0  0  0  0  0
  -28.7934  -19.8760   27.3088 C   0  0  0  0  0  0  0  0  0  0  0  0
  -27.8842  -25.5857   24.0308 C   0  0  0  0  0  0  0  0  0  0  0  0
  -28.4535  -20.5880   26.1427 C   0  0  0  0  0  0  0  0  0  0  0  0
  -26.8262  -25.7740   23.1301 C   0  0  0  0  0  0  0  0  0  0  0  0
  -22.5518   -8.1509   21.5685 C   0  0  0  0  0  0  0  0  0  0  0  0
  -28.4297  -26.0573   21.3249 C   0  0  0  0  0  0  0  0  0  0  0  0
  -21.1868   -6.9373   23.0470 C   0  0  0  0  0  0  0  0  0  0  0  0
  -19.7745   -6.8190   25.4499 C   0  0  0  0  0  0  0  0  0  0  0  0
  -21.5115   -5.9720   24.0000 C   0  0  0  0  0  0  0  0  0  0  0  0
  -24.6175  -11.7351   20.6826 C   0  0  0  0  0  0  0  0  0  0  0  0
  -25.1789  -13.8433   20.4084 C   0  0  0  0  0  0  0  0  0  0  0  0
  -22.8628  -13.5149   21.2896 C   0  0  0  0  0  0  0  0  0  0  0  0
  -26.1029  -23.3429   25.4093 C   0  0  0  0  0  0  0  0  0  0  0  0
  -23.9437  -25.7523   25.6438 C   0  0  0  0  0  0  0  0  0  0  0  0
  -22.8055  -28.7473   24.4686 C   0  0  0  0  0  0  0  0  0  0  0  0
  -30.7738  -14.7917   20.8054 C   0  0  0  0  0  0  0  0  0  0  0  0
  -27.7596  -19.5084   28.3435 C   0  0  0  0  0  0  0  0  0  0  0  0
  -27.6095  -25.3626   25.4927 C   0  0  0  0  0  0  0  0  0  0  0  0
  -25.3881  -25.7288   23.5754 C   0  0  0  0  0  0  0  0  0  0  0  0
  -26.4748  -20.3260   28.2381 C   0  0  0  0  0  0  0  0  0  0  0  0
  -29.4845  -12.6818   18.0436 C   0  0  0  0  0  0  0  0  0  0  0  0
  -26.0055  -20.3983   26.7885 C   0  0  0  0  0  0  0  0  0  0  0  0
  -28.0923  -12.2996   18.5427 C   0  0  0  0  0  0  0  0  0  0  0  0
  -31.4850  -18.1847   20.9398 C   0  0  0  0  0  0  0  0  0  0  0  0
  -29.3164  -17.8032   19.7013 C   0  0  0  0  0  0  0  0  0  0  0  0
  -30.7312  -22.2762   19.7101 C   0  0  0  0  0  0  0  0  0  0  0  0
  -30.4465  -12.9484   19.1971 C   0  0  0  0  0  0  0  0  0  0  0  0
  -31.1349  -17.0092   21.8482 C   0  0  0  0  0  0  0  0  0  0  0  0
  -29.0210  -16.6144   20.6206 C   0  0  0  0  0  0  0  0  0  0  0  0
  -28.5604  -13.5836   20.6673 C   0  0  0  0  0  0  0  0  0  0  0  0
  -31.4688  -20.9789   19.9960 C   0  0  0  0  0  0  0  0  0  0  0  0
  -29.3875  -20.5660   18.7798 C   0  0  0  0  0  0  0  0  0  0  0  0
  -27.0476  -21.0952   25.9053 C   0  0  1  0  0  0  0  0  0  0  0  0
  -26.2171  -24.7995   25.7599 C   0  0  1  0  0  0  0  0  0  0  0  0
  -29.9058  -21.9608   18.4713 C   0  0  1  0  0  0  0  0  0  0  0  0
  -27.5560  -13.3518   19.5284 C   0  0  2  0  0  0  0  0  0  0  0  0
  -30.2106  -18.8276   20.3964 C   0  0  0  0  0  0  0  0  0  0  0  0
  -20.9999  -30.4506   24.8375 C   0  0  0  0  0  0  0  0  0  0  0  0
  -29.1498  -26.5373   17.1065 C   0  0  0  0  0  0  0  0  0  0  0  0
  -21.9349  -23.9188   24.2607 C   0  0  0  0  0  0  0  0  0  0  0  0
  -20.5152  -25.9309   23.8084 C   0  0  0  0  0  0  0  0  0  0  0  0
  -20.9975  -25.2497   26.1592 C   0  0  0  0  0  0  0  0  0  0  0  0
  -24.7724  -30.8639   25.1093 C   0  0  0  0  0  0  0  0  0  0  0  0
  -28.7948  -22.9645   18.2188 C   0  0  0  0  0  0  0  0  0  0  0  0
  -27.7271  -25.8149   19.0658 C   0  0  0  0  0  0  0  0  0  1  0  0
  -22.8364  -26.2847   24.7666 C   0  0  1  0  0  0  0  0  0  0  0  0
  -22.4194  -30.0292   25.1842 C   0  0  2  0  0  0  0  0  0  0  0  0
  -28.4036  -25.3898   17.7675 C   0  0  2  0  0  0  0  0  0  0  0  0
  -21.5979  -25.3450   24.7397 C   0  0  0  0  0  0  0  0  0  0  0  0
  -25.8673  -11.6902   20.2136 N   0  0  0  0  0  0  0  0  0  0  0  0
  -26.1810  -12.9876   20.0567 N   0  0  0  0  0  0  0  0  0  0  0  0
  -25.1708  -25.5015   25.0137 N   0  0  0  0  0  0  0  0  0  0  0  0
  -29.8951  -13.9160   20.1459 N   0  0  0  0  0  0  0  0  0  0  0  0
  -30.2671  -16.0509   21.1609 N   0  0  0  0  0  0  0  0  0  0  0  0
  -25.3264  -15.1818   20.3131 N   0  0  0  0  0  0  0  0  0  0  0  0
  -21.9071  -12.5660   21.6775 N   0  0  0  0  0  0  0  0  0  0  0  0
  -26.9886  -22.5294   26.0898 N   0  0  0  0  0  0  0  0  0  0  0  0
  -22.5521  -27.6343   25.2421 N   0  0  0  0  0  0  0  0  0  0  0  0
  -30.5792  -19.8894   19.4246 N   0  3  2  0  0  0  0  0  0  0  0  0
  -23.3441  -31.1340   24.8029 N   0  3  0  0  0  0  0  0  0  0  0  0
  -29.3863  -24.3135   18.0767 N   0  3  0  0  0  0  0  0  0  0  0  0
  -22.5743  -14.7344   21.3439 O   0  0  0  0  0  0  0  0  0  0  0  0
  -25.2717  -22.9835   24.5837 O   0  0  0  0  0  0  0  0  0  0  0  0
  -23.7298  -25.5724   26.8453 O   0  0  0  0  0  0  0  0  0  0  0  0
  -23.2807  -28.7344   23.3352 O   0  0  0  0  0  0  0  0  0  0  0  0
  -31.9408  -14.4673   21.0585 O   0  0  0  0  0  0  0  0  0  0  0  0
  -21.8874   -6.9979   21.8540 O   0  0  0  0  0  0  0  0  0  0  0  0
  -28.6927  -26.2837   19.9996 O   0  0  0  0  0  0  0  0  0  1  0  0
  -19.0973   -6.7633   26.6042 F   0  0  0  0  0  0  0  0  0  0  0  0
  -22.5017   -5.0994   23.7675 F   0  0  0  0  0  0  0  0  0  0  0  0
  1  2  1  0  0  0  0
  1  5  2  0  0  0  0
  2  6  2  0  0  0  0
  3  8  2  0  0  0  0
  3 15  1  0  0  0  0
  4  9  1  0  0  0  0
  4 15  2  0  0  0  0
  5 17  1  0  0  0  0
  6 19  1  0  0  0  0
  7 10  2  0  0  0  0
  7 18  1  0  0  0  0
  8 21  1  0  0  0  0
  9 21  2  0  0  0  0
 10 22  1  0  0  0  0
 11 12  2  0  0  0  0
 11 23  1  0  0  0  0
 12 24  1  0  0  0  0
 13 20  1  0  0  0  0
 13 22  2  0  0  0  0
 14 24  2  0  0  0  0
 14 25  1  0  0  0  0
 15 26  1  0  0  0  0
 16 26  1  0  0  0  0
 16 27  2  0  0  0  0
 16 28  1  0  0  0  0
 17 19  2  0  0  0  0
 17 33  1  0  0  0  0
 18 20  2  0  0  0  0
 18 34  1  0  0  0  0
 19 49  1  0  0  0  0
 20 35  1  0  0  0  0
 21 83  1  0  0  0  0
 22 84  1  0  0  0  0
 23 25  2  0  0  0  0
 23 83  1  0  0  0  0
 24 85  1  0  0  0  0
 25 86  1  0  0  0  0
 26 66  2  0  0  0  0
 27 67  1  0  0  0  0
 27 71  1  0  0  0  0
 28 72  1  0  0  0  0
 28 78  2  0  0  0  0
 29 50  1  0  0  0  0
 29 73  1  0  0  0  0
 29 79  2  0  0  0  0
 30 62  1  0  0  0  0
 30 68  1  0  0  0  0
 30 80  2  0  0  0  0
 31 63  1  0  0  0  0
 31 74  1  0  0  0  0
 31 81  2  0  0  0  0
 32 69  1  0  0  0  0
 32 70  1  0  0  0  0
 32 82  2  0  0  0  0
 33 36  1  0  0  0  0
 34 50  1  0  0  0  0
 35 68  1  0  0  0  0
 36 38  1  0  0  0  0
 37 39  1  0  0  0  0
 37 43  1  0  0  0  0
 38 49  1  0  0  0  0
 39 52  1  0  0  0  0
 40 44  1  0  0  0  0
 40 53  1  0  0  0  0
 41 45  1  0  0  0  0
 41 53  1  0  0  0  0
 42 47  1  0  0  0  0
 42 51  1  0  0  0  0
 43 69  1  0  0  0  0
 44 70  1  0  0  0  0
 45 70  1  0  0  0  0
 46 52  1  0  0  0  0
 46 69  1  0  0  0  0
 47 75  1  0  0  0  0
 48 51  1  0  0  0  0
 48 75  1  0  0  0  0
 49 73  1  0  0  0  0
 50 68  1  0  0  0  0
 51 60  1  0  0  0  0
 52 67  1  0  0  0  0
 53 75  1  0  0  0  0
 54 63  1  0  0  0  0
 55 64  1  0  0  0  0
 56 65  1  0  0  0  0
 57 65  1  0  0  0  0
 58 65  1  0  0  0  0
 59 76  1  0  0  0  0
 60 77  1  0  0  0  0
 61 64  1  0  0  0  0
 61 84  1  0  0  0  0
 62 65  1  0  0  0  0
 62 74  1  0  0  0  0
 63 76  1  0  0  0  0
 64 77  1  0  0  0  0
 66 67  1  0  0  0  0
M  CHG  3  75   1  76   1  77   1
M  ISO  4  32 100  61 101  70 100  84 101
M  END
> <Batch ID>
0155

> <Smiles>
CNC(C)C(=O)NC(C(=O)N1Cc2cc([101O:1][101CH2:1]C(C)NCC3CCN(C4CC[100N:0]([100C:0](=O)N5CCCC(n6nc(-c7ccc(Oc8ccc(F)cc8F)cc7)c(C(N)=O)c6N)C5)CC4)C3)ccc2CC1C(=O)NC1CCCc2ccccc21)C(C)(C)C

> <Shape>
0.254

> <Color>
0.205

> <Negative vol penalty>
0.000

$$$$

  -OEChem-04052321543D

 89 98  0     1  0  0  0  0  0999 V2000
  -23.0842   -8.0587   21.9349 C   0  0  0  0  0  0  0  0  0  0  0  0
  -24.3102   -8.7126   21.8663 C   0  0  0  0  0  0  0  0  0  0  0  0
  -20.8335  -26.2897   23.3163 C   0  0  0  0  0  0  0  0  0  0  0  0
  -20.1274  -28.4429   22.4781 C   0  0  0  0  0  0  0  0  0  0  0  0
  -21.9379   -8.6749   21.4347 C   0  0  0  0  0  0  0  0  0  0  0  0
  -24.3908   -9.9827   21.2964 C   0  0  0  0  0  0  0  0  0  0  0  0
  -28.0030  -16.1419   21.8738 C   0  0  0  0  0  0  0  0  0  0  0  0
  -19.8137  -25.6731   22.5915 C   0  0  0  0  0  0  0  0  0  0  0  0
  -19.1076  -27.8262   21.7533 C   0  0  0  0  0  0  0  0  0  0  0  0
  -28.7306  -17.0408   21.0952 C   0  0  0  0  0  0  0  0  0  0  0  0
  -19.2438  -24.7431   19.3910 C   0  0  0  0  0  0  0  0  0  0  0  0
  -19.5640  -23.5906   18.6735 C   0  0  0  0  0  0  0  0  0  0  0  0
  -26.6710  -18.0406   20.3353 C   0  0  0  0  0  0  0  0  0  0  0  0
  -29.1007  -25.0122   17.0931 C   0  0  0  0  0  0  0  0  0  0  0  0
  -28.7873  -27.7138   17.7143 C   0  0  0  0  0  0  0  0  0  0  0  0
  -17.9425  -22.3412   19.9569 C   0  0  0  0  0  0  0  0  0  0  0  0
  -20.9903  -27.6747   23.2597 C   0  0  0  0  0  0  0  0  0  0  0  0
  -22.2291  -28.2874   25.4039 C   0  0  0  0  0  0  0  0  0  0  0  0
  -22.0028   -9.9572   20.8671 C   0  0  0  0  0  0  0  0  0  0  0  0
  -26.6012  -16.1786   21.8805 C   0  0  0  0  0  0  0  0  0  0  0  0
  -23.2445  -10.6161   20.7869 C   0  0  0  0  0  0  0  0  0  0  0  0
  -25.9279  -17.1427   21.1168 C   0  0  0  0  0  0  0  0  0  0  0  0
  -29.0251  -25.9586   16.0712 C   0  0  0  0  0  0  0  0  0  0  0  0
  -28.8684  -27.3094   16.3818 C   0  0  0  0  0  0  0  0  0  0  0  0
  -29.0195  -25.4166   18.4256 C   0  0  0  0  0  0  0  0  0  0  0  0
  -18.9508  -26.4413   21.8099 C   0  0  0  0  0  0  0  0  0  0  0  0
  -28.0646  -17.9885   20.3235 C   0  0  0  0  0  0  0  0  0  0  0  0
  -18.2730  -24.6947   20.3914 C   0  0  0  0  0  0  0  0  0  0  0  0
  -28.8628  -26.7674   18.7362 C   0  0  0  0  0  0  0  0  0  0  0  0
  -18.9134  -22.3896   18.9564 C   0  0  0  0  0  0  0  0  0  0  0  0
  -17.6224  -23.4937   20.6743 C   0  0  0  0  0  0  0  0  0  0  0  0
  -22.0432  -28.3123   24.0087 C   0  0  0  0  0  0  0  0  0  0  0  0
  -23.3607  -29.0374   25.6129 C   0  0  0  0  0  0  0  0  0  0  0  0
  -21.4487  -27.6440   26.4201 C   0  0  0  0  0  0  0  0  0  0  0  0
  -24.3002  -14.1469   21.0551 C   0  0  0  0  0  0  0  0  0  0  0  0
  -22.3702  -16.4248   22.3234 C   0  0  0  0  0  0  0  0  0  0  0  0
  -22.1719  -20.0272   22.2865 C   0  0  0  0  0  0  0  0  0  0  0  0
  -28.0610  -30.3769   22.1541 C   0  0  0  0  0  0  0  0  0  0  0  0
  -20.7449  -10.5632   20.2969 C   0  0  0  0  0  0  0  0  0  0  0  0
  -25.8316  -15.2193   22.7465 C   0  0  0  0  0  0  0  0  0  0  0  0
  -24.4248  -17.2369   21.1049 C   0  0  0  0  0  0  0  0  0  0  0  0
  -20.8512  -12.0655   20.0479 C   0  0  0  0  0  0  0  0  0  0  0  0
  -25.8446  -32.6705   23.7363 C   0  0  0  0  0  0  0  0  0  0  0  0
  -22.1605  -12.3978   19.3391 C   0  0  0  0  0  0  0  0  0  0  0  0
  -24.6358  -31.8114   24.1114 C   0  0  0  0  0  0  0  0  0  0  0  0
  -27.9131  -22.4413   18.7798 C   0  0  0  0  0  0  0  0  0  0  0  0
  -29.8285  -22.3786   20.4321 C   0  0  0  0  0  0  0  0  0  0  0  0
  -28.0257  -20.9298   18.5964 C   0  0  0  0  0  0  0  0  0  0  0  0
  -29.9361  -20.8670   20.2458 C   0  0  0  0  0  0  0  0  0  0  0  0
  -26.4492  -32.2416   22.4012 C   0  0  0  0  0  0  0  0  0  0  0  0
  -25.5841  -29.9513   22.6833 C   0  0  0  0  0  0  0  0  0  0  0  0
  -23.3682  -12.0048   20.1985 C   0  0  1  0  0  0  0  0  0  0  0  0
  -24.3941  -15.0136   22.2789 C   0  0  1  0  0  0  0  0  0  0  0  0
  -24.9741  -30.3097   24.0492 C   0  0  2  0  0  0  0  0  0  0  0  0
  -29.2583  -23.0518   19.1816 C   0  0  0  0  0  0  0  0  0  0  0  0
  -28.5978  -20.2518   19.8395 C   0  0  0  0  0  0  0  0  0  1  0  0
  -29.1126  -25.5023   14.6517 C   0  0  0  0  0  0  0  0  0  0  0  0
  -28.7829  -28.3409   15.3051 C   0  0  0  0  0  0  0  0  0  0  0  0
  -21.1990  -21.6248   23.9594 C   0  0  0  0  0  0  0  0  0  0  0  0
  -19.8569  -16.2425   20.6030 C   0  0  0  0  0  0  0  0  0  0  0  0
  -19.4942  -18.6882   20.9966 C   0  0  0  0  0  0  0  0  0  0  0  0
  -19.4746  -17.1007   22.9207 C   0  0  0  0  0  0  0  0  0  0  0  0
  -24.7124  -21.5298   22.5022 C   0  0  0  0  0  0  0  0  0  0  0  0
  -29.5561  -28.4065   21.9506 C   0  0  0  0  0  0  0  0  0  0  0  0
  -29.7778  -28.1007   20.4801 C   0  0  0  0  0  0  0  0  0  0  0  0
  -21.6678  -17.6496   21.7890 C   0  0  1  0  0  0  0  0  0  0  0  0
  -22.4682  -20.9655   23.4424 C   0  0  2  0  0  0  0  0  0  0  0  0
  -20.1477  -17.4109   21.5659 C   0  0  0  0  0  0  0  0  0  0  0  0
  -22.9814  -29.0219   23.3760 N   0  0  0  0  0  0  0  0  0  0  0  0
  -23.7677  -29.4500   24.3783 N   0  0  0  0  0  0  0  0  0  0  0  0
  -23.7167  -16.2729   21.9632 N   0  0  0  0  0  0  0  0  0  0  0  0
  -26.7485  -30.8077   22.4085 N   0  0  0  0  0  0  0  0  0  0  0  0
  -24.0372  -29.3775   26.7305 N   0  0  0  0  0  0  0  0  0  0  0  0
  -20.3931  -28.3574   27.0039 N   0  0  0  0  0  0  0  0  0  0  0  0
  -29.0961  -24.4682   19.4297 N   0  0  0  0  0  0  0  0  0  0  0  0
  -23.5830  -12.9811   21.2450 N   0  0  0  0  0  0  0  0  0  0  0  0
  -21.9725  -18.7327   22.7177 N   0  0  0  0  0  0  0  0  0  0  0  0
  -28.2597  -29.0020   22.1862 N   0  0  0  0  0  0  0  0  0  0  0  0
  -23.4119  -22.0356   23.0120 N   0  3  0  0  0  0  0  0  0  0  0  0
  -21.6911  -26.4769   26.8108 O   0  0  0  0  0  0  0  0  0  0  0  0
  -24.8373  -14.5097   20.0151 O   0  0  0  0  0  0  0  0  0  0  0  0
  -21.7492  -15.6359   23.0400 O   0  0  0  0  0  0  0  0  0  0  0  0
  -22.1186  -20.4054   21.1183 O   0  0  0  0  0  0  0  0  0  0  0  0
  -28.9883  -31.1598   21.9212 O   0  0  0  0  0  0  0  0  0  0  0  0
  -17.9557  -25.8399   21.1023 O   0  0  0  0  0  0  0  0  0  0  0  0
  -28.7724  -18.8667   19.5622 O   0  0  0  0  0  0  0  0  0  1  0  0
  -28.7827  -27.1831   20.0319 O   0  0  0  0  0  0  0  0  0  0  0  0
  -19.2199  -21.2833   18.2663 F   0  0  0  0  0  0  0  0  0  0  0  0
  -16.6880  -23.4413   21.6335 F   0  0  0  0  0  0  0  0  0  0  0  0
  1  2  1  0  0  0  0
  1  5  2  0  0  0  0
  2  6  2  0  0  0  0
  3  8  2  0  0  0  0
  3 17  1  0  0  0  0
  4  9  1  0  0  0  0
  4 17  2  0  0  0  0
  5 19  1  0  0  0  0
  6 21  1  0  0  0  0
  7 10  2  0  0  0  0
  7 20  1  0  0  0  0
  8 26  1  0  0  0  0
  9 26  2  0  0  0  0
 10 27  1  0  0  0  0
 11 12  2  0  0  0  0
 11 28  1  0  0  0  0
 12 30  1  0  0  0  0
 13 22  1  0  0  0  0
 13 27  2  0  0  0  0
 14 23  2  0  0  0  0
 14 25  1  0  0  0  0
 15 24  2  0  0  0  0
 15 29  1  0  0  0  0
 16 30  2  0  0  0  0
 16 31  1  0  0  0  0
 17 32  1  0  0  0  0
 18 32  1  0  0  0  0
 18 33  2  0  0  0  0
 18 34  1  0  0  0  0
 19 21  2  0  0  0  0
 19 39  1  0  0  0  0
 20 22  2  0  0  0  0
 20 40  1  0  0  0  0
 21 52  1  0  0  0  0
 22 41  1  0  0  0  0
 23 24  1  0  0  0  0
 23 57  1  0  0  0  0
 24 58  1  0  0  0  0
 25 29  2  0  0  0  0
 25 75  1  0  0  0  0
 26 85  1  0  0  0  0
 27 86  1  0  0  0  0
 28 31  2  0  0  0  0
 28 85  1  0  0  0  0
 29 87  1  0  0  0  0
 30 88  1  0  0  0  0
 31 89  1  0  0  0  0
 32 69  2  0  0  0  0
 33 70  1  0  0  0  0
 33 73  1  0  0  0  0
 34 74  1  0  0  0  0
 34 80  2  0  0  0  0
 35 53  1  0  0  0  0
 35 76  1  0  0  0  0
 35 81  2  0  0  0  0
 36 66  1  0  0  0  0
 36 71  1  0  0  0  0
 36 82  2  0  0  0  0
 37 67  1  0  0  0  0
 37 77  1  0  0  0  0
 37 83  2  0  0  0  0
 38 72  1  0  0  0  0
 38 78  1  0  0  0  0
 38 84  2  0  0  0  0
 39 42  1  0  0  0  0
 40 53  1  0  0  0  0
 41 71  1  0  0  0  0
 42 44  1  0  0  0  0
 43 45  1  0  0  0  0
 43 50  1  0  0  0  0
 44 52  1  0  0  0  0
 45 54  1  0  0  0  0
 46 48  1  0  0  0  0
 46 55  1  0  0  0  0
 47 49  1  0  0  0  0
 47 55  1  0  0  0  0
 48 56  1  0  0  0  0
 49 56  1  0  0  0  0
 50 72  1  0  0  0  0
 51 54  1  0  0  0  0
 51 72  1  0  0  0  0
 52 76  1  0  0  0  0
 53 71  1  0  0  0  0
 54 70  1  0  0  0  0
 55 75  1  0  0  0  0
 56 86  1  0  0  0  0
 59 67  1  0  0  0  0
 60 68  1  0  0  0  0
 61 68  1  0  0  0  0
 62 68  1  0  0  0  0
 63 79  1  0  0  0  0
 64 65  1  0  0  0  0
 64 78  1  0  0  0  0
 65 87  1  0  0  0  0
 66 68  1  0  0  0  0
 66 77  1  0  0  0  0
 67 79  1  0  0  0  0
 69 70  1  0  0  0  0
M  CHG  1  79   1
M  ISO  4  38 100  56 101  78 100  86 101
M  END
> <Batch ID>
0155

> <Smiles>
CNC(C)C(=O)NC(C(=O)N1Cc2cc([101O:1][101CH:1]3CCC(Nc4cc(C)c(C)cc4OCC[100NH:0][100C:0](=O)N4CCCC(n5nc(-c6ccc(Oc7ccc(F)cc7F)cc6)c(C(N)=O)c5N)C4)CC3)ccc2CC1C(=O)NC1CCCc2ccccc21)C(C)(C)C

> <Shape>
0.233

> <Color>
0.065

> <Negative vol penalty>
0.000

$$$$

  -OEChem-04052321543D

 90 99  0     1  0  0  0  0  0999 V2000
  -22.3742  -34.3852   27.2492 C   0  0  0  0  0  0  0  0  0  0  0  0
  -22.3637  -33.0260   27.5454 C   0  0  0  0  0  0  0  0  0  0  0  0
  -22.9267   -9.9232   20.0253 C   0  0  0  0  0  0  0  0  0  0  0  0
  -23.6541   -9.9951   22.3281 C   0  0  0  0  0  0  0  0  0  0  0  0
  -22.4686  -34.8080   25.9240 C   0  0  0  0  0  0  0  0  0  0  0  0
  -22.4464  -32.0886   26.5163 C   0  0  0  0  0  0  0  0  0  0  0  0
  -25.2566  -26.6506   26.7068 C   0  0  0  0  0  0  0  0  0  0  0  0
  -22.1371   -8.8091   20.3095 C   0  0  0  0  0  0  0  0  0  0  0  0
  -22.8644   -8.8810   22.6123 C   0  0  0  0  0  0  0  0  0  0  0  0
  -24.7822  -25.3565   26.9165 C   0  0  0  0  0  0  0  0  0  0  0  0
  -23.0396   -5.5307   22.1925 C   0  0  0  0  0  0  0  0  0  0  0  0
  -23.6064   -4.5135   22.9602 C   0  0  0  0  0  0  0  0  0  0  0  0
  -24.6774  -25.0147   24.5308 C   0  0  0  0  0  0  0  0  0  0  0  0
  -29.0686  -19.9637   21.0746 C   0  0  0  0  0  0  0  0  0  0  0  0
  -21.8889   -4.8180   24.6319 C   0  0  0  0  0  0  0  0  0  0  0  0
  -23.6852  -10.5162   21.0346 C   0  0  0  0  0  0  0  0  0  0  0  0
  -24.1222  -13.0203   20.8193 C   0  0  0  0  0  0  0  0  0  0  0  0
  -22.5622  -33.8755   24.8788 C   0  0  0  0  0  0  0  0  0  0  0  0
  -25.4349  -27.1411   25.4053 C   0  0  0  0  0  0  0  0  0  0  0  0
  -22.5407  -32.4993   25.1757 C   0  0  0  0  0  0  0  0  0  0  0  0
  -25.1566  -26.3146   24.3073 C   0  0  0  0  0  0  0  0  0  0  0  0
  -28.2952  -19.1264   23.2048 C   0  0  0  0  0  0  0  0  0  0  0  0
  -28.2533  -20.0920   22.1991 C   0  0  0  0  0  0  0  0  0  0  0  0
  -29.1524  -18.0324   23.0860 C   0  0  0  0  0  0  0  0  0  0  0  0
  -29.9677  -17.9041   21.9615 C   0  0  0  0  0  0  0  0  0  0  0  0
  -22.1059   -8.2879   21.6030 C   0  0  0  0  0  0  0  0  0  0  0  0
  -24.4898  -24.5393   25.8285 C   0  0  0  0  0  0  0  0  0  0  0  0
  -21.8974   -6.1917   22.6444 C   0  0  0  0  0  0  0  0  0  0  0  0
  -29.9258  -18.8697   20.9558 C   0  0  0  0  0  0  0  0  0  0  0  0
  -23.0311   -4.1571   24.1798 C   0  0  0  0  0  0  0  0  0  0  0  0
  -21.3221   -5.8353   23.8641 C   0  0  0  0  0  0  0  0  0  0  0  0
  -24.5015  -11.6668   20.7416 C   0  0  0  0  0  0  0  0  0  0  0  0
  -25.2465  -13.7141   20.4434 C   0  0  0  0  0  0  0  0  0  0  0  0
  -22.8660  -13.5987   21.1976 C   0  0  0  0  0  0  0  0  0  0  0  0
  -24.1919  -29.5320   23.7193 C   0  0  0  0  0  0  0  0  0  0  0  0
  -26.4130  -28.6296   21.5341 C   0  0  0  0  0  0  0  0  0  0  0  0
  -28.4309  -26.1694   20.3003 C   0  0  0  0  0  0  0  0  0  0  0  0
  -30.7611  -14.5388   20.6760 C   0  0  0  0  0  0  0  0  0  0  0  0
  -22.6147  -34.3799   23.4584 C   0  0  0  0  0  0  0  0  0  0  0  0
  -25.9728  -28.5301   25.1961 C   0  0  0  0  0  0  0  0  0  0  0  0
  -25.3501  -26.7865   22.8902 C   0  0  0  0  0  0  0  0  0  0  0  0
  -23.0761  -33.3264   22.4547 C   0  0  0  0  0  0  0  0  0  0  0  0
  -29.5693  -12.1030   18.3688 C   0  0  0  0  0  0  0  0  0  0  0  0
  -22.3479  -32.0073   22.6925 C   0  0  0  0  0  0  0  0  0  0  0  0
  -28.1160  -11.8797   18.7908 C   0  0  0  0  0  0  0  0  0  0  0  0
  -27.7636  -20.5597   25.1670 C   0  0  0  0  0  0  0  0  0  0  0  0
  -25.9404  -19.2602   23.9948 C   0  0  0  0  0  0  0  0  0  0  0  0
  -30.4771  -12.3385   19.5740 C   0  0  0  0  0  0  0  0  0  0  0  0
  -28.5845  -13.1940   20.9007 C   0  0  0  0  0  0  0  0  0  0  0  0
  -26.8337  -20.7747   26.3543 C   0  0  0  0  0  0  0  0  0  0  0  0
  -25.0246  -19.4848   25.1912 C   0  0  0  0  0  0  0  0  0  0  0  0
  -27.4208  -19.2671   24.4089 C   0  0  0  0  0  0  0  0  0  0  0  0
  -22.6536  -31.4523   24.0889 C   0  0  1  0  0  0  0  0  0  0  0  0
  -25.6284  -29.1040   23.8252 C   0  0  1  0  0  0  0  0  0  0  0  0
  -27.6212  -13.0077   19.7160 C   0  0  2  0  0  0  0  0  0  0  0  0
  -27.3438  -21.2726   22.3008 C   0  0  0  0  0  0  0  0  0  0  0  0
  -29.1981  -16.9964   24.1645 C   0  0  0  0  0  0  0  0  0  0  0  0
  -30.1044  -25.7197   18.4853 C   0  0  0  0  0  0  0  0  0  0  0  0
  -24.1489  -28.4358   19.4979 C   0  0  0  0  0  0  0  0  0  0  0  0
  -25.6776  -27.1041   18.0289 C   0  0  0  0  0  0  0  0  0  0  0  0
  -26.2563  -29.4573   18.6206 C   0  0  0  0  0  0  0  0  0  0  0  0
  -30.5703  -25.5813   22.2589 C   0  0  0  0  0  0  0  0  0  0  0  0
  -30.1739  -18.0561   18.7349 C   0  0  0  0  0  0  0  0  0  0  0  0
  -30.8894  -16.7338   21.8270 C   0  0  0  0  0  0  0  0  0  0  0  0
  -24.4468  -21.1115   26.9898 C   0  0  0  0  0  0  0  0  0  0  0  0
  -24.4515  -22.6101   27.2186 C   0  0  0  0  0  0  0  0  0  1  0  0
  -26.4450  -27.6540   20.3826 C   0  0  1  0  0  0  0  0  0  0  0  0
  -29.9017  -26.1669   19.9246 C   0  0  2  0  0  0  0  0  0  0  0  0
  -25.6264  -28.1543   19.1591 C   0  0  0  0  0  0  0  0  0  0  0  0
  -25.7677  -11.5080   20.3471 N   0  0  0  0  0  0  0  0  0  0  0  0
  -26.1938  -12.7707   20.1735 N   0  0  0  0  0  0  0  0  0  0  0  0
  -25.8723  -28.1546   22.7374 N   0  0  0  0  0  0  0  0  0  0  0  0
  -29.9527  -13.4214   20.4096 N   0  0  0  0  0  0  0  0  0  0  0  0
  -25.5072  -15.0329   20.3207 N   0  0  0  0  0  0  0  0  0  0  0  0
  -21.8164  -12.7415   21.5551 N   0  0  0  0  0  0  0  0  0  0  0  0
  -23.9632  -30.8368   24.1126 N   0  0  0  0  0  0  0  0  0  0  0  0
  -27.8540  -27.4052   20.0974 N   0  0  0  0  0  0  0  0  0  0  0  0
  -30.1851  -15.5222   21.4709 N   0  0  0  0  0  0  0  0  0  0  0  0
  -25.3891  -20.7806   25.8912 N   0  3  0  0  0  0  0  0  0  0  0  0
  -30.6621  -25.2448   20.8148 N   0  3  0  0  0  0  0  0  0  0  0  0
  -22.6749  -14.8384   21.2022 O   0  0  0  0  0  0  0  0  0  0  0  0
  -23.3535  -28.7377   23.3096 O   0  0  0  0  0  0  0  0  0  0  0  0
  -26.8581  -29.7689   21.3741 O   0  0  0  0  0  0  0  0  0  0  0  0
  -27.8508  -25.1736   20.7273 O   0  0  0  0  0  0  0  0  0  0  0  0
  -31.9090  -14.6542   20.2334 O   0  0  0  0  0  0  0  0  0  0  0  0
  -21.3353   -7.2009   21.8807 O   0  0  0  0  0  0  0  0  0  0  0  0
  -30.7147  -18.7614   19.8503 O   0  0  0  0  0  0  0  0  0  0  0  0
  -24.0261  -23.2760   26.0304 O   0  0  0  0  0  0  0  0  0  1  0  0
  -23.5747   -3.1791   24.9163 F   0  0  0  0  0  0  0  0  0  0  0  0
  -20.2241   -6.4659   24.3030 F   0  0  0  0  0  0  0  0  0  0  0  0
  1  2  1  0  0  0  0
  1  5  2  0  0  0  0
  2  6  2  0  0  0  0
  3  8  2  0  0  0  0
  3 16  1  0  0  0  0
  4  9  1  0  0  0  0
  4 16  2  0  0  0  0
  5 18  1  0  0  0  0
  6 20  1  0  0  0  0
  7 10  2  0  0  0  0
  7 19  1  0  0  0  0
  8 26  1  0  0  0  0
  9 26  2  0  0  0  0
 10 27  1  0  0  0  0
 11 12  2  0  0  0  0
 11 28  1  0  0  0  0
 12 30  1  0  0  0  0
 13 21  1  0  0  0  0
 13 27  2  0  0  0  0
 14 23  2  0  0  0  0
 14 29  1  0  0  0  0
 15 30  2  0  0  0  0
 15 31  1  0  0  0  0
 16 32  1  0  0  0  0
 17 32  1  0  0  0  0
 17 33  2  0  0  0  0
 17 34  1  0  0  0  0
 18 20  2  0  0  0  0
 18 39  1  0  0  0  0
 19 21  2  0  0  0  0
 19 40  1  0  0  0  0
 20 53  1  0  0  0  0
 21 41  1  0  0  0  0
 22 23  1  0  0  0  0
 22 24  2  0  0  0  0
 22 52  1  0  0  0  0
 23 56  1  0  0  0  0
 24 25  1  0  0  0  0
 24 57  1  0  0  0  0
 25 29  2  0  0  0  0
 25 64  1  0  0  0  0
 26 86  1  0  0  0  0
 27 88  1  0  0  0  0
 28 31  2  0  0  0  0
 28 86  1  0  0  0  0
 29 87  1  0  0  0  0
 30 89  1  0  0  0  0
 31 90  1  0  0  0  0
 32 70  2  0  0  0  0
 33 71  1  0  0  0  0
 33 74  1  0  0  0  0
 34 75  1  0  0  0  0
 34 81  2  0  0  0  0
 35 54  1  0  0  0  0
 35 76  1  0  0  0  0
 35 82  2  0  0  0  0
 36 67  1  0  0  0  0
 36 72  1  0  0  0  0
 36 83  2  0  0  0  0
 37 68  1  0  0  0  0
 37 77  1  0  0  0  0
 37 84  2  0  0  0  0
 38 73  1  0  0  0  0
 38 78  1  0  0  0  0
 38 85  2  0  0  0  0
 39 42  1  0  0  0  0
 40 54  1  0  0  0  0
 41 72  1  0  0  0  0
 42 44  1  0  0  0  0
 43 45  1  0  0  0  0
 43 48  1  0  0  0  0
 44 53  1  0  0  0  0
 45 55  1  0  0  0  0
 46 50  1  0  0  0  0
 46 52  1  0  0  0  0
 47 51  1  0  0  0  0
 47 52  1  0  0  0  0
 48 73  1  0  0  0  0
 49 55  1  0  0  0  0
 49 73  1  0  0  0  0
 50 79  1  0  0  0  0
 51 79  1  0  0  0  0
 53 76  1  0  0  0  0
 54 72  1  0  0  0  0
 55 71  1  0  0  0  0
 58 68  1  0  0  0  0
 59 69  1  0  0  0  0
 60 69  1  0  0  0  0
 61 69  1  0  0  0  0
 62 80  1  0  0  0  0
 63 87  1  0  0  0  0
 64 78  1  0  0  0  0
 65 66  1  0  0  0  0
 65 79  1  0  0  0  0
 66 88  1  0  0  0  0
 67 69  1  0  0  0  0
 67 77  1  0  0  0  0
 68 80  1  0  0  0  0
 70 71  1  0  0  0  0
M  CHG  2  79   1  80   1
M  ISO  4  38 100  66 101  78 100  88 101
M  END
> <Batch ID>
0155

> <Smiles>
CNC(C)C(=O)NC(C(=O)N1Cc2cc([101O:1][101CH2:1]CN3CCC(c4c(C)cc(OC)c(C[100NH:0][100C:0](=O)N5CCCC(n6nc(-c7ccc(Oc8ccc(F)cc8F)cc7)c(C(N)=O)c6N)C5)c4C)CC3)ccc2CC1C(=O)NC1CCCc2ccccc21)C(C)(C)C

> <Shape>
0.296

> <Color>
0.220

> <Negative vol penalty>
0.000

$$$$

  -OEChem-04052321543D

 88 98  0     1  0  0  0  0  0999 V2000
  -31.3935  -26.0327   17.6716 C   0  0  0  0  0  0  0  0  0  0  0  0
  -30.0156  -25.8540   17.7419 C   0  0  0  0  0  0  0  0  0  0  0  0
  -24.3449  -14.3192   21.4068 C   0  0  0  0  0  0  0  0  0  0  0  0
  -24.6990  -13.3828   23.6056 C   0  0  0  0  0  0  0  0  0  0  0  0
  -32.0722  -26.6343   18.7305 C   0  0  0  0  0  0  0  0  0  0  0  0
  -29.3157  -26.2759   18.8718 C   0  0  0  0  0  0  0  0  0  0  0  0
  -23.6422  -28.5754   19.0423 C   0  0  0  0  0  0  0  0  0  0  0  0
  -25.7231  -14.3381   21.1929 C   0  0  0  0  0  0  0  0  0  0  0  0
  -26.0773  -13.4017   23.3917 C   0  0  0  0  0  0  0  0  0  0  0  0
  -22.4063  -28.0022   19.3387 C   0  0  0  0  0  0  0  0  0  0  0  0
  -28.1445  -12.1316   20.3556 C   0  0  0  0  0  0  0  0  0  0  0  0
  -28.6160  -11.6719   19.1260 C   0  0  0  0  0  0  0  0  0  0  0  0
  -22.5959  -28.7838   21.6130 C   0  0  0  0  0  0  0  0  0  0  0  0
  -29.6034  -13.8346   18.6961 C   0  0  0  0  0  0  0  0  0  0  0  0
  -15.6744  -26.6706   22.2497 C   0  0  0  0  0  0  0  0  0  0  0  0
  -23.8328  -13.8416   22.6132 C   0  0  0  0  0  0  0  0  0  0  0  0
  -21.5161  -12.7767   22.5338 C   0  0  0  0  0  0  0  0  0  0  0  0
  -31.3789  -27.0726   19.8698 C   0  0  0  0  0  0  0  0  0  0  0  0
  -24.3705  -29.2488   20.0335 C   0  0  0  0  0  0  0  0  0  0  0  0
  -29.9860  -26.8828   19.9475 C   0  0  0  0  0  0  0  0  0  0  0  0
  -23.8396  -29.3669   21.3260 C   0  0  0  0  0  0  0  0  0  0  0  0
  -16.8356  -25.9746   22.4816 C   0  0  0  0  0  0  0  0  0  0  0  0
  -26.5893  -13.8794   22.1853 C   0  0  0  0  0  0  0  0  0  0  0  0
  -21.8843  -28.1039   20.6249 C   0  0  0  0  0  0  0  0  0  0  0  0
  -28.4023  -13.4428   20.7554 C   0  0  0  0  0  0  0  0  0  0  0  0
  -29.3455  -12.5234   18.2962 C   0  0  0  0  0  0  0  0  0  0  0  0
  -29.1319  -14.2943   19.9257 C   0  0  0  0  0  0  0  0  0  0  0  0
  -22.4093  -13.8223   22.8350 C   0  0  0  0  0  0  0  0  0  0  0  0
  -16.4067  -24.7341   22.9904 C   0  0  0  0  0  0  0  0  0  0  0  0
  -20.2891  -13.2476   22.9328 C   0  0  0  0  0  0  0  0  0  0  0  0
  -21.7726  -11.4944   21.9459 C   0  0  0  0  0  0  0  0  0  0  0  0
  -27.2063  -28.8308   21.4073 C   0  0  0  0  0  0  0  0  0  0  0  0
  -26.5067  -31.6678   22.8161 C   0  0  0  0  0  0  0  0  0  0  0  0
  -24.1230  -33.8938   23.8208 C   0  0  0  0  0  0  0  0  0  0  0  0
  -17.9896  -18.5247   23.4378 C   0  0  0  0  0  0  0  0  0  0  0  0
  -32.1623  -27.6746   21.0093 C   0  0  0  0  0  0  0  0  0  0  0  0
  -25.6898  -29.8847   19.6910 C   0  0  0  0  0  0  0  0  0  0  0  0
  -24.5725  -30.0969   22.4207 C   0  0  0  0  0  0  0  0  0  0  0  0
  -31.2951  -28.4328   22.0110 C   0  0  0  0  0  0  0  0  0  0  0  0
  -18.2498  -16.2187   26.0729 C   0  0  0  0  0  0  0  0  0  0  0  0
  -19.1417  -26.4502   23.4912 C   0  0  0  0  0  0  0  0  0  0  0  0
  -30.0623  -27.6129   22.3779 C   0  0  0  0  0  0  0  0  0  0  0  0
  -19.2690  -15.2284   25.5099 C   0  0  0  0  0  0  0  0  0  0  0  0
  -20.2146  -27.5243   23.2762 C   0  0  0  0  0  0  0  0  0  0  0  0
  -18.0727  -21.8310   24.6416 C   0  0  0  0  0  0  0  0  0  0  0  0
  -16.4478  -21.5462   22.7321 C   0  0  0  0  0  0  0  0  0  0  0  0
  -18.4178  -27.8949   21.7191 C   0  0  0  0  0  0  0  0  0  0  0  0
  -18.6132  -17.6668   25.7396 C   0  0  0  0  0  0  0  0  0  0  0  0
  -17.7416  -20.4117   25.1123 C   0  0  0  0  0  0  0  0  0  0  0  0
  -16.1291  -20.1484   23.2550 C   0  0  0  0  0  0  0  0  0  0  0  0
  -19.8552  -16.9225   23.7341 C   0  0  0  0  0  0  0  0  0  0  0  0
  -18.2495  -26.4580   22.2364 C   0  0  2  0  0  0  0  0  0  0  0  0
  -29.1882  -27.3495   21.1458 C   0  0  1  0  0  0  0  0  0  0  0  0
  -26.5819  -30.1035   20.9091 C   0  0  1  0  0  0  0  0  0  0  0  0
  -19.4857  -15.4555   24.0032 C   0  0  1  0  0  0  0  0  0  0  0  0
  -16.9046  -22.4562   23.8754 C   0  0  0  0  0  0  0  0  0  0  0  0
  -19.8990  -28.1740   21.9344 C   0  0  2  0  0  0  0  0  0  1  0  0
  -23.8547  -36.1044   24.9778 C   0  0  0  0  0  0  0  0  0  0  0  0
  -27.0472  -30.3248   25.5020 C   0  0  0  0  0  0  0  0  0  0  0  0
  -25.8702  -32.2339   26.6146 C   0  0  0  0  0  0  0  0  0  0  0  0
  -27.9478  -32.6489   25.2978 C   0  0  0  0  0  0  0  0  0  0  0  0
  -13.2477  -26.1281   22.5591 C   0  0  0  0  0  0  0  0  0  0  0  0
  -22.8581  -35.1171   21.4412 C   0  0  0  0  0  0  0  0  0  0  0  0
  -25.8025  -32.0870   24.0839 C   0  0  1  0  0  0  0  0  0  0  0  0
  -24.0084  -35.3968   23.6405 C   0  0  2  0  0  0  0  0  0  0  0  0
  -26.6537  -31.8082   25.3547 C   0  0  0  0  0  0  0  0  0  0  0  0
  -21.8015  -14.8779   23.3830 N   0  0  0  0  0  0  0  0  0  0  0  0
  -15.0769  -24.6443   23.0771 N   0  0  0  0  0  0  0  0  0  0  0  0
  -14.6601  -25.8372   22.6196 N   0  0  0  0  0  0  0  0  0  0  0  0
  -20.5132  -14.4981   23.4292 N   0  0  0  0  0  0  0  0  0  0  0  0
  -25.8617  -30.6962   22.0379 N   0  0  0  0  0  0  0  0  0  0  0  0
  -18.8495  -17.8254   24.2979 N   0  0  0  0  0  0  0  0  0  0  0  0
  -17.2636  -19.5897   23.9914 N   0  0  0  0  0  0  0  0  0  0  0  0
  -19.0512  -12.7100   22.9040 N   0  0  0  0  0  0  0  0  0  0  0  0
  -23.0907  -11.1717   21.5954 N   0  0  0  0  0  0  0  0  0  0  0  0
  -17.3031  -23.7432   23.3493 N   0  0  0  0  0  0  0  0  0  0  0  0
  -28.4161  -28.5274   20.8127 N   0  0  0  0  0  0  0  0  0  0  0  0
  -25.4382  -33.4882   23.9043 N   0  0  0  0  0  0  0  0  0  0  0  0
  -22.8271  -35.7285   22.7948 N   0  3  0  0  0  0  0  0  0  0  0  0
  -20.8575  -10.6660   21.7225 O   0  0  0  0  0  0  0  0  0  0  0  0
  -26.6335  -28.1737   22.2686 O   0  0  0  0  0  0  0  0  0  0  0  0
  -27.5859  -32.1886   22.5233 O   0  0  0  0  0  0  0  0  0  0  0  0
  -23.1436  -33.1541   23.8851 O   0  0  0  0  0  0  0  0  0  0  0  0
  -17.8771  -18.2158   22.2449 O   0  0  0  0  0  0  0  0  0  0  0  0
  -27.9342  -13.8975   21.9768 O   0  0  0  0  0  0  0  0  0  0  0  0
  -20.6702  -27.5409   20.9190 O   0  0  0  0  0  0  0  0  0  1  0  0
  -29.7996  -12.0814   17.1162 F   0  0  0  0  0  0  0  0  0  0  0  0
  -29.3838  -15.5547   20.3050 F   0  0  0  0  0  0  0  0  0  0  0  0
  1  2  1  0  0  0  0
  1  5  2  0  0  0  0
  2  6  2  0  0  0  0
  3  8  2  0  0  0  0
  3 16  1  0  0  0  0
  4  9  1  0  0  0  0
  4 16  2  0  0  0  0
  5 18  1  0  0  0  0
  6 20  1  0  0  0  0
  7 10  2  0  0  0  0
  7 19  1  0  0  0  0
  8 23  1  0  0  0  0
  9 23  2  0  0  0  0
 10 24  1  0  0  0  0
 11 12  2  0  0  0  0
 11 25  1  0  0  0  0
 12 26  1  0  0  0  0
 13 21  1  0  0  0  0
 13 24  2  0  0  0  0
 14 26  2  0  0  0  0
 14 27  1  0  0  0  0
 15 22  2  0  0  0  0
 15 69  1  0  0  0  0
 16 28  1  0  0  0  0
 17 28  1  0  0  0  0
 17 30  2  0  0  0  0
 17 31  1  0  0  0  0
 18 20  2  0  0  0  0
 18 36  1  0  0  0  0
 19 21  2  0  0  0  0
 19 37  1  0  0  0  0
 20 53  1  0  0  0  0
 21 38  1  0  0  0  0
 22 29  1  0  0  0  0
 22 52  1  0  0  0  0
 23 85  1  0  0  0  0
 24 86  1  0  0  0  0
 25 27  2  0  0  0  0
 25 85  1  0  0  0  0
 26 87  1  0  0  0  0
 27 88  1  0  0  0  0
 28 67  2  0  0  0  0
 29 68  2  0  0  0  0
 29 76  1  0  0  0  0
 30 70  1  0  0  0  0
 30 74  1  0  0  0  0
 31 75  1  0  0  0  0
 31 80  2  0  0  0  0
 32 54  1  0  0  0  0
 32 77  1  0  0  0  0
 32 81  2  0  0  0  0
 33 64  1  0  0  0  0
 33 71  1  0  0  0  0
 33 82  2  0  0  0  0
 34 65  1  0  0  0  0
 34 78  1  0  0  0  0
 34 83  2  0  0  0  0
 35 72  1  0  0  0  0
 35 73  1  0  0  0  0
 35 84  2  0  0  0  0
 36 39  1  0  0  0  0
 37 54  1  0  0  0  0
 38 71  1  0  0  0  0
 39 42  1  0  0  0  0
 40 43  1  0  0  0  0
 40 48  1  0  0  0  0
 41 44  1  0  0  0  0
 41 52  1  0  0  0  0
 42 53  1  0  0  0  0
 43 55  1  0  0  0  0
 44 57  1  0  0  0  0
 45 49  1  0  0  0  0
 45 56  1  0  0  0  0
 46 50  1  0  0  0  0
 46 56  1  0  0  0  0
 47 52  1  0  0  0  0
 47 57  1  0  0  0  0
 48 72  1  0  0  0  0
 49 73  1  0  0  0  0
 50 73  1  0  0  0  0
 51 55  1  0  0  0  0
 51 72  1  0  0  0  0
 53 77  1  0  0  0  0
 54 71  1  0  0  0  0
 55 70  1  0  0  0  0
 56 76  1  0  0  0  0
 57 86  1  0  0  0  0
 58 65  1  0  0  0  0
 59 66  1  0  0  0  0
 60 66  1  0  0  0  0
 61 66  1  0  0  0  0
 62 69  1  0  0  0  0
 63 79  1  0  0  0  0
 64 66  1  0  0  0  0
 64 78  1  0  0  0  0
 65 79  1  0  0  0  0
 67 70  1  0  0  0  0
 68 69  1  0  0  0  0
M  CHG  1  79   1
M  ISO  4  35 100  57 101  73 100  86 101
M  END
> <Batch ID>
0155

> <Smiles>
CNC(C)C(=O)NC(C(=O)N1Cc2cc([101O:1][101CH:1]3CCC(c4cn(C)nc4NC4CC[100N:0]([100C:0](=O)N5CCCC(n6nc(-c7ccc(Oc8ccc(F)cc8F)cc7)c(C(N)=O)c6N)C5)CC4)C3)ccc2CC1C(=O)NC1CCCc2ccccc21)C(C)(C)C

> <Shape>
0.289

> <Color>
0.085

> <Negative vol penalty>
0.000

$$$$

  -OEChem-04052321543D

 93103  0     1  0  0  0  0  0999 V2000
  -28.3229  -11.5022   21.4648 C   0  0  0  0  0  0  0  0  0  0  0  0
  -28.7007  -12.7462   20.9695 C   0  0  0  0  0  0  0  0  0  0  0  0
  -18.4430  -22.9250   26.9390 C   0  0  0  0  0  0  0  0  0  0  0  0
  -20.8338  -23.2632   26.8581 C   0  0  0  0  0  0  0  0  0  0  0  0
  -26.9804  -11.1260   21.4504 C   0  0  0  0  0  0  0  0  0  0  0  0
  -27.7364  -13.6142   20.4585 C   0  0  0  0  0  0  0  0  0  0  0  0
  -28.3561  -18.3739   22.0726 C   0  0  0  0  0  0  0  0  0  0  0  0
  -18.6412  -21.5481   27.0406 C   0  0  0  0  0  0  0  0  0  0  0  0
  -21.0321  -21.8863   26.9598 C   0  0  0  0  0  0  0  0  0  0  0  0
  -29.3526  -19.1303   21.4573 C   0  0  0  0  0  0  0  0  0  0  0  0
  -18.5106  -17.9149   26.9595 C   0  0  0  0  0  0  0  0  0  0  0  0
  -17.7188  -17.0839   26.1671 C   0  0  0  0  0  0  0  0  0  0  0  0
  -28.7963  -28.4610   21.2918 C   0  0  0  0  0  0  0  0  0  0  0  0
  -27.2942  -26.6892   20.6277 C   0  0  0  0  0  0  0  0  0  0  0  0
  -27.6828  -20.2044   20.0871 C   0  0  0  0  0  0  0  0  0  0  0  0
  -18.5924  -18.1457   24.1806 C   0  0  0  0  0  0  0  0  0  0  0  0
  -19.5393  -23.7826   26.8476 C   0  0  0  0  0  0  0  0  0  0  0  0
  -19.2401  -26.1310   27.7981 C   0  0  0  0  0  0  0  0  0  0  0  0
  -25.9980  -11.9936   20.9478 C   0  0  0  0  0  0  0  0  0  0  0  0
  -27.0145  -18.5195   21.6916 C   0  0  0  0  0  0  0  0  0  0  0  0
  -26.3797  -13.2486   20.4362 C   0  0  0  0  0  0  0  0  0  0  0  0
  -28.5836  -27.1335   20.9202 C   0  0  0  0  0  0  0  0  0  0  0  0
  -26.6709  -19.4505   20.7010 C   0  0  0  0  0  0  0  0  0  0  0  0
  -26.4301  -28.9000   21.0784 C   0  0  0  0  0  0  0  0  0  0  0  0
  -27.7196  -29.3443   21.3709 C   0  0  0  0  0  0  0  0  0  0  0  0
  -19.9357  -21.0287   27.0511 C   0  0  0  0  0  0  0  0  0  0  0  0
  -29.0164  -20.0436   20.4623 C   0  0  0  0  0  0  0  0  0  0  0  0
  -19.3434  -18.8614   26.3625 C   0  0  0  0  0  0  0  0  0  0  0  0
  -26.2174  -27.5725   20.7068 C   0  0  0  0  0  0  0  0  0  0  0  0
  -17.7597  -17.1993   24.7776 C   0  0  0  0  0  0  0  0  0  0  0  0
  -19.3843  -18.9768   24.9730 C   0  0  0  0  0  0  0  0  0  0  0  0
  -19.3352  -25.2050   26.7420 C   0  0  0  0  0  0  0  0  0  0  0  0
  -19.0488  -27.3412   27.1775 C   0  0  0  0  0  0  0  0  0  0  0  0
  -19.3180  -25.9163   29.2136 C   0  0  0  0  0  0  0  0  0  0  0  0
  -24.8215  -16.5989   20.4243 C   0  0  0  0  0  0  0  0  0  0  0  0
  -22.8664  -19.1362   20.9361 C   0  0  0  0  0  0  0  0  0  0  0  0
  -22.5456  -22.5070   21.3619 C   0  0  0  0  0  0  0  0  0  0  0  0
  -20.4435  -29.3952   21.7289 C   0  0  0  0  0  0  0  0  0  0  0  0
  -24.5653  -11.5238   20.9096 C   0  0  0  0  0  0  0  0  0  0  0  0
  -25.9484  -17.7154   22.3838 C   0  0  0  0  0  0  0  0  0  0  0  0
  -25.2429  -19.6591   20.2698 C   0  0  0  0  0  0  0  0  0  0  0  0
  -23.5598  -12.6522   20.6954 C   0  0  0  0  0  0  0  0  0  0  0  0
  -17.2048  -29.2604   23.2017 C   0  0  0  0  0  0  0  0  0  0  0  0
  -24.4919  -30.0417   19.8352 C   0  0  0  0  0  0  0  0  0  0  0  0
  -24.0169  -13.5668   19.5634 C   0  0  0  0  0  0  0  0  0  0  0  0
  -17.3749  -28.2893   24.3713 C   0  0  0  0  0  0  0  0  0  0  0  0
  -23.0677  -29.5648   20.1068 C   0  0  0  0  0  0  0  0  0  0  0  0
  -29.5474  -25.0280   21.8285 C   0  0  0  0  0  0  0  0  0  0  0  0
  -29.8843  -25.6525   19.4030 C   0  0  0  0  0  0  0  0  0  0  0  0
  -24.2059  -29.4068   22.1938 C   0  0  0  0  0  0  0  0  0  0  0  0
  -18.0433  -28.8435   21.9954 C   0  0  0  0  0  0  0  0  0  0  0  0
  -19.6455  -27.6628   23.4490 C   0  0  0  0  0  0  0  0  0  0  0  0
  -30.6665  -24.0014   21.7096 C   0  0  0  0  0  0  0  0  0  0  0  0
  -31.0011  -24.6214   19.3027 C   0  0  0  0  0  0  0  0  0  0  0  0
  -29.7375  -26.1870   20.8368 C   0  0  0  0  0  0  0  0  0  0  0  0
  -25.2593  -29.8534   21.1617 C   0  0  1  0  0  0  0  0  0  0  0  0
  -25.3600  -14.2278   19.8964 C   0  0  1  0  0  0  0  0  0  0  0  0
  -24.6741  -17.5753   21.5568 C   0  0  1  0  0  0  0  0  0  0  0  0
  -18.8625  -28.0724   24.7081 C   0  0  2  0  0  0  0  0  0  0  0  0
  -22.8792  -29.8506   21.5895 C   0  0  2  0  0  0  0  0  0  0  0  0
  -27.9736  -30.7604   21.7725 C   0  0  0  0  0  0  0  0  0  0  0  0
  -20.8183  -24.2916   21.7214 C   0  0  0  0  0  0  0  0  0  0  0  0
  -22.0800  -18.9646   17.9930 C   0  0  0  0  0  0  0  0  0  0  0  0
  -21.1356  -21.2755   18.1825 C   0  0  0  0  0  0  0  0  0  0  0  0
  -20.1816  -19.4237   19.5549 C   0  0  0  0  0  0  0  0  0  0  0  0
  -23.7213  -23.2833   23.9647 C   0  0  0  0  0  0  0  0  0  0  0  0
  -24.8407  -25.7494   20.0458 C   0  0  0  0  0  0  0  0  0  0  0  0
  -31.7487  -22.3954   20.1398 C   0  0  0  0  0  0  0  0  0  0  0  0
  -31.1399  -21.0997   20.6386 C   0  0  0  0  0  0  0  0  0  1  0  0
  -22.4603  -20.3512   20.1374 C   0  0  1  0  0  0  0  0  0  0  0  0
  -21.7835  -23.3245   22.3893 C   0  0  2  0  0  0  0  0  0  0  0  0
  -21.4916  -19.9987   18.9735 C   0  0  0  0  0  0  0  0  0  0  0  0
  -19.2141  -25.7779   25.5415 N   0  0  0  0  0  0  0  0  0  0  0  0
  -19.0408  -27.0769   25.8395 N   0  0  0  0  0  0  0  0  0  0  0  0
  -24.2374  -18.8447   20.9721 N   0  0  0  0  0  0  0  0  0  0  0  0
  -19.4437  -28.6557   22.3821 N   0  0  0  0  0  0  0  0  0  0  0  0
  -18.8882  -28.5951   27.6513 N   0  0  0  0  0  0  0  0  0  0  0  0
  -19.5178  -24.6103   29.6813 N   0  0  0  0  0  0  0  0  0  0  0  0
  -25.1685  -15.3223   20.8236 N   0  0  0  0  0  0  0  0  0  0  0  0
  -21.9188  -21.3079   21.0965 N   0  0  0  0  0  0  0  0  0  0  0  0
  -21.7435  -29.1615   22.1606 N   0  0  0  0  0  0  0  0  0  0  0  0
  -30.7566  -23.4904   20.2840 N   0  3  0  0  0  0  0  0  0  0  0  0
  -22.7293  -24.1107   23.2308 N   0  3  0  0  0  0  0  0  0  0  0  0
  -19.1970  -26.8524   30.0397 O   0  0  0  0  0  0  0  0  0  0  0  0
  -24.6330  -16.9755   19.2735 O   0  0  0  0  0  0  0  0  0  0  0  0
  -21.9998  -18.4744   21.5129 O   0  0  0  0  0  0  0  0  0  0  0  0
  -23.5903  -22.8952   20.8438 O   0  0  0  0  0  0  0  0  0  0  0  0
  -20.1955  -30.2076   20.8315 O   0  0  0  0  0  0  0  0  0  0  0  0
  -20.1295  -19.6852   27.1506 O   0  0  0  0  0  0  0  0  0  0  0  0
  -24.9652  -27.1209   20.4165 O   0  0  0  0  0  0  0  0  0  0  0  0
  -29.9871  -20.7827   19.8596 O   0  0  0  0  0  0  0  0  0  1  0  0
  -17.0003  -16.4001   24.0167 F   0  0  0  0  0  0  0  0  0  0  0  0
  -20.1832  -19.8834   24.3937 F   0  0  0  0  0  0  0  0  0  0  0  0
  1  2  1  0  0  0  0
  1  5  2  0  0  0  0
  2  6  2  0  0  0  0
  3  8  2  0  0  0  0
  3 17  1  0  0  0  0
  4  9  1  0  0  0  0
  4 17  2  0  0  0  0
  5 19  1  0  0  0  0
  6 21  1  0  0  0  0
  7 10  2  0  0  0  0
  7 20  1  0  0  0  0
  8 26  1  0  0  0  0
  9 26  2  0  0  0  0
 10 27  1  0  0  0  0
 11 12  2  0  0  0  0
 11 28  1  0  0  0  0
 12 30  1  0  0  0  0
 13 22  1  0  0  0  0
 13 25  2  0  0  0  0
 14 22  2  0  0  0  0
 14 29  1  0  0  0  0
 15 23  1  0  0  0  0
 15 27  2  0  0  0  0
 16 30  2  0  0  0  0
 16 31  1  0  0  0  0
 17 32  1  0  0  0  0
 18 32  1  0  0  0  0
 18 33  2  0  0  0  0
 18 34  1  0  0  0  0
 19 21  2  0  0  0  0
 19 39  1  0  0  0  0
 20 23  2  0  0  0  0
 20 40  1  0  0  0  0
 21 57  1  0  0  0  0
 22 55  1  0  0  0  0
 23 41  1  0  0  0  0
 24 25  1  0  0  0  0
 24 29  2  0  0  0  0
 24 56  1  0  0  0  0
 25 61  1  0  0  0  0
 26 89  1  0  0  0  0
 27 91  1  0  0  0  0
 28 31  2  0  0  0  0
 28 89  1  0  0  0  0
 29 90  1  0  0  0  0
 30 92  1  0  0  0  0
 31 93  1  0  0  0  0
 32 73  2  0  0  0  0
 33 74  1  0  0  0  0
 33 77  1  0  0  0  0
 34 78  1  0  0  0  0
 34 84  2  0  0  0  0
 35 58  1  0  0  0  0
 35 79  1  0  0  0  0
 35 85  2  0  0  0  0
 36 70  1  0  0  0  0
 36 75  1  0  0  0  0
 36 86  2  0  0  0  0
 37 71  1  0  0  0  0
 37 80  1  0  0  0  0
 37 87  2  0  0  0  0
 38 76  1  0  0  0  0
 38 81  1  0  0  0  0
 38 88  2  0  0  0  0
 39 42  1  0  0  0  0
 40 58  1  0  0  0  0
 41 75  1  0  0  0  0
 42 45  1  0  0  0  0
 43 46  1  0  0  0  0
 43 51  1  0  0  0  0
 44 47  1  0  0  0  0
 44 56  1  0  0  0  0
 45 57  1  0  0  0  0
 46 59  1  0  0  0  0
 47 60  1  0  0  0  0
 48 53  1  0  0  0  0
 48 55  1  0  0  0  0
 49 54  1  0  0  0  0
 49 55  1  0  0  0  0
 50 56  1  0  0  0  0
 50 60  1  0  0  0  0
 51 76  1  0  0  0  0
 52 59  1  0  0  0  0
 52 76  1  0  0  0  0
 53 82  1  0  0  0  0
 54 82  1  0  0  0  0
 57 79  1  0  0  0  0
 58 75  1  0  0  0  0
 59 74  1  0  0  0  0
 60 81  1  0  0  0  0
 62 71  1  0  0  0  0
 63 72  1  0  0  0  0
 64 72  1  0  0  0  0
 65 72  1  0  0  0  0
 66 83  1  0  0  0  0
 67 90  1  0  0  0  0
 68 69  1  0  0  0  0
 68 82  1  0  0  0  0
 69 91  1  0  0  0  0
 70 72  1  0  0  0  0
 70 80  1  0  0  0  0
 71 83  1  0  0  0  0
 73 74  1  0  0  0  0
M  CHG  2  82   1  83   1
M  ISO  4  38 100  69 101  81 100  91 101
M  END
> <Batch ID>
0155

> <Smiles>
CNC(C)C(=O)NC(C(=O)N1Cc2cc([101O:1][101CH2:1]CN3CCC(c4cc(C)c(C5CCC([100NH:0][100C:0](=O)N6CCCC(n7nc(-c8ccc(Oc9ccc(F)cc9F)cc8)c(C(N)=O)c7N)C6)C5)c(OC)c4)CC3)ccc2CC1C(=O)NC1CCCc2ccccc21)C(C)(C)C

> <Shape>
0.205

> <Color>
0.073

> <Negative vol penalty>
0.000

$$$$

  -OEChem-04052321543D

 86 95  0     1  0  0  0  0  0999 V2000
  -27.7625  -37.5081   26.5854 C   0  0  0  0  0  0  0  0  0  0  0  0
  -28.5105  -36.5778   25.8710 C   0  0  0  0  0  0  0  0  0  0  0  0
  -24.4448   -9.1390   22.2863 C   0  0  0  0  0  0  0  0  0  0  0  0
  -23.8263   -9.4319   19.9693 C   0  0  0  0  0  0  0  0  0  0  0  0
  -26.4461  -37.2172   26.9412 C   0  0  0  0  0  0  0  0  0  0  0  0
  -27.9428  -35.3555   25.5129 C   0  0  0  0  0  0  0  0  0  0  0  0
  -28.1050  -30.4359   20.3083 C   0  0  0  0  0  0  0  0  0  0  0  0
  -23.3423   -8.3057   22.4753 C   0  0  0  0  0  0  0  0  0  0  0  0
  -22.7238   -8.5986   20.1582 C   0  0  0  0  0  0  0  0  0  0  0  0
  -28.2764  -29.0641   20.1279 C   0  0  0  0  0  0  0  0  0  0  0  0
  -20.8937   -5.8126   23.4771 C   0  0  0  0  0  0  0  0  0  0  0  0
  -21.0903   -4.6278   24.1865 C   0  0  0  0  0  0  0  0  0  0  0  0
  -25.9680  -28.7029   20.7280 C   0  0  0  0  0  0  0  0  0  0  0  0
  -28.6209  -22.7045   20.5493 C   0  0  0  0  0  0  0  0  0  0  0  0
  -22.7031   -3.9082   22.5378 C   0  0  0  0  0  0  0  0  0  0  0  0
  -24.6868   -9.7022   21.0333 C   0  0  0  0  0  0  0  0  0  0  0  0
  -27.1217  -10.1824   20.4432 C   0  0  0  0  0  0  0  0  0  0  0  0
  -25.8590  -35.9947   26.5789 C   0  0  0  0  0  0  0  0  0  0  0  0
  -26.8647  -30.9513   20.7112 C   0  0  0  0  0  0  0  0  0  0  0  0
  -26.6178  -35.0474   25.8654 C   0  0  0  0  0  0  0  0  0  0  0  0
  -25.7828  -30.0818   20.9104 C   0  0  0  0  0  0  0  0  0  0  0  0
  -28.6378  -24.0900   20.7095 C   0  0  0  0  0  0  0  0  0  0  0  0
  -28.6358  -24.3674   18.3094 C   0  0  0  0  0  0  0  0  0  0  0  0
  -28.6452  -24.9215   19.5895 C   0  0  0  0  0  0  0  0  0  0  0  0
  -28.6191  -22.9819   18.1493 C   0  0  0  0  0  0  0  0  0  0  0  0
  -28.6117  -22.1504   19.2692 C   0  0  0  0  0  0  0  0  0  0  0  0
  -22.4818   -8.0355   21.4113 C   0  0  0  0  0  0  0  0  0  0  0  0
  -27.2086  -28.1971   20.3405 C   0  0  0  0  0  0  0  0  0  0  0  0
  -21.6018   -6.0451   22.2980 C   0  0  0  0  0  0  0  0  0  0  0  0
  -21.9950   -3.6756   23.7169 C   0  0  0  0  0  0  0  0  0  0  0  0
  -22.5065   -5.0930   21.8284 C   0  0  0  0  0  0  0  0  0  0  0  0
  -25.8252  -10.5635   20.8377 C   0  0  0  0  0  0  0  0  0  0  0  0
  -27.8281  -11.3596   20.4026 C   0  0  0  0  0  0  0  0  0  0  0  0
  -27.6410   -8.8807   20.1405 C   0  0  0  0  0  0  0  0  0  0  0  0
  -25.8235  -32.5721   23.2396 C   0  0  0  0  0  0  0  0  0  0  0  0
  -23.0681  -32.7032   21.5328 C   0  0  0  0  0  0  0  0  0  0  0  0
  -21.1004  -31.3430   19.0987 C   0  0  0  0  0  0  0  0  0  0  0  0
  -28.4283  -16.5317   19.0861 C   0  0  0  0  0  0  0  0  0  0  0  0
  -24.4481  -35.7060   27.0270 C   0  0  0  0  0  0  0  0  0  0  0  0
  -26.6889  -32.4361   20.8756 C   0  0  0  0  0  0  0  0  0  0  0  0
  -24.4254  -30.5867   21.3239 C   0  0  0  0  0  0  0  0  0  0  0  0
  -23.7997  -34.5405   26.2845 C   0  0  0  0  0  0  0  0  0  0  0  0
  -26.6445  -15.9812   22.0617 C   0  0  0  0  0  0  0  0  0  0  0  0
  -24.7571  -33.3552   26.2114 C   0  0  0  0  0  0  0  0  0  0  0  0
  -26.3715  -14.4797   21.9789 C   0  0  0  0  0  0  0  0  0  0  0  0
  -26.4837  -16.6686   20.7048 C   0  0  0  0  0  0  0  0  0  0  0  0
  -29.6941  -19.9644   19.6910 C   0  0  0  0  0  0  0  0  0  0  0  0
  -27.2857  -20.0960   19.0362 C   0  0  0  0  0  0  0  0  0  0  0  0
  -29.7810  -18.5933   19.0260 C   0  0  0  0  0  0  0  0  0  0  0  0
  -27.4186  -18.7298   18.3726 C   0  0  0  0  0  0  0  0  0  0  0  0
  -27.0099  -14.5517   19.5387 C   0  0  0  0  0  0  0  0  0  0  0  0
  -26.0293  -33.7206   25.4372 C   0  0  1  0  0  0  0  0  0  0  0  0
  -25.5208  -32.8023   21.7859 C   0  0  1  0  0  0  0  0  0  0  0  0
  -27.2207  -13.8240   20.8756 C   0  0  2  0  0  0  0  0  0  0  0  0
  -28.6463  -24.6579   22.0910 C   0  0  0  0  0  0  0  0  0  0  0  0
  -28.6443  -25.2599   17.1083 C   0  0  0  0  0  0  0  0  0  0  0  0
  -28.6058  -22.3884   16.7752 C   0  0  0  0  0  0  0  0  0  0  0  0
  -18.8884  -31.6493   17.9539 C   0  0  0  0  0  0  0  0  0  0  0  0
  -21.6475  -31.5501   23.9745 C   0  0  0  0  0  0  0  0  0  0  0  0
  -19.7035  -30.9986   22.4963 C   0  0  0  0  0  0  0  0  0  0  0  0
  -20.3984  -33.3743   22.8057 C   0  0  0  0  0  0  0  0  0  0  0  0
  -22.3878  -31.7361   16.4630 C   0  0  0  0  0  0  0  0  0  0  0  0
  -28.6647  -26.4072   19.7641 C   0  0  0  0  0  0  0  0  0  1  0  0
  -21.8408  -31.8321   21.4154 C   0  0  1  0  0  0  0  0  0  0  0  0
  -20.3745  -31.9707   17.9225 C   0  0  2  0  0  0  0  0  0  0  0  0
  -20.9235  -31.9287   22.6671 C   0  0  0  0  0  0  0  0  0  0  0  0
  -25.7119  -11.8798   21.0338 N   0  0  0  0  0  0  0  0  0  0  0  0
  -26.9463  -12.3361   20.7615 N   0  0  0  0  0  0  0  0  0  0  0  0
  -28.5949  -20.7568   19.1291 N   0  0  0  0  0  0  0  0  0  0  0  0
  -24.3054  -32.0459   21.4779 N   0  0  0  0  0  0  0  0  0  0  0  0
  -27.2797  -15.9843   19.6770 N   0  0  0  0  0  0  0  0  0  0  0  0
  -28.4832  -17.9305   18.9826 N   0  0  0  0  0  0  0  0  0  0  0  0
  -29.1115  -11.6442   20.0953 N   0  0  0  0  0  0  0  0  0  0  0  0
  -26.7788   -7.7795   20.2322 N   0  0  0  0  0  0  0  0  0  0  0  0
  -25.7730  -33.7162   24.0128 N   0  0  0  0  0  0  0  0  0  0  0  0
  -21.1892  -32.2111   20.1663 N   0  0  0  0  0  0  0  0  0  0  0  0
  -20.9373  -31.4670   16.6378 N   0  3  0  0  0  0  0  0  0  0  0  0
  -28.8384   -8.6975   19.8147 O   0  0  0  0  0  0  0  0  0  0  0  0
  -26.0822  -31.4400   23.6309 O   0  0  0  0  0  0  0  0  0  0  0  0
  -22.9341  -33.9227   21.6611 O   0  0  0  0  0  0  0  0  0  0  0  0
  -21.5411  -30.1960   19.0743 O   0  0  0  0  0  0  0  0  0  0  0  0
  -29.3514  -15.8161   18.6778 O   0  0  0  0  0  0  0  0  0  0  0  0
  -21.4060   -7.2222   21.5952 O   0  0  0  0  0  0  0  0  0  0  0  0
  -27.3746  -26.8477   20.1645 O   0  0  0  0  0  0  0  0  0  1  0  0
  -22.1848   -2.5387   24.3991 F   0  0  0  0  0  0  0  0  0  0  0  0
  -23.1904   -5.3113   20.6969 F   0  0  0  0  0  0  0  0  0  0  0  0
  1  2  1  0  0  0  0
  1  5  2  0  0  0  0
  2  6  2  0  0  0  0
  3  8  2  0  0  0  0
  3 16  1  0  0  0  0
  4  9  1  0  0  0  0
  4 16  2  0  0  0  0
  5 18  1  0  0  0  0
  6 20  1  0  0  0  0
  7 10  2  0  0  0  0
  7 19  1  0  0  0  0
  8 27  1  0  0  0  0
  9 27  2  0  0  0  0
 10 28  1  0  0  0  0
 11 12  2  0  0  0  0
 11 29  1  0  0  0  0
 12 30  1  0  0  0  0
 13 21  1  0  0  0  0
 13 28  2  0  0  0  0
 14 22  2  0  0  0  0
 14 26  1  0  0  0  0
 15 30  2  0  0  0  0
 15 31  1  0  0  0  0
 16 32  1  0  0  0  0
 17 32  1  0  0  0  0
 17 33  2  0  0  0  0
 17 34  1  0  0  0  0
 18 20  2  0  0  0  0
 18 39  1  0  0  0  0
 19 21  2  0  0  0  0
 19 40  1  0  0  0  0
 20 52  1  0  0  0  0
 21 41  1  0  0  0  0
 22 24  1  0  0  0  0
 22 55  1  0  0  0  0
 23 24  2  0  0  0  0
 23 25  1  0  0  0  0
 23 56  1  0  0  0  0
 24 63  1  0  0  0  0
 25 26  2  0  0  0  0
 25 57  1  0  0  0  0
 26 69  1  0  0  0  0
 27 83  1  0  0  0  0
 28 84  1  0  0  0  0
 29 31  2  0  0  0  0
 29 83  1  0  0  0  0
 30 85  1  0  0  0  0
 31 86  1  0  0  0  0
 32 67  2  0  0  0  0
 33 68  1  0  0  0  0
 33 73  1  0  0  0  0
 34 74  1  0  0  0  0
 34 78  2  0  0  0  0
 35 53  1  0  0  0  0
 35 75  1  0  0  0  0
 35 79  2  0  0  0  0
 36 64  1  0  0  0  0
 36 70  1  0  0  0  0
 36 80  2  0  0  0  0
 37 65  1  0  0  0  0
 37 76  1  0  0  0  0
 37 81  2  0  0  0  0
 38 71  1  0  0  0  0
 38 72  1  0  0  0  0
 38 82  2  0  0  0  0
 39 42  1  0  0  0  0
 40 53  1  0  0  0  0
 41 70  1  0  0  0  0
 42 44  1  0  0  0  0
 43 45  1  0  0  0  0
 43 46  1  0  0  0  0
 44 52  1  0  0  0  0
 45 54  1  0  0  0  0
 46 71  1  0  0  0  0
 47 49  1  0  0  0  0
 47 69  1  0  0  0  0
 48 50  1  0  0  0  0
 48 69  1  0  0  0  0
 49 72  1  0  0  0  0
 50 72  1  0  0  0  0
 51 54  1  0  0  0  0
 51 71  1  0  0  0  0
 52 75  1  0  0  0  0
 53 70  1  0  0  0  0
 54 68  1  0  0  0  0
 58 65  1  0  0  0  0
 59 66  1  0  0  0  0
 60 66  1  0  0  0  0
 61 66  1  0  0  0  0
 62 77  1  0  0  0  0
 63 84  1  0  0  0  0
 64 66  1  0  0  0  0
 64 76  1  0  0  0  0
 65 77  1  0  0  0  0
 67 68  1  0  0  0  0
M  CHG  1  77   1
M  ISO  4  38 100  63 101  72 100  84 101
M  END
> <Batch ID>
0155

> <Smiles>
CNC(C)C(=O)NC(C(=O)N1Cc2cc([101O:1][101CH2:1]c3c(C)cc(N4CC[100N:0]([100C:0](=O)N5CCCC(n6nc(-c7ccc(Oc8ccc(F)cc8F)cc7)c(C(N)=O)c6N)C5)CC4)c(C)c3C)ccc2CC1C(=O)NC1CCCc2ccccc21)C(C)(C)C

> <Shape>
0.289

> <Color>
0.087

> <Negative vol penalty>
0.000

$$$$

  -OEChem-04052321543D

 84 93  0     1  0  0  0  0  0999 V2000
  -17.6975  -25.8397   21.4885 C   0  0  0  0  0  0  0  0  0  0  0  0
  -19.0340  -25.7439   21.1143 C   0  0  0  0  0  0  0  0  0  0  0  0
  -26.2230  -13.8967   21.6224 C   0  0  0  0  0  0  0  0  0  0  0  0
  -25.9938  -15.5505   19.8761 C   0  0  0  0  0  0  0  0  0  0  0  0
  -17.1326  -27.0897   21.7379 C   0  0  0  0  0  0  0  0  0  0  0  0
  -19.8060  -26.8982   20.9881 C   0  0  0  0  0  0  0  0  0  0  0  0
  -24.3756  -26.4215   23.1182 C   0  0  0  0  0  0  0  0  0  0  0  0
  -24.8437  -13.6902   21.6079 C   0  0  0  0  0  0  0  0  0  0  0  0
  -24.6144  -15.3439   19.8616 C   0  0  0  0  0  0  0  0  0  0  0  0
  -25.3388  -25.7082   22.4060 C   0  0  0  0  0  0  0  0  0  0  0  0
  -22.5938  -12.0275   19.7088 C   0  0  0  0  0  0  0  0  0  0  0  0
  -22.1353  -10.7103   19.7277 C   0  0  0  0  0  0  0  0  0  0  0  0
  -29.3564  -23.1520   18.1102 C   0  0  0  0  0  0  0  0  0  0  0  0
  -29.4340  -23.1475   20.8911 C   0  0  0  0  0  0  0  0  0  0  0  0
  -26.3130  -27.7839   21.6564 C   0  0  0  0  0  0  0  0  0  0  0  0
  -20.9652  -11.1472   21.7958 C   0  0  0  0  0  0  0  0  0  0  0  0
  -26.7981  -14.8270   20.7565 C   0  0  0  0  0  0  0  0  0  0  0  0
  -29.1921  -14.3666   20.0051 C   0  0  0  0  0  0  0  0  0  0  0  0
  -17.9006  -28.2592   21.6242 C   0  0  0  0  0  0  0  0  0  0  0  0
  -24.3673  -27.8236   23.0960 C   0  0  0  0  0  0  0  0  0  0  0  0
  -19.2504  -28.1651   21.2350 C   0  0  0  0  0  0  0  0  0  0  0  0
  -30.4718  -22.6067   18.7659 C   0  0  0  0  0  0  0  0  0  0  0  0
  -30.5172  -22.6126   20.1727 C   0  0  0  0  0  0  0  0  0  0  0  0
  -25.3502  -28.5126   22.3712 C   0  0  0  0  0  0  0  0  0  0  0  0
  -28.2903  -23.6807   18.8365 C   0  0  0  0  0  0  0  0  0  0  0  0
  -28.3289  -23.6782   20.2269 C   0  0  0  0  0  0  0  0  0  0  0  0
  -24.0393  -14.4137   20.7275 C   0  0  0  0  0  0  0  0  0  0  0  0
  -26.3059  -26.3893   21.6726 C   0  0  0  0  0  0  0  0  0  0  0  0
  -22.2380  -12.9046   20.7334 C   0  0  0  0  0  0  0  0  0  0  0  0
  -21.3210  -10.2702   20.7712 C   0  0  0  0  0  0  0  0  0  0  0  0
  -21.4237  -12.4645   21.7769 C   0  0  0  0  0  0  0  0  0  0  0  0
  -28.2229  -15.0412   20.7715 C   0  0  0  0  0  0  0  0  0  0  0  0
  -30.3846  -14.9331   20.3838 C   0  0  0  0  0  0  0  0  0  0  0  0
  -29.0289  -13.3214   19.0373 C   0  0  0  0  0  0  0  0  0  0  0  0
  -22.3122  -30.0393   22.1105 C   0  0  0  0  0  0  0  0  0  0  0  0
  -24.4542  -32.0685   23.4581 C   0  0  0  0  0  0  0  0  0  0  0  0
  -27.6651  -32.6447   24.4605 C   0  0  0  0  0  0  0  0  0  0  0  0
  -31.8126  -20.2704   22.6913 C   0  0  0  0  0  0  0  0  0  0  0  0
  -17.2334  -29.5915   21.8580 C   0  0  0  0  0  0  0  0  0  0  0  0
  -23.3377  -28.5786   23.8911 C   0  0  0  0  0  0  0  0  0  0  0  0
  -31.6187  -22.0925   17.9331 C   0  0  0  0  0  0  0  0  0  0  0  0
  -25.3971  -30.0175   22.3313 C   0  0  0  0  0  0  0  0  0  0  0  0
  -18.2193  -30.7382   22.0662 C   0  0  0  0  0  0  0  0  0  0  0  0
  -32.6246  -21.2536   18.7190 C   0  0  0  0  0  0  0  0  0  0  0  0
  -32.4986  -17.0748   24.1034 C   0  0  0  0  0  0  0  0  0  0  0  0
  -19.3209  -30.6932   21.0120 C   0  0  0  0  0  0  0  0  0  0  0  0
  -31.5680  -16.1304   23.3404 C   0  0  0  0  0  0  0  0  0  0  0  0
  -31.8449  -18.4324   24.3517 C   0  0  0  0  0  0  0  0  0  0  0  0
  -30.3914  -18.1537   22.3810 C   0  0  0  0  0  0  0  0  0  0  0  0
  -20.1270  -29.3925   21.1116 C   0  0  1  0  0  0  0  0  0  0  0  0
  -31.6842  -22.0184   20.9343 C   0  0  2  0  0  0  0  0  0  0  0  0
  -23.1126  -29.9988   23.3814 C   0  0  1  0  0  0  0  0  0  0  0  0
  -32.9625  -21.8704   20.0820 C   0  0  2  0  0  0  0  0  0  0  0  0
  -31.0274  -16.7909   22.0579 C   0  0  2  0  0  0  0  0  0  0  0  0
  -27.1210  -24.2469   18.1001 C   0  0  0  0  0  0  0  0  0  0  0  0
  -33.6979  -23.2089   19.9372 C   0  0  0  0  0  0  0  0  0  0  0  0
  -29.1200  -34.4101   25.4921 C   0  0  0  0  0  0  0  0  0  0  0  0
  -24.5249  -33.5613   20.7979 C   0  0  0  0  0  0  0  0  0  0  0  0
  -26.6320  -34.6781   21.5602 C   0  0  0  0  0  0  0  0  0  0  0  0
  -24.5084  -35.0330   22.8199 C   0  0  0  0  0  0  0  0  0  0  0  0
  -28.2863  -30.9336   26.7940 C   0  0  0  0  0  0  0  0  0  0  0  0
  -27.1950  -24.2402   21.0330 C   0  0  0  0  0  0  0  0  0  1  0  0
  -25.6836  -32.7999   22.9759 C   0  0  1  0  0  0  0  0  0  0  0  0
  -28.2319  -33.2035   25.7532 C   0  0  2  0  0  0  0  0  0  0  0  0
  -25.3354  -33.9897   22.0375 C   0  0  0  0  0  0  0  0  0  0  0  0
  -28.7538  -15.9655   21.5764 N   0  0  0  0  0  0  0  0  0  0  0  0
  -30.0695  -15.8756   21.3179 N   0  0  0  0  0  0  0  0  0  0  0  0
  -24.3652  -30.7107   23.1200 N   0  0  0  0  0  0  0  0  0  0  0  0
  -31.3551  -19.0054   23.0956 N   0  0  0  0  0  0  0  0  0  0  0  0
  -31.6615  -14.7118   20.0057 N   0  0  0  0  0  0  0  0  0  0  0  0
  -27.7345  -12.8564   18.7678 N   0  0  0  0  0  0  0  0  0  0  0  0
  -21.0617  -29.4604   22.2144 N   0  0  0  0  0  0  0  0  0  0  0  0
  -26.4277  -33.1801   24.1718 N   0  0  0  0  0  0  0  0  0  0  0  0
  -31.3035  -20.7370   21.4855 N   0  0  0  0  0  0  0  0  0  0  0  0
  -29.0413  -32.1672   26.4546 N   0  3  0  0  0  0  0  0  0  0  0  0
  -30.0037  -12.8035   18.4414 O   0  0  0  0  0  0  0  0  0  0  0  0
  -22.7929  -30.5586   21.1100 O   0  0  0  0  0  0  0  0  0  0  0  0
  -23.6076  -32.6776   24.1167 O   0  0  0  0  0  0  0  0  0  0  0  0
  -28.2622  -31.8188   23.7735 O   0  0  0  0  0  0  0  0  0  0  0  0
  -32.6193  -20.9325   23.3530 O   0  0  0  0  0  0  0  0  0  0  0  0
  -22.6933  -14.2122   20.7129 O   0  0  0  0  0  0  0  0  0  0  0  0
  -27.2468  -25.6955   20.9760 O   0  0  0  0  0  0  0  0  0  1  0  0
  -20.8796   -9.0056   20.7884 F   0  0  0  0  0  0  0  0  0  0  0  0
  -21.0776  -13.3028   22.7634 F   0  0  0  0  0  0  0  0  0  0  0  0
  1  2  1  0  0  0  0
  1  5  2  0  0  0  0
  2  6  2  0  0  0  0
  3  8  2  0  0  0  0
  3 17  1  0  0  0  0
  4  9  1  0  0  0  0
  4 17  2  0  0  0  0
  5 19  1  0  0  0  0
  6 21  1  0  0  0  0
  7 10  2  0  0  0  0
  7 20  1  0  0  0  0
  8 27  1  0  0  0  0
  9 27  2  0  0  0  0
 10 28  1  0  0  0  0
 11 12  2  0  0  0  0
 11 29  1  0  0  0  0
 12 30  1  0  0  0  0
 13 22  2  0  0  0  0
 13 25  1  0  0  0  0
 14 23  2  0  0  0  0
 14 26  1  0  0  0  0
 15 24  1  0  0  0  0
 15 28  2  0  0  0  0
 16 30  2  0  0  0  0
 16 31  1  0  0  0  0
 17 32  1  0  0  0  0
 18 32  1  0  0  0  0
 18 33  2  0  0  0  0
 18 34  1  0  0  0  0
 19 21  2  0  0  0  0
 19 39  1  0  0  0  0
 20 24  2  0  0  0  0
 20 40  1  0  0  0  0
 21 50  1  0  0  0  0
 22 23  1  0  0  0  0
 22 41  1  0  0  0  0
 23 51  1  0  0  0  0
 24 42  1  0  0  0  0
 25 26  2  0  0  0  0
 25 55  1  0  0  0  0
 26 62  1  0  0  0  0
 27 81  1  0  0  0  0
 28 82  1  0  0  0  0
 29 31  2  0  0  0  0
 29 81  1  0  0  0  0
 30 83  1  0  0  0  0
 31 84  1  0  0  0  0
 32 66  2  0  0  0  0
 33 67  1  0  0  0  0
 33 70  1  0  0  0  0
 34 71  1  0  0  0  0
 34 76  2  0  0  0  0
 35 52  1  0  0  0  0
 35 72  1  0  0  0  0
 35 77  2  0  0  0  0
 36 63  1  0  0  0  0
 36 68  1  0  0  0  0
 36 78  2  0  0  0  0
 37 64  1  0  0  0  0
 37 73  1  0  0  0  0
 37 79  2  0  0  0  0
 38 69  1  0  0  0  0
 38 74  1  0  0  0  0
 38 80  2  0  0  0  0
 39 43  1  0  0  0  0
 40 52  1  0  0  0  0
 41 44  1  0  0  0  0
 42 68  1  0  0  0  0
 43 46  1  0  0  0  0
 44 53  1  0  0  0  0
 45 47  1  0  0  0  0
 45 48  1  0  0  0  0
 46 50  1  0  0  0  0
 47 54  1  0  0  0  0
 48 69  1  0  0  0  0
 49 54  1  0  0  0  0
 49 69  1  0  0  0  0
 50 72  1  0  0  0  0
 51 53  1  0  0  0  0
 51 74  1  0  0  0  0
 52 68  1  0  0  0  0
 53 56  1  0  0  0  0
 54 67  1  0  0  0  0
 57 64  1  0  0  0  0
 58 65  1  0  0  0  0
 59 65  1  0  0  0  0
 60 65  1  0  0  0  0
 61 75  1  0  0  0  0
 62 82  1  0  0  0  0
 63 65  1  0  0  0  0
 63 73  1  0  0  0  0
 64 75  1  0  0  0  0
 66 67  1  0  0  0  0
M  CHG  1  75   1
M  ISO  4  38 100  62 101  74 100  82 101
M  END
> <Batch ID>
0155

> <Smiles>
CNC(C)C(=O)NC(C(=O)N1Cc2cc([101O:1][101CH2:1]c3cc4c(cc3C)CCC(C)C4[100NH:0][100C:0](=O)N3CCCC(n4nc(-c5ccc(Oc6ccc(F)cc6F)cc5)c(C(N)=O)c4N)C3)ccc2CC1C(=O)NC1CCCc2ccccc21)C(C)(C)C

> <Shape>
0.294

> <Color>
0.073

> <Negative vol penalty>
0.000

$$$$

  -OEChem-04052321543D

 88 97  0     1  0  0  0  0  0999 V2000
  -16.1422  -14.6780   22.3910 C   0  0  0  0  0  0  0  0  0  0  0  0
  -17.4032  -14.7290   21.8055 C   0  0  0  0  0  0  0  0  0  0  0  0
  -26.1061  -28.0566   18.9062 C   0  0  0  0  0  0  0  0  0  0  0  0
  -26.4173  -28.0048   21.3015 C   0  0  0  0  0  0  0  0  0  0  0  0
  -15.5747  -15.8349   22.9234 C   0  0  0  0  0  0  0  0  0  0  0  0
  -18.0970  -15.9374   21.7512 C   0  0  0  0  0  0  0  0  0  0  0  0
  -22.9667  -15.4414   23.0491 C   0  0  0  0  0  0  0  0  0  0  0  0
  -25.0363  -28.9375   19.0642 C   0  0  0  0  0  0  0  0  0  0  0  0
  -25.3475  -28.8858   21.4595 C   0  0  0  0  0  0  0  0  0  0  0  0
  -23.8301  -14.9109   22.0915 C   0  0  0  0  0  0  0  0  0  0  0  0
  -21.9701  -28.7317   21.4440 C   0  0  0  0  0  0  0  0  0  0  0  0
  -21.0356  -28.4445   22.4389 C   0  0  0  0  0  0  0  0  0  0  0  0
  -24.5848  -17.1366   21.5478 C   0  0  0  0  0  0  0  0  0  0  0  0
  -31.2130  -16.4465   21.0207 C   0  0  0  0  0  0  0  0  0  0  0  0
  -29.7637  -16.0290   22.9081 C   0  0  0  0  0  0  0  0  0  0  0  0
  -21.5335  -30.5498   23.5143 C   0  0  0  0  0  0  0  0  0  0  0  0
  -26.7966  -27.5902   20.0248 C   0  0  0  0  0  0  0  0  0  0  0  0
  -29.2590  -27.0119   19.6933 C   0  0  0  0  0  0  0  0  0  0  0  0
  -16.2660  -17.0560   22.8842 C   0  0  0  0  0  0  0  0  0  0  0  0
  -22.8979  -16.8266   23.2560 C   0  0  0  0  0  0  0  0  0  0  0  0
  -17.5377  -17.1120   22.2824 C   0  0  0  0  0  0  0  0  0  0  0  0
  -23.7217  -17.6820   22.5104 C   0  0  0  0  0  0  0  0  0  0  0  0
  -30.5152  -16.9136   22.1345 C   0  0  0  0  0  0  0  0  0  0  0  0
  -31.1593  -15.0948   20.6805 C   0  0  0  0  0  0  0  0  0  0  0  0
  -29.7100  -14.6773   22.5679 C   0  0  0  0  0  0  0  0  0  0  0  0
  -30.4078  -14.2102   21.4541 C   0  0  0  0  0  0  0  0  0  0  0  0
  -24.6570  -29.3522   20.3408 C   0  0  0  0  0  0  0  0  0  0  0  0
  -24.6372  -15.7587   21.3386 C   0  0  0  0  0  0  0  0  0  0  0  0
  -22.6864  -29.9279   21.4843 C   0  0  0  0  0  0  0  0  0  0  0  0
  -20.8173  -29.3535   23.4740 C   0  0  0  0  0  0  0  0  0  0  0  0
  -22.4681  -30.8370   22.5194 C   0  0  0  0  0  0  0  0  0  0  0  0
  -27.9015  -26.6797   19.8623 C   0  0  0  0  0  0  0  0  0  0  0  0
  -29.8979  -25.8009   19.5849 C   0  0  0  0  0  0  0  0  0  0  0  0
  -29.8864  -28.3000   19.6391 C   0  0  0  0  0  0  0  0  0  0  0  0
  -20.6220  -19.0270   22.9698 C   0  0  0  0  0  0  0  0  0  0  0  0
  -22.8697  -20.9619   24.2837 C   0  0  0  0  0  0  0  0  0  0  0  0
  -26.1745  -21.5876   24.8615 C   0  0  0  0  0  0  0  0  0  0  0  0
  -29.6636  -20.5546   21.7835 C   0  0  0  0  0  0  0  0  0  0  0  0
  -15.5919  -18.2897   23.4304 C   0  0  0  0  0  0  0  0  0  0  0  0
  -21.9809  -17.3811   24.3115 C   0  0  0  0  0  0  0  0  0  0  0  0
  -23.7003  -19.1749   22.7082 C   0  0  0  0  0  0  0  0  0  0  0  0
  -16.5511  -19.4533   23.6680 C   0  0  0  0  0  0  0  0  0  0  0  0
  -28.4853  -21.2063   18.4242 C   0  0  0  0  0  0  0  0  0  0  0  0
  -28.5407  -10.3579   19.2725 C   0  0  0  0  0  0  0  0  0  0  0  0
  -17.4682  -19.6434   22.4640 C   0  0  0  0  0  0  0  0  0  0  0  0
  -28.3475  -22.7298   18.4404 C   0  0  0  0  0  0  0  0  0  0  0  0
  -27.4409  -11.3997   19.2800 C   0  0  0  0  0  0  0  0  0  0  0  0
  -28.0784  -20.6002   19.7641 C   0  0  0  0  0  0  0  0  0  0  0  0
  -28.6774  -22.6725   20.9559 C   0  0  0  0  0  0  0  0  0  0  0  0
  -29.8106  -11.1830   19.1878 C   0  0  0  0  0  0  0  0  0  0  0  0
  -18.3321  -18.3988   22.2266 C   0  0  1  0  0  0  0  0  0  0  0  0
  -21.6187  -18.8447   24.0794 C   0  0  1  0  0  0  0  0  0  0  0  0
  -29.0954  -23.3473   19.6368 C   0  0  2  0  0  0  0  0  0  0  0  0
  -27.9907  -12.4569   20.2265 C   0  0  2  0  0  0  0  0  0  0  0  0
  -31.9166  -14.6198   19.4836 C   0  0  0  0  0  0  0  0  0  0  0  0
  -28.8981  -13.7506   23.4127 C   0  0  0  0  0  0  0  0  0  0  0  0
  -27.7043  -23.2656   25.9300 C   0  0  0  0  0  0  0  0  0  0  0  0
  -22.4479  -22.8469   21.9217 C   0  0  0  0  0  0  0  0  0  0  0  0
  -24.6035  -23.9697   22.5224 C   0  0  0  0  0  0  0  0  0  0  0  0
  -22.6992  -23.9863   24.1337 C   0  0  0  0  0  0  0  0  0  0  0  0
  -27.2344  -19.5831   26.7634 C   0  0  0  0  0  0  0  0  0  0  0  0
  -30.5720  -18.3589   22.4978 C   0  0  0  0  0  0  0  0  0  0  0  0
  -30.3506  -12.7563   21.0882 C   0  0  0  0  0  0  0  0  0  0  0  0
  -27.3817  -13.8319   20.0223 C   0  0  0  0  0  0  0  0  0  0  0  0
  -25.9975  -13.9358   20.6442 C   0  0  0  0  0  0  0  0  0  1  0  0
  -23.9741  -21.8381   23.7436 C   0  0  1  0  0  0  0  0  0  0  0  0
  -26.9200  -21.9773   26.1251 C   0  0  2  0  0  0  0  0  0  0  0  0
  -23.4304  -23.1323   23.0750 C   0  0  0  0  0  0  0  0  0  0  0  0
  -27.6894  -25.3610   19.8618 N   0  0  0  0  0  0  0  0  0  0  0  0
  -28.9222  -24.8539   19.6911 N   0  0  0  0  0  0  0  0  0  0  0  0
  -22.7824  -19.6693   23.7477 N   0  0  0  0  0  0  0  0  0  0  0  0
  -28.8400  -21.2180   20.8587 N   0  0  0  0  0  0  0  0  0  0  0  0
  -31.1936  -25.4645   19.4100 N   0  0  0  0  0  0  0  0  0  0  0  0
  -29.0823  -29.4407   19.7675 N   0  0  0  0  0  0  0  0  0  0  0  0
  -19.4295  -18.3580   23.1692 N   0  0  0  0  0  0  0  0  0  0  0  0
  -24.8859  -22.0783   24.8568 N   0  0  0  0  0  0  0  0  0  0  0  0
  -29.7582  -19.1773   21.6266 N   0  0  0  0  0  0  0  0  0  0  0  0
  -29.4785  -12.4837   19.9009 N   0  3  1  0  0  0  0  0  0  0  0  0
  -27.8737  -20.9012   26.5167 N   0  3  0  0  0  0  0  0  0  0  0  0
  -31.1212  -28.4357   19.4651 O   0  0  0  0  0  0  0  0  0  0  0  0
  -20.9128  -19.7243   22.0050 O   0  0  0  0  0  0  0  0  0  0  0  0
  -22.1169  -21.4056   25.1543 O   0  0  0  0  0  0  0  0  0  0  0  0
  -26.6855  -20.9181   23.9663 O   0  0  0  0  0  0  0  0  0  0  0  0
  -30.2742  -21.1469   22.6799 O   0  0  0  0  0  0  0  0  0  0  0  0
  -23.6132  -30.2120   20.4954 O   0  0  0  0  0  0  0  0  0  0  0  0
  -25.4802  -15.2436   20.4028 O   0  0  0  0  0  0  0  0  0  1  0  0
  -19.9188  -29.0783   24.4285 F   0  0  0  0  0  0  0  0  0  0  0  0
  -23.1523  -31.9884   22.5628 F   0  0  0  0  0  0  0  0  0  0  0  0
  1  2  1  0  0  0  0
  1  5  2  0  0  0  0
  2  6  2  0  0  0  0
  3  8  2  0  0  0  0
  3 17  1  0  0  0  0
  4  9  1  0  0  0  0
  4 17  2  0  0  0  0
  5 19  1  0  0  0  0
  6 21  1  0  0  0  0
  7 10  2  0  0  0  0
  7 20  1  0  0  0  0
  8 27  1  0  0  0  0
  9 27  2  0  0  0  0
 10 28  1  0  0  0  0
 11 12  2  0  0  0  0
 11 29  1  0  0  0  0
 12 30  1  0  0  0  0
 13 22  1  0  0  0  0
 13 28  2  0  0  0  0
 14 23  1  0  0  0  0
 14 24  2  0  0  0  0
 15 23  2  0  0  0  0
 15 25  1  0  0  0  0
 16 30  2  0  0  0  0
 16 31  1  0  0  0  0
 17 32  1  0  0  0  0
 18 32  1  0  0  0  0
 18 33  2  0  0  0  0
 18 34  1  0  0  0  0
 19 21  2  0  0  0  0
 19 39  1  0  0  0  0
 20 22  2  0  0  0  0
 20 40  1  0  0  0  0
 21 51  1  0  0  0  0
 22 41  1  0  0  0  0
 23 62  1  0  0  0  0
 24 26  1  0  0  0  0
 24 55  1  0  0  0  0
 25 26  2  0  0  0  0
 25 56  1  0  0  0  0
 26 63  1  0  0  0  0
 27 85  1  0  0  0  0
 28 86  1  0  0  0  0
 29 31  2  0  0  0  0
 29 85  1  0  0  0  0
 30 87  1  0  0  0  0
 31 88  1  0  0  0  0
 32 69  2  0  0  0  0
 33 70  1  0  0  0  0
 33 73  1  0  0  0  0
 34 74  1  0  0  0  0
 34 80  2  0  0  0  0
 35 52  1  0  0  0  0
 35 75  1  0  0  0  0
 35 81  2  0  0  0  0
 36 66  1  0  0  0  0
 36 71  1  0  0  0  0
 36 82  2  0  0  0  0
 37 67  1  0  0  0  0
 37 76  1  0  0  0  0
 37 83  2  0  0  0  0
 38 72  1  0  0  0  0
 38 77  1  0  0  0  0
 38 84  2  0  0  0  0
 39 42  1  0  0  0  0
 40 52  1  0  0  0  0
 41 71  1  0  0  0  0
 42 45  1  0  0  0  0
 43 46  1  0  0  0  0
 43 48  1  0  0  0  0
 44 47  1  0  0  0  0
 44 50  1  0  0  0  0
 45 51  1  0  0  0  0
 46 53  1  0  0  0  0
 47 54  1  0  0  0  0
 48 72  1  0  0  0  0
 49 53  1  0  0  0  0
 49 72  1  0  0  0  0
 50 78  1  0  0  0  0
 51 75  1  0  0  0  0
 52 71  1  0  0  0  0
 53 70  1  0  0  0  0
 54 64  1  0  0  0  0
 54 78  1  0  0  0  0
 57 67  1  0  0  0  0
 58 68  1  0  0  0  0
 59 68  1  0  0  0  0
 60 68  1  0  0  0  0
 61 79  1  0  0  0  0
 62 77  1  0  0  0  0
 63 78  1  0  0  0  0
 64 65  1  0  0  0  0
 65 86  1  0  0  0  0
 66 68  1  0  0  0  0
 66 76  1  0  0  0  0
 67 79  1  0  0  0  0
 69 70  1  0  0  0  0
M  CHG  2  78   1  79   1
M  ISO  4  38 100  65 101  77 100  86 101
M  END
> <Batch ID>
0155

> <Smiles>
CNC(C)C(=O)NC(C(=O)N1Cc2cc([101O:1][101CH2:1]CC3CCCN3Cc3c(C)cc(C[100NH:0][100C:0](=O)N4CCCC(n5nc(-c6ccc(Oc7ccc(F)cc7F)cc6)c(C(N)=O)c5N)C4)cc3C)ccc2CC1C(=O)NC1CCCc2ccccc21)C(C)(C)C

> <Shape>
0.234

> <Color>
0.055

> <Negative vol penalty>
0.000

$$$$

  -OEChem-04052321543D

 87 96  0     1  0  0  0  0  0999 V2000
  -21.1703  -35.0812   22.2953 C   0  0  0  0  0  0  0  0  0  0  0  0
  -22.3591  -34.4286   21.9850 C   0  0  0  0  0  0  0  0  0  0  0  0
  -24.6334   -9.2266   21.7902 C   0  0  0  0  0  0  0  0  0  0  0  0
  -23.1219   -9.7926   19.9924 C   0  0  0  0  0  0  0  0  0  0  0  0
  -20.1783  -34.4159   23.0144 C   0  0  0  0  0  0  0  0  0  0  0  0
  -22.5570  -33.1105   22.3948 C   0  0  0  0  0  0  0  0  0  0  0  0
  -25.6118  -28.7387   19.3845 C   0  0  0  0  0  0  0  0  0  0  0  0
  -29.0351  -24.0795   17.9386 C   0  0  0  0  0  0  0  0  0  0  0  0
  -28.4678  -22.8173   17.7641 C   0  0  0  0  0  0  0  0  0  0  0  0
  -23.5843   -8.6209   22.4816 C   0  0  0  0  0  0  0  0  0  0  0  0
  -22.0727   -9.1869   20.6838 C   0  0  0  0  0  0  0  0  0  0  0  0
  -26.9099  -28.2457   19.5095 C   0  0  0  0  0  0  0  0  0  0  0  0
  -21.8946   -5.6940   22.3787 C   0  0  0  0  0  0  0  0  0  0  0  0
  -22.1335   -4.4473   22.9569 C   0  0  0  0  0  0  0  0  0  0  0  0
  -26.0899  -26.4576   20.9057 C   0  0  0  0  0  0  0  0  0  0  0  0
  -29.3578  -22.1219   19.8999 C   0  0  0  0  0  0  0  0  0  0  0  0
  -21.6187   -5.3586   25.1345 C   0  0  0  0  0  0  0  0  0  0  0  0
  -24.4022   -9.8125   20.5456 C   0  0  0  0  0  0  0  0  0  0  0  0
  -26.3572   -9.8325   18.9069 C   0  0  0  0  0  0  0  0  0  0  0  0
  -20.3603  -33.0858   23.4249 C   0  0  0  0  0  0  0  0  0  0  0  0
  -24.5427  -28.1000   20.0292 C   0  0  0  0  0  0  0  0  0  0  0  0
  -21.5671  -32.4272   23.1213 C   0  0  0  0  0  0  0  0  0  0  0  0
  -24.7788  -26.9430   20.7852 C   0  0  0  0  0  0  0  0  0  0  0  0
  -29.7639  -24.3630   19.0937 C   0  0  0  0  0  0  0  0  0  0  0  0
  -28.6291  -21.8385   18.7447 C   0  0  0  0  0  0  0  0  0  0  0  0
  -22.3040   -8.6010   21.9284 C   0  0  0  0  0  0  0  0  0  0  0  0
  -27.1496  -27.1067   20.2725 C   0  0  0  0  0  0  0  0  0  0  0  0
  -21.5177   -6.7730   23.1784 C   0  0  0  0  0  0  0  0  0  0  0  0
  -29.9252  -23.3842   20.0744 C   0  0  0  0  0  0  0  0  0  0  0  0
  -21.9956   -4.2796   24.3348 C   0  0  0  0  0  0  0  0  0  0  0  0
  -21.3798   -6.6053   24.5562 C   0  0  0  0  0  0  0  0  0  0  0  0
  -25.4854  -10.4389   19.8311 C   0  0  0  0  0  0  0  0  0  0  0  0
  -27.2001  -10.8439   18.5155 C   0  0  0  0  0  0  0  0  0  0  0  0
  -26.4011   -8.4764   18.4436 C   0  0  0  0  0  0  0  0  0  0  0  0
  -22.4455  -28.9419   22.2645 C   0  0  0  0  0  0  0  0  0  0  0  0
  -21.1471  -26.0482   21.5839 C   0  0  0  0  0  0  0  0  0  0  0  0
  -21.5828  -22.8932   20.3581 C   0  0  0  0  0  0  0  0  0  0  0  0
  -26.6820  -16.5923   18.1760 C   0  0  0  0  0  0  0  0  0  0  0  0
  -19.2786  -32.4235   24.2410 C   0  0  0  0  0  0  0  0  0  0  0  0
  -23.1446  -28.6290   19.8625 C   0  0  0  0  0  0  0  0  0  0  0  0
  -23.6628  -26.2087   21.4807 C   0  0  0  0  0  0  0  0  0  0  0  0
  -19.4143  -30.9048   24.3140 C   0  0  0  0  0  0  0  0  0  0  0  0
  -29.1321  -14.9301   20.0664 C   0  0  0  0  0  0  0  0  0  0  0  0
  -20.8545  -30.5119   24.6279 C   0  0  0  0  0  0  0  0  0  0  0  0
  -28.5563  -13.5159   20.1337 C   0  0  0  0  0  0  0  0  0  0  0  0
  -28.0488  -15.9981   20.2252 C   0  0  0  0  0  0  0  0  0  0  0  0
  -28.4583  -19.7574   17.4151 C   0  0  0  0  0  0  0  0  0  0  0  0
  -27.6281  -19.8440   19.7708 C   0  0  0  0  0  0  0  0  0  0  0  0
  -27.4114  -18.6909   17.1047 C   0  0  0  0  0  0  0  0  0  0  0  0
  -26.5888  -18.7864   19.4158 C   0  0  0  0  0  0  0  0  0  0  0  0
  -26.3420  -14.4370   19.3491 C   0  0  0  0  0  0  0  0  0  0  0  0
  -21.8090  -30.9894   23.5268 C   0  0  1  0  0  0  0  0  0  0  0  0
  -22.2043  -28.1955   20.9829 C   0  0  1  0  0  0  0  0  0  0  0  0
  -27.3990  -13.3426   19.1341 C   0  0  2  0  0  0  0  0  0  0  0  0
  -31.4086  -26.0305   18.1741 C   0  0  0  0  0  0  0  0  0  0  0  0
  -20.3478  -20.7441   19.9662 C   0  0  0  0  0  0  0  0  0  0  0  0
  -21.3107  -25.4136   24.5639 C   0  0  0  0  0  0  0  0  0  0  0  0
  -20.9795  -22.9977   23.9966 C   0  0  0  0  0  0  0  0  0  0  0  0
  -19.2015  -24.6603   23.4512 C   0  0  0  0  0  0  0  0  0  0  0  0
  -22.0369  -23.0299   17.4368 C   0  0  0  0  0  0  0  0  0  0  0  0
  -30.7491  -22.5870   22.1580 C   0  0  0  0  0  0  0  0  0  0  0  0
  -29.3053  -26.8451   19.3027 C   0  0  0  0  0  0  0  0  0  1  0  0
  -30.3635  -25.7196   19.2636 C   0  0  1  0  0  0  0  0  0  0  0  0
  -21.3384  -24.6425   22.1001 C   0  0  1  0  0  0  0  0  0  0  0  0
  -20.7722  -22.0763   19.3681 C   0  0  2  0  0  0  0  0  0  0  0  0
  -20.7290  -24.4433   23.5166 C   0  0  0  0  0  0  0  0  0  0  0  0
  -25.7501  -11.7349   20.0159 N   0  0  0  0  0  0  0  0  0  0  0  0
  -26.7978  -11.9513   19.2025 N   0  0  0  0  0  0  0  0  0  0  0  0
  -28.0598  -20.5708   18.5690 N   0  0  0  0  0  0  0  0  0  0  0  0
  -22.3142  -26.7685   21.2927 N   0  0  0  0  0  0  0  0  0  0  0  0
  -26.9483  -15.7681   19.2796 N   0  0  0  0  0  0  0  0  0  0  0  0
  -27.0271  -17.9474   18.2985 N   0  0  0  0  0  0  0  0  0  0  0  0
  -28.2388  -10.8850   17.6542 N   0  0  0  0  0  0  0  0  0  0  0  0
  -25.4616   -7.5671   18.9483 N   0  0  0  0  0  0  0  0  0  0  0  0
  -21.7278  -30.1176   22.3745 N   0  0  0  0  0  0  0  0  0  0  0  0
  -20.7865  -23.7552   21.0820 N   0  0  0  0  0  0  0  0  0  0  0  0
  -21.5731  -21.8066   18.1406 N   0  3  0  0  0  0  0  0  0  0  0  0
  -27.2589   -8.0787   17.6192 O   0  0  0  0  0  0  0  0  0  0  0  0
  -23.2240  -28.4842   23.0929 O   0  0  0  0  0  0  0  0  0  0  0  0
  -20.0040  -26.4884   21.4375 O   0  0  0  0  0  0  0  0  0  0  0  0
  -22.8001  -22.7755   20.4799 O   0  0  0  0  0  0  0  0  0  0  0  0
  -26.1701  -16.1461   17.1418 O   0  0  0  0  0  0  0  0  0  0  0  0
  -21.2801   -8.0098   22.6027 O   0  0  0  0  0  0  0  0  0  0  0  0
  -30.6342  -23.6447   21.2084 O   0  0  0  0  0  0  0  0  0  0  0  0
  -28.4241  -26.6206   20.3975 O   0  0  0  0  0  0  0  0  0  1  0  0
  -22.2236   -3.0820   24.8897 F   0  0  0  0  0  0  0  0  0  0  0  0
  -21.0168   -7.6379   25.3295 F   0  0  0  0  0  0  0  0  0  0  0  0
  1  2  1  0  0  0  0
  1  5  2  0  0  0  0
  2  6  2  0  0  0  0
  3 10  2  0  0  0  0
  3 18  1  0  0  0  0
  4 11  1  0  0  0  0
  4 18  2  0  0  0  0
  5 20  1  0  0  0  0
  6 22  1  0  0  0  0
  7 12  2  0  0  0  0
  7 21  1  0  0  0  0
  8  9  2  0  0  0  0
  8 24  1  0  0  0  0
  9 25  1  0  0  0  0
 10 26  1  0  0  0  0
 11 26  2  0  0  0  0
 12 27  1  0  0  0  0
 13 14  2  0  0  0  0
 13 28  1  0  0  0  0
 14 30  1  0  0  0  0
 15 23  1  0  0  0  0
 15 27  2  0  0  0  0
 16 25  2  0  0  0  0
 16 29  1  0  0  0  0
 17 30  2  0  0  0  0
 17 31  1  0  0  0  0
 18 32  1  0  0  0  0
 19 32  1  0  0  0  0
 19 33  2  0  0  0  0
 19 34  1  0  0  0  0
 20 22  2  0  0  0  0
 20 39  1  0  0  0  0
 21 23  2  0  0  0  0
 21 40  1  0  0  0  0
 22 52  1  0  0  0  0
 23 41  1  0  0  0  0
 24 29  2  0  0  0  0
 24 63  1  0  0  0  0
 25 69  1  0  0  0  0
 26 83  1  0  0  0  0
 27 85  1  0  0  0  0
 28 31  2  0  0  0  0
 28 83  1  0  0  0  0
 29 84  1  0  0  0  0
 30 86  1  0  0  0  0
 31 87  1  0  0  0  0
 32 67  2  0  0  0  0
 33 68  1  0  0  0  0
 33 73  1  0  0  0  0
 34 74  1  0  0  0  0
 34 78  2  0  0  0  0
 35 53  1  0  0  0  0
 35 75  1  0  0  0  0
 35 79  2  0  0  0  0
 36 64  1  0  0  0  0
 36 70  1  0  0  0  0
 36 80  2  0  0  0  0
 37 65  1  0  0  0  0
 37 76  1  0  0  0  0
 37 81  2  0  0  0  0
 38 71  1  0  0  0  0
 38 72  1  0  0  0  0
 38 82  2  0  0  0  0
 39 42  1  0  0  0  0
 40 53  1  0  0  0  0
 41 70  1  0  0  0  0
 42 44  1  0  0  0  0
 43 45  1  0  0  0  0
 43 46  1  0  0  0  0
 44 52  1  0  0  0  0
 45 54  1  0  0  0  0
 46 71  1  0  0  0  0
 47 49  1  0  0  0  0
 47 69  1  0  0  0  0
 48 50  1  0  0  0  0
 48 69  1  0  0  0  0
 49 72  1  0  0  0  0
 50 72  1  0  0  0  0
 51 54  1  0  0  0  0
 51 71  1  0  0  0  0
 52 75  1  0  0  0  0
 53 70  1  0  0  0  0
 54 68  1  0  0  0  0
 55 63  1  0  0  0  0
 56 65  1  0  0  0  0
 57 66  1  0  0  0  0
 58 66  1  0  0  0  0
 59 66  1  0  0  0  0
 60 77  1  0  0  0  0
 61 84  1  0  0  0  0
 62 63  1  0  0  0  0
 62 85  1  0  0  0  0
 64 66  1  0  0  0  0
 64 76  1  0  0  0  0
 65 77  1  0  0  0  0
 67 68  1  0  0  0  0
M  CHG  1  77   1
M  ISO  4  38 100  62 101  72 100  85 101
M  END
> <Batch ID>
0155

> <Smiles>
CNC(C)C(=O)NC(C(=O)N1Cc2cc([101O:1][101CH2:1]C(C)c3ccc(N4CC[100N:0]([100C:0](=O)N5CCCC(n6nc(-c7ccc(Oc8ccc(F)cc8F)cc7)c(C(N)=O)c6N)C5)CC4)cc3OC)ccc2CC1C(=O)NC1CCCc2ccccc21)C(C)(C)C

> <Shape>
0.265

> <Color>
0.107

> <Negative vol penalty>
0.000

$$$$

  -OEChem-04052321543D

 91101  0     1  0  0  0  0  0999 V2000
  -28.0337  -23.8386   17.6441 C   0  0  0  0  0  0  0  0  0  0  0  0
  -26.8534  -24.1229   18.3233 C   0  0  0  0  0  0  0  0  0  0  0  0
  -24.7613  -11.8802   20.9287 C   0  0  0  0  0  0  0  0  0  0  0  0
  -24.0175  -12.9842   18.9125 C   0  0  0  0  0  0  0  0  0  0  0  0
  -29.2364  -24.3971   18.0748 C   0  0  0  0  0  0  0  0  0  0  0  0
  -26.8752  -24.9650   19.4345 C   0  0  0  0  0  0  0  0  0  0  0  0
  -23.1199  -28.3619   19.3717 C   0  0  0  0  0  0  0  0  0  0  0  0
  -19.4703  -20.0362   25.3093 C   0  0  0  0  0  0  0  0  0  0  0  0
  -19.2773  -21.2556   24.6602 C   0  0  0  0  0  0  0  0  0  0  0  0
  -24.5812  -10.6401   20.3161 C   0  0  0  0  0  0  0  0  0  0  0  0
  -23.8374  -11.7441   18.2999 C   0  0  0  0  0  0  0  0  0  0  0  0
  -21.8521  -27.9164   19.7432 C   0  0  0  0  0  0  0  0  0  0  0  0
  -23.9745   -7.1730   19.4026 C   0  0  0  0  0  0  0  0  0  0  0  0
  -23.3376   -6.1720   20.1361 C   0  0  0  0  0  0  0  0  0  0  0  0
  -21.5545  -19.7355   24.1250 C   0  0  0  0  0  0  0  0  0  0  0  0
  -22.1714  -28.8593   21.9405 C   0  0  0  0  0  0  0  0  0  0  0  0
  -21.3725   -7.5641   20.3295 C   0  0  0  0  0  0  0  0  0  0  0  0
  -24.4794  -13.0523   20.2269 C   0  0  0  0  0  0  0  0  0  0  0  0
  -24.0306  -14.8065   22.0238 C   0  0  0  0  0  0  0  0  0  0  0  0
  -29.2715  -25.2543   19.1860 C   0  0  0  0  0  0  0  0  0  0  0  0
  -23.9286  -29.0510   20.2867 C   0  0  0  0  0  0  0  0  0  0  0  0
  -28.0797  -25.5345   19.8813 C   0  0  0  0  0  0  0  0  0  0  0  0
  -21.3615  -20.9550   23.4758 C   0  0  0  0  0  0  0  0  0  0  0  0
  -23.4480  -29.3147   21.5773 C   0  0  0  0  0  0  0  0  0  0  0  0
  -20.6089  -19.2761   25.0417 C   0  0  0  0  0  0  0  0  0  0  0  0
  -20.2228  -21.7150   23.7434 C   0  0  0  0  0  0  0  0  0  0  0  0
  -24.1193  -10.5720   19.0017 C   0  0  0  0  0  0  0  0  0  0  0  0
  -21.3788  -28.1625   21.0287 C   0  0  0  0  0  0  0  0  0  0  0  0
  -23.3104   -8.3696   19.1326 C   0  0  0  0  0  0  0  0  0  0  0  0
  -22.0366   -6.3675   20.5995 C   0  0  0  0  0  0  0  0  0  0  0  0
  -22.0094   -8.5651   19.5960 C   0  0  0  0  0  0  0  0  0  0  0  0
  -24.6647  -14.3336   20.8593 C   0  0  0  0  0  0  0  0  0  0  0  0
  -24.5444  -16.0671   22.2068 C   0  0  0  0  0  0  0  0  0  0  0  0
  -23.0636  -14.1638   22.8649 C   0  0  0  0  0  0  0  0  0  0  0  0
  -26.7627  -28.5155   21.6227 C   0  0  0  0  0  0  0  0  0  0  0  0
  -26.3322  -31.5034   22.8099 C   0  0  0  0  0  0  0  0  0  0  0  0
  -24.1631  -33.9887   23.6846 C   0  0  0  0  0  0  0  0  0  0  0  0
  -26.1395  -20.9730   20.3897 C   0  0  0  0  0  0  0  0  0  0  0  0
  -30.6026  -25.7965   19.6428 C   0  0  0  0  0  0  0  0  0  0  0  0
  -25.2831  -29.5483   19.8620 C   0  0  0  0  0  0  0  0  0  0  0  0
  -24.2689  -30.0680   22.5907 C   0  0  0  0  0  0  0  0  0  0  0  0
  -30.4823  -26.9772   20.6029 C   0  0  0  0  0  0  0  0  0  0  0  0
  -28.4256  -18.4121   19.9811 C   0  0  0  0  0  0  0  0  0  0  0  0
  -29.4489  -26.6818   21.6854 C   0  0  0  0  0  0  0  0  0  0  0  0
  -27.6105  -17.1507   20.2666 C   0  0  0  0  0  0  0  0  0  0  0  0
  -23.7732  -21.6600   23.1508 C   0  0  0  0  0  0  0  0  0  0  0  0
  -22.5420  -20.4720   21.2871 C   0  0  0  0  0  0  0  0  0  0  0  0
  -18.9804  -24.1628   21.2236 C   0  0  0  0  0  0  0  0  0  0  0  0
  -20.7197  -25.2595   22.6501 C   0  0  0  0  0  0  0  0  0  0  0  0
  -27.6174  -19.4109   19.1604 C   0  0  0  0  0  0  0  0  0  0  0  0
  -24.8220  -22.1131   22.1380 C   0  0  0  0  0  0  0  0  0  0  0  0
  -23.6167  -20.9530   20.3166 C   0  0  0  0  0  0  0  0  0  0  0  0
  -18.8005  -23.0769   22.2826 C   0  0  0  0  0  0  0  0  0  0  0  0
  -20.5411  -24.1687   23.7052 C   0  0  0  0  0  0  0  0  0  0  0  0
  -25.4915  -18.5429   20.0777 C   0  0  0  0  0  0  0  0  0  0  0  0
  -22.4062  -21.4303   22.4835 C   0  0  0  0  0  0  0  0  0  0  0  0
  -28.0588  -26.4632   21.0760 C   0  0  1  0  0  0  0  0  0  0  0  0
  -26.2260  -29.7907   21.0365 C   0  0  1  0  0  0  0  0  0  0  0  0
  -19.4394  -25.4856   21.8424 C   0  0  0  0  0  0  0  0  0  0  0  0
  -26.2599  -17.5013   20.9155 C   0  0  1  0  0  0  0  0  0  0  0  0
  -20.8148  -17.9724   25.7360 C   0  0  0  0  0  0  0  0  0  0  0  0
  -24.1052  -36.2991   24.6623 C   0  0  0  0  0  0  0  0  0  0  0  0
  -18.3663  -26.8506   20.0227 C   0  0  0  0  0  0  0  0  0  0  0  0
  -26.8458  -30.3399   25.5835 C   0  0  0  0  0  0  0  0  0  0  0  0
  -25.8573  -32.4211   26.5632 C   0  0  0  0  0  0  0  0  0  0  0  0
  -27.9205  -32.5596   25.1679 C   0  0  0  0  0  0  0  0  0  0  0  0
  -22.9274  -35.1164   21.2432 C   0  0  0  0  0  0  0  0  0  0  0  0
  -25.7018  -32.0783   24.0553 C   0  0  1  0  0  0  0  0  0  0  0  0
  -24.1622  -35.4767   23.3843 C   0  0  2  0  0  0  0  0  0  0  0  0
  -19.6559  -26.5446   20.7640 C   0  0  1  0  0  0  0  0  0  1  0  0
  -26.5664  -31.8338   25.3242 C   0  0  0  0  0  0  0  0  0  0  0  0
  -25.5162  -15.2215   20.3391 N   0  0  0  0  0  0  0  0  0  0  0  0
  -25.4206  -16.2650   21.1806 N   0  0  0  0  0  0  0  0  0  0  0  0
  -20.0126  -22.9418   23.1010 N   0  0  0  0  0  0  0  0  0  0  0  0
  -25.5892  -30.5282   22.1296 N   0  0  0  0  0  0  0  0  0  0  0  0
  -26.3402  -19.7126   19.8065 N   0  0  0  0  0  0  0  0  0  0  0  0
  -24.8943  -21.1981   20.9995 N   0  0  0  0  0  0  0  0  0  0  0  0
  -24.3275  -17.0144   23.1438 N   0  0  0  0  0  0  0  0  0  0  0  0
  -21.7039  -14.3343   22.5709 N   0  0  0  0  0  0  0  0  0  0  0  0
  -27.4572  -27.7308   20.7218 N   0  0  0  0  0  0  0  0  0  0  0  0
  -25.4441  -33.4857   23.7699 N   0  0  0  0  0  0  0  0  0  0  0  0
  -22.9857  -35.8345   22.5424 N   0  3  0  0  0  0  0  0  0  0  0  0
  -23.3950  -13.4725   23.8578 O   0  0  0  0  0  0  0  0  0  0  0  0
  -26.5630  -28.2629   22.8050 O   0  0  0  0  0  0  0  0  0  0  0  0
  -27.4398  -31.9098   22.4499 O   0  0  0  0  0  0  0  0  0  0  0  0
  -23.1307  -33.3384   23.8326 O   0  0  0  0  0  0  0  0  0  0  0  0
  -27.0187  -21.8433   20.3731 O   0  0  0  0  0  0  0  0  0  0  0  0
  -23.9437   -9.3621   18.4036 O   0  0  0  0  0  0  0  0  0  0  0  0
  -20.1333  -27.7252   21.3968 O   0  0  0  0  0  0  0  0  0  1  0  0
  -21.4246   -5.4056   21.3026 F   0  0  0  0  0  0  0  0  0  0  0  0
  -21.3658   -9.7120   19.3388 F   0  0  0  0  0  0  0  0  0  0  0  0
  1  2  1  0  0  0  0
  1  5  2  0  0  0  0
  2  6  2  0  0  0  0
  3 10  2  0  0  0  0
  3 18  1  0  0  0  0
  4 11  1  0  0  0  0
  4 18  2  0  0  0  0
  5 20  1  0  0  0  0
  6 22  1  0  0  0  0
  7 12  2  0  0  0  0
  7 21  1  0  0  0  0
  8  9  2  0  0  0  0
  8 25  1  0  0  0  0
  9 26  1  0  0  0  0
 10 27  1  0  0  0  0
 11 27  2  0  0  0  0
 12 28  1  0  0  0  0
 13 14  2  0  0  0  0
 13 29  1  0  0  0  0
 14 30  1  0  0  0  0
 15 23  1  0  0  0  0
 15 25  2  0  0  0  0
 16 24  1  0  0  0  0
 16 28  2  0  0  0  0
 17 30  2  0  0  0  0
 17 31  1  0  0  0  0
 18 32  1  0  0  0  0
 19 32  1  0  0  0  0
 19 33  2  0  0  0  0
 19 34  1  0  0  0  0
 20 22  2  0  0  0  0
 20 39  1  0  0  0  0
 21 24  2  0  0  0  0
 21 40  1  0  0  0  0
 22 57  1  0  0  0  0
 23 26  2  0  0  0  0
 23 56  1  0  0  0  0
 24 41  1  0  0  0  0
 25 61  1  0  0  0  0
 26 74  1  0  0  0  0
 27 88  1  0  0  0  0
 28 89  1  0  0  0  0
 29 31  2  0  0  0  0
 29 88  1  0  0  0  0
 30 90  1  0  0  0  0
 31 91  1  0  0  0  0
 32 72  2  0  0  0  0
 33 73  1  0  0  0  0
 33 78  1  0  0  0  0
 34 79  1  0  0  0  0
 34 83  2  0  0  0  0
 35 58  1  0  0  0  0
 35 80  1  0  0  0  0
 35 84  2  0  0  0  0
 36 68  1  0  0  0  0
 36 75  1  0  0  0  0
 36 85  2  0  0  0  0
 37 69  1  0  0  0  0
 37 81  1  0  0  0  0
 37 86  2  0  0  0  0
 38 76  1  0  0  0  0
 38 77  1  0  0  0  0
 38 87  2  0  0  0  0
 39 42  1  0  0  0  0
 40 58  1  0  0  0  0
 41 75  1  0  0  0  0
 42 44  1  0  0  0  0
 43 45  1  0  0  0  0
 43 50  1  0  0  0  0
 44 57  1  0  0  0  0
 45 60  1  0  0  0  0
 46 51  1  0  0  0  0
 46 56  1  0  0  0  0
 47 52  1  0  0  0  0
 47 56  1  0  0  0  0
 48 53  1  0  0  0  0
 48 59  1  0  0  0  0
 49 54  1  0  0  0  0
 49 59  1  0  0  0  0
 50 76  1  0  0  0  0
 51 77  1  0  0  0  0
 52 77  1  0  0  0  0
 53 74  1  0  0  0  0
 54 74  1  0  0  0  0
 55 60  1  0  0  0  0
 55 76  1  0  0  0  0
 57 80  1  0  0  0  0
 58 75  1  0  0  0  0
 59 70  1  0  0  0  0
 60 73  1  0  0  0  0
 62 69  1  0  0  0  0
 63 70  1  0  0  0  0
 64 71  1  0  0  0  0
 65 71  1  0  0  0  0
 66 71  1  0  0  0  0
 67 82  1  0  0  0  0
 68 71  1  0  0  0  0
 68 81  1  0  0  0  0
 69 82  1  0  0  0  0
 70 89  1  0  0  0  0
 72 73  1  0  0  0  0
M  CHG  1  82   1
M  ISO  4  38 100  70 101  77 100  89 101
M  END
> <Batch ID>
0155

> <Smiles>
CNC(C)C(=O)NC(C(=O)N1Cc2cc([101O:1][101CH:1](C)C3CCN(c4ccc(C)cc4C4CC[100N:0]([100C:0](=O)N5CCCC(n6nc(-c7ccc(Oc8ccc(F)cc8F)cc7)c(C(N)=O)c6N)C5)CC4)CC3)ccc2CC1C(=O)NC1CCCc2ccccc21)C(C)(C)C

> <Shape>
0.269

> <Color>
0.070

> <Negative vol penalty>
0.000

$$$$

  -OEChem-04052321543D

 84 93  0     1  0  0  0  0  0999 V2000
  -29.9779  -32.6345   25.4211 C   0  0  0  0  0  0  0  0  0  0  0  0
  -29.5962  -31.4173   24.8658 C   0  0  0  0  0  0  0  0  0  0  0  0
  -25.5409   -9.8158   22.8568 C   0  0  0  0  0  0  0  0  0  0  0  0
  -23.3413   -9.9880   21.8724 C   0  0  0  0  0  0  0  0  0  0  0  0
  -29.0070  -33.5438   25.8388 C   0  0  0  0  0  0  0  0  0  0  0  0
  -28.2434  -31.1083   24.7290 C   0  0  0  0  0  0  0  0  0  0  0  0
  -27.1541  -29.1143   20.2033 C   0  0  0  0  0  0  0  0  0  0  0  0
  -25.0611   -8.8710   23.7637 C   0  0  0  0  0  0  0  0  0  0  0  0
  -22.8615   -9.0430   22.7793 C   0  0  0  0  0  0  0  0  0  0  0  0
  -27.4734  -27.7716   20.0055 C   0  0  0  0  0  0  0  0  0  0  0  0
  -22.9259   -5.6837   23.1418 C   0  0  0  0  0  0  0  0  0  0  0  0
  -22.1093   -4.6676   22.6455 C   0  0  0  0  0  0  0  0  0  0  0  0
  -28.2851  -22.8411   20.4866 C   0  0  0  0  0  0  0  0  0  0  0  0
  -25.1726  -27.1710   20.4116 C   0  0  0  0  0  0  0  0  0  0  0  0
  -28.4404  -23.2071   18.1064 C   0  0  0  0  0  0  0  0  0  0  0  0
  -20.3233   -5.3913   24.1027 C   0  0  0  0  0  0  0  0  0  0  0  0
  -24.6810  -10.3744   21.9111 C   0  0  0  0  0  0  0  0  0  0  0  0
  -25.7260  -11.1058   19.7019 C   0  0  0  0  0  0  0  0  0  0  0  0
  -27.6416  -33.2498   25.6981 C   0  0  0  0  0  0  0  0  0  0  0  0
  -25.8417  -29.4950   20.5179 C   0  0  0  0  0  0  0  0  0  0  0  0
  -27.2533  -32.0140   25.1465 C   0  0  0  0  0  0  0  0  0  0  0  0
  -28.4263  -21.4592   20.2962 C   0  0  0  0  0  0  0  0  0  0  0  0
  -24.8388  -28.5194   20.6104 C   0  0  0  0  0  0  0  0  0  0  0  0
  -28.5531  -20.9481   18.9923 C   0  0  0  0  0  0  0  0  0  0  0  0
  -28.2953  -23.7105   19.3964 C   0  0  0  0  0  0  0  0  0  0  0  0
  -28.5702  -21.8333   17.9047 C   0  0  0  0  0  0  0  0  0  0  0  0
  -23.7214   -8.4845   23.7250 C   0  0  0  0  0  0  0  0  0  0  0  0
  -26.4832  -26.7994   20.1126 C   0  0  0  0  0  0  0  0  0  0  0  0
  -22.4412   -6.5536   24.1186 C   0  0  0  0  0  0  0  0  0  0  0  0
  -20.8080   -4.5214   23.1259 C   0  0  0  0  0  0  0  0  0  0  0  0
  -21.1399   -6.4074   24.5990 C   0  0  0  0  0  0  0  0  0  0  0  0
  -25.1759  -11.3509   20.9743 C   0  0  0  0  0  0  0  0  0  0  0  0
  -26.0394  -12.3522   19.2174 C   0  0  0  0  0  0  0  0  0  0  0  0
  -25.9349   -9.8626   19.0189 C   0  0  0  0  0  0  0  0  0  0  0  0
  -24.4542  -30.9293   22.9921 C   0  0  0  0  0  0  0  0  0  0  0  0
  -21.8389  -30.8460   21.0749 C   0  0  0  0  0  0  0  0  0  0  0  0
  -20.2081  -29.3775   18.4613 C   0  0  0  0  0  0  0  0  0  0  0  0
  -28.1237  -17.2831   19.7055 C   0  0  0  0  0  0  0  0  0  0  0  0
  -26.6287  -34.2444   26.2077 C   0  0  0  0  0  0  0  0  0  0  0  0
  -25.5082  -30.9501   20.7019 C   0  0  0  0  0  0  0  0  0  0  0  0
  -28.3853  -20.5375   21.4878 C   0  0  0  0  0  0  0  0  0  0  0  0
  -23.4104  -28.8779   20.9261 C   0  0  0  0  0  0  0  0  0  0  0  0
  -28.7123  -19.4712   18.7397 C   0  0  0  0  0  0  0  0  0  0  0  0
  -25.2163  -33.9981   25.6835 C   0  0  0  0  0  0  0  0  0  0  0  0
  -24.8366  -16.9539   20.9149 C   0  0  0  0  0  0  0  0  0  0  0  0
  -24.8532  -32.5212   25.8008 C   0  0  0  0  0  0  0  0  0  0  0  0
  -24.6727  -15.4348   20.9401 C   0  0  0  0  0  0  0  0  0  0  0  0
  -28.9589  -19.1589   21.1778 C   0  0  0  0  0  0  0  0  0  0  0  0
  -26.2268  -17.3884   21.3818 C   0  0  0  0  0  0  0  0  0  0  0  0
  -27.1724  -15.2139   20.6784 C   0  0  0  0  0  0  0  0  0  0  0  0
  -25.7958  -31.6529   24.9587 C   0  0  1  0  0  0  0  0  0  0  0  0
  -24.2431  -31.1737   21.5246 C   0  0  1  0  0  0  0  0  0  0  0  0
  -25.8047  -14.7449   20.1586 C   0  0  1  0  0  0  0  0  0  0  0  0
  -29.9995  -21.8740   15.8286 C   0  0  0  0  0  0  0  0  0  0  0  0
  -27.4950  -21.6661   15.6307 C   0  0  0  0  0  0  0  0  0  0  0  0
  -18.0714  -29.5037   17.1515 C   0  0  0  0  0  0  0  0  0  0  0  0
  -20.3554  -29.4868   23.3687 C   0  0  0  0  0  0  0  0  0  0  0  0
  -18.5948  -28.7957   21.7282 C   0  0  0  0  0  0  0  0  0  0  0  0
  -19.0260  -31.2169   22.1464 C   0  0  0  0  0  0  0  0  0  0  0  0
  -21.6494  -29.9737   15.9461 C   0  0  0  0  0  0  0  0  0  0  0  0
  -28.1504  -25.1788   19.6127 C   0  0  0  0  0  0  0  0  0  1  0  0
  -28.7220  -21.3406   16.5004 C   0  0  0  0  0  0  0  0  0  0  0  0
  -20.7162  -29.8645   20.8402 C   0  0  1  0  0  0  0  0  0  0  0  0
  -19.5165  -29.9680   17.2458 C   0  0  2  0  0  0  0  0  0  0  0  0
  -19.7003  -29.8337   22.0168 C   0  0  0  0  0  0  0  0  0  0  0  0
  -25.1407  -12.6509   21.2791 N   0  0  0  0  0  0  0  0  0  0  0  0
  -25.6726  -13.2337   20.1913 N   0  0  0  0  0  0  0  0  0  0  0  0
  -23.1355  -30.3133   21.1035 N   0  0  0  0  0  0  0  0  0  0  0  0
  -28.4337  -18.6386   19.9107 N   0  0  0  0  0  0  0  0  0  0  0  0
  -27.2737  -16.6745   20.6398 N   0  0  0  0  0  0  0  0  0  0  0  0
  -26.5903  -12.7691   18.0576 N   0  0  0  0  0  0  0  0  0  0  0  0
  -25.5556   -8.6757   19.6606 N   0  0  0  0  0  0  0  0  0  0  0  0
  -25.4327  -31.7231   23.5595 N   0  0  0  0  0  0  0  0  0  0  0  0
  -20.1284  -30.2169   19.5523 N   0  0  0  0  0  0  0  0  0  0  0  0
  -20.2234  -29.5606   15.9988 N   0  3  0  0  0  0  0  0  0  0  0  0
  -26.4579   -9.8047   17.8802 O   0  0  0  0  0  0  0  0  0  0  0  0
  -23.7784  -30.0843   23.5672 O   0  0  0  0  0  0  0  0  0  0  0  0
  -21.5758  -32.0424   21.2201 O   0  0  0  0  0  0  0  0  0  0  0  0
  -20.7604  -28.2797   18.4457 O   0  0  0  0  0  0  0  0  0  0  0  0
  -28.5836  -16.6555   18.7430 O   0  0  0  0  0  0  0  0  0  0  0  0
  -23.2529   -7.5624   24.6097 O   0  0  0  0  0  0  0  0  0  0  0  0
  -26.7944  -25.4791   19.9194 O   0  0  0  0  0  0  0  0  0  1  0  0
  -20.0234   -3.5465   22.6481 F   0  0  0  0  0  0  0  0  0  0  0  0
  -20.6683   -7.2407   25.5365 F   0  0  0  0  0  0  0  0  0  0  0  0
  1  2  1  0  0  0  0
  1  5  2  0  0  0  0
  2  6  2  0  0  0  0
  3  8  2  0  0  0  0
  3 17  1  0  0  0  0
  4  9  1  0  0  0  0
  4 17  2  0  0  0  0
  5 19  1  0  0  0  0
  6 21  1  0  0  0  0
  7 10  2  0  0  0  0
  7 20  1  0  0  0  0
  8 27  1  0  0  0  0
  9 27  2  0  0  0  0
 10 28  1  0  0  0  0
 11 12  2  0  0  0  0
 11 29  1  0  0  0  0
 12 30  1  0  0  0  0
 13 22  2  0  0  0  0
 13 25  1  0  0  0  0
 14 23  1  0  0  0  0
 14 28  2  0  0  0  0
 15 25  2  0  0  0  0
 15 26  1  0  0  0  0
 16 30  2  0  0  0  0
 16 31  1  0  0  0  0
 17 32  1  0  0  0  0
 18 32  1  0  0  0  0
 18 33  2  0  0  0  0
 18 34  1  0  0  0  0
 19 21  2  0  0  0  0
 19 39  1  0  0  0  0
 20 23  2  0  0  0  0
 20 40  1  0  0  0  0
 21 51  1  0  0  0  0
 22 24  1  0  0  0  0
 22 41  1  0  0  0  0
 23 42  1  0  0  0  0
 24 26  2  0  0  0  0
 24 43  1  0  0  0  0
 25 61  1  0  0  0  0
 26 62  1  0  0  0  0
 27 81  1  0  0  0  0
 28 82  1  0  0  0  0
 29 31  2  0  0  0  0
 29 81  1  0  0  0  0
 30 83  1  0  0  0  0
 31 84  1  0  0  0  0
 32 66  2  0  0  0  0
 33 67  1  0  0  0  0
 33 71  1  0  0  0  0
 34 72  1  0  0  0  0
 34 76  2  0  0  0  0
 35 52  1  0  0  0  0
 35 73  1  0  0  0  0
 35 77  2  0  0  0  0
 36 63  1  0  0  0  0
 36 68  1  0  0  0  0
 36 78  2  0  0  0  0
 37 64  1  0  0  0  0
 37 74  1  0  0  0  0
 37 79  2  0  0  0  0
 38 69  1  0  0  0  0
 38 70  1  0  0  0  0
 38 80  2  0  0  0  0
 39 44  1  0  0  0  0
 40 52  1  0  0  0  0
 41 48  1  0  0  0  0
 42 68  1  0  0  0  0
 43 69  1  0  0  0  0
 44 46  1  0  0  0  0
 45 47  1  0  0  0  0
 45 49  1  0  0  0  0
 46 51  1  0  0  0  0
 47 53  1  0  0  0  0
 48 69  1  0  0  0  0
 49 70  1  0  0  0  0
 50 53  1  0  0  0  0
 50 70  1  0  0  0  0
 51 73  1  0  0  0  0
 52 68  1  0  0  0  0
 53 67  1  0  0  0  0
 54 62  1  0  0  0  0
 55 62  1  0  0  0  0
 56 64  1  0  0  0  0
 57 65  1  0  0  0  0
 58 65  1  0  0  0  0
 59 65  1  0  0  0  0
 60 75  1  0  0  0  0
 61 82  1  0  0  0  0
 63 65  1  0  0  0  0
 63 74  1  0  0  0  0
 64 75  1  0  0  0  0
 66 67  1  0  0  0  0
M  CHG  1  75   1
M  ISO  4  38 100  61 101  69 100  82 101
M  END
> <Batch ID>
0155

> <Smiles>
CNC(C)C(=O)NC(C(=O)N1Cc2cc([101O:1][101CH2:1]c3cc4c(c(C(C)C)c3)C[100N:0]([100C:0](=O)N3CCCC(n5nc(-c6ccc(Oc7ccc(F)cc7F)cc6)c(C(N)=O)c5N)C3)CC4)ccc2CC1C(=O)NC1CCCc2ccccc21)C(C)(C)C

> <Shape>
0.306

> <Color>
0.072

> <Negative vol penalty>
0.000

$$$$

  -OEChem-04052321543D

 94104  0     1  0  0  0  0  0999 V2000
  -17.9165  -21.3126   20.1909 C   0  0  0  0  0  0  0  0  0  0  0  0
  -18.7064  -22.3284   19.6620 C   0  0  0  0  0  0  0  0  0  0  0  0
  -22.8551  -12.6578   19.6256 C   0  0  0  0  0  0  0  0  0  0  0  0
  -24.8666  -11.6440   20.4993 C   0  0  0  0  0  0  0  0  0  0  0  0
  -17.1263  -21.5581   21.3130 C   0  0  0  0  0  0  0  0  0  0  0  0
  -18.7056  -23.5907   20.2545 C   0  0  0  0  0  0  0  0  0  0  0  0
  -23.3679  -25.5016   20.7614 C   0  0  0  0  0  0  0  0  0  0  0  0
  -33.4596  -24.7291   15.6436 C   0  0  0  0  0  0  0  0  0  0  0  0
  -22.4141  -11.4080   19.1907 C   0  0  0  0  0  0  0  0  0  0  0  0
  -24.4255  -10.3942   20.0644 C   0  0  0  0  0  0  0  0  0  0  0  0
  -23.9608  -26.0445   19.6223 C   0  0  0  0  0  0  0  0  0  0  0  0
  -32.4965  -23.8528   16.1436 C   0  0  0  0  0  0  0  0  0  0  0  0
  -23.6640   -6.8835   19.5045 C   0  0  0  0  0  0  0  0  0  0  0  0
  -23.7895   -5.8085   20.3843 C   0  0  0  0  0  0  0  0  0  0  0  0
  -23.3715  -28.2583   20.3780 C   0  0  0  0  0  0  0  0  0  0  0  0
  -32.7097  -26.4325   17.1841 C   0  0  0  0  0  0  0  0  0  0  0  0
  -22.3738   -6.9468   21.9772 C   0  0  0  0  0  0  0  0  0  0  0  0
  -24.0814  -12.7758   20.2799 C   0  0  0  0  0  0  0  0  0  0  0  0
  -23.8980  -14.9232   21.6447 C   0  0  0  0  0  0  0  0  0  0  0  0
  -17.1232  -22.8214   21.9253 C   0  0  0  0  0  0  0  0  0  0  0  0
  -22.7617  -26.3336   21.7136 C   0  0  0  0  0  0  0  0  0  0  0  0
  -17.9136  -23.8538   21.3851 C   0  0  0  0  0  0  0  0  0  0  0  0
  -22.7738  -27.7236   21.5296 C   0  0  0  0  0  0  0  0  0  0  0  0
  -33.5662  -26.0190   16.1639 C   0  0  0  0  0  0  0  0  0  0  0  0
  -31.7465  -25.5561   17.6842 C   0  0  0  0  0  0  0  0  0  0  0  0
  -23.1993  -10.2762   19.4101 C   0  0  0  0  0  0  0  0  0  0  0  0
  -23.9602  -27.4228   19.4291 C   0  0  0  0  0  0  0  0  0  0  0  0
  -31.6399  -24.2663   17.1639 C   0  0  0  0  0  0  0  0  0  0  0  0
  -22.8934   -7.9903   19.8610 C   0  0  0  0  0  0  0  0  0  0  0  0
  -23.1444   -5.8401   21.6207 C   0  0  0  0  0  0  0  0  0  0  0  0
  -22.2483   -8.0219   21.0974 C   0  0  0  0  0  0  0  0  0  0  0  0
  -24.5377  -14.0666   20.7288 C   0  0  0  0  0  0  0  0  0  0  0  0
  -24.7283  -16.0137   21.7326 C   0  0  0  0  0  0  0  0  0  0  0  0
  -22.6635  -14.7486   22.3528 C   0  0  0  0  0  0  0  0  0  0  0  0
  -19.8105  -26.6682   22.8459 C   0  0  0  0  0  0  0  0  0  0  0  0
  -21.2459  -28.7434   24.8843 C   0  0  0  0  0  0  0  0  0  0  0  0
  -23.7741  -31.3095   24.6819 C   0  0  0  0  0  0  0  0  0  0  0  0
  -27.8448  -19.8332   19.6084 C   0  0  0  0  0  0  0  0  0  0  0  0
  -16.2166  -23.0525   23.1081 C   0  0  0  0  0  0  0  0  0  0  0  0
  -22.1499  -25.7343   22.9501 C   0  0  0  0  0  0  0  0  0  0  0  0
  -22.1543  -28.6617   22.5319 C   0  0  0  0  0  0  0  0  0  0  0  0
  -16.5585  -24.3115   23.9008 C   0  0  0  0  0  0  0  0  0  0  0  0
  -29.4309  -16.7306   20.0331 C   0  0  0  0  0  0  0  0  0  0  0  0
  -16.7799  -25.4913   22.9595 C   0  0  0  0  0  0  0  0  0  0  0  0
  -28.2400  -15.8189   20.3283 C   0  0  0  0  0  0  0  0  0  0  0  0
  -30.7847  -22.0913   19.6831 C   0  0  0  0  0  0  0  0  0  0  0  0
  -30.6551  -20.9815   17.4113 C   0  0  0  0  0  0  0  0  0  0  0  0
  -29.0741  -27.6554   19.5115 C   0  0  0  0  0  0  0  0  0  0  0  0
  -29.1075  -26.8212   17.1349 C   0  0  0  0  0  0  0  0  0  0  0  0
  -29.1157  -17.7473   18.9347 C   0  0  0  0  0  0  0  0  0  0  0  0
  -29.2957  -21.8096   19.8783 C   0  0  0  0  0  0  0  0  0  0  0  0
  -29.1693  -20.7288   17.6567 C   0  0  0  0  0  0  0  0  0  0  0  0
  -26.7068  -17.6365   19.4836 C   0  0  0  0  0  0  0  0  0  0  0  0
  -28.1474  -28.7890   19.0937 C   0  0  0  0  0  0  0  0  0  0  0  0
  -28.1809  -27.9593   16.7293 C   0  0  0  0  0  0  0  0  0  0  0  0
  -17.9587  -25.2293   22.0144 C   0  0  1  0  0  0  0  0  0  0  0  0
  -21.1092  -26.6401   23.6010 C   0  0  1  0  0  0  0  0  0  0  0  0
  -29.9633  -27.1916   18.3519 C   0  0  0  0  0  0  0  0  0  0  0  0
  -26.9739  -16.6422   20.6244 C   0  0  1  0  0  0  0  0  0  0  0  0
  -31.1806  -22.1764   18.2086 C   0  0  0  0  0  0  0  0  0  0  0  0
  -34.5971  -26.9549   15.6298 C   0  0  0  0  0  0  0  0  0  0  0  0
  -31.6036  -26.3699   20.0657 C   0  0  0  0  0  0  0  0  0  0  0  0
  -25.3516  -32.1867   26.4253 C   0  0  0  0  0  0  0  0  0  0  0  0
  -19.0974  -30.8597   25.3481 C   0  0  0  0  0  0  0  0  0  0  0  0
  -20.9230  -32.5423   25.6709 C   0  0  0  0  0  0  0  0  0  0  0  0
  -20.7293  -30.6010   27.2254 C   0  0  0  0  0  0  0  0  0  0  0  0
  -26.1371  -30.7578   22.9877 C   0  0  0  0  0  0  0  0  0  0  0  0
  -26.3028  -29.3907   17.5285 C   0  0  0  0  0  0  0  0  0  0  0  0
  -25.0963  -29.2617   18.4373 C   0  0  0  0  0  0  0  0  0  1  0  0
  -30.8387  -26.0149   18.7774 C   0  0  2  0  0  0  0  0  0  0  0  0
  -21.5521  -30.2216   24.8651 C   0  0  1  0  0  0  0  0  0  0  0  0
  -25.1827  -31.2438   25.2441 C   0  0  2  0  0  0  0  0  0  0  0  0
  -20.5739  -31.0410   25.7533 C   0  0  0  0  0  0  0  0  0  0  0  0
  -25.6859  -14.5698   20.2677 N   0  0  0  0  0  0  0  0  0  0  0  0
  -25.7740  -15.7544   20.8963 N   0  0  0  0  0  0  0  0  0  0  0  0
  -21.5631  -28.0270   23.7215 N   0  0  0  0  0  0  0  0  0  0  0  0
  -27.8797  -18.4793   19.2421 N   0  0  0  0  0  0  0  0  0  0  0  0
  -28.8583  -20.6574   19.0908 N   0  0  0  0  0  0  0  0  0  0  0  0
  -24.6586  -17.1596   22.4428 N   0  0  0  0  0  0  0  0  0  0  0  0
  -21.9358  -13.5688   22.1460 N   0  0  0  0  0  0  0  0  0  0  0  0
  -19.2146  -25.4294   22.7052 N   0  0  0  0  0  0  0  0  0  0  0  0
  -22.9550  -30.3528   25.2432 N   0  0  0  0  0  0  0  0  0  0  0  0
  -27.3228  -28.3524   17.9072 N   0  3  0  0  0  0  0  0  0  0  0  0
  -26.1759  -31.6183   24.1980 N   0  3  0  0  0  0  0  0  0  0  0  0
  -22.2109  -15.6204   23.1329 O   0  0  0  0  0  0  0  0  0  0  0  0
  -19.3801  -27.7350   22.4235 O   0  0  0  0  0  0  0  0  0  0  0  0
  -20.7504  -28.2416   25.8963 O   0  0  0  0  0  0  0  0  0  0  0  0
  -23.4334  -32.1301   23.8327 O   0  0  0  0  0  0  0  0  0  0  0  0
  -26.9652  -20.2802   20.3551 O   0  0  0  0  0  0  0  0  0  0  0  0
  -22.7691   -9.0565   18.9861 O   0  0  0  0  0  0  0  0  0  0  0  0
  -30.6987  -23.3930   17.6420 O   0  0  0  0  0  0  0  0  0  0  0  0
  -24.5418  -27.9591   18.3099 O   0  0  0  0  0  0  0  0  0  1  0  0
  -23.2638   -4.8070   22.4648 F   0  0  0  0  0  0  0  0  0  0  0  0
  -21.5057   -9.0819   21.4449 F   0  0  0  0  0  0  0  0  0  0  0  0
  1  2  1  0  0  0  0
  1  5  2  0  0  0  0
  2  6  2  0  0  0  0
  3  9  2  0  0  0  0
  3 18  1  0  0  0  0
  4 10  1  0  0  0  0
  4 18  2  0  0  0  0
  5 20  1  0  0  0  0
  6 22  1  0  0  0  0
  7 11  2  0  0  0  0
  7 21  1  0  0  0  0
  8 12  2  0  0  0  0
  8 24  1  0  0  0  0
  9 26  1  0  0  0  0
 10 26  2  0  0  0  0
 11 27  1  0  0  0  0
 12 28  1  0  0  0  0
 13 14  2  0  0  0  0
 13 29  1  0  0  0  0
 14 30  1  0  0  0  0
 15 23  1  0  0  0  0
 15 27  2  0  0  0  0
 16 24  2  0  0  0  0
 16 25  1  0  0  0  0
 17 30  2  0  0  0  0
 17 31  1  0  0  0  0
 18 32  1  0  0  0  0
 19 32  1  0  0  0  0
 19 33  2  0  0  0  0
 19 34  1  0  0  0  0
 20 22  2  0  0  0  0
 20 39  1  0  0  0  0
 21 23  2  0  0  0  0
 21 40  1  0  0  0  0
 22 56  1  0  0  0  0
 23 41  1  0  0  0  0
 24 61  1  0  0  0  0
 25 28  2  0  0  0  0
 25 70  1  0  0  0  0
 26 90  1  0  0  0  0
 27 92  1  0  0  0  0
 28 91  1  0  0  0  0
 29 31  2  0  0  0  0
 29 90  1  0  0  0  0
 30 93  1  0  0  0  0
 31 94  1  0  0  0  0
 32 74  2  0  0  0  0
 33 75  1  0  0  0  0
 33 79  1  0  0  0  0
 34 80  1  0  0  0  0
 34 85  2  0  0  0  0
 35 57  1  0  0  0  0
 35 81  1  0  0  0  0
 35 86  2  0  0  0  0
 36 71  1  0  0  0  0
 36 76  1  0  0  0  0
 36 87  2  0  0  0  0
 37 72  1  0  0  0  0
 37 82  1  0  0  0  0
 37 88  2  0  0  0  0
 38 77  1  0  0  0  0
 38 78  1  0  0  0  0
 38 89  2  0  0  0  0
 39 42  1  0  0  0  0
 40 57  1  0  0  0  0
 41 76  1  0  0  0  0
 42 44  1  0  0  0  0
 43 45  1  0  0  0  0
 43 50  1  0  0  0  0
 44 56  1  0  0  0  0
 45 59  1  0  0  0  0
 46 51  1  0  0  0  0
 46 60  1  0  0  0  0
 47 52  1  0  0  0  0
 47 60  1  0  0  0  0
 48 54  1  0  0  0  0
 48 58  1  0  0  0  0
 49 55  1  0  0  0  0
 49 58  1  0  0  0  0
 50 77  1  0  0  0  0
 51 78  1  0  0  0  0
 52 78  1  0  0  0  0
 53 59  1  0  0  0  0
 53 77  1  0  0  0  0
 54 83  1  0  0  0  0
 55 83  1  0  0  0  0
 56 81  1  0  0  0  0
 57 76  1  0  0  0  0
 58 70  1  0  0  0  0
 59 75  1  0  0  0  0
 60 91  1  0  0  0  0
 62 70  1  0  0  0  0
 63 72  1  0  0  0  0
 64 73  1  0  0  0  0
 65 73  1  0  0  0  0
 66 73  1  0  0  0  0
 67 84  1  0  0  0  0
 68 69  1  0  0  0  0
 68 83  1  0  0  0  0
 69 92  1  0  0  0  0
 71 73  1  0  0  0  0
 71 82  1  0  0  0  0
 72 84  1  0  0  0  0
 74 75  1  0  0  0  0
M  CHG  2  83   1  84   1
M  ISO  4  38 100  69 101  78 100  92 101
M  END
> <Batch ID>
0155

> <Smiles>
CNC(C)C(=O)NC(C(=O)N1Cc2cc([101O:1][101CH2:1]CN3CCC(C(C)c4cc(C)ccc4OC4CC[100N:0]([100C:0](=O)N5CCCC(n6nc(-c7ccc(Oc8ccc(F)cc8F)cc7)c(C(N)=O)c6N)C5)CC4)CC3)ccc2CC1C(=O)NC1CCCc2ccccc21)C(C)(C)C

> <Shape>
0.258

> <Color>
0.038

> <Negative vol penalty>
0.000

$$$$

  -OEChem-04052321543D

 91101  0     1  0  0  0  0  0999 V2000
  -27.6548  -36.3978   25.7961 C   0  0  0  0  0  0  0  0  0  0  0  0
  -27.8970  -36.0989   24.4592 C   0  0  0  0  0  0  0  0  0  0  0  0
  -22.7314  -10.3187   20.6753 C   0  0  0  0  0  0  0  0  0  0  0  0
  -24.4880   -9.2013   21.9014 C   0  0  0  0  0  0  0  0  0  0  0  0
  -27.3204  -35.3791   26.6875 C   0  0  0  0  0  0  0  0  0  0  0  0
  -27.8062  -34.7809   24.0130 C   0  0  0  0  0  0  0  0  0  0  0  0
  -25.9734  -30.9548   18.2409 C   0  0  0  0  0  0  0  0  0  0  0  0
  -21.9955   -9.1340   20.6500 C   0  0  0  0  0  0  0  0  0  0  0  0
  -23.7520   -8.0167   21.8761 C   0  0  0  0  0  0  0  0  0  0  0  0
  -26.4737  -29.9548   17.4082 C   0  0  0  0  0  0  0  0  0  0  0  0
  -21.1297   -6.6794   23.5361 C   0  0  0  0  0  0  0  0  0  0  0  0
  -21.0391   -5.9491   24.7210 C   0  0  0  0  0  0  0  0  0  0  0  0
  -25.8109  -28.2882   19.0214 C   0  0  0  0  0  0  0  0  0  0  0  0
  -27.1624  -26.4219   13.8819 C   0  0  0  0  0  0  0  0  0  0  0  0
  -29.0575  -26.1691   15.3589 C   0  0  0  0  0  0  0  0  0  0  0  0
  -22.0854   -4.0605   23.6368 C   0  0  0  0  0  0  0  0  0  0  0  0
  -23.9777  -10.3523   21.3010 C   0  0  0  0  0  0  0  0  0  0  0  0
  -24.6946  -12.5834   22.3089 C   0  0  0  0  0  0  0  0  0  0  0  0
  -27.2159  -34.0493   26.2500 C   0  0  0  0  0  0  0  0  0  0  0  0
  -25.3969  -30.6293   19.4771 C   0  0  0  0  0  0  0  0  0  0  0  0
  -27.4714  -33.7433   24.8996 C   0  0  0  0  0  0  0  0  0  0  0  0
  -25.3017  -29.2858   19.8668 C   0  0  0  0  0  0  0  0  0  0  0  0
  -27.9039  -26.8559   14.9808 C   0  0  0  0  0  0  0  0  0  0  0  0
  -27.5745  -25.3011   13.1612 C   0  0  0  0  0  0  0  0  0  0  0  0
  -29.4697  -25.0482   14.6381 C   0  0  0  0  0  0  0  0  0  0  0  0
  -28.7282  -24.6142   13.5392 C   0  0  0  0  0  0  0  0  0  0  0  0
  -22.5058   -7.9830   21.2504 C   0  0  0  0  0  0  0  0  0  0  0  0
  -26.3952  -28.6215   17.7997 C   0  0  0  0  0  0  0  0  0  0  0  0
  -21.6980   -6.1003   22.4015 C   0  0  0  0  0  0  0  0  0  0  0  0
  -21.5171   -4.6396   24.7714 C   0  0  0  0  0  0  0  0  0  0  0  0
  -22.1759   -4.7908   22.4519 C   0  0  0  0  0  0  0  0  0  0  0  0
  -24.7386  -11.5756   21.3270 C   0  0  0  0  0  0  0  0  0  0  0  0
  -25.5966  -13.5243   21.8759 C   0  0  0  0  0  0  0  0  0  0  0  0
  -23.9087  -12.6620   23.5055 C   0  0  0  0  0  0  0  0  0  0  0  0
  -26.0694  -31.2975   22.5110 C   0  0  0  0  0  0  0  0  0  0  0  0
  -23.2582  -29.7759   23.0625 C   0  0  0  0  0  0  0  0  0  0  0  0
  -20.9225  -27.5280   21.9954 C   0  0  0  0  0  0  0  0  0  0  0  0
  -27.8221  -16.6316   18.1059 C   0  0  0  0  0  0  0  0  0  0  0  0
  -26.8979  -32.9756   27.2603 C   0  0  0  0  0  0  0  0  0  0  0  0
  -24.8377  -31.7177   20.3518 C   0  0  0  0  0  0  0  0  0  0  0  0
  -24.6738  -28.8822   21.1750 C   0  0  0  0  0  0  0  0  0  0  0  0
  -26.4555  -31.6577   26.6296 C   0  0  0  0  0  0  0  0  0  0  0  0
  -29.0512  -13.3414   18.1950 C   0  0  0  0  0  0  0  0  0  0  0  0
  -27.3878  -31.2742   25.4848 C   0  0  0  0  0  0  0  0  0  0  0  0
  -28.0280  -12.6601   19.1032 C   0  0  0  0  0  0  0  0  0  0  0  0
  -28.0606  -19.9097   12.7151 C   0  0  0  0  0  0  0  0  0  0  0  0
  -28.3925  -14.3242   17.2252 C   0  0  0  0  0  0  0  0  0  0  0  0
  -28.4437  -21.2135   12.0137 C   0  0  0  0  0  0  0  0  0  0  0  0
  -28.5270  -16.8340   15.6796 C   0  0  0  0  0  0  0  0  0  0  0  0
  -29.1792  -18.5505   17.3277 C   0  0  0  0  0  0  0  0  0  0  0  0
  -26.5064  -14.6486   18.7925 C   0  0  0  0  0  0  0  0  0  0  0  0
  -28.7468  -21.5777   14.3027 C   0  0  0  0  0  0  0  0  0  0  0  0
  -27.8581  -17.9010   14.8190 C   0  0  0  0  0  0  0  0  0  0  0  0
  -28.5010  -19.6361   16.5081 C   0  0  0  0  0  0  0  0  0  0  0  0
  -27.3584  -32.3293   24.3724 C   0  0  1  0  0  0  0  0  0  0  0  0
  -24.7358  -31.3120   21.8189 C   0  0  1  0  0  0  0  0  0  0  0  0
  -27.1453  -13.6990   19.8175 C   0  0  1  0  0  0  0  0  0  0  0  0
  -27.9602  -20.2874   14.1861 C   0  0  2  0  0  0  0  0  0  0  0  0
  -26.7634  -24.8576   11.9877 C   0  0  0  0  0  0  0  0  0  0  0  0
  -30.7089  -24.3303   15.0634 C   0  0  0  0  0  0  0  0  0  0  0  0
  -18.7536  -26.4666   22.6785 C   0  0  0  0  0  0  0  0  0  0  0  0
  -24.7555  -27.9885   25.0305 C   0  0  0  0  0  0  0  0  0  0  0  0
  -22.8229  -26.3989   24.9496 C   0  0  0  0  0  0  0  0  0  0  0  0
  -22.4913  -28.7203   25.8004 C   0  0  0  0  0  0  0  0  0  0  0  0
  -19.5090  -28.6262   19.6385 C   0  0  0  0  0  0  0  0  0  0  0  0
  -29.1719  -23.4081   12.7630 C   0  0  0  0  0  0  0  0  0  0  0  0
  -27.4628  -28.0538   15.7518 C   0  0  0  0  0  0  0  0  0  1  0  0
  -22.8498  -28.3466   23.3257 C   0  0  1  0  0  0  0  0  0  0  0  0
  -19.4086  -27.6087   21.9174 C   0  0  2  0  0  0  0  0  0  0  0  0
  -23.2435  -27.8710   24.7527 C   0  0  0  0  0  0  0  0  0  0  0  0
  -25.6003  -11.8506   20.3442 N   0  0  0  0  0  0  0  0  0  0  0  0
  -26.1060  -13.0419   20.7062 N   0  0  0  0  0  0  0  0  0  0  0  0
  -24.1472  -29.9832   21.9983 N   0  0  0  0  0  0  0  0  0  0  0  0
  -27.5291  -15.2688   17.9475 N   0  0  0  0  0  0  0  0  0  0  0  0
  -28.5674  -17.2453   17.0882 N   0  0  0  0  0  0  0  0  0  0  0  0
  -28.3546  -22.2408   13.0567 N   0  0  1  0  0  0  0  0  0  0  0  0
  -25.9957  -14.7091   22.3852 N   0  0  0  0  0  0  0  0  0  0  0  0
  -23.0323  -11.6085   23.7996 N   0  0  0  0  0  0  0  0  0  0  0  0
  -26.1643  -32.1825   23.5680 N   0  0  0  0  0  0  0  0  0  0  0  0
  -21.4203  -28.2720   23.0442 N   0  0  0  0  0  0  0  0  0  0  0  0
  -28.5245  -19.2357   15.0513 N   0  3  0  0  0  0  0  0  0  0  0  0
  -18.9590  -27.5465   20.4979 N   0  3  0  0  0  0  0  0  0  0  0  0
  -23.9695  -13.6451   24.2823 O   0  0  0  0  0  0  0  0  0  0  0  0
  -26.9467  -30.5385   22.1163 O   0  0  0  0  0  0  0  0  0  0  0  0
  -22.7994  -30.6760   23.7703 O   0  0  0  0  0  0  0  0  0  0  0  0
  -21.5958  -26.8678   21.2072 O   0  0  0  0  0  0  0  0  0  0  0  0
  -27.4395  -17.2635   19.0987 O   0  0  0  0  0  0  0  0  0  0  0  0
  -21.7878   -6.8270   21.2261 O   0  0  0  0  0  0  0  0  0  0  0  0
  -26.8867  -27.6367   16.9836 O   0  0  0  0  0  0  0  0  0  1  0  0
  -21.4315   -3.9389   25.9097 F   0  0  0  0  0  0  0  0  0  0  0  0
  -22.7240   -4.2295   21.3654 F   0  0  0  0  0  0  0  0  0  0  0  0
  1  2  1  0  0  0  0
  1  5  2  0  0  0  0
  2  6  2  0  0  0  0
  3  8  2  0  0  0  0
  3 17  1  0  0  0  0
  4  9  1  0  0  0  0
  4 17  2  0  0  0  0
  5 19  1  0  0  0  0
  6 21  1  0  0  0  0
  7 10  2  0  0  0  0
  7 20  1  0  0  0  0
  8 27  1  0  0  0  0
  9 27  2  0  0  0  0
 10 28  1  0  0  0  0
 11 12  2  0  0  0  0
 11 29  1  0  0  0  0
 12 30  1  0  0  0  0
 13 22  1  0  0  0  0
 13 28  2  0  0  0  0
 14 23  1  0  0  0  0
 14 24  2  0  0  0  0
 15 23  2  0  0  0  0
 15 25  1  0  0  0  0
 16 30  2  0  0  0  0
 16 31  1  0  0  0  0
 17 32  1  0  0  0  0
 18 32  1  0  0  0  0
 18 33  2  0  0  0  0
 18 34  1  0  0  0  0
 19 21  2  0  0  0  0
 19 39  1  0  0  0  0
 20 22  2  0  0  0  0
 20 40  1  0  0  0  0
 21 55  1  0  0  0  0
 22 41  1  0  0  0  0
 23 67  1  0  0  0  0
 24 26  1  0  0  0  0
 24 59  1  0  0  0  0
 25 26  2  0  0  0  0
 25 60  1  0  0  0  0
 26 66  1  0  0  0  0
 27 88  1  0  0  0  0
 28 89  1  0  0  0  0
 29 31  2  0  0  0  0
 29 88  1  0  0  0  0
 30 90  1  0  0  0  0
 31 91  1  0  0  0  0
 32 71  2  0  0  0  0
 33 72  1  0  0  0  0
 33 77  1  0  0  0  0
 34 78  1  0  0  0  0
 34 83  2  0  0  0  0
 35 56  1  0  0  0  0
 35 79  1  0  0  0  0
 35 84  2  0  0  0  0
 36 68  1  0  0  0  0
 36 73  1  0  0  0  0
 36 85  2  0  0  0  0
 37 69  1  0  0  0  0
 37 80  1  0  0  0  0
 37 86  2  0  0  0  0
 38 74  1  0  0  0  0
 38 75  1  0  0  0  0
 38 87  2  0  0  0  0
 39 42  1  0  0  0  0
 40 56  1  0  0  0  0
 41 73  1  0  0  0  0
 42 44  1  0  0  0  0
 43 45  1  0  0  0  0
 43 47  1  0  0  0  0
 44 55  1  0  0  0  0
 45 57  1  0  0  0  0
 46 48  1  0  0  0  0
 46 58  1  0  0  0  0
 47 74  1  0  0  0  0
 48 76  1  0  0  0  0
 49 53  1  0  0  0  0
 49 75  1  0  0  0  0
 50 54  1  0  0  0  0
 50 75  1  0  0  0  0
 51 57  1  0  0  0  0
 51 74  1  0  0  0  0
 52 58  1  0  0  0  0
 52 76  1  0  0  0  0
 53 81  1  0  0  0  0
 54 81  1  0  0  0  0
 55 79  1  0  0  0  0
 56 73  1  0  0  0  0
 57 72  1  0  0  0  0
 58 81  1  0  0  0  0
 61 69  1  0  0  0  0
 62 70  1  0  0  0  0
 63 70  1  0  0  0  0
 64 70  1  0  0  0  0
 65 82  1  0  0  0  0
 66 76  1  0  0  0  0
 67 89  1  0  0  0  0
 68 70  1  0  0  0  0
 68 80  1  0  0  0  0
 69 82  1  0  0  0  0
 71 72  1  0  0  0  0
M  CHG  2  81   1  82   1
M  ISO  4  38 100  67 101  75 100  89 101
M  END
> <Batch ID>
0155

> <Smiles>
CNC(C)C(=O)NC(C(=O)N1Cc2cc([101O:1][101CH2:1]c3cc(C)c(CN4CCC(N5CC[100N:0]([100C:0](=O)N6CCCC(n7nc(-c8ccc(Oc9ccc(F)cc9F)cc8)c(C(N)=O)c7N)C6)CC5)C4)c(C)c3)ccc2CC1C(=O)NC1CCCc2ccccc21)C(C)(C)C

> <Shape>
0.280

> <Color>
0.108

> <Negative vol penalty>
0.000

$$$$

  -OEChem-04052321543D

 86 95  0     1  0  0  0  0  0999 V2000
  -34.7728  -36.3798   19.8141 C   0  0  0  0  0  0  0  0  0  0  0  0
  -34.4088  -35.0566   19.5861 C   0  0  0  0  0  0  0  0  0  0  0  0
  -24.7732   -8.8184   21.6438 C   0  0  0  0  0  0  0  0  0  0  0  0
  -24.1885   -8.3450   19.3479 C   0  0  0  0  0  0  0  0  0  0  0  0
  -34.2150  -37.0809   20.8824 C   0  0  0  0  0  0  0  0  0  0  0  0
  -33.4875  -34.4333   20.4270 C   0  0  0  0  0  0  0  0  0  0  0  0
  -29.3028  -30.2504   18.8464 C   0  0  0  0  0  0  0  0  0  0  0  0
  -28.2137  -23.9610   18.5568 C   0  0  0  0  0  0  0  0  0  0  0  0
  -23.5942   -8.2071   22.0701 C   0  0  0  0  0  0  0  0  0  0  0  0
  -23.0095   -7.7337   19.7742 C   0  0  0  0  0  0  0  0  0  0  0  0
  -29.2866  -28.8592   18.9367 C   0  0  0  0  0  0  0  0  0  0  0  0
  -28.0613  -22.5917   18.7748 C   0  0  0  0  0  0  0  0  0  0  0  0
  -20.9122   -6.4515   23.7846 C   0  0  0  0  0  0  0  0  0  0  0  0
  -20.9911   -5.5736   24.8656 C   0  0  0  0  0  0  0  0  0  0  0  0
  -28.0796  -29.0145   21.0195 C   0  0  0  0  0  0  0  0  0  0  0  0
  -29.7546  -22.6774   20.4960 C   0  0  0  0  0  0  0  0  0  0  0  0
  -22.5271   -4.1824   23.6236 C   0  0  0  0  0  0  0  0  0  0  0  0
  -25.0704   -8.8875   20.2826 C   0  0  0  0  0  0  0  0  0  0  0  0
  -27.5412   -8.9080   19.6482 C   0  0  0  0  0  0  0  0  0  0  0  0
  -33.2791  -36.4689   21.7310 C   0  0  0  0  0  0  0  0  0  0  0  0
  -28.7161  -31.0356   19.8492 C   0  0  0  0  0  0  0  0  0  0  0  0
  -32.9176  -35.1264   21.5084 C   0  0  0  0  0  0  0  0  0  0  0  0
  -28.0875  -30.4154   20.9384 C   0  0  0  0  0  0  0  0  0  0  0  0
  -29.1365  -24.6885   19.3083 C   0  0  0  0  0  0  0  0  0  0  0  0
  -22.7124   -7.6647   21.1353 C   0  0  0  0  0  0  0  0  0  0  0  0
  -28.6775  -28.2411   20.0248 C   0  0  0  0  0  0  0  0  0  0  0  0
  -28.8318  -21.9500   19.7444 C   0  0  0  0  0  0  0  0  0  0  0  0
  -21.6407   -6.1949   22.6231 C   0  0  0  0  0  0  0  0  0  0  0  0
  -29.9070  -24.0467   20.2779 C   0  0  0  0  0  0  0  0  0  0  0  0
  -21.7985   -4.4390   24.7852 C   0  0  0  0  0  0  0  0  0  0  0  0
  -22.4481   -5.0603   22.5426 C   0  0  0  0  0  0  0  0  0  0  0  0
  -26.2879   -9.5193   19.8416 C   0  0  0  0  0  0  0  0  0  0  0  0
  -28.3596   -9.9281   19.2286 C   0  0  0  0  0  0  0  0  0  0  0  0
  -27.9307   -7.5404   19.8315 C   0  0  0  0  0  0  0  0  0  0  0  0
  -29.7830  -33.2111   21.9067 C   0  0  0  0  0  0  0  0  0  0  0  0
  -26.6299  -33.5398   22.5942 C   0  0  0  0  0  0  0  0  0  0  0  0
  -23.5076  -32.1623   22.6028 C   0  0  0  0  0  0  0  0  0  0  0  0
  -28.3951  -15.6460   20.0608 C   0  0  0  0  0  0  0  0  0  0  0  0
  -32.7388  -37.2523   22.9011 C   0  0  0  0  0  0  0  0  0  0  0  0
  -28.7187  -32.5345   19.7237 C   0  0  0  0  0  0  0  0  0  0  0  0
  -27.4256  -31.2127   22.0314 C   0  0  0  0  0  0  0  0  0  0  0  0
  -31.4876  -36.6358   23.5213 C   0  0  0  0  0  0  0  0  0  0  0  0
  -28.2620  -14.1054   16.9095 C   0  0  0  0  0  0  0  0  0  0  0  0
  -31.6754  -35.1355   23.7226 C   0  0  0  0  0  0  0  0  0  0  0  0
  -27.8590  -12.6797   17.2855 C   0  0  0  0  0  0  0  0  0  0  0  0
  -30.1100  -18.8115   19.1743 C   0  0  0  0  0  0  0  0  0  0  0  0
  -27.6805  -18.9674   18.4795 C   0  0  0  0  0  0  0  0  0  0  0  0
  -27.5125  -15.1501   17.7381 C   0  0  0  0  0  0  0  0  0  0  0  0
  -29.7291  -17.7178   20.1709 C   0  0  0  0  0  0  0  0  0  0  0  0
  -27.3549  -17.8736   19.4939 C   0  0  0  0  0  0  0  0  0  0  0  0
  -27.2166  -13.5218   19.5759 C   0  0  0  0  0  0  0  0  0  0  0  0
  -31.9028  -34.4234   22.3837 C   0  0  1  0  0  0  0  0  0  0  0  0
  -28.5413  -33.2465   21.0612 C   0  0  1  0  0  0  0  0  0  0  0  0
  -27.9962  -12.4481   18.8009 C   0  0  1  0  0  0  0  0  0  0  0  0
  -28.9439  -19.7460   18.8500 C   0  0  0  0  0  0  0  0  0  0  0  0
  -21.1373  -32.6586   23.2608 C   0  0  0  0  0  0  0  0  0  0  0  0
  -27.3485  -33.0761   25.5231 C   0  0  0  0  0  0  0  0  0  0  0  0
  -24.9255  -32.6377   25.9758 C   0  0  0  0  0  0  0  0  0  0  0  0
  -25.6514  -34.8720   25.1370 C   0  0  0  0  0  0  0  0  0  0  0  0
  -22.5524  -31.8798   19.8159 C   0  0  0  0  0  0  0  0  0  0  0  0
  -31.5577  -24.0076   21.9894 C   0  0  0  0  0  0  0  0  0  0  0  0
  -29.2855  -26.1533   19.0618 C   0  0  0  0  0  0  0  0  0  1  0  0
  -25.6744  -32.8910   23.5663 C   0  0  1  0  0  0  0  0  0  0  0  0
  -22.1664  -32.7039   22.1420 C   0  0  2  0  0  0  0  0  0  0  0  0
  -25.9140  -33.3539   25.0311 C   0  0  0  0  0  0  0  0  0  0  0  0
  -26.3040  -10.8265   19.5674 N   0  0  0  0  0  0  0  0  0  0  0  0
  -27.5774  -11.0449   19.1976 N   0  0  0  0  0  0  0  0  0  0  0  0
  -27.4600  -32.6753   21.8666 N   0  0  0  0  0  0  0  0  0  0  0  0
  -27.6397  -14.8647   19.1735 N   0  0  0  0  0  0  0  0  0  0  0  0
  -28.5158  -17.0130   19.7586 N   0  0  0  0  0  0  0  0  0  0  0  0
  -29.6650   -9.9697   18.8868 N   0  0  0  0  0  0  0  0  0  0  0  0
  -26.9647   -6.6233   20.2674 N   0  0  0  0  0  0  0  0  0  0  0  0
  -30.6498  -34.2626   21.6776 N   0  0  0  0  0  0  0  0  0  0  0  0
  -24.3324  -33.1661   23.0646 N   0  0  0  0  0  0  0  0  0  0  0  0
  -21.6504  -31.9029   20.9961 N   0  3  0  0  0  0  0  0  0  0  0  0
  -29.1047   -7.1467   19.6309 O   0  0  0  0  0  0  0  0  0  0  0  0
  -29.9421  -32.2982   22.7086 O   0  0  0  0  0  0  0  0  0  0  0  0
  -26.6346  -34.7680   22.4793 O   0  0  0  0  0  0  0  0  0  0  0  0
  -23.7935  -30.9677   22.5610 O   0  0  0  0  0  0  0  0  0  0  0  0
  -28.9331  -15.1542   21.0607 O   0  0  0  0  0  0  0  0  0  0  0  0
  -21.5619   -7.0679   21.5510 O   0  0  0  0  0  0  0  0  0  0  0  0
  -28.6824  -20.6049   19.9578 O   0  0  0  0  0  0  0  0  0  0  0  0
  -30.8128  -24.7426   21.0206 O   0  0  0  0  0  0  0  0  0  0  0  0
  -28.6607  -26.8739   20.1163 O   0  0  0  0  0  0  0  0  0  1  0  0
  -21.8754   -3.5968   25.8239 F   0  0  0  0  0  0  0  0  0  0  0  0
  -23.1513   -4.8091   21.4298 F   0  0  0  0  0  0  0  0  0  0  0  0
  1  2  1  0  0  0  0
  1  5  2  0  0  0  0
  2  6  2  0  0  0  0
  3  9  2  0  0  0  0
  3 18  1  0  0  0  0
  4 10  1  0  0  0  0
  4 18  2  0  0  0  0
  5 20  1  0  0  0  0
  6 22  1  0  0  0  0
  7 11  2  0  0  0  0
  7 21  1  0  0  0  0
  8 12  2  0  0  0  0
  8 24  1  0  0  0  0
  9 25  1  0  0  0  0
 10 25  2  0  0  0  0
 11 26  1  0  0  0  0
 12 27  1  0  0  0  0
 13 14  2  0  0  0  0
 13 28  1  0  0  0  0
 14 30  1  0  0  0  0
 15 23  1  0  0  0  0
 15 26  2  0  0  0  0
 16 27  2  0  0  0  0
 16 29  1  0  0  0  0
 17 30  2  0  0  0  0
 17 31  1  0  0  0  0
 18 32  1  0  0  0  0
 19 32  1  0  0  0  0
 19 33  2  0  0  0  0
 19 34  1  0  0  0  0
 20 22  2  0  0  0  0
 20 39  1  0  0  0  0
 21 23  2  0  0  0  0
 21 40  1  0  0  0  0
 22 52  1  0  0  0  0
 23 41  1  0  0  0  0
 24 29  2  0  0  0  0
 24 62  1  0  0  0  0
 25 81  1  0  0  0  0
 26 84  1  0  0  0  0
 27 82  1  0  0  0  0
 28 31  2  0  0  0  0
 28 81  1  0  0  0  0
 29 83  1  0  0  0  0
 30 85  1  0  0  0  0
 31 86  1  0  0  0  0
 32 66  2  0  0  0  0
 33 67  1  0  0  0  0
 33 71  1  0  0  0  0
 34 72  1  0  0  0  0
 34 76  2  0  0  0  0
 35 53  1  0  0  0  0
 35 73  1  0  0  0  0
 35 77  2  0  0  0  0
 36 63  1  0  0  0  0
 36 68  1  0  0  0  0
 36 78  2  0  0  0  0
 37 64  1  0  0  0  0
 37 74  1  0  0  0  0
 37 79  2  0  0  0  0
 38 69  1  0  0  0  0
 38 70  1  0  0  0  0
 38 80  2  0  0  0  0
 39 42  1  0  0  0  0
 40 53  1  0  0  0  0
 41 68  1  0  0  0  0
 42 44  1  0  0  0  0
 43 45  1  0  0  0  0
 43 48  1  0  0  0  0
 44 52  1  0  0  0  0
 45 54  1  0  0  0  0
 46 49  1  0  0  0  0
 46 55  1  0  0  0  0
 47 50  1  0  0  0  0
 47 55  1  0  0  0  0
 48 69  1  0  0  0  0
 49 70  1  0  0  0  0
 50 70  1  0  0  0  0
 51 54  1  0  0  0  0
 51 69  1  0  0  0  0
 52 73  1  0  0  0  0
 53 68  1  0  0  0  0
 54 67  1  0  0  0  0
 55 82  1  0  0  0  0
 56 64  1  0  0  0  0
 57 65  1  0  0  0  0
 58 65  1  0  0  0  0
 59 65  1  0  0  0  0
 60 75  1  0  0  0  0
 61 83  1  0  0  0  0
 62 84  1  0  0  0  0
 63 65  1  0  0  0  0
 63 74  1  0  0  0  0
 64 75  1  0  0  0  0
 66 67  1  0  0  0  0
M  CHG  1  75   1
M  ISO  4  38 100  62 101  70 100  84 101
M  END
> <Batch ID>
0155

> <Smiles>
CNC(C)C(=O)NC(C(=O)N1Cc2cc([101O:1][101CH2:1]c3ccc(OC4CC[100N:0]([100C:0](=O)N5CCCC(n6nc(-c7ccc(Oc8ccc(F)cc8F)cc7)c(C(N)=O)c6N)C5)CC4)cc3OC)ccc2CC1C(=O)NC1CCCc2ccccc21)C(C)(C)C

> <Shape>
0.251

> <Color>
0.097

> <Negative vol penalty>
0.000

$$$$

  -OEChem-04052321543D

 86 95  0     1  0  0  0  0  0999 V2000
  -29.5478  -31.4117   18.1151 C   0  0  0  0  0  0  0  0  0  0  0  0
  -29.5405  -30.6854   19.3016 C   0  0  0  0  0  0  0  0  0  0  0  0
  -23.1577   -9.8283   19.9532 C   0  0  0  0  0  0  0  0  0  0  0  0
  -23.8972   -9.8995   22.2521 C   0  0  0  0  0  0  0  0  0  0  0  0
  -29.7442  -30.7573   16.8997 C   0  0  0  0  0  0  0  0  0  0  0  0
  -29.7285  -29.3040   19.2733 C   0  0  0  0  0  0  0  0  0  0  0  0
  -32.6241  -25.8962   23.4575 C   0  0  0  0  0  0  0  0  0  0  0  0
  -22.4531   -8.6536   20.2162 C   0  0  0  0  0  0  0  0  0  0  0  0
  -23.1926   -8.7248   22.5152 C   0  0  0  0  0  0  0  0  0  0  0  0
  -32.1606  -25.1179   24.5173 C   0  0  0  0  0  0  0  0  0  0  0  0
  -19.9897   -7.8225   23.1051 C   0  0  0  0  0  0  0  0  0  0  0  0
  -19.2247   -7.7746   24.2705 C   0  0  0  0  0  0  0  0  0  0  0  0
  -30.1233  -18.3726   23.9770 C   0  0  0  0  0  0  0  0  0  0  0  0
  -27.6192  -19.2069   22.9643 C   0  0  0  0  0  0  0  0  0  0  0  0
  -32.2633  -23.1578   23.1150 C   0  0  0  0  0  0  0  0  0  0  0  0
  -20.5277   -5.8948   25.0487 C   0  0  0  0  0  0  0  0  0  0  0  0
  -23.8798  -10.4512   20.9711 C   0  0  0  0  0  0  0  0  0  0  0  0
  -24.1329  -12.9847   20.8121 C   0  0  0  0  0  0  0  0  0  0  0  0
  -29.9444  -29.3685   16.8574 C   0  0  0  0  0  0  0  0  0  0  0  0
  -32.9009  -25.3119   22.2132 C   0  0  0  0  0  0  0  0  0  0  0  0
  -29.9264  -28.6302   18.0561 C   0  0  0  0  0  0  0  0  0  0  0  0
  -29.2755  -19.1651   24.7328 C   0  0  0  0  0  0  0  0  0  0  0  0
  -28.0364  -19.5779   24.2318 C   0  0  0  0  0  0  0  0  0  0  0  0
  -32.7327  -23.9304   22.0417 C   0  0  0  0  0  0  0  0  0  0  0  0
  -29.7160  -18.0034   22.6933 C   0  0  0  0  0  0  0  0  0  0  0  0
  -22.4705   -8.1019   21.4972 C   0  0  0  0  0  0  0  0  0  0  0  0
  -31.9774  -23.7490   24.3453 C   0  0  0  0  0  0  0  0  0  0  0  0
  -21.0237   -6.9064   22.9115 C   0  0  0  0  0  0  0  0  0  0  0  0
  -28.4727  -18.4176   22.1906 C   0  0  0  0  0  0  0  0  0  0  0  0
  -19.4937   -6.8108   25.2423 C   0  0  0  0  0  0  0  0  0  0  0  0
  -21.2927   -5.9427   23.8833 C   0  0  0  0  0  0  0  0  0  0  0  0
  -24.6083  -11.6644   20.6999 C   0  0  0  0  0  0  0  0  0  0  0  0
  -25.2008  -13.7666   20.4452 C   0  0  0  0  0  0  0  0  0  0  0  0
  -22.8414  -13.4617   21.2123 C   0  0  0  0  0  0  0  0  0  0  0  0
  -31.7547  -25.6569   19.2685 C   0  0  0  0  0  0  0  0  0  0  0  0
  -34.1694  -23.6280   18.5100 C   0  0  0  0  0  0  0  0  0  0  0  0
  -36.3339  -21.1926   19.5250 C   0  0  0  0  0  0  0  0  0  0  0  0
  -30.6431  -14.9832   20.6603 C   0  0  0  0  0  0  0  0  0  0  0  0
  -30.1055  -28.6989   15.5156 C   0  0  0  0  0  0  0  0  0  0  0  0
  -33.4257  -26.1608   21.0878 C   0  0  0  0  0  0  0  0  0  0  0  0
  -29.4793  -19.6517   26.1353 C   0  0  0  0  0  0  0  0  0  0  0  0
  -27.2849  -20.3829   25.2478 C   0  0  0  0  0  0  0  0  0  0  0  0
  -33.0347  -23.2513   20.7317 C   0  0  0  0  0  0  0  0  0  0  0  0
  -30.6710  -27.2838   15.6051 C   0  0  0  0  0  0  0  0  0  0  0  0
  -29.6113  -12.5212   18.3043 C   0  0  0  0  0  0  0  0  0  0  0  0
  -29.9527  -26.4895   16.6913 C   0  0  0  0  0  0  0  0  0  0  0  0
  -28.1815  -12.1836   18.7306 C   0  0  0  0  0  0  0  0  0  0  0  0
  -30.5097  -12.7940   19.5086 C   0  0  0  0  0  0  0  0  0  0  0  0
  -28.5714  -13.4793   20.8678 C   0  0  0  0  0  0  0  0  0  0  0  0
  -30.1516  -27.1338   18.0686 C   0  0  1  0  0  0  0  0  0  0  0  0
  -33.1857  -25.5451   19.7128 C   0  0  1  0  0  0  0  0  0  0  0  0
  -27.6142  -13.2511   19.6855 C   0  0  2  0  0  0  0  0  0  0  0  0
  -28.4048  -20.7483   26.2367 C   0  0  2  0  0  0  0  0  0  0  0  0
  -38.1627  -19.7015   18.6708 C   0  0  0  0  0  0  0  0  0  0  0  0
  -32.0885  -21.8598   17.1486 C   0  0  0  0  0  0  0  0  0  0  0  0
  -33.7621  -19.9978   17.1644 C   0  0  0  0  0  0  0  0  0  0  0  0
  -34.2406  -22.0918   15.8959 C   0  0  0  0  0  0  0  0  0  0  0  0
  -38.3131  -22.3555   21.3929 C   0  0  0  0  0  0  0  0  0  0  0  0
  -26.8014  -18.5110   20.5012 C   0  0  0  0  0  0  0  0  0  0  0  0
  -30.6221  -17.1545   21.8620 C   0  0  0  0  0  0  0  0  0  0  0  0
  -30.6652  -23.6210   26.3246 C   0  0  0  0  0  0  0  0  0  1  0  0
  -29.7189  -22.5875   26.9042 C   0  0  0  0  0  0  0  0  0  0  0  0
  -34.3180  -22.1283   18.4227 C   0  0  1  0  0  0  0  0  0  0  0  0
  -37.8307  -21.0306   19.3312 C   0  0  2  0  0  0  0  0  0  0  0  0
  -33.5947  -21.5322   17.1821 C   0  0  0  0  0  0  0  0  0  0  0  0
  -25.8793  -11.6069   20.2933 N   0  0  0  0  0  0  0  0  0  0  0  0
  -26.2115  -12.9008   20.1468 N   0  0  0  0  0  0  0  0  0  0  0  0
  -33.5395  -24.1252   19.6598 N   0  0  0  0  0  0  0  0  0  0  0  0
  -29.9154  -13.8165   20.3731 N   0  0  0  0  0  0  0  0  0  0  0  0
  -25.3645  -15.1033   20.3519 N   0  0  0  0  0  0  0  0  0  0  0  0
  -21.8595  -12.5226   21.5565 N   0  0  0  0  0  0  0  0  0  0  0  0
  -31.4669  -26.8238   18.5864 N   0  0  0  0  0  0  0  0  0  0  0  0
  -35.7507  -21.8568   18.4667 N   0  0  0  0  0  0  0  0  0  0  0  0
  -30.0042  -15.9036   21.4821 N   0  0  0  0  0  0  0  0  0  0  0  0
  -38.5327  -21.0912   20.6444 N   0  3  0  0  0  0  0  0  0  0  0  0
  -22.5611  -14.6839   21.2474 O   0  0  0  0  0  0  0  0  0  0  0  0
  -30.9701  -24.7510   19.5242 O   0  0  0  0  0  0  0  0  0  0  0  0
  -34.6027  -24.3329   17.5952 O   0  0  0  0  0  0  0  0  0  0  0  0
  -35.7406  -20.7687   20.5144 O   0  0  0  0  0  0  0  0  0  0  0  0
  -31.7760  -15.1916   20.2129 O   0  0  0  0  0  0  0  0  0  0  0  0
  -21.7829   -6.9557   21.7544 O   0  0  0  0  0  0  0  0  0  0  0  0
  -28.0775  -18.0496   20.9380 O   0  0  0  0  0  0  0  0  0  0  0  0
  -31.5244  -22.9871   25.3779 O   0  0  0  0  0  0  0  0  0  1  0  0
  -28.9644  -22.0046   25.8486 O   0  0  0  0  0  0  0  0  0  0  0  0
  -18.7600   -6.7660   26.3620 F   0  0  0  0  0  0  0  0  0  0  0  0
  -22.2856   -5.0607   23.7034 F   0  0  0  0  0  0  0  0  0  0  0  0
  1  2  1  0  0  0  0
  1  5  2  0  0  0  0
  2  6  2  0  0  0  0
  3  8  2  0  0  0  0
  3 17  1  0  0  0  0
  4  9  1  0  0  0  0
  4 17  2  0  0  0  0
  5 19  1  0  0  0  0
  6 21  1  0  0  0  0
  7 10  2  0  0  0  0
  7 20  1  0  0  0  0
  8 26  1  0  0  0  0
  9 26  2  0  0  0  0
 10 27  1  0  0  0  0
 11 12  2  0  0  0  0
 11 28  1  0  0  0  0
 12 30  1  0  0  0  0
 13 22  1  0  0  0  0
 13 25  2  0  0  0  0
 14 23  1  0  0  0  0
 14 29  2  0  0  0  0
 15 24  1  0  0  0  0
 15 27  2  0  0  0  0
 16 30  2  0  0  0  0
 16 31  1  0  0  0  0
 17 32  1  0  0  0  0
 18 32  1  0  0  0  0
 18 33  2  0  0  0  0
 18 34  1  0  0  0  0
 19 21  2  0  0  0  0
 19 39  1  0  0  0  0
 20 24  2  0  0  0  0
 20 40  1  0  0  0  0
 21 50  1  0  0  0  0
 22 23  2  0  0  0  0
 22 41  1  0  0  0  0
 23 42  1  0  0  0  0
 24 43  1  0  0  0  0
 25 29  1  0  0  0  0
 25 60  1  0  0  0  0
 26 81  1  0  0  0  0
 27 83  1  0  0  0  0
 28 31  2  0  0  0  0
 28 81  1  0  0  0  0
 29 82  1  0  0  0  0
 30 85  1  0  0  0  0
 31 86  1  0  0  0  0
 32 66  2  0  0  0  0
 33 67  1  0  0  0  0
 33 70  1  0  0  0  0
 34 71  1  0  0  0  0
 34 76  2  0  0  0  0
 35 51  1  0  0  0  0
 35 72  1  0  0  0  0
 35 77  2  0  0  0  0
 36 63  1  0  0  0  0
 36 68  1  0  0  0  0
 36 78  2  0  0  0  0
 37 64  1  0  0  0  0
 37 73  1  0  0  0  0
 37 79  2  0  0  0  0
 38 69  1  0  0  0  0
 38 74  1  0  0  0  0
 38 80  2  0  0  0  0
 39 44  1  0  0  0  0
 40 51  1  0  0  0  0
 41 53  1  0  0  0  0
 42 53  1  0  0  0  0
 43 68  1  0  0  0  0
 44 46  1  0  0  0  0
 45 47  1  0  0  0  0
 45 48  1  0  0  0  0
 46 50  1  0  0  0  0
 47 52  1  0  0  0  0
 48 69  1  0  0  0  0
 49 52  1  0  0  0  0
 49 69  1  0  0  0  0
 50 72  1  0  0  0  0
 51 68  1  0  0  0  0
 52 67  1  0  0  0  0
 53 84  1  0  0  0  0
 54 64  1  0  0  0  0
 55 65  1  0  0  0  0
 56 65  1  0  0  0  0
 57 65  1  0  0  0  0
 58 75  1  0  0  0  0
 59 82  1  0  0  0  0
 60 74  1  0  0  0  0
 61 62  1  0  0  0  0
 61 83  1  0  0  0  0
 62 84  1  0  0  0  0
 63 65  1  0  0  0  0
 63 73  1  0  0  0  0
 64 75  1  0  0  0  0
 66 67  1  0  0  0  0
M  CHG  1  75   1
M  ISO  4  38 100  61 101  74 100  83 101
M  END
> <Batch ID>
0155

> <Smiles>
CNC(C)C(=O)NC(C(=O)N1Cc2cc([101O:1][101CH2:1]COC3Cc4cc(C[100NH:0][100C:0](=O)N5CCCC(n6nc(-c7ccc(Oc8ccc(F)cc8F)cc7)c(C(N)=O)c6N)C5)c(OC)cc4C3)ccc2CC1C(=O)NC1CCCc2ccccc21)C(C)(C)C

> <Shape>
0.197

> <Color>
0.201

> <Negative vol penalty>
0.000

$$$$

  -OEChem-04052321543D

 88 98  0     1  0  0  0  0  0999 V2000
  -28.4186  -34.7753   23.0991 C   0  0  0  0  0  0  0  0  0  0  0  0
  -28.5000  -33.4031   22.8849 C   0  0  0  0  0  0  0  0  0  0  0  0
  -23.9047   -9.6123   22.4536 C   0  0  0  0  0  0  0  0  0  0  0  0
  -23.3932  -10.0147   20.1269 C   0  0  0  0  0  0  0  0  0  0  0  0
  -27.2486  -35.3308   23.6154 C   0  0  0  0  0  0  0  0  0  0  0  0
  -27.4119  -32.5854   23.1879 C   0  0  0  0  0  0  0  0  0  0  0  0
  -26.4579  -29.1937   19.5505 C   0  0  0  0  0  0  0  0  0  0  0  0
  -30.7966  -22.8362   20.5667 C   0  0  0  0  0  0  0  0  0  0  0  0
  -22.9868   -8.5623   22.4738 C   0  0  0  0  0  0  0  0  0  0  0  0
  -22.4752   -8.9646   20.1471 C   0  0  0  0  0  0  0  0  0  0  0  0
  -27.2795  -28.0685   19.4978 C   0  0  0  0  0  0  0  0  0  0  0  0
  -22.8727   -5.3339   21.4754 C   0  0  0  0  0  0  0  0  0  0  0  0
  -23.2628   -4.1436   22.0890 C   0  0  0  0  0  0  0  0  0  0  0  0
  -30.1627  -24.0736   20.5823 C   0  0  0  0  0  0  0  0  0  0  0  0
  -25.5809  -26.7826   20.6294 C   0  0  0  0  0  0  0  0  0  0  0  0
  -21.4333   -4.3505   23.6534 C   0  0  0  0  0  0  0  0  0  0  0  0
  -30.2967  -22.6677   18.2476 C   0  0  0  0  0  0  0  0  0  0  0  0
  -24.1079  -10.3386   21.2801 C   0  0  0  0  0  0  0  0  0  0  0  0
  -26.4258  -11.3497   20.9445 C   0  0  0  0  0  0  0  0  0  0  0  0
  -30.8692  -22.1134   19.3811 C   0  0  0  0  0  0  0  0  0  0  0  0
  -26.1422  -34.5208   23.9159 C   0  0  0  0  0  0  0  0  0  0  0  0
  -25.1939  -29.1244   20.1538 C   0  0  0  0  0  0  0  0  0  0  0  0
  -26.2265  -33.1305   23.7100 C   0  0  0  0  0  0  0  0  0  0  0  0
  -24.7442  -27.9077   20.6862 C   0  0  0  0  0  0  0  0  0  0  0  0
  -22.2720   -8.2384   21.3206 C   0  0  0  0  0  0  0  0  0  0  0  0
  -26.8422  -26.8635   20.0398 C   0  0  0  0  0  0  0  0  0  0  0  0
  -21.7629   -6.0325   21.9507 C   0  0  0  0  0  0  0  0  0  0  0  0
  -22.5431   -3.6518   23.1780 C   0  0  0  0  0  0  0  0  0  0  0  0
  -21.0432   -5.5408   23.0397 C   0  0  0  0  0  0  0  0  0  0  0  0
  -25.0555  -11.4237   21.2587 C   0  0  0  0  0  0  0  0  0  0  0  0
  -29.6221  -24.5402   19.3950 C   0  0  0  0  0  0  0  0  0  0  0  0
  -26.8767  -12.6412   21.0678 C   0  0  0  0  0  0  0  0  0  0  0  0
  -27.2200  -10.2149   20.5741 C   0  0  0  0  0  0  0  0  0  0  0  0
  -23.8158  -30.5415   22.6430 C   0  0  0  0  0  0  0  0  0  0  0  0
  -21.1818  -28.9738   21.5814 C   0  0  0  0  0  0  0  0  0  0  0  0
  -19.8820  -26.3585   19.8157 C   0  0  0  0  0  0  0  0  0  0  0  0
  -25.8632  -18.0866   19.7715 C   0  0  0  0  0  0  0  0  0  0  0  0
  -24.9157  -35.1608   24.5165 C   0  0  0  0  0  0  0  0  0  0  0  0
  -24.3089  -30.3403   20.1788 C   0  0  0  0  0  0  0  0  0  0  0  0
  -23.3875  -27.7756   21.3268 C   0  0  0  0  0  0  0  0  0  0  0  0
  -23.6755  -34.2726   24.4598 C   0  0  0  0  0  0  0  0  0  0  0  0
  -24.6763  -16.7448   23.0168 C   0  0  0  0  0  0  0  0  0  0  0  0
  -33.0429  -19.9747   21.0930 C   0  0  0  0  0  0  0  0  0  0  0  0
  -24.0109  -32.8573   24.9193 C   0  0  0  0  0  0  0  0  0  0  0  0
  -33.0179  -20.7661   19.7958 C   0  0  0  0  0  0  0  0  0  0  0  0
  -24.7139  -15.2356   22.7835 C   0  0  0  0  0  0  0  0  0  0  0  0
  -28.7827  -19.7607   18.9287 C   0  0  0  0  0  0  0  0  0  0  0  0
  -29.3037  -17.8446   20.4906 C   0  0  0  0  0  0  0  0  0  0  0  0
  -24.4575  -17.5137   21.7176 C   0  0  0  0  0  0  0  0  0  0  0  0
  -27.6812  -18.9087   18.3038 C   0  0  0  0  0  0  0  0  0  0  0  0
  -28.1703  -17.0377   19.8503 C   0  0  0  0  0  0  0  0  0  0  0  0
  -25.4830  -15.6750   20.4176 C   0  0  0  0  0  0  0  0  0  0  0  0
  -31.9737  -18.9273   20.8825 C   0  0  0  0  0  0  0  0  0  0  0  0
  -25.0588  -32.2137   24.0031 C   0  0  1  0  0  0  0  0  0  0  0  0
  -31.5507  -20.7658   19.3309 C   0  0  1  0  0  0  0  0  0  0  0  0
  -23.2493  -30.2857   21.2750 C   0  0  1  0  0  0  0  0  0  0  0  0
  -25.7465  -14.8744   21.7019 C   0  0  2  0  0  0  0  0  0  0  0  0
  -29.8755  -18.8652   19.5088 C   0  0  0  0  0  0  0  0  0  0  0  0
  -17.6947  -25.3189   19.1584 C   0  0  0  0  0  0  0  0  0  0  0  0
  -20.8846  -27.8270   24.3933 C   0  0  0  0  0  0  0  0  0  0  0  0
  -19.3186  -26.1143   23.4539 C   0  0  0  0  0  0  0  0  0  0  0  0
  -18.7382  -28.5369   23.3239 C   0  0  0  0  0  0  0  0  0  0  0  0
  -20.4281  -26.7528   16.9338 C   0  0  0  0  0  0  0  0  0  0  0  0
  -28.9348  -25.8646   19.3751 C   0  0  0  0  0  0  0  0  0  1  0  0
  -20.5675  -27.6192   21.8394 C   0  0  1  0  0  0  0  0  0  0  0  0
  -18.7897  -26.2975   18.7633 C   0  0  2  0  0  0  0  0  0  0  0  0
  -19.9037  -27.5270   23.2424 C   0  0  0  0  0  0  0  0  0  0  0  0
  -29.6728  -23.8668   18.2239 N   0  0  0  0  0  0  0  0  0  0  0  0
  -24.6618  -12.6642   21.5593 N   0  0  0  0  0  0  0  0  0  0  0  0
  -25.7914  -13.3814   21.4346 N   0  0  0  0  0  0  0  0  0  0  0  0
  -22.5615  -28.9943   21.3324 N   0  0  0  0  0  0  0  0  0  0  0  0
  -25.4207  -17.1193   20.6894 N   0  0  0  0  0  0  0  0  0  0  0  0
  -27.1615  -17.9316   19.2624 N   0  0  0  0  0  0  0  0  0  0  0  0
  -28.0916  -13.2044   20.8974 N   0  0  0  0  0  0  0  0  0  0  0  0
  -26.5982   -8.9614   20.4948 N   0  0  0  0  0  0  0  0  0  0  0  0
  -24.4457  -31.7647   22.7714 N   0  0  0  0  0  0  0  0  0  0  0  0
  -19.6556  -27.3664   20.7291 N   0  0  0  0  0  0  0  0  0  0  0  0
  -30.8729  -19.7113   20.2137 N   0  3  1  0  0  0  0  0  0  0  0  0
  -19.3555  -25.8662   17.4539 N   0  3  0  0  0  0  0  0  0  0  0  0
  -28.4483  -10.3070   20.3369 O   0  0  0  0  0  0  0  0  0  0  0  0
  -23.6894  -29.6927   23.5177 O   0  0  0  0  0  0  0  0  0  0  0  0
  -20.4628  -29.9761   21.5932 O   0  0  0  0  0  0  0  0  0  0  0  0
  -20.8384  -25.5868   19.8286 O   0  0  0  0  0  0  0  0  0  0  0  0
  -25.1415  -19.0320   19.4303 O   0  0  0  0  0  0  0  0  0  0  0  0
  -21.3764   -7.2137   21.3399 O   0  0  0  0  0  0  0  0  0  0  0  0
  -27.6581  -25.7423   19.9893 O   0  0  0  0  0  0  0  0  0  1  0  0
  -22.9169   -2.5080   23.7662 F   0  0  0  0  0  0  0  0  0  0  0  0
  -19.9755   -6.2070   23.5002 F   0  0  0  0  0  0  0  0  0  0  0  0
  1  2  1  0  0  0  0
  1  5  2  0  0  0  0
  2  6  2  0  0  0  0
  3  9  2  0  0  0  0
  3 18  1  0  0  0  0
  4 10  1  0  0  0  0
  4 18  2  0  0  0  0
  5 21  1  0  0  0  0
  6 23  1  0  0  0  0
  7 11  2  0  0  0  0
  7 22  1  0  0  0  0
  8 14  2  0  0  0  0
  8 20  1  0  0  0  0
  9 25  1  0  0  0  0
 10 25  2  0  0  0  0
 11 26  1  0  0  0  0
 12 13  2  0  0  0  0
 12 27  1  0  0  0  0
 13 28  1  0  0  0  0
 14 31  1  0  0  0  0
 15 24  1  0  0  0  0
 15 26  2  0  0  0  0
 16 28  2  0  0  0  0
 16 29  1  0  0  0  0
 17 20  2  0  0  0  0
 17 68  1  0  0  0  0
 18 30  1  0  0  0  0
 19 30  1  0  0  0  0
 19 32  2  0  0  0  0
 19 33  1  0  0  0  0
 20 55  1  0  0  0  0
 21 23  2  0  0  0  0
 21 38  1  0  0  0  0
 22 24  2  0  0  0  0
 22 39  1  0  0  0  0
 23 54  1  0  0  0  0
 24 40  1  0  0  0  0
 25 85  1  0  0  0  0
 26 86  1  0  0  0  0
 27 29  2  0  0  0  0
 27 85  1  0  0  0  0
 28 87  1  0  0  0  0
 29 88  1  0  0  0  0
 30 69  2  0  0  0  0
 31 64  1  0  0  0  0
 31 68  2  0  0  0  0
 32 70  1  0  0  0  0
 32 74  1  0  0  0  0
 33 75  1  0  0  0  0
 33 80  2  0  0  0  0
 34 56  1  0  0  0  0
 34 76  1  0  0  0  0
 34 81  2  0  0  0  0
 35 65  1  0  0  0  0
 35 71  1  0  0  0  0
 35 82  2  0  0  0  0
 36 66  1  0  0  0  0
 36 77  1  0  0  0  0
 36 83  2  0  0  0  0
 37 72  1  0  0  0  0
 37 73  1  0  0  0  0
 37 84  2  0  0  0  0
 38 41  1  0  0  0  0
 39 56  1  0  0  0  0
 40 71  1  0  0  0  0
 41 44  1  0  0  0  0
 42 46  1  0  0  0  0
 42 49  1  0  0  0  0
 43 45  1  0  0  0  0
 43 53  1  0  0  0  0
 44 54  1  0  0  0  0
 45 55  1  0  0  0  0
 46 57  1  0  0  0  0
 47 50  1  0  0  0  0
 47 58  1  0  0  0  0
 48 51  1  0  0  0  0
 48 58  1  0  0  0  0
 49 72  1  0  0  0  0
 50 73  1  0  0  0  0
 51 73  1  0  0  0  0
 52 57  1  0  0  0  0
 52 72  1  0  0  0  0
 53 78  1  0  0  0  0
 54 76  1  0  0  0  0
 55 78  1  0  0  0  0
 56 71  1  0  0  0  0
 57 70  1  0  0  0  0
 58 78  1  0  0  0  0
 59 66  1  0  0  0  0
 60 67  1  0  0  0  0
 61 67  1  0  0  0  0
 62 67  1  0  0  0  0
 63 79  1  0  0  0  0
 64 86  1  0  0  0  0
 65 67  1  0  0  0  0
 65 77  1  0  0  0  0
 66 79  1  0  0  0  0
 69 70  1  0  0  0  0
M  CHG  2  78   1  79   1
M  ISO  4  37 100  64 101  73 100  86 101
M  END
> <Batch ID>
0155

> <Smiles>
CNC(C)C(=O)NC(C(=O)N1Cc2cc([101O:1][101CH2:1]c3ccc(C4CCCN4C4CC[100N:0]([100C:0](=O)N5CCCC(n6nc(-c7ccc(Oc8ccc(F)cc8F)cc7)c(C(N)=O)c6N)C5)CC4)cn3)ccc2CC1C(=O)NC1CCCc2ccccc21)C(C)(C)C

> <Shape>
0.347

> <Color>
0.084

> <Negative vol penalty>
0.000

$$$$
