
  -OEChem-04052321563D

 89 98  0     1  0  0  0  0  0999 V2000
  -27.5516  -38.1698   24.9619 C   0  0  0  0  0  0  0  0  0  0  0  0
  -28.2641  -36.9895   24.7754 C   0  0  0  0  0  0  0  0  0  0  0  0
  -23.6292  -10.2364   22.3161 C   0  0  0  0  0  0  0  0  0  0  0  0
  -22.1686  -10.5829   20.4230 C   0  0  0  0  0  0  0  0  0  0  0  0
  -26.2300  -38.1225   25.4037 C   0  0  0  0  0  0  0  0  0  0  0  0
  -27.6557  -35.7612   25.0317 C   0  0  0  0  0  0  0  0  0  0  0  0
  -28.5705  -30.5023   22.0297 C   0  0  0  0  0  0  0  0  0  0  0  0
  -23.1559   -8.9304   22.4422 C   0  0  0  0  0  0  0  0  0  0  0  0
  -21.6953   -9.2769   20.5491 C   0  0  0  0  0  0  0  0  0  0  0  0
  -29.3617  -29.3886   22.3082 C   0  0  0  0  0  0  0  0  0  0  0  0
  -23.6557   -5.9437   20.9381 C   0  0  0  0  0  0  0  0  0  0  0  0
  -24.5933   -4.9313   21.1421 C   0  0  0  0  0  0  0  0  0  0  0  0
  -26.8445  -20.9112   19.2756 C   0  0  0  0  0  0  0  0  0  0  0  0
  -25.7263  -22.6201   20.5663 C   0  0  0  0  0  0  0  0  0  0  0  0
  -27.4535  -28.2859   23.2890 C   0  0  0  0  0  0  0  0  0  0  0  0
  -23.5348   -4.3738   23.2411 C   0  0  0  0  0  0  0  0  0  0  0  0
  -23.1355  -11.0627   21.3065 C   0  0  0  0  0  0  0  0  0  0  0  0
  -24.7205  -12.8490   20.4094 C   0  0  0  0  0  0  0  0  0  0  0  0
  -25.6021  -36.8926   25.6563 C   0  0  0  0  0  0  0  0  0  0  0  0
  -27.2152  -30.5204   22.3891 C   0  0  0  0  0  0  0  0  0  0  0  0
  -26.3249  -35.6975   25.4786 C   0  0  0  0  0  0  0  0  0  0  0  0
  -26.9030  -22.0428   20.0890 C   0  0  0  0  0  0  0  0  0  0  0  0
  -26.6467  -29.4000   23.0116 C   0  0  0  0  0  0  0  0  0  0  0  0
  -25.6094  -20.3570   18.9392 C   0  0  0  0  0  0  0  0  0  0  0  0
  -24.4328  -20.9343   19.4165 C   0  0  0  0  0  0  0  0  0  0  0  0
  -22.1890   -8.4506   21.5588 C   0  0  0  0  0  0  0  0  0  0  0  0
  -28.8039  -28.2813   22.9405 C   0  0  0  0  0  0  0  0  0  0  0  0
  -22.6577   -6.1712   21.8857 C   0  0  0  0  0  0  0  0  0  0  0  0
  -24.4912  -22.0659   20.2300 C   0  0  0  0  0  0  0  0  0  0  0  0
  -24.5328   -4.1463   22.2935 C   0  0  0  0  0  0  0  0  0  0  0  0
  -22.5972   -5.3863   23.0372 C   0  0  0  0  0  0  0  0  0  0  0  0
  -23.6236  -12.4121   21.1761 C   0  0  0  0  0  0  0  0  0  0  0  0
  -24.7681  -14.2054   20.6199 C   0  0  0  0  0  0  0  0  0  0  0  0
  -25.6163  -12.0960   19.5810 C   0  0  0  0  0  0  0  0  0  0  0  0
  -25.4313  -32.3033   24.3237 C   0  0  0  0  0  0  0  0  0  0  0  0
  -23.0053  -30.5695   23.0467 C   0  0  0  0  0  0  0  0  0  0  0  0
  -21.9968  -27.6993   21.5002 C   0  0  0  0  0  0  0  0  0  0  0  0
  -22.2270  -19.1552   21.0533 C   0  0  0  0  0  0  0  0  0  0  0  0
  -24.1869  -36.8937   26.1778 C   0  0  0  0  0  0  0  0  0  0  0  0
  -26.3689  -31.7189   22.0576 C   0  0  0  0  0  0  0  0  0  0  0  0
  -25.1919  -29.3613   23.3997 C   0  0  0  0  0  0  0  0  0  0  0  0
  -23.4962  -35.5368   26.0677 C   0  0  0  0  0  0  0  0  0  0  0  0
  -22.3199  -17.1061   23.9635 C   0  0  0  0  0  0  0  0  0  0  0  0
  -24.4157  -34.4275   26.5684 C   0  0  0  0  0  0  0  0  0  0  0  0
  -22.7515  -15.7375   23.4336 C   0  0  0  0  0  0  0  0  0  0  0  0
  -28.3219  -24.0790   19.9237 C   0  0  0  0  0  0  0  0  0  0  0  0
  -28.4297  -22.6018   21.9714 C   0  0  0  0  0  0  0  0  0  0  0  0
  -21.4051  -17.8299   22.9780 C   0  0  0  0  0  0  0  0  0  0  0  0
  -22.3773  -16.5914   21.0820 C   0  0  0  0  0  0  0  0  0  0  0  0
  -29.6272  -24.7418   20.3450 C   0  0  0  0  0  0  0  0  0  0  0  0
  -29.7344  -23.2757   22.3768 C   0  0  0  0  0  0  0  0  0  0  0  0
  -28.2266  -22.6372   20.4481 C   0  0  0  0  0  0  0  0  0  0  0  0
  -25.6918  -34.3447   25.7221 C   0  0  1  0  0  0  0  0  0  0  0  0
  -25.1232  -31.8308   22.9311 C   0  0  1  0  0  0  0  0  0  0  0  0
  -23.3462  -15.8470   22.0166 C   0  0  2  0  0  0  0  0  0  0  0  0
  -25.5738  -19.1460   18.0656 C   0  0  0  0  0  0  0  0  0  0  0  0
  -19.9466  -26.5538   20.6161 C   0  0  0  0  0  0  0  0  0  0  0  0
  -22.1648  -29.8791   25.8974 C   0  0  0  0  0  0  0  0  0  0  0  0
  -20.7619  -28.0287   24.9614 C   0  0  0  0  0  0  0  0  0  0  0  0
  -20.2712  -30.3963   24.3478 C   0  0  0  0  0  0  0  0  0  0  0  0
  -23.0777  -27.6373   18.7458 C   0  0  0  0  0  0  0  0  0  0  0  0
  -23.5065  -23.7964   21.5307 C   0  0  0  0  0  0  0  0  0  0  0  0
  -23.1060  -20.3438   19.0598 C   0  0  0  0  0  0  0  0  0  0  0  0
  -30.9650  -25.4432   22.3282 C   0  0  0  0  0  0  0  0  0  0  0  0
  -30.6620  -26.9285   22.3295 C   0  0  0  0  0  0  0  0  0  1  0  0
  -22.3230  -29.2684   23.3939 C   0  0  1  0  0  0  0  0  0  0  0  0
  -21.1179  -27.4653   20.2848 C   0  0  2  0  0  0  0  0  0  0  0  0
  -21.4081  -29.3943   24.6447 C   0  0  0  0  0  0  0  0  0  0  0  0
  -23.0181  -13.4101   21.8252 N   0  0  0  0  0  0  0  0  0  0  0  0
  -23.7371  -14.4875   21.4671 N   0  0  0  0  0  0  0  0  0  0  0  0
  -24.4073  -30.5599   23.0600 N   0  0  0  0  0  0  0  0  0  0  0  0
  -22.0282  -17.9012   21.6542 N   0  0  0  0  0  0  0  0  0  0  0  0
  -25.5908  -15.1724   20.1612 N   0  0  0  0  0  0  0  0  0  0  0  0
  -25.4249  -10.7115   19.4762 N   0  0  0  0  0  0  0  0  0  0  0  0
  -25.4230  -33.6777   24.4662 N   0  0  0  0  0  0  0  0  0  0  0  0
  -21.6277  -28.8371   22.1860 N   0  0  0  0  0  0  0  0  0  0  0  0
  -22.8296  -19.1336   19.8014 N   0  0  0  0  0  0  0  0  0  0  0  0
  -29.7703  -24.6997   21.8547 N   0  3  0  0  0  0  0  0  0  0  0  0
  -21.9072  -26.8365   19.1881 N   0  3  0  0  0  0  0  0  0  0  0  0
  -26.5685  -12.6325   18.9654 O   0  0  0  0  0  0  0  0  0  0  0  0
  -25.6582  -31.4817   25.2042 O   0  0  0  0  0  0  0  0  0  0  0  0
  -22.3197  -31.5560   22.7668 O   0  0  0  0  0  0  0  0  0  0  0  0
  -22.9163  -26.9459   21.8123 O   0  0  0  0  0  0  0  0  0  0  0  0
  -21.8971  -20.2158   21.5948 O   0  0  0  0  0  0  0  0  0  0  0  0
  -21.7271   -7.1762   21.6814 O   0  0  0  0  0  0  0  0  0  0  0  0
  -23.3525  -22.6428   20.7063 O   0  0  0  0  0  0  0  0  0  0  0  0
  -29.5740  -27.1932   23.2141 O   0  0  0  0  0  0  0  0  0  1  0  0
  -25.4323   -3.1732   22.4885 F   0  0  0  0  0  0  0  0  0  0  0  0
  -21.6400   -5.5994   23.9505 F   0  0  0  0  0  0  0  0  0  0  0  0
  1  2  1  0  0  0  0
  1  5  2  0  0  0  0
  2  6  2  0  0  0  0
  3  8  2  0  0  0  0
  3 17  1  0  0  0  0
  4  9  1  0  0  0  0
  4 17  2  0  0  0  0
  5 19  1  0  0  0  0
  6 21  1  0  0  0  0
  7 10  2  0  0  0  0
  7 20  1  0  0  0  0
  8 26  1  0  0  0  0
  9 26  2  0  0  0  0
 10 27  1  0  0  0  0
 11 12  2  0  0  0  0
 11 28  1  0  0  0  0
 12 30  1  0  0  0  0
 13 22  1  0  0  0  0
 13 24  2  0  0  0  0
 14 22  2  0  0  0  0
 14 29  1  0  0  0  0
 15 23  1  0  0  0  0
 15 27  2  0  0  0  0
 16 30  2  0  0  0  0
 16 31  1  0  0  0  0
 17 32  1  0  0  0  0
 18 32  1  0  0  0  0
 18 33  2  0  0  0  0
 18 34  1  0  0  0  0
 19 21  2  0  0  0  0
 19 39  1  0  0  0  0
 20 23  2  0  0  0  0
 20 40  1  0  0  0  0
 21 53  1  0  0  0  0
 22 52  1  0  0  0  0
 23 41  1  0  0  0  0
 24 25  1  0  0  0  0
 24 56  1  0  0  0  0
 25 29  2  0  0  0  0
 25 63  1  0  0  0  0
 26 85  1  0  0  0  0
 27 87  1  0  0  0  0
 28 31  2  0  0  0  0
 28 85  1  0  0  0  0
 29 86  1  0  0  0  0
 30 88  1  0  0  0  0
 31 89  1  0  0  0  0
 32 69  2  0  0  0  0
 33 70  1  0  0  0  0
 33 73  1  0  0  0  0
 34 74  1  0  0  0  0
 34 80  2  0  0  0  0
 35 54  1  0  0  0  0
 35 75  1  0  0  0  0
 35 81  2  0  0  0  0
 36 66  1  0  0  0  0
 36 71  1  0  0  0  0
 36 82  2  0  0  0  0
 37 67  1  0  0  0  0
 37 76  1  0  0  0  0
 37 83  2  0  0  0  0
 38 72  1  0  0  0  0
 38 77  1  0  0  0  0
 38 84  2  0  0  0  0
 39 42  1  0  0  0  0
 40 54  1  0  0  0  0
 41 71  1  0  0  0  0
 42 44  1  0  0  0  0
 43 45  1  0  0  0  0
 43 48  1  0  0  0  0
 44 53  1  0  0  0  0
 45 55  1  0  0  0  0
 46 50  1  0  0  0  0
 46 52  1  0  0  0  0
 47 51  1  0  0  0  0
 47 52  1  0  0  0  0
 48 72  1  0  0  0  0
 49 55  1  0  0  0  0
 49 72  1  0  0  0  0
 50 78  1  0  0  0  0
 51 78  1  0  0  0  0
 53 75  1  0  0  0  0
 54 71  1  0  0  0  0
 55 70  1  0  0  0  0
 57 67  1  0  0  0  0
 58 68  1  0  0  0  0
 59 68  1  0  0  0  0
 60 68  1  0  0  0  0
 61 79  1  0  0  0  0
 62 86  1  0  0  0  0
 63 77  1  0  0  0  0
 64 65  1  0  0  0  0
 64 78  1  0  0  0  0
 65 87  1  0  0  0  0
 66 68  1  0  0  0  0
 66 76  1  0  0  0  0
 67 79  1  0  0  0  0
 69 70  1  0  0  0  0
M  CHG  2  78   1  79   1
M  ISO  4  38 100  65 101  77 100  87 101
M  END
> <Batch ID>
0156

> <Smiles>
CNC(C)C(=O)NC(C(=O)N1Cc2cc([101O:1][101CH2:1]CN3CCC(c4cc(C)c(C[100NH:0][100C:0](=O)N5CCCC(n6nc(-c7ccc(Oc8ccc(F)cc8F)cc7)c(C(N)=O)c6N)C5)c(OC)c4)CC3)ccc2CC1C(=O)NC1CCCc2ccccc21)C(C)(C)C

> <Shape>
0.250

> <Color>
0.095

> <Negative vol penalty>
0.000

$$$$

  -OEChem-04052321563D

 89 97  0     1  0  0  0  0  0999 V2000
  -27.3653  -31.4890   14.5460 C   0  0  0  0  0  0  0  0  0  0  0  0
  -27.8124  -30.4705   15.3816 C   0  0  0  0  0  0  0  0  0  0  0  0
  -23.3588   -9.8737   21.7791 C   0  0  0  0  0  0  0  0  0  0  0  0
  -24.1060  -11.0193   23.7707 C   0  0  0  0  0  0  0  0  0  0  0  0
  -26.1435  -32.1109   14.7991 C   0  0  0  0  0  0  0  0  0  0  0  0
  -27.0383  -30.0742   16.4716 C   0  0  0  0  0  0  0  0  0  0  0  0
  -26.7310  -25.0383   16.9076 C   0  0  0  0  0  0  0  0  0  0  0  0
  -22.6950   -8.9346   22.5683 C   0  0  0  0  0  0  0  0  0  0  0  0
  -23.4422  -10.0801   24.5600 C   0  0  0  0  0  0  0  0  0  0  0  0
  -27.8294  -24.3786   17.4571 C   0  0  0  0  0  0  0  0  0  0  0  0
  -20.2739   -9.4648   25.5619 C   0  0  0  0  0  0  0  0  0  0  0  0
  -19.5162   -9.9397   26.6324 C   0  0  0  0  0  0  0  0  0  0  0  0
  -26.6897  -24.2614   19.5799 C   0  0  0  0  0  0  0  0  0  0  0  0
  -20.8847   -8.6686   28.1650 C   0  0  0  0  0  0  0  0  0  0  0  0
  -31.2735  -18.2478   21.4362 C   0  0  0  0  0  0  0  0  0  0  0  0
  -24.0644  -10.9161   22.3803 C   0  0  0  0  0  0  0  0  0  0  0  0
  -24.2321  -13.0954   21.0649 C   0  0  0  0  0  0  0  0  0  0  0  0
  -25.3495  -31.7155   15.8871 C   0  0  0  0  0  0  0  0  0  0  0  0
  -25.6061  -25.3247   17.6944 C   0  0  0  0  0  0  0  0  0  0  0  0
  -25.8053  -30.6924   16.7404 C   0  0  0  0  0  0  0  0  0  0  0  0
  -25.5772  -24.9226   19.0374 C   0  0  0  0  0  0  0  0  0  0  0  0
  -29.0206  -17.6253   21.8762 C   0  0  0  0  0  0  0  0  0  0  0  0
  -28.6037  -18.7134   21.1176 C   0  0  0  0  0  0  0  0  0  0  0  0
  -22.7366   -9.0378   23.9588 C   0  0  0  0  0  0  0  0  0  0  0  0
  -27.8101  -23.9926   18.7941 C   0  0  0  0  0  0  0  0  0  0  0  0
  -21.3370   -8.5917   25.7929 C   0  0  0  0  0  0  0  0  0  0  0  0
  -30.3791  -17.3810   22.0434 C   0  0  0  0  0  0  0  0  0  0  0  0
  -19.8216   -9.5417   27.9339 C   0  0  0  0  0  0  0  0  0  0  0  0
  -21.6424   -8.1937   27.0945 C   0  0  0  0  0  0  0  0  0  0  0  0
  -24.7508  -11.8862   21.5656 C   0  0  0  0  0  0  0  0  0  0  0  0
  -29.5776  -19.5207   20.5520 C   0  0  0  0  0  0  0  0  0  0  0  0
  -25.2717  -13.6483   20.3579 C   0  0  0  0  0  0  0  0  0  0  0  0
  -22.9273  -13.6676   21.2248 C   0  0  0  0  0  0  0  0  0  0  0  0
  -24.1377  -27.9862   18.6241 C   0  0  0  0  0  0  0  0  0  0  0  0
  -21.9670  -25.9019   19.8349 C   0  0  0  0  0  0  0  0  0  0  0  0
  -21.2961  -22.7593   20.9843 C   0  0  0  0  0  0  0  0  0  0  0  0
  -31.2188  -13.0513   20.7144 C   0  0  0  0  0  0  0  0  0  0  0  0
  -24.0580  -32.4495   16.1481 C   0  0  0  0  0  0  0  0  0  0  0  0
  -24.4185  -26.0134   17.0797 C   0  0  0  0  0  0  0  0  0  0  0  0
  -24.3855  -25.1884   19.9193 C   0  0  0  0  0  0  0  0  0  0  0  0
  -23.1230  -31.7154   17.1057 C   0  0  0  0  0  0  0  0  0  0  0  0
  -29.1719  -12.4323   17.8677 C   0  0  0  0  0  0  0  0  0  0  0  0
  -23.8920  -31.2161   18.3249 C   0  0  0  0  0  0  0  0  0  0  0  0
  -27.7599  -12.3313   18.4474 C   0  0  0  0  0  0  0  0  0  0  0  0
  -30.2128  -11.8296   18.8086 C   0  0  0  0  0  0  0  0  0  0  0  0
  -28.7753  -12.2618   20.7633 C   0  0  0  0  0  0  0  0  0  0  0  0
  -24.9825  -30.2176   17.9183 C   0  0  1  0  0  0  0  0  0  0  0  0
  -23.5337  -26.7107   18.1084 C   0  0  1  0  0  0  0  0  0  0  0  0
  -27.6975  -12.9067   19.8751 C   0  0  2  0  0  0  0  0  0  0  0  0
  -26.3521  -16.4288   24.3967 C   0  0  0  0  0  0  0  0  0  0  0  0
  -26.7378  -18.9263   19.4363 C   0  0  0  0  0  0  0  0  0  0  0  0
  -26.7425  -20.3690   21.5036 C   0  0  0  0  0  0  0  0  0  0  0  0
  -19.4412  -21.3660   21.9410 C   0  0  0  0  0  0  0  0  0  0  0  0
  -22.2918  -27.3167   22.5187 C   0  0  0  0  0  0  0  0  0  0  0  0
  -21.1927  -25.3496   23.6098 C   0  0  0  0  0  0  0  0  0  0  0  0
  -19.9363  -26.7093   21.9379 C   0  0  0  0  0  0  0  0  0  0  0  0
  -21.4159  -20.8444   18.7309 C   0  0  0  0  0  0  0  0  0  0  0  0
  -28.0179  -16.7173   22.5123 C   0  0  0  0  0  0  0  0  0  0  0  0
  -27.3958  -17.3397   23.7700 C   0  0  0  0  0  0  0  0  0  0  0  0
  -32.0792  -14.2756   22.6943 C   0  0  0  0  0  0  0  0  0  0  0  0
  -32.0872  -15.7637   22.3935 C   0  0  0  0  0  0  0  0  0  0  0  0
  -29.6582  -22.5345   18.4561 C   0  0  0  0  0  0  0  0  0  1  0  0
  -30.2588  -21.3885   19.2470 C   0  0  0  0  0  0  0  0  0  0  0  0
  -27.1549  -19.0057   20.9170 C   0  0  0  0  0  0  0  0  0  0  0  0
  -21.7930  -25.1841   21.1515 C   0  0  1  0  0  0  0  0  0  0  0  0
  -20.1668  -21.7933   20.6746 C   0  0  2  0  0  0  0  0  0  0  0  0
  -21.3268  -26.1365   22.2887 C   0  0  0  0  0  0  0  0  0  0  0  0
  -30.9064  -19.3151   20.6922 N   0  0  0  0  0  0  0  0  0  0  0  0
  -26.0212  -11.6823   21.2069 N   0  0  0  0  0  0  0  0  0  0  0  0
  -26.3094  -12.7708   20.4732 N   0  0  0  0  0  0  0  0  0  0  0  0
  -23.2515  -25.8702   19.2737 N   0  0  0  0  0  0  0  0  0  0  0  0
  -30.1011  -12.4190   20.1451 N   0  0  0  0  0  0  0  0  0  0  0  0
  -25.3903  -14.7947   19.6549 N   0  0  0  0  0  0  0  0  0  0  0  0
  -21.9788  -12.9672   21.9826 N   0  0  0  0  0  0  0  0  0  0  0  0
  -24.4026  -28.9208   17.6414 N   0  0  0  0  0  0  0  0  0  0  0  0
  -20.8845  -24.0722   20.8933 N   0  0  0  0  0  0  0  0  0  0  0  0
  -31.0255  -13.5887   21.9811 N   0  0  0  0  0  0  0  0  0  0  0  0
  -20.6980  -20.5736   20.0030 N   0  3  0  0  0  0  0  0  0  0  0  0
  -22.6066  -14.7596   20.6973 O   0  0  0  0  0  0  0  0  0  0  0  0
  -24.3466  -28.1135   19.8249 O   0  0  0  0  0  0  0  0  0  0  0  0
  -20.9972  -26.4638   19.3197 O   0  0  0  0  0  0  0  0  0  0  0  0
  -22.4290  -22.3866   21.2810 O   0  0  0  0  0  0  0  0  0  0  0  0
  -32.3067  -13.1356   20.1345 O   0  0  0  0  0  0  0  0  0  0  0  0
  -22.0887   -8.1217   24.7292 O   0  0  0  0  0  0  0  0  0  0  0  0
  -28.8812  -23.3490   19.3331 O   0  0  0  0  0  0  0  0  0  1  0  0
  -30.8332  -16.3315   22.7748 O   0  0  0  0  0  0  0  0  0  0  0  0
  -29.2084  -20.6031   19.7975 O   0  0  0  0  0  0  0  0  0  0  0  0
  -19.0949   -9.9990   28.9619 F   0  0  0  0  0  0  0  0  0  0  0  0
  -22.6632   -7.3560   27.3227 F   0  0  0  0  0  0  0  0  0  0  0  0
  1  2  1  0  0  0  0
  1  5  2  0  0  0  0
  2  6  2  0  0  0  0
  3  8  2  0  0  0  0
  3 16  1  0  0  0  0
  4  9  1  0  0  0  0
  4 16  2  0  0  0  0
  5 18  1  0  0  0  0
  6 20  1  0  0  0  0
  7 10  2  0  0  0  0
  7 19  1  0  0  0  0
  8 24  1  0  0  0  0
  9 24  2  0  0  0  0
 10 25  1  0  0  0  0
 11 12  2  0  0  0  0
 11 26  1  0  0  0  0
 12 28  1  0  0  0  0
 13 21  1  0  0  0  0
 13 25  2  0  0  0  0
 14 28  2  0  0  0  0
 14 29  1  0  0  0  0
 15 27  2  0  0  0  0
 15 68  1  0  0  0  0
 16 30  1  0  0  0  0
 17 30  1  0  0  0  0
 17 32  2  0  0  0  0
 17 33  1  0  0  0  0
 18 20  2  0  0  0  0
 18 38  1  0  0  0  0
 19 21  2  0  0  0  0
 19 39  1  0  0  0  0
 20 47  1  0  0  0  0
 21 40  1  0  0  0  0
 22 23  2  0  0  0  0
 22 27  1  0  0  0  0
 22 58  1  0  0  0  0
 23 31  1  0  0  0  0
 23 64  1  0  0  0  0
 24 84  1  0  0  0  0
 25 85  1  0  0  0  0
 26 29  2  0  0  0  0
 26 84  1  0  0  0  0
 27 86  1  0  0  0  0
 28 88  1  0  0  0  0
 29 89  1  0  0  0  0
 30 69  2  0  0  0  0
 31 68  2  0  0  0  0
 31 87  1  0  0  0  0
 32 70  1  0  0  0  0
 32 73  1  0  0  0  0
 33 74  1  0  0  0  0
 33 79  2  0  0  0  0
 34 48  1  0  0  0  0
 34 75  1  0  0  0  0
 34 80  2  0  0  0  0
 35 65  1  0  0  0  0
 35 71  1  0  0  0  0
 35 81  2  0  0  0  0
 36 66  1  0  0  0  0
 36 76  1  0  0  0  0
 36 82  2  0  0  0  0
 37 72  1  0  0  0  0
 37 77  1  0  0  0  0
 37 83  2  0  0  0  0
 38 41  1  0  0  0  0
 39 48  1  0  0  0  0
 40 71  1  0  0  0  0
 41 43  1  0  0  0  0
 42 44  1  0  0  0  0
 42 45  1  0  0  0  0
 43 47  1  0  0  0  0
 44 49  1  0  0  0  0
 45 72  1  0  0  0  0
 46 49  1  0  0  0  0
 46 72  1  0  0  0  0
 47 75  1  0  0  0  0
 48 71  1  0  0  0  0
 49 70  1  0  0  0  0
 50 59  1  0  0  0  0
 51 64  1  0  0  0  0
 52 64  1  0  0  0  0
 53 66  1  0  0  0  0
 54 67  1  0  0  0  0
 55 67  1  0  0  0  0
 56 67  1  0  0  0  0
 57 78  1  0  0  0  0
 58 59  1  0  0  0  0
 60 61  1  0  0  0  0
 60 77  1  0  0  0  0
 61 86  1  0  0  0  0
 62 63  1  0  0  0  0
 62 85  1  0  0  0  0
 63 87  1  0  0  0  0
 65 67  1  0  0  0  0
 65 76  1  0  0  0  0
 66 78  1  0  0  0  0
 69 70  1  0  0  0  0
M  CHG  1  78   1
M  ISO  4  37 100  62 101  77 100  85 101
M  END
> <Batch ID>
0156

> <Smiles>
CCCc1c(OCC[100NH:0][100C:0](=O)N2CCCC(n3nc(-c4ccc(Oc5ccc(F)cc5F)cc4)c(C(N)=O)c3N)C2)cnc(OC[101CH2:1][101O:1]c2ccc3c(c2)CN(C(=O)C(NC(=O)C(C)NC)C(C)(C)C)C(C(=O)NC2CCCc4ccccc42)C3)c1C(C)C

> <Shape>
0.212

> <Color>
0.134

> <Negative vol penalty>
0.000

$$$$

  -OEChem-04052321563D

 89 99  0     1  0  0  0  0  0999 V2000
  -29.4429  -13.1487   18.7407 C   0  0  0  0  0  0  0  0  0  0  0  0
  -28.4153  -13.7306   18.0053 C   0  0  0  0  0  0  0  0  0  0  0  0
  -28.7880  -23.4811   21.2827 C   0  0  0  0  0  0  0  0  0  0  0  0
  -28.1200  -23.8463   18.9898 C   0  0  0  0  0  0  0  0  0  0  0  0
  -29.1885  -12.6484   20.0170 C   0  0  0  0  0  0  0  0  0  0  0  0
  -27.1323  -13.8116   18.5455 C   0  0  0  0  0  0  0  0  0  0  0  0
  -23.8567  -20.1723   19.3842 C   0  0  0  0  0  0  0  0  0  0  0  0
  -28.4210  -22.1396   21.1760 C   0  0  0  0  0  0  0  0  0  0  0  0
  -27.7530  -22.5048   18.8831 C   0  0  0  0  0  0  0  0  0  0  0  0
  -23.0808  -21.3317   19.3814 C   0  0  0  0  0  0  0  0  0  0  0  0
  -29.7140  -19.2992   19.8749 C   0  0  0  0  0  0  0  0  0  0  0  0
  -30.5931  -18.3441   20.3852 C   0  0  0  0  0  0  0  0  0  0  0  0
  -21.2539  -20.1243   20.4073 C   0  0  0  0  0  0  0  0  0  0  0  0
  -21.0196  -27.1866   22.0406 C   0  0  0  0  0  0  0  0  0  0  0  0
  -18.4763  -27.9301   22.9131 C   0  0  0  0  0  0  0  0  0  0  0  0
  -28.8786  -17.5787   21.9057 C   0  0  0  0  0  0  0  0  0  0  0  0
  -28.6375  -24.3344   20.1896 C   0  0  0  0  0  0  0  0  0  0  0  0
  -30.2926  -26.2317   20.5999 C   0  0  0  0  0  0  0  0  0  0  0  0
  -27.9039  -12.7321   20.5769 C   0  0  0  0  0  0  0  0  0  0  0  0
  -23.3390  -18.9869   19.9134 C   0  0  0  0  0  0  0  0  0  0  0  0
  -26.8601  -13.3108   19.8299 C   0  0  0  0  0  0  0  0  0  0  0  0
  -22.0309  -18.9630   20.4243 C   0  0  0  0  0  0  0  0  0  0  0  0
  -19.9775  -26.2597   22.0225 C   0  0  0  0  0  0  0  0  0  0  0  0
  -18.7058  -26.6314   22.4588 C   0  0  0  0  0  0  0  0  0  0  0  0
  -19.5184  -28.8571   22.9312 C   0  0  0  0  0  0  0  0  0  0  0  0
  -27.9035  -21.6515   19.9762 C   0  0  0  0  0  0  0  0  0  0  0  0
  -21.7825  -21.3076   19.8914 C   0  0  0  0  0  0  0  0  0  0  0  0
  -28.4173  -19.3942   20.3800 C   0  0  0  0  0  0  0  0  0  0  0  0
  -20.7901  -28.4853   22.4950 C   0  0  0  0  0  0  0  0  0  0  0  0
  -30.1754  -17.4838   21.4006 C   0  0  0  0  0  0  0  0  0  0  0  0
  -27.9996  -18.5339   21.3954 C   0  0  0  0  0  0  0  0  0  0  0  0
  -29.0159  -25.7204   20.2994 C   0  0  0  0  0  0  0  0  0  0  0  0
  -30.1286  -27.5953   20.5851 C   0  0  0  0  0  0  0  0  0  0  0  0
  -31.5174  -25.5364   20.8682 C   0  0  0  0  0  0  0  0  0  0  0  0
  -23.9128  -15.3632   20.6981 C   0  0  0  0  0  0  0  0  0  0  0  0
  -22.3761  -16.5561   23.0700 C   0  0  0  0  0  0  0  0  0  0  0  0
  -21.0585  -18.3465   25.6576 C   0  0  0  0  0  0  0  0  0  0  0  0
  -25.3589  -31.1098   21.4231 C   0  0  0  0  0  0  0  0  0  0  0  0
  -27.6664  -12.1348   21.9413 C   0  0  0  0  0  0  0  0  0  0  0  0
  -24.1168  -17.6993   19.8810 C   0  0  0  0  0  0  0  0  0  0  0  0
  -21.5032  -17.6567   20.9518 C   0  0  0  0  0  0  0  0  0  0  0  0
  -26.3643  -12.5971   22.5903 C   0  0  0  0  0  0  0  0  0  0  0  0
  -27.4908  -31.0409   18.6091 C   0  0  0  0  0  0  0  0  0  0  0  0
  -21.3215  -24.0923   22.3320 C   0  0  0  0  0  0  0  0  0  0  0  0
  -25.2133  -12.5187   21.5924 C   0  0  0  0  0  0  0  0  0  0  0  0
  -28.2240  -29.7073   18.7237 C   0  0  0  0  0  0  0  0  0  0  0  0
  -22.4395  -23.7713   21.3418 C   0  0  0  0  0  0  0  0  0  0  0  0
  -23.2473  -30.1511   24.3095 C   0  0  0  0  0  0  0  0  0  0  0  0
  -20.7306  -24.8320   20.0609 C   0  0  0  0  0  0  0  0  0  0  0  0
  -26.0428  -30.9018   19.0592 C   0  0  0  0  0  0  0  0  0  0  0  0
  -23.9889  -31.1908   23.4816 C   0  0  0  0  0  0  0  0  0  0  0  0
  -26.6426  -29.0687   20.6178 C   0  0  0  0  0  0  0  0  0  0  0  0
  -24.2024  -29.0454   22.4197 C   0  0  0  0  0  0  0  0  0  0  0  0
  -20.2510  -24.8574   21.5265 C   0  0  2  0  0  0  0  0  0  0  0  0
  -25.4607  -13.4395   20.3913 C   0  0  1  0  0  0  0  0  0  0  0  0
  -23.8561  -16.8058   21.1069 C   0  0  1  0  0  0  0  0  0  0  0  0
  -28.1106  -29.1472   20.1501 C   0  0  1  0  0  0  0  0  0  0  0  0
  -21.7290  -23.6840   19.9999 C   0  0  2  0  0  0  0  0  0  1  0  0
  -22.9568  -29.0479   23.2977 C   0  0  2  0  0  0  0  0  0  0  0  0
  -17.5748  -25.6561   22.4480 C   0  0  0  0  0  0  0  0  0  0  0  0
  -19.2551  -30.2424   23.4220 C   0  0  0  0  0  0  0  0  0  0  0  0
  -20.1954  -18.0806   27.9989 C   0  0  0  0  0  0  0  0  0  0  0  0
  -19.7964  -15.3492   21.9781 C   0  0  0  0  0  0  0  0  0  0  0  0
  -18.6741  -15.9851   24.1239 C   0  0  0  0  0  0  0  0  0  0  0  0
  -20.5730  -14.3676   24.1432 C   0  0  0  0  0  0  0  0  0  0  0  0
  -23.1261  -20.1606   26.7497 C   0  0  0  0  0  0  0  0  0  0  0  0
  -21.0338  -16.8148   23.7063 C   0  0  1  0  0  0  0  0  0  0  0  0
  -21.4078  -18.3891   27.1343 C   0  0  2  0  0  0  0  0  0  0  0  0
  -20.0323  -15.6489   23.4719 C   0  0  0  0  0  0  0  0  0  0  0  0
  -28.1077  -26.6808   20.1080 N   0  0  0  0  0  0  0  0  0  0  0  0
  -28.8146  -27.8094   20.2886 N   0  0  0  0  0  0  0  0  0  0  0  0
  -22.5405  -16.9797   21.7457 N   0  0  0  0  0  0  0  0  0  0  0  0
  -25.9446  -30.3439   20.4092 N   0  0  0  0  0  0  0  0  0  0  0  0
  -24.6608  -30.4392   22.4271 N   0  0  0  0  0  0  0  0  0  0  0  0
  -30.9814  -28.6201   20.7970 N   0  0  0  0  0  0  0  0  0  0  0  0
  -32.3627  -25.2324   19.7924 N   0  0  0  0  0  0  0  0  0  0  0  0
  -25.1804  -14.8151   20.7429 N   0  0  0  0  0  0  0  0  0  0  0  0
  -21.2971  -17.1029   25.1120 N   0  0  0  0  0  0  0  0  0  0  0  0
  -21.9197  -19.7382   27.5068 N   0  3  0  0  0  0  0  0  0  0  0  0
  -31.8446  -25.1801   22.0256 O   0  0  0  0  0  0  0  0  0  0  0  0
  -22.8824  -14.7880   20.3675 O   0  0  0  0  0  0  0  0  0  0  0  0
  -23.2548  -15.9889   23.7253 O   0  0  0  0  0  0  0  0  0  0  0  0
  -20.6145  -19.3181   25.0499 O   0  0  0  0  0  0  0  0  0  0  0  0
  -25.4195  -32.3468   21.4103 O   0  0  0  0  0  0  0  0  0  0  0  0
  -27.5455  -20.3425   19.8717 O   0  0  0  0  0  0  0  0  0  0  0  0
  -21.0269  -22.4520   19.8897 O   0  0  0  0  0  0  0  0  0  1  0  0
  -21.8248  -29.3836   22.5054 O   0  0  0  0  0  0  0  0  0  0  0  0
  -31.0192  -16.5656   21.8896 F   0  0  0  0  0  0  0  0  0  0  0  0
  -26.7546  -18.6195   21.8838 F   0  0  0  0  0  0  0  0  0  0  0  0
  1  2  1  0  0  0  0
  1  5  2  0  0  0  0
  2  6  2  0  0  0  0
  3  8  2  0  0  0  0
  3 17  1  0  0  0  0
  4  9  1  0  0  0  0
  4 17  2  0  0  0  0
  5 19  1  0  0  0  0
  6 21  1  0  0  0  0
  7 10  2  0  0  0  0
  7 20  1  0  0  0  0
  8 26  1  0  0  0  0
  9 26  2  0  0  0  0
 10 27  1  0  0  0  0
 11 12  2  0  0  0  0
 11 28  1  0  0  0  0
 12 30  1  0  0  0  0
 13 22  1  0  0  0  0
 13 27  2  0  0  0  0
 14 23  1  0  0  0  0
 14 29  2  0  0  0  0
 15 24  1  0  0  0  0
 15 25  2  0  0  0  0
 16 30  2  0  0  0  0
 16 31  1  0  0  0  0
 17 32  1  0  0  0  0
 18 32  1  0  0  0  0
 18 33  2  0  0  0  0
 18 34  1  0  0  0  0
 19 21  2  0  0  0  0
 19 39  1  0  0  0  0
 20 22  2  0  0  0  0
 20 40  1  0  0  0  0
 21 55  1  0  0  0  0
 22 41  1  0  0  0  0
 23 24  2  0  0  0  0
 23 54  1  0  0  0  0
 24 60  1  0  0  0  0
 25 29  1  0  0  0  0
 25 61  1  0  0  0  0
 26 85  1  0  0  0  0
 27 86  1  0  0  0  0
 28 31  2  0  0  0  0
 28 85  1  0  0  0  0
 29 87  1  0  0  0  0
 30 88  1  0  0  0  0
 31 89  1  0  0  0  0
 32 70  2  0  0  0  0
 33 71  1  0  0  0  0
 33 75  1  0  0  0  0
 34 76  1  0  0  0  0
 34 80  2  0  0  0  0
 35 56  1  0  0  0  0
 35 77  1  0  0  0  0
 35 81  2  0  0  0  0
 36 67  1  0  0  0  0
 36 72  1  0  0  0  0
 36 82  2  0  0  0  0
 37 68  1  0  0  0  0
 37 78  1  0  0  0  0
 37 83  2  0  0  0  0
 38 73  1  0  0  0  0
 38 74  1  0  0  0  0
 38 84  2  0  0  0  0
 39 42  1  0  0  0  0
 40 56  1  0  0  0  0
 41 72  1  0  0  0  0
 42 45  1  0  0  0  0
 43 46  1  0  0  0  0
 43 50  1  0  0  0  0
 44 47  1  0  0  0  0
 44 54  1  0  0  0  0
 45 55  1  0  0  0  0
 46 57  1  0  0  0  0
 47 58  1  0  0  0  0
 48 51  1  0  0  0  0
 48 59  1  0  0  0  0
 49 54  1  0  0  0  0
 49 58  1  0  0  0  0
 50 73  1  0  0  0  0
 51 74  1  0  0  0  0
 52 57  1  0  0  0  0
 52 73  1  0  0  0  0
 53 59  1  0  0  0  0
 53 74  1  0  0  0  0
 55 77  1  0  0  0  0
 56 72  1  0  0  0  0
 57 71  1  0  0  0  0
 58 86  1  0  0  0  0
 59 87  1  0  0  0  0
 62 68  1  0  0  0  0
 63 69  1  0  0  0  0
 64 69  1  0  0  0  0
 65 69  1  0  0  0  0
 66 79  1  0  0  0  0
 67 69  1  0  0  0  0
 67 78  1  0  0  0  0
 68 79  1  0  0  0  0
 70 71  1  0  0  0  0
M  CHG  1  79   1
M  ISO  4  38 100  58 101  74 100  86 101
M  END
> <Batch ID>
0156

> <Smiles>
CNC(C)C(=O)NC(C(=O)N1Cc2cc([101O:1][101CH:1]3CCC(c4cc(OC5CC[100N:0]([100C:0](=O)N6CCCC(n7nc(-c8ccc(Oc9ccc(F)cc9F)cc8)c(C(N)=O)c7N)C6)C5)c(C)cc4C)C3)ccc2CC1C(=O)NC1CCCc2ccccc21)C(C)(C)C

> <Shape>
0.276

> <Color>
0.071

> <Negative vol penalty>
0.000

$$$$

  -OEChem-04052321563D

 87 96  0     1  0  0  0  0  0999 V2000
  -32.0196  -22.4351   10.0744 C   0  0  0  0  0  0  0  0  0  0  0  0
  -31.2870  -21.5135   10.8157 C   0  0  0  0  0  0  0  0  0  0  0  0
  -23.0737   -9.8713   19.9394 C   0  0  0  0  0  0  0  0  0  0  0  0
  -23.8396   -9.8730   22.2308 C   0  0  0  0  0  0  0  0  0  0  0  0
  -32.3149  -23.6859   10.6150 C   0  0  0  0  0  0  0  0  0  0  0  0
  -30.8503  -21.8418   12.0986 C   0  0  0  0  0  0  0  0  0  0  0  0
  -25.4206  -20.6620   16.6200 C   0  0  0  0  0  0  0  0  0  0  0  0
  -22.3311   -8.7172   20.1884 C   0  0  0  0  0  0  0  0  0  0  0  0
  -23.0968   -8.7189   22.4799 C   0  0  0  0  0  0  0  0  0  0  0  0
  -25.1796  -20.2412   17.9271 C   0  0  0  0  0  0  0  0  0  0  0  0
  -19.8706   -7.9181   23.0888 C   0  0  0  0  0  0  0  0  0  0  0  0
  -19.1168   -7.8750   24.2616 C   0  0  0  0  0  0  0  0  0  0  0  0
  -28.7012  -20.3956   20.6141 C   0  0  0  0  0  0  0  0  0  0  0  0
  -25.6809  -22.4609   18.7278 C   0  0  0  0  0  0  0  0  0  0  0  0
  -20.3610   -5.9363   24.9901 C   0  0  0  0  0  0  0  0  0  0  0  0
  -23.8280  -10.4492   20.9605 C   0  0  0  0  0  0  0  0  0  0  0  0
  -24.1684  -12.9748   20.8457 C   0  0  0  0  0  0  0  0  0  0  0  0
  -31.8733  -24.0332   11.9015 C   0  0  0  0  0  0  0  0  0  0  0  0
  -25.8049  -21.9848   16.3576 C   0  0  0  0  0  0  0  0  0  0  0  0
  -31.1411  -23.0979   12.6575 C   0  0  0  0  0  0  0  0  0  0  0  0
  -29.8704  -20.0165   19.9405 C   0  0  0  0  0  0  0  0  0  0  0  0
  -25.9238  -22.8966   17.4162 C   0  0  0  0  0  0  0  0  0  0  0  0
  -30.5555  -18.8554   20.3392 C   0  0  0  0  0  0  0  0  0  0  0  0
  -28.2294  -19.6435   21.6895 C   0  0  0  0  0  0  0  0  0  0  0  0
  -30.0784  -18.1137   21.4291 C   0  0  0  0  0  0  0  0  0  0  0  0
  -28.9188  -18.5048   22.0982 C   0  0  0  0  0  0  0  0  0  0  0  0
  -22.3426   -8.1410   21.4587 C   0  0  0  0  0  0  0  0  0  0  0  0
  -25.3125  -21.1399   18.9815 C   0  0  0  0  0  0  0  0  0  0  0  0
  -20.8697   -6.9703   22.8666 C   0  0  0  0  0  0  0  0  0  0  0  0
  -19.3619   -6.8841   25.2122 C   0  0  0  0  0  0  0  0  0  0  0  0
  -21.1148   -5.9795   23.8173 C   0  0  0  0  0  0  0  0  0  0  0  0
  -24.5959  -11.6410   20.7037 C   0  0  0  0  0  0  0  0  0  0  0  0
  -25.2592  -13.7257   20.4815 C   0  0  0  0  0  0  0  0  0  0  0  0
  -22.8987  -13.4890   21.2692 C   0  0  0  0  0  0  0  0  0  0  0  0
  -28.3717  -23.3654   15.0889 C   0  0  0  0  0  0  0  0  0  0  0  0
  -26.5787  -26.0549   15.3608 C   0  0  0  0  0  0  0  0  0  0  0  0
  -24.0144  -27.6823   16.9172 C   0  0  0  0  0  0  0  0  0  0  0  0
  -30.7430  -14.7468   20.6581 C   0  0  0  0  0  0  0  0  0  0  0  0
  -32.2575  -25.3797   12.4619 C   0  0  0  0  0  0  0  0  0  0  0  0
  -26.0353  -22.4299   14.9394 C   0  0  0  0  0  0  0  0  0  0  0  0
  -31.8307  -18.4353   19.6537 C   0  0  0  0  0  0  0  0  0  0  0  0
  -26.3141  -24.3329   17.1857 C   0  0  0  0  0  0  0  0  0  0  0  0
  -30.3443  -20.8276   18.7656 C   0  0  0  0  0  0  0  0  0  0  0  0
  -31.4369  -25.7879   13.6827 C   0  0  0  0  0  0  0  0  0  0  0  0
  -29.6003  -12.3676   18.2685 C   0  0  0  0  0  0  0  0  0  0  0  0
  -31.3393  -24.6307   14.6717 C   0  0  0  0  0  0  0  0  0  0  0  0
  -28.1641  -12.0721   18.7044 C   0  0  0  0  0  0  0  0  0  0  0  0
  -30.5204  -12.5859   19.4675 C   0  0  0  0  0  0  0  0  0  0  0  0
  -28.6219  -13.3127   20.8608 C   0  0  0  0  0  0  0  0  0  0  0  0
  -31.9859  -19.0245   18.2560 C   0  0  0  0  0  0  0  0  0  0  0  0
  -30.6285  -23.4261   14.0430 C   0  0  1  0  0  0  0  0  0  0  0  0
  -26.9214  -23.6677   14.8381 C   0  0  1  0  0  0  0  0  0  0  0  0
  -27.6448  -13.1406   19.6853 C   0  0  2  0  0  0  0  0  0  0  0  0
  -28.4119  -17.7051   23.2571 C   0  0  0  0  0  0  0  0  0  0  0  0
  -22.8097  -29.8835   16.9503 C   0  0  0  0  0  0  0  0  0  0  0  0
  -28.9105  -27.3054   16.8803 C   0  0  0  0  0  0  0  0  0  0  0  0
  -27.3406  -29.0797   17.6899 C   0  0  0  0  0  0  0  0  0  0  0  0
  -27.7894  -28.8334   15.2485 C   0  0  0  0  0  0  0  0  0  0  0  0
  -32.1275  -21.2123   17.0540 C   0  0  0  0  0  0  0  0  0  0  0  0
  -21.4472  -26.4206   16.1577 C   0  0  0  0  0  0  0  0  0  0  0  0
  -26.9717  -20.0872   22.3929 C   0  0  0  0  0  0  0  0  0  0  0  0
  -30.8110  -16.8944   21.9000 C   0  0  0  0  0  0  0  0  0  0  0  0
  -25.7383  -19.2565   22.0318 C   0  0  0  0  0  0  0  0  0  0  0  0
  -25.3473  -19.3635   20.5625 C   0  0  0  0  0  0  0  0  0  1  0  0
  -26.3764  -27.1014   16.4299 C   0  0  1  0  0  0  0  0  0  0  0  0
  -22.8457  -28.4796   16.3668 C   0  0  2  0  0  0  0  0  0  0  0  0
  -27.5988  -28.0525   16.5670 C   0  0  0  0  0  0  0  0  0  0  0  0
  -25.8597  -11.5468   20.2819 N   0  0  0  0  0  0  0  0  0  0  0  0
  -26.2357  -12.8309   20.1557 N   0  0  0  0  0  0  0  0  0  0  0  0
  -26.5348  -24.7183   15.7820 N   0  0  0  0  0  0  0  0  0  0  0  0
  -29.9717  -13.6120   20.3574 N   0  0  0  0  0  0  0  0  0  0  0  0
  -25.4688  -15.0574   20.4111 N   0  0  0  0  0  0  0  0  0  0  0  0
  -21.8881  -12.5785   21.6069 N   0  0  0  0  0  0  0  0  0  0  0  0
  -29.1976  -23.6413   14.0160 N   0  0  0  0  0  0  0  0  0  0  0  0
  -25.1255  -27.7788   16.1065 N   0  0  0  0  0  0  0  0  0  0  0  0
  -30.1456  -15.6733   21.5039 N   0  0  0  0  0  0  0  0  0  0  0  0
  -31.7619  -20.5135   18.3325 N   0  3  1  0  0  0  0  0  0  0  0  0
  -21.5582  -27.8027   16.6912 N   0  3  0  0  0  0  0  0  0  0  0  0
  -22.6621  -14.7193   21.3302 O   0  0  0  0  0  0  0  0  0  0  0  0
  -28.7161  -22.9165   16.1759 O   0  0  0  0  0  0  0  0  0  0  0  0
  -26.7616  -26.4101   14.1938 O   0  0  0  0  0  0  0  0  0  0  0  0
  -23.9493  -27.0413   17.9638 O   0  0  0  0  0  0  0  0  0  0  0  0
  -31.8777  -14.9239   20.2019 O   0  0  0  0  0  0  0  0  0  0  0  0
  -21.6178   -7.0149   21.7022 O   0  0  0  0  0  0  0  0  0  0  0  0
  -25.0784  -20.7316   20.2584 O   0  0  0  0  0  0  0  0  0  1  0  0
  -18.6389   -6.8437   26.3391 F   0  0  0  0  0  0  0  0  0  0  0  0
  -22.0741   -5.0669   23.6099 F   0  0  0  0  0  0  0  0  0  0  0  0
  1  2  1  0  0  0  0
  1  5  2  0  0  0  0
  2  6  2  0  0  0  0
  3  8  2  0  0  0  0
  3 16  1  0  0  0  0
  4  9  1  0  0  0  0
  4 16  2  0  0  0  0
  5 18  1  0  0  0  0
  6 20  1  0  0  0  0
  7 10  2  0  0  0  0
  7 19  1  0  0  0  0
  8 27  1  0  0  0  0
  9 27  2  0  0  0  0
 10 28  1  0  0  0  0
 11 12  2  0  0  0  0
 11 29  1  0  0  0  0
 12 30  1  0  0  0  0
 13 21  2  0  0  0  0
 13 24  1  0  0  0  0
 14 22  1  0  0  0  0
 14 28  2  0  0  0  0
 15 30  2  0  0  0  0
 15 31  1  0  0  0  0
 16 32  1  0  0  0  0
 17 32  1  0  0  0  0
 17 33  2  0  0  0  0
 17 34  1  0  0  0  0
 18 20  2  0  0  0  0
 18 39  1  0  0  0  0
 19 22  2  0  0  0  0
 19 40  1  0  0  0  0
 20 51  1  0  0  0  0
 21 23  1  0  0  0  0
 21 43  1  0  0  0  0
 22 42  1  0  0  0  0
 23 25  2  0  0  0  0
 23 41  1  0  0  0  0
 24 26  2  0  0  0  0
 24 61  1  0  0  0  0
 25 26  1  0  0  0  0
 25 62  1  0  0  0  0
 26 54  1  0  0  0  0
 27 84  1  0  0  0  0
 28 85  1  0  0  0  0
 29 31  2  0  0  0  0
 29 84  1  0  0  0  0
 30 86  1  0  0  0  0
 31 87  1  0  0  0  0
 32 68  2  0  0  0  0
 33 69  1  0  0  0  0
 33 72  1  0  0  0  0
 34 73  1  0  0  0  0
 34 79  2  0  0  0  0
 35 52  1  0  0  0  0
 35 74  1  0  0  0  0
 35 80  2  0  0  0  0
 36 65  1  0  0  0  0
 36 70  1  0  0  0  0
 36 81  2  0  0  0  0
 37 66  1  0  0  0  0
 37 75  1  0  0  0  0
 37 82  2  0  0  0  0
 38 71  1  0  0  0  0
 38 76  1  0  0  0  0
 38 83  2  0  0  0  0
 39 44  1  0  0  0  0
 40 52  1  0  0  0  0
 41 50  1  0  0  0  0
 42 70  1  0  0  0  0
 43 77  1  0  0  0  0
 44 46  1  0  0  0  0
 45 47  1  0  0  0  0
 45 48  1  0  0  0  0
 46 51  1  0  0  0  0
 47 53  1  0  0  0  0
 48 71  1  0  0  0  0
 49 53  1  0  0  0  0
 49 71  1  0  0  0  0
 50 77  1  0  0  0  0
 51 74  1  0  0  0  0
 52 70  1  0  0  0  0
 53 69  1  0  0  0  0
 55 66  1  0  0  0  0
 56 67  1  0  0  0  0
 57 67  1  0  0  0  0
 58 67  1  0  0  0  0
 59 77  1  0  0  0  0
 60 78  1  0  0  0  0
 61 63  1  0  0  0  0
 62 76  1  0  0  0  0
 63 64  1  0  0  0  0
 64 85  1  0  0  0  0
 65 67  1  0  0  0  0
 65 75  1  0  0  0  0
 66 78  1  0  0  0  0
 68 69  1  0  0  0  0
M  CHG  2  77   1  78   1
M  ISO  4  38 100  64 101  76 100  85 101
M  END
> <Batch ID>
0156

> <Smiles>
CNC(C)C(=O)NC(C(=O)N1Cc2cc([101O:1][101CH2:1]CCc3cc4c(c(C[100NH:0][100C:0](=O)N5CCCC(n6nc(-c7ccc(Oc8ccc(F)cc8F)cc7)c(C(N)=O)c6N)C5)c3C)CCN(C)C4)ccc2CC1C(=O)NC1CCCc2ccccc21)C(C)(C)C

> <Shape>
0.199

> <Color>
0.187

> <Negative vol penalty>
0.000

$$$$

  -OEChem-04052321563D

 84 92  0     1  0  0  0  0  0999 V2000
  -26.1574  -31.1641   29.1868 C   0  0  0  0  0  0  0  0  0  0  0  0
  -26.9447  -30.0322   29.0012 C   0  0  0  0  0  0  0  0  0  0  0  0
  -22.9864   -9.9028   19.9968 C   0  0  0  0  0  0  0  0  0  0  0  0
  -23.7225   -9.9626   22.2971 C   0  0  0  0  0  0  0  0  0  0  0  0
  -24.8396  -31.0315   29.6222 C   0  0  0  0  0  0  0  0  0  0  0  0
  -26.4148  -28.7670   29.2519 C   0  0  0  0  0  0  0  0  0  0  0  0
  -27.5597  -25.4270   25.6216 C   0  0  0  0  0  0  0  0  0  0  0  0
  -22.2132   -8.7753   20.2735 C   0  0  0  0  0  0  0  0  0  0  0  0
  -22.9493   -8.8351   22.5739 C   0  0  0  0  0  0  0  0  0  0  0  0
  -28.8439  -24.8845   25.6376 C   0  0  0  0  0  0  0  0  0  0  0  0
  -21.4520   -5.7598   23.8028 C   0  0  0  0  0  0  0  0  0  0  0  0
  -22.0344   -4.7445   24.5614 C   0  0  0  0  0  0  0  0  0  0  0  0
  -27.9818  -22.8904   26.6863 C   0  0  0  0  0  0  0  0  0  0  0  0
  -23.7513   -4.4752   22.8830 C   0  0  0  0  0  0  0  0  0  0  0  0
  -23.7411  -10.4964   21.0086 C   0  0  0  0  0  0  0  0  0  0  0  0
  -24.1430  -13.0082   20.8156 C   0  0  0  0  0  0  0  0  0  0  0  0
  -24.2903  -29.7634   29.8691 C   0  0  0  0  0  0  0  0  0  0  0  0
  -26.4768  -24.7086   26.1487 C   0  0  0  0  0  0  0  0  0  0  0  0
  -25.0888  -28.6173   29.6923 C   0  0  0  0  0  0  0  0  0  0  0  0
  -26.6844  -23.4251   26.6735 C   0  0  0  0  0  0  0  0  0  0  0  0
  -22.1947   -8.2415   21.5620 C   0  0  0  0  0  0  0  0  0  0  0  0
  -29.0555  -23.6172   26.1726 C   0  0  0  0  0  0  0  0  0  0  0  0
  -22.0191   -6.1327   22.5841 C   0  0  0  0  0  0  0  0  0  0  0  0
  -23.1841   -4.1022   24.1015 C   0  0  0  0  0  0  0  0  0  0  0  0
  -23.1688   -5.4905   22.1243 C   0  0  0  0  0  0  0  0  0  0  0  0
  -24.5404  -11.6608   20.7232 C   0  0  0  0  0  0  0  0  0  0  0  0
  -25.2561  -13.7208   20.4417 C   0  0  0  0  0  0  0  0  0  0  0  0
  -22.8807  -13.5657   21.2046 C   0  0  0  0  0  0  0  0  0  0  0  0
  -24.4191  -25.1759   28.5259 C   0  0  0  0  0  0  0  0  0  0  0  0
  -23.0336  -22.4958   27.3341 C   0  0  0  0  0  0  0  0  0  0  0  0
  -23.3706  -19.6137   25.5378 C   0  0  0  0  0  0  0  0  0  0  0  0
  -30.7599  -14.6185   20.6593 C   0  0  0  0  0  0  0  0  0  0  0  0
  -22.8755  -29.6729   30.3837 C   0  0  0  0  0  0  0  0  0  0  0  0
  -25.0934  -25.2970   26.0996 C   0  0  0  0  0  0  0  0  0  0  0  0
  -25.5522  -22.6046   27.2333 C   0  0  0  0  0  0  0  0  0  0  0  0
  -22.2733  -28.2750   30.2674 C   0  0  0  0  0  0  0  0  0  0  0  0
  -29.5916  -12.1887   18.3338 C   0  0  0  0  0  0  0  0  0  0  0  0
  -23.2595  -27.2254   30.7701 C   0  0  0  0  0  0  0  0  0  0  0  0
  -28.1433  -11.9416   18.7597 C   0  0  0  0  0  0  0  0  0  0  0  0
  -30.5012  -12.4251   19.5375 C   0  0  0  0  0  0  0  0  0  0  0  0
  -28.6029  -13.2420   20.8802 C   0  0  0  0  0  0  0  0  0  0  0  0
  -24.5422  -27.2263   29.9299 C   0  0  1  0  0  0  0  0  0  0  0  0
  -24.1482  -24.6880   27.1307 C   0  0  1  0  0  0  0  0  0  0  0  0
  -27.6371  -13.0539   19.6977 C   0  0  2  0  0  0  0  0  0  0  0  0
  -30.8633  -16.8039   21.8309 C   0  0  1  0  0  0  0  0  0  0  0  0
  -29.8796  -17.9692   21.9903 C   0  0  1  0  0  0  0  0  0  0  0  0
  -30.6205  -19.2303   22.4479 C   0  0  1  0  0  0  0  0  0  0  0  0
  -31.4452  -18.9322   23.7052 C   0  0  2  0  0  0  0  0  0  0  0  0
  -31.6870  -16.6168   23.1126 C   0  0  1  0  0  0  0  0  0  0  0  0
  -22.0718  -17.6094   24.7675 C   0  0  0  0  0  0  0  0  0  0  0  0
  -23.1981  -21.3131   30.1420 C   0  0  0  0  0  0  0  0  0  0  0  0
  -22.7938  -19.0550   29.1391 C   0  0  0  0  0  0  0  0  0  0  0  0
  -21.0610  -20.8375   28.9332 C   0  0  0  0  0  0  0  0  0  0  0  0
  -23.8097  -20.2798   22.6878 C   0  0  0  0  0  0  0  0  0  0  0  0
  -32.2834  -20.1101   24.1543 C   0  0  0  0  0  0  0  0  0  0  0  0
  -31.1967  -23.4823   25.1464 C   0  0  0  0  0  0  0  0  0  1  0  0
  -32.1621  -22.3484   24.8602 C   0  0  0  0  0  0  0  0  0  0  0  0
  -23.1877  -21.0139   27.5775 C   0  0  1  0  0  0  0  0  0  0  0  0
  -22.5305  -19.0178   24.4227 C   0  0  2  0  0  0  0  0  0  0  0  0
  -22.5820  -20.5709   28.9392 C   0  0  0  0  0  0  0  0  0  0  0  0
  -25.8069  -11.5231   20.3220 N   0  0  0  0  0  0  0  0  0  0  0  0
  -26.2150  -12.7931   20.1588 N   0  0  0  0  0  0  0  0  0  0  0  0
  -24.2191  -23.2259   27.1684 N   0  0  0  0  0  0  0  0  0  0  0  0
  -29.9657  -13.4927   20.3856 N   0  0  0  0  0  0  0  0  0  0  0  0
  -25.4983  -15.0442   20.3305 N   0  0  0  0  0  0  0  0  0  0  0  0
  -21.8444  -12.6909   21.5582 N   0  0  0  0  0  0  0  0  0  0  0  0
  -24.3224  -26.5466   28.6712 N   0  0  0  0  0  0  0  0  0  0  0  0
  -22.6040  -20.3471   26.4186 N   0  0  0  0  0  0  0  0  0  0  0  0
  -30.1740  -15.5863   21.4661 N   0  0  0  0  0  0  0  0  0  0  0  0
  -23.3155  -18.9598   23.1572 N   0  3  0  0  0  0  0  0  0  0  0  0
  -22.6727  -14.8026   21.2218 O   0  0  0  0  0  0  0  0  0  0  0  0
  -24.6938  -24.3683   29.4056 O   0  0  0  0  0  0  0  0  0  0  0  0
  -21.9028  -22.9863   27.2855 O   0  0  0  0  0  0  0  0  0  0  0  0
  -24.5847  -19.4425   25.6214 O   0  0  0  0  0  0  0  0  0  0  0  0
  -31.9043  -14.7537   20.2131 O   0  0  0  0  0  0  0  0  0  0  0  0
  -32.3430  -17.8378   23.4714 O   0  0  0  0  0  0  0  0  0  0  0  0
  -29.2217  -18.2181   20.7515 O   0  0  0  0  0  0  0  0  0  0  0  0
  -31.4795  -19.6620   21.3899 O   0  0  0  0  0  0  0  0  0  0  0  0
  -30.8618  -16.1311   24.1692 O   0  0  0  0  0  0  0  0  0  0  0  0
  -21.4401   -7.1414   21.8325 O   0  0  0  0  0  0  0  0  0  0  0  0
  -30.3081  -23.0855   26.1901 O   0  0  0  0  0  0  0  0  0  1  0  0
  -31.4264  -21.2087   24.4321 O   0  0  0  0  0  0  0  0  0  0  0  0
  -23.7442   -3.1283   24.8309 F   0  0  0  0  0  0  0  0  0  0  0  0
  -23.7188   -5.8452   20.9549 F   0  0  0  0  0  0  0  0  0  0  0  0
  1  2  1  0  0  0  0
  1  5  2  0  0  0  0
  2  6  2  0  0  0  0
  3  8  2  0  0  0  0
  3 15  1  0  0  0  0
  4  9  1  0  0  0  0
  4 15  2  0  0  0  0
  5 17  1  0  0  0  0
  6 19  1  0  0  0  0
  7 10  2  0  0  0  0
  7 18  1  0  0  0  0
  8 21  1  0  0  0  0
  9 21  2  0  0  0  0
 10 22  1  0  0  0  0
 11 12  2  0  0  0  0
 11 23  1  0  0  0  0
 12 24  1  0  0  0  0
 13 20  1  0  0  0  0
 13 22  2  0  0  0  0
 14 24  2  0  0  0  0
 14 25  1  0  0  0  0
 15 26  1  0  0  0  0
 16 26  1  0  0  0  0
 16 27  2  0  0  0  0
 16 28  1  0  0  0  0
 17 19  2  0  0  0  0
 17 33  1  0  0  0  0
 18 20  2  0  0  0  0
 18 34  1  0  0  0  0
 19 42  1  0  0  0  0
 20 35  1  0  0  0  0
 21 80  1  0  0  0  0
 22 81  1  0  0  0  0
 23 25  2  0  0  0  0
 23 80  1  0  0  0  0
 24 83  1  0  0  0  0
 25 84  1  0  0  0  0
 26 61  2  0  0  0  0
 27 62  1  0  0  0  0
 27 65  1  0  0  0  0
 28 66  1  0  0  0  0
 28 71  2  0  0  0  0
 29 43  1  0  0  0  0
 29 67  1  0  0  0  0
 29 72  2  0  0  0  0
 30 58  1  0  0  0  0
 30 63  1  0  0  0  0
 30 73  2  0  0  0  0
 31 59  1  0  0  0  0
 31 68  1  0  0  0  0
 31 74  2  0  0  0  0
 32 64  1  0  0  0  0
 32 69  1  0  0  0  0
 32 75  2  0  0  0  0
 33 36  1  0  0  0  0
 34 43  1  0  0  0  0
 35 63  1  0  0  0  0
 36 38  1  0  0  0  0
 37 39  1  0  0  0  0
 37 40  1  0  0  0  0
 38 42  1  0  0  0  0
 39 44  1  0  0  0  0
 40 64  1  0  0  0  0
 41 44  1  0  0  0  0
 41 64  1  0  0  0  0
 42 67  1  0  0  0  0
 43 63  1  0  0  0  0
 44 62  1  0  0  0  0
 45 46  1  0  0  0  0
 45 49  1  0  0  0  0
 45 69  1  0  0  0  0
 46 47  1  0  0  0  0
 46 77  1  0  0  0  0
 47 48  1  0  0  0  0
 47 78  1  0  0  0  0
 48 55  1  0  0  0  0
 48 76  1  0  0  0  0
 49 76  1  0  0  0  0
 49 79  1  0  0  0  0
 50 59  1  0  0  0  0
 51 60  1  0  0  0  0
 52 60  1  0  0  0  0
 53 60  1  0  0  0  0
 54 70  1  0  0  0  0
 55 82  1  0  0  0  0
 56 57  1  0  0  0  0
 56 81  1  0  0  0  0
 57 82  1  0  0  0  0
 58 60  1  0  0  0  0
 58 68  1  0  0  0  0
 59 70  1  0  0  0  0
 61 62  1  0  0  0  0
M  CHG  1  70   1
M  ISO  4  32 100  56 101  69 100  81 101
M  END
> <Batch ID>
0156

> <Smiles>
CNC(C)C(=O)NC(C(=O)N1Cc2cc([101O:1][101CH2:1]COCC3OC(O)C([100NH:0][100C:0](=O)N4CCCC(n5nc(-c6ccc(Oc7ccc(F)cc7F)cc6)c(C(N)=O)c5N)C4)C(O)C3O)ccc2CC1C(=O)NC1CCCc2ccccc21)C(C)(C)C

> <Shape>
0.184

> <Color>
0.177

> <Negative vol penalty>
0.000

$$$$

  -OEChem-04052321563D

 88 97  0     1  0  0  0  0  0999 V2000
  -27.7982  -18.3640   17.4627 C   0  0  0  0  0  0  0  0  0  0  0  0
  -26.7401  -19.2561   17.3209 C   0  0  0  0  0  0  0  0  0  0  0  0
  -24.4692  -15.5683   20.2548 C   0  0  0  0  0  0  0  0  0  0  0  0
  -25.3180  -14.2541   22.0959 C   0  0  0  0  0  0  0  0  0  0  0  0
  -28.7047  -18.5205   18.5105 C   0  0  0  0  0  0  0  0  0  0  0  0
  -26.5872  -20.3046   18.2273 C   0  0  0  0  0  0  0  0  0  0  0  0
  -24.2992  -27.0833   18.5887 C   0  0  0  0  0  0  0  0  0  0  0  0
  -25.1865  -14.7760   19.3585 C   0  0  0  0  0  0  0  0  0  0  0  0
  -26.0352  -13.4617   21.1996 C   0  0  0  0  0  0  0  0  0  0  0  0
  -23.4309  -27.8892   19.3238 C   0  0  0  0  0  0  0  0  0  0  0  0
  -28.3740  -11.3172   19.4273 C   0  0  0  0  0  0  0  0  0  0  0  0
  -29.6968  -11.0115   19.7471 C   0  0  0  0  0  0  0  0  0  0  0  0
  -20.8049  -27.1662   23.2910 C   0  0  0  0  0  0  0  0  0  0  0  0
  -25.1035  -28.1080   21.0482 C   0  0  0  0  0  0  0  0  0  0  0  0
  -18.5487  -28.0411   21.9029 C   0  0  0  0  0  0  0  0  0  0  0  0
  -30.2380  -13.3661   19.7591 C   0  0  0  0  0  0  0  0  0  0  0  0
  -24.5350  -15.3074   21.6235 C   0  0  0  0  0  0  0  0  0  0  0  0
  -22.4798  -15.9161   23.0067 C   0  0  0  0  0  0  0  0  0  0  0  0
  -28.5684  -19.5772   19.4246 C   0  0  0  0  0  0  0  0  0  0  0  0
  -25.5743  -26.7742   19.0838 C   0  0  0  0  0  0  0  0  0  0  0  0
  -27.4920  -20.4746   19.2891 C   0  0  0  0  0  0  0  0  0  0  0  0
  -19.8096  -26.2566   22.9339 C   0  0  0  0  0  0  0  0  0  0  0  0
  -25.9870  -27.3000   20.3163 C   0  0  0  0  0  0  0  0  0  0  0  0
  -20.6722  -28.5133   22.9541 C   0  0  0  0  0  0  0  0  0  0  0  0
  -18.6815  -26.6941   22.2399 C   0  0  0  0  0  0  0  0  0  0  0  0
  -25.9695  -13.7227   19.8309 C   0  0  0  0  0  0  0  0  0  0  0  0
  -23.8319  -28.3993   20.5550 C   0  0  0  0  0  0  0  0  0  0  0  0
  -27.9831  -12.6473   19.2733 C   0  0  0  0  0  0  0  0  0  0  0  0
  -19.5441  -28.9507   22.2600 C   0  0  0  0  0  0  0  0  0  0  0  0
  -30.6288  -12.0360   19.9130 C   0  0  0  0  0  0  0  0  0  0  0  0
  -28.9151  -13.6718   19.4392 C   0  0  0  0  0  0  0  0  0  0  0  0
  -23.7948  -16.1259   22.5499 C   0  0  0  0  0  0  0  0  0  0  0  0
  -22.2431  -16.9627   23.8640 C   0  0  0  0  0  0  0  0  0  0  0  0
  -21.5550  -14.8688   22.6848 C   0  0  0  0  0  0  0  0  0  0  0  0
  -27.0727  -24.0937   19.9045 C   0  0  0  0  0  0  0  0  0  0  0  0
  -29.6119  -26.0814   20.2564 C   0  0  0  0  0  0  0  0  0  0  0  0
  -30.7575  -29.2472   20.8156 C   0  0  0  0  0  0  0  0  0  0  0  0
  -22.5215  -22.2497   25.2754 C   0  0  0  0  0  0  0  0  0  0  0  0
  -29.5459  -19.6779   20.5687 C   0  0  0  0  0  0  0  0  0  0  0  0
  -26.5090  -25.9253   18.2663 C   0  0  0  0  0  0  0  0  0  0  0  0
  -27.3531  -27.0145   20.8828 C   0  0  0  0  0  0  0  0  0  0  0  0
  -29.5291  -21.0354   21.2665 C   0  0  0  0  0  0  0  0  0  0  0  0
  -25.3837  -20.3936   25.8329 C   0  0  0  0  0  0  0  0  0  0  0  0
  -28.0950  -21.4759   21.5428 C   0  0  0  0  0  0  0  0  0  0  0  0
  -25.1284  -19.0940   25.0701 C   0  0  0  0  0  0  0  0  0  0  0  0
  -21.2075  -24.1631   22.6429 C   0  0  0  0  0  0  0  0  0  0  0  0
  -20.0240  -24.5981   24.8382 C   0  0  0  0  0  0  0  0  0  0  0  0
  -24.8983  -21.5987   25.0356 C   0  0  0  0  0  0  0  0  0  0  0  0
  -21.3866  -22.6991   23.0548 C   0  0  0  0  0  0  0  0  0  0  0  0
  -20.2070  -23.1236   25.1858 C   0  0  0  0  0  0  0  0  0  0  0  0
  -23.1846  -20.2328   23.8887 C   0  0  0  0  0  0  0  0  0  0  0  0
  -19.9748  -24.7968   23.3125 C   0  0  0  0  0  0  0  0  0  0  0  0
  -27.3069  -21.6391   20.2376 C   0  0  1  0  0  0  0  0  0  0  0  0
  -27.5930  -25.2538   19.1038 C   0  0  1  0  0  0  0  0  0  0  0  0
  -23.6512  -18.9779   24.6543 C   0  0  1  0  0  0  0  0  0  0  0  0
  -17.6026  -25.7392   21.8467 C   0  0  0  0  0  0  0  0  0  0  0  0
  -21.9114  -29.5685   24.8731 C   0  0  0  0  0  0  0  0  0  0  0  0
  -32.8826  -30.5538   21.0870 C   0  0  0  0  0  0  0  0  0  0  0  0
  -29.9335  -24.9676   23.0788 C   0  0  0  0  0  0  0  0  0  0  0  0
  -31.4031  -26.9241   23.6085 C   0  0  0  0  0  0  0  0  0  0  0  0
  -32.0792  -25.3016   21.8384 C   0  0  0  0  0  0  0  0  0  0  0  0
  -30.1546  -30.9383   18.4628 C   0  0  0  0  0  0  0  0  0  0  0  0
  -18.2141  -30.6228   21.2155 C   0  0  0  0  0  0  0  0  0  0  0  0
  -23.1118  -29.1435   22.6959 C   0  0  0  0  0  0  0  0  0  1  0  0
  -21.7479  -29.4729   23.3434 C   0  0  1  0  0  0  0  0  0  0  0  0
  -30.1764  -26.9046   21.3890 C   0  0  1  0  0  0  0  0  0  0  0  0
  -31.8191  -30.0732   20.1120 C   0  0  2  0  0  0  0  0  0  0  0  0
  -30.8715  -26.0285   22.4692 C   0  0  0  0  0  0  0  0  0  0  0  0
  -24.3542  -17.2199   23.0736 N   0  0  0  0  0  0  0  0  0  0  0  0
  -23.3860  -17.7069   23.8683 N   0  0  0  0  0  0  0  0  0  0  0  0
  -28.2284  -26.1743   20.0489 N   0  0  0  0  0  0  0  0  0  0  0  0
  -23.4934  -21.4489   24.6568 N   0  0  0  0  0  0  0  0  0  0  0  0
  -21.3838  -22.5676   24.5184 N   0  0  0  0  0  0  0  0  0  0  0  0
  -21.1708  -17.3099   24.6071 N   0  0  0  0  0  0  0  0  0  0  0  0
  -21.9601  -13.8727   21.7860 N   0  0  0  0  0  0  0  0  0  0  0  0
  -27.6585  -22.8831   19.5870 N   0  0  0  0  0  0  0  0  0  0  0  0
  -31.0485  -27.9000   20.7751 N   0  0  0  0  0  0  0  0  0  0  0  0
  -31.2027  -31.2651   19.4636 N   0  3  0  0  0  0  0  0  0  0  0  0
  -20.3977  -14.8269   23.1670 O   0  0  0  0  0  0  0  0  0  0  0  0
  -26.2052  -24.2832   20.7490 O   0  0  0  0  0  0  0  0  0  0  0  0
  -30.3717  -25.3874   19.5762 O   0  0  0  0  0  0  0  0  0  0  0  0
  -29.7707  -29.7474   21.3510 O   0  0  0  0  0  0  0  0  0  0  0  0
  -22.6608  -22.6564   26.4357 O   0  0  0  0  0  0  0  0  0  0  0  0
  -26.6693  -12.9491   18.9566 O   0  0  0  0  0  0  0  0  0  0  0  0
  -19.3982  -30.2632   21.9244 O   0  0  0  0  0  0  0  0  0  0  0  0
  -22.9806  -29.1909   21.2796 O   0  0  0  0  0  0  0  0  0  1  0  0
  -31.8987  -11.7424   20.2217 F   0  0  0  0  0  0  0  0  0  0  0  0
  -28.5453  -14.9515   19.2937 F   0  0  0  0  0  0  0  0  0  0  0  0
  1  2  1  0  0  0  0
  1  5  2  0  0  0  0
  2  6  2  0  0  0  0
  3  8  2  0  0  0  0
  3 17  1  0  0  0  0
  4  9  1  0  0  0  0
  4 17  2  0  0  0  0
  5 19  1  0  0  0  0
  6 21  1  0  0  0  0
  7 10  2  0  0  0  0
  7 20  1  0  0  0  0
  8 26  1  0  0  0  0
  9 26  2  0  0  0  0
 10 27  1  0  0  0  0
 11 12  2  0  0  0  0
 11 28  1  0  0  0  0
 12 30  1  0  0  0  0
 13 22  2  0  0  0  0
 13 24  1  0  0  0  0
 14 23  1  0  0  0  0
 14 27  2  0  0  0  0
 15 25  2  0  0  0  0
 15 29  1  0  0  0  0
 16 30  2  0  0  0  0
 16 31  1  0  0  0  0
 17 32  1  0  0  0  0
 18 32  1  0  0  0  0
 18 33  2  0  0  0  0
 18 34  1  0  0  0  0
 19 21  2  0  0  0  0
 19 39  1  0  0  0  0
 20 23  2  0  0  0  0
 20 40  1  0  0  0  0
 21 53  1  0  0  0  0
 22 25  1  0  0  0  0
 22 52  1  0  0  0  0
 23 41  1  0  0  0  0
 24 29  2  0  0  0  0
 24 65  1  0  0  0  0
 25 56  1  0  0  0  0
 26 84  1  0  0  0  0
 27 86  1  0  0  0  0
 28 31  2  0  0  0  0
 28 84  1  0  0  0  0
 29 85  1  0  0  0  0
 30 87  1  0  0  0  0
 31 88  1  0  0  0  0
 32 69  2  0  0  0  0
 33 70  1  0  0  0  0
 33 74  1  0  0  0  0
 34 75  1  0  0  0  0
 34 79  2  0  0  0  0
 35 54  1  0  0  0  0
 35 76  1  0  0  0  0
 35 80  2  0  0  0  0
 36 66  1  0  0  0  0
 36 71  1  0  0  0  0
 36 81  2  0  0  0  0
 37 67  1  0  0  0  0
 37 77  1  0  0  0  0
 37 82  2  0  0  0  0
 38 72  1  0  0  0  0
 38 73  1  0  0  0  0
 38 83  2  0  0  0  0
 39 42  1  0  0  0  0
 40 54  1  0  0  0  0
 41 71  1  0  0  0  0
 42 44  1  0  0  0  0
 43 45  1  0  0  0  0
 43 48  1  0  0  0  0
 44 53  1  0  0  0  0
 45 55  1  0  0  0  0
 46 49  1  0  0  0  0
 46 52  1  0  0  0  0
 47 50  1  0  0  0  0
 47 52  1  0  0  0  0
 48 72  1  0  0  0  0
 49 73  1  0  0  0  0
 50 73  1  0  0  0  0
 51 55  1  0  0  0  0
 51 72  1  0  0  0  0
 53 76  1  0  0  0  0
 54 71  1  0  0  0  0
 55 70  1  0  0  0  0
 57 65  1  0  0  0  0
 58 67  1  0  0  0  0
 59 68  1  0  0  0  0
 60 68  1  0  0  0  0
 61 68  1  0  0  0  0
 62 78  1  0  0  0  0
 63 85  1  0  0  0  0
 64 65  1  0  0  0  0
 64 86  1  0  0  0  0
 66 68  1  0  0  0  0
 66 77  1  0  0  0  0
 67 78  1  0  0  0  0
 69 70  1  0  0  0  0
M  CHG  1  78   1
M  ISO  4  38 100  64 101  73 100  86 101
M  END
> <Batch ID>
0156

> <Smiles>
CNC(C)C(=O)NC(C(=O)N1Cc2cc([101O:1][101CH2:1]C(C)c3cc(C4CC[100N:0]([100C:0](=O)N5CCCC(n6nc(-c7ccc(Oc8ccc(F)cc8F)cc7)c(C(N)=O)c6N)C5)CC4)c(C)cc3OC)ccc2CC1C(=O)NC1CCCc2ccccc21)C(C)(C)C

> <Shape>
0.241

> <Color>
0.056

> <Negative vol penalty>
0.000

$$$$

  -OEChem-04052321563D

 95105  0     1  0  0  0  0  0999 V2000
  -20.4372  -24.7003   25.2189 C   0  0  0  0  0  0  0  0  0  0  0  0
  -21.7536  -24.8636   24.7995 C   0  0  0  0  0  0  0  0  0  0  0  0
  -23.2438   -7.5439   19.6175 C   0  0  0  0  0  0  0  0  0  0  0  0
  -23.3940   -7.2331   22.0087 C   0  0  0  0  0  0  0  0  0  0  0  0
  -19.4445  -25.5569   24.7450 C   0  0  0  0  0  0  0  0  0  0  0  0
  -22.0779  -25.8830   23.9050 C   0  0  0  0  0  0  0  0  0  0  0  0
  -27.2623  -29.1397   23.7567 C   0  0  0  0  0  0  0  0  0  0  0  0
  -23.3417   -6.1649   19.4321 C   0  0  0  0  0  0  0  0  0  0  0  0
  -23.4918   -5.8541   21.8233 C   0  0  0  0  0  0  0  0  0  0  0  0
  -28.4158  -29.0319   22.9811 C   0  0  0  0  0  0  0  0  0  0  0  0
  -21.4066   -3.2764   21.1690 C   0  0  0  0  0  0  0  0  0  0  0  0
  -20.6355   -2.4570   21.9932 C   0  0  0  0  0  0  0  0  0  0  0  0
  -29.7649  -23.2252   20.3712 C   0  0  0  0  0  0  0  0  0  0  0  0
  -27.5434  -30.6921   21.4639 C   0  0  0  0  0  0  0  0  0  0  0  0
  -30.0704  -21.0676   18.6293 C   0  0  0  0  0  0  0  0  0  0  0  0
  -22.6443   -1.4036   22.8253 C   0  0  0  0  0  0  0  0  0  0  0  0
  -23.2700   -8.0780   20.9058 C   0  0  0  0  0  0  0  0  0  0  0  0
  -21.9931  -10.2562   21.2699 C   0  0  0  0  0  0  0  0  0  0  0  0
  -19.7584  -26.5934   23.8517 C   0  0  0  0  0  0  0  0  0  0  0  0
  -26.2342  -30.0180   23.3851 C   0  0  0  0  0  0  0  0  0  0  0  0
  -21.0882  -26.7534   23.4176 C   0  0  0  0  0  0  0  0  0  0  0  0
  -30.1363  -23.4466   19.0451 C   0  0  0  0  0  0  0  0  0  0  0  0
  -26.3790  -30.8110   22.2379 C   0  0  0  0  0  0  0  0  0  0  0  0
  -29.5463  -21.9249   20.8264 C   0  0  0  0  0  0  0  0  0  0  0  0
  -30.2890  -22.3679   18.1741 C   0  0  0  0  0  0  0  0  0  0  0  0
  -23.4656   -5.3200   20.5350 C   0  0  0  0  0  0  0  0  0  0  0  0
  -28.5553  -29.8061   21.8329 C   0  0  0  0  0  0  0  0  0  0  0  0
  -22.7966   -3.1595   21.1728 C   0  0  0  0  0  0  0  0  0  0  0  0
  -29.6990  -20.8461   19.9555 C   0  0  0  0  0  0  0  0  0  0  0  0
  -21.2543   -1.5206   22.8214 C   0  0  0  0  0  0  0  0  0  0  0  0
  -23.4154   -2.2231   22.0010 C   0  0  0  0  0  0  0  0  0  0  0  0
  -23.1696   -9.5025   21.0979 C   0  0  0  0  0  0  0  0  0  0  0  0
  -22.4318  -11.5501   21.4114 C   0  0  0  0  0  0  0  0  0  0  0  0
  -20.6259   -9.8253   21.2993 C   0  0  0  0  0  0  0  0  0  0  0  0
  -23.1794  -29.6804   22.5738 C   0  0  0  0  0  0  0  0  0  0  0  0
  -23.2135  -32.9238   22.6174 C   0  0  0  0  0  0  0  0  0  0  0  0
  -25.0252  -35.8056   22.3744 C   0  0  0  0  0  0  0  0  0  0  0  0
  -25.4876  -15.7412   20.0124 C   0  0  0  0  0  0  0  0  0  0  0  0
  -18.6433  -27.4647   23.3301 C   0  0  0  0  0  0  0  0  0  0  0  0
  -25.0078  -30.1421   24.2471 C   0  0  0  0  0  0  0  0  0  0  0  0
  -25.3132  -31.7840   21.8067 C   0  0  0  0  0  0  0  0  0  0  0  0
  -19.1331  -28.7537   22.6752 C   0  0  0  0  0  0  0  0  0  0  0  0
  -27.0799  -13.4051   22.0969 C   0  0  0  0  0  0  0  0  0  0  0  0
  -20.2863  -28.4626   21.7201 C   0  0  0  0  0  0  0  0  0  0  0  0
  -26.1043  -12.2302   22.0383 C   0  0  0  0  0  0  0  0  0  0  0  0
  -28.8581  -17.3450   19.7227 C   0  0  0  0  0  0  0  0  0  0  0  0
  -27.1336  -19.0346   20.4309 C   0  0  0  0  0  0  0  0  0  0  0  0
  -29.0791  -25.6753   18.7247 C   0  0  0  0  0  0  0  0  0  0  0  0
  -31.5139  -25.4911   19.3762 C   0  0  0  0  0  0  0  0  0  0  0  0
  -27.2540  -14.0734   20.7322 C   0  0  0  0  0  0  0  0  0  0  0  0
  -27.7410  -16.4824   19.1497 C   0  0  0  0  0  0  0  0  0  0  0  0
  -26.0426  -18.1406   19.8530 C   0  0  0  0  0  0  0  0  0  0  0  0
  -25.0048  -13.3115   20.0406 C   0  0  0  0  0  0  0  0  0  0  0  0
  -29.3032  -27.1311   18.3363 C   0  0  0  0  0  0  0  0  0  0  0  0
  -31.7195  -26.9482   18.9825 C   0  0  0  0  0  0  0  0  0  0  0  0
  -30.3666  -24.8472   18.5803 C   0  0  0  0  0  0  0  0  0  0  0  0
  -21.4836  -27.8629   22.4674 C   0  0  1  0  0  0  0  0  0  0  0  0
  -23.8011  -30.6929   23.4936 C   0  0  1  0  0  0  0  0  0  0  0  0
  -24.7655  -12.6547   21.4090 C   0  0  1  0  0  0  0  0  0  0  0  0
  -28.4711  -18.8225   19.7242 C   0  0  0  0  0  0  0  0  0  0  0  0
  -30.6858  -22.5799   16.7500 C   0  0  0  0  0  0  0  0  0  0  0  0
  -27.7977  -22.3630   22.5882 C   0  0  0  0  0  0  0  0  0  0  0  0
  -30.2262  -22.1826   23.2400 C   0  0  0  0  0  0  0  0  0  0  0  0
  -24.7704  -38.3018   22.4127 C   0  0  0  0  0  0  0  0  0  0  0  0
  -22.0806  -32.8491   19.7853 C   0  0  0  0  0  0  0  0  0  0  0  0
  -22.7350  -35.2527   19.5349 C   0  0  0  0  0  0  0  0  0  0  0  0
  -21.0681  -34.5898   21.2683 C   0  0  0  0  0  0  0  0  0  0  0  0
  -26.7790  -36.0646   24.7443 C   0  0  0  0  0  0  0  0  0  0  0  0
  -30.6052  -29.1773   18.9131 C   0  0  0  0  0  0  0  0  0  0  0  0
  -29.5461  -29.9486   19.6757 C   0  0  0  0  0  0  0  0  0  1  0  0
  -29.1484  -21.7063   22.2489 C   0  0  0  0  0  0  0  0  0  0  0  0
  -23.5045  -34.0036   21.6034 C   0  0  1  0  0  0  0  0  0  0  0  0
  -25.0513  -37.0548   23.2366 C   0  0  2  0  0  0  0  0  0  0  0  0
  -22.3665  -34.1542   20.5548 C   0  0  0  0  0  0  0  0  0  0  0  0
  -24.2728  -10.2549   21.1269 N   0  0  0  0  0  0  0  0  0  0  0  0
  -23.7914  -11.4948   21.3187 N   0  0  0  0  0  0  0  0  0  0  0  0
  -24.1300  -31.8645   22.6791 N   0  0  0  0  0  0  0  0  0  0  0  0
  -25.9499  -14.4242   20.1541 N   0  0  0  0  0  0  0  0  0  0  0  0
  -26.4595  -16.7380   19.8235 N   0  0  0  0  0  0  0  0  0  0  0  0
  -21.7834  -12.7182   21.6046 N   0  0  0  0  0  0  0  0  0  0  0  0
  -20.3520   -8.4603   21.1384 N   0  0  0  0  0  0  0  0  0  0  0  0
  -22.2099  -28.8979   23.1714 N   0  0  0  0  0  0  0  0  0  0  0  0
  -23.7785  -35.2167   22.3662 N   0  0  0  0  0  0  0  0  0  0  0  0
  -30.4261  -27.7055   19.1662 N   0  3  0  0  0  0  0  0  0  0  0  0
  -26.3846  -37.2097   23.8840 N   0  3  0  0  0  0  0  0  0  0  0  0
  -19.6744  -10.6292   21.4470 O   0  0  0  0  0  0  0  0  0  0  0  0
  -23.5508  -29.6150   21.4078 O   0  0  0  0  0  0  0  0  0  0  0  0
  -22.2137  -33.0203   23.3335 O   0  0  0  0  0  0  0  0  0  0  0  0
  -26.0112  -35.3956   21.7659 O   0  0  0  0  0  0  0  0  0  0  0  0
  -24.2814  -16.0134   20.0550 O   0  0  0  0  0  0  0  0  0  0  0  0
  -23.5608   -3.9743   20.3545 O   0  0  0  0  0  0  0  0  0  0  0  0
  -29.4896  -19.5626   20.3866 O   0  0  0  0  0  0  0  0  0  0  0  0
  -29.6879  -29.7016   21.0683 O   0  0  0  0  0  0  0  0  0  1  0  0
  -20.5137   -0.7348   23.6141 F   0  0  0  0  0  0  0  0  0  0  0  0
  -24.7504   -2.1069   22.0100 F   0  0  0  0  0  0  0  0  0  0  0  0
  1  2  1  0  0  0  0
  1  5  2  0  0  0  0
  2  6  2  0  0  0  0
  3  8  2  0  0  0  0
  3 17  1  0  0  0  0
  4  9  1  0  0  0  0
  4 17  2  0  0  0  0
  5 19  1  0  0  0  0
  6 21  1  0  0  0  0
  7 10  2  0  0  0  0
  7 20  1  0  0  0  0
  8 26  1  0  0  0  0
  9 26  2  0  0  0  0
 10 27  1  0  0  0  0
 11 12  2  0  0  0  0
 11 28  1  0  0  0  0
 12 30  1  0  0  0  0
 13 22  1  0  0  0  0
 13 24  2  0  0  0  0
 14 23  1  0  0  0  0
 14 27  2  0  0  0  0
 15 25  1  0  0  0  0
 15 29  2  0  0  0  0
 16 30  2  0  0  0  0
 16 31  1  0  0  0  0
 17 32  1  0  0  0  0
 18 32  1  0  0  0  0
 18 33  2  0  0  0  0
 18 34  1  0  0  0  0
 19 21  2  0  0  0  0
 19 39  1  0  0  0  0
 20 23  2  0  0  0  0
 20 40  1  0  0  0  0
 21 57  1  0  0  0  0
 22 25  2  0  0  0  0
 22 56  1  0  0  0  0
 23 41  1  0  0  0  0
 24 29  1  0  0  0  0
 24 71  1  0  0  0  0
 25 61  1  0  0  0  0
 26 91  1  0  0  0  0
 27 93  1  0  0  0  0
 28 31  2  0  0  0  0
 28 91  1  0  0  0  0
 29 92  1  0  0  0  0
 30 94  1  0  0  0  0
 31 95  1  0  0  0  0
 32 75  2  0  0  0  0
 33 76  1  0  0  0  0
 33 80  1  0  0  0  0
 34 81  1  0  0  0  0
 34 86  2  0  0  0  0
 35 58  1  0  0  0  0
 35 82  1  0  0  0  0
 35 87  2  0  0  0  0
 36 72  1  0  0  0  0
 36 77  1  0  0  0  0
 36 88  2  0  0  0  0
 37 73  1  0  0  0  0
 37 83  1  0  0  0  0
 37 89  2  0  0  0  0
 38 78  1  0  0  0  0
 38 79  1  0  0  0  0
 38 90  2  0  0  0  0
 39 42  1  0  0  0  0
 40 58  1  0  0  0  0
 41 77  1  0  0  0  0
 42 44  1  0  0  0  0
 43 45  1  0  0  0  0
 43 50  1  0  0  0  0
 44 57  1  0  0  0  0
 45 59  1  0  0  0  0
 46 51  1  0  0  0  0
 46 60  1  0  0  0  0
 47 52  1  0  0  0  0
 47 60  1  0  0  0  0
 48 54  1  0  0  0  0
 48 56  1  0  0  0  0
 49 55  1  0  0  0  0
 49 56  1  0  0  0  0
 50 78  1  0  0  0  0
 51 79  1  0  0  0  0
 52 79  1  0  0  0  0
 53 59  1  0  0  0  0
 53 78  1  0  0  0  0
 54 84  1  0  0  0  0
 55 84  1  0  0  0  0
 57 82  1  0  0  0  0
 58 77  1  0  0  0  0
 59 76  1  0  0  0  0
 60 92  1  0  0  0  0
 62 71  1  0  0  0  0
 63 71  1  0  0  0  0
 64 73  1  0  0  0  0
 65 74  1  0  0  0  0
 66 74  1  0  0  0  0
 67 74  1  0  0  0  0
 68 85  1  0  0  0  0
 69 70  1  0  0  0  0
 69 84  1  0  0  0  0
 70 93  1  0  0  0  0
 72 74  1  0  0  0  0
 72 83  1  0  0  0  0
 73 85  1  0  0  0  0
 75 76  1  0  0  0  0
M  CHG  2  84   1  85   1
M  ISO  4  38 100  70 101  79 100  93 101
M  END
> <Batch ID>
0156

> <Smiles>
CNC(C)C(=O)NC(C(=O)N1Cc2cc([101O:1][101CH2:1]CN3CCC(c4cc(C(C)C)c(OC5CC[100N:0]([100C:0](=O)N6CCCC(n7nc(-c8ccc(Oc9ccc(F)cc9F)cc8)c(C(N)=O)c7N)C6)CC5)cc4C)CC3)ccc2CC1C(=O)NC1CCCc2ccccc21)C(C)(C)C

> <Shape>
0.320

> <Color>
0.091

> <Negative vol penalty>
0.000

$$$$

  -OEChem-04052321563D

 87 96  0     1  0  0  0  0  0999 V2000
  -28.0086  -32.2223   26.1480 C   0  0  0  0  0  0  0  0  0  0  0  0
  -28.5329  -31.0746   25.5621 C   0  0  0  0  0  0  0  0  0  0  0  0
  -27.4159  -13.2164   18.5279 C   0  0  0  0  0  0  0  0  0  0  0  0
  -28.3208  -13.1587   20.7673 C   0  0  0  0  0  0  0  0  0  0  0  0
  -26.6460  -32.4977   26.0416 C   0  0  0  0  0  0  0  0  0  0  0  0
  -27.6946  -30.2010   24.8703 C   0  0  0  0  0  0  0  0  0  0  0  0
  -29.0978  -26.9187   19.8940 C   0  0  0  0  0  0  0  0  0  0  0  0
  -28.7003  -13.0663   18.0051 C   0  0  0  0  0  0  0  0  0  0  0  0
  -29.6052  -13.0086   20.2445 C   0  0  0  0  0  0  0  0  0  0  0  0
  -29.4805  -25.5888   19.7248 C   0  0  0  0  0  0  0  0  0  0  0  0
  -31.7011  -12.3362   16.0874 C   0  0  0  0  0  0  0  0  0  0  0  0
  -31.8760  -11.4205   15.0499 C   0  0  0  0  0  0  0  0  0  0  0  0
  -27.1913  -24.9971   19.2466 C   0  0  0  0  0  0  0  0  0  0  0  0
  -27.6462  -22.0085   17.1150 C   0  0  0  0  0  0  0  0  0  0  0  0
  -31.0932   -9.6430   16.4867 C   0  0  0  0  0  0  0  0  0  0  0  0
  -27.2261  -13.2626   19.9091 C   0  0  0  0  0  0  0  0  0  0  0  0
  -24.9946  -12.3947   20.7893 C   0  0  0  0  0  0  0  0  0  0  0  0
  -25.7922  -31.6321   25.3399 C   0  0  0  0  0  0  0  0  0  0  0  0
  -27.7549  -27.2965   19.7513 C   0  0  0  0  0  0  0  0  0  0  0  0
  -26.3190  -30.4644   24.7555 C   0  0  0  0  0  0  0  0  0  0  0  0
  -26.7945  -26.3329   19.4120 C   0  0  0  0  0  0  0  0  0  0  0  0
  -26.8796  -21.6812   15.9967 C   0  0  0  0  0  0  0  0  0  0  0  0
  -27.0730  -21.9792   18.3864 C   0  0  0  0  0  0  0  0  0  0  0  0
  -25.5397  -21.3247   16.1496 C   0  0  0  0  0  0  0  0  0  0  0  0
  -25.7332  -21.6227   18.5393 C   0  0  0  0  0  0  0  0  0  0  0  0
  -29.7949  -12.9624   18.8633 C   0  0  0  0  0  0  0  0  0  0  0  0
  -28.5268  -24.6272   19.4039 C   0  0  0  0  0  0  0  0  0  0  0  0
  -31.2222  -11.9053   17.3246 C   0  0  0  0  0  0  0  0  0  0  0  0
  -24.9665  -21.2954   17.4209 C   0  0  0  0  0  0  0  0  0  0  0  0
  -31.5720  -10.0739   15.2495 C   0  0  0  0  0  0  0  0  0  0  0  0
  -30.9183  -10.5587   17.5243 C   0  0  0  0  0  0  0  0  0  0  0  0
  -25.8997  -13.4182   20.4498 C   0  0  0  0  0  0  0  0  0  0  0  0
  -23.8857  -13.0577   21.2554 C   0  0  0  0  0  0  0  0  0  0  0  0
  -25.1431  -10.9720   20.6922 C   0  0  0  0  0  0  0  0  0  0  0  0
  -25.5671  -28.5715   21.6727 C   0  0  0  0  0  0  0  0  0  0  0  0
  -23.7998  -28.6675   18.9542 C   0  0  0  0  0  0  0  0  0  0  0  0
  -23.2144  -27.4164   15.8335 C   0  0  0  0  0  0  0  0  0  0  0  0
  -21.7588  -18.5672   20.2930 C   0  0  0  0  0  0  0  0  0  0  0  0
  -24.3181  -31.9475   25.2921 C   0  0  0  0  0  0  0  0  0  0  0  0
  -27.3625  -28.7398   19.9108 C   0  0  0  0  0  0  0  0  0  0  0  0
  -25.3431  -26.6904   19.2277 C   0  0  0  0  0  0  0  0  0  0  0  0
  -23.5619  -31.1637   24.2225 C   0  0  0  0  0  0  0  0  0  0  0  0
  -22.5519  -17.0993   23.4051 C   0  0  0  0  0  0  0  0  0  0  0  0
  -23.9516  -29.6895   24.2654 C   0  0  0  0  0  0  0  0  0  0  0  0
  -23.4413  -15.9120   23.0466 C   0  0  0  0  0  0  0  0  0  0  0  0
  -21.8003  -19.6186   16.7431 C   0  0  0  0  0  0  0  0  0  0  0  0
  -22.8412  -18.2852   22.4949 C   0  0  0  0  0  0  0  0  0  0  0  0
  -21.1033  -19.4799   18.0889 C   0  0  0  0  0  0  0  0  0  0  0  0
  -23.5276  -16.7766   20.6505 C   0  0  0  0  0  0  0  0  0  0  0  0
  -23.3573  -18.6695   18.2862 C   0  0  0  0  0  0  0  0  0  0  0  0
  -25.4461  -29.5052   23.9757 C   0  0  1  0  0  0  0  0  0  0  0  0
  -25.8859  -28.9239   20.2472 C   0  0  1  0  0  0  0  0  0  0  0  0
  -23.2926  -15.5528   21.5599 C   0  0  1  0  0  0  0  0  0  0  0  0
  -23.2772  -19.6486   17.1211 C   0  0  2  0  0  0  0  0  0  0  0  0
  -27.5174  -21.7187   14.6466 C   0  0  0  0  0  0  0  0  0  0  0  0
  -24.7146  -20.9724   14.9527 C   0  0  0  0  0  0  0  0  0  0  0  0
  -25.1153  -21.5899   19.9011 C   0  0  0  0  0  0  0  0  0  0  0  0
  -28.6453  -21.1277   20.1601 C   0  0  0  0  0  0  0  0  0  0  0  0
  -21.6777  -27.6702   13.8658 C   0  0  0  0  0  0  0  0  0  0  0  0
  -21.6154  -27.1708   20.4702 C   0  0  0  0  0  0  0  0  0  0  0  0
  -20.5562  -26.6274   18.2677 C   0  0  0  0  0  0  0  0  0  0  0  0
  -20.7860  -29.0051   18.9863 C   0  0  0  0  0  0  0  0  0  0  0  0
  -25.4456  -28.1687   14.0406 C   0  0  0  0  0  0  0  0  0  0  0  0
  -27.9149  -22.3350   19.5678 C   0  0  1  0  0  0  0  0  0  1  0  0
  -22.8431  -27.7233   18.2671 C   0  0  1  0  0  0  0  0  0  0  0  0
  -22.9911  -28.1035   14.4984 C   0  0  2  0  0  0  0  0  0  0  0  0
  -21.4771  -27.6242   19.0031 C   0  0  0  0  0  0  0  0  0  0  0  0
  -25.4082  -14.6386   20.6803 N   0  0  0  0  0  0  0  0  0  0  0  0
  -24.1822  -14.3862   21.1697 N   0  0  0  0  0  0  0  0  0  0  0  0
  -25.0081  -28.1136   19.4005 N   0  0  0  0  0  0  0  0  0  0  0  0
  -22.7218  -17.9265   21.0805 N   0  0  0  0  0  0  0  0  0  0  0  0
  -22.0502  -18.7734   18.9448 N   0  0  0  0  0  0  0  0  0  0  0  0
  -22.6956  -12.6280   21.7260 N   0  0  0  0  0  0  0  0  0  0  0  0
  -26.3473  -10.4585   20.1916 N   0  0  0  0  0  0  0  0  0  0  0  0
  -25.7044  -29.6245   22.5568 N   0  0  0  0  0  0  0  0  0  0  0  0
  -22.7451  -28.1765   16.8839 N   0  0  0  0  0  0  0  0  0  0  0  0
  -24.0976  -27.7755   13.5556 N   0  3  0  0  0  0  0  0  0  0  0  0
  -24.2287  -10.1799   21.0237 O   0  0  0  0  0  0  0  0  0  0  0  0
  -25.2206  -27.4291   21.9496 O   0  0  0  0  0  0  0  0  0  0  0  0
  -23.4897  -29.8544   19.0837 O   0  0  0  0  0  0  0  0  0  0  0  0
  -23.7481  -26.3139   15.9342 O   0  0  0  0  0  0  0  0  0  0  0  0
  -20.6980  -18.9778   20.7828 O   0  0  0  0  0  0  0  0  0  0  0  0
  -31.0484  -12.8158   18.3535 O   0  0  0  0  0  0  0  0  0  0  0  0
  -23.6504  -20.9449   17.5710 O   0  0  0  0  0  0  0  0  0  0  0  0
  -28.8988  -23.3242   19.2383 O   0  0  0  0  0  0  0  0  0  1  0  0
  -31.7386   -9.1949   14.2526 F   0  0  0  0  0  0  0  0  0  0  0  0
  -30.4568  -10.1389   18.7103 F   0  0  0  0  0  0  0  0  0  0  0  0
  1  2  1  0  0  0  0
  1  5  2  0  0  0  0
  2  6  2  0  0  0  0
  3  8  2  0  0  0  0
  3 16  1  0  0  0  0
  4  9  1  0  0  0  0
  4 16  2  0  0  0  0
  5 18  1  0  0  0  0
  6 20  1  0  0  0  0
  7 10  2  0  0  0  0
  7 19  1  0  0  0  0
  8 26  1  0  0  0  0
  9 26  2  0  0  0  0
 10 27  1  0  0  0  0
 11 12  2  0  0  0  0
 11 28  1  0  0  0  0
 12 30  1  0  0  0  0
 13 21  1  0  0  0  0
 13 27  2  0  0  0  0
 14 22  2  0  0  0  0
 14 23  1  0  0  0  0
 15 30  2  0  0  0  0
 15 31  1  0  0  0  0
 16 32  1  0  0  0  0
 17 32  1  0  0  0  0
 17 33  2  0  0  0  0
 17 34  1  0  0  0  0
 18 20  2  0  0  0  0
 18 39  1  0  0  0  0
 19 21  2  0  0  0  0
 19 40  1  0  0  0  0
 20 51  1  0  0  0  0
 21 41  1  0  0  0  0
 22 24  1  0  0  0  0
 22 55  1  0  0  0  0
 23 25  2  0  0  0  0
 23 64  1  0  0  0  0
 24 29  2  0  0  0  0
 24 56  1  0  0  0  0
 25 29  1  0  0  0  0
 25 57  1  0  0  0  0
 26 83  1  0  0  0  0
 27 85  1  0  0  0  0
 28 31  2  0  0  0  0
 28 83  1  0  0  0  0
 29 84  1  0  0  0  0
 30 86  1  0  0  0  0
 31 87  1  0  0  0  0
 32 68  2  0  0  0  0
 33 69  1  0  0  0  0
 33 73  1  0  0  0  0
 34 74  1  0  0  0  0
 34 78  2  0  0  0  0
 35 52  1  0  0  0  0
 35 75  1  0  0  0  0
 35 79  2  0  0  0  0
 36 65  1  0  0  0  0
 36 70  1  0  0  0  0
 36 80  2  0  0  0  0
 37 66  1  0  0  0  0
 37 76  1  0  0  0  0
 37 81  2  0  0  0  0
 38 71  1  0  0  0  0
 38 72  1  0  0  0  0
 38 82  2  0  0  0  0
 39 42  1  0  0  0  0
 40 52  1  0  0  0  0
 41 70  1  0  0  0  0
 42 44  1  0  0  0  0
 43 45  1  0  0  0  0
 43 47  1  0  0  0  0
 44 51  1  0  0  0  0
 45 53  1  0  0  0  0
 46 48  1  0  0  0  0
 46 54  1  0  0  0  0
 47 71  1  0  0  0  0
 48 72  1  0  0  0  0
 49 53  1  0  0  0  0
 49 71  1  0  0  0  0
 50 54  1  0  0  0  0
 50 72  1  0  0  0  0
 51 75  1  0  0  0  0
 52 70  1  0  0  0  0
 53 69  1  0  0  0  0
 54 84  1  0  0  0  0
 58 64  1  0  0  0  0
 59 66  1  0  0  0  0
 60 67  1  0  0  0  0
 61 67  1  0  0  0  0
 62 67  1  0  0  0  0
 63 77  1  0  0  0  0
 64 85  1  0  0  0  0
 65 67  1  0  0  0  0
 65 76  1  0  0  0  0
 66 77  1  0  0  0  0
 68 69  1  0  0  0  0
M  CHG  1  77   1
M  ISO  4  38 100  64 101  72 100  85 101
M  END
> <Batch ID>
0156

> <Smiles>
CNC(C)C(=O)NC(C(=O)N1Cc2cc([101O:1][101CH:1](C)c3cc(C)c(C)c(OC4CC[100N:0]([100C:0](=O)N5CCCC(n6nc(-c7ccc(Oc8ccc(F)cc8F)cc7)c(C(N)=O)c6N)C5)C4)c3C)ccc2CC1C(=O)NC1CCCc2ccccc21)C(C)(C)C

> <Shape>
0.231

> <Color>
0.070

> <Negative vol penalty>
0.000

$$$$

  -OEChem-04052321563D

 84 92  0     1  0  0  0  0  0999 V2000
  -17.2895  -30.5712   24.2741 C   0  0  0  0  0  0  0  0  0  0  0  0
  -18.5924  -30.7155   24.7399 C   0  0  0  0  0  0  0  0  0  0  0  0
  -26.6987  -15.0488   19.4922 C   0  0  0  0  0  0  0  0  0  0  0  0
  -24.9122  -15.2289   21.1087 C   0  0  0  0  0  0  0  0  0  0  0  0
  -16.9858  -29.5662   23.3566 C   0  0  0  0  0  0  0  0  0  0  0  0
  -19.5922  -29.8541   24.2894 C   0  0  0  0  0  0  0  0  0  0  0  0
  -25.4796  -31.2343   23.3206 C   0  0  0  0  0  0  0  0  0  0  0  0
  -26.7247  -13.6662   19.6749 C   0  0  0  0  0  0  0  0  0  0  0  0
  -24.9381  -13.8463   21.2914 C   0  0  0  0  0  0  0  0  0  0  0  0
  -26.6258  -31.0489   24.0923 C   0  0  0  0  0  0  0  0  0  0  0  0
  -23.8053  -11.1007   19.6792 C   0  0  0  0  0  0  0  0  0  0  0  0
  -22.5831  -10.4293   19.7084 C   0  0  0  0  0  0  0  0  0  0  0  0
  -27.0953  -29.0087   22.8939 C   0  0  0  0  0  0  0  0  0  0  0  0
  -23.0630   -9.6528   21.9453 C   0  0  0  0  0  0  0  0  0  0  0  0
  -25.7925  -15.8301   20.2091 C   0  0  0  0  0  0  0  0  0  0  0  0
  -24.9947  -17.9789   19.0893 C   0  0  0  0  0  0  0  0  0  0  0  0
  -17.9842  -28.6982   22.8873 C   0  0  0  0  0  0  0  0  0  0  0  0
  -25.1262  -30.3011   22.3354 C   0  0  0  0  0  0  0  0  0  0  0  0
  -19.3012  -28.8357   23.3659 C   0  0  0  0  0  0  0  0  0  0  0  0
  -25.9455  -29.1859   22.1092 C   0  0  0  0  0  0  0  0  0  0  0  0
  -25.8444  -13.0649   20.5745 C   0  0  0  0  0  0  0  0  0  0  0  0
  -27.4323  -29.9344   23.8810 C   0  0  0  0  0  0  0  0  0  0  0  0
  -24.6565  -11.0481   20.7831 C   0  0  0  0  0  0  0  0  0  0  0  0
  -22.2118   -9.7054   20.8415 C   0  0  0  0  0  0  0  0  0  0  0  0
  -24.2853  -10.3242   21.9161 C   0  0  0  0  0  0  0  0  0  0  0  0
  -25.7655  -17.2584   20.0213 C   0  0  0  0  0  0  0  0  0  0  0  0
  -25.3271  -19.2929   19.3115 C   0  0  0  0  0  0  0  0  0  0  0  0
  -31.4111  -26.0750   20.8641 C   0  0  0  0  0  0  0  0  0  0  0  0
  -32.1829  -26.9924   20.2642 C   0  0  0  0  0  0  0  0  0  0  0  0
  -30.5879  -25.1390   20.0445 C   0  0  0  0  0  0  0  0  0  0  0  0
  -24.0615  -17.5029   18.1104 C   0  0  0  0  0  0  0  0  0  0  0  0
  -22.6428  -28.3754   21.8576 C   0  0  0  0  0  0  0  0  0  0  0  0
  -24.1418  -27.7816   19.0428 C   0  0  0  0  0  0  0  0  0  0  0  0
  -27.0524  -27.7467   17.2614 C   0  0  0  0  0  0  0  0  0  0  0  0
  -29.3006  -23.0572   20.0050 C   0  0  0  0  0  0  0  0  0  0  0  0
  -17.5984  -27.5970   21.9317 C   0  0  0  0  0  0  0  0  0  0  0  0
  -23.9010  -30.5295   21.4932 C   0  0  0  0  0  0  0  0  0  0  0  0
  -25.6211  -28.1652   21.0503 C   0  0  0  0  0  0  0  0  0  0  0  0
  -32.2196  -27.1147   18.7716 C   0  0  0  0  0  0  0  0  0  0  0  0
  -18.7905  -26.9634   21.2191 C   0  0  0  0  0  0  0  0  0  0  0  0
  -27.9183  -21.4641   23.0452 C   0  0  0  0  0  0  0  0  0  0  0  0
  -19.9049  -26.6552   22.2140 C   0  0  0  0  0  0  0  0  0  0  0  0
  -27.2281  -20.2452   22.4419 C   0  0  0  0  0  0  0  0  0  0  0  0
  -29.1669  -21.8660   22.2612 C   0  0  0  0  0  0  0  0  0  0  0  0
  -28.2152  -20.8582   20.2022 C   0  0  0  0  0  0  0  0  0  0  0  0
  -30.9142  -26.6582   18.1279 C   0  0  0  0  0  0  0  0  0  0  0  0
  -20.4182  -27.9366   22.8819 C   0  0  1  0  0  0  0  0  0  0  0  0
  -23.3594  -29.2484   20.8666 C   0  0  1  0  0  0  0  0  0  0  0  0
  -26.9309  -20.4767   20.9531 C   0  0  1  0  0  0  0  0  0  0  0  0
  -27.9687  -27.1767   14.9958 C   0  0  0  0  0  0  0  0  0  0  0  0
  -23.9831  -24.8126   19.7284 C   0  0  0  0  0  0  0  0  0  0  0  0
  -25.7050  -24.3841   17.9622 C   0  0  0  0  0  0  0  0  0  0  0  0
  -23.4955  -25.3586   17.3370 C   0  0  0  0  0  0  0  0  0  0  0  0
  -27.9519  -30.5278   16.7974 C   0  0  0  0  0  0  0  0  0  0  0  0
  -33.2151  -29.5094   22.6831 C   0  0  0  0  0  0  0  0  0  0  0  0
  -32.7429  -29.9544   24.0566 C   0  0  0  0  0  0  0  0  0  0  0  0
  -30.6869  -30.6290   25.3043 C   0  0  0  0  0  0  0  0  0  0  0  0
  -32.5222  -28.2264   22.2471 C   0  0  0  0  0  0  0  0  0  0  0  0
  -29.2120  -30.9216   25.1115 C   0  0  0  0  0  0  0  0  0  1  0  0
  -25.1762  -26.7884   18.5712 C   0  0  1  0  0  0  0  0  0  0  0  0
  -27.3937  -28.2731   15.8791 C   0  0  2  0  0  0  0  0  0  0  0  0
  -24.5953  -25.3540   18.4210 C   0  0  0  0  0  0  0  0  0  0  0  0
  -26.5302  -18.0492   20.7789 N   0  0  0  0  0  0  0  0  0  0  0  0
  -26.2415  -19.2801   20.3234 N   0  0  0  0  0  0  0  0  0  0  0  0
  -24.4093  -28.4296   20.2571 N   0  0  0  0  0  0  0  0  0  0  0  0
  -28.8913  -22.0018   20.8244 N   0  0  0  0  0  0  0  0  0  0  0  0
  -30.4145  -25.4202   18.7538 N   0  3  0  0  0  0  0  0  0  0  0  0
  -24.9235  -20.4465   18.7381 N   0  0  0  0  0  0  0  0  0  0  0  0
  -23.8380  -16.1225   18.0161 N   0  0  0  0  0  0  0  0  0  0  0  0
  -30.0872  -24.0746   20.6552 N   0  0  0  0  0  0  0  0  0  0  0  0
  -21.2960  -28.6573   21.9851 N   0  0  0  0  0  0  0  0  0  0  0  0
  -25.7383  -27.3371   17.3419 N   0  0  0  0  0  0  0  0  0  0  0  0
  -28.3955  -29.3721   15.9761 N   0  3  0  0  0  0  0  0  0  0  0  0
  -31.2836  -30.2398   24.0017 N   0  3  0  0  0  0  0  0  0  0  0  0
  -23.4564  -18.2774   17.3310 O   0  0  0  0  0  0  0  0  0  0  0  0
  -23.2653  -27.5093   22.4608 O   0  0  0  0  0  0  0  0  0  0  0  0
  -23.1369  -27.9806   18.3555 O   0  0  0  0  0  0  0  0  0  0  0  0
  -27.8709  -27.6999   18.1771 O   0  0  0  0  0  0  0  0  0  0  0  0
  -29.0674  -23.1651   18.8054 O   0  0  0  0  0  0  0  0  0  0  0  0
  -25.8693  -11.7158   20.7529 O   0  0  0  0  0  0  0  0  0  0  0  0
  -28.5513  -29.7506   24.6334 O   0  0  0  0  0  0  0  0  0  1  0  0
  -32.9906  -27.8671   20.9546 O   0  0  0  0  0  0  0  0  0  0  0  0
  -21.0374   -9.0620   20.8699 F   0  0  0  0  0  0  0  0  0  0  0  0
  -25.0983  -10.2710   22.9801 F   0  0  0  0  0  0  0  0  0  0  0  0
  1  2  1  0  0  0  0
  1  5  2  0  0  0  0
  2  6  2  0  0  0  0
  3  8  2  0  0  0  0
  3 15  1  0  0  0  0
  4  9  1  0  0  0  0
  4 15  2  0  0  0  0
  5 17  1  0  0  0  0
  6 19  1  0  0  0  0
  7 10  2  0  0  0  0
  7 18  1  0  0  0  0
  8 21  1  0  0  0  0
  9 21  2  0  0  0  0
 10 22  1  0  0  0  0
 11 12  2  0  0  0  0
 11 23  1  0  0  0  0
 12 24  1  0  0  0  0
 13 20  1  0  0  0  0
 13 22  2  0  0  0  0
 14 24  2  0  0  0  0
 14 25  1  0  0  0  0
 15 26  1  0  0  0  0
 16 26  1  0  0  0  0
 16 27  2  0  0  0  0
 16 31  1  0  0  0  0
 17 19  2  0  0  0  0
 17 36  1  0  0  0  0
 18 20  2  0  0  0  0
 18 37  1  0  0  0  0
 19 47  1  0  0  0  0
 20 38  1  0  0  0  0
 21 80  1  0  0  0  0
 22 81  1  0  0  0  0
 23 25  2  0  0  0  0
 23 80  1  0  0  0  0
 24 83  1  0  0  0  0
 25 84  1  0  0  0  0
 26 63  2  0  0  0  0
 27 64  1  0  0  0  0
 27 68  1  0  0  0  0
 28 29  2  0  0  0  0
 28 30  1  0  0  0  0
 29 39  1  0  0  0  0
 29 82  1  0  0  0  0
 30 67  2  0  0  0  0
 30 70  1  0  0  0  0
 31 69  1  0  0  0  0
 31 75  2  0  0  0  0
 32 48  1  0  0  0  0
 32 71  1  0  0  0  0
 32 76  2  0  0  0  0
 33 60  1  0  0  0  0
 33 65  1  0  0  0  0
 33 77  2  0  0  0  0
 34 61  1  0  0  0  0
 34 72  1  0  0  0  0
 34 78  2  0  0  0  0
 35 66  1  0  0  0  0
 35 70  1  0  0  0  0
 35 79  2  0  0  0  0
 36 40  1  0  0  0  0
 37 48  1  0  0  0  0
 38 65  1  0  0  0  0
 39 46  1  0  0  0  0
 40 42  1  0  0  0  0
 41 43  1  0  0  0  0
 41 44  1  0  0  0  0
 42 47  1  0  0  0  0
 43 49  1  0  0  0  0
 44 66  1  0  0  0  0
 45 49  1  0  0  0  0
 45 66  1  0  0  0  0
 46 67  1  0  0  0  0
 47 71  1  0  0  0  0
 48 65  1  0  0  0  0
 49 64  1  0  0  0  0
 50 61  1  0  0  0  0
 51 62  1  0  0  0  0
 52 62  1  0  0  0  0
 53 62  1  0  0  0  0
 54 73  1  0  0  0  0
 55 56  1  0  0  0  0
 55 58  1  0  0  0  0
 56 74  1  0  0  0  0
 57 59  1  0  0  0  0
 57 74  1  0  0  0  0
 58 82  1  0  0  0  0
 59 81  1  0  0  0  0
 60 62  1  0  0  0  0
 60 72  1  0  0  0  0
 61 73  1  0  0  0  0
 63 64  1  0  0  0  0
M  CHG  3  67   1  73   1  74   1
M  ISO  4  35 100  59 101  70 100  81 101
M  END
> <Batch ID>
0156

> <Smiles>
CNC(C)C(=O)NC(C(=O)N1Cc2cc([101O:1][101CH2:1]CNCCCOC3=CC([100NH:0][100C:0](=O)N4CCCC(n5nc(-c6ccc(Oc7ccc(F)cc7F)cc6)c(C(N)=O)c5N)C4)=NCC3)ccc2CC1C(=O)NC1CCCc2ccccc21)C(C)(C)C

> <Shape>
0.292

> <Color>
0.089

> <Negative vol penalty>
0.000

$$$$

  -OEChem-04052321563D

 88 97  0     1  0  0  0  0  0999 V2000
  -28.8489  -32.1677   26.4137 C   0  0  0  0  0  0  0  0  0  0  0  0
  -28.7389  -31.0186   25.6373 C   0  0  0  0  0  0  0  0  0  0  0  0
  -24.5272   -9.2802   21.7215 C   0  0  0  0  0  0  0  0  0  0  0  0
  -23.3635  -10.6329   20.0926 C   0  0  0  0  0  0  0  0  0  0  0  0
  -27.6999  -32.8375   26.8322 C   0  0  0  0  0  0  0  0  0  0  0  0
  -27.4797  -30.5380   25.2799 C   0  0  0  0  0  0  0  0  0  0  0  0
  -27.2247  -29.1966   20.4033 C   0  0  0  0  0  0  0  0  0  0  0  0
  -23.3064   -8.7986   22.1938 C   0  0  0  0  0  0  0  0  0  0  0  0
  -22.1426  -10.1511   20.5649 C   0  0  0  0  0  0  0  0  0  0  0  0
  -27.7852  -27.9698   20.0502 C   0  0  0  0  0  0  0  0  0  0  0  0
  -21.0073   -6.5004   21.2634 C   0  0  0  0  0  0  0  0  0  0  0  0
  -20.8977   -5.1296   21.4964 C   0  0  0  0  0  0  0  0  0  0  0  0
  -25.5892  -26.9713   20.0571 C   0  0  0  0  0  0  0  0  0  0  0  0
  -27.6093  -18.2397   15.1121 C   0  0  0  0  0  0  0  0  0  0  0  0
  -28.5828  -18.8057   17.6644 C   0  0  0  0  0  0  0  0  0  0  0  0
  -20.4017   -5.5643   23.8207 C   0  0  0  0  0  0  0  0  0  0  0  0
  -24.5558  -10.1974   20.6710 C   0  0  0  0  0  0  0  0  0  0  0  0
  -26.6096  -10.1447   19.1587 C   0  0  0  0  0  0  0  0  0  0  0  0
  -26.4262  -32.3703   26.4716 C   0  0  0  0  0  0  0  0  0  0  0  0
  -25.8411  -29.3176   20.5969 C   0  0  0  0  0  0  0  0  0  0  0  0
  -26.3125  -31.2014   25.6950 C   0  0  0  0  0  0  0  0  0  0  0  0
  -25.0134  -28.2013   20.4101 C   0  0  0  0  0  0  0  0  0  0  0  0
  -27.8526  -17.2019   16.0116 C   0  0  0  0  0  0  0  0  0  0  0  0
  -27.8528  -19.5605   15.4886 C   0  0  0  0  0  0  0  0  0  0  0  0
  -28.3394  -17.4848   17.2878 C   0  0  0  0  0  0  0  0  0  0  0  0
  -22.1141   -9.2340   21.6155 C   0  0  0  0  0  0  0  0  0  0  0  0
  -26.9678  -26.8563   19.8799 C   0  0  0  0  0  0  0  0  0  0  0  0
  -20.8142   -7.4033   22.3090 C   0  0  0  0  0  0  0  0  0  0  0  0
  -28.3395  -19.8435   16.7648 C   0  0  0  0  0  0  0  0  0  0  0  0
  -20.5948   -4.6615   22.7750 C   0  0  0  0  0  0  0  0  0  0  0  0
  -20.5113   -6.9352   23.5876 C   0  0  0  0  0  0  0  0  0  0  0  0
  -25.8167  -10.6958   20.1831 C   0  0  0  0  0  0  0  0  0  0  0  0
  -27.6954  -10.9819   19.0769 C   0  0  0  0  0  0  0  0  0  0  0  0
  -26.3847   -8.9802   18.3530 C   0  0  0  0  0  0  0  0  0  0  0  0
  -23.9790  -30.0892   23.0548 C   0  0  0  0  0  0  0  0  0  0  0  0
  -21.6316  -29.9400   20.8211 C   0  0  0  0  0  0  0  0  0  0  0  0
  -20.5561  -28.7064   17.8263 C   0  0  0  0  0  0  0  0  0  0  0  0
  -29.0796  -16.5722   19.5162 C   0  0  0  0  0  0  0  0  0  0  0  0
  -25.2120  -33.1014   26.9872 C   0  0  0  0  0  0  0  0  0  0  0  0
  -25.2491  -30.6541   20.9515 C   0  0  0  0  0  0  0  0  0  0  0  0
  -23.5198  -28.2832   20.5862 C   0  0  0  0  0  0  0  0  0  0  0  0
  -23.9245  -32.7384   26.2518 C   0  0  0  0  0  0  0  0  0  0  0  0
  -29.8060  -14.2596   22.1241 C   0  0  0  0  0  0  0  0  0  0  0  0
  -23.8060  -31.2254   26.0980 C   0  0  0  0  0  0  0  0  0  0  0  0
  -28.9296  -13.0501   21.7907 C   0  0  0  0  0  0  0  0  0  0  0  0
  -27.8175  -23.3290   20.1225 C   0  0  0  0  0  0  0  0  0  0  0  0
  -29.1056  -15.5761   21.7926 C   0  0  0  0  0  0  0  0  0  0  0  0
  -27.7150  -14.4681   20.0874 C   0  0  0  0  0  0  0  0  0  0  0  0
  -25.8673  -24.0220   18.9249 C   0  0  0  0  0  0  0  0  0  0  0  0
  -24.9649  -30.6629   25.2661 C   0  0  1  0  0  0  0  0  0  0  0  0
  -23.8850  -30.5434   21.6256 C   0  0  1  0  0  0  0  0  0  0  0  0
  -28.4031  -13.1174   20.3436 C   0  0  2  0  0  0  0  0  0  0  0  0
  -26.8424  -24.4879   19.9903 C   0  0  2  0  0  0  0  0  0  1  0  0
  -28.0230  -22.8836   18.6805 C   0  0  1  0  0  0  0  0  0  0  0  0
  -27.5870  -20.6596   14.5135 C   0  0  0  0  0  0  0  0  0  0  0  0
  -18.5784  -28.7304   16.2818 C   0  0  0  0  0  0  0  0  0  0  0  0
  -20.1663  -28.0061   22.6713 C   0  0  0  0  0  0  0  0  0  0  0  0
  -18.7300  -27.3462   20.7296 C   0  0  0  0  0  0  0  0  0  0  0  0
  -18.6996  -29.6988   21.5585 C   0  0  0  0  0  0  0  0  0  0  0  0
  -22.1322  -29.9280   15.6394 C   0  0  0  0  0  0  0  0  0  0  0  0
  -26.3177  -13.8788   16.0768 C   0  0  0  0  0  0  0  0  0  0  0  0
  -27.5826  -15.7965   15.5814 C   0  0  0  0  0  0  0  0  0  0  0  0
  -28.4360  -21.4332   18.5310 C   0  0  0  0  0  0  0  0  0  0  0  0
  -20.7218  -28.8552   20.2971 C   0  0  1  0  0  0  0  0  0  0  0  0
  -19.9062  -29.3833   16.6330 C   0  0  2  0  0  0  0  0  0  0  0  0
  -19.6077  -28.4742   21.3126 C   0  0  0  0  0  0  0  0  0  0  0  0
  -26.3531  -11.7977   20.7141 N   0  0  0  0  0  0  0  0  0  0  0  0
  -27.4948  -11.9458   20.0208 N   0  0  0  0  0  0  0  0  0  0  0  0
  -22.9892  -29.6104   20.9391 N   0  0  0  0  0  0  0  0  0  0  0  0
  -28.6378  -15.5692   20.4048 N   0  0  0  0  0  0  0  0  0  0  0  0
  -28.7926  -10.9801   18.2905 N   0  0  0  0  0  0  0  0  0  0  0  0
  -25.2179   -8.2341   18.5681 N   0  0  0  0  0  0  0  0  0  0  0  0
  -28.5944  -16.4442   18.2151 N   0  0  0  0  0  0  0  0  0  0  0  0
  -24.7442  -30.9132   23.8579 N   0  0  0  0  0  0  0  0  0  0  0  0
  -20.2215  -29.3280   19.0108 N   0  0  0  0  0  0  0  0  0  0  0  0
  -26.6785  -23.1088   18.0424 N   0  3  0  0  0  0  0  0  0  0  0  0
  -20.7989  -29.3030   15.4424 N   0  3  0  0  0  0  0  0  0  0  0  0
  -27.2024   -8.6030   17.4798 O   0  0  0  0  0  0  0  0  0  0  0  0
  -23.3991  -29.0676   23.4034 O   0  0  0  0  0  0  0  0  0  0  0  0
  -21.1563  -31.0415   21.1082 O   0  0  0  0  0  0  0  0  0  0  0  0
  -21.2845  -27.7223   17.7189 O   0  0  0  0  0  0  0  0  0  0  0  0
  -29.8545  -17.4622   19.8756 O   0  0  0  0  0  0  0  0  0  0  0  0
  -20.9226   -8.7640   22.0759 O   0  0  0  0  0  0  0  0  0  0  0  0
  -27.5124  -25.6575   19.5359 O   0  0  0  0  0  0  0  0  0  1  0  0
  -28.5851  -21.1364   17.1512 O   0  0  0  0  0  0  0  0  0  0  0  0
  -26.6113  -15.2199   16.4441 O   0  0  0  0  0  0  0  0  0  0  0  0
  -20.4881   -3.3451   22.9983 F   0  0  0  0  0  0  0  0  0  0  0  0
  -20.3235   -7.7978   24.5958 F   0  0  0  0  0  0  0  0  0  0  0  0
  1  2  1  0  0  0  0
  1  5  2  0  0  0  0
  2  6  2  0  0  0  0
  3  8  2  0  0  0  0
  3 17  1  0  0  0  0
  4  9  1  0  0  0  0
  4 17  2  0  0  0  0
  5 19  1  0  0  0  0
  6 21  1  0  0  0  0
  7 10  2  0  0  0  0
  7 20  1  0  0  0  0
  8 26  1  0  0  0  0
  9 26  2  0  0  0  0
 10 27  1  0  0  0  0
 11 12  2  0  0  0  0
 11 28  1  0  0  0  0
 12 30  1  0  0  0  0
 13 22  1  0  0  0  0
 13 27  2  0  0  0  0
 14 23  2  0  0  0  0
 14 24  1  0  0  0  0
 15 25  2  0  0  0  0
 15 29  1  0  0  0  0
 16 30  2  0  0  0  0
 16 31  1  0  0  0  0
 17 32  1  0  0  0  0
 18 32  1  0  0  0  0
 18 33  2  0  0  0  0
 18 34  1  0  0  0  0
 19 21  2  0  0  0  0
 19 39  1  0  0  0  0
 20 22  2  0  0  0  0
 20 40  1  0  0  0  0
 21 50  1  0  0  0  0
 22 41  1  0  0  0  0
 23 25  1  0  0  0  0
 23 62  1  0  0  0  0
 24 29  2  0  0  0  0
 24 55  1  0  0  0  0
 25 73  1  0  0  0  0
 26 83  1  0  0  0  0
 27 84  1  0  0  0  0
 28 31  2  0  0  0  0
 28 83  1  0  0  0  0
 29 85  1  0  0  0  0
 30 87  1  0  0  0  0
 31 88  1  0  0  0  0
 32 67  2  0  0  0  0
 33 68  1  0  0  0  0
 33 71  1  0  0  0  0
 34 72  1  0  0  0  0
 34 78  2  0  0  0  0
 35 51  1  0  0  0  0
 35 74  1  0  0  0  0
 35 79  2  0  0  0  0
 36 64  1  0  0  0  0
 36 69  1  0  0  0  0
 36 80  2  0  0  0  0
 37 65  1  0  0  0  0
 37 75  1  0  0  0  0
 37 81  2  0  0  0  0
 38 70  1  0  0  0  0
 38 73  1  0  0  0  0
 38 82  2  0  0  0  0
 39 42  1  0  0  0  0
 40 51  1  0  0  0  0
 41 69  1  0  0  0  0
 42 44  1  0  0  0  0
 43 45  1  0  0  0  0
 43 47  1  0  0  0  0
 44 50  1  0  0  0  0
 45 52  1  0  0  0  0
 46 53  1  0  0  0  0
 46 54  1  0  0  0  0
 47 70  1  0  0  0  0
 48 52  1  0  0  0  0
 48 70  1  0  0  0  0
 49 53  1  0  0  0  0
 49 76  1  0  0  0  0
 50 74  1  0  0  0  0
 51 69  1  0  0  0  0
 52 68  1  0  0  0  0
 53 84  1  0  0  0  0
 54 63  1  0  0  0  0
 54 76  1  0  0  0  0
 56 65  1  0  0  0  0
 57 66  1  0  0  0  0
 58 66  1  0  0  0  0
 59 66  1  0  0  0  0
 60 77  1  0  0  0  0
 61 86  1  0  0  0  0
 62 86  1  0  0  0  0
 63 85  1  0  0  0  0
 64 66  1  0  0  0  0
 64 75  1  0  0  0  0
 65 77  1  0  0  0  0
 67 68  1  0  0  0  0
M  CHG  2  76   1  77   1
M  ISO  4  38 100  53 101  73 100  84 101
M  END
> <Batch ID>
0156

> <Smiles>
CNC(C)C(=O)NC(C(=O)N1Cc2cc([101O:1][101CH:1]3CNC(COc4cc([100NH:0][100C:0](=O)N5CCCC(n6nc(-c7ccc(Oc8ccc(F)cc8F)cc7)c(C(N)=O)c6N)C5)c(COC)cc4C)C3)ccc2CC1C(=O)NC1CCCc2ccccc21)C(C)(C)C

> <Shape>
0.281

> <Color>
0.090

> <Negative vol penalty>
0.000

$$$$

  -OEChem-04052321563D

 83 91  0     1  0  0  0  0  0999 V2000
  -28.0591  -35.8564   20.8370 C   0  0  0  0  0  0  0  0  0  0  0  0
  -28.7610  -34.7460   20.3792 C   0  0  0  0  0  0  0  0  0  0  0  0
  -22.8948  -10.3064   20.1160 C   0  0  0  0  0  0  0  0  0  0  0  0
  -24.1040   -9.4842   22.0392 C   0  0  0  0  0  0  0  0  0  0  0  0
  -27.0075  -35.6922   21.7376 C   0  0  0  0  0  0  0  0  0  0  0  0
  -28.4125  -33.4707   20.8226 C   0  0  0  0  0  0  0  0  0  0  0  0
  -28.1880  -26.6598   18.6140 C   0  0  0  0  0  0  0  0  0  0  0  0
  -22.0977   -9.1618   20.1278 C   0  0  0  0  0  0  0  0  0  0  0  0
  -23.3069   -8.3396   22.0511 C   0  0  0  0  0  0  0  0  0  0  0  0
  -28.6118  -25.3884   18.9983 C   0  0  0  0  0  0  0  0  0  0  0  0
  -20.2034   -7.4782   23.0743 C   0  0  0  0  0  0  0  0  0  0  0  0
  -19.7022   -7.0521   24.3042 C   0  0  0  0  0  0  0  0  0  0  0  0
  -26.7263  -25.2184   20.4935 C   0  0  0  0  0  0  0  0  0  0  0  0
  -28.0246  -20.3726   20.6738 C   0  0  0  0  0  0  0  0  0  0  0  0
  -28.8178  -21.2301   22.7886 C   0  0  0  0  0  0  0  0  0  0  0  0
  -20.8513   -4.9431   24.0418 C   0  0  0  0  0  0  0  0  0  0  0  0
  -23.8981  -10.4675   21.0717 C   0  0  0  0  0  0  0  0  0  0  0  0
  -24.4788  -12.8623   21.7314 C   0  0  0  0  0  0  0  0  0  0  0  0
  -26.6396  -34.4134   22.1848 C   0  0  0  0  0  0  0  0  0  0  0  0
  -27.0342  -27.2255   19.1756 C   0  0  0  0  0  0  0  0  0  0  0  0
  -27.3558  -33.2893   21.7310 C   0  0  0  0  0  0  0  0  0  0  0  0
  -26.2886  -26.4961   20.1127 C   0  0  0  0  0  0  0  0  0  0  0  0
  -28.1286  -21.4186   21.5906 C   0  0  0  0  0  0  0  0  0  0  0  0
  -28.6098  -19.1379   20.9549 C   0  0  0  0  0  0  0  0  0  0  0  0
  -29.4030  -19.9954   23.0697 C   0  0  0  0  0  0  0  0  0  0  0  0
  -29.2990  -18.9494   22.1529 C   0  0  0  0  0  0  0  0  0  0  0  0
  -22.3037   -8.1784   21.0954 C   0  0  0  0  0  0  0  0  0  0  0  0
  -27.8825  -24.6687   19.9403 C   0  0  0  0  0  0  0  0  0  0  0  0
  -21.0285   -6.6367   22.3280 C   0  0  0  0  0  0  0  0  0  0  0  0
  -20.0262   -5.7845   24.7880 C   0  0  0  0  0  0  0  0  0  0  0  0
  -21.3525   -5.3692   22.8118 C   0  0  0  0  0  0  0  0  0  0  0  0
  -24.7222  -11.6494   21.0596 C   0  0  0  0  0  0  0  0  0  0  0  0
  -25.5480  -13.6585   21.4006 C   0  0  0  0  0  0  0  0  0  0  0  0
  -23.3843  -13.2359   22.5788 C   0  0  0  0  0  0  0  0  0  0  0  0
  -26.4275  -29.8027   20.9343 C   0  0  0  0  0  0  0  0  0  0  0  0
  -23.3429  -28.9078   20.4799 C   0  0  0  0  0  0  0  0  0  0  0  0
  -21.1229  -26.4104   19.7861 C   0  0  0  0  0  0  0  0  0  0  0  0
  -31.0316  -14.3813   20.6568 C   0  0  0  0  0  0  0  0  0  0  0  0
  -25.5265  -34.2900   23.1950 C   0  0  0  0  0  0  0  0  0  0  0  0
  -26.5756  -28.5871   18.7307 C   0  0  0  0  0  0  0  0  0  0  0  0
  -25.0317  -27.0502   20.7304 C   0  0  0  0  0  0  0  0  0  0  0  0
  -24.9781  -32.8715   23.3268 C   0  0  0  0  0  0  0  0  0  0  0  0
  -29.1790  -13.0230   17.9367 C   0  0  0  0  0  0  0  0  0  0  0  0
  -26.1198  -31.8653   23.4310 C   0  0  0  0  0  0  0  0  0  0  0  0
  -27.8374  -12.6391   18.5633 C   0  0  0  0  0  0  0  0  0  0  0  0
  -30.3407  -12.7801   18.8976 C   0  0  0  0  0  0  0  0  0  0  0  0
  -28.8533  -13.0339   20.8461 C   0  0  0  0  0  0  0  0  0  0  0  0
  -26.9917  -31.8875   22.1697 C   0  0  1  0  0  0  0  0  0  0  0  0
  -25.6709  -29.2749   19.7484 C   0  0  1  0  0  0  0  0  0  0  0  0
  -27.6457  -13.3137   19.9350 C   0  0  2  0  0  0  0  0  0  0  0  0
  -28.4803  -18.0361   19.9539 C   0  0  0  0  0  0  0  0  0  0  0  0
  -30.1345  -19.8227   24.3612 C   0  0  0  0  0  0  0  0  0  0  0  0
  -18.6656  -25.9768   19.5196 C   0  0  0  0  0  0  0  0  0  0  0  0
  -22.9998  -29.0033   23.5103 C   0  0  0  0  0  0  0  0  0  0  0  0
  -20.8928  -27.6776   23.2437 C   0  0  0  0  0  0  0  0  0  0  0  0
  -21.0787  -29.9416   22.2129 C   0  0  0  0  0  0  0  0  0  0  0  0
  -21.4616  -25.5500   16.9747 C   0  0  0  0  0  0  0  0  0  0  0  0
  -27.4994  -22.7466   21.2874 C   0  0  0  0  0  0  0  0  0  1  0  0
  -31.2322  -17.3744   22.0659 C   0  0  0  0  0  0  0  0  0  0  0  0
  -31.5811  -15.9571   22.4938 C   0  0  0  0  0  0  0  0  0  0  0  0
  -22.3705  -28.0133   21.2103 C   0  0  1  0  0  0  0  0  0  0  0  0
  -19.9620  -26.3368   18.8107 C   0  0  2  0  0  0  0  0  0  0  0  0
  -21.8602  -28.6490   22.5343 C   0  0  0  0  0  0  0  0  0  0  0  0
  -25.8568  -11.6687   20.3551 N   0  0  0  0  0  0  0  0  0  0  0  0
  -26.3359  -12.9036   20.5824 N   0  0  0  0  0  0  0  0  0  0  0  0
  -24.6277  -28.3882   20.2676 N   0  0  0  0  0  0  0  0  0  0  0  0
  -30.0975  -13.4477   20.1786 N   0  0  0  0  0  0  0  0  0  0  0  0
  -25.8816  -14.9238   21.7327 N   0  0  0  0  0  0  0  0  0  0  0  0
  -22.3706  -12.2970   22.8138 N   0  0  0  0  0  0  0  0  0  0  0  0
  -29.8917  -17.6977   22.4379 N   0  0  0  0  0  0  0  0  0  0  0  0
  -26.3408  -31.1727   21.0928 N   0  0  0  0  0  0  0  0  0  0  0  0
  -21.3149  -27.6925   20.2557 N   0  0  0  0  0  0  0  0  0  0  0  0
  -30.7213  -14.9726   21.8754 N   0  0  0  0  0  0  0  0  0  0  0  0
  -20.2278  -25.3079   17.7659 N   0  3  0  0  0  0  0  0  0  0  0  0
  -23.2991  -14.3744   23.0985 O   0  0  0  0  0  0  0  0  0  0  0  0
  -27.0431  -29.0245   21.6534 O   0  0  0  0  0  0  0  0  0  0  0  0
  -22.9738  -30.0236   20.1051 O   0  0  0  0  0  0  0  0  0  0  0  0
  -21.7902  -25.4280   20.1027 O   0  0  0  0  0  0  0  0  0  0  0  0
  -32.0629  -14.6709   20.0407 O   0  0  0  0  0  0  0  0  0  0  0  0
  -21.5259   -7.0616   21.1074 O   0  0  0  0  0  0  0  0  0  0  0  0
  -28.2943  -23.4277   20.3177 O   0  0  0  0  0  0  0  0  0  1  0  0
  -19.5461   -5.3760   25.9699 F   0  0  0  0  0  0  0  0  0  0  0  0
  -22.1456   -4.5568   22.0999 F   0  0  0  0  0  0  0  0  0  0  0  0
  1  2  1  0  0  0  0
  1  5  2  0  0  0  0
  2  6  2  0  0  0  0
  3  8  2  0  0  0  0
  3 17  1  0  0  0  0
  4  9  1  0  0  0  0
  4 17  2  0  0  0  0
  5 19  1  0  0  0  0
  6 21  1  0  0  0  0
  7 10  2  0  0  0  0
  7 20  1  0  0  0  0
  8 27  1  0  0  0  0
  9 27  2  0  0  0  0
 10 28  1  0  0  0  0
 11 12  2  0  0  0  0
 11 29  1  0  0  0  0
 12 30  1  0  0  0  0
 13 22  1  0  0  0  0
 13 28  2  0  0  0  0
 14 23  1  0  0  0  0
 14 24  2  0  0  0  0
 15 23  2  0  0  0  0
 15 25  1  0  0  0  0
 16 30  2  0  0  0  0
 16 31  1  0  0  0  0
 17 32  1  0  0  0  0
 18 32  1  0  0  0  0
 18 33  2  0  0  0  0
 18 34  1  0  0  0  0
 19 21  2  0  0  0  0
 19 39  1  0  0  0  0
 20 22  2  0  0  0  0
 20 40  1  0  0  0  0
 21 48  1  0  0  0  0
 22 41  1  0  0  0  0
 23 58  1  0  0  0  0
 24 26  1  0  0  0  0
 24 51  1  0  0  0  0
 25 26  2  0  0  0  0
 25 52  1  0  0  0  0
 26 70  1  0  0  0  0
 27 80  1  0  0  0  0
 28 81  1  0  0  0  0
 29 31  2  0  0  0  0
 29 80  1  0  0  0  0
 30 82  1  0  0  0  0
 31 83  1  0  0  0  0
 32 64  2  0  0  0  0
 33 65  1  0  0  0  0
 33 68  1  0  0  0  0
 34 69  1  0  0  0  0
 34 75  2  0  0  0  0
 35 49  1  0  0  0  0
 35 71  1  0  0  0  0
 35 76  2  0  0  0  0
 36 61  1  0  0  0  0
 36 66  1  0  0  0  0
 36 77  2  0  0  0  0
 37 62  1  0  0  0  0
 37 72  1  0  0  0  0
 37 78  2  0  0  0  0
 38 67  1  0  0  0  0
 38 73  1  0  0  0  0
 38 79  2  0  0  0  0
 39 42  1  0  0  0  0
 40 49  1  0  0  0  0
 41 66  1  0  0  0  0
 42 44  1  0  0  0  0
 43 45  1  0  0  0  0
 43 46  1  0  0  0  0
 44 48  1  0  0  0  0
 45 50  1  0  0  0  0
 46 67  1  0  0  0  0
 47 50  1  0  0  0  0
 47 67  1  0  0  0  0
 48 71  1  0  0  0  0
 49 66  1  0  0  0  0
 50 65  1  0  0  0  0
 53 62  1  0  0  0  0
 54 63  1  0  0  0  0
 55 63  1  0  0  0  0
 56 63  1  0  0  0  0
 57 74  1  0  0  0  0
 58 81  1  0  0  0  0
 59 60  1  0  0  0  0
 59 70  1  0  0  0  0
 60 73  1  0  0  0  0
 61 63  1  0  0  0  0
 61 72  1  0  0  0  0
 62 74  1  0  0  0  0
 64 65  1  0  0  0  0
M  CHG  1  74   1
M  ISO  4  38 100  58 101  73 100  81 101
M  END
> <Batch ID>
0156

> <Smiles>
CNC(C)C(=O)NC(C(=O)N1Cc2cc([101O:1][101CH2:1]c3cc(C)c(NCC[100NH:0][100C:0](=O)N4CCCC(n5nc(-c6ccc(Oc7ccc(F)cc7F)cc6)c(C(N)=O)c5N)C4)c(C)c3)ccc2CC1C(=O)NC1CCCc2ccccc21)C(C)(C)C

> <Shape>
0.360

> <Color>
0.145

> <Negative vol penalty>
0.000

$$$$

  -OEChem-04052321563D

 91101  0     1  0  0  0  0  0999 V2000
  -29.4437  -24.6593   16.9597 C   0  0  0  0  0  0  0  0  0  0  0  0
  -28.2573  -24.6733   17.6860 C   0  0  0  0  0  0  0  0  0  0  0  0
  -27.1372  -12.6429   22.6142 C   0  0  0  0  0  0  0  0  0  0  0  0
  -27.3724  -11.3558   20.5831 C   0  0  0  0  0  0  0  0  0  0  0  0
  -30.5380  -25.4028   17.3999 C   0  0  0  0  0  0  0  0  0  0  0  0
  -28.1648  -25.4300   18.8536 C   0  0  0  0  0  0  0  0  0  0  0  0
  -23.8480  -28.0639   19.1248 C   0  0  0  0  0  0  0  0  0  0  0  0
  -26.2300  -11.7037   23.1044 C   0  0  0  0  0  0  0  0  0  0  0  0
  -26.4653  -10.4165   21.0734 C   0  0  0  0  0  0  0  0  0  0  0  0
  -22.6988  -27.3664   19.4943 C   0  0  0  0  0  0  0  0  0  0  0  0
  -23.1128  -10.1259   21.4012 C   0  0  0  0  0  0  0  0  0  0  0  0
  -22.1173   -9.6731   20.5354 C   0  0  0  0  0  0  0  0  0  0  0  0
  -22.9202  -28.2060   21.7450 C   0  0  0  0  0  0  0  0  0  0  0  0
  -23.3037  -22.7425   19.7576 C   0  0  0  0  0  0  0  0  0  0  0  0
  -22.6584  -24.5096   21.8176 C   0  0  0  0  0  0  0  0  0  0  0  0
  -22.9397   -7.4136   20.7715 C   0  0  0  0  0  0  0  0  0  0  0  0
  -27.7084  -12.4691   21.3535 C   0  0  0  0  0  0  0  0  0  0  0  0
  -30.0434  -13.4370   21.0095 C   0  0  0  0  0  0  0  0  0  0  0  0
  -30.4558  -26.1766   18.5683 C   0  0  0  0  0  0  0  0  0  0  0  0
  -24.5493  -28.8301   20.0669 C   0  0  0  0  0  0  0  0  0  0  0  0
  -29.2594  -26.1834   19.3106 C   0  0  0  0  0  0  0  0  0  0  0  0
  -24.0766  -28.9142   21.3843 C   0  0  0  0  0  0  0  0  0  0  0  0
  -24.0153  -22.7055   20.9567 C   0  0  0  0  0  0  0  0  0  0  0  0
  -23.6926  -23.5890   21.9868 C   0  0  0  0  0  0  0  0  0  0  0  0
  -21.9468  -24.5466   20.6184 C   0  0  0  0  0  0  0  0  0  0  0  0
  -25.8941  -10.5904   22.3340 C   0  0  0  0  0  0  0  0  0  0  0  0
  -22.2363  -27.4351   20.8052 C   0  0  0  0  0  0  0  0  0  0  0  0
  -24.0218   -9.2226   21.9521 C   0  0  0  0  0  0  0  0  0  0  0  0
  -22.2695  -23.6631   19.5884 C   0  0  0  0  0  0  0  0  0  0  0  0
  -22.0308   -8.3170   20.2206 C   0  0  0  0  0  0  0  0  0  0  0  0
  -23.9352   -7.8665   21.6373 C   0  0  0  0  0  0  0  0  0  0  0  0
  -28.6452  -13.4393   20.8463 C   0  0  0  0  0  0  0  0  0  0  0  0
  -30.4685  -14.5615   20.3451 C   0  0  0  0  0  0  0  0  0  0  0  0
  -30.8830  -12.5020   21.6998 C   0  0  0  0  0  0  0  0  0  0  0  0
  -27.4812  -28.7458   21.2919 C   0  0  0  0  0  0  0  0  0  0  0  0
  -26.5518  -31.5164   22.6997 C   0  0  0  0  0  0  0  0  0  0  0  0
  -23.9958  -33.4909   23.8020 C   0  0  0  0  0  0  0  0  0  0  0  0
  -28.0080  -19.7081   18.9653 C   0  0  0  0  0  0  0  0  0  0  0  0
  -31.6802  -26.9263   19.0302 C   0  0  0  0  0  0  0  0  0  0  0  0
  -25.7723  -29.5980   19.6459 C   0  0  0  0  0  0  0  0  0  0  0  0
  -24.7817  -29.7392   22.4287 C   0  0  0  0  0  0  0  0  0  0  0  0
  -31.3801  -27.9981   20.0748 C   0  0  0  0  0  0  0  0  0  0  0  0
  -29.3109  -17.4360   16.7096 C   0  0  0  0  0  0  0  0  0  0  0  0
  -30.4598  -27.4449   21.1582 C   0  0  0  0  0  0  0  0  0  0  0  0
  -29.4311  -16.1464   17.5213 C   0  0  0  0  0  0  0  0  0  0  0  0
  -24.8550  -20.3940   20.3456 C   0  0  0  0  0  0  0  0  0  0  0  0
  -26.5020  -22.2813   20.7129 C   0  0  0  0  0  0  0  0  0  0  0  0
  -22.1576  -22.8302   16.2219 C   0  0  0  0  0  0  0  0  0  0  0  0
  -28.0103  -18.1633   17.0303 C   0  0  0  0  0  0  0  0  0  0  0  0
  -26.0051  -19.3926   20.4850 C   0  0  0  0  0  0  0  0  0  0  0  0
  -27.6047  -21.2382   20.8692 C   0  0  0  0  0  0  0  0  0  0  0  0
  -27.9533  -17.1959   19.3060 C   0  0  0  0  0  0  0  0  0  0  0  0
  -20.7906  -23.1050   15.6258 C   0  0  0  0  0  0  0  0  0  0  0  0
  -21.7519  -25.1645   16.5303 C   0  0  0  0  0  0  0  0  0  0  0  0
  -25.1365  -21.6962   21.1167 C   0  0  0  0  0  0  0  0  0  0  0  0
  -29.1122  -27.0114   20.5687 C   0  0  1  0  0  0  0  0  0  0  0  0
  -26.6973  -29.9342   20.8116 C   0  0  1  0  0  0  0  0  0  0  0  0
  -29.2571  -16.4214   19.0254 C   0  0  1  0  0  0  0  0  0  0  0  0
  -22.3337  -23.9517   17.2318 C   0  0  1  0  0  0  0  0  0  0  0  0
  -24.4403  -23.5674   23.2794 C   0  0  0  0  0  0  0  0  0  0  0  0
  -19.4901  -25.0060   20.9289 C   0  0  0  0  0  0  0  0  0  0  0  0
  -23.5495  -35.6808   24.9434 C   0  0  0  0  0  0  0  0  0  0  0  0
  -27.3736  -30.2895   25.3697 C   0  0  0  0  0  0  0  0  0  0  0  0
  -26.0556  -32.0810   26.5193 C   0  0  0  0  0  0  0  0  0  0  0  0
  -28.0047  -32.6930   25.0878 C   0  0  0  0  0  0  0  0  0  0  0  0
  -22.4837  -34.5264   21.4782 C   0  0  0  0  0  0  0  0  0  0  0  0
  -20.8437  -25.5394   20.4542 C   0  0  1  0  0  0  0  0  0  1  0  0
  -25.8729  -31.8808   23.9979 C   0  0  1  0  0  0  0  0  0  0  0  0
  -23.7095  -34.9691   23.6089 C   0  0  2  0  0  0  0  0  0  0  0  0
  -26.8143  -31.7189   25.2247 C   0  0  0  0  0  0  0  0  0  0  0  0
  -28.2108  -14.4826   20.1343 N   0  0  0  0  0  0  0  0  0  0  0  0
  -29.3428  -15.1464   19.8442 N   0  0  0  0  0  0  0  0  0  0  0  0
  -25.9766  -30.4667   21.9697 N   0  0  0  0  0  0  0  0  0  0  0  0
  -27.8807  -18.4026   18.4675 N   0  0  0  0  0  0  0  0  0  0  0  0
  -27.2852  -20.0191   20.1269 N   0  0  0  0  0  0  0  0  0  0  0  0
  -31.6916  -15.0972   20.1464 N   0  0  0  0  0  0  0  0  0  0  0  0
  -30.2828  -11.4023   22.3280 N   0  0  0  0  0  0  0  0  0  0  0  0
  -28.2745  -28.1652   20.3207 N   0  0  0  0  0  0  0  0  0  0  0  0
  -25.3499  -33.2310   23.8201 N   0  0  0  0  0  0  0  0  0  0  0  0
  -20.6781  -24.6004   15.6381 N   0  3  0  0  0  0  0  0  0  0  0  0
  -22.4568  -35.1559   22.8236 N   0  3  0  0  0  0  0  0  0  0  0  0
  -32.1270  -12.6465   21.7717 O   0  0  0  0  0  0  0  0  0  0  0  0
  -27.3755  -28.3833   22.4577 O   0  0  0  0  0  0  0  0  0  0  0  0
  -27.5514  -32.1450   22.3428 O   0  0  0  0  0  0  0  0  0  0  0  0
  -23.1073  -32.6512   23.9282 O   0  0  0  0  0  0  0  0  0  0  0  0
  -28.7256  -20.5468   18.4060 O   0  0  0  0  0  0  0  0  0  0  0  0
  -25.0090   -9.6735   22.8121 O   0  0  0  0  0  0  0  0  0  0  0  0
  -21.5841  -23.6855   18.4111 O   0  0  0  0  0  0  0  0  0  0  0  0
  -21.1117  -26.7527   21.1698 O   0  0  0  0  0  0  0  0  0  1  0  0
  -21.0738   -7.8821   19.3903 F   0  0  0  0  0  0  0  0  0  0  0  0
  -24.8049   -6.9937   22.1644 F   0  0  0  0  0  0  0  0  0  0  0  0
  1  2  1  0  0  0  0
  1  5  2  0  0  0  0
  2  6  2  0  0  0  0
  3  8  2  0  0  0  0
  3 17  1  0  0  0  0
  4  9  1  0  0  0  0
  4 17  2  0  0  0  0
  5 19  1  0  0  0  0
  6 21  1  0  0  0  0
  7 10  2  0  0  0  0
  7 20  1  0  0  0  0
  8 26  1  0  0  0  0
  9 26  2  0  0  0  0
 10 27  1  0  0  0  0
 11 12  2  0  0  0  0
 11 28  1  0  0  0  0
 12 30  1  0  0  0  0
 13 22  1  0  0  0  0
 13 27  2  0  0  0  0
 14 23  2  0  0  0  0
 14 29  1  0  0  0  0
 15 24  2  0  0  0  0
 15 25  1  0  0  0  0
 16 30  2  0  0  0  0
 16 31  1  0  0  0  0
 17 32  1  0  0  0  0
 18 32  1  0  0  0  0
 18 33  2  0  0  0  0
 18 34  1  0  0  0  0
 19 21  2  0  0  0  0
 19 39  1  0  0  0  0
 20 22  2  0  0  0  0
 20 40  1  0  0  0  0
 21 56  1  0  0  0  0
 22 41  1  0  0  0  0
 23 24  1  0  0  0  0
 23 55  1  0  0  0  0
 24 60  1  0  0  0  0
 25 29  2  0  0  0  0
 25 67  1  0  0  0  0
 26 87  1  0  0  0  0
 27 89  1  0  0  0  0
 28 31  2  0  0  0  0
 28 87  1  0  0  0  0
 29 88  1  0  0  0  0
 30 90  1  0  0  0  0
 31 91  1  0  0  0  0
 32 71  2  0  0  0  0
 33 72  1  0  0  0  0
 33 76  1  0  0  0  0
 34 77  1  0  0  0  0
 34 82  2  0  0  0  0
 35 57  1  0  0  0  0
 35 78  1  0  0  0  0
 35 83  2  0  0  0  0
 36 68  1  0  0  0  0
 36 73  1  0  0  0  0
 36 84  2  0  0  0  0
 37 69  1  0  0  0  0
 37 79  1  0  0  0  0
 37 85  2  0  0  0  0
 38 74  1  0  0  0  0
 38 75  1  0  0  0  0
 38 86  2  0  0  0  0
 39 42  1  0  0  0  0
 40 57  1  0  0  0  0
 41 73  1  0  0  0  0
 42 44  1  0  0  0  0
 43 45  1  0  0  0  0
 43 49  1  0  0  0  0
 44 56  1  0  0  0  0
 45 58  1  0  0  0  0
 46 50  1  0  0  0  0
 46 55  1  0  0  0  0
 47 51  1  0  0  0  0
 47 55  1  0  0  0  0
 48 53  1  0  0  0  0
 48 59  1  0  0  0  0
 49 74  1  0  0  0  0
 50 75  1  0  0  0  0
 51 75  1  0  0  0  0
 52 58  1  0  0  0  0
 52 74  1  0  0  0  0
 53 80  1  0  0  0  0
 54 59  1  0  0  0  0
 54 80  1  0  0  0  0
 56 78  1  0  0  0  0
 57 73  1  0  0  0  0
 58 72  1  0  0  0  0
 59 88  1  0  0  0  0
 61 67  1  0  0  0  0
 62 69  1  0  0  0  0
 63 70  1  0  0  0  0
 64 70  1  0  0  0  0
 65 70  1  0  0  0  0
 66 81  1  0  0  0  0
 67 89  1  0  0  0  0
 68 70  1  0  0  0  0
 68 79  1  0  0  0  0
 69 81  1  0  0  0  0
 71 72  1  0  0  0  0
M  CHG  2  80   1  81   1
M  ISO  4  38 100  67 101  75 100  89 101
M  END
> <Batch ID>
0156

> <Smiles>
CNC(C)C(=O)NC(C(=O)N1Cc2cc([101O:1][101CH:1](C)c3cc(C)c(C4CC[100N:0]([100C:0](=O)N5CCCC(n6nc(-c7ccc(Oc8ccc(F)cc8F)cc7)c(C(N)=O)c6N)C5)CC4)cc3OC3CCNC3)ccc2CC1C(=O)NC1CCCc2ccccc21)C(C)(C)C

> <Shape>
0.295

> <Color>
0.078

> <Negative vol penalty>
0.000

$$$$

  -OEChem-04052321563D

 88 97  0     1  0  0  0  0  0999 V2000
  -26.2171  -27.6741   11.4321 C   0  0  0  0  0  0  0  0  0  0  0  0
  -25.4553  -28.4125   12.3321 C   0  0  0  0  0  0  0  0  0  0  0  0
  -25.5714  -15.2934   21.8013 C   0  0  0  0  0  0  0  0  0  0  0  0
  -25.8121  -15.3447   19.3979 C   0  0  0  0  0  0  0  0  0  0  0  0
  -26.8248  -26.4886   11.8433 C   0  0  0  0  0  0  0  0  0  0  0  0
  -25.3000  -27.9651   13.6436 C   0  0  0  0  0  0  0  0  0  0  0  0
  -24.5327  -30.4254   20.3275 C   0  0  0  0  0  0  0  0  0  0  0  0
  -25.6069  -13.8993   21.7751 C   0  0  0  0  0  0  0  0  0  0  0  0
  -25.8477  -13.9506   19.3717 C   0  0  0  0  0  0  0  0  0  0  0  0
  -23.6979  -30.2899   21.4359 C   0  0  0  0  0  0  0  0  0  0  0  0
  -23.4856  -11.3670   21.0597 C   0  0  0  0  0  0  0  0  0  0  0  0
  -22.5454  -10.6809   21.8284 C   0  0  0  0  0  0  0  0  0  0  0  0
  -24.8594  -28.2685   22.0558 C   0  0  0  0  0  0  0  0  0  0  0  0
  -18.7703  -30.2339   23.7811 C   0  0  0  0  0  0  0  0  0  0  0  0
  -17.2170  -27.9993   23.1673 C   0  0  0  0  0  0  0  0  0  0  0  0
  -24.3297   -9.6309   23.0737 C   0  0  0  0  0  0  0  0  0  0  0  0
  -25.6739  -16.0162   20.6127 C   0  0  0  0  0  0  0  0  0  0  0  0
  -26.7308  -18.3328   20.7672 C   0  0  0  0  0  0  0  0  0  0  0  0
  -26.6848  -26.0314   13.1632 C   0  0  0  0  0  0  0  0  0  0  0  0
  -25.5317  -29.4760   20.0684 C   0  0  0  0  0  0  0  0  0  0  0  0
  -25.9053  -26.7716   14.0725 C   0  0  0  0  0  0  0  0  0  0  0  0
  -25.7071  -28.3957   20.9449 C   0  0  0  0  0  0  0  0  0  0  0  0
  -17.4279  -30.3910   23.4365 C   0  0  0  0  0  0  0  0  0  0  0  0
  -19.3361  -28.9594   23.8187 C   0  0  0  0  0  0  0  0  0  0  0  0
  -16.6512  -29.2738   23.1296 C   0  0  0  0  0  0  0  0  0  0  0  0
  -25.7451  -13.2278   20.5603 C   0  0  0  0  0  0  0  0  0  0  0  0
  -23.8593  -29.2098   22.2987 C   0  0  0  0  0  0  0  0  0  0  0  0
  -24.8479  -11.1850   21.2979 C   0  0  0  0  0  0  0  0  0  0  0  0
  -18.5595  -27.8422   23.5118 C   0  0  0  0  0  0  0  0  0  0  0  0
  -22.9674   -9.8129   22.8354 C   0  0  0  0  0  0  0  0  0  0  0  0
  -25.2699  -10.3170   22.3049 C   0  0  0  0  0  0  0  0  0  0  0  0
  -25.6366  -17.4563   20.6391 C   0  0  0  0  0  0  0  0  0  0  0  0
  -26.1715  -19.5869   20.7371 C   0  0  0  0  0  0  0  0  0  0  0  0
  -28.1278  -18.0395   20.9013 C   0  0  0  0  0  0  0  0  0  0  0  0
  -26.1372  -27.4469   17.6979 C   0  0  0  0  0  0  0  0  0  0  0  0
  -28.8621  -26.9102   19.3739 C   0  0  0  0  0  0  0  0  0  0  0  0
  -30.4798  -26.9934   22.3777 C   0  0  0  0  0  0  0  0  0  0  0  0
  -22.4867  -23.2140   22.1791 C   0  0  0  0  0  0  0  0  0  0  0  0
  -27.3215  -24.7196   13.5485 C   0  0  0  0  0  0  0  0  0  0  0  0
  -26.4412  -29.6510   18.8834 C   0  0  0  0  0  0  0  0  0  0  0  0
  -26.7778  -27.3599   20.7225 C   0  0  0  0  0  0  0  0  0  0  0  0
  -27.4165  -24.5087   15.0574 C   0  0  0  0  0  0  0  0  0  0  0  0
  -21.4932  -21.0902   19.5667 C   0  0  0  0  0  0  0  0  0  0  0  0
  -26.0924  -24.8573   15.7296 C   0  0  0  0  0  0  0  0  0  0  0  0
  -22.5780  -20.0148   19.6207 C   0  0  0  0  0  0  0  0  0  0  0  0
  -20.3261  -26.1494   21.4991 C   0  0  0  0  0  0  0  0  0  0  0  0
  -18.9424  -24.3491   22.6189 C   0  0  0  0  0  0  0  0  0  0  0  0
  -21.0444  -21.5221   20.9638 C   0  0  0  0  0  0  0  0  0  0  0  0
  -21.5855  -25.5079   22.0795 C   0  0  0  0  0  0  0  0  0  0  0  0
  -20.2323  -23.7515   23.1763 C   0  0  0  0  0  0  0  0  0  0  0  0
  -23.2382  -20.8700   21.9012 C   0  0  0  0  0  0  0  0  0  0  0  0
  -25.7338  -26.3320   15.5104 C   0  0  1  0  0  0  0  0  0  0  0  0
  -27.0911  -28.3469   18.4312 C   0  0  1  0  0  0  0  0  0  0  0  0
  -23.7514  -20.4578   20.5127 C   0  0  1  0  0  0  0  0  0  0  0  0
  -19.0750  -25.8441   22.3236 C   0  0  0  0  0  0  0  0  0  0  0  0
  -16.8439  -31.7651   23.4011 C   0  0  0  0  0  0  0  0  0  0  0  0
  -15.2118  -29.4168   22.7579 C   0  0  0  0  0  0  0  0  0  0  0  0
  -32.6887  -26.4572   23.4410 C   0  0  0  0  0  0  0  0  0  0  0  0
  -28.1729  -23.9387   19.3016 C   0  0  0  0  0  0  0  0  0  0  0  0
  -29.8393  -23.5788   21.1351 C   0  0  0  0  0  0  0  0  0  0  0  0
  -30.5900  -24.4585   18.9248 C   0  0  0  0  0  0  0  0  0  0  0  0
  -30.9061  -29.8087   23.1847 C   0  0  0  0  0  0  0  0  0  0  0  0
  -21.7224  -29.5922   23.2698 C   0  0  0  0  0  0  0  0  0  1  0  0
  -20.7744  -28.8096   24.1905 C   0  0  1  0  0  0  0  0  0  0  0  0
  -29.2714  -25.9601   20.4734 C   0  0  1  0  0  0  0  0  0  0  0  0
  -31.8436  -27.5305   22.7728 C   0  0  2  0  0  0  0  0  0  0  0  0
  -29.4469  -24.5023   19.9621 C   0  0  0  0  0  0  0  0  0  0  0  0
  -24.4704  -18.0991   20.5355 N   0  0  0  0  0  0  0  0  0  0  0  0
  -24.8286  -19.3929   20.5986 N   0  0  0  0  0  0  0  0  0  0  0  0
  -27.6379  -27.5715   19.5465 N   0  0  0  0  0  0  0  0  0  0  0  0
  -22.2004  -21.8971   21.7890 N   0  0  0  0  0  0  0  0  0  0  0  0
  -21.3926  -24.0814   22.3378 N   0  0  0  0  0  0  0  0  0  0  0  0
  -26.7023  -20.8256   20.8160 N   0  0  0  0  0  0  0  0  0  0  0  0
  -28.5306  -16.6972   20.9137 N   0  0  0  0  0  0  0  0  0  0  0  0
  -26.5077  -27.1771   16.3942 N   0  0  0  0  0  0  0  0  0  0  0  0
  -30.4702  -26.5292   21.0794 N   0  0  0  0  0  0  0  0  0  0  0  0
  -31.6963  -28.6708   23.7210 N   0  3  0  0  0  0  0  0  0  0  0  0
  -28.9917  -18.9408   21.0235 O   0  0  0  0  0  0  0  0  0  0  0  0
  -25.1397  -27.0270   18.2727 O   0  0  0  0  0  0  0  0  0  0  0  0
  -29.6047  -27.0654   18.4013 O   0  0  0  0  0  0  0  0  0  0  0  0
  -29.5201  -26.9829   23.1454 O   0  0  0  0  0  0  0  0  0  0  0  0
  -23.6481  -23.5952   22.3710 O   0  0  0  0  0  0  0  0  0  0  0  0
  -20.9679  -29.2583   25.5372 O   0  0  0  0  0  0  0  0  0  0  0  0
  -25.7801  -11.8674   20.5344 O   0  0  0  0  0  0  0  0  0  0  0  0
  -19.0998  -26.5836   23.5426 O   0  0  0  0  0  0  0  0  0  0  0  0
  -23.0394  -29.0737   23.3891 O   0  0  0  0  0  0  0  0  0  1  0  0
  -22.0644   -9.1553   23.5745 F   0  0  0  0  0  0  0  0  0  0  0  0
  -26.5773  -10.1389   22.5393 F   0  0  0  0  0  0  0  0  0  0  0  0
  1  2  1  0  0  0  0
  1  5  2  0  0  0  0
  2  6  2  0  0  0  0
  3  8  2  0  0  0  0
  3 17  1  0  0  0  0
  4  9  1  0  0  0  0
  4 17  2  0  0  0  0
  5 19  1  0  0  0  0
  6 21  1  0  0  0  0
  7 10  2  0  0  0  0
  7 20  1  0  0  0  0
  8 26  1  0  0  0  0
  9 26  2  0  0  0  0
 10 27  1  0  0  0  0
 11 12  2  0  0  0  0
 11 28  1  0  0  0  0
 12 30  1  0  0  0  0
 13 22  1  0  0  0  0
 13 27  2  0  0  0  0
 14 23  2  0  0  0  0
 14 24  1  0  0  0  0
 15 25  2  0  0  0  0
 15 29  1  0  0  0  0
 16 30  2  0  0  0  0
 16 31  1  0  0  0  0
 17 32  1  0  0  0  0
 18 32  1  0  0  0  0
 18 33  2  0  0  0  0
 18 34  1  0  0  0  0
 19 21  2  0  0  0  0
 19 39  1  0  0  0  0
 20 22  2  0  0  0  0
 20 40  1  0  0  0  0
 21 52  1  0  0  0  0
 22 41  1  0  0  0  0
 23 25  1  0  0  0  0
 23 56  1  0  0  0  0
 24 29  2  0  0  0  0
 24 64  1  0  0  0  0
 25 57  1  0  0  0  0
 26 84  1  0  0  0  0
 27 86  1  0  0  0  0
 28 31  2  0  0  0  0
 28 84  1  0  0  0  0
 29 85  1  0  0  0  0
 30 87  1  0  0  0  0
 31 88  1  0  0  0  0
 32 68  2  0  0  0  0
 33 69  1  0  0  0  0
 33 73  1  0  0  0  0
 34 74  1  0  0  0  0
 34 78  2  0  0  0  0
 35 53  1  0  0  0  0
 35 75  1  0  0  0  0
 35 79  2  0  0  0  0
 36 65  1  0  0  0  0
 36 70  1  0  0  0  0
 36 80  2  0  0  0  0
 37 66  1  0  0  0  0
 37 76  1  0  0  0  0
 37 81  2  0  0  0  0
 38 71  1  0  0  0  0
 38 72  1  0  0  0  0
 38 82  2  0  0  0  0
 39 42  1  0  0  0  0
 40 53  1  0  0  0  0
 41 70  1  0  0  0  0
 42 44  1  0  0  0  0
 43 45  1  0  0  0  0
 43 48  1  0  0  0  0
 44 52  1  0  0  0  0
 45 54  1  0  0  0  0
 46 49  1  0  0  0  0
 46 55  1  0  0  0  0
 47 50  1  0  0  0  0
 47 55  1  0  0  0  0
 48 71  1  0  0  0  0
 49 72  1  0  0  0  0
 50 72  1  0  0  0  0
 51 54  1  0  0  0  0
 51 71  1  0  0  0  0
 52 75  1  0  0  0  0
 53 70  1  0  0  0  0
 54 69  1  0  0  0  0
 55 85  1  0  0  0  0
 58 66  1  0  0  0  0
 59 67  1  0  0  0  0
 60 67  1  0  0  0  0
 61 67  1  0  0  0  0
 62 77  1  0  0  0  0
 63 64  1  0  0  0  0
 63 86  1  0  0  0  0
 64 83  1  0  0  0  0
 65 67  1  0  0  0  0
 65 76  1  0  0  0  0
 66 77  1  0  0  0  0
 68 69  1  0  0  0  0
M  CHG  1  77   1
M  ISO  4  38 100  63 101  72 100  86 101
M  END
> <Batch ID>
0156

> <Smiles>
CNC(C)C(=O)NC(C(=O)N1Cc2cc([101O:1][101CH2:1]C(O)c3cc(C)c(C)cc3OC3CC[100N:0]([100C:0](=O)N4CCCC(n5nc(-c6ccc(Oc7ccc(F)cc7F)cc6)c(C(N)=O)c5N)C4)CC3)ccc2CC1C(=O)NC1CCCc2ccccc21)C(C)(C)C

> <Shape>
0.231

> <Color>
0.075

> <Negative vol penalty>
0.000

$$$$

  -OEChem-04052321563D

 85 94  0     1  0  0  0  0  0999 V2000
  -35.7303  -34.8626   20.6740 C   0  0  0  0  0  0  0  0  0  0  0  0
  -34.6663  -33.9849   20.4922 C   0  0  0  0  0  0  0  0  0  0  0  0
  -23.0360   -9.9424   19.9953 C   0  0  0  0  0  0  0  0  0  0  0  0
  -23.7940   -9.9800   22.2890 C   0  0  0  0  0  0  0  0  0  0  0  0
  -37.0343  -34.4363   20.4258 C   0  0  0  0  0  0  0  0  0  0  0  0
  -34.9058  -32.6806   20.0611 C   0  0  0  0  0  0  0  0  0  0  0  0
  -31.8123  -27.6455   21.6685 C   0  0  0  0  0  0  0  0  0  0  0  0
  -22.2572   -8.8186   20.2711 C   0  0  0  0  0  0  0  0  0  0  0  0
  -23.0151   -8.8562   22.5648 C   0  0  0  0  0  0  0  0  0  0  0  0
  -30.7924  -26.9310   21.0415 C   0  0  0  0  0  0  0  0  0  0  0  0
  -22.7280   -5.4920   20.6403 C   0  0  0  0  0  0  0  0  0  0  0  0
  -22.7642   -4.4391   19.7262 C   0  0  0  0  0  0  0  0  0  0  0  0
  -32.4277  -25.4132   20.1244 C   0  0  0  0  0  0  0  0  0  0  0  0
  -28.5621  -22.0375   21.6139 C   0  0  0  0  0  0  0  0  0  0  0  0
  -29.7271  -21.9768   19.4983 C   0  0  0  0  0  0  0  0  0  0  0  0
  -20.3861   -4.6691   19.3672 C   0  0  0  0  0  0  0  0  0  0  0  0
  -23.8045  -10.5231   21.0043 C   0  0  0  0  0  0  0  0  0  0  0  0
  -24.2231  -13.0332   20.8257 C   0  0  0  0  0  0  0  0  0  0  0  0
  -37.2907  -33.1232   20.0006 C   0  0  0  0  0  0  0  0  0  0  0  0
  -33.1508  -27.2549   21.5190 C   0  0  0  0  0  0  0  0  0  0  0  0
  -36.2144  -32.2367   19.8057 C   0  0  0  0  0  0  0  0  0  0  0  0
  -33.4625  -26.1229   20.7526 C   0  0  0  0  0  0  0  0  0  0  0  0
  -30.1522  -20.2759   21.1607 C   0  0  0  0  0  0  0  0  0  0  0  0
  -28.8088  -22.5842   20.3546 C   0  0  0  0  0  0  0  0  0  0  0  0
  -29.2339  -20.8834   22.0170 C   0  0  0  0  0  0  0  0  0  0  0  0
  -22.2467   -8.2755   21.5558 C   0  0  0  0  0  0  0  0  0  0  0  0
  -31.1002  -25.8164   20.2669 C   0  0  0  0  0  0  0  0  0  0  0  0
  -21.5208   -6.1334   20.9180 C   0  0  0  0  0  0  0  0  0  0  0  0
  -21.5932   -4.0277   19.0895 C   0  0  0  0  0  0  0  0  0  0  0  0
  -20.3499   -5.7219   20.2814 C   0  0  0  0  0  0  0  0  0  0  0  0
  -30.3989  -20.8226   19.9013 C   0  0  0  0  0  0  0  0  0  0  0  0
  -24.6097  -11.6836   20.7199 C   0  0  0  0  0  0  0  0  0  0  0  0
  -25.3378  -13.7404   20.4466 C   0  0  0  0  0  0  0  0  0  0  0  0
  -22.9686  -13.5971   21.2306 C   0  0  0  0  0  0  0  0  0  0  0  0
  -35.7581  -28.6034   20.2996 C   0  0  0  0  0  0  0  0  0  0  0  0
  -37.2108  -25.9613   21.4959 C   0  0  0  0  0  0  0  0  0  0  0  0
  -36.9413  -22.7106   22.4996 C   0  0  0  0  0  0  0  0  0  0  0  0
  -30.8430  -14.6064   20.6014 C   0  0  0  0  0  0  0  0  0  0  0  0
  -38.7131  -32.7223   19.6995 C   0  0  0  0  0  0  0  0  0  0  0  0
  -34.2370  -28.0204   22.2237 C   0  0  0  0  0  0  0  0  0  0  0  0
  -34.8817  -25.6502   20.5771 C   0  0  0  0  0  0  0  0  0  0  0  0
  -38.9133  -31.2119   19.6053 C   0  0  0  0  0  0  0  0  0  0  0  0
  -29.6443  -12.1916   18.2897 C   0  0  0  0  0  0  0  0  0  0  0  0
  -37.8217  -30.5812   18.7466 C   0  0  0  0  0  0  0  0  0  0  0  0
  -28.1972  -11.9531   18.7244 C   0  0  0  0  0  0  0  0  0  0  0  0
  -30.1236  -17.8990   22.4561 C   0  0  0  0  0  0  0  0  0  0  0  0
  -31.1591  -17.8257   20.6021 C   0  0  0  0  0  0  0  0  0  0  0  0
  -30.5642  -12.4132   19.4884 C   0  0  0  0  0  0  0  0  0  0  0  0
  -28.6839  -13.2339   20.8512 C   0  0  0  0  0  0  0  0  0  0  0  0
  -30.9070  -18.9662   21.6337 C   0  0  0  0  0  0  0  0  0  0  0  0
  -36.4358  -30.8067   19.3629 C   0  0  1  0  0  0  0  0  0  0  0  0
  -35.6093  -27.8367   21.5832 C   0  0  1  0  0  0  0  0  0  0  0  0
  -27.7068  -13.0615   19.6755 C   0  0  2  0  0  0  0  0  0  0  0  0
  -30.9938  -16.8261   21.7669 C   0  0  0  0  0  0  0  0  0  0  0  0
  -28.9534  -20.3177   23.3704 C   0  0  0  0  0  0  0  0  0  0  0  0
  -38.3081  -20.8050   23.3928 C   0  0  0  0  0  0  0  0  0  0  0  0
  -38.3703  -25.4918   18.7129 C   0  0  0  0  0  0  0  0  0  0  0  0
  -38.9081  -23.1476   19.4086 C   0  0  0  0  0  0  0  0  0  0  0  0
  -39.9659  -25.0718   20.5923 C   0  0  0  0  0  0  0  0  0  0  0  0
  -35.3468  -22.5818   24.9896 C   0  0  0  0  0  0  0  0  0  0  0  0
  -28.0798  -23.8316   19.9176 C   0  0  0  0  0  0  0  0  0  0  0  0
  -28.8314  -25.1040   20.2934 C   0  0  0  0  0  0  0  0  0  1  0  0
  -37.5153  -24.5788   20.9716 C   0  0  1  0  0  0  0  0  0  0  0  0
  -37.4328  -21.9973   23.7462 C   0  0  2  0  0  0  0  0  0  0  0  0
  -38.6632  -24.5823   19.9229 C   0  0  0  0  0  0  0  0  0  0  0  0
  -25.8713  -11.5396   20.3058 N   0  0  0  0  0  0  0  0  0  0  0  0
  -26.2872  -12.8078   20.1480 N   0  0  0  0  0  0  0  0  0  0  0  0
  -35.9090  -26.4357   21.2809 N   0  0  0  0  0  0  0  0  0  0  0  0
  -30.0434  -13.4813   20.3454 N   0  0  0  0  0  0  0  0  0  0  0  0
  -25.5887  -15.0627   20.3428 N   0  0  0  0  0  0  0  0  0  0  0  0
  -21.9292  -12.7272   21.5875 N   0  0  0  0  0  0  0  0  0  0  0  0
  -36.2190  -29.8954   20.4661 N   0  0  0  0  0  0  0  0  0  0  0  0
  -37.7771  -23.7471   22.1413 N   0  0  0  0  0  0  0  0  0  0  0  0
  -30.2781  -15.5823   21.4158 N   0  0  0  0  0  0  0  0  0  0  0  0
  -36.2785  -21.5101   24.5533 N   0  3  0  0  0  0  0  0  0  0  0  0
  -22.7699  -14.8353   21.2588 O   0  0  0  0  0  0  0  0  0  0  0  0
  -35.4770  -28.0623   19.2366 O   0  0  0  0  0  0  0  0  0  0  0  0
  -38.0932  -26.5941   22.0812 O   0  0  0  0  0  0  0  0  0  0  0  0
  -35.9203  -22.3790   21.9013 O   0  0  0  0  0  0  0  0  0  0  0  0
  -31.9789  -14.7423   20.1339 O   0  0  0  0  0  0  0  0  0  0  0  0
  -21.4867   -7.1790   21.8253 O   0  0  0  0  0  0  0  0  0  0  0  0
  -30.1067  -25.1177   19.6533 O   0  0  0  0  0  0  0  0  0  1  0  0
  -21.6284   -3.0176   18.2105 F   0  0  0  0  0  0  0  0  0  0  0  0
  -19.1874   -6.3351   20.5432 F   0  0  0  0  0  0  0  0  0  0  0  0
  -31.5273  -20.0974   18.8158 Cl  0  0  0  0  0  0  0  0  0  0  0  0
  1  2  1  0  0  0  0
  1  5  2  0  0  0  0
  2  6  2  0  0  0  0
  3  8  2  0  0  0  0
  3 17  1  0  0  0  0
  4  9  1  0  0  0  0
  4 17  2  0  0  0  0
  5 19  1  0  0  0  0
  6 21  1  0  0  0  0
  7 10  2  0  0  0  0
  7 20  1  0  0  0  0
  8 26  1  0  0  0  0
  9 26  2  0  0  0  0
 10 27  1  0  0  0  0
 11 12  2  0  0  0  0
 11 28  1  0  0  0  0
 12 29  1  0  0  0  0
 13 22  1  0  0  0  0
 13 27  2  0  0  0  0
 14 24  1  0  0  0  0
 14 25  2  0  0  0  0
 15 24  2  0  0  0  0
 15 31  1  0  0  0  0
 16 29  2  0  0  0  0
 16 30  1  0  0  0  0
 17 32  1  0  0  0  0
 18 32  1  0  0  0  0
 18 33  2  0  0  0  0
 18 34  1  0  0  0  0
 19 21  2  0  0  0  0
 19 39  1  0  0  0  0
 20 22  2  0  0  0  0
 20 40  1  0  0  0  0
 21 51  1  0  0  0  0
 22 41  1  0  0  0  0
 23 25  1  0  0  0  0
 23 31  2  0  0  0  0
 23 50  1  0  0  0  0
 24 61  1  0  0  0  0
 25 55  1  0  0  0  0
 26 81  1  0  0  0  0
 27 82  1  0  0  0  0
 28 30  2  0  0  0  0
 28 81  1  0  0  0  0
 29 83  1  0  0  0  0
 30 84  1  0  0  0  0
 31 85  1  0  0  0  0
 32 66  2  0  0  0  0
 33 67  1  0  0  0  0
 33 70  1  0  0  0  0
 34 71  1  0  0  0  0
 34 76  2  0  0  0  0
 35 52  1  0  0  0  0
 35 72  1  0  0  0  0
 35 77  2  0  0  0  0
 36 63  1  0  0  0  0
 36 68  1  0  0  0  0
 36 78  2  0  0  0  0
 37 64  1  0  0  0  0
 37 73  1  0  0  0  0
 37 79  2  0  0  0  0
 38 69  1  0  0  0  0
 38 74  1  0  0  0  0
 38 80  2  0  0  0  0
 39 42  1  0  0  0  0
 40 52  1  0  0  0  0
 41 68  1  0  0  0  0
 42 44  1  0  0  0  0
 43 45  1  0  0  0  0
 43 48  1  0  0  0  0
 44 51  1  0  0  0  0
 45 53  1  0  0  0  0
 46 50  1  0  0  0  0
 46 54  1  0  0  0  0
 47 50  1  0  0  0  0
 47 54  1  0  0  0  0
 48 69  1  0  0  0  0
 49 53  1  0  0  0  0
 49 69  1  0  0  0  0
 51 72  1  0  0  0  0
 52 68  1  0  0  0  0
 53 67  1  0  0  0  0
 54 74  1  0  0  0  0
 56 64  1  0  0  0  0
 57 65  1  0  0  0  0
 58 65  1  0  0  0  0
 59 65  1  0  0  0  0
 60 75  1  0  0  0  0
 61 62  1  0  0  0  0
 62 82  1  0  0  0  0
 63 65  1  0  0  0  0
 63 73  1  0  0  0  0
 64 75  1  0  0  0  0
 66 67  1  0  0  0  0
M  CHG  1  75   1
M  ISO  4  38 100  62 101  74 100  82 101
M  END
> <Batch ID>
0156

> <Smiles>
CNC(C)C(=O)NC(C(=O)N1Cc2cc([101O:1][101CH2:1]Cc3cc(C)c(C4CC([100NH:0][100C:0](=O)N5CCCC(n6nc(-c7ccc(Oc8ccc(F)cc8F)cc7)c(C(N)=O)c6N)C5)C4)c(Cl)c3)ccc2CC1C(=O)NC1CCCc2ccccc21)C(C)(C)C

> <Shape>
0.212

> <Color>
0.206

> <Negative vol penalty>
0.000

$$$$

  -OEChem-04052321563D

 88 97  0     1  0  0  0  0  0999 V2000
  -24.4010  -15.5239   15.7931 C   0  0  0  0  0  0  0  0  0  0  0  0
  -24.4829  -16.5122   16.7688 C   0  0  0  0  0  0  0  0  0  0  0  0
  -23.0530   -9.8554   19.9486 C   0  0  0  0  0  0  0  0  0  0  0  0
  -23.8172   -9.8654   22.2405 C   0  0  0  0  0  0  0  0  0  0  0  0
  -23.7652  -15.7928   14.5817 C   0  0  0  0  0  0  0  0  0  0  0  0
  -23.9299  -17.7704   16.5332 C   0  0  0  0  0  0  0  0  0  0  0  0
  -21.2860  -19.5022   20.4899 C   0  0  0  0  0  0  0  0  0  0  0  0
  -22.3051   -8.7058   20.2030 C   0  0  0  0  0  0  0  0  0  0  0  0
  -23.0693   -8.7158   22.4949 C   0  0  0  0  0  0  0  0  0  0  0  0
  -22.0104  -20.0286   21.5585 C   0  0  0  0  0  0  0  0  0  0  0  0
  -19.3565   -7.9244   21.6619 C   0  0  0  0  0  0  0  0  0  0  0  0
  -18.0486   -7.8820   21.1792 C   0  0  0  0  0  0  0  0  0  0  0  0
  -29.0760  -18.0304   23.2157 C   0  0  0  0  0  0  0  0  0  0  0  0
  -21.5633  -22.2589   20.7551 C   0  0  0  0  0  0  0  0  0  0  0  0
  -28.8662  -20.0494   21.3143 C   0  0  0  0  0  0  0  0  0  0  0  0
  -18.5982   -5.9333   19.8610 C   0  0  0  0  0  0  0  0  0  0  0  0
  -23.8091  -10.4352   20.9673 C   0  0  0  0  0  0  0  0  0  0  0  0
  -24.1605  -12.9586   20.8400 C   0  0  0  0  0  0  0  0  0  0  0  0
  -23.1956  -17.0519   14.3350 C   0  0  0  0  0  0  0  0  0  0  0  0
  -20.7030  -20.3513   19.5383 C   0  0  0  0  0  0  0  0  0  0  0  0
  -23.2870  -18.0569   15.3169 C   0  0  0  0  0  0  0  0  0  0  0  0
  -28.1660  -19.0793   23.4160 C   0  0  0  0  0  0  0  0  0  0  0  0
  -20.8298  -21.7408   19.6768 C   0  0  0  0  0  0  0  0  0  0  0  0
  -28.0777  -20.1201   22.4754 C   0  0  0  0  0  0  0  0  0  0  0  0
  -29.8669  -17.9883   22.0694 C   0  0  0  0  0  0  0  0  0  0  0  0
  -22.3132   -8.1360   21.4761 C   0  0  0  0  0  0  0  0  0  0  0  0
  -22.1516  -21.4070   21.6896 C   0  0  0  0  0  0  0  0  0  0  0  0
  -20.2854   -6.9714   21.2441 C   0  0  0  0  0  0  0  0  0  0  0  0
  -29.7560  -18.9935   21.1147 C   0  0  0  0  0  0  0  0  0  0  0  0
  -17.6694   -6.8864   20.2788 C   0  0  0  0  0  0  0  0  0  0  0  0
  -19.9062   -5.9758   20.3437 C   0  0  0  0  0  0  0  0  0  0  0  0
  -24.5823  -11.6224   20.7050 C   0  0  0  0  0  0  0  0  0  0  0  0
  -25.2548  -13.7029   20.4728 C   0  0  0  0  0  0  0  0  0  0  0  0
  -22.8928  -13.4805   21.2600 C   0  0  0  0  0  0  0  0  0  0  0  0
  -21.0537  -20.7902   16.4097 C   0  0  0  0  0  0  0  0  0  0  0  0
  -18.5375  -22.7991   16.8039 C   0  0  0  0  0  0  0  0  0  0  0  0
  -16.7202  -24.7905   18.8964 C   0  0  0  0  0  0  0  0  0  0  0  0
  -30.7428  -14.7011   20.6481 C   0  0  0  0  0  0  0  0  0  0  0  0
  -22.5600  -17.3106   12.9919 C   0  0  0  0  0  0  0  0  0  0  0  0
  -19.9021  -19.7686   18.4062 C   0  0  0  0  0  0  0  0  0  0  0  0
  -27.3100  -19.0933   24.6513 C   0  0  0  0  0  0  0  0  0  0  0  0
  -20.2061  -22.6960   18.6935 C   0  0  0  0  0  0  0  0  0  0  0  0
  -21.6714  -18.5515   12.9675 C   0  0  0  0  0  0  0  0  0  0  0  0
  -29.5915  -12.3148   18.2698 C   0  0  0  0  0  0  0  0  0  0  0  0
  -22.3778  -19.7272   13.6350 C   0  0  0  0  0  0  0  0  0  0  0  0
  -28.1537  -12.0278   18.7062 C   0  0  0  0  0  0  0  0  0  0  0  0
  -30.5117  -12.5352   19.4684 C   0  0  0  0  0  0  0  0  0  0  0  0
  -28.6155  -13.2773   20.8566 C   0  0  0  0  0  0  0  0  0  0  0  0
  -25.9914  -19.8028   24.3951 C   0  0  0  0  0  0  0  0  0  0  0  0
  -22.6777  -19.4263   15.1084 C   0  0  1  0  0  0  0  0  0  0  0  0
  -27.1255  -21.2890   22.6767 C   0  0  2  0  0  0  0  0  0  0  0  0
  -19.7852  -20.7093   17.2109 C   0  0  1  0  0  0  0  0  0  0  0  0
  -27.6384  -13.1034   19.6813 C   0  0  2  0  0  0  0  0  0  0  0  0
  -27.8923  -22.6191   22.7043 C   0  0  0  0  0  0  0  0  0  0  0  0
  -14.7425  -26.3349   18.9218 C   0  0  0  0  0  0  0  0  0  0  0  0
  -24.6271  -22.4736   25.2704 C   0  0  0  0  0  0  0  0  0  0  0  0
  -20.2103  -24.9595   15.4458 C   0  0  0  0  0  0  0  0  0  0  0  0
  -18.6078  -26.6634   16.3386 C   0  0  0  0  0  0  0  0  0  0  0  0
  -17.8076  -24.9113   14.7535 C   0  0  0  0  0  0  0  0  0  0  0  0
  -15.2791  -23.1008   20.8527 C   0  0  0  0  0  0  0  0  0  0  0  0
  -29.9570  -18.2903   18.8518 C   0  0  0  0  0  0  0  0  0  0  0  0
  -30.8194  -16.8547   21.8793 C   0  0  0  0  0  0  0  0  0  0  0  0
  -23.9281  -21.1317   23.2466 C   0  0  0  0  0  0  0  0  0  1  0  0
  -18.3805  -24.2647   17.1296 C   0  0  1  0  0  0  0  0  0  0  0  0
  -15.2247  -24.9075   19.1290 C   0  0  2  0  0  0  0  0  0  0  0  0
  -25.0026  -22.0151   23.8706 C   0  0  2  0  0  0  0  0  0  0  0  0
  -18.7651  -25.1819   15.9345 C   0  0  0  0  0  0  0  0  0  0  0  0
  -25.8460  -11.5205   20.2846 N   0  0  0  0  0  0  0  0  0  0  0  0
  -26.2276  -12.8023   20.1522 N   0  0  0  0  0  0  0  0  0  0  0  0
  -19.4381  -22.0776   17.6002 N   0  0  0  0  0  0  0  0  0  0  0  0
  -29.9668  -13.5682   20.3527 N   0  0  0  0  0  0  0  0  0  0  0  0
  -25.4703  -15.0334   20.3958 N   0  0  0  0  0  0  0  0  0  0  0  0
  -21.8780  -12.5761   21.6015 N   0  0  0  0  0  0  0  0  0  0  0  0
  -21.4810  -19.5754   15.9084 N   0  0  0  0  0  0  0  0  0  0  0  0
  -17.0086  -24.4346   17.5959 N   0  0  0  0  0  0  0  0  0  0  0  0
  -30.1489  -15.6345   21.4889 N   0  0  0  0  0  0  0  0  0  0  0  0
  -26.2821  -21.2201   23.9632 N   0  3  1  0  0  0  0  0  0  0  0  0
  -14.8826  -24.4930   20.5190 N   0  3  0  0  0  0  0  0  0  0  0  0
  -22.6614  -14.7121   21.3145 O   0  0  0  0  0  0  0  0  0  0  0  0
  -21.6033  -21.8746   16.2563 O   0  0  0  0  0  0  0  0  0  0  0  0
  -17.8798  -22.3107   15.8816 O   0  0  0  0  0  0  0  0  0  0  0  0
  -17.5499  -24.9978   19.7792 O   0  0  0  0  0  0  0  0  0  0  0  0
  -31.8786  -14.8710   20.1919 O   0  0  0  0  0  0  0  0  0  0  0  0
  -21.5834   -7.0144   21.7248 O   0  0  0  0  0  0  0  0  0  0  0  0
  -30.5101  -18.9643   19.9803 O   0  0  0  0  0  0  0  0  0  0  0  0
  -22.8636  -21.9270   22.7384 O   0  0  0  0  0  0  0  0  0  1  0  0
  -16.4129   -6.8449   19.8165 F   0  0  0  0  0  0  0  0  0  0  0  0
  -20.7939   -5.0567   19.9396 F   0  0  0  0  0  0  0  0  0  0  0  0
  1  2  1  0  0  0  0
  1  5  2  0  0  0  0
  2  6  2  0  0  0  0
  3  8  2  0  0  0  0
  3 17  1  0  0  0  0
  4  9  1  0  0  0  0
  4 17  2  0  0  0  0
  5 19  1  0  0  0  0
  6 21  1  0  0  0  0
  7 10  2  0  0  0  0
  7 20  1  0  0  0  0
  8 26  1  0  0  0  0
  9 26  2  0  0  0  0
 10 27  1  0  0  0  0
 11 12  2  0  0  0  0
 11 28  1  0  0  0  0
 12 30  1  0  0  0  0
 13 22  1  0  0  0  0
 13 25  2  0  0  0  0
 14 23  1  0  0  0  0
 14 27  2  0  0  0  0
 15 24  1  0  0  0  0
 15 29  2  0  0  0  0
 16 30  2  0  0  0  0
 16 31  1  0  0  0  0
 17 32  1  0  0  0  0
 18 32  1  0  0  0  0
 18 33  2  0  0  0  0
 18 34  1  0  0  0  0
 19 21  2  0  0  0  0
 19 39  1  0  0  0  0
 20 23  2  0  0  0  0
 20 40  1  0  0  0  0
 21 50  1  0  0  0  0
 22 24  2  0  0  0  0
 22 41  1  0  0  0  0
 23 42  1  0  0  0  0
 24 51  1  0  0  0  0
 25 29  1  0  0  0  0
 25 62  1  0  0  0  0
 26 84  1  0  0  0  0
 27 86  1  0  0  0  0
 28 31  2  0  0  0  0
 28 84  1  0  0  0  0
 29 85  1  0  0  0  0
 30 87  1  0  0  0  0
 31 88  1  0  0  0  0
 32 68  2  0  0  0  0
 33 69  1  0  0  0  0
 33 72  1  0  0  0  0
 34 73  1  0  0  0  0
 34 79  2  0  0  0  0
 35 52  1  0  0  0  0
 35 74  1  0  0  0  0
 35 80  2  0  0  0  0
 36 64  1  0  0  0  0
 36 70  1  0  0  0  0
 36 81  2  0  0  0  0
 37 65  1  0  0  0  0
 37 75  1  0  0  0  0
 37 82  2  0  0  0  0
 38 71  1  0  0  0  0
 38 76  1  0  0  0  0
 38 83  2  0  0  0  0
 39 43  1  0  0  0  0
 40 52  1  0  0  0  0
 41 49  1  0  0  0  0
 42 70  1  0  0  0  0
 43 45  1  0  0  0  0
 44 46  1  0  0  0  0
 44 47  1  0  0  0  0
 45 50  1  0  0  0  0
 46 53  1  0  0  0  0
 47 71  1  0  0  0  0
 48 53  1  0  0  0  0
 48 71  1  0  0  0  0
 49 77  1  0  0  0  0
 50 74  1  0  0  0  0
 51 54  1  0  0  0  0
 51 77  1  0  0  0  0
 52 70  1  0  0  0  0
 53 69  1  0  0  0  0
 55 65  1  0  0  0  0
 56 66  1  0  0  0  0
 57 67  1  0  0  0  0
 58 67  1  0  0  0  0
 59 67  1  0  0  0  0
 60 78  1  0  0  0  0
 61 85  1  0  0  0  0
 62 76  1  0  0  0  0
 63 66  1  0  0  0  0
 63 86  1  0  0  0  0
 64 67  1  0  0  0  0
 64 75  1  0  0  0  0
 65 78  1  0  0  0  0
 66 77  1  0  0  0  0
 68 69  1  0  0  0  0
M  CHG  2  77   1  78   1
M  ISO  4  38 100  63 101  76 100  86 101
M  END
> <Batch ID>
0156

> <Smiles>
CNC(C)C(=O)NC(C(=O)N1Cc2cc([101O:1][101CH2:1]C(C)N3CCc4cc(C[100NH:0][100C:0](=O)N5CCCC(n6nc(-c7ccc(Oc8ccc(F)cc8F)cc7)c(C(N)=O)c6N)C5)c(OC)cc4C3C)ccc2CC1C(=O)NC1CCCc2ccccc21)C(C)(C)C

> <Shape>
0.167

> <Color>
0.189

> <Negative vol penalty>
0.000

$$$$

  -OEChem-04052321563D

 91101  0     1  0  0  0  0  0999 V2000
  -23.6217  -27.8924   27.6619 C   0  0  0  0  0  0  0  0  0  0  0  0
  -24.5026  -27.5718   26.6338 C   0  0  0  0  0  0  0  0  0  0  0  0
  -23.2083   -9.7164   20.0853 C   0  0  0  0  0  0  0  0  0  0  0  0
  -23.9848   -9.9529   22.3609 C   0  0  0  0  0  0  0  0  0  0  0  0
  -22.2551  -27.6669   27.5030 C   0  0  0  0  0  0  0  0  0  0  0  0
  -24.0172  -27.0245   25.4467 C   0  0  0  0  0  0  0  0  0  0  0  0
  -26.0796  -29.1529   21.3404 C   0  0  0  0  0  0  0  0  0  0  0  0
  -22.5483   -8.5378   20.4330 C   0  0  0  0  0  0  0  0  0  0  0  0
  -23.3247   -8.7743   22.7086 C   0  0  0  0  0  0  0  0  0  0  0  0
  -27.3675  -28.7481   20.9922 C   0  0  0  0  0  0  0  0  0  0  0  0
  -20.1648   -7.8062   23.4143 C   0  0  0  0  0  0  0  0  0  0  0  0
  -19.4221   -7.8053   24.5950 C   0  0  0  0  0  0  0  0  0  0  0  0
  -26.4458  -27.2804   19.3141 C   0  0  0  0  0  0  0  0  0  0  0  0
  -29.6497  -24.2018   19.8963 C   0  0  0  0  0  0  0  0  0  0  0  0
  -30.3486  -23.1678   22.3913 C   0  0  0  0  0  0  0  0  0  0  0  0
  -20.8009   -6.0202   25.4608 C   0  0  0  0  0  0  0  0  0  0  0  0
  -23.9266  -10.4239   21.0493 C   0  0  0  0  0  0  0  0  0  0  0  0
  -24.0915  -12.9497   20.7315 C   0  0  0  0  0  0  0  0  0  0  0  0
  -21.7517  -27.1255   26.3096 C   0  0  0  0  0  0  0  0  0  0  0  0
  -24.9628  -28.6156   20.6845 C   0  0  0  0  0  0  0  0  0  0  0  0
  -22.6427  -26.7903   25.2722 C   0  0  0  0  0  0  0  0  0  0  0  0
  -25.1450  -27.6821   19.6542 C   0  0  0  0  0  0  0  0  0  0  0  0
  -30.3965  -24.9733   20.7866 C   0  0  0  0  0  0  0  0  0  0  0  0
  -30.7460  -24.4563   22.0341 C   0  0  0  0  0  0  0  0  0  0  0  0
  -29.6017  -22.3963   21.5009 C   0  0  0  0  0  0  0  0  0  0  0  0
  -22.6064   -8.0668   21.7446 C   0  0  0  0  0  0  0  0  0  0  0  0
  -27.5506  -27.8095   19.9809 C   0  0  0  0  0  0  0  0  0  0  0  0
  -21.2255   -6.9141   23.2568 C   0  0  0  0  0  0  0  0  0  0  0  0
  -29.2523  -22.9133   20.2535 C   0  0  0  0  0  0  0  0  0  0  0  0
  -19.7402   -6.9123   25.6182 C   0  0  0  0  0  0  0  0  0  0  0  0
  -21.5436   -6.0212   24.2800 C   0  0  0  0  0  0  0  0  0  0  0  0
  -24.6091  -11.6412   20.6906 C   0  0  0  0  0  0  0  0  0  0  0  0
  -25.1260  -13.7418   20.2970 C   0  0  0  0  0  0  0  0  0  0  0  0
  -22.7918  -13.4081   21.1269 C   0  0  0  0  0  0  0  0  0  0  0  0
  -22.4459  -26.8951   21.5840 C   0  0  0  0  0  0  0  0  0  0  0  0
  -21.5046  -27.3871   18.5190 C   0  0  0  0  0  0  0  0  0  0  0  0
  -22.3811  -28.0874   15.2959 C   0  0  0  0  0  0  0  0  0  0  0  0
  -30.6798  -14.8647   20.8014 C   0  0  0  0  0  0  0  0  0  0  0  0
  -20.2717  -26.8558   26.2023 C   0  0  0  0  0  0  0  0  0  0  0  0
  -23.5815  -29.0826   21.0537 C   0  0  0  0  0  0  0  0  0  0  0  0
  -23.9800  -27.0900   18.9053 C   0  0  0  0  0  0  0  0  0  0  0  0
  -19.7976  -26.6208   24.7704 C   0  0  0  0  0  0  0  0  0  0  0  0
  -29.5330  -12.5477   18.1448 C   0  0  0  0  0  0  0  0  0  0  0  0
  -20.7301  -25.6508   24.0518 C   0  0  0  0  0  0  0  0  0  0  0  0
  -28.1355  -12.1608   18.6252 C   0  0  0  0  0  0  0  0  0  0  0  0
  -31.6813  -26.4939   19.1497 C   0  0  0  0  0  0  0  0  0  0  0  0
  -32.2795  -26.7100   20.5045 C   0  0  0  0  0  0  0  0  0  0  0  0
  -31.1511  -17.8316   22.5369 C   0  0  0  0  0  0  0  0  0  0  0  0
  -29.1520  -18.0328   21.0054 C   0  0  0  0  0  0  0  0  0  0  0  0
  -30.4505  -12.9137   19.3072 C   0  0  0  0  0  0  0  0  0  0  0  0
  -30.7859  -16.3676   22.7674 C   0  0  0  0  0  0  0  0  0  0  0  0
  -28.8408  -16.5527   21.2462 C   0  0  0  0  0  0  0  0  0  0  0  0
  -28.5030  -13.5909   20.6750 C   0  0  0  0  0  0  0  0  0  0  0  0
  -22.1519  -26.2180   23.9601 C   0  0  1  0  0  0  0  0  0  0  0  0
  -22.4915  -28.0867   20.6698 C   0  0  1  0  0  0  0  0  0  0  0  0
  -27.5417  -13.2593   19.5235 C   0  0  2  0  0  0  0  0  0  0  0  0
  -29.9008  -18.6378   22.1910 C   0  0  0  0  0  0  0  0  0  0  0  0
  -30.8111  -26.3496   20.3836 C   0  0  0  0  0  0  0  0  0  0  0  0
  -31.5450  -25.2621   23.0053 C   0  0  0  0  0  0  0  0  0  0  0  0
  -21.3963  -28.3870   13.0073 C   0  0  0  0  0  0  0  0  0  0  0  0
  -21.1824  -24.3637   18.2645 C   0  0  0  0  0  0  0  0  0  0  0  0
  -21.1351  -24.6481   15.7775 C   0  0  0  0  0  0  0  0  0  0  0  0
  -19.3653  -25.7009   17.1854 C   0  0  0  0  0  0  0  0  0  0  0  0
  -23.3357  -30.8836   15.1244 C   0  0  0  0  0  0  0  0  0  0  0  0
  -28.2105  -22.7796   18.1197 C   0  0  0  0  0  0  0  0  0  0  0  0
  -29.1828  -21.0125   21.9017 C   0  0  0  0  0  0  0  0  0  0  0  0
  -29.7968  -27.4230   20.6599 C   0  0  0  0  0  0  0  0  0  1  0  0
  -21.7036  -26.6620   17.2100 C   0  0  1  0  0  0  0  0  0  0  0  0
  -21.8214  -29.0797   14.2927 C   0  0  2  0  0  0  0  0  0  0  0  0
  -20.8687  -25.3532   17.1246 C   0  0  0  0  0  0  0  0  0  0  0  0
  -25.8741  -11.6001   20.2638 N   0  0  0  0  0  0  0  0  0  0  0  0
  -26.1600  -12.8927   20.0323 N   0  0  0  0  0  0  0  0  0  0  0  0
  -22.6489  -27.5738   19.3073 N   0  0  0  0  0  0  0  0  0  0  0  0
  -29.8449  -13.9251   20.1738 N   0  0  0  0  0  0  0  0  0  0  0  0
  -30.0582  -15.8183   21.6217 N   0  0  0  0  0  0  0  0  0  0  0  0
  -25.2430  -15.0749   20.1194 N   0  0  0  0  0  0  0  0  0  0  0  0
  -21.8482  -12.4606   21.5465 N   0  0  0  0  0  0  0  0  0  0  0  0
  -22.2327  -27.2125   22.9118 N   0  0  0  0  0  0  0  0  0  0  0  0
  -21.4079  -27.6291   16.1585 N   0  0  0  0  0  0  0  0  0  0  0  0
  -30.2982  -20.0295   21.8555 N   0  3  0  0  0  0  0  0  0  0  0  0
  -22.8452  -30.1088   13.9556 N   0  3  0  0  0  0  0  0  0  0  0  0
  -22.4713  -14.6204   21.0930 O   0  0  0  0  0  0  0  0  0  0  0  0
  -22.5918  -25.7708   21.1188 O   0  0  0  0  0  0  0  0  0  0  0  0
  -20.3766  -27.7799   18.8273 O   0  0  0  0  0  0  0  0  0  0  0  0
  -23.5627  -27.7496   15.3104 O   0  0  0  0  0  0  0  0  0  0  0  0
  -31.9060  -14.8525   20.6358 O   0  0  0  0  0  0  0  0  0  0  0  0
  -21.9623   -6.9169   22.0843 O   0  0  0  0  0  0  0  0  0  0  0  0
  -28.5231  -22.1731   19.3720 O   0  0  0  0  0  0  0  0  0  0  0  0
  -28.8176  -27.4086   19.6364 O   0  0  0  0  0  0  0  0  0  1  0  0
  -19.0279   -6.9125   26.7526 F   0  0  0  0  0  0  0  0  0  0  0  0
  -22.5622   -5.1626   24.1350 F   0  0  0  0  0  0  0  0  0  0  0  0
  1  2  1  0  0  0  0
  1  5  2  0  0  0  0
  2  6  2  0  0  0  0
  3  8  2  0  0  0  0
  3 17  1  0  0  0  0
  4  9  1  0  0  0  0
  4 17  2  0  0  0  0
  5 19  1  0  0  0  0
  6 21  1  0  0  0  0
  7 10  2  0  0  0  0
  7 20  1  0  0  0  0
  8 26  1  0  0  0  0
  9 26  2  0  0  0  0
 10 27  1  0  0  0  0
 11 12  2  0  0  0  0
 11 28  1  0  0  0  0
 12 30  1  0  0  0  0
 13 22  1  0  0  0  0
 13 27  2  0  0  0  0
 14 23  1  0  0  0  0
 14 29  2  0  0  0  0
 15 24  1  0  0  0  0
 15 25  2  0  0  0  0
 16 30  2  0  0  0  0
 16 31  1  0  0  0  0
 17 32  1  0  0  0  0
 18 32  1  0  0  0  0
 18 33  2  0  0  0  0
 18 34  1  0  0  0  0
 19 21  2  0  0  0  0
 19 39  1  0  0  0  0
 20 22  2  0  0  0  0
 20 40  1  0  0  0  0
 21 54  1  0  0  0  0
 22 41  1  0  0  0  0
 23 24  2  0  0  0  0
 23 58  1  0  0  0  0
 24 59  1  0  0  0  0
 25 29  1  0  0  0  0
 25 66  1  0  0  0  0
 26 87  1  0  0  0  0
 27 89  1  0  0  0  0
 28 31  2  0  0  0  0
 28 87  1  0  0  0  0
 29 88  1  0  0  0  0
 30 90  1  0  0  0  0
 31 91  1  0  0  0  0
 32 71  2  0  0  0  0
 33 72  1  0  0  0  0
 33 76  1  0  0  0  0
 34 77  1  0  0  0  0
 34 82  2  0  0  0  0
 35 55  1  0  0  0  0
 35 78  1  0  0  0  0
 35 83  2  0  0  0  0
 36 68  1  0  0  0  0
 36 73  1  0  0  0  0
 36 84  2  0  0  0  0
 37 69  1  0  0  0  0
 37 79  1  0  0  0  0
 37 85  2  0  0  0  0
 38 74  1  0  0  0  0
 38 75  1  0  0  0  0
 38 86  2  0  0  0  0
 39 42  1  0  0  0  0
 40 55  1  0  0  0  0
 41 73  1  0  0  0  0
 42 44  1  0  0  0  0
 43 45  1  0  0  0  0
 43 50  1  0  0  0  0
 44 54  1  0  0  0  0
 45 56  1  0  0  0  0
 46 47  1  0  0  0  0
 46 58  1  0  0  0  0
 47 58  1  0  0  0  0
 48 51  1  0  0  0  0
 48 57  1  0  0  0  0
 49 52  1  0  0  0  0
 49 57  1  0  0  0  0
 50 74  1  0  0  0  0
 51 75  1  0  0  0  0
 52 75  1  0  0  0  0
 53 56  1  0  0  0  0
 53 74  1  0  0  0  0
 54 78  1  0  0  0  0
 55 73  1  0  0  0  0
 56 72  1  0  0  0  0
 57 80  1  0  0  0  0
 58 67  1  0  0  0  0
 60 69  1  0  0  0  0
 61 70  1  0  0  0  0
 62 70  1  0  0  0  0
 63 70  1  0  0  0  0
 64 81  1  0  0  0  0
 65 88  1  0  0  0  0
 66 80  1  0  0  0  0
 67 89  1  0  0  0  0
 68 70  1  0  0  0  0
 68 79  1  0  0  0  0
 69 81  1  0  0  0  0
 71 72  1  0  0  0  0
M  CHG  2  80   1  81   1
M  ISO  4  38 100  67 101  75 100  89 101
M  END
> <Batch ID>
0156

> <Smiles>
CNC(C)C(=O)NC(C(=O)N1Cc2cc([101O:1][101CH2:1]C3(c4cc(OC)c(CNC5CC[100N:0]([100C:0](=O)N6CCCC(n7nc(-c8ccc(Oc9ccc(F)cc9F)cc8)c(C(N)=O)c7N)C6)CC5)cc4C)CC3)ccc2CC1C(=O)NC1CCCc2ccccc21)C(C)(C)C

> <Shape>
0.317

> <Color>
0.211

> <Negative vol penalty>
0.000

$$$$

  -OEChem-04052321563D

 89 98  0     1  0  0  0  0  0999 V2000
  -29.3997  -31.5045   21.9695 C   0  0  0  0  0  0  0  0  0  0  0  0
  -28.8802  -30.2679   21.6002 C   0  0  0  0  0  0  0  0  0  0  0  0
  -24.3560  -10.7624   23.4597 C   0  0  0  0  0  0  0  0  0  0  0  0
  -24.1912  -12.5999   25.0196 C   0  0  0  0  0  0  0  0  0  0  0  0
  -28.7091  -32.3066   22.8770 C   0  0  0  0  0  0  0  0  0  0  0  0
  -27.6701  -29.8323   22.1390 C   0  0  0  0  0  0  0  0  0  0  0  0
  -24.5941  -27.8370   18.6458 C   0  0  0  0  0  0  0  0  0  0  0  0
  -23.8416   -9.8968   24.4250 C   0  0  0  0  0  0  0  0  0  0  0  0
  -23.6767  -11.7344   25.9849 C   0  0  0  0  0  0  0  0  0  0  0  0
  -24.8671  -26.5360   18.2256 C   0  0  0  0  0  0  0  0  0  0  0  0
  -20.8139   -9.1199   25.7142 C   0  0  0  0  0  0  0  0  0  0  0  0
  -19.8233   -8.2216   25.3175 C   0  0  0  0  0  0  0  0  0  0  0  0
  -23.1371  -25.7071   19.6882 C   0  0  0  0  0  0  0  0  0  0  0  0
  -30.3634  -22.7495   21.4354 C   0  0  0  0  0  0  0  0  0  0  0  0
  -21.2400   -6.3741   25.9634 C   0  0  0  0  0  0  0  0  0  0  0  0
  -24.5309  -12.1140   23.7570 C   0  0  0  0  0  0  0  0  0  0  0  0
  -24.3366  -13.7506   21.8099 C   0  0  0  0  0  0  0  0  0  0  0  0
  -27.4852  -31.8848   23.4199 C   0  0  0  0  0  0  0  0  0  0  0  0
  -23.5963  -28.0822   19.6001 C   0  0  0  0  0  0  0  0  0  0  0  0
  -26.9631  -30.6290   23.0557 C   0  0  0  0  0  0  0  0  0  0  0  0
  -22.8517  -27.0124   20.1170 C   0  0  0  0  0  0  0  0  0  0  0  0
  -29.0496  -22.3618   21.1723 C   0  0  0  0  0  0  0  0  0  0  0  0
  -29.8512  -24.9903   20.6916 C   0  0  0  0  0  0  0  0  0  0  0  0
  -28.5374  -24.6027   20.4284 C   0  0  0  0  0  0  0  0  0  0  0  0
  -23.5019  -10.3828   25.6875 C   0  0  0  0  0  0  0  0  0  0  0  0
  -24.1405  -25.4705   18.7489 C   0  0  0  0  0  0  0  0  0  0  0  0
  -22.0176   -8.6453   26.2355 C   0  0  0  0  0  0  0  0  0  0  0  0
  -30.7642  -24.0638   21.1951 C   0  0  0  0  0  0  0  0  0  0  0  0
  -28.1366  -23.2884   20.6688 C   0  0  0  0  0  0  0  0  0  0  0  0
  -20.0364   -6.8487   25.4421 C   0  0  0  0  0  0  0  0  0  0  0  0
  -22.2306   -7.2725   26.3601 C   0  0  0  0  0  0  0  0  0  0  0  0
  -25.0628  -13.0085   22.7605 C   0  0  0  0  0  0  0  0  0  0  0  0
  -25.2950  -14.4364   21.1046 C   0  0  0  0  0  0  0  0  0  0  0  0
  -22.9220  -13.8144   21.5846 C   0  0  0  0  0  0  0  0  0  0  0  0
  -23.5472  -29.3236   22.5259 C   0  0  0  0  0  0  0  0  0  0  0  0
  -20.3360  -29.0275   22.1758 C   0  0  0  0  0  0  0  0  0  0  0  0
  -17.7212  -27.4628   20.6391 C   0  0  0  0  0  0  0  0  0  0  0  0
  -29.9609  -17.4883   20.9898 C   0  0  0  0  0  0  0  0  0  0  0  0
  -26.7985  -32.7658   24.4333 C   0  0  0  0  0  0  0  0  0  0  0  0
  -23.2960  -29.4940   20.0232 C   0  0  0  0  0  0  0  0  0  0  0  0
  -21.7563  -27.2243   21.1288 C   0  0  0  0  0  0  0  0  0  0  0  0
  -25.3370  -32.3949   24.6719 C   0  0  0  0  0  0  0  0  0  0  0  0
  -30.3133  -13.9731   21.0311 C   0  0  0  0  0  0  0  0  0  0  0  0
  -25.1920  -30.8877   24.8562 C   0  0  0  0  0  0  0  0  0  0  0  0
  -28.9343  -13.4614   21.4384 C   0  0  0  0  0  0  0  0  0  0  0  0
  -28.8130  -20.4162   22.8776 C   0  0  0  0  0  0  0  0  0  0  0  0
  -30.6576  -15.2541   21.7791 C   0  0  0  0  0  0  0  0  0  0  0  0
  -28.7049  -18.9059   22.7152 C   0  0  0  0  0  0  0  0  0  0  0  0
  -29.4182  -19.8796   20.6451 C   0  0  0  0  0  0  0  0  0  0  0  0
  -28.2602  -15.8638   21.9550 C   0  0  0  0  0  0  0  0  0  0  0  0
  -28.6336  -20.9324   21.4407 C   0  0  2  0  0  0  0  0  0  0  0  0
  -25.6410  -30.1324   23.5995 C   0  0  1  0  0  0  0  0  0  0  0  0
  -22.6069  -29.5769   21.3817 C   0  0  1  0  0  0  0  0  0  0  0  0
  -27.8713  -14.5531   21.2404 C   0  0  2  0  0  0  0  0  0  0  0  0
  -30.2892  -26.3972   20.4366 C   0  0  0  0  0  0  0  0  0  0  0  0
  -27.5539  -25.5925   19.8897 C   0  0  0  0  0  0  0  0  0  0  0  0
  -15.2128  -27.4088   20.5873 C   0  0  0  0  0  0  0  0  0  0  0  0
  -20.3173  -27.4834   24.8075 C   0  0  0  0  0  0  0  0  0  0  0  0
  -18.0254  -26.6596   24.2274 C   0  0  0  0  0  0  0  0  0  0  0  0
  -18.4304  -29.1018   24.5341 C   0  0  0  0  0  0  0  0  0  0  0  0
  -17.6475  -28.2481   17.7866 C   0  0  0  0  0  0  0  0  0  0  0  0
  -32.3335  -24.9125   22.7676 C   0  0  0  0  0  0  0  0  0  0  0  0
  -25.1148  -21.9900   19.0140 C   0  0  0  0  0  0  0  0  0  0  0  0
  -24.1713  -23.1525   19.2798 C   0  0  0  0  0  0  0  0  0  1  0  0
  -26.5737  -22.4088   19.1069 C   0  0  0  0  0  0  0  0  0  0  0  0
  -19.3236  -27.9470   22.4700 C   0  0  1  0  0  0  0  0  0  0  0  0
  -16.4695  -28.0088   19.9760 C   0  0  2  0  0  0  0  0  0  0  0  0
  -19.0461  -27.7934   23.9921 C   0  0  0  0  0  0  0  0  0  0  0  0
  -26.3809  -13.2042   22.6700 N   0  0  0  0  0  0  0  0  0  0  0  0
  -26.4905  -14.0771   21.6540 N   0  0  0  0  0  0  0  0  0  0  0  0
  -21.5046  -28.6223   21.5155 N   0  0  0  0  0  0  0  0  0  0  0  0
  -29.6256  -16.2783   21.6073 N   0  0  0  0  0  0  0  0  0  0  0  0
  -29.2912  -18.6392   21.4034 N   0  0  0  0  0  0  0  0  0  0  0  0
  -25.2234  -15.3056   20.0742 N   0  0  0  0  0  0  0  0  0  0  0  0
  -22.0803  -13.0457   22.4000 N   0  0  0  0  0  0  0  0  0  0  0  0
  -24.6172  -30.1963   22.5786 N   0  0  0  0  0  0  0  0  0  0  0  0
  -18.1421  -28.2676   21.6766 N   0  0  0  0  0  0  0  0  0  0  0  0
  -16.4777  -27.6978   18.5186 N   0  3  0  0  0  0  0  0  0  0  0  0
  -22.4206  -14.5191   20.6761 O   0  0  0  0  0  0  0  0  0  0  0  0
  -23.3181  -28.4053   23.3043 O   0  0  0  0  0  0  0  0  0  0  0  0
  -20.0955  -30.1895   22.5129 O   0  0  0  0  0  0  0  0  0  0  0  0
  -18.2685  -26.4242   20.2756 O   0  0  0  0  0  0  0  0  0  0  0  0
  -30.8523  -17.5468   20.1319 O   0  0  0  0  0  0  0  0  0  0  0  0
  -22.9997   -9.5385   26.6296 O   0  0  0  0  0  0  0  0  0  0  0  0
  -32.0521  -24.4235   21.4579 O   0  0  0  0  0  0  0  0  0  0  0  0
  -24.4072  -24.1903   18.3380 O   0  0  0  0  0  0  0  0  0  1  0  0
  -26.8517  -22.9074   20.4128 O   0  0  0  0  0  0  0  0  0  0  0  0
  -19.0844   -5.9862   25.0625 F   0  0  0  0  0  0  0  0  0  0  0  0
  -23.3845   -6.8107   26.8613 F   0  0  0  0  0  0  0  0  0  0  0  0
  1  2  1  0  0  0  0
  1  5  2  0  0  0  0
  2  6  2  0  0  0  0
  3  8  2  0  0  0  0
  3 16  1  0  0  0  0
  4  9  1  0  0  0  0
  4 16  2  0  0  0  0
  5 18  1  0  0  0  0
  6 20  1  0  0  0  0
  7 10  2  0  0  0  0
  7 19  1  0  0  0  0
  8 25  1  0  0  0  0
  9 25  2  0  0  0  0
 10 26  1  0  0  0  0
 11 12  2  0  0  0  0
 11 27  1  0  0  0  0
 12 30  1  0  0  0  0
 13 21  1  0  0  0  0
 13 26  2  0  0  0  0
 14 22  2  0  0  0  0
 14 28  1  0  0  0  0
 15 30  2  0  0  0  0
 15 31  1  0  0  0  0
 16 32  1  0  0  0  0
 17 32  1  0  0  0  0
 17 33  2  0  0  0  0
 17 34  1  0  0  0  0
 18 20  2  0  0  0  0
 18 39  1  0  0  0  0
 19 21  2  0  0  0  0
 19 40  1  0  0  0  0
 20 52  1  0  0  0  0
 21 41  1  0  0  0  0
 22 29  1  0  0  0  0
 22 51  1  0  0  0  0
 23 24  1  0  0  0  0
 23 28  2  0  0  0  0
 23 55  1  0  0  0  0
 24 29  2  0  0  0  0
 24 56  1  0  0  0  0
 25 84  1  0  0  0  0
 26 86  1  0  0  0  0
 27 31  2  0  0  0  0
 27 84  1  0  0  0  0
 28 85  1  0  0  0  0
 29 87  1  0  0  0  0
 30 88  1  0  0  0  0
 31 89  1  0  0  0  0
 32 69  2  0  0  0  0
 33 70  1  0  0  0  0
 33 74  1  0  0  0  0
 34 75  1  0  0  0  0
 34 79  2  0  0  0  0
 35 53  1  0  0  0  0
 35 76  1  0  0  0  0
 35 80  2  0  0  0  0
 36 66  1  0  0  0  0
 36 71  1  0  0  0  0
 36 81  2  0  0  0  0
 37 67  1  0  0  0  0
 37 77  1  0  0  0  0
 37 82  2  0  0  0  0
 38 72  1  0  0  0  0
 38 73  1  0  0  0  0
 38 83  2  0  0  0  0
 39 42  1  0  0  0  0
 40 53  1  0  0  0  0
 41 71  1  0  0  0  0
 42 44  1  0  0  0  0
 43 45  1  0  0  0  0
 43 47  1  0  0  0  0
 44 52  1  0  0  0  0
 45 54  1  0  0  0  0
 46 48  1  0  0  0  0
 46 51  1  0  0  0  0
 47 72  1  0  0  0  0
 48 73  1  0  0  0  0
 49 51  1  0  0  0  0
 49 73  1  0  0  0  0
 50 54  1  0  0  0  0
 50 72  1  0  0  0  0
 52 76  1  0  0  0  0
 53 71  1  0  0  0  0
 54 70  1  0  0  0  0
 57 67  1  0  0  0  0
 58 68  1  0  0  0  0
 59 68  1  0  0  0  0
 60 68  1  0  0  0  0
 61 78  1  0  0  0  0
 62 85  1  0  0  0  0
 63 64  1  0  0  0  0
 63 65  1  0  0  0  0
 64 86  1  0  0  0  0
 65 87  1  0  0  0  0
 66 68  1  0  0  0  0
 66 77  1  0  0  0  0
 67 78  1  0  0  0  0
 69 70  1  0  0  0  0
M  CHG  1  78   1
M  ISO  4  38 100  64 101  73 100  86 101
M  END
> <Batch ID>
0156

> <Smiles>
CNC(C)C(=O)NC(C(=O)N1Cc2cc([101O:1][101CH2:1]CCOc3c(C4CC[100N:0]([100C:0](=O)N5CCCC(n6nc(-c7ccc(Oc8ccc(F)cc8F)cc7)c(C(N)=O)c6N)C5)C4)cc(OC)c(C)c3C)ccc2CC1C(=O)NC1CCCc2ccccc21)C(C)(C)C

> <Shape>
0.263

> <Color>
0.101

> <Negative vol penalty>
0.000

$$$$

  -OEChem-04052321563D

 88 97  0     1  0  0  0  0  0999 V2000
  -27.5651  -37.2868   24.4222 C   0  0  0  0  0  0  0  0  0  0  0  0
  -28.1247  -36.4446   23.4667 C   0  0  0  0  0  0  0  0  0  0  0  0
  -30.6604   -7.0246   18.2741 C   0  0  0  0  0  0  0  0  0  0  0  0
  -28.9237   -6.5150   19.8746 C   0  0  0  0  0  0  0  0  0  0  0  0
  -26.7524  -36.7591   25.4246 C   0  0  0  0  0  0  0  0  0  0  0  0
  -27.8727  -35.0740   23.5137 C   0  0  0  0  0  0  0  0  0  0  0  0
  -27.0429  -29.3997   19.2206 C   0  0  0  0  0  0  0  0  0  0  0  0
  -31.3142   -5.8380   18.6056 C   0  0  0  0  0  0  0  0  0  0  0  0
  -29.5775   -5.3283   20.2061 C   0  0  0  0  0  0  0  0  0  0  0  0
  -27.5277  -28.1050   19.0410 C   0  0  0  0  0  0  0  0  0  0  0  0
  -29.9134   -2.2255   18.9097 C   0  0  0  0  0  0  0  0  0  0  0  0
  -29.1396   -1.0703   19.0205 C   0  0  0  0  0  0  0  0  0  0  0  0
  -26.0442  -27.3158   20.7717 C   0  0  0  0  0  0  0  0  0  0  0  0
  -29.8252   -0.8321   21.3249 C   0  0  0  0  0  0  0  0  0  0  0  0
  -29.4652   -7.3632   18.9086 C   0  0  0  0  0  0  0  0  0  0  0  0
  -27.8149   -8.7729   17.5681 C   0  0  0  0  0  0  0  0  0  0  0  0
  -26.4825  -35.3825   25.4783 C   0  0  0  0  0  0  0  0  0  0  0  0
  -26.0612  -29.6646   20.1863 C   0  0  0  0  0  0  0  0  0  0  0  0
  -27.0567  -34.5271   24.5185 C   0  0  0  0  0  0  0  0  0  0  0  0
  -25.5467  -28.6143   20.9598 C   0  0  0  0  0  0  0  0  0  0  0  0
  -29.6695  -23.5932   19.5783 C   0  0  0  0  0  0  0  0  0  0  0  0
  -28.4200  -23.3745   17.5221 C   0  0  0  0  0  0  0  0  0  0  0  0
  -28.8736  -24.1592   18.5824 C   0  0  0  0  0  0  0  0  0  0  0  0
  -30.0119  -22.2425   19.5138 C   0  0  0  0  0  0  0  0  0  0  0  0
  -28.7624  -22.0238   17.4576 C   0  0  0  0  0  0  0  0  0  0  0  0
  -30.7727   -4.9897   19.5716 C   0  0  0  0  0  0  0  0  0  0  0  0
  -27.0305  -27.0633   19.8185 C   0  0  0  0  0  0  0  0  0  0  0  0
  -30.6432   -2.6840   20.0065 C   0  0  0  0  0  0  0  0  0  0  0  0
  -29.5584  -21.4579   18.4535 C   0  0  0  0  0  0  0  0  0  0  0  0
  -29.0955   -0.3736   20.2281 C   0  0  0  0  0  0  0  0  0  0  0  0
  -30.5990   -1.9873   21.2141 C   0  0  0  0  0  0  0  0  0  0  0  0
  -28.7897   -8.5892   18.5670 C   0  0  0  0  0  0  0  0  0  0  0  0
  -27.4925  -10.1058   17.6439 C   0  0  0  0  0  0  0  0  0  0  0  0
  -27.2512   -7.8235   16.6534 C   0  0  0  0  0  0  0  0  0  0  0  0
  -25.9198  -31.4552   22.8087 C   0  0  0  0  0  0  0  0  0  0  0  0
  -22.8028  -30.5573   22.7832 C   0  0  0  0  0  0  0  0  0  0  0  0
  -20.4482  -28.2926   21.7964 C   0  0  0  0  0  0  0  0  0  0  0  0
  -28.7402  -15.3106   18.0519 C   0  0  0  0  0  0  0  0  0  0  0  0
  -25.6363  -34.8521   26.6085 C   0  0  0  0  0  0  0  0  0  0  0  0
  -25.5294  -31.0621   20.3492 C   0  0  0  0  0  0  0  0  0  0  0  0
  -24.4777  -28.8425   21.9960 C   0  0  0  0  0  0  0  0  0  0  0  0
  -25.1149  -33.4378   26.3673 C   0  0  0  0  0  0  0  0  0  0  0  0
  -28.6491  -13.5922   21.1114 C   0  0  0  0  0  0  0  0  0  0  0  0
  -26.2354  -32.5349   25.8610 C   0  0  0  0  0  0  0  0  0  0  0  0
  -28.5989  -12.1386   20.6416 C   0  0  0  0  0  0  0  0  0  0  0  0
  -28.0719  -18.7664   19.2175 C   0  0  0  0  0  0  0  0  0  0  0  0
  -30.4870  -18.1843   19.7053 C   0  0  0  0  0  0  0  0  0  0  0  0
  -29.6059  -14.4348   20.2662 C   0  0  0  0  0  0  0  0  0  0  0  0
  -28.0517  -17.6773   18.1460 C   0  0  0  0  0  0  0  0  0  0  0  0
  -30.4127  -17.1119   18.6209 C   0  0  0  0  0  0  0  0  0  0  0  0
  -29.2917  -12.9132   18.3421 C   0  0  0  0  0  0  0  0  0  0  0  0
  -26.7867  -33.0381   24.5215 C   0  0  1  0  0  0  0  0  0  0  0  0
  -24.8986  -31.3057   21.7167 C   0  0  1  0  0  0  0  0  0  0  0  0
  -28.2941  -12.0549   19.1354 C   0  0  1  0  0  0  0  0  0  0  0  0
  -29.4768  -19.3104   19.4791 C   0  0  0  0  0  0  0  0  0  0  0  0
  -30.1559  -24.4344   20.7164 C   0  0  0  0  0  0  0  0  0  0  0  0
  -27.5658  -23.9814   16.4538 C   0  0  0  0  0  0  0  0  0  0  0  0
  -30.8658  -21.6299   20.5782 C   0  0  0  0  0  0  0  0  0  0  0  0
  -28.2794  -21.1766   16.3235 C   0  0  0  0  0  0  0  0  0  0  0  0
  -17.9914  -27.8077   21.9587 C   0  0  0  0  0  0  0  0  0  0  0  0
  -23.1827  -29.6073   25.6578 C   0  0  0  0  0  0  0  0  0  0  0  0
  -21.0541  -28.3080   25.4360 C   0  0  0  0  0  0  0  0  0  0  0  0
  -21.0235  -30.7936   25.2278 C   0  0  0  0  0  0  0  0  0  0  0  0
  -20.1051  -28.4500   18.8611 C   0  0  0  0  0  0  0  0  0  0  0  0
  -28.5059  -25.6081   18.6517 C   0  0  0  0  0  0  0  0  0  1  0  0
  -22.0172  -29.4058   23.3628 C   0  0  1  0  0  0  0  0  0  0  0  0
  -19.0898  -28.4717   21.1430 C   0  0  2  0  0  0  0  0  0  0  0  0
  -21.8409  -29.5244   24.9030 C   0  0  0  0  0  0  0  0  0  0  0  0
  -29.0683   -9.7155   19.2288 N   0  0  0  0  0  0  0  0  0  0  0  0
  -28.2639  -10.6196   18.6445 N   0  0  0  0  0  0  0  0  0  0  0  0
  -23.9946  -30.2274   22.1223 N   0  0  0  0  0  0  0  0  0  0  0  0
  -29.3009  -14.2916   18.8364 N   0  0  0  0  0  0  0  0  0  0  0  0
  -29.0381  -16.6332   18.4213 N   0  0  0  0  0  0  0  0  0  0  0  0
  -26.6272  -10.8769   16.9516 N   0  0  0  0  0  0  0  0  0  0  0  0
  -27.6952   -6.4953   16.7111 N   0  0  0  0  0  0  0  0  0  0  0  0
  -25.8914  -32.6835   23.4412 N   0  0  0  0  0  0  0  0  0  0  0  0
  -20.7626  -29.3528   22.6200 N   0  0  0  0  0  0  0  0  0  0  0  0
  -19.0885  -27.8734   19.7781 N   0  3  0  0  0  0  0  0  0  0  0  0
  -26.3917   -8.1469   15.7990 O   0  0  0  0  0  0  0  0  0  0  0  0
  -26.6764  -30.5246   23.0599 O   0  0  0  0  0  0  0  0  0  0  0  0
  -22.3713  -31.7063   22.9059 O   0  0  0  0  0  0  0  0  0  0  0  0
  -21.1577  -27.3086   21.5991 O   0  0  0  0  0  0  0  0  0  0  0  0
  -28.0144  -15.0572   17.0823 O   0  0  0  0  0  0  0  0  0  0  0  0
  -31.4103   -3.8316   19.8951 O   0  0  0  0  0  0  0  0  0  0  0  0
  -29.8943  -20.1312   18.3903 O   0  0  0  0  0  0  0  0  0  0  0  0
  -27.5060  -25.7892   19.6444 O   0  0  0  0  0  0  0  0  0  1  0  0
  -28.3512    0.7349   20.3348 F   0  0  0  0  0  0  0  0  0  0  0  0
  -31.2970   -2.4236   22.2716 F   0  0  0  0  0  0  0  0  0  0  0  0
  1  2  1  0  0  0  0
  1  5  2  0  0  0  0
  2  6  2  0  0  0  0
  3  8  2  0  0  0  0
  3 15  1  0  0  0  0
  4  9  1  0  0  0  0
  4 15  2  0  0  0  0
  5 17  1  0  0  0  0
  6 19  1  0  0  0  0
  7 10  2  0  0  0  0
  7 18  1  0  0  0  0
  8 26  1  0  0  0  0
  9 26  2  0  0  0  0
 10 27  1  0  0  0  0
 11 12  2  0  0  0  0
 11 28  1  0  0  0  0
 12 30  1  0  0  0  0
 13 20  1  0  0  0  0
 13 27  2  0  0  0  0
 14 30  2  0  0  0  0
 14 31  1  0  0  0  0
 15 32  1  0  0  0  0
 16 32  1  0  0  0  0
 16 33  2  0  0  0  0
 16 34  1  0  0  0  0
 17 19  2  0  0  0  0
 17 39  1  0  0  0  0
 18 20  2  0  0  0  0
 18 40  1  0  0  0  0
 19 52  1  0  0  0  0
 20 41  1  0  0  0  0
 21 23  1  0  0  0  0
 21 24  2  0  0  0  0
 21 56  1  0  0  0  0
 22 23  2  0  0  0  0
 22 25  1  0  0  0  0
 22 57  1  0  0  0  0
 23 65  1  0  0  0  0
 24 29  1  0  0  0  0
 24 58  1  0  0  0  0
 25 29  2  0  0  0  0
 25 59  1  0  0  0  0
 26 84  1  0  0  0  0
 27 86  1  0  0  0  0
 28 31  2  0  0  0  0
 28 84  1  0  0  0  0
 29 85  1  0  0  0  0
 30 87  1  0  0  0  0
 31 88  1  0  0  0  0
 32 69  2  0  0  0  0
 33 70  1  0  0  0  0
 33 74  1  0  0  0  0
 34 75  1  0  0  0  0
 34 79  2  0  0  0  0
 35 53  1  0  0  0  0
 35 76  1  0  0  0  0
 35 80  2  0  0  0  0
 36 66  1  0  0  0  0
 36 71  1  0  0  0  0
 36 81  2  0  0  0  0
 37 67  1  0  0  0  0
 37 77  1  0  0  0  0
 37 82  2  0  0  0  0
 38 72  1  0  0  0  0
 38 73  1  0  0  0  0
 38 83  2  0  0  0  0
 39 42  1  0  0  0  0
 40 53  1  0  0  0  0
 41 71  1  0  0  0  0
 42 44  1  0  0  0  0
 43 45  1  0  0  0  0
 43 48  1  0  0  0  0
 44 52  1  0  0  0  0
 45 54  1  0  0  0  0
 46 49  1  0  0  0  0
 46 55  1  0  0  0  0
 47 50  1  0  0  0  0
 47 55  1  0  0  0  0
 48 72  1  0  0  0  0
 49 73  1  0  0  0  0
 50 73  1  0  0  0  0
 51 54  1  0  0  0  0
 51 72  1  0  0  0  0
 52 76  1  0  0  0  0
 53 71  1  0  0  0  0
 54 70  1  0  0  0  0
 55 85  1  0  0  0  0
 60 67  1  0  0  0  0
 61 68  1  0  0  0  0
 62 68  1  0  0  0  0
 63 68  1  0  0  0  0
 64 78  1  0  0  0  0
 65 86  1  0  0  0  0
 66 68  1  0  0  0  0
 66 77  1  0  0  0  0
 67 78  1  0  0  0  0
 69 70  1  0  0  0  0
M  CHG  1  78   1
M  ISO  4  38 100  65 101  73 100  86 101
M  END
> <Batch ID>
0156

> <Smiles>
CNC(C)C(=O)NC(C(=O)N1Cc2cc([101O:1][101CH2:1]c3c(C)c(C)c(OC4CC[100N:0]([100C:0](=O)N5CCCC(n6nc(-c7ccc(Oc8ccc(F)cc8F)cc7)c(C(N)=O)c6N)C5)CC4)c(C)c3C)ccc2CC1C(=O)NC1CCCc2ccccc21)C(C)(C)C

> <Shape>
0.259

> <Color>
0.066

> <Negative vol penalty>
0.000

$$$$

  -OEChem-04052321563D

 92102  0     1  0  0  0  0  0999 V2000
  -26.4959  -39.2304   23.6806 C   0  0  0  0  0  0  0  0  0  0  0  0
  -26.4021  -38.5649   24.8987 C   0  0  0  0  0  0  0  0  0  0  0  0
  -25.3207   -6.7660   20.4275 C   0  0  0  0  0  0  0  0  0  0  0  0
  -24.0120   -8.4815   19.3406 C   0  0  0  0  0  0  0  0  0  0  0  0
  -25.9500  -38.6596   22.5317 C   0  0  0  0  0  0  0  0  0  0  0  0
  -25.7612  -37.3284   24.9687 C   0  0  0  0  0  0  0  0  0  0  0  0
  -28.4099  -30.4636   27.5926 C   0  0  0  0  0  0  0  0  0  0  0  0
  -24.1505   -6.1764   20.9059 C   0  0  0  0  0  0  0  0  0  0  0  0
  -22.8419   -7.8920   19.8189 C   0  0  0  0  0  0  0  0  0  0  0  0
  -28.8174  -29.1612   27.8824 C   0  0  0  0  0  0  0  0  0  0  0  0
  -21.9391   -6.7032   23.4071 C   0  0  0  0  0  0  0  0  0  0  0  0
  -21.9155   -6.3022   24.7429 C   0  0  0  0  0  0  0  0  0  0  0  0
  -28.9128  -22.2323   23.2156 C   0  0  0  0  0  0  0  0  0  0  0  0
  -27.1746  -28.2916   26.3354 C   0  0  0  0  0  0  0  0  0  0  0  0
  -28.5593  -19.5861   24.0252 C   0  0  0  0  0  0  0  0  0  0  0  0
  -21.5033   -4.0241   24.0517 C   0  0  0  0  0  0  0  0  0  0  0  0
  -25.2514   -7.9186   19.6449 C   0  0  0  0  0  0  0  0  0  0  0  0
  -27.4255   -7.9426   18.3105 C   0  0  0  0  0  0  0  0  0  0  0  0
  -25.3107  -37.4110   22.5859 C   0  0  0  0  0  0  0  0  0  0  0  0
  -27.3925  -30.6859   26.6605 C   0  0  0  0  0  0  0  0  0  0  0  0
  -25.2051  -36.7409   23.8196 C   0  0  0  0  0  0  0  0  0  0  0  0
  -28.7956  -21.9276   24.5717 C   0  0  0  0  0  0  0  0  0  0  0  0
  -26.7708  -29.5945   26.0318 C   0  0  0  0  0  0  0  0  0  0  0  0
  -28.8532  -21.2139   22.2643 C   0  0  0  0  0  0  0  0  0  0  0  0
  -28.6189  -20.6045   24.9765 C   0  0  0  0  0  0  0  0  0  0  0  0
  -28.6765  -19.8908   22.6691 C   0  0  0  0  0  0  0  0  0  0  0  0
  -22.9111   -6.7394   20.6016 C   0  0  0  0  0  0  0  0  0  0  0  0
  -28.2011  -28.0779   27.2555 C   0  0  0  0  0  0  0  0  0  0  0  0
  -21.7447   -5.7647   22.3936 C   0  0  0  0  0  0  0  0  0  0  0  0
  -21.6977   -4.9627   25.0652 C   0  0  0  0  0  0  0  0  0  0  0  0
  -21.5268   -4.4252   22.7159 C   0  0  0  0  0  0  0  0  0  0  0  0
  -26.4598   -8.5283   19.1509 C   0  0  0  0  0  0  0  0  0  0  0  0
  -28.3691   -8.9251   18.1349 C   0  0  0  0  0  0  0  0  0  0  0  0
  -27.4658   -6.6281   17.7396 C   0  0  0  0  0  0  0  0  0  0  0  0
  -25.2810  -33.1865   24.8262 C   0  0  0  0  0  0  0  0  0  0  0  0
  -26.0252  -30.9983   22.8091 C   0  0  0  0  0  0  0  0  0  0  0  0
  -27.7361  -29.0927   20.9804 C   0  0  0  0  0  0  0  0  0  0  0  0
  -28.1743  -14.7178   18.2540 C   0  0  0  0  0  0  0  0  0  0  0  0
  -24.6944  -36.8558   21.3263 C   0  0  0  0  0  0  0  0  0  0  0  0
  -26.8795  -32.0687   26.3632 C   0  0  0  0  0  0  0  0  0  0  0  0
  -25.6571  -29.8798   25.0617 C   0  0  0  0  0  0  0  0  0  0  0  0
  -24.3608  -35.3688   21.4156 C   0  0  0  0  0  0  0  0  0  0  0  0
  -30.2660  -12.7377   20.2975 C   0  0  0  0  0  0  0  0  0  0  0  0
  -27.4654  -23.5963   25.9344 C   0  0  0  0  0  0  0  0  0  0  0  0
  -29.7980  -24.1851   25.1272 C   0  0  0  0  0  0  0  0  0  0  0  0
  -23.6471  -35.0597   22.7278 C   0  0  0  0  0  0  0  0  0  0  0  0
  -29.6110  -11.3641   20.1599 C   0  0  0  0  0  0  0  0  0  0  0  0
  -27.5444  -24.7215   26.9630 C   0  0  0  0  0  0  0  0  0  0  0  0
  -29.8650  -25.3067   26.1604 C   0  0  0  0  0  0  0  0  0  0  0  0
  -29.7368  -17.0925   20.4206 C   0  0  0  0  0  0  0  0  0  0  0  0
  -27.4263  -17.8440   19.8167 C   0  0  0  0  0  0  0  0  0  0  0  0
  -29.2315  -13.8604   20.3961 C   0  0  0  0  0  0  0  0  0  0  0  0
  -29.6012  -17.7735   21.7825 C   0  0  0  0  0  0  0  0  0  0  0  0
  -27.2923  -18.5183   21.1812 C   0  0  0  0  0  0  0  0  0  0  0  0
  -27.5880  -12.4875   19.1564 C   0  0  0  0  0  0  0  0  0  0  0  0
  -28.8631  -23.0527   25.5882 C   0  0  0  0  0  0  0  0  0  0  0  0
  -24.5394  -35.3865   23.9314 C   0  0  1  0  0  0  0  0  0  0  0  0
  -26.4524  -32.2514   24.8957 C   0  0  1  0  0  0  0  0  0  0  0  0
  -28.6060  -11.3480   18.9952 C   0  0  2  0  0  0  0  0  0  0  0  0
  -28.3808  -16.6524   19.8724 C   0  0  0  0  0  0  0  0  0  0  0  0
  -28.4767  -25.8413   26.5041 C   0  0  0  0  0  0  0  0  0  1  0  0
  -28.9789  -21.5690   20.8183 C   0  0  0  0  0  0  0  0  0  0  0  0
  -28.4902  -20.2548   26.4227 C   0  0  0  0  0  0  0  0  0  0  0  0
  -28.8274  -27.6795   19.2171 C   0  0  0  0  0  0  0  0  0  0  0  0
  -23.2656  -29.7516   23.1760 C   0  0  0  0  0  0  0  0  0  0  0  0
  -23.7658  -28.2470   21.2384 C   0  0  0  0  0  0  0  0  0  0  0  0
  -23.6809  -30.7180   20.9071 C   0  0  0  0  0  0  0  0  0  0  0  0
  -28.7910  -16.9691   17.4605 C   0  0  0  0  0  0  0  0  0  0  0  0
  -29.2464  -31.3984   19.9026 C   0  0  0  0  0  0  0  0  0  0  0  0
  -25.6339  -29.7004   22.1490 C   0  0  1  0  0  0  0  0  0  0  0  0
  -28.3715  -29.0783   19.6018 C   0  0  2  0  0  0  0  0  0  0  0  0
  -24.1037  -29.6048   21.8903 C   0  0  0  0  0  0  0  0  0  0  0  0
  -26.7623   -9.7854   19.4861 N   0  0  0  0  0  0  0  0  0  0  0  0
  -27.9286   -9.9976   18.8531 N   0  0  0  0  0  0  0  0  0  0  0  0
  -28.6134  -18.8558   21.7275 N   0  0  0  0  0  0  0  0  0  0  0  0
  -26.0144  -31.0243   24.2090 N   0  0  0  0  0  0  0  0  0  0  0  0
  -28.2645  -13.7797   19.2929 N   0  0  0  0  0  0  0  0  0  0  0  0
  -29.5244   -8.9675   17.4378 N   0  0  0  0  0  0  0  0  0  0  0  0
  -28.0956   -5.6051   18.4615 N   0  0  0  0  0  0  0  0  0  0  0  0
  -25.5303  -34.3492   24.1223 N   0  0  0  0  0  0  0  0  0  0  0  0
  -26.4513  -29.5919   20.9455 N   0  0  0  0  0  0  0  0  0  0  0  0
  -28.5274  -16.0424   18.5523 N   0  0  0  0  0  0  0  0  0  0  0  0
  -29.5542  -29.9843   19.5670 N   0  3  0  0  0  0  0  0  0  0  0  0
  -26.9728   -6.3719   16.6149 O   0  0  0  0  0  0  0  0  0  0  0  0
  -24.2273  -32.8764   25.3695 O   0  0  0  0  0  0  0  0  0  0  0  0
  -26.3271  -31.9660   22.1051 O   0  0  0  0  0  0  0  0  0  0  0  0
  -28.3199  -28.6970   21.9870 O   0  0  0  0  0  0  0  0  0  0  0  0
  -27.7915  -14.3925   17.1227 O   0  0  0  0  0  0  0  0  0  0  0  0
  -21.7691   -6.1643   21.0680 O   0  0  0  0  0  0  0  0  0  0  0  0
  -28.6068  -26.8093   27.5397 O   0  0  0  0  0  0  0  0  0  1  0  0
  -21.6766   -4.5775   26.3479 F   0  0  0  0  0  0  0  0  0  0  0  0
  -21.3406   -3.5188   21.7466 F   0  0  0  0  0  0  0  0  0  0  0  0
  1  2  1  0  0  0  0
  1  5  2  0  0  0  0
  2  6  2  0  0  0  0
  3  8  2  0  0  0  0
  3 17  1  0  0  0  0
  4  9  1  0  0  0  0
  4 17  2  0  0  0  0
  5 19  1  0  0  0  0
  6 21  1  0  0  0  0
  7 10  2  0  0  0  0
  7 20  1  0  0  0  0
  8 27  1  0  0  0  0
  9 27  2  0  0  0  0
 10 28  1  0  0  0  0
 11 12  2  0  0  0  0
 11 29  1  0  0  0  0
 12 30  1  0  0  0  0
 13 22  1  0  0  0  0
 13 24  2  0  0  0  0
 14 23  1  0  0  0  0
 14 28  2  0  0  0  0
 15 25  1  0  0  0  0
 15 26  2  0  0  0  0
 16 30  2  0  0  0  0
 16 31  1  0  0  0  0
 17 32  1  0  0  0  0
 18 32  1  0  0  0  0
 18 33  2  0  0  0  0
 18 34  1  0  0  0  0
 19 21  2  0  0  0  0
 19 39  1  0  0  0  0
 20 23  2  0  0  0  0
 20 40  1  0  0  0  0
 21 57  1  0  0  0  0
 22 25  2  0  0  0  0
 22 56  1  0  0  0  0
 23 41  1  0  0  0  0
 24 26  1  0  0  0  0
 24 62  1  0  0  0  0
 25 63  1  0  0  0  0
 26 75  1  0  0  0  0
 27 89  1  0  0  0  0
 28 90  1  0  0  0  0
 29 31  2  0  0  0  0
 29 89  1  0  0  0  0
 30 91  1  0  0  0  0
 31 92  1  0  0  0  0
 32 73  2  0  0  0  0
 33 74  1  0  0  0  0
 33 78  1  0  0  0  0
 34 79  1  0  0  0  0
 34 84  2  0  0  0  0
 35 58  1  0  0  0  0
 35 80  1  0  0  0  0
 35 85  2  0  0  0  0
 36 70  1  0  0  0  0
 36 76  1  0  0  0  0
 36 86  2  0  0  0  0
 37 71  1  0  0  0  0
 37 81  1  0  0  0  0
 37 87  2  0  0  0  0
 38 77  1  0  0  0  0
 38 82  1  0  0  0  0
 38 88  2  0  0  0  0
 39 42  1  0  0  0  0
 40 58  1  0  0  0  0
 41 76  1  0  0  0  0
 42 46  1  0  0  0  0
 43 47  1  0  0  0  0
 43 52  1  0  0  0  0
 44 48  1  0  0  0  0
 44 56  1  0  0  0  0
 45 49  1  0  0  0  0
 45 56  1  0  0  0  0
 46 57  1  0  0  0  0
 47 59  1  0  0  0  0
 48 61  1  0  0  0  0
 49 61  1  0  0  0  0
 50 53  1  0  0  0  0
 50 60  1  0  0  0  0
 51 54  1  0  0  0  0
 51 60  1  0  0  0  0
 52 77  1  0  0  0  0
 53 75  1  0  0  0  0
 54 75  1  0  0  0  0
 55 59  1  0  0  0  0
 55 77  1  0  0  0  0
 57 80  1  0  0  0  0
 58 76  1  0  0  0  0
 59 74  1  0  0  0  0
 60 82  1  0  0  0  0
 61 90  1  0  0  0  0
 64 71  1  0  0  0  0
 65 72  1  0  0  0  0
 66 72  1  0  0  0  0
 67 72  1  0  0  0  0
 68 82  1  0  0  0  0
 69 83  1  0  0  0  0
 70 72  1  0  0  0  0
 70 81  1  0  0  0  0
 71 83  1  0  0  0  0
 73 74  1  0  0  0  0
M  CHG  1  83   1
M  ISO  4  38 100  61 101  82 100  90 101
M  END
> <Batch ID>
0156

> <Smiles>
CNC(C)C(=O)NC(C(=O)N1Cc2cc([101O:1][101CH:1]3CCC(c4cc(C)c(N5CCC([100N:0](C)[100C:0](=O)N6CCCC(n7nc(-c8ccc(Oc9ccc(F)cc9F)cc8)c(C(N)=O)c7N)C6)CC5)cc4C)CC3)ccc2CC1C(=O)NC1CCCc2ccccc21)C(C)(C)C

> <Shape>
0.268

> <Color>
0.062

> <Negative vol penalty>
0.000

$$$$

  -OEChem-04052321563D

 85 94  0     1  0  0  0  0  0999 V2000
  -17.5051  -30.3590   20.6200 C   0  0  0  0  0  0  0  0  0  0  0  0
  -17.9252  -29.0344   20.5528 C   0  0  0  0  0  0  0  0  0  0  0  0
  -22.9215  -10.1835   19.9108 C   0  0  0  0  0  0  0  0  0  0  0  0
  -23.9209   -9.7610   22.0694 C   0  0  0  0  0  0  0  0  0  0  0  0
  -18.4376  -31.3754   20.8234 C   0  0  0  0  0  0  0  0  0  0  0  0
  -19.2783  -28.7256   20.6879 C   0  0  0  0  0  0  0  0  0  0  0  0
  -23.6125  -23.6173   23.2251 C   0  0  0  0  0  0  0  0  0  0  0  0
  -22.1523   -9.0271   20.0406 C   0  0  0  0  0  0  0  0  0  0  0  0
  -23.1517   -8.6046   22.1992 C   0  0  0  0  0  0  0  0  0  0  0  0
  -24.6852  -22.8200   22.8284 C   0  0  0  0  0  0  0  0  0  0  0  0
  -19.9706   -7.8100   23.0177 C   0  0  0  0  0  0  0  0  0  0  0  0
  -19.3418   -7.5859   24.2424 C   0  0  0  0  0  0  0  0  0  0  0  0
  -29.6398  -17.3620   25.5461 C   0  0  0  0  0  0  0  0  0  0  0  0
  -29.8500  -18.4754   22.9563 C   0  0  0  0  0  0  0  0  0  0  0  0
  -26.1963  -24.6512   23.2554 C   0  0  0  0  0  0  0  0  0  0  0  0
  -20.5571   -5.5122   24.4870 C   0  0  0  0  0  0  0  0  0  0  0  0
  -23.8058  -10.5504   20.9252 C   0  0  0  0  0  0  0  0  0  0  0  0
  -24.2576  -13.0454   21.2053 C   0  0  0  0  0  0  0  0  0  0  0  0
  -19.8016  -31.0780   20.9707 C   0  0  0  0  0  0  0  0  0  0  0  0
  -23.8227  -24.9433   23.6302 C   0  0  0  0  0  0  0  0  0  0  0  0
  -20.2301  -29.7391   20.8921 C   0  0  0  0  0  0  0  0  0  0  0  0
  -29.0773  -18.5924   25.2489 C   0  0  0  0  0  0  0  0  0  0  0  0
  -29.1799  -19.1483   23.9661 C   0  0  0  0  0  0  0  0  0  0  0  0
  -25.1249  -25.4625   23.6592 C   0  0  0  0  0  0  0  0  0  0  0  0
  -30.3274  -16.6871   24.5360 C   0  0  0  0  0  0  0  0  0  0  0  0
  -30.4315  -17.2397   23.2505 C   0  0  0  0  0  0  0  0  0  0  0  0
  -22.2674   -8.2377   21.1848 C   0  0  0  0  0  0  0  0  0  0  0  0
  -25.9770  -23.3378   22.8407 C   0  0  0  0  0  0  0  0  0  0  0  0
  -20.8927   -6.8852   22.5276 C   0  0  0  0  0  0  0  0  0  0  0  0
  -19.6350   -6.4370   24.9771 C   0  0  0  0  0  0  0  0  0  0  0  0
  -21.1860   -5.7363   23.2622 C   0  0  0  0  0  0  0  0  0  0  0  0
  -24.6011  -11.7444   20.7914 C   0  0  0  0  0  0  0  0  0  0  0  0
  -25.3406  -13.8142   20.8553 C   0  0  0  0  0  0  0  0  0  0  0  0
  -23.0661  -13.5167   21.8488 C   0  0  0  0  0  0  0  0  0  0  0  0
  -22.8814  -27.7885   22.5710 C   0  0  0  0  0  0  0  0  0  0  0  0
  -24.3417  -28.8423   25.2690 C   0  0  0  0  0  0  0  0  0  0  0  0
  -26.6738  -28.3016   27.7013 C   0  0  0  0  0  0  0  0  0  0  0  0
  -30.8569  -14.6185   20.5925 C   0  0  0  0  0  0  0  0  0  0  0  0
  -20.7781  -32.2146   21.1416 C   0  0  0  0  0  0  0  0  0  0  0  0
  -22.6581  -25.7818   24.0807 C   0  0  0  0  0  0  0  0  0  0  0  0
  -28.2737  -19.4730   26.1534 C   0  0  0  0  0  0  0  0  0  0  0  0
  -25.4064  -26.8733   24.1051 C   0  0  0  0  0  0  0  0  0  0  0  0
  -22.1473  -31.7702   21.6494 C   0  0  0  0  0  0  0  0  0  0  0  0
  -28.3421  -20.8084   25.3990 C   0  0  0  0  0  0  0  0  0  0  0  0
  -29.3546  -12.7302   17.9745 C   0  0  0  0  0  0  0  0  0  0  0  0
  -22.6353  -30.5518   20.8721 C   0  0  0  0  0  0  0  0  0  0  0  0
  -27.9587  -12.4077   18.5107 C   0  0  0  0  0  0  0  0  0  0  0  0
  -30.4043  -12.7069   19.0834 C   0  0  0  0  0  0  0  0  0  0  0  0
  -28.6998  -13.2374   20.7825 C   0  0  0  0  0  0  0  0  0  0  0  0
  -28.4410  -20.4566   23.8995 C   0  0  1  0  0  0  0  0  0  0  0  0
  -21.6861  -29.3619   21.0588 C   0  0  1  0  0  0  0  0  0  0  0  0
  -22.9280  -27.2802   23.9842 C   0  0  1  0  0  0  0  0  0  0  0  0
  -27.5982  -13.3037   19.7108 C   0  0  2  0  0  0  0  0  0  0  0  0
  -30.9446  -15.3619   24.8473 C   0  0  0  0  0  0  0  0  0  0  0  0
  -27.6648  -29.3588   29.7501 C   0  0  0  0  0  0  0  0  0  0  0  0
  -30.5149  -21.8379   23.6727 C   0  0  0  0  0  0  0  0  0  0  0  0
  -25.9444  -30.7493   23.5069 C   0  0  0  0  0  0  0  0  0  0  0  0
  -27.5315  -31.0690   25.4166 C   0  0  0  0  0  0  0  0  0  0  0  0
  -25.1416  -31.7419   25.6574 C   0  0  0  0  0  0  0  0  0  0  0  0
  -25.7930  -26.0624   29.4243 C   0  0  0  0  0  0  0  0  0  0  0  0
  -31.1607  -16.5128   22.1669 C   0  0  0  0  0  0  0  0  0  0  0  0
  -28.2897  -22.8286   23.0598 C   0  0  0  0  0  0  0  0  0  1  0  0
  -25.7403  -29.2858   25.6242 C   0  0  1  0  0  0  0  0  0  0  0  0
  -26.5980  -28.4174   29.2130 C   0  0  2  0  0  0  0  0  0  0  0  0
  -29.1302  -21.5493   23.0969 C   0  0  2  0  0  0  0  0  0  0  0  0
  -26.0843  -30.6855   25.0410 C   0  0  0  0  0  0  0  0  0  0  0  0
  -25.8079  -11.6863   20.2219 N   0  0  0  0  0  0  0  0  0  0  0  0
  -26.2320  -12.9604   20.2753 N   0  0  0  0  0  0  0  0  0  0  0  0
  -24.2339  -27.6557   24.5301 N   0  0  0  0  0  0  0  0  0  0  0  0
  -30.0030  -13.5782   20.1905 N   0  0  0  0  0  0  0  0  0  0  0  0
  -25.6077  -15.1306   20.9901 N   0  0  0  0  0  0  0  0  0  0  0  0
  -22.0522  -12.5929   22.1366 N   0  0  0  0  0  0  0  0  0  0  0  0
  -21.9038  -28.7390   22.3469 N   0  0  0  0  0  0  0  0  0  0  0  0
  -25.8380  -29.2036   27.0775 N   0  0  0  0  0  0  0  0  0  0  0  0
  -30.3976  -15.4009   21.6450 N   0  0  0  0  0  0  0  0  0  0  0  0
  -26.7889  -27.0813   29.8450 N   0  3  0  0  0  0  0  0  0  0  0  0
  -22.8986  -14.7242   22.1444 O   0  0  0  0  0  0  0  0  0  0  0  0
  -23.6748  -27.3519   21.7454 O   0  0  0  0  0  0  0  0  0  0  0  0
  -23.3800  -29.5199   25.6399 O   0  0  0  0  0  0  0  0  0  0  0  0
  -27.4043  -27.4945   27.1308 O   0  0  0  0  0  0  0  0  0  0  0  0
  -31.9453  -14.8374   20.0499 O   0  0  0  0  0  0  0  0  0  0  0  0
  -21.5168   -7.1095   21.3119 O   0  0  0  0  0  0  0  0  0  0  0  0
  -27.0258  -22.5620   22.4534 O   0  0  0  0  0  0  0  0  0  1  0  0
  -19.0322   -6.2227   26.1539 F   0  0  0  0  0  0  0  0  0  0  0  0
  -22.0718   -4.8448   22.7971 F   0  0  0  0  0  0  0  0  0  0  0  0
  1  2  1  0  0  0  0
  1  5  2  0  0  0  0
  2  6  2  0  0  0  0
  3  8  2  0  0  0  0
  3 17  1  0  0  0  0
  4  9  1  0  0  0  0
  4 17  2  0  0  0  0
  5 19  1  0  0  0  0
  6 21  1  0  0  0  0
  7 10  2  0  0  0  0
  7 20  1  0  0  0  0
  8 27  1  0  0  0  0
  9 27  2  0  0  0  0
 10 28  1  0  0  0  0
 11 12  2  0  0  0  0
 11 29  1  0  0  0  0
 12 30  1  0  0  0  0
 13 22  1  0  0  0  0
 13 25  2  0  0  0  0
 14 23  1  0  0  0  0
 14 26  2  0  0  0  0
 15 24  1  0  0  0  0
 15 28  2  0  0  0  0
 16 30  2  0  0  0  0
 16 31  1  0  0  0  0
 17 32  1  0  0  0  0
 18 32  1  0  0  0  0
 18 33  2  0  0  0  0
 18 34  1  0  0  0  0
 19 21  2  0  0  0  0
 19 39  1  0  0  0  0
 20 24  2  0  0  0  0
 20 40  1  0  0  0  0
 21 51  1  0  0  0  0
 22 23  2  0  0  0  0
 22 41  1  0  0  0  0
 23 50  1  0  0  0  0
 24 42  1  0  0  0  0
 25 26  1  0  0  0  0
 25 54  1  0  0  0  0
 26 61  1  0  0  0  0
 27 82  1  0  0  0  0
 28 83  1  0  0  0  0
 29 31  2  0  0  0  0
 29 82  1  0  0  0  0
 30 84  1  0  0  0  0
 31 85  1  0  0  0  0
 32 67  2  0  0  0  0
 33 68  1  0  0  0  0
 33 71  1  0  0  0  0
 34 72  1  0  0  0  0
 34 77  2  0  0  0  0
 35 52  1  0  0  0  0
 35 73  1  0  0  0  0
 35 78  2  0  0  0  0
 36 63  1  0  0  0  0
 36 69  1  0  0  0  0
 36 79  2  0  0  0  0
 37 64  1  0  0  0  0
 37 74  1  0  0  0  0
 37 80  2  0  0  0  0
 38 70  1  0  0  0  0
 38 75  1  0  0  0  0
 38 81  2  0  0  0  0
 39 43  1  0  0  0  0
 40 52  1  0  0  0  0
 41 44  1  0  0  0  0
 42 69  1  0  0  0  0
 43 46  1  0  0  0  0
 44 50  1  0  0  0  0
 45 47  1  0  0  0  0
 45 48  1  0  0  0  0
 46 51  1  0  0  0  0
 47 53  1  0  0  0  0
 48 70  1  0  0  0  0
 49 53  1  0  0  0  0
 49 70  1  0  0  0  0
 50 65  1  0  0  0  0
 51 73  1  0  0  0  0
 52 69  1  0  0  0  0
 53 68  1  0  0  0  0
 55 64  1  0  0  0  0
 56 65  1  0  0  0  0
 57 66  1  0  0  0  0
 58 66  1  0  0  0  0
 59 66  1  0  0  0  0
 60 76  1  0  0  0  0
 61 75  1  0  0  0  0
 62 65  1  0  0  0  0
 62 83  1  0  0  0  0
 63 66  1  0  0  0  0
 63 74  1  0  0  0  0
 64 76  1  0  0  0  0
 67 68  1  0  0  0  0
M  CHG  1  76   1
M  ISO  4  38 100  62 101  75 100  83 101
M  END
> <Batch ID>
0156

> <Smiles>
CNC(C)C(=O)NC(C(=O)N1Cc2cc([101O:1][101CH2:1]C(C)C3CCc4cc(C)c(C[100NH:0][100C:0](=O)N5CCCC(n6nc(-c7ccc(Oc8ccc(F)cc8F)cc7)c(C(N)=O)c6N)C5)cc43)ccc2CC1C(=O)NC1CCCc2ccccc21)C(C)(C)C

> <Shape>
0.245

> <Color>
0.194

> <Negative vol penalty>
0.000

$$$$

  -OEChem-04052321563D

 87 96  0     1  0  0  0  0  0999 V2000
  -28.7149  -31.9651   27.0305 C   0  0  0  0  0  0  0  0  0  0  0  0
  -28.3003  -30.8638   26.2884 C   0  0  0  0  0  0  0  0  0  0  0  0
  -22.6347  -11.5609   19.0151 C   0  0  0  0  0  0  0  0  0  0  0  0
  -23.1540   -9.7692   20.5504 C   0  0  0  0  0  0  0  0  0  0  0  0
  -27.8959  -33.0895   27.1241 C   0  0  0  0  0  0  0  0  0  0  0  0
  -27.0659  -30.8859   25.6403 C   0  0  0  0  0  0  0  0  0  0  0  0
  -27.3271  -29.1174   20.9023 C   0  0  0  0  0  0  0  0  0  0  0  0
  -21.5677  -10.8185   18.5095 C   0  0  0  0  0  0  0  0  0  0  0  0
  -22.0869   -9.0267   20.0447 C   0  0  0  0  0  0  0  0  0  0  0  0
  -27.3788  -27.7335   20.7411 C   0  0  0  0  0  0  0  0  0  0  0  0
  -18.7259   -8.9473   20.3875 C   0  0  0  0  0  0  0  0  0  0  0  0
  -17.8880   -8.3125   21.3043 C   0  0  0  0  0  0  0  0  0  0  0  0
  -25.0224  -27.7116   20.2256 C   0  0  0  0  0  0  0  0  0  0  0  0
  -27.9101  -23.0482   19.0051 C   0  0  0  0  0  0  0  0  0  0  0  0
  -18.4392   -6.1730   20.3267 C   0  0  0  0  0  0  0  0  0  0  0  0
  -23.4279  -11.0363   20.0356 C   0  0  0  0  0  0  0  0  0  0  0  0
  -24.5003  -12.7131   21.6312 C   0  0  0  0  0  0  0  0  0  0  0  0
  -26.6550  -33.1292   26.4689 C   0  0  0  0  0  0  0  0  0  0  0  0
  -26.1183  -29.8086   20.7367 C   0  0  0  0  0  0  0  0  0  0  0  0
  -26.2288  -32.0114   25.7263 C   0  0  0  0  0  0  0  0  0  0  0  0
  -24.9585  -29.1046   20.3826 C   0  0  0  0  0  0  0  0  0  0  0  0
  -27.4051  -23.5786   20.1923 C   0  0  0  0  0  0  0  0  0  0  0  0
  -27.7999  -21.6814   18.7494 C   0  0  0  0  0  0  0  0  0  0  0  0
  -26.7900  -22.7421   21.1238 C   0  0  0  0  0  0  0  0  0  0  0  0
  -26.6798  -21.3753   20.8681 C   0  0  0  0  0  0  0  0  0  0  0  0
  -21.2938   -9.5513   19.0242 C   0  0  0  0  0  0  0  0  0  0  0  0
  -26.2257  -27.0300   20.4056 C   0  0  0  0  0  0  0  0  0  0  0  0
  -19.4204   -8.1950   19.4402 C   0  0  0  0  0  0  0  0  0  0  0  0
  -27.1848  -20.8449   19.6809 C   0  0  0  0  0  0  0  0  0  0  0  0
  -17.7446   -6.9253   21.2739 C   0  0  0  0  0  0  0  0  0  0  0  0
  -19.2771   -6.8078   19.4098 C   0  0  0  0  0  0  0  0  0  0  0  0
  -24.5306  -11.8026   20.5580 C   0  0  0  0  0  0  0  0  0  0  0  0
  -25.7915  -13.1707   21.7299 C   0  0  0  0  0  0  0  0  0  0  0  0
  -23.4030  -13.1097   22.4645 C   0  0  0  0  0  0  0  0  0  0  0  0
  -24.2744  -31.5858   22.6196 C   0  0  0  0  0  0  0  0  0  0  0  0
  -22.6266  -32.0928   19.8719 C   0  0  0  0  0  0  0  0  0  0  0  0
  -21.8050  -31.0044   16.7434 C   0  0  0  0  0  0  0  0  0  0  0  0
  -30.3717  -15.0445   19.6392 C   0  0  0  0  0  0  0  0  0  0  0  0
  -25.7834  -34.3483   26.6382 C   0  0  0  0  0  0  0  0  0  0  0  0
  -26.0849  -31.3047   20.8878 C   0  0  0  0  0  0  0  0  0  0  0  0
  -23.6402  -29.8021   20.1736 C   0  0  0  0  0  0  0  0  0  0  0  0
  -24.6553  -34.4375   25.6136 C   0  0  0  0  0  0  0  0  0  0  0  0
  -30.0467  -11.5484   19.5442 C   0  0  0  0  0  0  0  0  0  0  0  0
  -23.9452  -33.0938   25.4831 C   0  0  0  0  0  0  0  0  0  0  0  0
  -28.5682  -11.3707   19.8880 C   0  0  0  0  0  0  0  0  0  0  0  0
  -28.7895  -18.2975   20.6038 C   0  0  0  0  0  0  0  0  0  0  0  0
  -28.0671  -17.6147   18.2925 C   0  0  0  0  0  0  0  0  0  0  0  0
  -30.2777  -12.7334   18.6051 C   0  0  0  0  0  0  0  0  0  0  0  0
  -30.0157  -17.4060   20.4566 C   0  0  0  0  0  0  0  0  0  0  0  0
  -29.3019  -16.7275   18.1853 C   0  0  0  0  0  0  0  0  0  0  0  0
  -28.2223  -13.8295   19.4367 C   0  0  0  0  0  0  0  0  0  0  0  0
  -24.9075  -32.0070   24.9887 C   0  0  1  0  0  0  0  0  0  0  0  0
  -24.6918  -31.8429   21.1992 C   0  0  1  0  0  0  0  0  0  0  0  0
  -27.9644  -12.6809   20.4242 C   0  0  1  0  0  0  0  0  0  0  0  0
  -28.2950  -18.7875   19.2443 C   0  0  0  0  0  0  0  0  0  0  0  0
  -28.3461  -21.1326   17.4727 C   0  0  0  0  0  0  0  0  0  0  0  0
  -26.2482  -23.3128   22.3959 C   0  0  0  0  0  0  0  0  0  0  0  0
  -26.0208  -20.4733   21.8625 C   0  0  0  0  0  0  0  0  0  0  0  0
  -20.4072  -31.6125   14.7501 C   0  0  0  0  0  0  0  0  0  0  0  0
  -20.1207  -31.1780   21.3531 C   0  0  0  0  0  0  0  0  0  0  0  0
  -18.9965  -30.8957   19.1339 C   0  0  0  0  0  0  0  0  0  0  0  0
  -19.7842  -33.1507   19.8532 C   0  0  0  0  0  0  0  0  0  0  0  0
  -24.1803  -31.1841   14.9871 C   0  0  0  0  0  0  0  0  0  0  0  0
  -27.5360  -25.0456   20.4418 C   0  0  0  0  0  0  0  0  0  1  0  0
  -21.4806  -31.4049   19.1701 C   0  0  1  0  0  0  0  0  0  0  0  0
  -21.7761  -31.7180   15.4039 C   0  0  2  0  0  0  0  0  0  0  0  0
  -20.1198  -31.6436   19.8833 C   0  0  0  0  0  0  0  0  0  0  0  0
  -25.7449  -11.6874   20.0137 N   0  0  0  0  0  0  0  0  0  0  0  0
  -26.4895  -12.5317   20.7478 N   0  0  0  0  0  0  0  0  0  0  0  0
  -23.6573  -31.2650   20.3390 N   0  0  0  0  0  0  0  0  0  0  0  0
  -29.6508  -13.9502   19.1383 N   0  0  0  0  0  0  0  0  0  0  0  0
  -29.7780  -16.3107   19.5050 N   0  0  0  0  0  0  0  0  0  0  0  0
  -26.3865  -14.0535   22.5600 N   0  0  0  0  0  0  0  0  0  0  0  0
  -22.1439  -12.5418   22.2265 N   0  0  0  0  0  0  0  0  0  0  0  0
  -25.1228  -32.1330   23.5631 N   0  0  0  0  0  0  0  0  0  0  0  0
  -21.5173  -31.8610   17.7849 N   0  0  0  0  0  0  0  0  0  0  0  0
  -22.7850  -31.1267   14.4801 N   0  3  0  0  0  0  0  0  0  0  0  0
  -23.5315  -13.9552   23.3822 O   0  0  0  0  0  0  0  0  0  0  0  0
  -23.2572  -30.9400   22.8429 O   0  0  0  0  0  0  0  0  0  0  0  0
  -22.6113  -33.3201   19.9946 O   0  0  0  0  0  0  0  0  0  0  0  0
  -22.0540  -29.8059   16.8545 O   0  0  0  0  0  0  0  0  0  0  0  0
  -31.4797  -14.9026   20.1713 O   0  0  0  0  0  0  0  0  0  0  0  0
  -20.2525   -8.8266   18.5312 O   0  0  0  0  0  0  0  0  0  0  0  0
  -27.0790  -19.5024   19.4290 O   0  0  0  0  0  0  0  0  0  0  0  0
  -26.2736  -25.6695   20.2472 O   0  0  0  0  0  0  0  0  0  1  0  0
  -16.9412   -6.3157   22.1554 F   0  0  0  0  0  0  0  0  0  0  0  0
  -19.9426   -6.0796   18.5029 F   0  0  0  0  0  0  0  0  0  0  0  0
  1  2  1  0  0  0  0
  1  5  2  0  0  0  0
  2  6  2  0  0  0  0
  3  8  2  0  0  0  0
  3 16  1  0  0  0  0
  4  9  1  0  0  0  0
  4 16  2  0  0  0  0
  5 18  1  0  0  0  0
  6 20  1  0  0  0  0
  7 10  2  0  0  0  0
  7 19  1  0  0  0  0
  8 26  1  0  0  0  0
  9 26  2  0  0  0  0
 10 27  1  0  0  0  0
 11 12  2  0  0  0  0
 11 28  1  0  0  0  0
 12 30  1  0  0  0  0
 13 21  1  0  0  0  0
 13 27  2  0  0  0  0
 14 22  1  0  0  0  0
 14 23  2  0  0  0  0
 15 30  2  0  0  0  0
 15 31  1  0  0  0  0
 16 32  1  0  0  0  0
 17 32  1  0  0  0  0
 17 33  2  0  0  0  0
 17 34  1  0  0  0  0
 18 20  2  0  0  0  0
 18 39  1  0  0  0  0
 19 21  2  0  0  0  0
 19 40  1  0  0  0  0
 20 52  1  0  0  0  0
 21 41  1  0  0  0  0
 22 24  2  0  0  0  0
 22 64  1  0  0  0  0
 23 29  1  0  0  0  0
 23 56  1  0  0  0  0
 24 25  1  0  0  0  0
 24 57  1  0  0  0  0
 25 29  2  0  0  0  0
 25 58  1  0  0  0  0
 26 83  1  0  0  0  0
 27 85  1  0  0  0  0
 28 31  2  0  0  0  0
 28 83  1  0  0  0  0
 29 84  1  0  0  0  0
 30 86  1  0  0  0  0
 31 87  1  0  0  0  0
 32 68  2  0  0  0  0
 33 69  1  0  0  0  0
 33 73  1  0  0  0  0
 34 74  1  0  0  0  0
 34 78  2  0  0  0  0
 35 53  1  0  0  0  0
 35 75  1  0  0  0  0
 35 79  2  0  0  0  0
 36 65  1  0  0  0  0
 36 70  1  0  0  0  0
 36 80  2  0  0  0  0
 37 66  1  0  0  0  0
 37 76  1  0  0  0  0
 37 81  2  0  0  0  0
 38 71  1  0  0  0  0
 38 72  1  0  0  0  0
 38 82  2  0  0  0  0
 39 42  1  0  0  0  0
 40 53  1  0  0  0  0
 41 70  1  0  0  0  0
 42 44  1  0  0  0  0
 43 45  1  0  0  0  0
 43 48  1  0  0  0  0
 44 52  1  0  0  0  0
 45 54  1  0  0  0  0
 46 49  1  0  0  0  0
 46 55  1  0  0  0  0
 47 50  1  0  0  0  0
 47 55  1  0  0  0  0
 48 71  1  0  0  0  0
 49 72  1  0  0  0  0
 50 72  1  0  0  0  0
 51 54  1  0  0  0  0
 51 71  1  0  0  0  0
 52 75  1  0  0  0  0
 53 70  1  0  0  0  0
 54 69  1  0  0  0  0
 55 84  1  0  0  0  0
 59 66  1  0  0  0  0
 60 67  1  0  0  0  0
 61 67  1  0  0  0  0
 62 67  1  0  0  0  0
 63 77  1  0  0  0  0
 64 85  1  0  0  0  0
 65 67  1  0  0  0  0
 65 76  1  0  0  0  0
 66 77  1  0  0  0  0
 68 69  1  0  0  0  0
M  CHG  1  77   1
M  ISO  4  38 100  64 101  72 100  85 101
M  END
> <Batch ID>
0156

> <Smiles>
CNC(C)C(=O)NC(C(=O)N1Cc2cc([101O:1][101CH2:1]c3cc(C)c(OC4CC[100N:0]([100C:0](=O)N5CCCC(n6nc(-c7ccc(Oc8ccc(F)cc8F)cc7)c(C(N)=O)c6N)C5)CC4)c(C)c3C)ccc2CC1C(=O)NC1CCCc2ccccc21)C(C)(C)C

> <Shape>
0.273

> <Color>
0.121

> <Negative vol penalty>
0.000

$$$$

  -OEChem-04052321563D

 86 95  0     1  0  0  0  0  0999 V2000
  -27.5086  -23.9066   17.2641 C   0  0  0  0  0  0  0  0  0  0  0  0
  -26.3402  -24.2520   17.9357 C   0  0  0  0  0  0  0  0  0  0  0  0
  -26.9291  -13.6851   22.2394 C   0  0  0  0  0  0  0  0  0  0  0  0
  -25.0399  -14.0834   20.7871 C   0  0  0  0  0  0  0  0  0  0  0  0
  -28.7422  -24.3466   17.7422 C   0  0  0  0  0  0  0  0  0  0  0  0
  -26.4049  -25.0368   19.0865 C   0  0  0  0  0  0  0  0  0  0  0  0
  -21.6614  -23.8778   20.4947 C   0  0  0  0  0  0  0  0  0  0  0  0
  -22.9313  -28.7216   19.1227 C   0  0  0  0  0  0  0  0  0  0  0  0
  -22.9137  -23.3171   20.7455 C   0  0  0  0  0  0  0  0  0  0  0  0
  -26.2895  -12.5619   22.7635 C   0  0  0  0  0  0  0  0  0  0  0  0
  -24.4002  -12.9601   21.3112 C   0  0  0  0  0  0  0  0  0  0  0  0
  -21.6248  -28.3618   19.4502 C   0  0  0  0  0  0  0  0  0  0  0  0
  -24.5536   -9.6054   20.9331 C   0  0  0  0  0  0  0  0  0  0  0  0
  -23.9435   -8.7306   20.0342 C   0  0  0  0  0  0  0  0  0  0  0  0
  -21.9709  -29.1723   21.6958 C   0  0  0  0  0  0  0  0  0  0  0  0
  -22.4846  -21.6158   19.0846 C   0  0  0  0  0  0  0  0  0  0  0  0
  -21.8131   -9.1138   21.1074 C   0  0  0  0  0  0  0  0  0  0  0  0
  -26.3044  -14.4460   21.2513 C   0  0  0  0  0  0  0  0  0  0  0  0
  -27.8279  -15.6529   19.5990 C   0  0  0  0  0  0  0  0  0  0  0  0
  -28.8212  -25.1452   18.8939 C   0  0  0  0  0  0  0  0  0  0  0  0
  -23.7723  -29.3005   20.0839 C   0  0  0  0  0  0  0  0  0  0  0  0
  -27.6408  -25.4868   19.5812 C   0  0  0  0  0  0  0  0  0  0  0  0
  -20.8206  -23.3075   19.5389 C   0  0  0  0  0  0  0  0  0  0  0  0
  -23.2868  -29.5409   21.3772 C   0  0  0  0  0  0  0  0  0  0  0  0
  -23.3253  -22.1862   20.0404 C   0  0  0  0  0  0  0  0  0  0  0  0
  -25.0251  -12.1993   22.2994 C   0  0  0  0  0  0  0  0  0  0  0  0
  -21.1453  -28.5845   20.7377 C   0  0  0  0  0  0  0  0  0  0  0  0
  -23.7936  -10.2344   21.9192 C   0  0  0  0  0  0  0  0  0  0  0  0
  -21.2322  -22.1765   18.8338 C   0  0  0  0  0  0  0  0  0  0  0  0
  -22.5732   -8.4848   20.1213 C   0  0  0  0  0  0  0  0  0  0  0  0
  -22.4233   -9.9886   22.0063 C   0  0  0  0  0  0  0  0  0  0  0  0
  -26.9644  -15.6067   20.7099 C   0  0  0  0  0  0  0  0  0  0  0  0
  -28.1846  -16.9752   19.4961 C   0  0  0  0  0  0  0  0  0  0  0  0
  -28.2680  -14.5950   18.7371 C   0  0  0  0  0  0  0  0  0  0  0  0
  -26.5265  -28.4786   21.4415 C   0  0  0  0  0  0  0  0  0  0  0  0
  -26.3079  -31.4324   22.7641 C   0  0  0  0  0  0  0  0  0  0  0  0
  -24.3235  -34.0391   23.7201 C   0  0  0  0  0  0  0  0  0  0  0  0
  -25.5529  -22.0587   21.2100 C   0  0  0  0  0  0  0  0  0  0  0  0
  -30.1810  -25.5576   19.3995 C   0  0  0  0  0  0  0  0  0  0  0  0
  -25.1705  -29.7074   19.7073 C   0  0  0  0  0  0  0  0  0  0  0  0
  -24.1430  -30.1781   22.4400 C   0  0  0  0  0  0  0  0  0  0  0  0
  -30.1339  -26.6978   20.4133 C   0  0  0  0  0  0  0  0  0  0  0  0
  -28.7864  -20.9096   22.1593 C   0  0  0  0  0  0  0  0  0  0  0  0
  -29.0578  -26.4355   21.4621 C   0  0  0  0  0  0  0  0  0  0  0  0
  -28.7668  -19.4249   21.7887 C   0  0  0  0  0  0  0  0  0  0  0  0
  -18.2532  -23.0542   19.3802 C   0  0  0  0  0  0  0  0  0  0  0  0
  -27.4323  -21.3802   22.6873 C   0  0  0  0  0  0  0  0  0  0  0  0
  -26.2692  -19.5995   21.4442 C   0  0  0  0  0  0  0  0  0  0  0  0
  -19.4926  -23.9163   19.2848 C   0  0  1  0  0  0  0  0  0  0  0  0
  -27.6680  -26.3572   20.8188 C   0  0  1  0  0  0  0  0  0  0  0  0
  -26.1045  -29.8185   20.9084 C   0  0  1  0  0  0  0  0  0  0  0  0
  -27.5927  -19.0948   20.8464 C   0  0  2  0  0  0  0  0  0  0  0  0
  -18.5238  -24.0825   20.4355 C   0  0  1  0  0  0  0  0  0  0  0  0
  -24.4274  -36.2985   24.8072 C   0  0  0  0  0  0  0  0  0  0  0  0
  -17.1151  -27.3778   21.5954 C   0  0  0  0  0  0  0  0  0  0  0  0
  -26.6693  -30.1031   25.4867 C   0  0  0  0  0  0  0  0  0  0  0  0
  -25.8275  -32.2084   26.5485 C   0  0  0  0  0  0  0  0  0  0  0  0
  -27.9243  -32.2469   25.1977 C   0  0  0  0  0  0  0  0  0  0  0  0
  -23.2326  -35.3749   21.3150 C   0  0  0  0  0  0  0  0  0  0  0  0
  -20.5519  -22.0778   16.5572 C   0  0  0  0  0  0  0  0  0  0  0  0
  -19.3069  -27.1227   20.3642 C   0  0  0  0  0  0  0  0  0  1  0  0
  -25.6986  -31.9969   24.0247 C   0  0  1  0  0  0  0  0  0  0  0  0
  -24.4463  -35.5349   23.4922 C   0  0  2  0  0  0  0  0  0  0  0  0
  -18.2493  -26.4372   21.2220 C   0  0  2  0  0  0  0  0  0  0  0  0
  -26.5142  -31.6250   25.2952 C   0  0  0  0  0  0  0  0  0  0  0  0
  -26.7837  -16.8045   21.2726 N   0  0  0  0  0  0  0  0  0  0  0  0
  -27.5386  -17.6157   20.5123 N   0  0  0  0  0  0  0  0  0  0  0  0
  -25.5049  -30.5525   22.0247 N   0  0  0  0  0  0  0  0  0  0  0  0
  -26.3689  -21.0372   21.7406 N   0  0  0  0  0  0  0  0  0  0  0  0
  -28.9849  -17.6409   18.6366 N   0  0  0  0  0  0  0  0  0  0  0  0
  -27.8050  -13.2954   18.9842 N   0  0  0  0  0  0  0  0  0  0  0  0
  -24.5975  -21.6168   20.2953 N   0  0  0  0  0  0  0  0  0  0  0  0
  -27.1758  -27.6840   20.5159 N   0  0  0  0  0  0  0  0  0  0  0  0
  -25.5588  -33.4321   23.8033 N   0  0  0  0  0  0  0  0  0  0  0  0
  -17.6743  -25.3005   20.4459 N   0  3  0  0  0  0  0  0  0  0  0  0
  -23.3198  -36.0245   22.6482 N   0  3  0  0  0  0  0  0  0  0  0  0
  -29.0617  -14.7935   17.7862 O   0  0  0  0  0  0  0  0  0  0  0  0
  -26.2824  -28.1877   22.6066 O   0  0  0  0  0  0  0  0  0  0  0  0
  -27.4515  -31.7656   22.4435 O   0  0  0  0  0  0  0  0  0  0  0  0
  -23.2402  -33.4670   23.8185 O   0  0  0  0  0  0  0  0  0  0  0  0
  -25.7092  -23.2420   21.5220 O   0  0  0  0  0  0  0  0  0  0  0  0
  -24.4007  -11.1032   22.8104 O   0  0  0  0  0  0  0  0  0  0  0  0
  -20.4243  -21.6056   17.8967 O   0  0  0  0  0  0  0  0  0  0  0  0
  -19.8706  -28.2336   21.0602 O   0  0  0  0  0  0  0  0  0  1  0  0
  -21.9871   -7.6460   19.2570 F   0  0  0  0  0  0  0  0  0  0  0  0
  -21.6877  -10.5908   22.9508 F   0  0  0  0  0  0  0  0  0  0  0  0
  1  2  1  0  0  0  0
  1  5  2  0  0  0  0
  2  6  2  0  0  0  0
  3 10  2  0  0  0  0
  3 18  1  0  0  0  0
  4 11  1  0  0  0  0
  4 18  2  0  0  0  0
  5 20  1  0  0  0  0
  6 22  1  0  0  0  0
  7  9  2  0  0  0  0
  7 23  1  0  0  0  0
  8 12  2  0  0  0  0
  8 21  1  0  0  0  0
  9 25  1  0  0  0  0
 10 26  1  0  0  0  0
 11 26  2  0  0  0  0
 12 27  1  0  0  0  0
 13 14  2  0  0  0  0
 13 28  1  0  0  0  0
 14 30  1  0  0  0  0
 15 24  1  0  0  0  0
 15 27  2  0  0  0  0
 16 25  2  0  0  0  0
 16 29  1  0  0  0  0
 17 30  2  0  0  0  0
 17 31  1  0  0  0  0
 18 32  1  0  0  0  0
 19 32  1  0  0  0  0
 19 33  2  0  0  0  0
 19 34  1  0  0  0  0
 20 22  2  0  0  0  0
 20 39  1  0  0  0  0
 21 24  2  0  0  0  0
 21 40  1  0  0  0  0
 22 50  1  0  0  0  0
 23 29  2  0  0  0  0
 23 49  1  0  0  0  0
 24 41  1  0  0  0  0
 25 72  1  0  0  0  0
 26 82  1  0  0  0  0
 27 84  1  0  0  0  0
 28 31  2  0  0  0  0
 28 82  1  0  0  0  0
 29 83  1  0  0  0  0
 30 85  1  0  0  0  0
 31 86  1  0  0  0  0
 32 66  2  0  0  0  0
 33 67  1  0  0  0  0
 33 70  1  0  0  0  0
 34 71  1  0  0  0  0
 34 77  2  0  0  0  0
 35 51  1  0  0  0  0
 35 73  1  0  0  0  0
 35 78  2  0  0  0  0
 36 62  1  0  0  0  0
 36 68  1  0  0  0  0
 36 79  2  0  0  0  0
 37 63  1  0  0  0  0
 37 74  1  0  0  0  0
 37 80  2  0  0  0  0
 38 69  1  0  0  0  0
 38 72  1  0  0  0  0
 38 81  2  0  0  0  0
 39 42  1  0  0  0  0
 40 51  1  0  0  0  0
 41 68  1  0  0  0  0
 42 44  1  0  0  0  0
 43 45  1  0  0  0  0
 43 47  1  0  0  0  0
 44 50  1  0  0  0  0
 45 52  1  0  0  0  0
 46 49  1  0  0  0  0
 46 53  1  0  0  0  0
 47 69  1  0  0  0  0
 48 52  1  0  0  0  0
 48 69  1  0  0  0  0
 49 53  1  0  0  0  0
 50 73  1  0  0  0  0
 51 68  1  0  0  0  0
 52 67  1  0  0  0  0
 53 75  1  0  0  0  0
 54 63  1  0  0  0  0
 55 64  1  0  0  0  0
 56 65  1  0  0  0  0
 57 65  1  0  0  0  0
 58 65  1  0  0  0  0
 59 76  1  0  0  0  0
 60 83  1  0  0  0  0
 61 64  1  0  0  0  0
 61 84  1  0  0  0  0
 62 65  1  0  0  0  0
 62 74  1  0  0  0  0
 63 76  1  0  0  0  0
 64 75  1  0  0  0  0
 66 67  1  0  0  0  0
M  CHG  2  75   1  76   1
M  ISO  4  38 100  61 101  72 100  84 101
M  END
> <Batch ID>
0156

> <Smiles>
CNC(C)C(=O)NC(C(=O)N1Cc2cc([101O:1][101CH2:1]C(C)NC3CC3c3ccc([100NH:0][100C:0](=O)N4CCCC(n5nc(-c6ccc(Oc7ccc(F)cc7F)cc6)c(C(N)=O)c5N)C4)cc3OC)ccc2CC1C(=O)NC1CCCc2ccccc21)C(C)(C)C

> <Shape>
0.288

> <Color>
0.072

> <Negative vol penalty>
0.000

$$$$

  -OEChem-04052321563D

 86 94  0     1  0  0  0  0  0999 V2000
  -22.4845   -8.1281   20.6516 C   0  0  0  0  0  0  0  0  0  0  0  0
  -22.1511   -9.4622   20.4411 C   0  0  0  0  0  0  0  0  0  0  0  0
  -29.5971  -27.6175   21.4559 C   0  0  0  0  0  0  0  0  0  0  0  0
  -28.0441  -27.2671   19.6386 C   0  0  0  0  0  0  0  0  0  0  0  0
  -23.6292   -7.8031   21.3783 C   0  0  0  0  0  0  0  0  0  0  0  0
  -22.9616  -10.4722   20.9582 C   0  0  0  0  0  0  0  0  0  0  0  0
  -24.1236  -15.9225   18.4186 C   0  0  0  0  0  0  0  0  0  0  0  0
  -30.2915  -26.4662   21.0845 C   0  0  0  0  0  0  0  0  0  0  0  0
  -28.7385  -26.1158   19.2672 C   0  0  0  0  0  0  0  0  0  0  0  0
  -23.5871  -17.1912   18.6340 C   0  0  0  0  0  0  0  0  0  0  0  0
  -28.9611  -22.9014   20.2911 C   0  0  0  0  0  0  0  0  0  0  0  0
  -28.2139  -21.7628   19.9897 C   0  0  0  0  0  0  0  0  0  0  0  0
  -25.4108  -17.7021   20.1281 C   0  0  0  0  0  0  0  0  0  0  0  0
  -22.9396  -21.7515   21.8722 C   0  0  0  0  0  0  0  0  0  0  0  0
  -23.7165  -22.4066   19.6803 C   0  0  0  0  0  0  0  0  0  0  0  0
  -29.1404  -21.7455   17.7584 C   0  0  0  0  0  0  0  0  0  0  0  0
  -28.4734  -28.0179   20.7330 C   0  0  0  0  0  0  0  0  0  0  0  0
  -27.9849  -30.5209   20.6668 C   0  0  0  0  0  0  0  0  0  0  0  0
  -24.4594   -8.8096   21.8963 C   0  0  0  0  0  0  0  0  0  0  0  0
  -25.3039  -15.5295   19.0659 C   0  0  0  0  0  0  0  0  0  0  0  0
  -24.1177  -10.1604   21.6937 C   0  0  0  0  0  0  0  0  0  0  0  0
  -25.9616  -16.4288   19.9173 C   0  0  0  0  0  0  0  0  0  0  0  0
  -23.6738  -21.4761   20.7186 C   0  0  0  0  0  0  0  0  0  0  0  0
  -22.2481  -22.9574   21.9874 C   0  0  0  0  0  0  0  0  0  0  0  0
  -23.0250  -23.6125   19.7956 C   0  0  0  0  0  0  0  0  0  0  0  0
  -29.8622  -25.7154   19.9901 C   0  0  0  0  0  0  0  0  0  0  0  0
  -24.2292  -18.0802   19.4911 C   0  0  0  0  0  0  0  0  0  0  0  0
  -29.7979  -23.4621   19.3262 C   0  0  0  0  0  0  0  0  0  0  0  0
  -22.2908  -23.8879   20.9492 C   0  0  0  0  0  0  0  0  0  0  0  0
  -28.3036  -21.1848   18.7233 C   0  0  0  0  0  0  0  0  0  0  0  0
  -29.8876  -22.8841   18.0599 C   0  0  0  0  0  0  0  0  0  0  0  0
  -27.7553  -29.2068   21.1166 C   0  0  0  0  0  0  0  0  0  0  0  0
  -27.0450  -31.2775   21.3230 C   0  0  0  0  0  0  0  0  0  0  0  0
  -28.9605  -31.0135   19.7387 C   0  0  0  0  0  0  0  0  0  0  0  0
  -26.0705  -13.2484   21.1426 C   0  0  0  0  0  0  0  0  0  0  0  0
  -29.0831  -14.3377   20.6326 C   0  0  0  0  0  0  0  0  0  0  0  0
  -31.1100  -16.9092   19.6705 C   0  0  0  0  0  0  0  0  0  0  0  0
  -21.6957  -29.9873   23.6833 C   0  0  0  0  0  0  0  0  0  0  0  0
  -25.6606   -8.4095   22.7158 C   0  0  0  0  0  0  0  0  0  0  0  0
  -25.8841  -14.1671   18.8022 C   0  0  0  0  0  0  0  0  0  0  0  0
  -27.2422  -16.0629   20.6206 C   0  0  0  0  0  0  0  0  0  0  0  0
  -26.6689   -9.5391   22.9102 C   0  0  0  0  0  0  0  0  0  0  0  0
  -24.4959  -31.3984   25.3699 C   0  0  0  0  0  0  0  0  0  0  0  0
  -25.9570  -10.8269   23.3118 C   0  0  0  0  0  0  0  0  0  0  0  0
  -25.6695  -31.1153   24.4305 C   0  0  0  0  0  0  0  0  0  0  0  0
  -23.4869  -30.2521   25.3739 C   0  0  0  0  0  0  0  0  0  0  0  0
  -24.1636  -29.5768   23.1024 C   0  0  0  0  0  0  0  0  0  0  0  0
  -24.9851  -11.2844   22.2175 C   0  0  1  0  0  0  0  0  0  0  0  0
  -26.8137  -13.6884   19.9131 C   0  0  1  0  0  0  0  0  0  0  0  0
  -25.1796  -30.7289   23.0220 C   0  0  2  0  0  0  0  0  0  0  0  0
  -21.4678  -23.2342   23.2303 C   0  0  0  0  0  0  0  0  0  0  0  0
  -23.0832  -24.5962   18.6736 C   0  0  0  0  0  0  0  0  0  0  0  0
  -33.5301  -17.5124   19.3938 C   0  0  0  0  0  0  0  0  0  0  0  0
  -29.3498  -14.6447   23.6566 C   0  0  0  0  0  0  0  0  0  0  0  0
  -31.3481  -16.1006   23.2626 C   0  0  0  0  0  0  0  0  0  0  0  0
  -31.3758  -13.7195   22.5193 C   0  0  0  0  0  0  0  0  0  0  0  0
  -30.7793  -17.3858   16.7683 C   0  0  0  0  0  0  0  0  0  0  0  0
  -24.4172  -20.1787   20.5942 C   0  0  0  0  0  0  0  0  0  1  0  0
  -20.0178  -29.6953   21.8782 C   0  0  0  0  0  0  0  0  0  0  0  0
  -19.3455  -28.3435   22.0386 C   0  0  0  0  0  0  0  0  0  0  0  0
  -20.2697  -25.0893   20.5924 C   0  0  0  0  0  0  0  0  0  0  0  0
  -19.4729  -26.0802   21.4191 C   0  0  0  0  0  0  0  0  0  0  0  0
  -29.9589  -15.3939   21.2621 C   0  0  1  0  0  0  0  0  0  0  0  0
  -32.2873  -16.9599   18.7135 C   0  0  2  0  0  0  0  0  0  0  0  0
  -30.4830  -14.9712   22.6636 C   0  0  0  0  0  0  0  0  0  0  0  0
  -26.7486  -29.1296   21.9910 N   0  0  0  0  0  0  0  0  0  0  0  0
  -26.3374  -30.4047   22.0961 N   0  0  0  0  0  0  0  0  0  0  0  0
  -27.7665  -14.7170   20.3353 N   0  0  0  0  0  0  0  0  0  0  0  0
  -23.0613  -29.9362   24.0082 N   0  0  0  0  0  0  0  0  0  0  0  0
  -26.7632  -32.5977   21.3084 N   0  0  0  0  0  0  0  0  0  0  0  0
  -29.8495  -30.0999   19.1561 N   0  0  0  0  0  0  0  0  0  0  0  0
  -25.7060  -11.9156   21.1329 N   0  0  0  0  0  0  0  0  0  0  0  0
  -31.0105  -15.6829   20.2931 N   0  0  0  0  0  0  0  0  0  0  0  0
  -21.3789  -29.6799   22.3658 N   0  0  0  0  0  0  0  0  0  0  0  0
  -31.9672  -17.8265   17.5440 N   0  3  0  0  0  0  0  0  0  0  0  0
  -29.0521  -32.2302   19.4476 O   0  0  0  0  0  0  0  0  0  0  0  0
  -25.8457  -14.0579   22.0347 O   0  0  0  0  0  0  0  0  0  0  0  0
  -29.5521  -13.2194   20.4063 O   0  0  0  0  0  0  0  0  0  0  0  0
  -30.3565  -17.8632   19.8507 O   0  0  0  0  0  0  0  0  0  0  0  0
  -20.8239  -30.2901   24.5051 O   0  0  0  0  0  0  0  0  0  0  0  0
  -30.5397  -24.5920   19.6273 O   0  0  0  0  0  0  0  0  0  0  0  0
  -23.7073  -19.3189   19.7036 O   0  0  0  0  0  0  0  0  0  1  0  0
  -21.6153  -25.0674   21.0623 O   0  0  0  0  0  0  0  0  0  0  0  0
  -20.0663  -27.3674   21.2995 O   0  0  0  0  0  0  0  0  0  0  0  0
  -27.5871  -20.0905   18.4345 F   0  0  0  0  0  0  0  0  0  0  0  0
  -30.6907  -23.4176   17.1292 F   0  0  0  0  0  0  0  0  0  0  0  0
  1  2  1  0  0  0  0
  1  5  2  0  0  0  0
  2  6  2  0  0  0  0
  3  8  2  0  0  0  0
  3 17  1  0  0  0  0
  4  9  1  0  0  0  0
  4 17  2  0  0  0  0
  5 19  1  0  0  0  0
  6 21  1  0  0  0  0
  7 10  2  0  0  0  0
  7 20  1  0  0  0  0
  8 26  1  0  0  0  0
  9 26  2  0  0  0  0
 10 27  1  0  0  0  0
 11 12  2  0  0  0  0
 11 28  1  0  0  0  0
 12 30  1  0  0  0  0
 13 22  1  0  0  0  0
 13 27  2  0  0  0  0
 14 23  1  0  0  0  0
 14 24  2  0  0  0  0
 15 23  2  0  0  0  0
 15 25  1  0  0  0  0
 16 30  2  0  0  0  0
 16 31  1  0  0  0  0
 17 32  1  0  0  0  0
 18 32  1  0  0  0  0
 18 33  2  0  0  0  0
 18 34  1  0  0  0  0
 19 21  2  0  0  0  0
 19 39  1  0  0  0  0
 20 22  2  0  0  0  0
 20 40  1  0  0  0  0
 21 48  1  0  0  0  0
 22 41  1  0  0  0  0
 23 58  1  0  0  0  0
 24 29  1  0  0  0  0
 24 51  1  0  0  0  0
 25 29  2  0  0  0  0
 25 52  1  0  0  0  0
 26 81  1  0  0  0  0
 27 82  1  0  0  0  0
 28 31  2  0  0  0  0
 28 81  1  0  0  0  0
 29 83  1  0  0  0  0
 30 85  1  0  0  0  0
 31 86  1  0  0  0  0
 32 66  2  0  0  0  0
 33 67  1  0  0  0  0
 33 70  1  0  0  0  0
 34 71  1  0  0  0  0
 34 76  2  0  0  0  0
 35 49  1  0  0  0  0
 35 72  1  0  0  0  0
 35 77  2  0  0  0  0
 36 63  1  0  0  0  0
 36 68  1  0  0  0  0
 36 78  2  0  0  0  0
 37 64  1  0  0  0  0
 37 73  1  0  0  0  0
 37 79  2  0  0  0  0
 38 69  1  0  0  0  0
 38 74  1  0  0  0  0
 38 80  2  0  0  0  0
 39 42  1  0  0  0  0
 40 49  1  0  0  0  0
 41 68  1  0  0  0  0
 42 44  1  0  0  0  0
 43 45  1  0  0  0  0
 43 46  1  0  0  0  0
 44 48  1  0  0  0  0
 45 50  1  0  0  0  0
 46 69  1  0  0  0  0
 47 50  1  0  0  0  0
 47 69  1  0  0  0  0
 48 72  1  0  0  0  0
 49 68  1  0  0  0  0
 50 67  1  0  0  0  0
 53 64  1  0  0  0  0
 54 65  1  0  0  0  0
 55 65  1  0  0  0  0
 56 65  1  0  0  0  0
 57 75  1  0  0  0  0
 58 82  1  0  0  0  0
 59 60  1  0  0  0  0
 59 74  1  0  0  0  0
 60 84  1  0  0  0  0
 61 62  1  0  0  0  0
 61 83  1  0  0  0  0
 62 84  1  0  0  0  0
 63 65  1  0  0  0  0
 63 73  1  0  0  0  0
 64 75  1  0  0  0  0
 66 67  1  0  0  0  0
M  CHG  1  75   1
M  ISO  4  38 100  58 101  74 100  82 101
M  END
> <Batch ID>
0156

> <Smiles>
CNC(C)C(=O)NC(C(=O)N1Cc2cc([101O:1][101CH2:1]c3cc(C)c(OCCOCC[100NH:0][100C:0](=O)N4CCCC(n5nc(-c6ccc(Oc7ccc(F)cc7F)cc6)c(C(N)=O)c5N)C4)c(C)c3)ccc2CC1C(=O)NC1CCCc2ccccc21)C(C)(C)C

> <Shape>
0.282

> <Color>
0.065

> <Negative vol penalty>
0.000

$$$$

  -OEChem-04052321563D

 85 93  0     1  0  0  0  0  0999 V2000
  -29.0508  -24.3179   16.8570 C   0  0  0  0  0  0  0  0  0  0  0  0
  -27.8297  -24.8691   17.2286 C   0  0  0  0  0  0  0  0  0  0  0  0
  -26.5073  -13.5554   20.7612 C   0  0  0  0  0  0  0  0  0  0  0  0
  -25.4835  -14.9143   19.0459 C   0  0  0  0  0  0  0  0  0  0  0  0
  -30.1864  -24.5679   17.6244 C   0  0  0  0  0  0  0  0  0  0  0  0
  -27.7462  -25.6801   18.3609 C   0  0  0  0  0  0  0  0  0  0  0  0
  -23.4527  -27.9377   19.1813 C   0  0  0  0  0  0  0  0  0  0  0  0
  -25.5679  -12.5513   20.5265 C   0  0  0  0  0  0  0  0  0  0  0  0
  -24.5441  -13.9103   18.8111 C   0  0  0  0  0  0  0  0  0  0  0  0
  -22.3133  -27.2577   19.6093 C   0  0  0  0  0  0  0  0  0  0  0  0
  -22.3440  -11.9217   21.3229 C   0  0  0  0  0  0  0  0  0  0  0  0
  -21.7484  -11.3204   22.4316 C   0  0  0  0  0  0  0  0  0  0  0  0
  -22.6526  -28.1069   21.8416 C   0  0  0  0  0  0  0  0  0  0  0  0
  -19.4444  -22.9645   21.4548 C   0  0  0  0  0  0  0  0  0  0  0  0
  -21.2948  -21.7765   20.4806 C   0  0  0  0  0  0  0  0  0  0  0  0
  -22.6214   -9.1770   21.7383 C   0  0  0  0  0  0  0  0  0  0  0  0
  -26.4650  -14.7369   20.0210 C   0  0  0  0  0  0  0  0  0  0  0  0
  -28.6870  -15.9306   19.6393 C   0  0  0  0  0  0  0  0  0  0  0  0
  -30.1134  -25.3723   18.7736 C   0  0  0  0  0  0  0  0  0  0  0  0
  -24.2080  -28.6999   20.0841 C   0  0  0  0  0  0  0  0  0  0  0  0
  -28.8859  -25.9638   19.1350 C   0  0  0  0  0  0  0  0  0  0  0  0
  -23.7997  -28.7977   21.4219 C   0  0  0  0  0  0  0  0  0  0  0  0
  -24.5864  -12.7287   19.5514 C   0  0  0  0  0  0  0  0  0  0  0  0
  -21.9147  -27.3399   20.9403 C   0  0  0  0  0  0  0  0  0  0  0  0
  -23.0783  -11.1506   20.4218 C   0  0  0  0  0  0  0  0  0  0  0  0
  -19.9260  -21.9130   20.6830 C   0  0  0  0  0  0  0  0  0  0  0  0
  -21.8871   -9.9481   22.6393 C   0  0  0  0  0  0  0  0  0  0  0  0
  -23.2170   -9.7783   20.6295 C   0  0  0  0  0  0  0  0  0  0  0  0
  -27.4348  -15.7747   20.2634 C   0  0  0  0  0  0  0  0  0  0  0  0
  -20.3658  -23.8453   21.9979 C   0  0  0  0  0  0  0  0  0  0  0  0
  -22.1333  -22.7106   21.0671 C   0  0  0  0  0  0  0  0  0  0  0  0
  -29.2190  -17.0588   20.2143 C   0  0  0  0  0  0  0  0  0  0  0  0
  -29.3131  -15.1276   18.6300 C   0  0  0  0  0  0  0  0  0  0  0  0
  -27.1935  -28.5833   21.1689 C   0  0  0  0  0  0  0  0  0  0  0  0
  -26.3684  -31.3741   22.6019 C   0  0  0  0  0  0  0  0  0  0  0  0
  -23.8937  -33.3886   23.8120 C   0  0  0  0  0  0  0  0  0  0  0  0
  -26.7599  -21.8344   22.8597 C   0  0  0  0  0  0  0  0  0  0  0  0
  -31.3752  -25.6165   19.5633 C   0  0  0  0  0  0  0  0  0  0  0  0
  -25.4195  -29.4490   19.6007 C   0  0  0  0  0  0  0  0  0  0  0  0
  -24.5644  -29.6190   22.4265 C   0  0  0  0  0  0  0  0  0  0  0  0
  -31.1035  -26.1157   20.9786 C   0  0  0  0  0  0  0  0  0  0  0  0
  -29.1331  -19.5886   24.2743 C   0  0  0  0  0  0  0  0  0  0  0  0
  -30.1194  -27.2753   20.9408 C   0  0  0  0  0  0  0  0  0  0  0  0
  -29.0800  -18.3706   23.3505 C   0  0  0  0  0  0  0  0  0  0  0  0
  -27.7548  -20.2209   24.4545 C   0  0  0  0  0  0  0  0  0  0  0  0
  -27.0087  -19.3459   22.2747 C   0  0  0  0  0  0  0  0  0  0  0  0
  -28.7649  -26.8241   20.3799 C   0  0  1  0  0  0  0  0  0  0  0  0
  -26.4032  -29.7794   20.7190 C   0  0  1  0  0  0  0  0  0  0  0  0
  -28.3845  -18.7075   22.0178 C   0  0  2  0  0  0  0  0  0  0  0  0
  -19.7306  -24.5933   24.3150 C   0  0  0  0  0  0  0  0  0  0  0  0
  -23.5309  -35.5906   24.9596 C   0  0  0  0  0  0  0  0  0  0  0  0
  -27.3002  -30.1514   25.2375 C   0  0  0  0  0  0  0  0  0  0  0  0
  -26.0619  -31.9668   26.4371 C   0  0  0  0  0  0  0  0  0  0  0  0
  -27.9485  -32.5446   24.9109 C   0  0  0  0  0  0  0  0  0  0  0  0
  -22.2864  -34.4310   21.5562 C   0  0  0  0  0  0  0  0  0  0  0  0
  -19.6261  -19.9678   19.3481 C   0  0  0  0  0  0  0  0  0  0  0  0
  -25.7568  -23.3300   21.1521 C   0  0  0  0  0  0  0  0  0  0  0  0
  -24.3021  -23.5825   21.5056 C   0  0  0  0  0  0  0  0  0  0  0  0
  -20.7841  -26.2372   22.7184 C   0  0  0  0  0  0  0  0  0  1  0  0
  -19.8755  -25.0071   22.8478 C   0  0  1  0  0  0  0  0  0  0  0  0
  -25.7569  -31.7547   23.9286 C   0  0  1  0  0  0  0  0  0  0  0  0
  -23.6179  -34.8694   23.6235 C   0  0  2  0  0  0  0  0  0  0  0  0
  -26.7533  -31.5872   25.1103 C   0  0  0  0  0  0  0  0  0  0  0  0
  -27.1862  -16.7274   21.1659 N   0  0  0  0  0  0  0  0  0  0  0  0
  -21.7026  -23.7452   21.8234 N   0  0  0  0  0  0  0  0  0  0  0  0
  -28.2896  -17.4928   21.1131 N   0  0  0  0  0  0  0  0  0  0  0  0
  -25.7454  -30.3279   21.9067 N   0  0  0  0  0  0  0  0  0  0  0  0
  -27.1504  -20.5175   23.1534 N   0  0  0  0  0  0  0  0  0  0  0  0
  -30.3866  -17.7119   20.0338 N   0  0  0  0  0  0  0  0  0  0  0  0
  -28.6274  -14.0036   18.1498 N   0  0  0  0  0  0  0  0  0  0  0  0
  -27.9320  -27.9867   20.1648 N   0  0  0  0  0  0  0  0  0  0  0  0
  -25.2436  -33.1108   23.7674 N   0  0  0  0  0  0  0  0  0  0  0  0
  -26.2015  -22.0299   21.6024 N   0  0  0  0  0  0  0  0  0  0  0  0
  -22.3318  -35.0684   22.8974 N   0  3  0  0  0  0  0  0  0  0  0  0
  -30.4542  -15.3895   18.1794 O   0  0  0  0  0  0  0  0  0  0  0  0
  -27.1386  -28.2289   22.3407 O   0  0  0  0  0  0  0  0  0  0  0  0
  -27.3580  -31.9872   22.1940 O   0  0  0  0  0  0  0  0  0  0  0  0
  -23.0013  -32.5616   23.9856 O   0  0  0  0  0  0  0  0  0  0  0  0
  -26.9035  -22.7677   23.6566 O   0  0  0  0  0  0  0  0  0  0  0  0
  -23.6697  -11.7491   19.3219 O   0  0  0  0  0  0  0  0  0  0  0  0
  -19.0615  -21.0212   20.1278 O   0  0  0  0  0  0  0  0  0  0  0  0
  -20.8034  -26.6767   21.3609 O   0  0  0  0  0  0  0  0  0  1  0  0
  -23.4864  -22.5978   20.8820 O   0  0  0  0  0  0  0  0  0  0  0  0
  -21.3163   -9.3711   23.7049 F   0  0  0  0  0  0  0  0  0  0  0  0
  -23.9223   -9.0325   19.7679 F   0  0  0  0  0  0  0  0  0  0  0  0
  1  2  1  0  0  0  0
  1  5  2  0  0  0  0
  2  6  2  0  0  0  0
  3  8  2  0  0  0  0
  3 17  1  0  0  0  0
  4  9  1  0  0  0  0
  4 17  2  0  0  0  0
  5 19  1  0  0  0  0
  6 21  1  0  0  0  0
  7 10  2  0  0  0  0
  7 20  1  0  0  0  0
  8 23  1  0  0  0  0
  9 23  2  0  0  0  0
 10 24  1  0  0  0  0
 11 12  2  0  0  0  0
 11 25  1  0  0  0  0
 12 27  1  0  0  0  0
 13 22  1  0  0  0  0
 13 24  2  0  0  0  0
 14 26  2  0  0  0  0
 14 30  1  0  0  0  0
 15 26  1  0  0  0  0
 15 31  2  0  0  0  0
 16 27  2  0  0  0  0
 16 28  1  0  0  0  0
 17 29  1  0  0  0  0
 18 29  1  0  0  0  0
 18 32  2  0  0  0  0
 18 33  1  0  0  0  0
 19 21  2  0  0  0  0
 19 38  1  0  0  0  0
 20 22  2  0  0  0  0
 20 39  1  0  0  0  0
 21 47  1  0  0  0  0
 22 40  1  0  0  0  0
 23 80  1  0  0  0  0
 24 82  1  0  0  0  0
 25 28  2  0  0  0  0
 25 80  1  0  0  0  0
 26 81  1  0  0  0  0
 27 84  1  0  0  0  0
 28 85  1  0  0  0  0
 29 64  2  0  0  0  0
 30 60  1  0  0  0  0
 30 65  2  0  0  0  0
 31 65  1  0  0  0  0
 31 83  1  0  0  0  0
 32 66  1  0  0  0  0
 32 69  1  0  0  0  0
 33 70  1  0  0  0  0
 33 75  2  0  0  0  0
 34 48  1  0  0  0  0
 34 71  1  0  0  0  0
 34 76  2  0  0  0  0
 35 61  1  0  0  0  0
 35 67  1  0  0  0  0
 35 77  2  0  0  0  0
 36 62  1  0  0  0  0
 36 72  1  0  0  0  0
 36 78  2  0  0  0  0
 37 68  1  0  0  0  0
 37 73  1  0  0  0  0
 37 79  2  0  0  0  0
 38 41  1  0  0  0  0
 39 48  1  0  0  0  0
 40 67  1  0  0  0  0
 41 43  1  0  0  0  0
 42 44  1  0  0  0  0
 42 45  1  0  0  0  0
 43 47  1  0  0  0  0
 44 49  1  0  0  0  0
 45 68  1  0  0  0  0
 46 49  1  0  0  0  0
 46 68  1  0  0  0  0
 47 71  1  0  0  0  0
 48 67  1  0  0  0  0
 49 66  1  0  0  0  0
 50 60  1  0  0  0  0
 51 62  1  0  0  0  0
 52 63  1  0  0  0  0
 53 63  1  0  0  0  0
 54 63  1  0  0  0  0
 55 74  1  0  0  0  0
 56 81  1  0  0  0  0
 57 58  1  0  0  0  0
 57 73  1  0  0  0  0
 58 83  1  0  0  0  0
 59 60  1  0  0  0  0
 59 82  1  0  0  0  0
 61 63  1  0  0  0  0
 61 72  1  0  0  0  0
 62 74  1  0  0  0  0
 64 66  1  0  0  0  0
M  CHG  1  74   1
M  ISO  4  37 100  59 101  73 100  82 101
M  END
> <Batch ID>
0156

> <Smiles>
CNC(C)C(=O)NC(C(=O)N1Cc2cc([101O:1][101CH2:1]C(C)c3cc(OC)cc(OCC[100NH:0][100C:0](=O)N4CCCC(n5nc(-c6ccc(Oc7ccc(F)cc7F)cc6)c(C(N)=O)c5N)C4)n3)ccc2CC1C(=O)NC1CCCc2ccccc21)C(C)(C)C

> <Shape>
0.271

> <Color>
0.068

> <Negative vol penalty>
0.000

$$$$

  -OEChem-04052321563D

 88 97  0     1  0  0  0  0  0999 V2000
  -25.4214  -18.2642   25.2486 C   0  0  0  0  0  0  0  0  0  0  0  0
  -25.5019  -19.6419   25.4248 C   0  0  0  0  0  0  0  0  0  0  0  0
  -26.8919  -13.9340   21.7261 C   0  0  0  0  0  0  0  0  0  0  0  0
  -26.5651  -14.0444   19.3348 C   0  0  0  0  0  0  0  0  0  0  0  0
  -24.7400  -17.7418   24.1501 C   0  0  0  0  0  0  0  0  0  0  0  0
  -24.9019  -20.4979   24.5020 C   0  0  0  0  0  0  0  0  0  0  0  0
  -22.2415  -25.8890   25.6699 C   0  0  0  0  0  0  0  0  0  0  0  0
  -25.9965  -12.8669   21.7991 C   0  0  0  0  0  0  0  0  0  0  0  0
  -25.6698  -12.9773   19.4079 C   0  0  0  0  0  0  0  0  0  0  0  0
  -22.6943  -27.2026   25.5560 C   0  0  0  0  0  0  0  0  0  0  0  0
  -23.5729  -10.0483   18.9159 C   0  0  0  0  0  0  0  0  0  0  0  0
  -23.6963   -9.0313   17.9693 C   0  0  0  0  0  0  0  0  0  0  0  0
  -25.1889  -27.8864   19.6182 C   0  0  0  0  0  0  0  0  0  0  0  0
  -21.6555  -27.3661   23.3850 C   0  0  0  0  0  0  0  0  0  0  0  0
  -27.1915  -27.9590   20.9980 C   0  0  0  0  0  0  0  0  0  0  0  0
  -25.9461   -8.5931   18.7331 C   0  0  0  0  0  0  0  0  0  0  0  0
  -27.1762  -14.5228   20.4939 C   0  0  0  0  0  0  0  0  0  0  0  0
  -29.4931  -15.5555   20.2241 C   0  0  0  0  0  0  0  0  0  0  0  0
  -24.1231  -18.5916   23.2186 C   0  0  0  0  0  0  0  0  0  0  0  0
  -21.5003  -25.2994   24.6357 C   0  0  0  0  0  0  0  0  0  0  0  0
  -24.2128  -19.9863   23.3893 C   0  0  0  0  0  0  0  0  0  0  0  0
  -24.7829  -29.0726   20.2063 C   0  0  0  0  0  0  0  0  0  0  0  0
  -21.1923  -26.0457   23.4893 C   0  0  0  0  0  0  0  0  0  0  0  0
  -25.5616  -29.6954   21.1897 C   0  0  0  0  0  0  0  0  0  0  0  0
  -26.7687  -29.1485   21.5948 C   0  0  0  0  0  0  0  0  0  0  0  0
  -26.4068  -27.3320   20.0174 C   0  0  0  0  0  0  0  0  0  0  0  0
  -25.3855  -12.3886   20.6400 C   0  0  0  0  0  0  0  0  0  0  0  0
  -22.4038  -27.9405   24.4122 C   0  0  0  0  0  0  0  0  0  0  0  0
  -24.6362  -10.3378   19.7711 C   0  0  0  0  0  0  0  0  0  0  0  0
  -24.8828   -8.3037   17.8779 C   0  0  0  0  0  0  0  0  0  0  0  0
  -25.8228   -9.6102   19.6797 C   0  0  0  0  0  0  0  0  0  0  0  0
  -28.1005  -15.6254   20.4178 C   0  0  0  0  0  0  0  0  0  0  0  0
  -29.9065  -16.8653   20.2273 C   0  0  0  0  0  0  0  0  0  0  0  0
  -30.3376  -14.4090   20.0562 C   0  0  0  0  0  0  0  0  0  0  0  0
  -21.9282  -22.8091   22.7072 C   0  0  0  0  0  0  0  0  0  0  0  0
  -18.9021  -23.5092   21.7718 C   0  0  0  0  0  0  0  0  0  0  0  0
  -16.4228  -25.8371   21.4877 C   0  0  0  0  0  0  0  0  0  0  0  0
  -27.0957  -21.8801   18.8831 C   0  0  0  0  0  0  0  0  0  0  0  0
  -23.4381  -17.9814   22.0215 C   0  0  0  0  0  0  0  0  0  0  0  0
  -20.9963  -23.8901   24.7854 C   0  0  0  0  0  0  0  0  0  0  0  0
  -23.5141  -29.8280   19.9689 C   0  0  0  0  0  0  0  0  0  0  0  0
  -20.3828  -25.4657   22.3593 C   0  0  0  0  0  0  0  0  0  0  0  0
  -22.5099  -18.9490   21.2919 C   0  0  0  0  0  0  0  0  0  0  0  0
  -23.8629  -31.1958   20.5768 C   0  0  0  0  0  0  0  0  0  0  0  0
  -28.7529  -21.1518   22.0169 C   0  0  0  0  0  0  0  0  0  0  0  0
  -23.1987  -20.2938   21.0822 C   0  0  0  0  0  0  0  0  0  0  0  0
  -28.9036  -19.6317   21.9352 C   0  0  0  0  0  0  0  0  0  0  0  0
  -27.4276  -21.6091   21.4147 C   0  0  0  0  0  0  0  0  0  0  0  0
  -27.3537  -19.6466   19.9258 C   0  0  0  0  0  0  0  0  0  0  0  0
  -24.8955  -30.9433   21.6964 C   0  0  1  0  0  0  0  0  0  0  0  0
  -23.5537  -20.9469   22.4234 C   0  0  1  0  0  0  0  0  0  0  0  0
  -20.6884  -23.2206   23.4497 C   0  0  1  0  0  0  0  0  0  0  0  0
  -28.6836  -19.1232   20.4980 C   0  0  2  0  0  0  0  0  0  0  0  0
  -27.6458  -29.7904   22.6115 C   0  0  0  0  0  0  0  0  0  0  0  0
  -14.0753  -26.1224   20.6478 C   0  0  0  0  0  0  0  0  0  0  0  0
  -19.9401  -23.5862   18.9036 C   0  0  0  0  0  0  0  0  0  0  0  0
  -17.8386  -24.7791   18.2489 C   0  0  0  0  0  0  0  0  0  0  0  0
  -17.7203  -22.4679   19.1800 C   0  0  0  0  0  0  0  0  0  0  0  0
  -15.4199  -26.5360   24.1830 C   0  0  0  0  0  0  0  0  0  0  0  0
  -24.7109  -32.8143   24.0341 C   0  0  0  0  0  0  0  0  0  0  0  0
  -26.1185  -25.4408   18.4154 C   0  0  0  0  0  0  0  0  0  0  0  0
  -26.8505  -24.1795   17.9832 C   0  0  0  0  0  0  0  0  0  0  0  0
  -23.1198  -29.7005   22.9819 C   0  0  0  0  0  0  0  0  0  1  0  0
  -18.2877  -24.3951   20.7150 C   0  0  1  0  0  0  0  0  0  0  0  0
  -14.9487  -25.7878   21.8470 C   0  0  2  0  0  0  0  0  0  0  0  0
  -24.2407  -30.7299   23.0558 C   0  0  2  0  0  0  0  0  0  0  0  0
  -18.4636  -23.8177   19.2821 C   0  0  0  0  0  0  0  0  0  0  0  0
  -27.6587  -16.8804   20.5357 N   0  0  0  0  0  0  0  0  0  0  0  0
  -28.7802  -17.6111   20.4158 N   0  0  0  0  0  0  0  0  0  0  0  0
  -19.9180  -24.0818   22.5501 N   0  0  0  0  0  0  0  0  0  0  0  0
  -27.2887  -21.1074   20.0402 N   0  0  0  0  0  0  0  0  0  0  0  0
  -31.1198  -17.4403   20.0874 N   0  0  0  0  0  0  0  0  0  0  0  0
  -29.7495  -13.1370   20.0786 N   0  0  0  0  0  0  0  0  0  0  0  0
  -26.8579  -26.1325   19.4242 N   0  0  0  0  0  0  0  0  0  0  0  0
  -22.3783  -21.5414   23.0229 N   0  0  0  0  0  0  0  0  0  0  0  0
  -16.8983  -24.5990   21.1106 N   0  0  0  0  0  0  0  0  0  0  0  0
  -27.0388  -23.2546   19.0787 N   0  0  0  0  0  0  0  0  0  0  0  0
  -14.6476  -26.7617   22.9341 N   0  3  0  0  0  0  0  0  0  0  0  0
  -31.5792  -14.5088   19.9077 O   0  0  0  0  0  0  0  0  0  0  0  0
  -22.4378  -23.5839   21.9060 O   0  0  0  0  0  0  0  0  0  0  0  0
  -18.4907  -22.3541   21.9066 O   0  0  0  0  0  0  0  0  0  0  0  0
  -17.0852  -26.8714   21.5331 O   0  0  0  0  0  0  0  0  0  0  0  0
  -26.9875  -21.3821   17.7573 O   0  0  0  0  0  0  0  0  0  0  0  0
  -24.5120  -11.3472   20.7109 O   0  0  0  0  0  0  0  0  0  0  0  0
  -22.8451  -29.2227   24.2982 O   0  0  0  0  0  0  0  0  0  1  0  0
  -23.7029  -31.9800   23.4846 O   0  0  0  0  0  0  0  0  0  0  0  0
  -25.0005   -7.3261   16.9698 F   0  0  0  0  0  0  0  0  0  0  0  0
  -26.8473   -9.8829   20.4994 F   0  0  0  0  0  0  0  0  0  0  0  0
  1  2  1  0  0  0  0
  1  5  2  0  0  0  0
  2  6  2  0  0  0  0
  3  8  2  0  0  0  0
  3 17  1  0  0  0  0
  4  9  1  0  0  0  0
  4 17  2  0  0  0  0
  5 19  1  0  0  0  0
  6 21  1  0  0  0  0
  7 10  2  0  0  0  0
  7 20  1  0  0  0  0
  8 27  1  0  0  0  0
  9 27  2  0  0  0  0
 10 28  1  0  0  0  0
 11 12  2  0  0  0  0
 11 29  1  0  0  0  0
 12 30  1  0  0  0  0
 13 22  1  0  0  0  0
 13 26  2  0  0  0  0
 14 23  1  0  0  0  0
 14 28  2  0  0  0  0
 15 25  2  0  0  0  0
 15 26  1  0  0  0  0
 16 30  2  0  0  0  0
 16 31  1  0  0  0  0
 17 32  1  0  0  0  0
 18 32  1  0  0  0  0
 18 33  2  0  0  0  0
 18 34  1  0  0  0  0
 19 21  2  0  0  0  0
 19 39  1  0  0  0  0
 20 23  2  0  0  0  0
 20 40  1  0  0  0  0
 21 51  1  0  0  0  0
 22 24  2  0  0  0  0
 22 41  1  0  0  0  0
 23 42  1  0  0  0  0
 24 25  1  0  0  0  0
 24 50  1  0  0  0  0
 25 54  1  0  0  0  0
 26 74  1  0  0  0  0
 27 84  1  0  0  0  0
 28 85  1  0  0  0  0
 29 31  2  0  0  0  0
 29 84  1  0  0  0  0
 30 87  1  0  0  0  0
 31 88  1  0  0  0  0
 32 68  2  0  0  0  0
 33 69  1  0  0  0  0
 33 72  1  0  0  0  0
 34 73  1  0  0  0  0
 34 79  2  0  0  0  0
 35 52  1  0  0  0  0
 35 75  1  0  0  0  0
 35 80  2  0  0  0  0
 36 64  1  0  0  0  0
 36 70  1  0  0  0  0
 36 81  2  0  0  0  0
 37 65  1  0  0  0  0
 37 76  1  0  0  0  0
 37 82  2  0  0  0  0
 38 71  1  0  0  0  0
 38 77  1  0  0  0  0
 38 83  2  0  0  0  0
 39 43  1  0  0  0  0
 40 52  1  0  0  0  0
 41 44  1  0  0  0  0
 42 70  1  0  0  0  0
 43 46  1  0  0  0  0
 44 50  1  0  0  0  0
 45 47  1  0  0  0  0
 45 48  1  0  0  0  0
 46 51  1  0  0  0  0
 47 53  1  0  0  0  0
 48 71  1  0  0  0  0
 49 53  1  0  0  0  0
 49 71  1  0  0  0  0
 50 66  1  0  0  0  0
 51 75  1  0  0  0  0
 52 70  1  0  0  0  0
 53 69  1  0  0  0  0
 55 65  1  0  0  0  0
 56 67  1  0  0  0  0
 57 67  1  0  0  0  0
 58 67  1  0  0  0  0
 59 78  1  0  0  0  0
 60 86  1  0  0  0  0
 61 62  1  0  0  0  0
 61 74  1  0  0  0  0
 62 77  1  0  0  0  0
 63 66  1  0  0  0  0
 63 85  1  0  0  0  0
 64 67  1  0  0  0  0
 64 76  1  0  0  0  0
 65 78  1  0  0  0  0
 66 86  1  0  0  0  0
 68 69  1  0  0  0  0
M  CHG  1  78   1
M  ISO  4  38 100  63 101  77 100  85 101
M  END
> <Batch ID>
0156

> <Smiles>
CNC(C)C(=O)NC(C(=O)N1Cc2cc([101O:1][101CH2:1]C(OC)C3CCc4cc(NCC[100NH:0][100C:0](=O)N5CCCC(n6nc(-c7ccc(Oc8ccc(F)cc8F)cc7)c(C(N)=O)c6N)C5)cc(C)c43)ccc2CC1C(=O)NC1CCCc2ccccc21)C(C)(C)C

> <Shape>
0.206

> <Color>
0.085

> <Negative vol penalty>
0.000

$$$$

  -OEChem-04052321563D

 88 97  0     1  0  0  0  0  0999 V2000
  -28.0196  -36.9080   20.3225 C   0  0  0  0  0  0  0  0  0  0  0  0
  -28.3383  -35.5594   20.4461 C   0  0  0  0  0  0  0  0  0  0  0  0
  -26.5349  -15.8201   22.7655 C   0  0  0  0  0  0  0  0  0  0  0  0
  -25.7133  -15.6137   20.5029 C   0  0  0  0  0  0  0  0  0  0  0  0
  -26.9244  -37.4300   21.0094 C   0  0  0  0  0  0  0  0  0  0  0  0
  -27.5625  -34.7323   21.2575 C   0  0  0  0  0  0  0  0  0  0  0  0
  -26.4839  -30.3038   19.0508 C   0  0  0  0  0  0  0  0  0  0  0  0
  -25.9861  -14.5765   23.0783 C   0  0  0  0  0  0  0  0  0  0  0  0
  -25.1644  -14.3701   20.8156 C   0  0  0  0  0  0  0  0  0  0  0  0
  -27.4885  -29.3372   19.0384 C   0  0  0  0  0  0  0  0  0  0  0  0
  -26.2514  -11.1918   21.1867 C   0  0  0  0  0  0  0  0  0  0  0  0
  -26.4470  -10.1518   20.2781 C   0  0  0  0  0  0  0  0  0  0  0  0
  -26.4439  -28.2361   20.9133 C   0  0  0  0  0  0  0  0  0  0  0  0
  -33.7342  -26.0797   17.0391 C   0  0  0  0  0  0  0  0  0  0  0  0
  -24.0556   -9.9375   20.0086 C   0  0  0  0  0  0  0  0  0  0  0  0
  -26.3985  -16.3387   21.4778 C   0  0  0  0  0  0  0  0  0  0  0  0
  -28.2575  -17.8829   20.6610 C   0  0  0  0  0  0  0  0  0  0  0  0
  -26.1290  -36.6069   21.8220 C   0  0  0  0  0  0  0  0  0  0  0  0
  -25.4560  -30.2498   20.0031 C   0  0  0  0  0  0  0  0  0  0  0  0
  -26.4564  -35.2441   21.9570 C   0  0  0  0  0  0  0  0  0  0  0  0
  -25.4260  -29.2018   20.9340 C   0  0  0  0  0  0  0  0  0  0  0  0
  -31.6548  -26.2413   18.2584 C   0  0  0  0  0  0  0  0  0  0  0  0
  -32.9599  -26.6788   18.0326 C   0  0  0  0  0  0  0  0  0  0  0  0
  -33.2034  -25.0432   16.2712 C   0  0  0  0  0  0  0  0  0  0  0  0
  -31.1240  -25.2047   17.4906 C   0  0  0  0  0  0  0  0  0  0  0  0
  -25.3008  -13.8515   22.1033 C   0  0  0  0  0  0  0  0  0  0  0  0
  -27.4702  -28.3048   19.9715 C   0  0  0  0  0  0  0  0  0  0  0  0
  -24.9579  -11.6046   21.5064 C   0  0  0  0  0  0  0  0  0  0  0  0
  -31.8983  -24.6057   16.4970 C   0  0  0  0  0  0  0  0  0  0  0  0
  -25.3491   -9.5246   19.6890 C   0  0  0  0  0  0  0  0  0  0  0  0
  -23.8600  -10.9775   20.9173 C   0  0  0  0  0  0  0  0  0  0  0  0
  -26.9647  -17.6235   21.1543 C   0  0  0  0  0  0  0  0  0  0  0  0
  -28.3032  -19.2483   20.5189 C   0  0  0  0  0  0  0  0  0  0  0  0
  -29.3218  -16.9712   20.3581 C   0  0  0  0  0  0  0  0  0  0  0  0
  -24.4711  -32.1528   22.3509 C   0  0  0  0  0  0  0  0  0  0  0  0
  -22.0566  -29.9967   22.5600 C   0  0  0  0  0  0  0  0  0  0  0  0
  -20.9514  -26.8197   21.9839 C   0  0  0  0  0  0  0  0  0  0  0  0
  -25.9771  -24.0525   18.8897 C   0  0  0  0  0  0  0  0  0  0  0  0
  -24.9832  -37.2265   22.5823 C   0  0  0  0  0  0  0  0  0  0  0  0
  -24.3650  -31.2852   19.9862 C   0  0  0  0  0  0  0  0  0  0  0  0
  -24.3333  -29.0872   21.9643 C   0  0  0  0  0  0  0  0  0  0  0  0
  -23.9892  -36.2036   23.1262 C   0  0  0  0  0  0  0  0  0  0  0  0
  -25.1158  -22.8338   22.1223 C   0  0  0  0  0  0  0  0  0  0  0  0
  -24.7251  -35.0522   23.8040 C   0  0  0  0  0  0  0  0  0  0  0  0
  -25.6209  -21.3899   22.1154 C   0  0  0  0  0  0  0  0  0  0  0  0
  -30.6410  -28.3795   19.2957 C   0  0  0  0  0  0  0  0  0  0  0  0
  -24.5655  -23.2457   20.7586 C   0  0  0  0  0  0  0  0  0  0  0  0
  -25.9945  -21.5907   19.6216 C   0  0  0  0  0  0  0  0  0  0  0  0
  -30.8364  -26.8815   19.3157 C   0  0  1  0  0  0  0  0  0  0  0  0
  -25.6242  -34.3097   22.8081 C   0  0  1  0  0  0  0  0  0  0  0  0
  -23.6499  -31.4216   21.3269 C   0  0  1  0  0  0  0  0  0  0  0  0
  -26.6103  -21.1475   20.9598 C   0  0  2  0  0  0  0  0  0  0  0  0
  -29.4944  -27.4784   18.9526 C   0  0  1  0  0  0  0  0  0  1  0  0
  -33.5543  -27.7867   18.8396 C   0  0  0  0  0  0  0  0  0  0  0  0
  -34.0483  -24.4148   15.2123 C   0  0  0  0  0  0  0  0  0  0  0  0
  -18.9459  -25.3443   22.2979 C   0  0  0  0  0  0  0  0  0  0  0  0
  -26.5622  -24.8451   15.7814 C   0  0  0  0  0  0  0  0  0  0  0  0
  -22.7244  -29.7239   25.5247 C   0  0  0  0  0  0  0  0  0  0  0  0
  -21.3800  -27.6122   25.5619 C   0  0  0  0  0  0  0  0  0  0  0  0
  -20.2783  -29.7805   25.0073 C   0  0  0  0  0  0  0  0  0  0  0  0
  -20.6630  -26.3948   19.0692 C   0  0  0  0  0  0  0  0  0  0  0  0
  -31.5700  -22.2653   16.2313 C   0  0  0  0  0  0  0  0  0  0  0  0
  -28.9143  -24.4045   16.6526 C   0  0  0  0  0  0  0  0  0  0  0  0
  -21.8324  -28.7133   23.3227 C   0  0  1  0  0  0  0  0  0  0  0  0
  -19.6706  -26.2965   21.3593 C   0  0  2  0  0  0  0  0  0  0  0  0
  -27.4572  -24.7113   17.0097 C   0  0  2  0  0  0  0  0  0  0  0  0
  -21.5756  -28.9604   24.8361 C   0  0  0  0  0  0  0  0  0  0  0  0
  -26.2416  -18.7350   21.3150 N   0  0  0  0  0  0  0  0  0  0  0  0
  -27.0828  -19.7059   20.9205 N   0  0  0  0  0  0  0  0  0  0  0  0
  -23.2926  -30.1273   21.9112 N   0  0  0  0  0  0  0  0  0  0  0  0
  -25.5530  -22.9916   19.7069 N   0  0  0  0  0  0  0  0  0  0  0  0
  -29.2680  -20.0900   20.0910 N   0  0  0  0  0  0  0  0  0  0  0  0
  -29.1064  -15.6014   20.5621 N   0  0  0  0  0  0  0  0  0  0  0  0
  -29.8013  -24.7567   17.7149 N   0  0  0  0  0  0  0  0  0  0  0  0
  -24.8346  -33.4310   21.9721 N   0  0  0  0  0  0  0  0  0  0  0  0
  -20.7487  -28.0160   22.6388 N   0  0  0  0  0  0  0  0  0  0  0  0
  -26.9196  -23.7268   17.9220 N   0  0  0  0  0  0  0  0  0  0  0  0
  -19.9709  -25.5703   20.0930 N   0  3  0  0  0  0  0  0  0  0  0  0
  -30.4365  -17.3611   19.9352 O   0  0  0  0  0  0  0  0  0  0  0  0
  -24.7526  -31.5990   23.4071 O   0  0  0  0  0  0  0  0  0  0  0  0
  -21.1650  -30.8488   22.5348 O   0  0  0  0  0  0  0  0  0  0  0  0
  -22.0237  -26.2246   21.9024 O   0  0  0  0  0  0  0  0  0  0  0  0
  -25.5516  -25.2056   19.0168 O   0  0  0  0  0  0  0  0  0  0  0  0
  -24.7653  -12.6378   22.4081 O   0  0  0  0  0  0  0  0  0  0  0  0
  -28.4499  -27.3603   19.9621 O   0  0  0  0  0  0  0  0  0  1  0  0
  -31.3838  -23.5912   15.7431 O   0  0  0  0  0  0  0  0  0  0  0  0
  -25.5371   -8.5269   18.8152 F   0  0  0  0  0  0  0  0  0  0  0  0
  -22.6150  -11.3705   21.2196 F   0  0  0  0  0  0  0  0  0  0  0  0
  1  2  1  0  0  0  0
  1  5  2  0  0  0  0
  2  6  2  0  0  0  0
  3  8  2  0  0  0  0
  3 16  1  0  0  0  0
  4  9  1  0  0  0  0
  4 16  2  0  0  0  0
  5 18  1  0  0  0  0
  6 20  1  0  0  0  0
  7 10  2  0  0  0  0
  7 19  1  0  0  0  0
  8 26  1  0  0  0  0
  9 26  2  0  0  0  0
 10 27  1  0  0  0  0
 11 12  2  0  0  0  0
 11 28  1  0  0  0  0
 12 30  1  0  0  0  0
 13 21  1  0  0  0  0
 13 27  2  0  0  0  0
 14 23  2  0  0  0  0
 14 24  1  0  0  0  0
 15 30  2  0  0  0  0
 15 31  1  0  0  0  0
 16 32  1  0  0  0  0
 17 32  1  0  0  0  0
 17 33  2  0  0  0  0
 17 34  1  0  0  0  0
 18 20  2  0  0  0  0
 18 39  1  0  0  0  0
 19 21  2  0  0  0  0
 19 40  1  0  0  0  0
 20 50  1  0  0  0  0
 21 41  1  0  0  0  0
 22 23  1  0  0  0  0
 22 25  2  0  0  0  0
 22 49  1  0  0  0  0
 23 54  1  0  0  0  0
 24 29  2  0  0  0  0
 24 55  1  0  0  0  0
 25 29  1  0  0  0  0
 25 74  1  0  0  0  0
 26 84  1  0  0  0  0
 27 85  1  0  0  0  0
 28 31  2  0  0  0  0
 28 84  1  0  0  0  0
 29 86  1  0  0  0  0
 30 87  1  0  0  0  0
 31 88  1  0  0  0  0
 32 68  2  0  0  0  0
 33 69  1  0  0  0  0
 33 72  1  0  0  0  0
 34 73  1  0  0  0  0
 34 79  2  0  0  0  0
 35 51  1  0  0  0  0
 35 75  1  0  0  0  0
 35 80  2  0  0  0  0
 36 64  1  0  0  0  0
 36 70  1  0  0  0  0
 36 81  2  0  0  0  0
 37 65  1  0  0  0  0
 37 76  1  0  0  0  0
 37 82  2  0  0  0  0
 38 71  1  0  0  0  0
 38 77  1  0  0  0  0
 38 83  2  0  0  0  0
 39 42  1  0  0  0  0
 40 51  1  0  0  0  0
 41 70  1  0  0  0  0
 42 44  1  0  0  0  0
 43 45  1  0  0  0  0
 43 47  1  0  0  0  0
 44 50  1  0  0  0  0
 45 52  1  0  0  0  0
 46 49  1  0  0  0  0
 46 53  1  0  0  0  0
 47 71  1  0  0  0  0
 48 52  1  0  0  0  0
 48 71  1  0  0  0  0
 49 53  1  0  0  0  0
 50 75  1  0  0  0  0
 51 70  1  0  0  0  0
 52 69  1  0  0  0  0
 53 85  1  0  0  0  0
 56 65  1  0  0  0  0
 57 66  1  0  0  0  0
 58 67  1  0  0  0  0
 59 67  1  0  0  0  0
 60 67  1  0  0  0  0
 61 78  1  0  0  0  0
 62 86  1  0  0  0  0
 63 66  1  0  0  0  0
 63 74  1  0  0  0  0
 64 67  1  0  0  0  0
 64 76  1  0  0  0  0
 65 78  1  0  0  0  0
 66 77  1  0  0  0  0
 68 69  1  0  0  0  0
M  CHG  1  78   1
M  ISO  4  38 100  53 101  77 100  85 101
M  END
> <Batch ID>
0156

> <Smiles>
CNC(C)C(=O)NC(C(=O)N1Cc2cc([101O:1][101CH:1]3CC3c3c(C)cc(C)c(OC)c3NCC(C)[100NH:0][100C:0](=O)N3CCCC(n4nc(-c5ccc(Oc6ccc(F)cc6F)cc5)c(C(N)=O)c4N)C3)ccc2CC1C(=O)NC1CCCc2ccccc21)C(C)(C)C

> <Shape>
0.261

> <Color>
0.075

> <Negative vol penalty>
0.000

$$$$

  -OEChem-04052321563D

 87 96  0     1  0  0  0  0  0999 V2000
  -27.6228  -34.6003   23.7689 C   0  0  0  0  0  0  0  0  0  0  0  0
  -27.8483  -33.2571   23.4856 C   0  0  0  0  0  0  0  0  0  0  0  0
  -22.2603  -15.7434   21.5842 C   0  0  0  0  0  0  0  0  0  0  0  0
  -23.8767  -16.1026   23.3436 C   0  0  0  0  0  0  0  0  0  0  0  0
  -26.3574  -35.0233   24.1736 C   0  0  0  0  0  0  0  0  0  0  0  0
  -26.8087  -32.3358   23.6079 C   0  0  0  0  0  0  0  0  0  0  0  0
  -26.5773  -29.1363   19.6894 C   0  0  0  0  0  0  0  0  0  0  0  0
  -21.3449  -16.5497   22.2605 C   0  0  0  0  0  0  0  0  0  0  0  0
  -22.9613  -16.9090   24.0199 C   0  0  0  0  0  0  0  0  0  0  0  0
  -27.4951  -28.0870   19.6691 C   0  0  0  0  0  0  0  0  0  0  0  0
  -20.7922  -19.8553   22.7086 C   0  0  0  0  0  0  0  0  0  0  0  0
  -20.0888  -20.8023   21.9643 C   0  0  0  0  0  0  0  0  0  0  0  0
  -25.7980  -26.5942   20.5120 C   0  0  0  0  0  0  0  0  0  0  0  0
  -32.2279  -19.6079   16.8289 C   0  0  0  0  0  0  0  0  0  0  0  0
  -18.0063  -19.7562   22.6016 C   0  0  0  0  0  0  0  0  0  0  0  0
  -30.2524  -19.6420   15.5049 C   0  0  0  0  0  0  0  0  0  0  0  0
  -23.5262  -15.5198   22.1257 C   0  0  0  0  0  0  0  0  0  0  0  0
  -24.3157  -13.3317   21.0785 C   0  0  0  0  0  0  0  0  0  0  0  0
  -25.2993  -34.1083   24.2915 C   0  0  0  0  0  0  0  0  0  0  0  0
  -25.2637  -28.9245   20.1322 C   0  0  0  0  0  0  0  0  0  0  0  0
  -25.5283  -32.7468   24.0158 C   0  0  0  0  0  0  0  0  0  0  0  0
  -24.8647  -27.6419   20.5346 C   0  0  0  0  0  0  0  0  0  0  0  0
  -31.2353  -18.9093   16.1507 C   0  0  0  0  0  0  0  0  0  0  0  0
  -21.6954  -17.1326   23.4783 C   0  0  0  0  0  0  0  0  0  0  0  0
  -27.1063  -26.8164   20.0832 C   0  0  0  0  0  0  0  0  0  0  0  0
  -20.1027  -18.8586   23.3993 C   0  0  0  0  0  0  0  0  0  0  0  0
  -18.6958  -20.7527   21.9108 C   0  0  0  0  0  0  0  0  0  0  0  0
  -18.7098  -18.8091   23.3458 C   0  0  0  0  0  0  0  0  0  0  0  0
  -32.2076  -20.9981   16.8405 C   0  0  0  0  0  0  0  0  0  0  0  0
  -24.4721  -14.6864   21.4279 C   0  0  0  0  0  0  0  0  0  0  0  0
  -31.1814  -21.6373   16.1637 C   0  0  0  0  0  0  0  0  0  0  0  0
  -25.4847  -13.0059   20.4351 C   0  0  0  0  0  0  0  0  0  0  0  0
  -23.2125  -12.4469   21.3143 C   0  0  0  0  0  0  0  0  0  0  0  0
  -23.4916  -30.0521   22.5180 C   0  0  0  0  0  0  0  0  0  0  0  0
  -21.1438  -28.3546   21.0590 C   0  0  0  0  0  0  0  0  0  0  0  0
  -20.2885  -25.7709   18.9999 C   0  0  0  0  0  0  0  0  0  0  0  0
  -29.4419  -16.5627   17.6167 C   0  0  0  0  0  0  0  0  0  0  0  0
  -23.9609  -34.6050   24.7780 C   0  0  0  0  0  0  0  0  0  0  0  0
  -24.2783  -30.0609   20.1228 C   0  0  0  0  0  0  0  0  0  0  0  0
  -23.4606  -27.3576   20.9996 C   0  0  0  0  0  0  0  0  0  0  0  0
  -22.8180  -33.6262   24.5214 C   0  0  0  0  0  0  0  0  0  0  0  0
  -29.6772  -15.1013   21.1647 C   0  0  0  0  0  0  0  0  0  0  0  0
  -23.2218  -32.2141   24.9335 C   0  0  0  0  0  0  0  0  0  0  0  0
  -28.7442  -13.9363   20.8483 C   0  0  0  0  0  0  0  0  0  0  0  0
  -30.0865  -25.6245   18.8637 C   0  0  0  0  0  0  0  0  0  0  0  0
  -28.1951  -24.0118   18.4698 C   0  0  0  0  0  0  0  0  0  0  0  0
  -30.2190  -15.7300   19.8846 C   0  0  0  0  0  0  0  0  0  0  0  0
  -27.7975  -15.7433   19.2858 C   0  0  0  0  0  0  0  0  0  0  0  0
  -30.7589  -25.1434   17.5875 C   0  0  0  0  0  0  0  0  0  0  0  0
  -28.8711  -23.5344   17.1941 C   0  0  0  0  0  0  0  0  0  0  0  0
  -24.4197  -31.7212   24.1128 C   0  0  1  0  0  0  0  0  0  0  0  0
  -23.1095  -29.8462   21.0795 C   0  0  1  0  0  0  0  0  0  0  0  0
  -27.6301  -14.3216   19.8507 C   0  0  2  0  0  0  0  0  0  0  0  0
  -28.5712  -25.4513   18.8064 C   0  0  0  0  0  0  0  0  0  1  0  0
  -30.4163  -23.6706   14.8702 C   0  0  0  0  0  0  0  0  0  0  0  0
  -18.2902  -24.6067   18.0259 C   0  0  0  0  0  0  0  0  0  0  0  0
  -20.6295  -26.9972   23.7428 C   0  0  0  0  0  0  0  0  0  0  0  0
  -19.3373  -25.2329   22.5240 C   0  0  0  0  0  0  0  0  0  0  0  0
  -18.5652  -27.6042   22.4683 C   0  0  0  0  0  0  0  0  0  0  0  0
  -21.1230  -26.4048   16.2321 C   0  0  0  0  0  0  0  0  0  0  0  0
  -31.2284  -17.4223   16.1198 C   0  0  0  0  0  0  0  0  0  0  0  0
  -31.0941  -23.1458   16.1334 C   0  0  1  0  0  0  0  0  0  0  0  0
  -20.6253  -26.9405   21.1616 C   0  0  1  0  0  0  0  0  0  0  0  0
  -19.3329  -25.6949   17.8228 C   0  0  2  0  0  0  0  0  0  0  0  0
  -19.8164  -26.6992   22.4673 C   0  0  0  0  0  0  0  0  0  0  0  0
  -30.1997  -20.9928   15.4939 N   0  0  0  0  0  0  0  0  0  0  0  0
  -25.6478  -15.1869   21.0389 N   0  0  0  0  0  0  0  0  0  0  0  0
  -26.2408  -14.1410   20.4384 N   0  0  0  0  0  0  0  0  0  0  0  0
  -22.5356  -28.5028   20.9782 N   0  0  0  0  0  0  0  0  0  0  0  0
  -29.1805  -16.0058   18.8837 N   0  0  0  0  0  0  0  0  0  0  0  0
  -25.9292  -11.8621   19.8726 N   0  0  0  0  0  0  0  0  0  0  0  0
  -22.0896  -12.9444   21.9897 N   0  0  0  0  0  0  0  0  0  0  0  0
  -23.9929  -31.3102   22.7924 N   0  0  0  0  0  0  0  0  0  0  0  0
  -19.8717  -26.6922   19.9373 N   0  0  0  0  0  0  0  0  0  0  0  0
  -30.7825  -16.8454   17.3676 N   0  0  0  0  0  0  0  0  0  0  0  0
  -30.3661  -23.7090   17.3228 N   0  3  0  0  0  0  0  0  0  0  0  0
  -20.0801  -25.4013   16.5672 N   0  3  0  0  0  0  0  0  0  0  0  0
  -23.2288  -11.2462   20.9518 O   0  0  0  0  0  0  0  0  0  0  0  0
  -23.3412  -29.1377   23.3199 O   0  0  0  0  0  0  0  0  0  0  0  0
  -20.3429  -29.2927   21.0437 O   0  0  0  0  0  0  0  0  0  0  0  0
  -21.3012  -25.0794   19.0815 O   0  0  0  0  0  0  0  0  0  0  0  0
  -28.5590  -16.7897   16.7840 O   0  0  0  0  0  0  0  0  0  0  0  0
  -20.8025  -17.9197   24.1384 O   0  0  0  0  0  0  0  0  0  0  0  0
  -28.0003  -25.7906   20.0649 O   0  0  0  0  0  0  0  0  0  1  0  0
  -18.0203  -21.6631   21.1973 F   0  0  0  0  0  0  0  0  0  0  0  0
  -18.0418  -17.8548   24.0083 F   0  0  0  0  0  0  0  0  0  0  0  0
  -33.4374  -21.8601   17.6797 Cl  0  0  0  0  0  0  0  0  0  0  0  0
  1  2  1  0  0  0  0
  1  5  2  0  0  0  0
  2  6  2  0  0  0  0
  3  8  2  0  0  0  0
  3 17  1  0  0  0  0
  4  9  1  0  0  0  0
  4 17  2  0  0  0  0
  5 19  1  0  0  0  0
  6 21  1  0  0  0  0
  7 10  2  0  0  0  0
  7 20  1  0  0  0  0
  8 24  1  0  0  0  0
  9 24  2  0  0  0  0
 10 25  1  0  0  0  0
 11 12  2  0  0  0  0
 11 26  1  0  0  0  0
 12 27  1  0  0  0  0
 13 22  1  0  0  0  0
 13 25  2  0  0  0  0
 14 23  2  0  0  0  0
 14 29  1  0  0  0  0
 15 27  2  0  0  0  0
 15 28  1  0  0  0  0
 16 23  1  0  0  0  0
 16 66  2  0  0  0  0
 17 30  1  0  0  0  0
 18 30  1  0  0  0  0
 18 32  2  0  0  0  0
 18 33  1  0  0  0  0
 19 21  2  0  0  0  0
 19 38  1  0  0  0  0
 20 22  2  0  0  0  0
 20 39  1  0  0  0  0
 21 51  1  0  0  0  0
 22 40  1  0  0  0  0
 23 61  1  0  0  0  0
 24 83  1  0  0  0  0
 25 84  1  0  0  0  0
 26 28  2  0  0  0  0
 26 83  1  0  0  0  0
 27 85  1  0  0  0  0
 28 86  1  0  0  0  0
 29 31  2  0  0  0  0
 29 87  1  0  0  0  0
 30 67  2  0  0  0  0
 31 62  1  0  0  0  0
 31 66  1  0  0  0  0
 32 68  1  0  0  0  0
 32 71  1  0  0  0  0
 33 72  1  0  0  0  0
 33 78  2  0  0  0  0
 34 52  1  0  0  0  0
 34 73  1  0  0  0  0
 34 79  2  0  0  0  0
 35 63  1  0  0  0  0
 35 69  1  0  0  0  0
 35 80  2  0  0  0  0
 36 64  1  0  0  0  0
 36 74  1  0  0  0  0
 36 81  2  0  0  0  0
 37 70  1  0  0  0  0
 37 75  1  0  0  0  0
 37 82  2  0  0  0  0
 38 41  1  0  0  0  0
 39 52  1  0  0  0  0
 40 69  1  0  0  0  0
 41 43  1  0  0  0  0
 42 44  1  0  0  0  0
 42 47  1  0  0  0  0
 43 51  1  0  0  0  0
 44 53  1  0  0  0  0
 45 49  1  0  0  0  0
 45 54  1  0  0  0  0
 46 50  1  0  0  0  0
 46 54  1  0  0  0  0
 47 70  1  0  0  0  0
 48 53  1  0  0  0  0
 48 70  1  0  0  0  0
 49 76  1  0  0  0  0
 50 76  1  0  0  0  0
 51 73  1  0  0  0  0
 52 69  1  0  0  0  0
 53 68  1  0  0  0  0
 54 84  1  0  0  0  0
 55 62  1  0  0  0  0
 56 64  1  0  0  0  0
 57 65  1  0  0  0  0
 58 65  1  0  0  0  0
 59 65  1  0  0  0  0
 60 77  1  0  0  0  0
 61 75  1  0  0  0  0
 62 76  1  0  0  0  0
 63 65  1  0  0  0  0
 63 74  1  0  0  0  0
 64 77  1  0  0  0  0
 67 68  1  0  0  0  0
M  CHG  2  76   1  77   1
M  ISO  4  37 100  54 101  75 100  84 101
M  END
> <Batch ID>
0156

> <Smiles>
CNC(C)C(=O)NC(C(=O)N1Cc2cc([101O:1][101CH:1]3CCN(C(C)c4ncc(C[100NH:0][100C:0](=O)N5CCCC(n6nc(-c7ccc(Oc8ccc(F)cc8F)cc7)c(C(N)=O)c6N)C5)cc4Cl)CC3)ccc2CC1C(=O)NC1CCCc2ccccc21)C(C)(C)C

> <Shape>
0.250

> <Color>
0.084

> <Negative vol penalty>
0.000

$$$$

  -OEChem-04052321563D

 88 97  0     1  0  0  0  0  0999 V2000
  -20.1268  -33.6135   15.9002 C   0  0  0  0  0  0  0  0  0  0  0  0
  -21.1337  -32.6541   15.8694 C   0  0  0  0  0  0  0  0  0  0  0  0
  -27.1313  -11.5009   18.8574 C   0  0  0  0  0  0  0  0  0  0  0  0
  -27.3537  -10.2559   20.9159 C   0  0  0  0  0  0  0  0  0  0  0  0
  -20.1409  -34.6060   16.8793 C   0  0  0  0  0  0  0  0  0  0  0  0
  -22.1561  -32.6873   16.8171 C   0  0  0  0  0  0  0  0  0  0  0  0
  -25.0229  -27.8837   19.3097 C   0  0  0  0  0  0  0  0  0  0  0  0
  -28.1973  -10.7870   18.3103 C   0  0  0  0  0  0  0  0  0  0  0  0
  -28.4198   -9.5418   20.3688 C   0  0  0  0  0  0  0  0  0  0  0  0
  -26.2417  -27.2687   19.0271 C   0  0  0  0  0  0  0  0  0  0  0  0
  -31.0932   -9.5405   16.4981 C   0  0  0  0  0  0  0  0  0  0  0  0
  -32.0660  -10.2571   15.8013 C   0  0  0  0  0  0  0  0  0  0  0  0
  -27.2936  -28.5679   20.7663 C   0  0  0  0  0  0  0  0  0  0  0  0
  -28.1452  -22.6493   21.3876 C   0  0  0  0  0  0  0  0  0  0  0  0
  -29.2165  -23.7698   19.0682 C   0  0  0  0  0  0  0  0  0  0  0  0
  -32.5475  -11.5390   17.7918 C   0  0  0  0  0  0  0  0  0  0  0  0
  -26.7095  -11.2354   20.1602 C   0  0  0  0  0  0  0  0  0  0  0  0
  -24.2426  -11.6373   20.6709 C   0  0  0  0  0  0  0  0  0  0  0  0
  -21.1586  -34.6457   17.8454 C   0  0  0  0  0  0  0  0  0  0  0  0
  -24.9323  -28.8550   20.3170 C   0  0  0  0  0  0  0  0  0  0  0  0
  -22.1846  -33.6821   17.8092 C   0  0  0  0  0  0  0  0  0  0  0  0
  -26.0718  -29.1919   21.0614 C   0  0  0  0  0  0  0  0  0  0  0  0
  -27.8944  -22.0603   20.1484 C   0  0  0  0  0  0  0  0  0  0  0  0
  -28.4300  -22.6205   18.9887 C   0  0  0  0  0  0  0  0  0  0  0  0
  -29.4673  -24.3589   20.3074 C   0  0  0  0  0  0  0  0  0  0  0  0
  -28.8416   -9.8074   19.0660 C   0  0  0  0  0  0  0  0  0  0  0  0
  -27.3779  -27.6128   19.7535 C   0  0  0  0  0  0  0  0  0  0  0  0
  -30.8474   -9.8232   17.8418 C   0  0  0  0  0  0  0  0  0  0  0  0
  -28.9317  -23.7987   21.4671 C   0  0  0  0  0  0  0  0  0  0  0  0
  -32.7932  -11.2563   16.4481 C   0  0  0  0  0  0  0  0  0  0  0  0
  -31.5746  -10.8224   18.4886 C   0  0  0  0  0  0  0  0  0  0  0  0
  -25.6087  -11.9731   20.7261 C   0  0  0  0  0  0  0  0  0  0  0  0
  -23.6124  -12.6497   21.3524 C   0  0  0  0  0  0  0  0  0  0  0  0
  -23.6008  -10.5110   20.0585 C   0  0  0  0  0  0  0  0  0  0  0  0
  -24.1618  -31.9378   20.3979 C   0  0  0  0  0  0  0  0  0  0  0  0
  -24.4096  -31.5153   23.6045 C   0  0  0  0  0  0  0  0  0  0  0  0
  -25.7239  -29.7289   26.1984 C   0  0  0  0  0  0  0  0  0  0  0  0
  -24.8778  -18.2693   22.4768 C   0  0  0  0  0  0  0  0  0  0  0  0
  -21.1576  -35.7657   18.8554 C   0  0  0  0  0  0  0  0  0  0  0  0
  -23.6045  -29.4898   20.6275 C   0  0  0  0  0  0  0  0  0  0  0  0
  -26.0234  -30.2139   22.1667 C   0  0  0  0  0  0  0  0  0  0  0  0
  -22.0712  -35.5086   20.0510 C   0  0  0  0  0  0  0  0  0  0  0  0
  -24.3149  -15.8231   24.8532 C   0  0  0  0  0  0  0  0  0  0  0  0
  -23.4319  -35.0015   19.5838 C   0  0  0  0  0  0  0  0  0  0  0  0
  -24.4453  -14.5177   24.0688 C   0  0  0  0  0  0  0  0  0  0  0  0
  -27.6716  -19.6355   20.8501 C   0  0  0  0  0  0  0  0  0  0  0  0
  -25.6028  -21.0710   20.5877 C   0  0  0  0  0  0  0  0  0  0  0  0
  -25.3801  -16.8258   24.4248 C   0  0  0  0  0  0  0  0  0  0  0  0
  -26.7841  -18.3881   20.8117 C   0  0  0  0  0  0  0  0  0  0  0  0
  -24.7699  -19.7938   20.5292 C   0  0  0  0  0  0  0  0  0  0  0  0
  -25.5008  -15.8313   22.1633 C   0  0  0  0  0  0  0  0  0  0  0  0
  -27.0353  -20.8114   20.0873 C   0  0  0  0  0  0  0  0  0  0  0  0
  -23.2970  -33.6701   18.8351 C   0  0  1  0  0  0  0  0  0  0  0  0
  -23.7362  -30.8380   21.3291 C   0  0  1  0  0  0  0  0  0  0  0  0
  -24.4409  -14.7808   22.5525 C   0  0  1  0  0  0  0  0  0  0  0  0
  -29.0260  -20.7627   17.4138 C   0  0  0  0  0  0  0  0  0  0  0  0
  -25.7768  -29.6455   28.7059 C   0  0  0  0  0  0  0  0  0  0  0  0
  -26.3446  -33.8742   23.6396 C   0  0  0  0  0  0  0  0  0  0  0  0
  -27.0751  -33.1512   25.9226 C   0  0  0  0  0  0  0  0  0  0  0  0
  -24.7092  -33.8382   25.5313 C   0  0  0  0  0  0  0  0  0  0  0  0
  -24.5043  -27.0328   26.2502 C   0  0  0  0  0  0  0  0  0  0  0  0
  -28.5811  -23.7228   23.8181 C   0  0  0  0  0  0  0  0  0  0  0  0
  -28.1753  -22.0068   17.6511 C   0  0  0  0  0  0  0  0  0  0  0  0
  -30.3102  -25.5895   20.3737 C   0  0  0  0  0  0  0  0  0  0  0  0
  -29.4867  -26.8667   20.5611 C   0  0  0  0  0  0  0  0  0  1  0  0
  -25.5258  -31.6281   24.6146 C   0  0  1  0  0  0  0  0  0  0  0  0
  -25.0852  -29.1471   27.4465 C   0  0  2  0  0  0  0  0  0  0  0  0
  -25.9153  -33.1050   24.9050 C   0  0  0  0  0  0  0  0  0  0  0  0
  -25.8338  -13.1100   21.3900 N   0  0  0  0  0  0  0  0  0  0  0  0
  -24.6007  -13.4975   21.7582 N   0  0  0  0  0  0  0  0  0  0  0  0
  -24.7034  -30.8111   22.4282 N   0  0  0  0  0  0  0  0  0  0  0  0
  -25.3458  -17.0457   22.9790 N   0  0  0  0  0  0  0  0  0  0  0  0
  -25.4212  -18.7066   21.2595 N   0  0  0  0  0  0  0  0  0  0  0  0
  -22.3148  -12.8886   21.6379 N   0  0  0  0  0  0  0  0  0  0  0  0
  -24.3975   -9.5649   19.3993 N   0  0  0  0  0  0  0  0  0  0  0  0
  -23.1122  -32.5810   19.7701 N   0  0  0  0  0  0  0  0  0  0  0  0
  -25.0891  -30.8830   25.7904 N   0  0  0  0  0  0  0  0  0  0  0  0
  -25.1654  -27.6591   27.4239 N   0  3  0  0  0  0  0  0  0  0  0  0
  -22.3561  -10.3569   20.0807 O   0  0  0  0  0  0  0  0  0  0  0  0
  -25.3540  -32.1855   20.2603 O   0  0  0  0  0  0  0  0  0  0  0  0
  -23.3150  -32.0268   23.8532 O   0  0  0  0  0  0  0  0  0  0  0  0
  -26.6916  -29.2134   25.6431 O   0  0  0  0  0  0  0  0  0  0  0  0
  -24.0242  -18.9322   23.0794 O   0  0  0  0  0  0  0  0  0  0  0  0
  -29.8817   -9.1103   18.5324 O   0  0  0  0  0  0  0  0  0  0  0  0
  -29.1675  -24.3610   22.6856 O   0  0  0  0  0  0  0  0  0  0  0  0
  -28.5774  -27.0103   19.4774 O   0  0  0  0  0  0  0  0  0  1  0  0
  -33.7285  -11.9434   15.7792 F   0  0  0  0  0  0  0  0  0  0  0  0
  -31.3438  -11.0977   19.7796 F   0  0  0  0  0  0  0  0  0  0  0  0
  1  2  1  0  0  0  0
  1  5  2  0  0  0  0
  2  6  2  0  0  0  0
  3  8  2  0  0  0  0
  3 17  1  0  0  0  0
  4  9  1  0  0  0  0
  4 17  2  0  0  0  0
  5 19  1  0  0  0  0
  6 21  1  0  0  0  0
  7 10  2  0  0  0  0
  7 20  1  0  0  0  0
  8 26  1  0  0  0  0
  9 26  2  0  0  0  0
 10 27  1  0  0  0  0
 11 12  2  0  0  0  0
 11 28  1  0  0  0  0
 12 30  1  0  0  0  0
 13 22  1  0  0  0  0
 13 27  2  0  0  0  0
 14 23  1  0  0  0  0
 14 29  2  0  0  0  0
 15 24  1  0  0  0  0
 15 25  2  0  0  0  0
 16 30  2  0  0  0  0
 16 31  1  0  0  0  0
 17 32  1  0  0  0  0
 18 32  1  0  0  0  0
 18 33  2  0  0  0  0
 18 34  1  0  0  0  0
 19 21  2  0  0  0  0
 19 39  1  0  0  0  0
 20 22  2  0  0  0  0
 20 40  1  0  0  0  0
 21 53  1  0  0  0  0
 22 41  1  0  0  0  0
 23 24  2  0  0  0  0
 23 52  1  0  0  0  0
 24 63  1  0  0  0  0
 25 29  1  0  0  0  0
 25 64  1  0  0  0  0
 26 84  1  0  0  0  0
 27 86  1  0  0  0  0
 28 31  2  0  0  0  0
 28 84  1  0  0  0  0
 29 85  1  0  0  0  0
 30 87  1  0  0  0  0
 31 88  1  0  0  0  0
 32 69  2  0  0  0  0
 33 70  1  0  0  0  0
 33 74  1  0  0  0  0
 34 75  1  0  0  0  0
 34 79  2  0  0  0  0
 35 54  1  0  0  0  0
 35 76  1  0  0  0  0
 35 80  2  0  0  0  0
 36 66  1  0  0  0  0
 36 71  1  0  0  0  0
 36 81  2  0  0  0  0
 37 67  1  0  0  0  0
 37 77  1  0  0  0  0
 37 82  2  0  0  0  0
 38 72  1  0  0  0  0
 38 73  1  0  0  0  0
 38 83  2  0  0  0  0
 39 42  1  0  0  0  0
 40 54  1  0  0  0  0
 41 71  1  0  0  0  0
 42 44  1  0  0  0  0
 43 45  1  0  0  0  0
 43 48  1  0  0  0  0
 44 53  1  0  0  0  0
 45 55  1  0  0  0  0
 46 49  1  0  0  0  0
 46 52  1  0  0  0  0
 47 50  1  0  0  0  0
 47 52  1  0  0  0  0
 48 72  1  0  0  0  0
 49 73  1  0  0  0  0
 50 73  1  0  0  0  0
 51 55  1  0  0  0  0
 51 72  1  0  0  0  0
 53 76  1  0  0  0  0
 54 71  1  0  0  0  0
 55 70  1  0  0  0  0
 56 63  1  0  0  0  0
 57 67  1  0  0  0  0
 58 68  1  0  0  0  0
 59 68  1  0  0  0  0
 60 68  1  0  0  0  0
 61 78  1  0  0  0  0
 62 85  1  0  0  0  0
 64 65  1  0  0  0  0
 65 86  1  0  0  0  0
 66 68  1  0  0  0  0
 66 77  1  0  0  0  0
 67 78  1  0  0  0  0
 69 70  1  0  0  0  0
M  CHG  1  78   1
M  ISO  4  38 100  65 101  73 100  86 101
M  END
> <Batch ID>
0156

> <Smiles>
CCc1cc(C[101CH2:1][101O:1]c2ccc3c(c2)CN(C(=O)C(NC(=O)C(C)NC)C(C)(C)C)C(C(=O)NC2CCCc4ccccc42)C3)c(OC)cc1C1CC[100N:0]([100C:0](=O)N2CCCC(n3nc(-c4ccc(Oc5ccc(F)cc5F)cc4)c(C(N)=O)c3N)C2)CC1

> <Shape>
0.234

> <Color>
0.098

> <Negative vol penalty>
0.000

$$$$

  -OEChem-04052321563D

 95105  0     1  0  0  0  0  0999 V2000
  -17.2605  -27.2996   25.3711 C   0  0  0  0  0  0  0  0  0  0  0  0
  -18.2760  -28.1140   25.8620 C   0  0  0  0  0  0  0  0  0  0  0  0
  -23.2586  -10.1404   22.2253 C   0  0  0  0  0  0  0  0  0  0  0  0
  -23.9351   -9.4932   19.9981 C   0  0  0  0  0  0  0  0  0  0  0  0
  -17.4748  -26.5337   24.2260 C   0  0  0  0  0  0  0  0  0  0  0  0
  -19.5068  -28.1621   25.2085 C   0  0  0  0  0  0  0  0  0  0  0  0
  -24.8843  -32.6666   23.7563 C   0  0  0  0  0  0  0  0  0  0  0  0
  -22.4270   -9.0228   22.2975 C   0  0  0  0  0  0  0  0  0  0  0  0
  -23.1036   -8.3756   20.0703 C   0  0  0  0  0  0  0  0  0  0  0  0
  -26.2717  -32.7568   23.8603 C   0  0  0  0  0  0  0  0  0  0  0  0
  -20.4005   -6.1455   23.2082 C   0  0  0  0  0  0  0  0  0  0  0  0
  -20.4253   -5.3935   24.3827 C   0  0  0  0  0  0  0  0  0  0  0  0
  -26.4359  -26.0735   23.4916 C   0  0  0  0  0  0  0  0  0  0  0  0
  -26.5015  -31.4507   21.8453 C   0  0  0  0  0  0  0  0  0  0  0  0
  -22.7780   -4.9548   24.0521 C   0  0  0  0  0  0  0  0  0  0  0  0
  -24.0126  -10.3756   21.0756 C   0  0  0  0  0  0  0  0  0  0  0  0
  -26.2225  -11.6113   21.3868 C   0  0  0  0  0  0  0  0  0  0  0  0
  -18.7057  -26.5798   23.5526 C   0  0  0  0  0  0  0  0  0  0  0  0
  -24.2943  -31.9574   22.7003 C   0  0  0  0  0  0  0  0  0  0  0  0
  -19.7383  -27.3951   24.0540 C   0  0  0  0  0  0  0  0  0  0  0  0
  -27.1763  -26.0160   24.6723 C   0  0  0  0  0  0  0  0  0  0  0  0
  -25.1064  -31.3552   21.7287 C   0  0  0  0  0  0  0  0  0  0  0  0
  -25.6250  -24.9997   23.1239 C   0  0  0  0  0  0  0  0  0  0  0  0
  -27.1059  -24.8848   25.4853 C   0  0  0  0  0  0  0  0  0  0  0  0
  -26.2951  -23.8109   25.1176 C   0  0  0  0  0  0  0  0  0  0  0  0
  -25.5546  -23.8684   23.9369 C   0  0  0  0  0  0  0  0  0  0  0  0
  -22.3495   -8.1404   21.2200 C   0  0  0  0  0  0  0  0  0  0  0  0
  -27.0806  -32.1463   22.9064 C   0  0  0  0  0  0  0  0  0  0  0  0
  -21.5645   -6.3021   22.4556 C   0  0  0  0  0  0  0  0  0  0  0  0
  -21.6140   -4.7982   24.8047 C   0  0  0  0  0  0  0  0  0  0  0  0
  -22.7532   -5.7068   22.8776 C   0  0  0  0  0  0  0  0  0  0  0  0
  -24.8713  -11.5301   21.0002 C   0  0  0  0  0  0  0  0  0  0  0  0
  -26.5795  -12.9099   21.1170 C   0  0  0  0  0  0  0  0  0  0  0  0
  -27.0785  -10.6030   21.9403 C   0  0  0  0  0  0  0  0  0  0  0  0
  -22.4163  -29.4018   22.4873 C   0  0  0  0  0  0  0  0  0  0  0  0
  -22.3526  -30.1935   19.3422 C   0  0  0  0  0  0  0  0  0  0  0  0
  -23.8651  -31.7696   16.7202 C   0  0  0  0  0  0  0  0  0  0  0  0
  -25.7448  -18.2110   21.1983 C   0  0  0  0  0  0  0  0  0  0  0  0
  -18.9063  -25.6980   22.3457 C   0  0  0  0  0  0  0  0  0  0  0  0
  -22.7958  -31.8921   22.5875 C   0  0  0  0  0  0  0  0  0  0  0  0
  -24.5222  -30.5993   20.5644 C   0  0  0  0  0  0  0  0  0  0  0  0
  -20.1133  -26.0913   21.4978 C   0  0  0  0  0  0  0  0  0  0  0  0
  -24.1739  -16.5315   18.5448 C   0  0  0  0  0  0  0  0  0  0  0  0
  -21.3306  -26.3370   22.3835 C   0  0  0  0  0  0  0  0  0  0  0  0
  -24.3227  -15.0734   18.9782 C   0  0  0  0  0  0  0  0  0  0  0  0
  -23.8393  -20.9795   22.2438 C   0  0  0  0  0  0  0  0  0  0  0  0
  -26.3180  -21.4502   22.2866 C   0  0  0  0  0  0  0  0  0  0  0  0
  -29.1104  -27.4121   23.9672 C   0  0  0  0  0  0  0  0  0  0  0  0
  -27.1772  -28.4403   25.2291 C   0  0  0  0  0  0  0  0  0  0  0  0
  -23.8319  -17.4472   19.7216 C   0  0  0  0  0  0  0  0  0  0  0  0
  -24.0476  -20.0855   21.0178 C   0  0  0  0  0  0  0  0  0  0  0  0
  -26.4727  -20.5729   21.0474 C   0  0  0  0  0  0  0  0  0  0  0  0
  -24.9190  -15.8777   21.2943 C   0  0  0  0  0  0  0  0  0  0  0  0
  -29.9533  -28.6432   24.2748 C   0  0  0  0  0  0  0  0  0  0  0  0
  -28.0350  -29.6633   25.5273 C   0  0  0  0  0  0  0  0  0  0  0  0
  -28.0370  -27.1792   25.0431 C   0  0  0  0  0  0  0  0  0  0  0  0
  -21.0789  -27.4932   23.3589 C   0  0  1  0  0  0  0  0  0  0  0  0
  -22.3102  -30.7095   21.7550 C   0  0  1  0  0  0  0  0  0  0  0  0
  -25.3200  -14.9424   20.1431 C   0  0  1  0  0  0  0  0  0  0  0  0
  -24.9160  -22.0628   22.3394 C   0  0  0  0  0  0  0  0  0  0  0  0
  -24.8434  -25.0905   21.8535 C   0  0  0  0  0  0  0  0  0  0  0  0
  -27.9016  -24.8263   26.7509 C   0  0  0  0  0  0  0  0  0  0  0  0
  -26.2226  -22.5986   25.9926 C   0  0  0  0  0  0  0  0  0  0  0  0
  -23.5933  -32.2112   14.2649 C   0  0  0  0  0  0  0  0  0  0  0  0
  -29.7210  -33.6631   24.4646 C   0  0  0  0  0  0  0  0  0  0  0  0
  -23.2310  -27.3356   18.7335 C   0  0  0  0  0  0  0  0  0  0  0  0
  -23.8521  -28.0915   16.4289 C   0  0  0  0  0  0  0  0  0  0  0  0
  -21.4818  -28.2401   17.1919 C   0  0  0  0  0  0  0  0  0  0  0  0
  -23.7565  -34.6972   17.1406 C   0  0  0  0  0  0  0  0  0  0  0  0
  -29.8421  -31.1117   24.6045 C   0  0  0  0  0  0  0  0  0  0  0  0
  -23.1906  -29.8469   18.1353 C   0  0  1  0  0  0  0  0  0  0  0  0
  -23.3244  -32.7242   15.6710 C   0  0  2  0  0  0  0  0  0  0  0  0
  -28.9818  -32.3391   24.3220 C   0  0  2  0  0  0  0  0  0  1  0  0
  -22.9502  -28.3911   17.6453 C   0  0  0  0  0  0  0  0  0  0  0  0
  -24.4017  -12.6852   20.5214 N   0  0  0  0  0  0  0  0  0  0  0  0
  -25.4637  -13.5045   20.6054 N   0  0  0  0  0  0  0  0  0  0  0  0
  -23.0518  -30.5583   20.5015 N   0  0  0  0  0  0  0  0  0  0  0  0
  -24.7863  -17.2578   20.8228 N   0  0  0  0  0  0  0  0  0  0  0  0
  -25.4196  -19.5589   20.9847 N   0  0  0  0  0  0  0  0  0  0  0  0
  -27.7357  -13.5897   21.2699 N   0  0  0  0  0  0  0  0  0  0  0  0
  -26.5511   -9.3220   22.1532 N   0  0  0  0  0  0  0  0  0  0  0  0
  -24.7502  -22.8041   23.5702 N   0  0  0  0  0  0  0  0  0  0  0  0
  -21.2052  -28.7645   22.6791 N   0  0  0  0  0  0  0  0  0  0  0  0
  -22.9064  -30.8690   17.1339 N   0  0  0  0  0  0  0  0  0  0  0  0
  -29.0516  -29.8447   24.4256 N   0  3  0  0  0  0  0  0  0  0  0  0
  -23.9614  -34.0641   15.8123 N   0  3  0  0  0  0  0  0  0  0  0  0
  -28.2709  -10.8357   22.2526 O   0  0  0  0  0  0  0  0  0  0  0  0
  -23.5156  -28.9998   22.8501 O   0  0  0  0  0  0  0  0  0  0  0  0
  -21.1227  -30.1494   19.2574 O   0  0  0  0  0  0  0  0  0  0  0  0
  -25.0233  -31.8157   17.1290 O   0  0  0  0  0  0  0  0  0  0  0  0
  -26.8277  -17.8776   21.6955 O   0  0  0  0  0  0  0  0  0  0  0  0
  -21.5384   -7.0497   21.2902 O   0  0  0  0  0  0  0  0  0  0  0  0
  -28.4429  -32.2327   23.0064 O   0  0  0  0  0  0  0  0  0  1  0  0
  -21.6380   -4.0773   25.9334 F   0  0  0  0  0  0  0  0  0  0  0  0
  -23.8749   -5.8547   22.1594 F   0  0  0  0  0  0  0  0  0  0  0  0
  1  2  1  0  0  0  0
  1  5  2  0  0  0  0
  2  6  2  0  0  0  0
  3  8  2  0  0  0  0
  3 16  1  0  0  0  0
  4  9  1  0  0  0  0
  4 16  2  0  0  0  0
  5 18  1  0  0  0  0
  6 20  1  0  0  0  0
  7 10  2  0  0  0  0
  7 19  1  0  0  0  0
  8 27  1  0  0  0  0
  9 27  2  0  0  0  0
 10 28  1  0  0  0  0
 11 12  2  0  0  0  0
 11 29  1  0  0  0  0
 12 30  1  0  0  0  0
 13 21  1  0  0  0  0
 13 23  2  0  0  0  0
 14 22  1  0  0  0  0
 14 28  2  0  0  0  0
 15 30  2  0  0  0  0
 15 31  1  0  0  0  0
 16 32  1  0  0  0  0
 17 32  1  0  0  0  0
 17 33  2  0  0  0  0
 17 34  1  0  0  0  0
 18 20  2  0  0  0  0
 18 39  1  0  0  0  0
 19 22  2  0  0  0  0
 19 40  1  0  0  0  0
 20 57  1  0  0  0  0
 21 24  2  0  0  0  0
 21 56  1  0  0  0  0
 22 41  1  0  0  0  0
 23 26  1  0  0  0  0
 23 61  1  0  0  0  0
 24 25  1  0  0  0  0
 24 62  1  0  0  0  0
 25 26  2  0  0  0  0
 25 63  1  0  0  0  0
 26 82  1  0  0  0  0
 27 92  1  0  0  0  0
 28 93  1  0  0  0  0
 29 31  2  0  0  0  0
 29 92  1  0  0  0  0
 30 94  1  0  0  0  0
 31 95  1  0  0  0  0
 32 75  2  0  0  0  0
 33 76  1  0  0  0  0
 33 80  1  0  0  0  0
 34 81  1  0  0  0  0
 34 87  2  0  0  0  0
 35 58  1  0  0  0  0
 35 83  1  0  0  0  0
 35 88  2  0  0  0  0
 36 71  1  0  0  0  0
 36 77  1  0  0  0  0
 36 89  2  0  0  0  0
 37 72  1  0  0  0  0
 37 84  1  0  0  0  0
 37 90  2  0  0  0  0
 38 78  1  0  0  0  0
 38 79  1  0  0  0  0
 38 91  2  0  0  0  0
 39 42  1  0  0  0  0
 40 58  1  0  0  0  0
 41 77  1  0  0  0  0
 42 44  1  0  0  0  0
 43 45  1  0  0  0  0
 43 50  1  0  0  0  0
 44 57  1  0  0  0  0
 45 59  1  0  0  0  0
 46 51  1  0  0  0  0
 46 60  1  0  0  0  0
 47 52  1  0  0  0  0
 47 60  1  0  0  0  0
 48 54  1  0  0  0  0
 48 56  1  0  0  0  0
 49 55  1  0  0  0  0
 49 56  1  0  0  0  0
 50 78  1  0  0  0  0
 51 79  1  0  0  0  0
 52 79  1  0  0  0  0
 53 59  1  0  0  0  0
 53 78  1  0  0  0  0
 54 85  1  0  0  0  0
 55 85  1  0  0  0  0
 57 83  1  0  0  0  0
 58 77  1  0  0  0  0
 59 76  1  0  0  0  0
 60 82  1  0  0  0  0
 64 72  1  0  0  0  0
 65 73  1  0  0  0  0
 66 74  1  0  0  0  0
 67 74  1  0  0  0  0
 68 74  1  0  0  0  0
 69 86  1  0  0  0  0
 70 73  1  0  0  0  0
 70 85  1  0  0  0  0
 71 74  1  0  0  0  0
 71 84  1  0  0  0  0
 72 86  1  0  0  0  0
 73 93  1  0  0  0  0
 75 76  1  0  0  0  0
M  CHG  2  85   1  86   1
M  ISO  4  38 100  73 101  79 100  93 101
M  END
> <Batch ID>
0156

> <Smiles>
CNC(C)C(=O)NC(C(=O)N1Cc2cc([101O:1][101CH:1](C)CN3CCC(c4cc(C)c(NC5CC[100N:0]([100C:0](=O)N6CCCC(n7nc(-c8ccc(Oc9ccc(F)cc9F)cc8)c(C(N)=O)c7N)C6)CC5)c(C)c4C)CC3)ccc2CC1C(=O)NC1CCCc2ccccc21)C(C)(C)C

> <Shape>
0.234

> <Color>
0.103

> <Negative vol penalty>
0.000

$$$$

  -OEChem-04052321563D

 85 94  0     1  0  0  0  0  0999 V2000
  -25.3647  -28.9483   20.3445 C   0  0  0  0  0  0  0  0  0  0  0  0
  -24.9852  -27.7607   19.7272 C   0  0  0  0  0  0  0  0  0  0  0  0
  -24.4104  -27.9185   23.9215 C   0  0  0  0  0  0  0  0  0  0  0  0
  -23.2890  -27.4573   26.0112 C   0  0  0  0  0  0  0  0  0  0  0  0
  -26.7056  -29.1755   20.6514 C   0  0  0  0  0  0  0  0  0  0  0  0
  -25.9468  -26.8001   19.4154 C   0  0  0  0  0  0  0  0  0  0  0  0
  -24.4839  -22.1132   20.6556 C   0  0  0  0  0  0  0  0  0  0  0  0
  -25.2096  -28.8669   24.5597 C   0  0  0  0  0  0  0  0  0  0  0  0
  -24.0883  -28.4057   26.6494 C   0  0  0  0  0  0  0  0  0  0  0  0
  -23.5839  -21.4797   19.7997 C   0  0  0  0  0  0  0  0  0  0  0  0
  -24.9154  -32.0617   25.6232 C   0  0  0  0  0  0  0  0  0  0  0  0
  -25.1009  -33.2875   24.9841 C   0  0  0  0  0  0  0  0  0  0  0  0
  -22.4177  -17.6493   20.8154 C   0  0  0  0  0  0  0  0  0  0  0  0
  -25.4051  -20.2499   18.8047 C   0  0  0  0  0  0  0  0  0  0  0  0
  -27.4842  -32.8956   24.9240 C   0  0  0  0  0  0  0  0  0  0  0  0
  -23.4500  -27.2137   24.6472 C   0  0  0  0  0  0  0  0  0  0  0  0
  -21.7402  -26.4516   22.9142 C   0  0  0  0  0  0  0  0  0  0  0  0
  -27.6827  -28.2131   20.3520 C   0  0  0  0  0  0  0  0  0  0  0  0
  -25.8549  -21.8274   20.5849 C   0  0  0  0  0  0  0  0  0  0  0  0
  -27.3022  -27.0153   19.7174 C   0  0  0  0  0  0  0  0  0  0  0  0
  -22.9586  -16.9061   21.8468 C   0  0  0  0  0  0  0  0  0  0  0  0
  -26.3201  -20.8792   19.6626 C   0  0  0  0  0  0  0  0  0  0  0  0
  -21.9117  -16.9683   19.7102 C   0  0  0  0  0  0  0  0  0  0  0  0
  -25.0486  -29.1105   25.9236 C   0  0  0  0  0  0  0  0  0  0  0  0
  -24.0448  -20.5500   18.8722 C   0  0  0  0  0  0  0  0  0  0  0  0
  -26.0143  -31.2528   25.9128 C   0  0  0  0  0  0  0  0  0  0  0  0
  -26.3852  -33.7045   24.6344 C   0  0  0  0  0  0  0  0  0  0  0  0
  -27.2987  -31.6698   25.5632 C   0  0  0  0  0  0  0  0  0  0  0  0
  -22.6237  -26.2342   23.9884 C   0  0  0  0  0  0  0  0  0  0  0  0
  -22.9935  -15.5192   21.7262 C   0  0  0  0  0  0  0  0  0  0  0  0
  -21.9876  -15.5761   19.6900 C   0  0  0  0  0  0  0  0  0  0  0  0
  -21.2003  -25.2149   22.6581 C   0  0  0  0  0  0  0  0  0  0  0  0
  -21.4348  -27.6631   22.2108 C   0  0  0  0  0  0  0  0  0  0  0  0
  -28.4672  -23.5151   19.9281 C   0  0  0  0  0  0  0  0  0  0  0  0
  -29.9791  -20.7717   20.7710 C   0  0  0  0  0  0  0  0  0  0  0  0
  -29.8437  -17.3801   21.1247 C   0  0  0  0  0  0  0  0  0  0  0  0
  -23.2483  -19.7579   23.5975 C   0  0  0  0  0  0  0  0  0  0  0  0
  -29.1261  -28.5238   20.6601 C   0  0  0  0  0  0  0  0  0  0  0  0
  -26.8094  -22.4996   21.5333 C   0  0  0  0  0  0  0  0  0  0  0  0
  -27.7797  -20.5220   19.5603 C   0  0  0  0  0  0  0  0  0  0  0  0
  -23.6739  -14.8965   22.9121 C   0  0  0  0  0  0  0  0  0  0  0  0
  -30.0321  -27.2955   20.6361 C   0  0  0  0  0  0  0  0  0  0  0  0
  -23.5784  -16.0396   23.9337 C   0  0  0  0  0  0  0  0  0  0  0  0
  -20.1098  -21.0848   24.8168 C   0  0  0  0  0  0  0  0  0  0  0  0
  -29.7569  -26.4534   19.3943 C   0  0  0  0  0  0  0  0  0  0  0  0
  -20.3243  -22.5885   24.6354 C   0  0  0  0  0  0  0  0  0  0  0  0
  -21.3957  -20.3922   25.2583 C   0  0  0  0  0  0  0  0  0  0  0  0
  -22.7755  -22.1218   24.1728 C   0  0  0  0  0  0  0  0  0  0  0  0
  -28.3125  -25.9385   19.3859 C   0  0  1  0  0  0  0  0  0  0  0  0
  -23.6064  -17.3493   23.1209 C   0  0  2  0  0  0  0  0  0  0  0  0
  -28.2477  -22.5117   21.0248 C   0  0  1  0  0  0  0  0  0  0  0  0
  -21.5176  -22.8761   23.7050 C   0  0  2  0  0  0  0  0  0  0  0  0
  -31.2479  -15.4120   21.7973 C   0  0  0  0  0  0  0  0  0  0  0  0
  -31.4371  -20.9001   18.0938 C   0  0  0  0  0  0  0  0  0  0  0  0
  -32.0689  -18.4971   18.4018 C   0  0  0  0  0  0  0  0  0  0  0  0
  -32.8659  -20.2128   20.0279 C   0  0  0  0  0  0  0  0  0  0  0  0
  -28.0252  -16.6985   23.3579 C   0  0  0  0  0  0  0  0  0  0  0  0
  -21.6020  -13.4750   18.6449 C   0  0  0  0  0  0  0  0  0  0  0  0
  -21.3039  -17.7406   18.5666 C   0  0  0  0  0  0  0  0  0  0  0  0
  -22.2132  -17.8426   17.3401 C   0  0  0  0  0  0  0  0  0  0  0  0
  -23.5022  -18.6112   17.6062 C   0  0  0  0  0  0  0  0  0  1  0  0
  -30.4311  -19.5316   20.0383 C   0  0  1  0  0  0  0  0  0  0  0  0
  -30.2596  -16.4688   22.2654 C   0  0  2  0  0  0  0  0  0  0  0  0
  -31.6734  -19.7933   19.1408 C   0  0  0  0  0  0  0  0  0  0  0  0
  -22.6467  -24.9598   24.3874 N   0  0  0  0  0  0  0  0  0  0  0  0
  -22.5271  -14.8218   20.6768 N   0  0  0  0  0  0  0  0  0  0  0  0
  -21.7709  -24.3652   23.5595 N   0  0  0  0  0  0  0  0  0  0  0  0
  -28.6744  -21.2109   20.5050 N   0  0  0  0  0  0  0  0  0  0  0  0
  -22.4871  -20.6913   24.3205 N   0  0  0  0  0  0  0  0  0  0  0  0
  -20.2979  -24.7823   21.7520 N   0  0  0  0  0  0  0  0  0  0  0  0
  -20.3816  -28.4604   22.6794 N   0  0  0  0  0  0  0  0  0  0  0  0
  -28.1709  -24.8159   20.2882 N   0  0  0  0  0  0  0  0  0  0  0  0
  -30.6350  -18.5072   21.0569 N   0  0  0  0  0  0  0  0  0  0  0  0
  -22.9164  -18.4238   23.7992 N   0  0  0  0  0  0  0  0  0  0  0  0
  -29.0691  -15.7785   22.8373 N   0  3  0  0  0  0  0  0  0  0  0  0
  -22.0662  -28.0195   21.1872 O   0  0  0  0  0  0  0  0  0  0  0  0
  -28.8765  -23.1373   18.8366 O   0  0  0  0  0  0  0  0  0  0  0  0
  -30.7525  -21.3261   21.5560 O   0  0  0  0  0  0  0  0  0  0  0  0
  -28.9126  -17.1163   20.3670 O   0  0  0  0  0  0  0  0  0  0  0  0
  -24.1538  -20.0893   22.8245 O   0  0  0  0  0  0  0  0  0  0  0  0
  -25.8285  -30.0357   26.5468 O   0  0  0  0  0  0  0  0  0  0  0  0
  -23.1686  -19.9307   18.0352 O   0  0  0  0  0  0  0  0  0  1  0  0
  -21.4959  -14.8924   18.6071 O   0  0  0  0  0  0  0  0  0  0  0  0
  -26.5631  -34.8809   24.0192 F   0  0  0  0  0  0  0  0  0  0  0  0
  -28.3581  -30.8964   25.8377 F   0  0  0  0  0  0  0  0  0  0  0  0
  1  2  1  0  0  0  0
  1  5  2  0  0  0  0
  2  6  2  0  0  0  0
  3  8  2  0  0  0  0
  3 16  1  0  0  0  0
  4  9  1  0  0  0  0
  4 16  2  0  0  0  0
  5 18  1  0  0  0  0
  6 20  1  0  0  0  0
  7 10  2  0  0  0  0
  7 19  1  0  0  0  0
  8 24  1  0  0  0  0
  9 24  2  0  0  0  0
 10 25  1  0  0  0  0
 11 12  2  0  0  0  0
 11 26  1  0  0  0  0
 12 27  1  0  0  0  0
 13 21  2  0  0  0  0
 13 23  1  0  0  0  0
 14 22  1  0  0  0  0
 14 25  2  0  0  0  0
 15 27  2  0  0  0  0
 15 28  1  0  0  0  0
 16 29  1  0  0  0  0
 17 29  1  0  0  0  0
 17 32  2  0  0  0  0
 17 33  1  0  0  0  0
 18 20  2  0  0  0  0
 18 38  1  0  0  0  0
 19 22  2  0  0  0  0
 19 39  1  0  0  0  0
 20 49  1  0  0  0  0
 21 30  1  0  0  0  0
 21 50  1  0  0  0  0
 22 40  1  0  0  0  0
 23 31  2  0  0  0  0
 23 59  1  0  0  0  0
 24 81  1  0  0  0  0
 25 82  1  0  0  0  0
 26 28  2  0  0  0  0
 26 81  1  0  0  0  0
 27 84  1  0  0  0  0
 28 85  1  0  0  0  0
 29 65  2  0  0  0  0
 30 41  1  0  0  0  0
 30 66  2  0  0  0  0
 31 66  1  0  0  0  0
 31 83  1  0  0  0  0
 32 67  1  0  0  0  0
 32 70  1  0  0  0  0
 33 71  1  0  0  0  0
 33 76  2  0  0  0  0
 34 51  1  0  0  0  0
 34 72  1  0  0  0  0
 34 77  2  0  0  0  0
 35 62  1  0  0  0  0
 35 68  1  0  0  0  0
 35 78  2  0  0  0  0
 36 63  1  0  0  0  0
 36 73  1  0  0  0  0
 36 79  2  0  0  0  0
 37 69  1  0  0  0  0
 37 74  1  0  0  0  0
 37 80  2  0  0  0  0
 38 42  1  0  0  0  0
 39 51  1  0  0  0  0
 40 68  1  0  0  0  0
 41 43  1  0  0  0  0
 42 45  1  0  0  0  0
 43 50  1  0  0  0  0
 44 46  1  0  0  0  0
 44 47  1  0  0  0  0
 45 49  1  0  0  0  0
 46 52  1  0  0  0  0
 47 69  1  0  0  0  0
 48 52  1  0  0  0  0
 48 69  1  0  0  0  0
 49 72  1  0  0  0  0
 50 74  1  0  0  0  0
 51 68  1  0  0  0  0
 52 67  1  0  0  0  0
 53 63  1  0  0  0  0
 54 64  1  0  0  0  0
 55 64  1  0  0  0  0
 56 64  1  0  0  0  0
 57 75  1  0  0  0  0
 58 83  1  0  0  0  0
 59 60  1  0  0  0  0
 60 61  1  0  0  0  0
 61 82  1  0  0  0  0
 62 64  1  0  0  0  0
 62 73  1  0  0  0  0
 63 75  1  0  0  0  0
 65 67  1  0  0  0  0
M  CHG  1  75   1
M  ISO  4  37 100  61 101  74 100  82 101
M  END
> <Batch ID>
0156

> <Smiles>
CNC(C)C(=O)NC(C(=O)N1Cc2cc([101O:1][101CH2:1]CCc3cc4c(nc3OC)CCC4[100NH:0][100C:0](=O)N3CCCC(n4nc(-c5ccc(Oc6ccc(F)cc6F)cc5)c(C(N)=O)c4N)C3)ccc2CC1C(=O)NC1CCCc2ccccc21)C(C)(C)C

> <Shape>
0.213

> <Color>
0.055

> <Negative vol penalty>
0.000

$$$$

  -OEChem-04052321563D

 92102  0     1  0  0  0  0  0999 V2000
  -13.1584  -29.3337   23.0862 C   0  0  0  0  0  0  0  0  0  0  0  0
  -13.7510  -28.7861   21.9529 C   0  0  0  0  0  0  0  0  0  0  0  0
  -30.5473  -22.9394   21.2152 C   0  0  0  0  0  0  0  0  0  0  0  0
  -29.2142  -22.6602   19.2197 C   0  0  0  0  0  0  0  0  0  0  0  0
  -13.9547  -29.8610   24.1020 C   0  0  0  0  0  0  0  0  0  0  0  0
  -15.1403  -28.7664   21.8343 C   0  0  0  0  0  0  0  0  0  0  0  0
  -18.7037  -22.5613   21.0041 C   0  0  0  0  0  0  0  0  0  0  0  0
  -31.0436  -24.1432   20.7153 C   0  0  0  0  0  0  0  0  0  0  0  0
  -29.7105  -23.8641   18.7198 C   0  0  0  0  0  0  0  0  0  0  0  0
  -19.4391  -21.4358   20.6317 C   0  0  0  0  0  0  0  0  0  0  0  0
  -33.3738  -25.1391   18.4786 C   0  0  0  0  0  0  0  0  0  0  0  0
  -34.7454  -25.3687   18.5871 C   0  0  0  0  0  0  0  0  0  0  0  0
  -21.4791  -22.7326   20.7009 C   0  0  0  0  0  0  0  0  0  0  0  0
  -24.8477  -12.6194   20.8960 C   0  0  0  0  0  0  0  0  0  0  0  0
  -23.7999  -10.5144   20.3412 C   0  0  0  0  0  0  0  0  0  0  0  0
  -25.7174  -11.2774   19.0850 C   0  0  0  0  0  0  0  0  0  0  0  0
  -34.3102  -27.3406   19.9136 C   0  0  0  0  0  0  0  0  0  0  0  0
  -29.6326  -22.1978   20.4674 C   0  0  0  0  0  0  0  0  0  0  0  0
  -28.3940  -20.7620   22.1739 C   0  0  0  0  0  0  0  0  0  0  0  0
  -15.3546  -29.8391   24.0002 C   0  0  0  0  0  0  0  0  0  0  0  0
  -19.3559  -23.7744   21.2415 C   0  0  0  0  0  0  0  0  0  0  0  0
  -15.9559  -29.2951   22.8491 C   0  0  0  0  0  0  0  0  0  0  0  0
  -20.7492  -23.8602   21.0862 C   0  0  0  0  0  0  0  0  0  0  0  0
  -23.8593  -11.6634   21.1298 C   0  0  0  0  0  0  0  0  0  0  0  0
  -25.7768  -12.4264   19.8735 C   0  0  0  0  0  0  0  0  0  0  0  0
  -30.6252  -24.6056   19.4676 C   0  0  0  0  0  0  0  0  0  0  0  0
  -20.8233  -21.5214   20.4803 C   0  0  0  0  0  0  0  0  0  0  0  0
  -32.4705  -26.0102   19.0875 C   0  0  0  0  0  0  0  0  0  0  0  0
  -24.7290  -10.3213   19.3188 C   0  0  0  0  0  0  0  0  0  0  0  0
  -35.2136  -26.4694   19.3046 C   0  0  0  0  0  0  0  0  0  0  0  0
  -32.9387  -27.1109   19.8050 C   0  0  0  0  0  0  0  0  0  0  0  0
  -29.1200  -20.9539   20.9831 C   0  0  0  0  0  0  0  0  0  0  0  0
  -28.1428  -19.4122   22.2092 C   0  0  0  0  0  0  0  0  0  0  0  0
  -27.9835  -21.7185   23.1600 C   0  0  0  0  0  0  0  0  0  0  0  0
  -19.0554  -27.3806   22.2319 C   0  0  0  0  0  0  0  0  0  0  0  0
  -21.5683  -26.2850   23.6085 C   0  0  0  0  0  0  0  0  0  0  0  0
  -24.0137  -24.5860   25.2731 C   0  0  0  0  0  0  0  0  0  0  0  0
  -26.5704  -14.7837   19.9076 C   0  0  0  0  0  0  0  0  0  0  0  0
  -16.1725  -30.4637   25.1027 C   0  0  0  0  0  0  0  0  0  0  0  0
  -18.5969  -25.0274   21.5845 C   0  0  0  0  0  0  0  0  0  0  0  0
  -21.4042  -25.1944   21.3185 C   0  0  0  0  0  0  0  0  0  0  0  0
  -17.6458  -30.0654   25.0685 C   0  0  0  0  0  0  0  0  0  0  0  0
  -29.9842  -15.6351   19.4071 C   0  0  0  0  0  0  0  0  0  0  0  0
  -18.1968  -30.1792   23.6507 C   0  0  0  0  0  0  0  0  0  0  0  0
  -20.2586  -16.9153   19.6505 C   0  0  0  0  0  0  0  0  0  0  0  0
  -21.5959  -17.0419   21.7933 C   0  0  0  0  0  0  0  0  0  0  0  0
  -30.0038  -17.0931   19.8645 C   0  0  0  0  0  0  0  0  0  0  0  0
  -29.3720  -13.2441   19.4334 C   0  0  0  0  0  0  0  0  0  0  0  0
  -28.8307  -11.8524   19.2953 C   0  0  0  0  0  0  0  0  0  0  0  0
  -20.7111  -18.3268   19.2891 C   0  0  0  0  0  0  0  0  0  0  0  0
  -22.0442  -18.4534   21.4262 C   0  0  0  0  0  0  0  0  0  0  0  0
  -28.7122  -15.2960   18.6290 C   0  0  0  0  0  0  0  0  0  0  0  0
  -27.4806  -17.0919   19.8046 C   0  0  0  0  0  0  0  0  0  0  0  0
  -17.4601  -29.2331   22.6949 C   0  0  1  0  0  0  0  0  0  0  0  0
  -19.3582  -25.9472   22.5560 C   0  0  1  0  0  0  0  0  0  0  0  0
  -21.2839  -16.2048   20.5450 C   0  0  0  0  0  0  0  0  0  0  0  0
  -28.7215  -17.4464   20.6385 C   0  0  2  0  0  0  0  0  0  0  0  0
  -27.9912  -13.0283   18.8769 C   0  0  0  0  0  0  0  0  0  0  0  0
  -21.0236  -19.1549   20.5326 C   0  0  0  0  0  0  0  0  0  1  0  0
  -25.8531  -24.9188   26.9473 C   0  0  0  0  0  0  0  0  0  0  0  0
  -23.2902  -27.5853   21.4525 C   0  0  0  0  0  0  0  0  0  0  0  0
  -25.3073  -27.0255   22.8259 C   0  0  0  0  0  0  0  0  0  0  0  0
  -23.5664  -28.5616   23.7383 C   0  0  0  0  0  0  0  0  0  0  0  0
  -22.7711  -22.7007   27.1864 C   0  0  0  0  0  0  0  0  0  0  0  0
  -25.6513   -9.0665   17.5215 C   0  0  0  0  0  0  0  0  0  0  0  0
  -22.8591  -11.8711   22.2300 C   0  0  0  0  0  0  0  0  0  0  0  0
  -20.7855  -14.8154   20.9382 C   0  0  0  0  0  0  0  0  0  0  0  0
  -21.6018  -12.6133   21.7884 C   0  0  0  0  0  0  0  0  0  0  0  0
  -23.0623  -26.0916   23.5461 C   0  0  1  0  0  0  0  0  0  0  0  0
  -24.3925  -24.5481   26.7426 C   0  0  2  0  0  0  0  0  0  0  0  0
  -23.7886  -27.2956   22.8825 C   0  0  0  0  0  0  0  0  0  0  0  0
  -29.3172  -19.8169   20.3106 N   0  0  0  0  0  0  0  0  0  0  0  0
  -28.7116  -18.8976   21.0814 N   0  0  0  0  0  0  0  0  0  0  0  0
  -20.8261  -25.8374   22.5088 N   0  0  0  0  0  0  0  0  0  0  0  0
  -27.5168  -15.6878   19.3888 N   0  0  0  0  0  0  0  0  0  0  0  0
  -27.4930  -18.6271   23.0945 N   0  0  0  0  0  0  0  0  0  0  0  0
  -26.7388  -22.3442   23.0064 N   0  0  0  0  0  0  0  0  0  0  0  0
  -17.9311  -27.8753   22.8650 N   0  0  0  0  0  0  0  0  0  0  0  0
  -23.4950  -25.8111   24.9108 N   0  0  0  0  0  0  0  0  0  0  0  0
  -26.8009  -13.4167   19.6309 N   0  0  0  0  0  0  0  0  0  0  0  0
  -24.1715  -23.1836   27.2995 N   0  3  0  0  0  0  0  0  0  0  0  0
  -21.9463  -13.9876   21.3236 N   0  3  0  0  0  0  0  0  0  0  0  0
  -28.7063  -22.0218   24.1393 O   0  0  0  0  0  0  0  0  0  0  0  0
  -19.7880  -27.9944   21.4650 O   0  0  0  0  0  0  0  0  0  0  0  0
  -21.0708  -26.8231   24.6015 O   0  0  0  0  0  0  0  0  0  0  0  0
  -24.1663  -23.6261   24.5209 O   0  0  0  0  0  0  0  0  0  0  0  0
  -25.5804  -15.1692   20.5410 O   0  0  0  0  0  0  0  0  0  0  0  0
  -31.1092  -25.7804   18.9795 O   0  0  0  0  0  0  0  0  0  0  0  0
  -21.5356  -20.4176   20.1209 O   0  0  0  0  0  0  0  0  0  1  0  0
  -24.6707   -9.2004   18.5492 O   0  0  0  0  0  0  0  0  0  0  0  0
  -36.5307  -26.6890   19.4100 F   0  0  0  0  0  0  0  0  0  0  0  0
  -32.0757  -27.9507   20.3932 F   0  0  0  0  0  0  0  0  0  0  0  0
  1  2  1  0  0  0  0
  1  5  2  0  0  0  0
  2  6  2  0  0  0  0
  3  8  2  0  0  0  0
  3 18  1  0  0  0  0
  4  9  1  0  0  0  0
  4 18  2  0  0  0  0
  5 20  1  0  0  0  0
  6 22  1  0  0  0  0
  7 10  2  0  0  0  0
  7 21  1  0  0  0  0
  8 26  1  0  0  0  0
  9 26  2  0  0  0  0
 10 27  1  0  0  0  0
 11 12  2  0  0  0  0
 11 28  1  0  0  0  0
 12 30  1  0  0  0  0
 13 23  1  0  0  0  0
 13 27  2  0  0  0  0
 14 24  2  0  0  0  0
 14 25  1  0  0  0  0
 15 24  1  0  0  0  0
 15 29  2  0  0  0  0
 16 25  2  0  0  0  0
 16 29  1  0  0  0  0
 17 30  2  0  0  0  0
 17 31  1  0  0  0  0
 18 32  1  0  0  0  0
 19 32  1  0  0  0  0
 19 33  2  0  0  0  0
 19 34  1  0  0  0  0
 20 22  2  0  0  0  0
 20 39  1  0  0  0  0
 21 23  2  0  0  0  0
 21 40  1  0  0  0  0
 22 54  1  0  0  0  0
 23 41  1  0  0  0  0
 24 66  1  0  0  0  0
 25 80  1  0  0  0  0
 26 88  1  0  0  0  0
 27 89  1  0  0  0  0
 28 31  2  0  0  0  0
 28 88  1  0  0  0  0
 29 90  1  0  0  0  0
 30 91  1  0  0  0  0
 31 92  1  0  0  0  0
 32 72  2  0  0  0  0
 33 73  1  0  0  0  0
 33 76  1  0  0  0  0
 34 77  1  0  0  0  0
 34 83  2  0  0  0  0
 35 55  1  0  0  0  0
 35 78  1  0  0  0  0
 35 84  2  0  0  0  0
 36 69  1  0  0  0  0
 36 74  1  0  0  0  0
 36 85  2  0  0  0  0
 37 70  1  0  0  0  0
 37 79  1  0  0  0  0
 37 86  2  0  0  0  0
 38 75  1  0  0  0  0
 38 80  1  0  0  0  0
 38 87  2  0  0  0  0
 39 42  1  0  0  0  0
 40 55  1  0  0  0  0
 41 74  1  0  0  0  0
 42 44  1  0  0  0  0
 43 47  1  0  0  0  0
 43 52  1  0  0  0  0
 44 54  1  0  0  0  0
 45 50  1  0  0  0  0
 45 56  1  0  0  0  0
 46 51  1  0  0  0  0
 46 56  1  0  0  0  0
 47 57  1  0  0  0  0
 48 49  1  0  0  0  0
 48 58  1  0  0  0  0
 49 58  1  0  0  0  0
 50 59  1  0  0  0  0
 51 59  1  0  0  0  0
 52 75  1  0  0  0  0
 53 57  1  0  0  0  0
 53 75  1  0  0  0  0
 54 78  1  0  0  0  0
 55 74  1  0  0  0  0
 56 67  1  0  0  0  0
 57 73  1  0  0  0  0
 58 80  1  0  0  0  0
 59 89  1  0  0  0  0
 60 70  1  0  0  0  0
 61 71  1  0  0  0  0
 62 71  1  0  0  0  0
 63 71  1  0  0  0  0
 64 81  1  0  0  0  0
 65 90  1  0  0  0  0
 66 68  1  0  0  0  0
 67 82  1  0  0  0  0
 68 82  1  0  0  0  0
 69 71  1  0  0  0  0
 69 79  1  0  0  0  0
 70 81  1  0  0  0  0
 72 73  1  0  0  0  0
M  CHG  2  81   1  82   1
M  ISO  4  38 100  59 101  80 100  89 101
M  END
> <Batch ID>
0156

> <Smiles>
CNC(C)C(=O)NC(C(=O)N1Cc2cc([101O:1][101CH:1]3CCC(CNCCc4cc(OC)cc([100N:0](C5CC5)[100C:0](=O)N5CCCC(n6nc(-c7ccc(Oc8ccc(F)cc8F)cc7)c(C(N)=O)c6N)C5)c4)CC3)ccc2CC1C(=O)NC1CCCc2ccccc21)C(C)(C)C

> <Shape>
0.227

> <Color>
0.049

> <Negative vol penalty>
0.000

$$$$

  -OEChem-04052321563D

 89 98  0     1  0  0  0  0  0999 V2000
  -29.1998  -18.4398   18.9270 C   0  0  0  0  0  0  0  0  0  0  0  0
  -28.1916  -19.3454   18.6129 C   0  0  0  0  0  0  0  0  0  0  0  0
  -24.5547  -14.1315   23.4679 C   0  0  0  0  0  0  0  0  0  0  0  0
  -24.8951  -15.6029   21.5822 C   0  0  0  0  0  0  0  0  0  0  0  0
  -30.0434  -18.6853   20.0096 C   0  0  0  0  0  0  0  0  0  0  0  0
  -28.0257  -20.4968   19.3819 C   0  0  0  0  0  0  0  0  0  0  0  0
  -26.0080  -27.3468   18.8144 C   0  0  0  0  0  0  0  0  0  0  0  0
  -25.1563  -13.0890   22.7631 C   0  0  0  0  0  0  0  0  0  0  0  0
  -25.4968  -14.5604   20.8773 C   0  0  0  0  0  0  0  0  0  0  0  0
  -25.1295  -28.2623   19.3922 C   0  0  0  0  0  0  0  0  0  0  0  0
  -27.4471  -12.3834   18.7151 C   0  0  0  0  0  0  0  0  0  0  0  0
  -28.6273  -12.6618   18.0260 C   0  0  0  0  0  0  0  0  0  0  0  0
  -26.6964  -28.6216   21.1908 C   0  0  0  0  0  0  0  0  0  0  0  0
  -18.0894  -27.5485   22.2355 C   0  0  0  0  0  0  0  0  0  0  0  0
  -29.6877  -13.3014   20.1005 C   0  0  0  0  0  0  0  0  0  0  0  0
  -24.4240  -15.3884   22.8774 C   0  0  0  0  0  0  0  0  0  0  0  0
  -24.4349  -17.3992   24.4473 C   0  0  0  0  0  0  0  0  0  0  0  0
  -29.8939  -19.8450   20.7864 C   0  0  0  0  0  0  0  0  0  0  0  0
  -27.2347  -27.0532   19.4272 C   0  0  0  0  0  0  0  0  0  0  0  0
  -28.8672  -20.7574   20.4767 C   0  0  0  0  0  0  0  0  0  0  0  0
  -27.5899  -27.7039   20.6174 C   0  0  0  0  0  0  0  0  0  0  0  0
  -19.7644  -25.8954   22.7820 C   0  0  0  0  0  0  0  0  0  0  0  0
  -18.9628  -28.5630   22.6272 C   0  0  0  0  0  0  0  0  0  0  0  0
  -20.6379  -26.9100   23.1737 C   0  0  0  0  0  0  0  0  0  0  0  0
  -20.2370  -28.2438   23.0962 C   0  0  0  0  0  0  0  0  0  0  0  0
  -25.6274  -13.3034   21.4678 C   0  0  0  0  0  0  0  0  0  0  0  0
  -25.4724  -28.8977   20.5821 C   0  0  0  0  0  0  0  0  0  0  0  0
  -27.3870  -12.5640   20.0970 C   0  0  0  0  0  0  0  0  0  0  0  0
  -18.4902  -26.2147   22.3130 C   0  0  0  0  0  0  0  0  0  0  0  0
  -29.7477  -13.1208   18.7186 C   0  0  0  0  0  0  0  0  0  0  0  0
  -28.5074  -13.0230   20.7896 C   0  0  0  0  0  0  0  0  0  0  0  0
  -23.8021  -16.4656   23.6048 C   0  0  0  0  0  0  0  0  0  0  0  0
  -23.4163  -18.2061   24.8919 C   0  0  0  0  0  0  0  0  0  0  0  0
  -25.8197  -17.5258   24.7966 C   0  0  0  0  0  0  0  0  0  0  0  0
  -28.5630  -24.4359   20.6473 C   0  0  0  0  0  0  0  0  0  0  0  0
  -31.1564  -26.3617   20.9436 C   0  0  0  0  0  0  0  0  0  0  0  0
  -32.3968  -29.5293   21.2166 C   0  0  0  0  0  0  0  0  0  0  0  0
  -18.7925  -21.1580   23.8896 C   0  0  0  0  0  0  0  0  0  0  0  0
  -30.7999  -20.0439   21.9757 C   0  0  0  0  0  0  0  0  0  0  0  0
  -28.1829  -26.0833   18.7771 C   0  0  0  0  0  0  0  0  0  0  0  0
  -28.9037  -27.4389   21.3045 C   0  0  0  0  0  0  0  0  0  0  0  0
  -30.7959  -21.4730   22.5121 C   0  0  0  0  0  0  0  0  0  0  0  0
  -18.4123  -17.7083   24.5512 C   0  0  0  0  0  0  0  0  0  0  0  0
  -29.3671  -21.9920   22.6381 C   0  0  0  0  0  0  0  0  0  0  0  0
  -19.8206  -17.1392   24.4025 C   0  0  0  0  0  0  0  0  0  0  0  0
  -20.1547  -23.6385   21.5559 C   0  0  0  0  0  0  0  0  0  0  0  0
  -18.1583  -18.7997   23.5201 C   0  0  0  0  0  0  0  0  0  0  0  0
  -20.2311  -22.1972   22.0417 C   0  0  0  0  0  0  0  0  0  0  0  0
  -19.3203  -23.5748   23.7781 C   0  0  0  0  0  0  0  0  0  0  0  0
  -20.5669  -19.3877   23.4644 C   0  0  0  0  0  0  0  0  0  0  0  0
  -20.1919  -24.4466   22.8632 C   0  0  2  0  0  0  0  0  0  0  0  0
  -28.6714  -22.0299   21.2720 C   0  0  1  0  0  0  0  0  0  0  0  0
  -29.1820  -25.4764   19.7574 C   0  0  1  0  0  0  0  0  0  0  0  0
  -20.8684  -18.2608   24.4739 C   0  0  2  0  0  0  0  0  0  0  0  0
  -18.5080  -29.9829   22.5353 C   0  0  0  0  0  0  0  0  0  0  0  0
  -22.0047  -26.5670   23.6764 C   0  0  0  0  0  0  0  0  0  0  0  0
  -34.5537  -30.7842   21.4823 C   0  0  0  0  0  0  0  0  0  0  0  0
  -31.2498  -25.5726   23.8896 C   0  0  0  0  0  0  0  0  0  0  0  0
  -32.7642  -27.5252   24.2927 C   0  0  0  0  0  0  0  0  0  0  0  0
  -33.4826  -25.6857   22.7686 C   0  0  0  0  0  0  0  0  0  0  0  0
  -32.0174  -30.9558   18.6515 C   0  0  0  0  0  0  0  0  0  0  0  0
  -16.3419  -25.6553   21.4598 C   0  0  0  0  0  0  0  0  0  0  0  0
  -21.1718  -29.3344   23.5149 C   0  0  0  0  0  0  0  0  0  0  0  0
  -24.6486  -29.9104   22.5700 C   0  0  0  0  0  0  0  0  0  1  0  0
  -23.2707  -30.2948   23.0732 C   0  0  0  0  0  0  0  0  0  0  0  0
  -31.6818  -27.2907   22.0114 C   0  0  1  0  0  0  0  0  0  0  0  0
  -33.5352  -30.2307   20.4979 C   0  0  2  0  0  0  0  0  0  0  0  0
  -32.2689  -26.5223   23.2289 C   0  0  0  0  0  0  0  0  0  0  0  0
  -22.4835  -16.6602   23.5180 N   0  0  0  0  0  0  0  0  0  0  0  0
  -22.2795  -17.7253   24.3117 N   0  0  0  0  0  0  0  0  0  0  0  0
  -29.7941  -26.4778   20.6331 N   0  0  0  0  0  0  0  0  0  0  0  0
  -19.1773  -19.8495   23.5770 N   0  0  0  0  0  0  0  0  0  0  0  0
  -19.5119  -22.2045   23.3138 N   0  0  0  0  0  0  0  0  0  0  0  0
  -23.3910  -19.2729   25.7188 N   0  0  0  0  0  0  0  0  0  0  0  0
  -26.7327  -16.6134   24.2503 N   0  0  0  0  0  0  0  0  0  0  0  0
  -29.1162  -23.1770   20.5100 N   0  0  0  0  0  0  0  0  0  0  0  0
  -32.6326  -28.1773   21.3493 N   0  0  0  0  0  0  0  0  0  0  0  0
  -33.0124  -31.3600   19.6779 N   0  3  0  0  0  0  0  0  0  0  0  0
  -26.2329  -18.4114   25.5830 O   0  0  0  0  0  0  0  0  0  0  0  0
  -27.6522  -24.7520   21.4036 O   0  0  0  0  0  0  0  0  0  0  0  0
  -31.9280  -25.5675   20.4000 O   0  0  0  0  0  0  0  0  0  0  0  0
  -31.4000  -30.1222   21.6233 O   0  0  0  0  0  0  0  0  0  0  0  0
  -17.8191  -21.3844   24.6210 O   0  0  0  0  0  0  0  0  0  0  0  0
  -26.2148  -12.2864   20.7798 O   0  0  0  0  0  0  0  0  0  0  0  0
  -17.6233  -25.2374   21.9259 O   0  0  0  0  0  0  0  0  0  0  0  0
  -24.6106  -29.7972   21.1525 O   0  0  0  0  0  0  0  0  0  1  0  0
  -22.3453  -29.2769   22.7160 O   0  0  0  0  0  0  0  0  0  0  0  0
  -30.8815  -13.3866   18.0569 F   0  0  0  0  0  0  0  0  0  0  0  0
  -28.4562  -13.1974   22.1173 F   0  0  0  0  0  0  0  0  0  0  0  0
  1  2  1  0  0  0  0
  1  5  2  0  0  0  0
  2  6  2  0  0  0  0
  3  8  2  0  0  0  0
  3 16  1  0  0  0  0
  4  9  1  0  0  0  0
  4 16  2  0  0  0  0
  5 18  1  0  0  0  0
  6 20  1  0  0  0  0
  7 10  2  0  0  0  0
  7 19  1  0  0  0  0
  8 26  1  0  0  0  0
  9 26  2  0  0  0  0
 10 27  1  0  0  0  0
 11 12  2  0  0  0  0
 11 28  1  0  0  0  0
 12 30  1  0  0  0  0
 13 21  1  0  0  0  0
 13 27  2  0  0  0  0
 14 23  2  0  0  0  0
 14 29  1  0  0  0  0
 15 30  2  0  0  0  0
 15 31  1  0  0  0  0
 16 32  1  0  0  0  0
 17 32  1  0  0  0  0
 17 33  2  0  0  0  0
 17 34  1  0  0  0  0
 18 20  2  0  0  0  0
 18 39  1  0  0  0  0
 19 21  2  0  0  0  0
 19 40  1  0  0  0  0
 20 52  1  0  0  0  0
 21 41  1  0  0  0  0
 22 24  1  0  0  0  0
 22 29  2  0  0  0  0
 22 51  1  0  0  0  0
 23 25  1  0  0  0  0
 23 55  1  0  0  0  0
 24 25  2  0  0  0  0
 24 56  1  0  0  0  0
 25 63  1  0  0  0  0
 26 84  1  0  0  0  0
 27 86  1  0  0  0  0
 28 31  2  0  0  0  0
 28 84  1  0  0  0  0
 29 85  1  0  0  0  0
 30 88  1  0  0  0  0
 31 89  1  0  0  0  0
 32 69  2  0  0  0  0
 33 70  1  0  0  0  0
 33 74  1  0  0  0  0
 34 75  1  0  0  0  0
 34 79  2  0  0  0  0
 35 53  1  0  0  0  0
 35 76  1  0  0  0  0
 35 80  2  0  0  0  0
 36 66  1  0  0  0  0
 36 71  1  0  0  0  0
 36 81  2  0  0  0  0
 37 67  1  0  0  0  0
 37 77  1  0  0  0  0
 37 82  2  0  0  0  0
 38 72  1  0  0  0  0
 38 73  1  0  0  0  0
 38 83  2  0  0  0  0
 39 42  1  0  0  0  0
 40 53  1  0  0  0  0
 41 71  1  0  0  0  0
 42 44  1  0  0  0  0
 43 45  1  0  0  0  0
 43 47  1  0  0  0  0
 44 52  1  0  0  0  0
 45 54  1  0  0  0  0
 46 48  1  0  0  0  0
 46 51  1  0  0  0  0
 47 72  1  0  0  0  0
 48 73  1  0  0  0  0
 49 51  1  0  0  0  0
 49 73  1  0  0  0  0
 50 54  1  0  0  0  0
 50 72  1  0  0  0  0
 52 76  1  0  0  0  0
 53 71  1  0  0  0  0
 54 70  1  0  0  0  0
 57 67  1  0  0  0  0
 58 68  1  0  0  0  0
 59 68  1  0  0  0  0
 60 68  1  0  0  0  0
 61 78  1  0  0  0  0
 62 85  1  0  0  0  0
 63 87  1  0  0  0  0
 64 65  1  0  0  0  0
 64 86  1  0  0  0  0
 65 87  1  0  0  0  0
 66 68  1  0  0  0  0
 66 77  1  0  0  0  0
 67 78  1  0  0  0  0
 69 70  1  0  0  0  0
M  CHG  1  78   1
M  ISO  4  38 100  64 101  73 100  86 101
M  END
> <Batch ID>
0156

> <Smiles>
CNC(C)C(=O)NC(C(=O)N1Cc2cc([101O:1][101CH2:1]COCc3c(C)cc(OC)c(C4CC[100N:0]([100C:0](=O)N5CCCC(n6nc(-c7ccc(Oc8ccc(F)cc8F)cc7)c(C(N)=O)c6N)C5)C4)c3C)ccc2CC1C(=O)NC1CCCc2ccccc21)C(C)(C)C

> <Shape>
0.255

> <Color>
0.063

> <Negative vol penalty>
0.000

$$$$

  -OEChem-04052321563D

 87 96  0     1  0  0  0  0  0999 V2000
  -25.9771  -19.2387   16.0585 C   0  0  0  0  0  0  0  0  0  0  0  0
  -25.2530  -20.3378   16.5093 C   0  0  0  0  0  0  0  0  0  0  0  0
  -23.6234  -17.1880   22.8384 C   0  0  0  0  0  0  0  0  0  0  0  0
  -23.8153  -18.5282   20.8373 C   0  0  0  0  0  0  0  0  0  0  0  0
  -27.1738  -18.8900   16.6832 C   0  0  0  0  0  0  0  0  0  0  0  0
  -25.7247  -21.0882   17.5858 C   0  0  0  0  0  0  0  0  0  0  0  0
  -25.1550  -27.1324   18.3910 C   0  0  0  0  0  0  0  0  0  0  0  0
  -24.4300  -16.2083   22.2596 C   0  0  0  0  0  0  0  0  0  0  0  0
  -24.6220  -17.5484   20.2585 C   0  0  0  0  0  0  0  0  0  0  0  0
  -24.2617  -27.8991   19.1379 C   0  0  0  0  0  0  0  0  0  0  0  0
  -24.0859  -13.7071   20.0123 C   0  0  0  0  0  0  0  0  0  0  0  0
  -23.6809  -12.3782   20.1375 C   0  0  0  0  0  0  0  0  0  0  0  0
  -18.2899  -27.6075   21.7332 C   0  0  0  0  0  0  0  0  0  0  0  0
  -25.8601  -27.9929   20.9422 C   0  0  0  0  0  0  0  0  0  0  0  0
  -19.1938  -26.4992   23.6733 C   0  0  0  0  0  0  0  0  0  0  0  0
  -25.7368  -11.8608   21.2962 C   0  0  0  0  0  0  0  0  0  0  0  0
  -23.3160  -18.3480   22.1272 C   0  0  0  0  0  0  0  0  0  0  0  0
  -22.9013  -20.4581   23.4996 C   0  0  0  0  0  0  0  0  0  0  0  0
  -27.6653  -19.6422   17.7618 C   0  0  0  0  0  0  0  0  0  0  0  0
  -26.4054  -26.7805   18.9192 C   0  0  0  0  0  0  0  0  0  0  0  0
  -26.9284  -20.7484   18.2264 C   0  0  0  0  0  0  0  0  0  0  0  0
  -19.3247  -28.5566   21.7690 C   0  0  0  0  0  0  0  0  0  0  0  0
  -26.7685  -27.2239   20.1989 C   0  0  0  0  0  0  0  0  0  0  0  0
  -20.3117  -28.4660   22.7693 C   0  0  0  0  0  0  0  0  0  0  0  0
  -18.2226  -26.5886   22.6821 C   0  0  0  0  0  0  0  0  0  0  0  0
  -24.9293  -16.3884   20.9697 C   0  0  0  0  0  0  0  0  0  0  0  0
  -24.6130  -28.3271   20.4148 C   0  0  0  0  0  0  0  0  0  0  0  0
  -25.3164  -14.1129   20.5291 C   0  0  0  0  0  0  0  0  0  0  0  0
  -20.2312  -27.4299   23.7163 C   0  0  0  0  0  0  0  0  0  0  0  0
  -24.5064  -11.4551   20.7794 C   0  0  0  0  0  0  0  0  0  0  0  0
  -26.1418  -13.1897   21.1710 C   0  0  0  0  0  0  0  0  0  0  0  0
  -22.4823  -19.3602   22.7243 C   0  0  0  0  0  0  0  0  0  0  0  0
  -21.7383  -21.1123   23.8251 C   0  0  0  0  0  0  0  0  0  0  0  0
  -24.2235  -20.8514   23.8904 C   0  0  0  0  0  0  0  0  0  0  0  0
  -27.8483  -24.0394   19.6321 C   0  0  0  0  0  0  0  0  0  0  0  0
  -30.3840  -25.9762   20.2162 C   0  0  0  0  0  0  0  0  0  0  0  0
  -31.5267  -29.0894   21.0221 C   0  0  0  0  0  0  0  0  0  0  0  0
  -16.7395  -23.1489   22.4077 C   0  0  0  0  0  0  0  0  0  0  0  0
  -28.9396  -19.1985   18.4353 C   0  0  0  0  0  0  0  0  0  0  0  0
  -27.3683  -25.9754   18.0903 C   0  0  0  0  0  0  0  0  0  0  0  0
  -19.3774  -29.6022   20.6813 C   0  0  0  0  0  0  0  0  0  0  0  0
  -28.1069  -26.8901   20.8037 C   0  0  0  0  0  0  0  0  0  0  0  0
  -29.5603  -20.2685   19.3298 C   0  0  0  0  0  0  0  0  0  0  0  0
  -16.9091  -19.7044   23.2929 C   0  0  0  0  0  0  0  0  0  0  0  0
  -28.4959  -20.9056   20.2174 C   0  0  0  0  0  0  0  0  0  0  0  0
  -18.4076  -19.3972   23.2817 C   0  0  0  0  0  0  0  0  0  0  0  0
  -16.5268  -20.6903   22.1912 C   0  0  0  0  0  0  0  0  0  0  0  0
  -18.8023  -21.6368   22.1738 C   0  0  0  0  0  0  0  0  0  0  0  0
  -21.4465  -29.4723   22.8723 C   0  0  1  0  0  0  0  0  0  0  0  0
  -27.4199  -21.6019   19.3753 C   0  0  1  0  0  0  0  0  0  0  0  0
  -28.4107  -25.2423   18.9290 C   0  0  1  0  0  0  0  0  0  0  0  0
  -21.6875  -30.2500   21.5495 C   0  0  2  0  0  0  0  0  0  0  0  0
  -19.2452  -20.6900   23.3024 C   0  0  2  0  0  0  0  0  0  0  0  0
  -20.3410  -30.7453   20.9945 C   0  0  1  0  0  0  0  0  0  0  0  0
  -21.1768  -30.4368   24.0383 C   0  0  0  0  0  0  0  0  0  0  0  0
  -33.6474  -30.3556   21.4653 C   0  0  0  0  0  0  0  0  0  0  0  0
  -30.5760  -24.6845   22.9738 C   0  0  0  0  0  0  0  0  0  0  0  0
  -32.0353  -26.5895   23.6877 C   0  0  0  0  0  0  0  0  0  0  0  0
  -32.7754  -25.0747   21.8491 C   0  0  0  0  0  0  0  0  0  0  0  0
  -31.0375  -30.9305   18.7572 C   0  0  0  0  0  0  0  0  0  0  0  0
  -22.3021  -26.4801   24.3982 C   0  0  0  0  0  0  0  0  0  0  0  0
  -17.1146  -25.5920   22.6299 C   0  0  0  0  0  0  0  0  0  0  0  0
  -22.4904  -29.3899   20.5592 C   0  0  0  0  0  0  0  0  0  1  0  0
  -30.9050  -26.7211   21.4214 C   0  0  1  0  0  0  0  0  0  0  0  0
  -32.6234  -29.9475   20.4176 C   0  0  2  0  0  0  0  0  0  0  0  0
  -31.5469  -25.7723   22.4727 C   0  0  0  0  0  0  0  0  0  0  0  0
  -21.1567  -19.3160   22.5670 N   0  0  0  0  0  0  0  0  0  0  0  0
  -20.7326  -20.3943   23.2479 N   0  0  0  0  0  0  0  0  0  0  0  0
  -29.0113  -26.0954   19.9564 N   0  0  0  0  0  0  0  0  0  0  0  0
  -17.3568  -21.8950   22.2677 N   0  0  0  0  0  0  0  0  0  0  0  0
  -21.4881  -22.2258   24.5461 N   0  0  0  0  0  0  0  0  0  0  0  0
  -25.3058  -20.0667   23.4695 N   0  0  0  0  0  0  0  0  0  0  0  0
  -27.9046  -22.8758   18.8889 N   0  0  0  0  0  0  0  0  0  0  0  0
  -31.8097  -27.7446   20.9090 N   0  0  0  0  0  0  0  0  0  0  0  0
  -17.5992  -24.2381   22.4789 N   0  0  0  0  0  0  0  0  0  0  0  0
  -20.5453  -31.5478   19.7576 N   0  3  0  0  0  0  0  0  0  0  0  0
  -32.0439  -31.1837   19.8202 N   0  3  0  0  0  0  0  0  0  0  0  0
  -24.4375  -21.8594   24.6057 O   0  0  0  0  0  0  0  0  0  0  0  0
  -27.3980  -24.1578   20.7657 O   0  0  0  0  0  0  0  0  0  0  0  0
  -31.1673  -25.3188   19.5264 O   0  0  0  0  0  0  0  0  0  0  0  0
  -30.5214  -29.5645   21.5456 O   0  0  0  0  0  0  0  0  0  0  0  0
  -15.5131  -23.2869   22.4705 O   0  0  0  0  0  0  0  0  0  0  0  0
  -25.7166  -15.4327   20.4047 O   0  0  0  0  0  0  0  0  0  0  0  0
  -21.1716  -27.2941   24.6970 O   0  0  0  0  0  0  0  0  0  0  0  0
  -23.7336  -29.0827   21.1538 O   0  0  0  0  0  0  0  0  0  1  0  0
  -24.1166  -10.1793   20.9009 F   0  0  0  0  0  0  0  0  0  0  0  0
  -27.3245  -13.5739   21.6705 F   0  0  0  0  0  0  0  0  0  0  0  0
  1  2  1  0  0  0  0
  1  5  2  0  0  0  0
  2  6  2  0  0  0  0
  3  8  2  0  0  0  0
  3 17  1  0  0  0  0
  4  9  1  0  0  0  0
  4 17  2  0  0  0  0
  5 19  1  0  0  0  0
  6 21  1  0  0  0  0
  7 10  2  0  0  0  0
  7 20  1  0  0  0  0
  8 26  1  0  0  0  0
  9 26  2  0  0  0  0
 10 27  1  0  0  0  0
 11 12  2  0  0  0  0
 11 28  1  0  0  0  0
 12 30  1  0  0  0  0
 13 22  1  0  0  0  0
 13 25  2  0  0  0  0
 14 23  1  0  0  0  0
 14 27  2  0  0  0  0
 15 25  1  0  0  0  0
 15 29  2  0  0  0  0
 16 30  2  0  0  0  0
 16 31  1  0  0  0  0
 17 32  1  0  0  0  0
 18 32  1  0  0  0  0
 18 33  2  0  0  0  0
 18 34  1  0  0  0  0
 19 21  2  0  0  0  0
 19 39  1  0  0  0  0
 20 23  2  0  0  0  0
 20 40  1  0  0  0  0
 21 50  1  0  0  0  0
 22 24  2  0  0  0  0
 22 41  1  0  0  0  0
 23 42  1  0  0  0  0
 24 29  1  0  0  0  0
 24 49  1  0  0  0  0
 25 62  1  0  0  0  0
 26 83  1  0  0  0  0
 27 85  1  0  0  0  0
 28 31  2  0  0  0  0
 28 83  1  0  0  0  0
 29 84  1  0  0  0  0
 30 86  1  0  0  0  0
 31 87  1  0  0  0  0
 32 67  2  0  0  0  0
 33 68  1  0  0  0  0
 33 71  1  0  0  0  0
 34 72  1  0  0  0  0
 34 78  2  0  0  0  0
 35 51  1  0  0  0  0
 35 73  1  0  0  0  0
 35 79  2  0  0  0  0
 36 64  1  0  0  0  0
 36 69  1  0  0  0  0
 36 80  2  0  0  0  0
 37 65  1  0  0  0  0
 37 74  1  0  0  0  0
 37 81  2  0  0  0  0
 38 70  1  0  0  0  0
 38 75  1  0  0  0  0
 38 82  2  0  0  0  0
 39 43  1  0  0  0  0
 40 51  1  0  0  0  0
 41 54  1  0  0  0  0
 42 69  1  0  0  0  0
 43 45  1  0  0  0  0
 44 46  1  0  0  0  0
 44 47  1  0  0  0  0
 45 50  1  0  0  0  0
 46 53  1  0  0  0  0
 47 70  1  0  0  0  0
 48 53  1  0  0  0  0
 48 70  1  0  0  0  0
 49 52  1  0  0  0  0
 49 55  1  0  0  0  0
 50 73  1  0  0  0  0
 51 69  1  0  0  0  0
 52 54  1  0  0  0  0
 52 63  1  0  0  0  0
 53 68  1  0  0  0  0
 54 76  1  0  0  0  0
 56 65  1  0  0  0  0
 57 66  1  0  0  0  0
 58 66  1  0  0  0  0
 59 66  1  0  0  0  0
 60 77  1  0  0  0  0
 61 84  1  0  0  0  0
 62 75  1  0  0  0  0
 63 85  1  0  0  0  0
 64 66  1  0  0  0  0
 64 74  1  0  0  0  0
 65 77  1  0  0  0  0
 67 68  1  0  0  0  0
M  CHG  2  76   1  77   1
M  ISO  4  38 100  63 101  75 100  85 101
M  END
> <Batch ID>
0156

> <Smiles>
CNC(C)C(=O)NC(C(=O)N1Cc2cc([101O:1][101CH2:1]C3C(N)Cc4cc(C[100NH:0][100C:0](=O)N5CCCC(n6nc(-c7ccc(Oc8ccc(F)cc8F)cc7)c(C(N)=O)c6N)C5)cc(OC)c4C3C)ccc2CC1C(=O)NC1CCCc2ccccc21)C(C)(C)C

> <Shape>
0.199

> <Color>
0.073

> <Negative vol penalty>
0.000

$$$$

  -OEChem-04052321563D

 86 95  0     1  0  0  0  0  0999 V2000
  -29.2261  -29.9886   31.2141 C   0  0  0  0  0  0  0  0  0  0  0  0
  -29.3426  -28.6575   30.8268 C   0  0  0  0  0  0  0  0  0  0  0  0
  -22.6693  -10.1998   20.1655 C   0  0  0  0  0  0  0  0  0  0  0  0
  -24.3176   -9.4209   21.7509 C   0  0  0  0  0  0  0  0  0  0  0  0
  -28.3636  -30.8408   30.5257 C   0  0  0  0  0  0  0  0  0  0  0  0
  -28.5958  -28.1775   29.7516 C   0  0  0  0  0  0  0  0  0  0  0  0
  -31.3398  -25.3091   26.6070 C   0  0  0  0  0  0  0  0  0  0  0  0
  -21.9326   -9.0311   20.3571 C   0  0  0  0  0  0  0  0  0  0  0  0
  -23.5808   -8.2521   21.9426 C   0  0  0  0  0  0  0  0  0  0  0  0
  -31.5984  -23.9977   27.0035 C   0  0  0  0  0  0  0  0  0  0  0  0
  -20.8286   -7.2972   23.6556 C   0  0  0  0  0  0  0  0  0  0  0  0
  -20.6408   -6.8590   24.9664 C   0  0  0  0  0  0  0  0  0  0  0  0
  -29.8216  -23.2200   25.5691 C   0  0  0  0  0  0  0  0  0  0  0  0
  -32.1310  -16.4565   22.6451 C   0  0  0  0  0  0  0  0  0  0  0  0
  -29.9617  -17.2589   23.3432 C   0  0  0  0  0  0  0  0  0  0  0  0
  -21.7619   -4.7861   24.4341 C   0  0  0  0  0  0  0  0  0  0  0  0
  -23.8618  -10.3948   20.8623 C   0  0  0  0  0  0  0  0  0  0  0  0
  -24.1992  -12.9231   20.9001 C   0  0  0  0  0  0  0  0  0  0  0  0
  -27.6131  -30.3733   29.4354 C   0  0  0  0  0  0  0  0  0  0  0  0
  -30.3112  -25.5873   25.6954 C   0  0  0  0  0  0  0  0  0  0  0  0
  -27.7215  -29.0238   29.0488 C   0  0  0  0  0  0  0  0  0  0  0  0
  -29.5536  -24.5355   25.1607 C   0  0  0  0  0  0  0  0  0  0  0  0
  -31.9603  -18.0932   24.4140 C   0  0  0  0  0  0  0  0  0  0  0  0
  -32.7403  -17.2802   23.5916 C   0  0  0  0  0  0  0  0  0  0  0  0
  -30.7417  -16.4459   22.5209 C   0  0  0  0  0  0  0  0  0  0  0  0
  -22.3883   -8.0572   21.2457 C   0  0  0  0  0  0  0  0  0  0  0  0
  -30.8374  -22.9532   26.4868 C   0  0  0  0  0  0  0  0  0  0  0  0
  -21.4831   -6.4799   22.7340 C   0  0  0  0  0  0  0  0  0  0  0  0
  -30.5710  -18.0826   24.2898 C   0  0  0  0  0  0  0  0  0  0  0  0
  -21.1074   -5.6035   25.3557 C   0  0  0  0  0  0  0  0  0  0  0  0
  -21.9497   -5.2243   23.1233 C   0  0  0  0  0  0  0  0  0  0  0  0
  -24.6236  -11.6017   20.6644 C   0  0  0  0  0  0  0  0  0  0  0  0
  -25.2816  -13.6972   20.5598 C   0  0  0  0  0  0  0  0  0  0  0  0
  -22.9394  -13.4075   21.3836 C   0  0  0  0  0  0  0  0  0  0  0  0
  -27.6144  -27.2666   25.8001 C   0  0  0  0  0  0  0  0  0  0  0  0
  -27.5037  -26.5511   22.6381 C   0  0  0  0  0  0  0  0  0  0  0  0
  -28.1645  -23.6734   20.5647 C   0  0  0  0  0  0  0  0  0  0  0  0
  -30.7499  -14.7408   20.6664 C   0  0  0  0  0  0  0  0  0  0  0  0
  -26.6586  -31.3201   28.7519 C   0  0  0  0  0  0  0  0  0  0  0  0
  -30.0624  -27.0046   25.2574 C   0  0  0  0  0  0  0  0  0  0  0  0
  -28.4514  -24.7791   24.1636 C   0  0  0  0  0  0  0  0  0  0  0  0
  -26.1836  -30.8267   27.3876 C   0  0  0  0  0  0  0  0  0  0  0  0
  -29.5778  -12.4855   18.1731 C   0  0  0  0  0  0  0  0  0  0  0  0
  -25.7656  -29.3618   27.4657 C   0  0  0  0  0  0  0  0  0  0  0  0
  -28.1495  -12.1632   18.6184 C   0  0  0  0  0  0  0  0  0  0  0  0
  -32.2075  -18.7853   26.9121 C   0  0  0  0  0  0  0  0  0  0  0  0
  -32.3696  -20.4952   25.2190 C   0  0  0  0  0  0  0  0  0  0  0  0
  -30.5226  -12.6368   19.3640 C   0  0  0  0  0  0  0  0  0  0  0  0
  -28.6504  -13.2648   20.8370 C   0  0  0  0  0  0  0  0  0  0  0  0
  -32.6162  -18.9879   25.4449 C   0  0  2  0  0  0  0  0  0  0  0  0
  -26.9466  -28.4720   27.8718 C   0  0  1  0  0  0  0  0  0  0  0  0
  -28.6533  -27.2239   24.7155 C   0  0  1  0  0  0  0  0  0  0  0  0
  -27.6485  -13.1672   19.6750 C   0  0  2  0  0  0  0  0  0  0  0  0
  -32.7176  -20.0478   27.5979 C   0  0  2  0  0  0  0  0  0  0  0  0
  -32.3873  -21.1567   26.6045 C   0  0  2  0  0  0  0  0  0  1  0  0
  -34.2297  -17.2737   23.7050 C   0  0  0  0  0  0  0  0  0  0  0  0
  -28.8620  -23.5214   18.1589 C   0  0  0  0  0  0  0  0  0  0  0  0
  -24.5134  -26.2935   22.0886 C   0  0  0  0  0  0  0  0  0  0  0  0
  -25.0559  -24.6202   20.3070 C   0  0  0  0  0  0  0  0  0  0  0  0
  -25.8842  -26.9647   20.1074 C   0  0  0  0  0  0  0  0  0  0  0  0
  -30.5340  -22.0316   21.2348 C   0  0  0  0  0  0  0  0  0  0  0  0
  -28.3823  -18.7948   24.8882 C   0  0  0  0  0  0  0  0  0  0  0  0
  -26.9287  -25.4224   21.8169 C   0  0  1  0  0  0  0  0  0  0  0  0
  -29.3276  -23.4916   19.6063 C   0  0  2  0  0  0  0  0  0  0  0  0
  -25.6043  -25.8212   21.1068 C   0  0  0  0  0  0  0  0  0  0  0  0
  -25.8776  -11.5363   20.2092 N   0  0  0  0  0  0  0  0  0  0  0  0
  -26.2506  -12.8263   20.1562 N   0  0  0  0  0  0  0  0  0  0  0  0
  -28.2424  -26.1827   23.7714 N   0  0  0  0  0  0  0  0  0  0  0  0
  -29.9852  -13.6065   20.3209 N   0  0  0  0  0  0  0  0  0  0  0  0
  -25.4894  -15.0310   20.5693 N   0  0  0  0  0  0  0  0  0  0  0  0
  -22.7684  -13.5604   22.7663 N   0  0  0  0  0  0  0  0  0  0  0  0
  -30.1227  -15.6087   21.5598 N   0  0  0  0  0  0  0  0  0  0  0  0
  -27.8263  -28.2537   26.7436 N   0  0  0  0  0  0  0  0  0  0  0  0
  -27.9887  -24.9968   20.9093 N   0  0  0  0  0  0  0  0  0  0  0  0
  -30.0051  -22.1878   19.8553 N   0  3  0  0  0  0  0  0  0  0  0  0
  -21.9877  -13.6807   20.6134 O   0  0  0  0  0  0  0  0  0  0  0  0
  -26.6882  -26.4644   25.7816 O   0  0  0  0  0  0  0  0  0  0  0  0
  -27.3107  -27.7166   22.2831 O   0  0  0  0  0  0  0  0  0  0  0  0
  -27.4780  -22.7356   20.9645 O   0  0  0  0  0  0  0  0  0  0  0  0
  -31.8668  -14.9423   20.1829 O   0  0  0  0  0  0  0  0  0  0  0  0
  -34.1286  -19.9758   27.7652 O   0  0  0  0  0  0  0  0  0  0  0  0
  -21.6695   -6.9167   21.4331 O   0  0  0  0  0  0  0  0  0  0  0  0
  -31.0873  -21.6724   26.8726 O   0  0  0  0  0  0  0  0  0  1  0  0
  -29.7929  -18.8699   25.0843 O   0  0  0  0  0  0  0  0  0  0  0  0
  -20.9283   -5.1835   26.6149 F   0  0  0  0  0  0  0  0  0  0  0  0
  -22.5803   -4.4351   22.2427 F   0  0  0  0  0  0  0  0  0  0  0  0
  1  2  1  0  0  0  0
  1  5  2  0  0  0  0
  2  6  2  0  0  0  0
  3  8  2  0  0  0  0
  3 17  1  0  0  0  0
  4  9  1  0  0  0  0
  4 17  2  0  0  0  0
  5 19  1  0  0  0  0
  6 21  1  0  0  0  0
  7 10  2  0  0  0  0
  7 20  1  0  0  0  0
  8 26  1  0  0  0  0
  9 26  2  0  0  0  0
 10 27  1  0  0  0  0
 11 12  2  0  0  0  0
 11 28  1  0  0  0  0
 12 30  1  0  0  0  0
 13 22  1  0  0  0  0
 13 27  2  0  0  0  0
 14 24  2  0  0  0  0
 14 25  1  0  0  0  0
 15 25  2  0  0  0  0
 15 29  1  0  0  0  0
 16 30  2  0  0  0  0
 16 31  1  0  0  0  0
 17 32  1  0  0  0  0
 18 32  1  0  0  0  0
 18 33  2  0  0  0  0
 18 34  1  0  0  0  0
 19 21  2  0  0  0  0
 19 39  1  0  0  0  0
 20 22  2  0  0  0  0
 20 40  1  0  0  0  0
 21 51  1  0  0  0  0
 22 41  1  0  0  0  0
 23 24  1  0  0  0  0
 23 29  2  0  0  0  0
 23 50  1  0  0  0  0
 24 56  1  0  0  0  0
 25 72  1  0  0  0  0
 26 82  1  0  0  0  0
 27 83  1  0  0  0  0
 28 31  2  0  0  0  0
 28 82  1  0  0  0  0
 29 84  1  0  0  0  0
 30 85  1  0  0  0  0
 31 86  1  0  0  0  0
 32 66  2  0  0  0  0
 33 67  1  0  0  0  0
 33 70  1  0  0  0  0
 34 71  1  0  0  0  0
 34 76  2  0  0  0  0
 35 52  1  0  0  0  0
 35 73  1  0  0  0  0
 35 77  2  0  0  0  0
 36 63  1  0  0  0  0
 36 68  1  0  0  0  0
 36 78  2  0  0  0  0
 37 64  1  0  0  0  0
 37 74  1  0  0  0  0
 37 79  2  0  0  0  0
 38 69  1  0  0  0  0
 38 72  1  0  0  0  0
 38 80  2  0  0  0  0
 39 42  1  0  0  0  0
 40 52  1  0  0  0  0
 41 68  1  0  0  0  0
 42 44  1  0  0  0  0
 43 45  1  0  0  0  0
 43 48  1  0  0  0  0
 44 51  1  0  0  0  0
 45 53  1  0  0  0  0
 46 50  1  0  0  0  0
 46 54  1  0  0  0  0
 47 50  1  0  0  0  0
 47 55  1  0  0  0  0
 48 69  1  0  0  0  0
 49 53  1  0  0  0  0
 49 69  1  0  0  0  0
 51 73  1  0  0  0  0
 52 68  1  0  0  0  0
 53 67  1  0  0  0  0
 54 55  1  0  0  0  0
 54 81  1  0  0  0  0
 55 83  1  0  0  0  0
 57 64  1  0  0  0  0
 58 65  1  0  0  0  0
 59 65  1  0  0  0  0
 60 65  1  0  0  0  0
 61 75  1  0  0  0  0
 62 84  1  0  0  0  0
 63 65  1  0  0  0  0
 63 74  1  0  0  0  0
 64 75  1  0  0  0  0
 66 67  1  0  0  0  0
M  CHG  1  75   1
M  ISO  4  38 100  55 101  72 100  83 101
M  END
> <Batch ID>
0156

> <Smiles>
CNC(C)C(=O)NC(C(=O)N1Cc2cc([101O:1][101CH:1]3CC(c4c(C)cc([100NH:0][100C:0](=O)N5CCCC(n6nc(-c7ccc(Oc8ccc(F)cc8F)cc7)c(C(N)=O)c6N)C5)cc4OC)CC3O)ccc2CC1C(=O)NC1CCCc2ccccc21)C(C)(C)C

> <Shape>
0.231

> <Color>
0.172

> <Negative vol penalty>
0.000

$$$$

  -OEChem-04052321563D

 90 99  0     1  0  0  0  0  0999 V2000
  -21.4595   -3.6672   23.5907 C   0  0  0  0  0  0  0  0  0  0  0  0
  -21.0923   -4.8450   22.9477 C   0  0  0  0  0  0  0  0  0  0  0  0
  -23.4059  -29.6762   20.1706 C   0  0  0  0  0  0  0  0  0  0  0  0
  -24.2160  -31.1196   21.9306 C   0  0  0  0  0  0  0  0  0  0  0  0
  -22.5976   -3.6395   24.3956 C   0  0  0  0  0  0  0  0  0  0  0  0
  -21.8623   -5.9961   23.1102 C   0  0  0  0  0  0  0  0  0  0  0  0
  -23.9539  -11.8601   19.5668 C   0  0  0  0  0  0  0  0  0  0  0  0
  -22.1143  -29.7688   20.6892 C   0  0  0  0  0  0  0  0  0  0  0  0
  -22.9244  -31.2122   22.4491 C   0  0  0  0  0  0  0  0  0  0  0  0
  -23.9866  -13.2471   19.7041 C   0  0  0  0  0  0  0  0  0  0  0  0
  -20.3476  -28.4097   23.2300 C   0  0  0  0  0  0  0  0  0  0  0  0
  -19.6074  -27.2324   23.3379 C   0  0  0  0  0  0  0  0  0  0  0  0
  -29.3075  -19.8304   20.7070 C   0  0  0  0  0  0  0  0  0  0  0  0
  -27.4301  -19.2861   19.2873 C   0  0  0  0  0  0  0  0  0  0  0  0
  -25.9762  -13.0604   21.0553 C   0  0  0  0  0  0  0  0  0  0  0  0
  -17.9262  -28.1546   21.8683 C   0  0  0  0  0  0  0  0  0  0  0  0
  -24.4567  -30.3516   20.7913 C   0  0  0  0  0  0  0  0  0  0  0  0
  -26.3839  -31.0961   19.2949 C   0  0  0  0  0  0  0  0  0  0  0  0
  -23.3874   -4.7883   24.5603 C   0  0  0  0  0  0  0  0  0  0  0  0
  -24.9275  -11.0607   20.1829 C   0  0  0  0  0  0  0  0  0  0  0  0
  -23.0113   -5.9840   23.9192 C   0  0  0  0  0  0  0  0  0  0  0  0
  -28.3309  -20.2238   19.7921 C   0  0  0  0  0  0  0  0  0  0  0  0
  -25.9551  -11.6637   20.9222 C   0  0  0  0  0  0  0  0  0  0  0  0
  -28.4826  -17.5615   20.6121 C   0  0  0  0  0  0  0  0  0  0  0  0
  -21.8736  -30.5368   21.8284 C   0  0  0  0  0  0  0  0  0  0  0  0
  -24.9961  -13.8473   20.4508 C   0  0  0  0  0  0  0  0  0  0  0  0
  -19.8770  -29.4596   22.4413 C   0  0  0  0  0  0  0  0  0  0  0  0
  -29.3834  -18.4992   21.1169 C   0  0  0  0  0  0  0  0  0  0  0  0
  -27.5059  -17.9549   19.6972 C   0  0  0  0  0  0  0  0  0  0  0  0
  -18.3967  -27.1048   22.6571 C   0  0  0  0  0  0  0  0  0  0  0  0
  -18.6663  -29.3320   21.7604 C   0  0  0  0  0  0  0  0  0  0  0  0
  -25.7912  -30.2559   20.2565 C   0  0  0  0  0  0  0  0  0  0  0  0
  -27.6496  -30.5891   19.1293 C   0  0  0  0  0  0  0  0  0  0  0  0
  -25.8391  -32.2333   18.6124 C   0  0  0  0  0  0  0  0  0  0  0  0
  -24.8854   -8.7819   22.3985 C   0  0  0  0  0  0  0  0  0  0  0  0
  -28.0311   -8.5341   21.6463 C   0  0  0  0  0  0  0  0  0  0  0  0
  -30.8306  -10.0129   20.3725 C   0  0  0  0  0  0  0  0  0  0  0  0
  -30.0945  -25.3011   19.8402 C   0  0  0  0  0  0  0  0  0  0  0  0
  -24.5824   -4.7222   25.4781 C   0  0  0  0  0  0  0  0  0  0  0  0
  -24.8935   -9.5678   20.0030 C   0  0  0  0  0  0  0  0  0  0  0  0
  -27.0356  -10.8517   21.5866 C   0  0  0  0  0  0  0  0  0  0  0  0
  -25.5534   -5.8863   25.2986 C   0  0  0  0  0  0  0  0  0  0  0  0
  -31.0692  -28.1979   21.4547 C   0  0  0  0  0  0  0  0  0  0  0  0
  -24.7964   -7.2095   25.2448 C   0  0  0  0  0  0  0  0  0  0  0  0
  -29.8902  -29.1470   21.2417 C   0  0  0  0  0  0  0  0  0  0  0  0
  -27.9346  -22.6191   20.5180 C   0  0  0  0  0  0  0  0  0  0  0  0
  -29.5231  -22.1224   18.6103 C   0  0  0  0  0  0  0  0  0  0  0  0
  -30.5844  -26.7855   21.7605 C   0  0  0  0  0  0  0  0  0  0  0  0
  -27.8849  -24.0816   20.0668 C   0  0  0  0  0  0  0  0  0  0  0  0
  -29.4157  -23.5853   18.1898 C   0  0  0  0  0  0  0  0  0  0  0  0
  -28.4942  -27.1573   20.4914 C   0  0  0  0  0  0  0  0  0  0  0  0
  -28.2484  -21.6715   19.3462 C   0  0  0  0  0  0  0  0  0  0  0  0
  -23.8348   -7.2468   24.0509 C   0  0  1  0  0  0  0  0  0  0  0  0
  -25.6412   -8.8166   21.1003 C   0  0  1  0  0  0  0  0  0  0  0  0
  -28.9282  -28.6021   20.1711 C   0  0  1  0  0  0  0  0  0  0  0  0
  -28.3179  -15.9735   22.5626 C   0  0  0  0  0  0  0  0  0  0  0  0
  -29.8989  -15.4769   20.6629 C   0  0  0  0  0  0  0  0  0  0  0  0
  -33.2600   -9.5729   19.9231 C   0  0  0  0  0  0  0  0  0  0  0  0
  -28.6396   -8.8731   24.6170 C   0  0  0  0  0  0  0  0  0  0  0  0
  -31.0139   -9.3755   24.0020 C   0  0  0  0  0  0  0  0  0  0  0  0
  -30.0308   -7.1486   23.4573 C   0  0  0  0  0  0  0  0  0  0  0  0
  -30.4857  -10.4223   17.4617 C   0  0  0  0  0  0  0  0  0  0  0  0
  -31.2218  -19.1560   22.4752 C   0  0  0  0  0  0  0  0  0  0  0  0
  -24.5001  -15.9755   19.5123 C   0  0  0  0  0  0  0  0  0  1  0  0
  -25.2344  -17.3002   19.4381 C   0  0  0  0  0  0  0  0  0  0  0  0
  -28.5630  -16.1349   21.0518 C   0  0  0  0  0  0  0  0  0  0  0  0
  -29.3027   -9.1804   22.1407 C   0  0  1  0  0  0  0  0  0  0  0  0
  -31.8497   -9.5321   19.3553 C   0  0  2  0  0  0  0  0  0  0  0  0
  -29.7254   -8.6599   23.5435 C   0  0  0  0  0  0  0  0  0  0  0  0
  -26.6128  -29.2885   20.6724 N   0  0  0  0  0  0  0  0  0  0  0  0
  -27.7346  -29.5175   19.9688 N   0  0  0  0  0  0  0  0  0  0  0  0
  -26.9555   -9.3952   21.3867 N   0  0  0  0  0  0  0  0  0  0  0  0
  -29.6712  -26.3057   20.7234 N   0  0  0  0  0  0  0  0  0  0  0  0
  -29.1077  -24.4411   19.3353 N   0  0  0  0  0  0  0  0  0  0  0  0
  -28.6869  -30.9596   18.3489 N   0  0  0  0  0  0  0  0  0  0  0  0
  -24.5229  -32.6185   18.9014 N   0  0  0  0  0  0  0  0  0  0  0  0
  -24.5598   -7.5089   22.8261 N   0  0  0  0  0  0  0  0  0  0  0  0
  -30.3009   -8.9671   21.0984 N   0  0  0  0  0  0  0  0  0  0  0  0
  -31.8088  -10.3885   18.1364 N   0  3  0  0  0  0  0  0  0  0  0  0
  -26.4943  -32.8785   17.7593 O   0  0  0  0  0  0  0  0  0  0  0  0
  -24.6188   -9.8323   22.9706 O   0  0  0  0  0  0  0  0  0  0  0  0
  -27.9958   -7.3111   21.4893 O   0  0  0  0  0  0  0  0  0  0  0  0
  -30.5367  -11.1982   20.5118 O   0  0  0  0  0  0  0  0  0  0  0  0
  -31.2837  -25.1796   19.5205 O   0  0  0  0  0  0  0  0  0  0  0  0
  -20.6134  -30.6275   22.3346 O   0  0  0  0  0  0  0  0  0  0  0  0
  -30.3436  -18.1325   22.0115 O   0  0  0  0  0  0  0  0  0  0  0  0
  -25.0303  -15.2101   20.5878 O   0  0  0  0  0  0  0  0  0  1  0  0
  -26.6174  -17.0532   19.1932 O   0  0  0  0  0  0  0  0  0  0  0  0
  -17.6869  -25.9736   22.7595 F   0  0  0  0  0  0  0  0  0  0  0  0
  -18.2097  -30.3367   21.0002 F   0  0  0  0  0  0  0  0  0  0  0  0
  1  2  1  0  0  0  0
  1  5  2  0  0  0  0
  2  6  2  0  0  0  0
  3  8  2  0  0  0  0
  3 17  1  0  0  0  0
  4  9  1  0  0  0  0
  4 17  2  0  0  0  0
  5 19  1  0  0  0  0
  6 21  1  0  0  0  0
  7 10  2  0  0  0  0
  7 20  1  0  0  0  0
  8 25  1  0  0  0  0
  9 25  2  0  0  0  0
 10 26  1  0  0  0  0
 11 12  2  0  0  0  0
 11 27  1  0  0  0  0
 12 30  1  0  0  0  0
 13 22  1  0  0  0  0
 13 28  2  0  0  0  0
 14 22  2  0  0  0  0
 14 29  1  0  0  0  0
 15 23  1  0  0  0  0
 15 26  2  0  0  0  0
 16 30  2  0  0  0  0
 16 31  1  0  0  0  0
 17 32  1  0  0  0  0
 18 32  1  0  0  0  0
 18 33  2  0  0  0  0
 18 34  1  0  0  0  0
 19 21  2  0  0  0  0
 19 39  1  0  0  0  0
 20 23  2  0  0  0  0
 20 40  1  0  0  0  0
 21 53  1  0  0  0  0
 22 52  1  0  0  0  0
 23 41  1  0  0  0  0
 24 28  1  0  0  0  0
 24 29  2  0  0  0  0
 24 66  1  0  0  0  0
 25 85  1  0  0  0  0
 26 87  1  0  0  0  0
 27 31  2  0  0  0  0
 27 85  1  0  0  0  0
 28 86  1  0  0  0  0
 29 88  1  0  0  0  0
 30 89  1  0  0  0  0
 31 90  1  0  0  0  0
 32 70  2  0  0  0  0
 33 71  1  0  0  0  0
 33 75  1  0  0  0  0
 34 76  1  0  0  0  0
 34 80  2  0  0  0  0
 35 54  1  0  0  0  0
 35 77  1  0  0  0  0
 35 81  2  0  0  0  0
 36 67  1  0  0  0  0
 36 72  1  0  0  0  0
 36 82  2  0  0  0  0
 37 68  1  0  0  0  0
 37 78  1  0  0  0  0
 37 83  2  0  0  0  0
 38 73  1  0  0  0  0
 38 74  1  0  0  0  0
 38 84  2  0  0  0  0
 39 42  1  0  0  0  0
 40 54  1  0  0  0  0
 41 72  1  0  0  0  0
 42 44  1  0  0  0  0
 43 45  1  0  0  0  0
 43 48  1  0  0  0  0
 44 53  1  0  0  0  0
 45 55  1  0  0  0  0
 46 49  1  0  0  0  0
 46 52  1  0  0  0  0
 47 50  1  0  0  0  0
 47 52  1  0  0  0  0
 48 73  1  0  0  0  0
 49 74  1  0  0  0  0
 50 74  1  0  0  0  0
 51 55  1  0  0  0  0
 51 73  1  0  0  0  0
 53 77  1  0  0  0  0
 54 72  1  0  0  0  0
 55 71  1  0  0  0  0
 56 66  1  0  0  0  0
 57 66  1  0  0  0  0
 58 68  1  0  0  0  0
 59 69  1  0  0  0  0
 60 69  1  0  0  0  0
 61 69  1  0  0  0  0
 62 79  1  0  0  0  0
 63 86  1  0  0  0  0
 64 65  1  0  0  0  0
 64 87  1  0  0  0  0
 65 88  1  0  0  0  0
 67 69  1  0  0  0  0
 67 78  1  0  0  0  0
 68 79  1  0  0  0  0
 70 71  1  0  0  0  0
M  CHG  1  79   1
M  ISO  4  38 100  64 101  74 100  87 101
M  END
> <Batch ID>
0156

> <Smiles>
CNC(C)C(=O)NC(C(=O)N1Cc2cc([101O:1][101CH2:1]COc3cc(C4CC[100N:0]([100C:0](=O)N5CCCC(n6nc(-c7ccc(Oc8ccc(F)cc8F)cc7)c(C(N)=O)c6N)C5)CC4)cc(OC)c3C(C)C)ccc2CC1C(=O)NC1CCCc2ccccc21)C(C)(C)C

> <Shape>
0.290

> <Color>
0.070

> <Negative vol penalty>
0.000

$$$$

  -OEChem-04052321563D

 87 96  0     1  0  0  0  0  0999 V2000
  -29.7688  -25.3712   13.0483 C   0  0  0  0  0  0  0  0  0  0  0  0
  -29.1768  -24.6002   14.0435 C   0  0  0  0  0  0  0  0  0  0  0  0
  -23.0787   -9.8920   19.8226 C   0  0  0  0  0  0  0  0  0  0  0  0
  -23.9077   -9.6879   22.0827 C   0  0  0  0  0  0  0  0  0  0  0  0
  -30.3011  -26.6214   13.3606 C   0  0  0  0  0  0  0  0  0  0  0  0
  -29.1176  -25.0786   15.3519 C   0  0  0  0  0  0  0  0  0  0  0  0
  -24.6301  -24.1453   19.4136 C   0  0  0  0  0  0  0  0  0  0  0  0
  -22.3516   -8.7125   19.9827 C   0  0  0  0  0  0  0  0  0  0  0  0
  -23.1806   -8.5084   22.2429 C   0  0  0  0  0  0  0  0  0  0  0  0
  -24.4924  -23.2446   20.4688 C   0  0  0  0  0  0  0  0  0  0  0  0
  -19.9784   -7.6228   22.8611 C   0  0  0  0  0  0  0  0  0  0  0  0
  -19.2576   -7.4633   24.0446 C   0  0  0  0  0  0  0  0  0  0  0  0
  -28.9769  -17.8466   25.3552 C   0  0  0  0  0  0  0  0  0  0  0  0
  -29.3603  -18.7282   22.7438 C   0  0  0  0  0  0  0  0  0  0  0  0
  -25.2831  -24.9301   22.0028 C   0  0  0  0  0  0  0  0  0  0  0  0
  -20.5356   -5.4776   24.5552 C   0  0  0  0  0  0  0  0  0  0  0  0
  -23.8568  -10.3797   20.8725 C   0  0  0  0  0  0  0  0  0  0  0  0
  -24.1755  -12.9083   20.9849 C   0  0  0  0  0  0  0  0  0  0  0  0
  -30.2398  -27.1195   14.6717 C   0  0  0  0  0  0  0  0  0  0  0  0
  -25.1065  -25.4440   19.6439 C   0  0  0  0  0  0  0  0  0  0  0  0
  -29.6508  -26.3361   15.6824 C   0  0  0  0  0  0  0  0  0  0  0  0
  -28.3684  -19.0395   24.9346 C   0  0  0  0  0  0  0  0  0  0  0  0
  -28.5559  -19.4831   23.6130 C   0  0  0  0  0  0  0  0  0  0  0  0
  -25.4235  -25.8462   20.9492 C   0  0  0  0  0  0  0  0  0  0  0  0
  -29.7761  -17.1095   24.4825 C   0  0  0  0  0  0  0  0  0  0  0  0
  -29.9678  -17.5503   23.1770 C   0  0  0  0  0  0  0  0  0  0  0  0
  -22.4025   -8.0207   21.1929 C   0  0  0  0  0  0  0  0  0  0  0  0
  -24.8216  -23.6359   21.7632 C   0  0  0  0  0  0  0  0  0  0  0  0
  -20.9777   -6.7097   22.5246 C   0  0  0  0  0  0  0  0  0  0  0  0
  -19.5362   -6.3907   24.8917 C   0  0  0  0  0  0  0  0  0  0  0  0
  -21.2563   -5.6371   23.3717 C   0  0  0  0  0  0  0  0  0  0  0  0
  -24.6086  -11.5978   20.7075 C   0  0  0  0  0  0  0  0  0  0  0  0
  -25.2504  -13.7004   20.6630 C   0  0  0  0  0  0  0  0  0  0  0  0
  -22.9144  -13.3683   21.4885 C   0  0  0  0  0  0  0  0  0  0  0  0
  -27.6403  -27.1066   18.6853 C   0  0  0  0  0  0  0  0  0  0  0  0
  -26.1475  -29.5334   20.2360 C   0  0  0  0  0  0  0  0  0  0  0  0
  -23.9295  -30.5050   22.6408 C   0  0  0  0  0  0  0  0  0  0  0  0
  -30.7293  -14.7545   20.7864 C   0  0  0  0  0  0  0  0  0  0  0  0
  -30.8710  -28.4563   14.9706 C   0  0  0  0  0  0  0  0  0  0  0  0
  -25.2240  -26.4121   18.4987 C   0  0  0  0  0  0  0  0  0  0  0  0
  -27.4732  -19.7803   25.8966 C   0  0  0  0  0  0  0  0  0  0  0  0
  -25.9199  -27.2355   21.2524 C   0  0  0  0  0  0  0  0  0  0  0  0
  -30.4334  -29.0513   16.3065 C   0  0  0  0  0  0  0  0  0  0  0  0
  -29.5381  -12.5969   18.2168 C   0  0  0  0  0  0  0  0  0  0  0  0
  -30.4961  -27.9966   17.4068 C   0  0  0  0  0  0  0  0  0  0  0  0
  -28.1168  -12.2481   18.6618 C   0  0  0  0  0  0  0  0  0  0  0  0
  -30.4896  -12.7117   19.4058 C   0  0  0  0  0  0  0  0  0  0  0  0
  -28.6252  -13.2870   20.9115 C   0  0  0  0  0  0  0  0  0  0  0  0
  -29.5453  -26.8311   17.1086 C   0  0  1  0  0  0  0  0  0  0  0  0
  -27.9167  -20.7616   23.1150 C   0  0  2  0  0  0  0  0  0  0  0  0
  -26.2063  -27.5464   18.7737 C   0  0  1  0  0  0  0  0  0  0  0  0
  -27.6171  -13.2154   19.7517 C   0  0  2  0  0  0  0  0  0  0  0  0
  -27.2066  -21.2306   25.4896 C   0  0  2  0  0  0  0  0  0  0  0  0
  -30.4109  -15.8485   24.9696 C   0  0  0  0  0  0  0  0  0  0  0  0
  -28.9505  -21.8758   22.9118 C   0  0  0  0  0  0  0  0  0  0  0  0
  -26.1685  -21.9090   26.3765 C   0  0  0  0  0  0  0  0  0  0  0  0
  -22.9475  -32.5561   23.7019 C   0  0  0  0  0  0  0  0  0  0  0  0
  -28.7361  -29.9645   21.7926 C   0  0  0  0  0  0  0  0  0  0  0  0
  -27.4359  -31.3283   23.4411 C   0  0  0  0  0  0  0  0  0  0  0  0
  -27.5947  -32.0669   21.0637 C   0  0  0  0  0  0  0  0  0  0  0  0
  -21.1885  -29.7678   21.8026 C   0  0  0  0  0  0  0  0  0  0  0  0
  -30.8162  -16.7776   22.2211 C   0  0  0  0  0  0  0  0  0  0  0  0
  -25.4647  -20.6623   23.6911 C   0  0  0  0  0  0  0  0  0  0  0  0
  -24.8586  -21.3743   22.4978 C   0  0  0  0  0  0  0  0  0  1  0  0
  -26.1604  -30.0684   21.6476 C   0  0  1  0  0  0  0  0  0  0  0  0
  -22.7885  -31.5059   22.6135 C   0  0  2  0  0  0  0  0  0  0  0  0
  -27.4743  -30.8302   21.9806 C   0  0  0  0  0  0  0  0  0  0  0  0
  -25.8609  -11.5556   20.2448 N   0  0  0  0  0  0  0  0  0  0  0  0
  -26.2239  -12.8495   20.2290 N   0  0  0  0  0  0  0  0  0  0  0  0
  -26.0238  -28.1436   20.0982 N   0  0  0  0  0  0  0  0  0  0  0  0
  -29.9583  -13.6451   20.4020 N   0  0  0  0  0  0  0  0  0  0  0  0
  -25.4483  -15.0349   20.7117 N   0  0  0  0  0  0  0  0  0  0  0  0
  -21.9202  -12.4205   21.7668 N   0  0  0  0  0  0  0  0  0  0  0  0
  -28.1804  -27.2007   17.4169 N   0  0  0  0  0  0  0  0  0  0  0  0
  -24.9512  -30.8719   21.7907 N   0  0  0  0  0  0  0  0  0  0  0  0
  -30.1489  -15.5923   21.7308 N   0  0  0  0  0  0  0  0  0  0  0  0
  -26.7982  -21.2930   24.0243 N   0  3  2  0  0  0  0  0  0  0  0  0
  -21.4855  -30.8118   22.8169 N   0  3  0  0  0  0  0  0  0  0  0  0
  -22.6706  -14.5853   21.6704 O   0  0  0  0  0  0  0  0  0  0  0  0
  -28.2147  -26.7126   19.6935 O   0  0  0  0  0  0  0  0  0  0  0  0
  -26.2365  -30.3203   19.2902 O   0  0  0  0  0  0  0  0  0  0  0  0
  -23.9173  -29.5002   23.3484 O   0  0  0  0  0  0  0  0  0  0  0  0
  -31.8496  -14.9844   20.3184 O   0  0  0  0  0  0  0  0  0  0  0  0
  -21.6929   -6.8699   21.3497 O   0  0  0  0  0  0  0  0  0  0  0  0
  -24.6878  -22.7522   22.8023 O   0  0  0  0  0  0  0  0  0  1  0  0
  -18.8451   -6.2385   26.0289 F   0  0  0  0  0  0  0  0  0  0  0  0
  -22.2160   -4.7572   23.0543 F   0  0  0  0  0  0  0  0  0  0  0  0
  1  2  1  0  0  0  0
  1  5  2  0  0  0  0
  2  6  2  0  0  0  0
  3  8  2  0  0  0  0
  3 17  1  0  0  0  0
  4  9  1  0  0  0  0
  4 17  2  0  0  0  0
  5 19  1  0  0  0  0
  6 21  1  0  0  0  0
  7 10  2  0  0  0  0
  7 20  1  0  0  0  0
  8 27  1  0  0  0  0
  9 27  2  0  0  0  0
 10 28  1  0  0  0  0
 11 12  2  0  0  0  0
 11 29  1  0  0  0  0
 12 30  1  0  0  0  0
 13 22  1  0  0  0  0
 13 25  2  0  0  0  0
 14 23  1  0  0  0  0
 14 26  2  0  0  0  0
 15 24  1  0  0  0  0
 15 28  2  0  0  0  0
 16 30  2  0  0  0  0
 16 31  1  0  0  0  0
 17 32  1  0  0  0  0
 18 32  1  0  0  0  0
 18 33  2  0  0  0  0
 18 34  1  0  0  0  0
 19 21  2  0  0  0  0
 19 39  1  0  0  0  0
 20 24  2  0  0  0  0
 20 40  1  0  0  0  0
 21 49  1  0  0  0  0
 22 23  2  0  0  0  0
 22 41  1  0  0  0  0
 23 50  1  0  0  0  0
 24 42  1  0  0  0  0
 25 26  1  0  0  0  0
 25 54  1  0  0  0  0
 26 62  1  0  0  0  0
 27 84  1  0  0  0  0
 28 85  1  0  0  0  0
 29 31  2  0  0  0  0
 29 84  1  0  0  0  0
 30 86  1  0  0  0  0
 31 87  1  0  0  0  0
 32 68  2  0  0  0  0
 33 69  1  0  0  0  0
 33 72  1  0  0  0  0
 34 73  1  0  0  0  0
 34 79  2  0  0  0  0
 35 51  1  0  0  0  0
 35 74  1  0  0  0  0
 35 80  2  0  0  0  0
 36 65  1  0  0  0  0
 36 70  1  0  0  0  0
 36 81  2  0  0  0  0
 37 66  1  0  0  0  0
 37 75  1  0  0  0  0
 37 82  2  0  0  0  0
 38 71  1  0  0  0  0
 38 76  1  0  0  0  0
 38 83  2  0  0  0  0
 39 43  1  0  0  0  0
 40 51  1  0  0  0  0
 41 53  1  0  0  0  0
 42 70  1  0  0  0  0
 43 45  1  0  0  0  0
 44 46  1  0  0  0  0
 44 47  1  0  0  0  0
 45 49  1  0  0  0  0
 46 52  1  0  0  0  0
 47 71  1  0  0  0  0
 48 52  1  0  0  0  0
 48 71  1  0  0  0  0
 49 74  1  0  0  0  0
 50 55  1  0  0  0  0
 50 77  1  0  0  0  0
 51 70  1  0  0  0  0
 52 69  1  0  0  0  0
 53 56  1  0  0  0  0
 53 77  1  0  0  0  0
 57 66  1  0  0  0  0
 58 67  1  0  0  0  0
 59 67  1  0  0  0  0
 60 67  1  0  0  0  0
 61 78  1  0  0  0  0
 62 76  1  0  0  0  0
 63 64  1  0  0  0  0
 63 77  1  0  0  0  0
 64 85  1  0  0  0  0
 65 67  1  0  0  0  0
 65 75  1  0  0  0  0
 66 78  1  0  0  0  0
 68 69  1  0  0  0  0
M  CHG  2  77   1  78   1
M  ISO  4  38 100  64 101  76 100  85 101
M  END
> <Batch ID>
0156

> <Smiles>
CNC(C)C(=O)NC(C(=O)N1Cc2cc([101O:1][101CH2:1]CN3C(C)Cc4cc(C)c(C[100NH:0][100C:0](=O)N5CCCC(n6nc(-c7ccc(Oc8ccc(F)cc8F)cc7)c(C(N)=O)c6N)C5)cc4C3C)ccc2CC1C(=O)NC1CCCc2ccccc21)C(C)(C)C

> <Shape>
0.274

> <Color>
0.216

> <Negative vol penalty>
0.000

$$$$

  -OEChem-04052321563D

 86 95  0     1  0  0  0  0  0999 V2000
  -29.2574  -33.9992   27.5049 C   0  0  0  0  0  0  0  0  0  0  0  0
  -28.9339  -32.8356   26.8143 C   0  0  0  0  0  0  0  0  0  0  0  0
  -26.5528   -8.3321   22.0973 C   0  0  0  0  0  0  0  0  0  0  0  0
  -24.7529   -8.0210   20.5160 C   0  0  0  0  0  0  0  0  0  0  0  0
  -28.3216  -35.0270   27.6136 C   0  0  0  0  0  0  0  0  0  0  0  0
  -27.6739  -32.6988   26.2327 C   0  0  0  0  0  0  0  0  0  0  0  0
  -27.8963  -30.8232   21.5341 C   0  0  0  0  0  0  0  0  0  0  0  0
  -26.0735   -7.2624   22.8533 C   0  0  0  0  0  0  0  0  0  0  0  0
  -24.2736   -6.9512   21.2719 C   0  0  0  0  0  0  0  0  0  0  0  0
  -28.0968  -29.4494   21.4057 C   0  0  0  0  0  0  0  0  0  0  0  0
  -22.4690   -6.5073   24.0963 C   0  0  0  0  0  0  0  0  0  0  0  0
  -21.0965   -6.4478   24.3377 C   0  0  0  0  0  0  0  0  0  0  0  0
  -25.7352  -29.1472   21.0175 C   0  0  0  0  0  0  0  0  0  0  0  0
  -29.0221  -24.4892   21.9950 C   0  0  0  0  0  0  0  0  0  0  0  0
  -28.1801  -23.3610   19.5865 C   0  0  0  0  0  0  0  0  0  0  0  0
  -20.9924   -4.3090   23.2188 C   0  0  0  0  0  0  0  0  0  0  0  0
  -25.8924   -8.7115   20.9287 C   0  0  0  0  0  0  0  0  0  0  0  0
  -27.3203   -9.7639   19.0952 C   0  0  0  0  0  0  0  0  0  0  0  0
  -27.0529  -34.9066   27.0248 C   0  0  0  0  0  0  0  0  0  0  0  0
  -26.6100  -31.3689   21.4158 C   0  0  0  0  0  0  0  0  0  0  0  0
  -26.7198  -33.7254   26.3347 C   0  0  0  0  0  0  0  0  0  0  0  0
  -25.5215  -30.5284   21.1423 C   0  0  0  0  0  0  0  0  0  0  0  0
  -28.5683  -25.3091   20.9619 C   0  0  0  0  0  0  0  0  0  0  0  0
  -29.0551  -23.1052   21.8239 C   0  0  0  0  0  0  0  0  0  0  0  0
  -28.1472  -24.7450   19.7576 C   0  0  0  0  0  0  0  0  0  0  0  0
  -24.9339   -6.5719   22.4406 C   0  0  0  0  0  0  0  0  0  0  0  0
  -27.0158  -28.6109   21.1503 C   0  0  0  0  0  0  0  0  0  0  0  0
  -23.1033   -5.4676   23.4161 C   0  0  0  0  0  0  0  0  0  0  0  0
  -28.6340  -22.5412   20.6197 C   0  0  0  0  0  0  0  0  0  0  0  0
  -20.3582   -5.3486   23.8990 C   0  0  0  0  0  0  0  0  0  0  0  0
  -22.3650   -4.3685   22.9774 C   0  0  0  0  0  0  0  0  0  0  0  0
  -26.3867   -9.8168   20.1476 C   0  0  0  0  0  0  0  0  0  0  0  0
  -27.4521  -11.0687   18.6872 C   0  0  0  0  0  0  0  0  0  0  0  0
  -28.0068   -8.6360   18.5364 C   0  0  0  0  0  0  0  0  0  0  0  0
  -24.6729  -32.9861   23.3487 C   0  0  0  0  0  0  0  0  0  0  0  0
  -22.8423  -33.2187   20.6809 C   0  0  0  0  0  0  0  0  0  0  0  0
  -21.9937  -31.9475   17.6295 C   0  0  0  0  0  0  0  0  0  0  0  0
  -28.0598  -16.3239   19.5965 C   0  0  0  0  0  0  0  0  0  0  0  0
  -26.0580  -36.0250   27.2093 C   0  0  0  0  0  0  0  0  0  0  0  0
  -26.4144  -32.8558   21.5303 C   0  0  0  0  0  0  0  0  0  0  0  0
  -24.1235  -31.0668   20.9863 C   0  0  0  0  0  0  0  0  0  0  0  0
  -24.8770  -35.9549   26.2445 C   0  0  0  0  0  0  0  0  0  0  0  0
  -24.7504  -15.1787   19.8383 C   0  0  0  0  0  0  0  0  0  0  0  0
  -24.3186  -34.5366   26.1863 C   0  0  0  0  0  0  0  0  0  0  0  0
  -24.9540  -13.6639   19.8563 C   0  0  0  0  0  0  0  0  0  0  0  0
  -27.4642  -19.8897   18.7732 C   0  0  0  0  0  0  0  0  0  0  0  0
  -27.0793  -19.5403   21.2510 C   0  0  0  0  0  0  0  0  0  0  0  0
  -25.8041  -15.9085   20.6731 C   0  0  0  0  0  0  0  0  0  0  0  0
  -28.3242  -18.6270   18.7539 C   0  0  0  0  0  0  0  0  0  0  0  0
  -27.9506  -18.2886   21.1757 C   0  0  0  0  0  0  0  0  0  0  0  0
  -27.4017  -14.0518   20.3318 C   0  0  0  0  0  0  0  0  0  0  0  0
  -25.3722  -33.5497   25.6690 C   0  0  1  0  0  0  0  0  0  0  0  0
  -24.9865  -33.2438   21.9020 C   0  0  1  0  0  0  0  0  0  0  0  0
  -26.3930  -13.2950   19.4538 C   0  0  1  0  0  0  0  0  0  0  0  0
  -27.4159  -20.5494   20.1518 C   0  0  0  0  0  0  0  0  0  0  0  0
  -29.5430  -22.2427   22.9408 C   0  0  0  0  0  0  0  0  0  0  0  0
  -27.6572  -25.6022   18.6371 C   0  0  0  0  0  0  0  0  0  0  0  0
  -20.4375  -32.3322   15.6989 C   0  0  0  0  0  0  0  0  0  0  0  0
  -20.5342  -32.0754   22.3167 C   0  0  0  0  0  0  0  0  0  0  0  0
  -19.3394  -31.5994   20.1686 C   0  0  0  0  0  0  0  0  0  0  0  0
  -19.9008  -33.9499   20.7872 C   0  0  0  0  0  0  0  0  0  0  0  0
  -24.2419  -32.3375   15.7448 C   0  0  0  0  0  0  0  0  0  0  0  0
  -28.5434  -26.7882   21.1669 C   0  0  0  0  0  0  0  0  0  1  0  0
  -21.7481  -32.3849   20.0591 C   0  0  1  0  0  0  0  0  0  0  0  0
  -21.8167  -32.6111   16.2758 C   0  0  2  0  0  0  0  0  0  0  0  0
  -20.4065  -32.4917   20.8377 C   0  0  0  0  0  0  0  0  0  0  0  0
  -25.9561  -11.0571   20.3930 N   0  0  0  0  0  0  0  0  0  0  0  0
  -26.6221  -11.7956   19.4891 N   0  0  0  0  0  0  0  0  0  0  0  0
  -23.9825  -32.5268   21.1132 N   0  0  0  0  0  0  0  0  0  0  0  0
  -27.1576  -15.4947   20.2799 N   0  0  0  0  0  0  0  0  0  0  0  0
  -27.9519  -17.7058   19.8271 N   0  0  0  0  0  0  0  0  0  0  0  0
  -28.1959  -11.6537   17.7245 N   0  0  0  0  0  0  0  0  0  0  0  0
  -27.7546   -7.3666   19.0743 N   0  0  0  0  0  0  0  0  0  0  0  0
  -25.4999  -33.6544   24.2313 N   0  0  0  0  0  0  0  0  0  0  0  0
  -21.6632  -32.7987   18.6627 N   0  0  0  0  0  0  0  0  0  0  0  0
  -22.8386  -32.1081   15.3147 N   0  3  0  0  0  0  0  0  0  0  0  0
  -28.8322   -8.7527   17.5990 O   0  0  0  0  0  0  0  0  0  0  0  0
  -23.7482  -32.2376   23.6424 O   0  0  0  0  0  0  0  0  0  0  0  0
  -22.6938  -34.4398   20.7730 O   0  0  0  0  0  0  0  0  0  0  0  0
  -22.3825  -30.7886   17.7576 O   0  0  0  0  0  0  0  0  0  0  0  0
  -28.9084  -15.8608   18.8242 O   0  0  0  0  0  0  0  0  0  0  0  0
  -24.4661   -5.5278   23.1779 O   0  0  0  0  0  0  0  0  0  0  0  0
  -28.6612  -21.1840   20.4345 O   0  0  0  0  0  0  0  0  0  0  0  0
  -27.2099  -27.2601   21.0243 O   0  0  0  0  0  0  0  0  0  1  0  0
  -19.0405   -5.2909   24.1322 F   0  0  0  0  0  0  0  0  0  0  0  0
  -22.9689   -3.3662   22.3244 F   0  0  0  0  0  0  0  0  0  0  0  0
  1  2  1  0  0  0  0
  1  5  2  0  0  0  0
  2  6  2  0  0  0  0
  3  8  2  0  0  0  0
  3 17  1  0  0  0  0
  4  9  1  0  0  0  0
  4 17  2  0  0  0  0
  5 19  1  0  0  0  0
  6 21  1  0  0  0  0
  7 10  2  0  0  0  0
  7 20  1  0  0  0  0
  8 26  1  0  0  0  0
  9 26  2  0  0  0  0
 10 27  1  0  0  0  0
 11 12  2  0  0  0  0
 11 28  1  0  0  0  0
 12 30  1  0  0  0  0
 13 22  1  0  0  0  0
 13 27  2  0  0  0  0
 14 23  1  0  0  0  0
 14 24  2  0  0  0  0
 15 25  1  0  0  0  0
 15 29  2  0  0  0  0
 16 30  2  0  0  0  0
 16 31  1  0  0  0  0
 17 32  1  0  0  0  0
 18 32  1  0  0  0  0
 18 33  2  0  0  0  0
 18 34  1  0  0  0  0
 19 21  2  0  0  0  0
 19 39  1  0  0  0  0
 20 22  2  0  0  0  0
 20 40  1  0  0  0  0
 21 52  1  0  0  0  0
 22 41  1  0  0  0  0
 23 25  2  0  0  0  0
 23 63  1  0  0  0  0
 24 29  1  0  0  0  0
 24 56  1  0  0  0  0
 25 57  1  0  0  0  0
 26 82  1  0  0  0  0
 27 84  1  0  0  0  0
 28 31  2  0  0  0  0
 28 82  1  0  0  0  0
 29 83  1  0  0  0  0
 30 85  1  0  0  0  0
 31 86  1  0  0  0  0
 32 67  2  0  0  0  0
 33 68  1  0  0  0  0
 33 72  1  0  0  0  0
 34 73  1  0  0  0  0
 34 77  2  0  0  0  0
 35 53  1  0  0  0  0
 35 74  1  0  0  0  0
 35 78  2  0  0  0  0
 36 64  1  0  0  0  0
 36 69  1  0  0  0  0
 36 79  2  0  0  0  0
 37 65  1  0  0  0  0
 37 75  1  0  0  0  0
 37 80  2  0  0  0  0
 38 70  1  0  0  0  0
 38 71  1  0  0  0  0
 38 81  2  0  0  0  0
 39 42  1  0  0  0  0
 40 53  1  0  0  0  0
 41 69  1  0  0  0  0
 42 44  1  0  0  0  0
 43 45  1  0  0  0  0
 43 48  1  0  0  0  0
 44 52  1  0  0  0  0
 45 54  1  0  0  0  0
 46 49  1  0  0  0  0
 46 55  1  0  0  0  0
 47 50  1  0  0  0  0
 47 55  1  0  0  0  0
 48 70  1  0  0  0  0
 49 71  1  0  0  0  0
 50 71  1  0  0  0  0
 51 54  1  0  0  0  0
 51 70  1  0  0  0  0
 52 74  1  0  0  0  0
 53 69  1  0  0  0  0
 54 68  1  0  0  0  0
 55 83  1  0  0  0  0
 58 65  1  0  0  0  0
 59 66  1  0  0  0  0
 60 66  1  0  0  0  0
 61 66  1  0  0  0  0
 62 76  1  0  0  0  0
 63 84  1  0  0  0  0
 64 66  1  0  0  0  0
 64 75  1  0  0  0  0
 65 76  1  0  0  0  0
 67 68  1  0  0  0  0
M  CHG  1  76   1
M  ISO  4  38 100  63 101  71 100  84 101
M  END
> <Batch ID>
0156

> <Smiles>
CNC(C)C(=O)NC(C(=O)N1Cc2cc([101O:1][101CH2:1]c3cc(C)c(OC4CC[100N:0]([100C:0](=O)N5CCCC(n6nc(-c7ccc(Oc8ccc(F)cc8F)cc7)c(C(N)=O)c6N)C5)CC4)cc3C)ccc2CC1C(=O)NC1CCCc2ccccc21)C(C)(C)C

> <Shape>
0.231

> <Color>
0.076

> <Negative vol penalty>
0.000

$$$$

  -OEChem-04052321563D

 88 97  0     1  0  0  0  0  0999 V2000
  -20.7286  -29.6264   25.5699 C   0  0  0  0  0  0  0  0  0  0  0  0
  -21.9127  -29.1083   25.0550 C   0  0  0  0  0  0  0  0  0  0  0  0
  -24.1223  -12.4480   19.8105 C   0  0  0  0  0  0  0  0  0  0  0  0
  -26.2665  -12.7058   20.8936 C   0  0  0  0  0  0  0  0  0  0  0  0
  -19.5147  -29.3402   24.9465 C   0  0  0  0  0  0  0  0  0  0  0  0
  -21.8834  -28.3029   23.9171 C   0  0  0  0  0  0  0  0  0  0  0  0
  -25.4896  -29.5253   20.5785 C   0  0  0  0  0  0  0  0  0  0  0  0
  -24.1027  -11.1004   20.1701 C   0  0  0  0  0  0  0  0  0  0  0  0
  -26.2468  -11.3583   21.2533 C   0  0  0  0  0  0  0  0  0  0  0  0
  -26.7840  -29.0835   20.8491 C   0  0  0  0  0  0  0  0  0  0  0  0
  -23.4324   -9.2690   22.9323 C   0  0  0  0  0  0  0  0  0  0  0  0
  -22.2466   -8.7554   23.4573 C   0  0  0  0  0  0  0  0  0  0  0  0
  -26.4807  -27.2627   19.2960 C   0  0  0  0  0  0  0  0  0  0  0  0
  -22.1323   -7.1643   21.6428 C   0  0  0  0  0  0  0  0  0  0  0  0
  -25.2043  -13.2507   20.1722 C   0  0  0  0  0  0  0  0  0  0  0  0
  -24.7208  -15.7281   20.5414 C   0  0  0  0  0  0  0  0  0  0  0  0
  -19.4716  -28.5388   23.7948 C   0  0  0  0  0  0  0  0  0  0  0  0
  -24.6758  -28.8316   19.6713 C   0  0  0  0  0  0  0  0  0  0  0  0
  -20.6676  -28.0047   23.2786 C   0  0  0  0  0  0  0  0  0  0  0  0
  -25.1773  -27.6992   19.0138 C   0  0  0  0  0  0  0  0  0  0  0  0
  -29.5485  -24.3975   21.1878 C   0  0  0  0  0  0  0  0  0  0  0  0
  -29.3501  -25.3128   22.2155 C   0  0  0  0  0  0  0  0  0  0  0  0
  -28.9188  -23.1588   21.2365 C   0  0  0  0  0  0  0  0  0  0  0  0
  -25.1649  -10.5556   20.8916 C   0  0  0  0  0  0  0  0  0  0  0  0
  -27.2787  -27.9504   20.2100 C   0  0  0  0  0  0  0  0  0  0  0  0
  -23.9682   -8.7303   21.7624 C   0  0  0  0  0  0  0  0  0  0  0  0
  -21.5966   -7.7031   22.8126 C   0  0  0  0  0  0  0  0  0  0  0  0
  -23.3181   -7.6779   21.1177 C   0  0  0  0  0  0  0  0  0  0  0  0
  -25.2254  -14.6426   19.8005 C   0  0  0  0  0  0  0  0  0  0  0  0
  -28.5193  -24.9439   23.2611 C   0  0  0  0  0  0  0  0  0  0  0  0
  -28.1075  -22.8862   22.3261 C   0  0  0  0  0  0  0  0  0  0  0  0
  -24.9835  -16.8278   19.7616 C   0  0  0  0  0  0  0  0  0  0  0  0
  -24.0727  -15.7412   21.8203 C   0  0  0  0  0  0  0  0  0  0  0  0
  -21.9013  -27.2932   19.8691 C   0  0  0  0  0  0  0  0  0  0  0  0
  -22.2354  -27.0791   16.6496 C   0  0  0  0  0  0  0  0  0  0  0  0
  -24.3193  -27.0751   13.9470 C   0  0  0  0  0  0  0  0  0  0  0  0
  -28.1974  -19.8060   16.4928 C   0  0  0  0  0  0  0  0  0  0  0  0
  -18.1307  -28.2183   23.1833 C   0  0  0  0  0  0  0  0  0  0  0  0
  -23.2913  -29.3365   19.3703 C   0  0  0  0  0  0  0  0  0  0  0  0
  -24.3511  -26.9308   18.0161 C   0  0  0  0  0  0  0  0  0  0  0  0
  -18.2253  -27.6640   21.7641 C   0  0  0  0  0  0  0  0  0  0  0  0
  -26.5376  -17.1896   14.9695 C   0  0  0  0  0  0  0  0  0  0  0  0
  -19.2972  -26.5817   21.6840 C   0  0  0  0  0  0  0  0  0  0  0  0
  -25.9976  -16.3713   16.1423 C   0  0  0  0  0  0  0  0  0  0  0  0
  -29.8176  -19.8488   19.8512 C   0  0  0  0  0  0  0  0  0  0  0  0
  -27.9543  -17.6771   15.2509 C   0  0  0  0  0  0  0  0  0  0  0  0
  -30.1973  -21.2508   20.3258 C   0  0  0  0  0  0  0  0  0  0  0  0
  -29.9086  -19.6583   18.3415 C   0  0  0  0  0  0  0  0  0  0  0  0
  -28.1986  -22.2473   19.0642 C   0  0  0  0  0  0  0  0  0  0  0  0
  -28.8563  -21.8321   17.7503 C   0  0  0  0  0  0  0  0  0  0  0  0
  -27.5431  -17.6710   17.6884 C   0  0  0  0  0  0  0  0  0  0  0  0
  -20.6794  -27.1473   22.0316 C   0  0  1  0  0  0  0  0  0  0  0  0
  -22.3690  -28.2559   18.8145 C   0  0  1  0  0  0  0  0  0  0  0  0
  -26.1070  -17.1581   17.4603 C   0  0  2  0  0  0  0  0  0  0  0  0
  -30.4361  -24.7472   20.0350 C   0  0  0  0  0  0  0  0  0  0  0  0
  -28.2662  -25.8861   24.3925 C   0  0  0  0  0  0  0  0  0  0  0  0
  -27.4036  -21.5726   22.4371 C   0  0  0  0  0  0  0  0  0  0  0  0
  -24.3044  -26.8426   11.4484 C   0  0  0  0  0  0  0  0  0  0  0  0
  -21.8414  -24.0668   16.9347 C   0  0  0  0  0  0  0  0  0  0  0  0
  -22.7657  -23.7975   14.6235 C   0  0  0  0  0  0  0  0  0  0  0  0
  -20.6640  -25.0927   14.9813 C   0  0  0  0  0  0  0  0  0  0  0  0
  -25.4445  -29.7865   13.5719 C   0  0  0  0  0  0  0  0  0  0  0  0
  -30.0104  -26.6507   22.1919 C   0  0  0  0  0  0  0  0  0  0  0  0
  -29.0610  -27.7778   21.7751 C   0  0  0  0  0  0  0  0  0  1  0  0
  -22.8722  -26.0891   15.7044 C   0  0  1  0  0  0  0  0  0  0  0  0
  -24.2500  -27.8100   12.6205 C   0  0  2  0  0  0  0  0  0  0  0  0
  -22.0510  -24.7747   15.5812 C   0  0  0  0  0  0  0  0  0  0  0  0
  -25.7675  -15.0186   18.6391 N   0  0  0  0  0  0  0  0  0  0  0  0
  -27.8906  -23.7500   23.3432 N   0  0  0  0  0  0  0  0  0  0  0  0
  -25.6049  -16.3526   18.6443 N   0  0  0  0  0  0  0  0  0  0  0  0
  -29.1016  -22.2158   20.2168 N   0  0  3  0  0  0  0  0  0  0  0  0
  -23.0014  -27.4604   17.7603 N   0  0  0  0  0  0  0  0  0  0  0  0
  -28.0182  -18.4142   16.5129 N   0  0  0  0  0  0  0  0  0  0  0  0
  -28.8809  -20.3787   17.5844 N   0  0  0  0  0  0  0  0  0  0  0  0
  -24.7411  -18.1452   19.9293 N   0  0  0  0  0  0  0  0  0  0  0  0
  -23.8825  -14.5223   22.4854 N   0  0  0  0  0  0  0  0  0  0  0  0
  -21.2181  -27.8893   20.9118 N   0  0  0  0  0  0  0  0  0  0  0  0
  -23.0632  -26.7950   14.4419 N   0  0  0  0  0  0  0  0  0  0  0  0
  -25.3888  -28.7632   12.4964 N   0  3  0  0  0  0  0  0  0  0  0  0
  -23.6594  -16.8006   22.3498 O   0  0  0  0  0  0  0  0  0  0  0  0
  -22.1413  -26.0979   19.7451 O   0  0  0  0  0  0  0  0  0  0  0  0
  -21.1030  -27.5040   16.4075 O   0  0  0  0  0  0  0  0  0  0  0  0
  -25.3815  -26.7758   14.4880 O   0  0  0  0  0  0  0  0  0  0  0  0
  -27.7746  -20.4928   15.5543 O   0  0  0  0  0  0  0  0  0  0  0  0
  -25.1459   -9.2407   21.2429 O   0  0  0  0  0  0  0  0  0  0  0  0
  -28.5504  -27.5136   20.4746 O   0  0  0  0  0  0  0  0  0  1  0  0
  -20.4587   -7.2089   23.3178 F   0  0  0  0  0  0  0  0  0  0  0  0
  -23.8286   -7.1555   19.9942 F   0  0  0  0  0  0  0  0  0  0  0  0
  1  2  1  0  0  0  0
  1  5  2  0  0  0  0
  2  6  2  0  0  0  0
  3  8  2  0  0  0  0
  3 15  1  0  0  0  0
  4  9  1  0  0  0  0
  4 15  2  0  0  0  0
  5 17  1  0  0  0  0
  6 19  1  0  0  0  0
  7 10  2  0  0  0  0
  7 18  1  0  0  0  0
  8 24  1  0  0  0  0
  9 24  2  0  0  0  0
 10 25  1  0  0  0  0
 11 12  2  0  0  0  0
 11 26  1  0  0  0  0
 12 27  1  0  0  0  0
 13 20  1  0  0  0  0
 13 25  2  0  0  0  0
 14 27  2  0  0  0  0
 14 28  1  0  0  0  0
 15 29  1  0  0  0  0
 16 29  1  0  0  0  0
 16 32  2  0  0  0  0
 16 33  1  0  0  0  0
 17 19  2  0  0  0  0
 17 38  1  0  0  0  0
 18 20  2  0  0  0  0
 18 39  1  0  0  0  0
 19 52  1  0  0  0  0
 20 40  1  0  0  0  0
 21 22  2  0  0  0  0
 21 23  1  0  0  0  0
 21 55  1  0  0  0  0
 22 30  1  0  0  0  0
 22 63  1  0  0  0  0
 23 31  2  0  0  0  0
 23 71  1  0  0  0  0
 24 85  1  0  0  0  0
 25 86  1  0  0  0  0
 26 28  2  0  0  0  0
 26 85  1  0  0  0  0
 27 87  1  0  0  0  0
 28 88  1  0  0  0  0
 29 68  2  0  0  0  0
 30 56  1  0  0  0  0
 30 69  2  0  0  0  0
 31 57  1  0  0  0  0
 31 69  1  0  0  0  0
 32 70  1  0  0  0  0
 32 75  1  0  0  0  0
 33 76  1  0  0  0  0
 33 80  2  0  0  0  0
 34 53  1  0  0  0  0
 34 77  1  0  0  0  0
 34 81  2  0  0  0  0
 35 65  1  0  0  0  0
 35 72  1  0  0  0  0
 35 82  2  0  0  0  0
 36 66  1  0  0  0  0
 36 78  1  0  0  0  0
 36 83  2  0  0  0  0
 37 73  1  0  0  0  0
 37 74  1  0  0  0  0
 37 84  2  0  0  0  0
 38 41  1  0  0  0  0
 39 53  1  0  0  0  0
 40 72  1  0  0  0  0
 41 43  1  0  0  0  0
 42 44  1  0  0  0  0
 42 46  1  0  0  0  0
 43 52  1  0  0  0  0
 44 54  1  0  0  0  0
 45 47  1  0  0  0  0
 45 48  1  0  0  0  0
 46 73  1  0  0  0  0
 47 71  1  0  0  0  0
 48 74  1  0  0  0  0
 49 50  1  0  0  0  0
 49 71  1  0  0  0  0
 50 74  1  0  0  0  0
 51 54  1  0  0  0  0
 51 73  1  0  0  0  0
 52 77  1  0  0  0  0
 53 72  1  0  0  0  0
 54 70  1  0  0  0  0
 58 66  1  0  0  0  0
 59 67  1  0  0  0  0
 60 67  1  0  0  0  0
 61 67  1  0  0  0  0
 62 79  1  0  0  0  0
 63 64  1  0  0  0  0
 64 86  1  0  0  0  0
 65 67  1  0  0  0  0
 65 78  1  0  0  0  0
 66 79  1  0  0  0  0
 68 70  1  0  0  0  0
M  CHG  1  79   1
M  ISO  4  37 100  64 101  74 100  86 101
M  END
> <Batch ID>
0156

> <Smiles>
CNC(C)C(=O)NC(C(=O)N1Cc2cc([101O:1][101CH2:1]Cc3c(C)nc(C)c(N4CCC[100N:0]([100C:0](=O)N5CCCC(n6nc(-c7ccc(Oc8ccc(F)cc8F)cc7)c(C(N)=O)c6N)C5)CC4)c3C)ccc2CC1C(=O)NC1CCCc2ccccc21)C(C)(C)C

> <Shape>
0.226

> <Color>
0.059

> <Negative vol penalty>
0.000

$$$$

  -OEChem-04052321563D

 87 96  0     1  0  0  0  0  0999 V2000
  -23.6721  -35.2341   22.3918 C   0  0  0  0  0  0  0  0  0  0  0  0
  -24.5975  -34.1976   22.3226 C   0  0  0  0  0  0  0  0  0  0  0  0
  -22.9481   -9.1927   19.5974 C   0  0  0  0  0  0  0  0  0  0  0  0
  -24.5145   -8.8370   21.4021 C   0  0  0  0  0  0  0  0  0  0  0  0
  -22.3736  -34.9795   22.8310 C   0  0  0  0  0  0  0  0  0  0  0  0
  -24.2252  -32.9061   22.6937 C   0  0  0  0  0  0  0  0  0  0  0  0
  -25.8415  -29.4008   19.4156 C   0  0  0  0  0  0  0  0  0  0  0  0
  -29.2876  -24.7510   19.8422 C   0  0  0  0  0  0  0  0  0  0  0  0
  -29.1468  -23.3846   19.5996 C   0  0  0  0  0  0  0  0  0  0  0  0
  -21.9321   -8.6270   20.3676 C   0  0  0  0  0  0  0  0  0  0  0  0
  -23.4985   -8.2713   22.1724 C   0  0  0  0  0  0  0  0  0  0  0  0
  -27.1828  -29.0283   19.4917 C   0  0  0  0  0  0  0  0  0  0  0  0
  -21.8908   -5.3046   22.3845 C   0  0  0  0  0  0  0  0  0  0  0  0
  -22.1781   -4.1244   23.0701 C   0  0  0  0  0  0  0  0  0  0  0  0
  -26.5577  -27.0527   20.7268 C   0  0  0  0  0  0  0  0  0  0  0  0
  -28.6153  -23.0259   21.9290 C   0  0  0  0  0  0  0  0  0  0  0  0
  -21.6870   -5.2222   25.1656 C   0  0  0  0  0  0  0  0  0  0  0  0
  -24.2393   -9.2976   20.1146 C   0  0  0  0  0  0  0  0  0  0  0  0
  -25.7606   -9.4316   18.0712 C   0  0  0  0  0  0  0  0  0  0  0  0
  -21.9824  -33.6823   23.1985 C   0  0  0  0  0  0  0  0  0  0  0  0
  -24.8476  -28.6064   20.0049 C   0  0  0  0  0  0  0  0  0  0  0  0
  -22.9206  -32.6341   23.1395 C   0  0  0  0  0  0  0  0  0  0  0  0
  -25.2043  -27.4160   20.6545 C   0  0  0  0  0  0  0  0  0  0  0  0
  -29.0923  -25.2548   21.1281 C   0  0  0  0  0  0  0  0  0  0  0  0
  -28.8107  -22.5221   20.6430 C   0  0  0  0  0  0  0  0  0  0  0  0
  -22.2073   -8.1663   21.6552 C   0  0  0  0  0  0  0  0  0  0  0  0
  -27.5414  -27.8555   20.1499 C   0  0  0  0  0  0  0  0  0  0  0  0
  -21.5017   -6.4437   23.0894 C   0  0  0  0  0  0  0  0  0  0  0  0
  -28.7561  -24.3922   22.1715 C   0  0  0  0  0  0  0  0  0  0  0  0
  -22.0761   -4.0832   24.4607 C   0  0  0  0  0  0  0  0  0  0  0  0
  -21.3997   -6.4025   24.4799 C   0  0  0  0  0  0  0  0  0  0  0  0
  -25.2894   -9.8814   19.3191 C   0  0  0  0  0  0  0  0  0  0  0  0
  -26.7541  -10.3198   17.7388 C   0  0  0  0  0  0  0  0  0  0  0  0
  -25.3380   -8.3110   17.2828 C   0  0  0  0  0  0  0  0  0  0  0  0
  -22.7059  -29.0390   22.3136 C   0  0  0  0  0  0  0  0  0  0  0  0
  -21.6867  -26.1032   21.3837 C   0  0  0  0  0  0  0  0  0  0  0  0
  -22.4121  -23.1261   19.8814 C   0  0  0  0  0  0  0  0  0  0  0  0
  -27.6309  -15.9793   19.5977 C   0  0  0  0  0  0  0  0  0  0  0  0
  -20.5811  -33.4648   23.7120 C   0  0  0  0  0  0  0  0  0  0  0  0
  -23.4027  -29.0084   19.8908 C   0  0  0  0  0  0  0  0  0  0  0  0
  -24.1735  -26.5177   21.2861 C   0  0  0  0  0  0  0  0  0  0  0  0
  -20.1601  -31.9975   23.7304 C   0  0  0  0  0  0  0  0  0  0  0  0
  -29.3646  -12.7814   20.8415 C   0  0  0  0  0  0  0  0  0  0  0  0
  -21.2604  -31.1341   24.3392 C   0  0  0  0  0  0  0  0  0  0  0  0
  -29.0999  -12.0211   19.5454 C   0  0  0  0  0  0  0  0  0  0  0  0
  -27.5680  -19.0001   20.8923 C   0  0  0  0  0  0  0  0  0  0  0  0
  -29.6886  -19.0650   19.5632 C   0  0  0  0  0  0  0  0  0  0  0  0
  -29.2110  -14.2849   20.6335 C   0  0  0  0  0  0  0  0  0  0  0  0
  -27.3829  -20.5009   20.6682 C   0  0  0  0  0  0  0  0  0  0  0  0
  -29.4970  -20.5638   19.3363 C   0  0  0  0  0  0  0  0  0  0  0  0
  -27.0483  -13.5665   19.6192 C   0  0  0  0  0  0  0  0  0  0  0  0
  -22.5476  -31.2150   23.5098 C   0  0  1  0  0  0  0  0  0  0  0  0
  -22.5227  -28.3881   20.9718 C   0  0  1  0  0  0  0  0  0  0  0  0
  -27.7509  -12.4027   18.8979 C   0  0  2  0  0  0  0  0  0  0  0  0
  -28.3509  -18.3518   19.7522 C   0  0  0  0  0  0  0  0  0  0  0  0
  -30.6823  -27.1152   21.7230 C   0  0  0  0  0  0  0  0  0  0  0  0
  -21.3873  -20.9091   19.3049 C   0  0  0  0  0  0  0  0  0  0  0  0
  -21.9478  -25.2282   24.2951 C   0  0  0  0  0  0  0  0  0  0  0  0
  -21.8461  -22.8507   23.5170 C   0  0  0  0  0  0  0  0  0  0  0  0
  -19.9084  -24.3727   23.1276 C   0  0  0  0  0  0  0  0  0  0  0  0
  -22.8151  -23.5628   16.9821 C   0  0  0  0  0  0  0  0  0  0  0  0
  -28.2212  -23.9165   24.4394 C   0  0  0  0  0  0  0  0  0  0  0  0
  -29.2486  -26.7384   21.3719 C   0  0  1  0  0  0  0  0  0  1  0  0
  -22.0201  -24.6831   21.7725 C   0  0  1  0  0  0  0  0  0  0  0  0
  -21.6727  -22.3239   18.8257 C   0  0  2  0  0  0  0  0  0  0  0  0
  -21.4504  -24.3014   23.1679 C   0  0  0  0  0  0  0  0  0  0  0  0
  -25.9309  -10.9707   19.7504 N   0  0  0  0  0  0  0  0  0  0  0  0
  -26.8154  -11.2127   18.7680 N   0  0  0  0  0  0  0  0  0  0  0  0
  -28.6700  -21.1500   20.3993 N   0  0  0  0  0  0  0  0  0  0  0  0
  -22.7747  -26.9571   21.1534 N   0  0  0  0  0  0  0  0  0  0  0  0
  -27.9794  -14.6543   19.9244 N   0  0  0  0  0  0  0  0  0  0  0  0
  -27.5726  -10.4163   16.6696 N   0  0  0  0  0  0  0  0  0  0  0  0
  -24.3040   -7.5016   17.7726 N   0  0  0  0  0  0  0  0  0  0  0  0
  -22.4366  -30.3943   22.3229 N   0  0  0  0  0  0  0  0  0  0  0  0
  -21.5447  -23.8390   20.6817 N   0  0  0  0  0  0  0  0  0  0  0  0
  -28.5511  -16.9427   20.0030 N   0  0  0  0  0  0  0  0  0  0  0  0
  -22.4810  -22.2429   17.5763 N   0  3  0  0  0  0  0  0  0  0  0  0
  -25.8730   -8.0261   16.1846 O   0  0  0  0  0  0  0  0  0  0  0  0
  -23.0637  -28.3615   23.2699 O   0  0  0  0  0  0  0  0  0  0  0  0
  -20.5046  -26.4405   21.2810 O   0  0  0  0  0  0  0  0  0  0  0  0
  -23.6365  -23.1179   19.9879 O   0  0  0  0  0  0  0  0  0  0  0  0
  -26.5917  -16.2763   19.0009 O   0  0  0  0  0  0  0  0  0  0  0  0
  -21.2161   -7.6145   22.4072 O   0  0  0  0  0  0  0  0  0  0  0  0
  -28.5621  -24.8682   23.4335 O   0  0  0  0  0  0  0  0  0  0  0  0
  -28.8500  -27.4899   20.2262 O   0  0  0  0  0  0  0  0  0  1  0  0
  -22.3505   -2.9493   25.1188 F   0  0  0  0  0  0  0  0  0  0  0  0
  -21.0253   -7.4932   25.1625 F   0  0  0  0  0  0  0  0  0  0  0  0
  1  2  1  0  0  0  0
  1  5  2  0  0  0  0
  2  6  2  0  0  0  0
  3 10  2  0  0  0  0
  3 18  1  0  0  0  0
  4 11  1  0  0  0  0
  4 18  2  0  0  0  0
  5 20  1  0  0  0  0
  6 22  1  0  0  0  0
  7 12  2  0  0  0  0
  7 21  1  0  0  0  0
  8  9  2  0  0  0  0
  8 24  1  0  0  0  0
  9 25  1  0  0  0  0
 10 26  1  0  0  0  0
 11 26  2  0  0  0  0
 12 27  1  0  0  0  0
 13 14  2  0  0  0  0
 13 28  1  0  0  0  0
 14 30  1  0  0  0  0
 15 23  1  0  0  0  0
 15 27  2  0  0  0  0
 16 25  2  0  0  0  0
 16 29  1  0  0  0  0
 17 30  2  0  0  0  0
 17 31  1  0  0  0  0
 18 32  1  0  0  0  0
 19 32  1  0  0  0  0
 19 33  2  0  0  0  0
 19 34  1  0  0  0  0
 20 22  2  0  0  0  0
 20 39  1  0  0  0  0
 21 23  2  0  0  0  0
 21 40  1  0  0  0  0
 22 52  1  0  0  0  0
 23 41  1  0  0  0  0
 24 29  2  0  0  0  0
 24 63  1  0  0  0  0
 25 69  1  0  0  0  0
 26 83  1  0  0  0  0
 27 85  1  0  0  0  0
 28 31  2  0  0  0  0
 28 83  1  0  0  0  0
 29 84  1  0  0  0  0
 30 86  1  0  0  0  0
 31 87  1  0  0  0  0
 32 67  2  0  0  0  0
 33 68  1  0  0  0  0
 33 72  1  0  0  0  0
 34 73  1  0  0  0  0
 34 78  2  0  0  0  0
 35 53  1  0  0  0  0
 35 74  1  0  0  0  0
 35 79  2  0  0  0  0
 36 64  1  0  0  0  0
 36 70  1  0  0  0  0
 36 80  2  0  0  0  0
 37 65  1  0  0  0  0
 37 75  1  0  0  0  0
 37 81  2  0  0  0  0
 38 71  1  0  0  0  0
 38 76  1  0  0  0  0
 38 82  2  0  0  0  0
 39 42  1  0  0  0  0
 40 53  1  0  0  0  0
 41 70  1  0  0  0  0
 42 44  1  0  0  0  0
 43 45  1  0  0  0  0
 43 48  1  0  0  0  0
 44 52  1  0  0  0  0
 45 54  1  0  0  0  0
 46 49  1  0  0  0  0
 46 55  1  0  0  0  0
 47 50  1  0  0  0  0
 47 55  1  0  0  0  0
 48 71  1  0  0  0  0
 49 69  1  0  0  0  0
 50 69  1  0  0  0  0
 51 54  1  0  0  0  0
 51 71  1  0  0  0  0
 52 74  1  0  0  0  0
 53 70  1  0  0  0  0
 54 68  1  0  0  0  0
 55 76  1  0  0  0  0
 56 63  1  0  0  0  0
 57 65  1  0  0  0  0
 58 66  1  0  0  0  0
 59 66  1  0  0  0  0
 60 66  1  0  0  0  0
 61 77  1  0  0  0  0
 62 84  1  0  0  0  0
 63 85  1  0  0  0  0
 64 66  1  0  0  0  0
 64 75  1  0  0  0  0
 65 77  1  0  0  0  0
 67 68  1  0  0  0  0
M  CHG  1  77   1
M  ISO  4  38 100  63 101  76 100  85 101
M  END
> <Batch ID>
0156

> <Smiles>
CNC(C)C(=O)NC(C(=O)N1Cc2cc([101O:1][101CH:1](C)c3ccc(N4CCC([100NH:0][100C:0](=O)N5CCCC(n6nc(-c7ccc(Oc8ccc(F)cc8F)cc7)c(C(N)=O)c6N)C5)CC4)cc3OC)ccc2CC1C(=O)NC1CCCc2ccccc21)C(C)(C)C

> <Shape>
0.277

> <Color>
0.095

> <Negative vol penalty>
0.000

$$$$

  -OEChem-04052321563D

 92101  0     1  0  0  0  0  0999 V2000
  -17.3137  -30.5329   23.4106 C   0  0  0  0  0  0  0  0  0  0  0  0
  -18.6343  -30.9434   23.2590 C   0  0  0  0  0  0  0  0  0  0  0  0
  -23.4317   -9.6914   19.9708 C   0  0  0  0  0  0  0  0  0  0  0  0
  -24.0307   -9.9322   22.2989 C   0  0  0  0  0  0  0  0  0  0  0  0
  -16.9987  -29.1751   23.3767 C   0  0  0  0  0  0  0  0  0  0  0  0
  -19.6408  -29.9962   23.0744 C   0  0  0  0  0  0  0  0  0  0  0  0
  -25.9111  -29.0926   19.7302 C   0  0  0  0  0  0  0  0  0  0  0  0
  -22.8454   -8.4568   20.2493 C   0  0  0  0  0  0  0  0  0  0  0  0
  -23.4444   -8.6975   22.5774 C   0  0  0  0  0  0  0  0  0  0  0  0
  -27.2238  -28.7011   19.9900 C   0  0  0  0  0  0  0  0  0  0  0  0
  -20.3309   -7.4689   23.0432 C   0  0  0  0  0  0  0  0  0  0  0  0
  -19.5123   -7.3812   24.1691 C   0  0  0  0  0  0  0  0  0  0  0  0
  -26.5514  -26.3876   19.8691 C   0  0  0  0  0  0  0  0  0  0  0  0
  -29.8732  -23.7412   23.1838 C   0  0  0  0  0  0  0  0  0  0  0  0
  -31.9967  -24.8838   23.0336 C   0  0  0  0  0  0  0  0  0  0  0  0
  -20.9668   -5.6886   25.0947 C   0  0  0  0  0  0  0  0  0  0  0  0
  -24.0244  -10.4291   20.9956 C   0  0  0  0  0  0  0  0  0  0  0  0
  -24.0090  -12.9670   20.7379 C   0  0  0  0  0  0  0  0  0  0  0  0
  -18.0007  -28.2113   23.1819 C   0  0  0  0  0  0  0  0  0  0  0  0
  -24.9049  -28.1329   19.5484 C   0  0  0  0  0  0  0  0  0  0  0  0
  -19.3391  -28.6242   23.0391 C   0  0  0  0  0  0  0  0  0  0  0  0
  -25.2273  -26.7694   19.6046 C   0  0  0  0  0  0  0  0  0  0  0  0
  -30.5363  -22.5450   23.4578 C   0  0  0  0  0  0  0  0  0  0  0  0
  -31.9295  -22.5181   23.5197 C   0  0  0  0  0  0  0  0  0  0  0  0
  -22.8518   -7.9598   21.5526 C   0  0  0  0  0  0  0  0  0  0  0  0
  -27.5435  -27.3485   20.0624 C   0  0  0  0  0  0  0  0  0  0  0  0
  -21.4675   -6.6664   22.9429 C   0  0  0  0  0  0  0  0  0  0  0  0
  -30.6035  -24.9106   22.9716 C   0  0  0  0  0  0  0  0  0  0  0  0
  -32.6597  -23.6875   23.3076 C   0  0  0  0  0  0  0  0  0  0  0  0
  -19.8303   -6.4911   25.1949 C   0  0  0  0  0  0  0  0  0  0  0  0
  -21.7854   -5.7763   23.9687 C   0  0  0  0  0  0  0  0  0  0  0  0
  -24.6306  -11.7043   20.7084 C   0  0  0  0  0  0  0  0  0  0  0  0
  -25.0043  -13.8479   20.3916 C   0  0  0  0  0  0  0  0  0  0  0  0
  -22.6531  -13.3128   21.0506 C   0  0  0  0  0  0  0  0  0  0  0  0
  -22.2084  -27.3958   21.0614 C   0  0  0  0  0  0  0  0  0  0  0  0
  -21.8288  -25.3502   18.5726 C   0  0  0  0  0  0  0  0  0  0  0  0
  -23.2737  -23.5161   16.0836 C   0  0  0  0  0  0  0  0  0  0  0  0
  -30.4041  -15.3883   21.3022 C   0  0  0  0  0  0  0  0  0  0  0  0
  -17.6180  -26.7526   23.1997 C   0  0  0  0  0  0  0  0  0  0  0  0
  -23.4990  -28.5713   19.2424 C   0  0  0  0  0  0  0  0  0  0  0  0
  -24.1877  -25.6996   19.3966 C   0  0  0  0  0  0  0  0  0  0  0  0
  -18.6932  -25.8338   22.6252 C   0  0  0  0  0  0  0  0  0  0  0  0
  -29.6281  -13.0543   18.5289 C   0  0  0  0  0  0  0  0  0  0  0  0
  -20.0627  -26.1954   23.1914 C   0  0  0  0  0  0  0  0  0  0  0  0
  -28.2365  -12.5478   18.9034 C   0  0  0  0  0  0  0  0  0  0  0  0
  -30.5190  -18.3397   23.1222 C   0  0  0  0  0  0  0  0  0  0  0  0
  -28.6188  -18.4215   21.4595 C   0  0  0  0  0  0  0  0  0  0  0  0
  -30.4326  -13.4623   19.7590 C   0  0  0  0  0  0  0  0  0  0  0  0
  -30.2566  -16.8465   23.2989 C   0  0  0  0  0  0  0  0  0  0  0  0
  -28.4107  -16.9161   21.6499 C   0  0  0  0  0  0  0  0  0  0  0  0
  -28.3491  -13.9518   21.0006 C   0  0  0  0  0  0  0  0  0  0  0  0
  -20.4557  -27.6283   22.8121 C   0  0  1  0  0  0  0  0  0  0  0  0
  -22.4553  -27.5123   19.5838 C   0  0  1  0  0  0  0  0  0  0  0  0
  -27.4976  -13.5744   19.7790 C   0  0  2  0  0  0  0  0  0  0  0  0
  -29.2349  -19.0540   22.7055 C   0  0  0  0  0  0  0  0  0  0  0  0
  -32.6455  -21.2388   23.8140 C   0  0  0  0  0  0  0  0  0  0  0  0
  -28.3395  -21.5845   24.2607 C   0  0  0  0  0  0  0  0  0  0  0  0
  -22.7102  -21.9142   14.2360 C   0  0  0  0  0  0  0  0  0  0  0  0
  -21.4431  -23.1242   20.6235 C   0  0  0  0  0  0  0  0  0  0  0  0
  -21.8362  -21.4635   18.7917 C   0  0  0  0  0  0  0  0  0  0  0  0
  -19.8905  -23.0195   18.6658 C   0  0  0  0  0  0  0  0  0  0  0  0
  -24.3469  -25.3419   14.0163 C   0  0  0  0  0  0  0  0  0  0  0  0
  -28.5342  -21.1181   21.5018 C   0  0  0  0  0  0  0  0  0  0  0  0
  -34.6853  -24.9216   23.1345 C   0  0  0  0  0  0  0  0  0  0  0  0
  -29.6195  -27.8395   21.1137 C   0  0  0  0  0  0  0  0  0  1  0  0
  -30.6396  -27.0269   21.8874 C   0  0  0  0  0  0  0  0  0  0  0  0
  -29.7221  -21.2919   23.6834 C   0  0  1  0  0  0  0  0  0  0  0  0
  -22.2236  -23.9199   18.2946 C   0  0  1  0  0  0  0  0  0  0  0  0
  -22.9327  -23.3710   14.6115 C   0  0  2  0  0  0  0  0  0  0  0  0
  -21.3678  -22.9017   19.0998 C   0  0  0  0  0  0  0  0  0  0  0  0
  -25.9209  -11.7725   20.3698 N   0  0  0  0  0  0  0  0  0  0  0  0
  -26.1181  -13.0887   20.1834 N   0  0  0  0  0  0  0  0  0  0  0  0
  -22.8262  -26.1786   19.1064 N   0  0  0  0  0  0  0  0  0  0  0  0
  -29.6911  -14.4019   20.6004 N   0  0  0  0  0  0  0  0  0  0  0  0
  -29.6544  -16.2701   22.0952 N   0  0  0  0  0  0  0  0  0  0  0  0
  -25.0266  -15.1900   20.2478 N   0  0  0  0  0  0  0  0  0  0  0  0
  -21.7616  -12.2846   21.3856 N   0  0  0  0  0  0  0  0  0  0  0  0
  -20.9101  -27.6810   21.4390 N   0  0  0  0  0  0  0  0  0  0  0  0
  -22.1499  -23.7500   16.8475 N   0  0  0  0  0  0  0  0  0  0  0  0
  -24.0369  -23.9103   13.7684 N   0  3  0  0  0  0  0  0  0  0  0  0
  -29.5422  -20.4803   22.4249 N   0  3  1  0  0  0  0  0  0  0  0  0
  -22.2402  -14.4969   21.0174 O   0  0  0  0  0  0  0  0  0  0  0  0
  -23.1273  -27.0698   21.8036 O   0  0  0  0  0  0  0  0  0  0  0  0
  -20.6800  -25.7208   18.3186 O   0  0  0  0  0  0  0  0  0  0  0  0
  -24.4217  -23.4270   16.5133 O   0  0  0  0  0  0  0  0  0  0  0  0
  -31.6358  -15.4758   21.2221 O   0  0  0  0  0  0  0  0  0  0  0  0
  -22.2796   -6.7552   21.8248 O   0  0  0  0  0  0  0  0  0  0  0  0
  -34.0212  -23.6807   23.3641 O   0  0  0  0  0  0  0  0  0  0  0  0
  -28.8326  -26.9611   20.3182 O   0  0  0  0  0  0  0  0  0  1  0  0
  -29.9565  -26.0781   22.7051 O   0  0  0  0  0  0  0  0  0  0  0  0
  -19.0449   -6.4080   26.2768 F   0  0  0  0  0  0  0  0  0  0  0  0
  -22.8766   -5.0037   23.8786 F   0  0  0  0  0  0  0  0  0  0  0  0
  1  2  1  0  0  0  0
  1  5  2  0  0  0  0
  2  6  2  0  0  0  0
  3  8  2  0  0  0  0
  3 17  1  0  0  0  0
  4  9  1  0  0  0  0
  4 17  2  0  0  0  0
  5 19  1  0  0  0  0
  6 21  1  0  0  0  0
  7 10  2  0  0  0  0
  7 20  1  0  0  0  0
  8 25  1  0  0  0  0
  9 25  2  0  0  0  0
 10 26  1  0  0  0  0
 11 12  2  0  0  0  0
 11 27  1  0  0  0  0
 12 30  1  0  0  0  0
 13 22  1  0  0  0  0
 13 26  2  0  0  0  0
 14 23  1  0  0  0  0
 14 28  2  0  0  0  0
 15 28  1  0  0  0  0
 15 29  2  0  0  0  0
 16 30  2  0  0  0  0
 16 31  1  0  0  0  0
 17 32  1  0  0  0  0
 18 32  1  0  0  0  0
 18 33  2  0  0  0  0
 18 34  1  0  0  0  0
 19 21  2  0  0  0  0
 19 39  1  0  0  0  0
 20 22  2  0  0  0  0
 20 40  1  0  0  0  0
 21 52  1  0  0  0  0
 22 41  1  0  0  0  0
 23 24  2  0  0  0  0
 23 67  1  0  0  0  0
 24 29  1  0  0  0  0
 24 56  1  0  0  0  0
 25 87  1  0  0  0  0
 26 89  1  0  0  0  0
 27 31  2  0  0  0  0
 27 87  1  0  0  0  0
 28 90  1  0  0  0  0
 29 88  1  0  0  0  0
 30 91  1  0  0  0  0
 31 92  1  0  0  0  0
 32 71  2  0  0  0  0
 33 72  1  0  0  0  0
 33 76  1  0  0  0  0
 34 77  1  0  0  0  0
 34 82  2  0  0  0  0
 35 53  1  0  0  0  0
 35 78  1  0  0  0  0
 35 83  2  0  0  0  0
 36 68  1  0  0  0  0
 36 73  1  0  0  0  0
 36 84  2  0  0  0  0
 37 69  1  0  0  0  0
 37 79  1  0  0  0  0
 37 85  2  0  0  0  0
 38 74  1  0  0  0  0
 38 75  1  0  0  0  0
 38 86  2  0  0  0  0
 39 42  1  0  0  0  0
 40 53  1  0  0  0  0
 41 73  1  0  0  0  0
 42 44  1  0  0  0  0
 43 45  1  0  0  0  0
 43 48  1  0  0  0  0
 44 52  1  0  0  0  0
 45 54  1  0  0  0  0
 46 49  1  0  0  0  0
 46 55  1  0  0  0  0
 47 50  1  0  0  0  0
 47 55  1  0  0  0  0
 48 74  1  0  0  0  0
 49 75  1  0  0  0  0
 50 75  1  0  0  0  0
 51 54  1  0  0  0  0
 51 74  1  0  0  0  0
 52 78  1  0  0  0  0
 53 73  1  0  0  0  0
 54 72  1  0  0  0  0
 55 81  1  0  0  0  0
 57 67  1  0  0  0  0
 58 69  1  0  0  0  0
 59 70  1  0  0  0  0
 60 70  1  0  0  0  0
 61 70  1  0  0  0  0
 62 80  1  0  0  0  0
 63 81  1  0  0  0  0
 64 88  1  0  0  0  0
 65 66  1  0  0  0  0
 65 89  1  0  0  0  0
 66 90  1  0  0  0  0
 67 81  1  0  0  0  0
 68 70  1  0  0  0  0
 68 79  1  0  0  0  0
 69 80  1  0  0  0  0
 71 72  1  0  0  0  0
M  CHG  2  80   1  81   1
M  ISO  4  38 100  65 101  75 100  89 101
M  END
> <Batch ID>
0156

> <Smiles>
CNC(C)C(=O)NC(C(=O)N1Cc2cc([101O:1][101CH2:1]COc3cc(OC)c(C)c(C(C)N(C)C4CC[100N:0]([100C:0](=O)N5CCCC(n6nc(-c7ccc(Oc8ccc(F)cc8F)cc7)c(C(N)=O)c6N)C5)CC4)c3)ccc2CC1C(=O)NC1CCCc2ccccc21)C(C)(C)C

> <Shape>
0.313

> <Color>
0.206

> <Negative vol penalty>
0.000

$$$$

  -OEChem-04052321563D

 90100  0     1  0  0  0  0  0999 V2000
  -28.4903  -30.1577   27.6692 C   0  0  0  0  0  0  0  0  0  0  0  0
  -28.3415  -29.2567   26.6197 C   0  0  0  0  0  0  0  0  0  0  0  0
  -24.2598   -9.3695   22.5153 C   0  0  0  0  0  0  0  0  0  0  0  0
  -25.0858   -8.1076   20.6279 C   0  0  0  0  0  0  0  0  0  0  0  0
  -27.4052  -30.9290   28.0834 C   0  0  0  0  0  0  0  0  0  0  0  0
  -27.1070  -29.1255   25.9846 C   0  0  0  0  0  0  0  0  0  0  0  0
  -27.5227  -28.9891   20.9395 C   0  0  0  0  0  0  0  0  0  0  0  0
  -23.0344   -8.7100   22.4200 C   0  0  0  0  0  0  0  0  0  0  0  0
  -23.8605   -7.4481   20.5325 C   0  0  0  0  0  0  0  0  0  0  0  0
  -27.9368  -27.7872   20.3670 C   0  0  0  0  0  0  0  0  0  0  0  0
  -21.7475   -5.7070   23.2909 C   0  0  0  0  0  0  0  0  0  0  0  0
  -21.1719   -5.2349   24.4705 C   0  0  0  0  0  0  0  0  0  0  0  0
  -25.6457  -27.2641   19.8226 C   0  0  0  0  0  0  0  0  0  0  0  0
  -29.5542  -21.8318   17.2559 C   0  0  0  0  0  0  0  0  0  0  0  0
  -19.2347   -6.6254   24.0816 C   0  0  0  0  0  0  0  0  0  0  0  0
  -25.2855   -9.0684   21.6192 C   0  0  0  0  0  0  0  0  0  0  0  0
  -27.6729   -9.3557   22.4709 C   0  0  0  0  0  0  0  0  0  0  0  0
  -26.1594  -30.8143   27.4467 C   0  0  0  0  0  0  0  0  0  0  0  0
  -26.1636  -29.3331   20.9676 C   0  0  0  0  0  0  0  0  0  0  0  0
  -26.0039  -29.8950   26.3916 C   0  0  0  0  0  0  0  0  0  0  0  0
  -25.2172  -28.4721   20.3937 C   0  0  0  0  0  0  0  0  0  0  0  0
  -28.7457  -22.9675   19.2157 C   0  0  0  0  0  0  0  0  0  0  0  0
  -22.8347   -7.7493   21.4286 C   0  0  0  0  0  0  0  0  0  0  0  0
  -26.9980  -26.9231   19.8110 C   0  0  0  0  0  0  0  0  0  0  0  0
  -21.0668   -6.6383   22.5067 C   0  0  0  0  0  0  0  0  0  0  0  0
  -29.0048  -21.7847   18.5323 C   0  0  0  0  0  0  0  0  0  0  0  0
  -19.9155   -5.6941   24.8658 C   0  0  0  0  0  0  0  0  0  0  0  0
  -19.8104   -7.0975   22.9020 C   0  0  0  0  0  0  0  0  0  0  0  0
  -26.5513   -9.7497   21.7168 C   0  0  0  0  0  0  0  0  0  0  0  0
  -29.8240  -23.0771   16.7115 C   0  0  0  0  0  0  0  0  0  0  0  0
  -29.0519  -24.1619   18.5837 C   0  0  0  0  0  0  0  0  0  0  0  0
  -28.6096  -10.3304   22.2281 C   0  0  0  0  0  0  0  0  0  0  0  0
  -27.8521   -8.2108   23.3153 C   0  0  0  0  0  0  0  0  0  0  0  0
  -24.0362  -29.8842   23.2641 C   0  0  0  0  0  0  0  0  0  0  0  0
  -22.1339  -30.7041   20.7679 C   0  0  0  0  0  0  0  0  0  0  0  0
  -21.4323  -30.4097   17.4410 C   0  0  0  0  0  0  0  0  0  0  0  0
  -28.3062  -15.9244   20.8128 C   0  0  0  0  0  0  0  0  0  0  0  0
  -25.0031  -31.6350   27.9607 C   0  0  0  0  0  0  0  0  0  0  0  0
  -25.7359  -30.6456   21.5650 C   0  0  0  0  0  0  0  0  0  0  0  0
  -23.7483  -28.8043   20.3801 C   0  0  0  0  0  0  0  0  0  0  0  0
  -23.8276  -31.7065   26.9894 C   0  0  0  0  0  0  0  0  0  0  0  0
  -29.9655  -13.4879   18.9071 C   0  0  0  0  0  0  0  0  0  0  0  0
  -23.5014  -30.3201   26.4431 C   0  0  0  0  0  0  0  0  0  0  0  0
  -30.4087  -22.8171   21.9529 C   0  0  0  0  0  0  0  0  0  0  0  0
  -29.2953  -22.8436   22.9625 C   0  0  0  0  0  0  0  0  0  0  0  0
  -29.3838  -12.1997   19.4887 C   0  0  0  0  0  0  0  0  0  0  0  0
  -30.2989  -18.9231   19.9270 C   0  0  0  0  0  0  0  0  0  0  0  0
  -28.7121  -18.3966   18.0258 C   0  0  0  0  0  0  0  0  0  0  0  0
  -28.9031  -14.5773   18.7516 C   0  0  0  0  0  0  0  0  0  0  0  0
  -29.3878  -18.1405   20.8714 C   0  0  0  0  0  0  0  0  0  0  0  0
  -27.8360  -17.6298   19.0138 C   0  0  0  0  0  0  0  0  0  0  0  0
  -27.5655  -13.5728   20.5732 C   0  0  0  0  0  0  0  0  0  0  0  0
  -24.6872  -29.7421   25.6614 C   0  0  1  0  0  0  0  0  0  0  0  0
  -24.2730  -30.6568   21.9974 C   0  0  1  0  0  0  0  0  0  0  0  0
  -29.0659  -22.2360   21.6065 C   0  0  0  0  0  0  0  0  0  0  0  0
  -28.6212  -12.4787   20.7961 C   0  0  1  0  0  0  0  0  0  0  0  0
  -29.5538  -19.4745   18.7109 C   0  0  0  0  0  0  0  0  0  0  0  0
  -30.4139  -23.1654   15.3437 C   0  0  0  0  0  0  0  0  0  0  0  0
  -26.7518  -22.3059   20.6088 C   0  0  0  0  0  0  0  0  0  0  0  0
  -19.7928  -31.1677   15.6989 C   0  0  0  0  0  0  0  0  0  0  0  0
  -20.0740  -28.7312   21.8516 C   0  0  0  0  0  0  0  0  0  0  0  0
  -18.9237  -28.8190   19.6296 C   0  0  0  0  0  0  0  0  0  0  0  0
  -19.1165  -30.8847   21.0148 C   0  0  0  0  0  0  0  0  0  0  0  0
  -23.5479  -31.7565   15.8695 C   0  0  0  0  0  0  0  0  0  0  0  0
  -28.7965  -25.4645   19.2692 C   0  0  0  0  0  0  0  0  0  1  0  0
  -28.1547  -22.9420   20.5846 C   0  0  2  0  0  0  0  0  0  0  0  0
  -21.1734  -29.9649   19.8678 C   0  0  1  0  0  0  0  0  0  0  0  0
  -21.1222  -31.4511   16.3810 C   0  0  2  0  0  0  0  0  0  0  0  0
  -19.8493  -29.5925   20.5928 C   0  0  0  0  0  0  0  0  0  0  0  0
  -26.7548  -10.8863   21.0454 N   0  0  0  0  0  0  0  0  0  0  0  0
  -29.5862  -24.2475   17.3448 N   0  0  0  0  0  0  0  0  0  0  0  0
  -28.0151  -11.2148   21.3768 N   0  0  0  0  0  0  0  0  0  0  0  0
  -23.3791  -30.0963   20.9820 N   0  0  0  0  0  0  0  0  0  0  0  0
  -28.1767  -14.7796   20.0123 N   0  0  0  0  0  0  0  0  0  0  0  0
  -28.6129  -17.1278   20.1552 N   0  0  0  0  0  0  0  0  0  0  0  0
  -29.8754  -10.5088   22.6619 N   0  0  0  0  0  0  0  0  0  0  0  0
  -26.7879   -7.3093   23.4532 N   0  0  0  0  0  0  0  0  0  0  0  0
  -24.7651  -30.3402   24.3459 N   0  0  0  0  0  0  0  0  0  0  0  0
  -20.9930  -30.8030   18.6874 N   0  0  0  0  0  0  0  0  0  0  0  0
  -22.1900  -31.4661   15.3415 N   0  3  0  0  0  0  0  0  0  0  0  0
  -28.9184   -8.0024   23.9422 O   0  0  0  0  0  0  0  0  0  0  0  0
  -23.2493  -28.9448   23.2608 O   0  0  0  0  0  0  0  0  0  0  0  0
  -21.7947  -31.7845   21.2570 O   0  0  0  0  0  0  0  0  0  0  0  0
  -22.0037  -29.3513   17.1880 O   0  0  0  0  0  0  0  0  0  0  0  0
  -28.1607  -15.8767   22.0407 O   0  0  0  0  0  0  0  0  0  0  0  0
  -21.6392   -7.1053   21.3354 O   0  0  0  0  0  0  0  0  0  0  0  0
  -28.7261  -20.5689   19.0990 O   0  0  0  0  0  0  0  0  0  0  0  0
  -27.4023  -25.7406   19.2482 O   0  0  0  0  0  0  0  0  0  1  0  0
  -19.3622   -5.2396   25.9978 F   0  0  0  0  0  0  0  0  0  0  0  0
  -19.1511   -7.9912   22.1521 F   0  0  0  0  0  0  0  0  0  0  0  0
  1  2  1  0  0  0  0
  1  5  2  0  0  0  0
  2  6  2  0  0  0  0
  3  8  2  0  0  0  0
  3 16  1  0  0  0  0
  4  9  1  0  0  0  0
  4 16  2  0  0  0  0
  5 18  1  0  0  0  0
  6 20  1  0  0  0  0
  7 10  2  0  0  0  0
  7 19  1  0  0  0  0
  8 23  1  0  0  0  0
  9 23  2  0  0  0  0
 10 24  1  0  0  0  0
 11 12  2  0  0  0  0
 11 25  1  0  0  0  0
 12 27  1  0  0  0  0
 13 21  1  0  0  0  0
 13 24  2  0  0  0  0
 14 26  2  0  0  0  0
 14 30  1  0  0  0  0
 15 27  2  0  0  0  0
 15 28  1  0  0  0  0
 16 29  1  0  0  0  0
 17 29  1  0  0  0  0
 17 32  2  0  0  0  0
 17 33  1  0  0  0  0
 18 20  2  0  0  0  0
 18 38  1  0  0  0  0
 19 21  2  0  0  0  0
 19 39  1  0  0  0  0
 20 53  1  0  0  0  0
 21 40  1  0  0  0  0
 22 26  1  0  0  0  0
 22 31  2  0  0  0  0
 22 66  1  0  0  0  0
 23 86  1  0  0  0  0
 24 88  1  0  0  0  0
 25 28  2  0  0  0  0
 25 86  1  0  0  0  0
 26 87  1  0  0  0  0
 27 89  1  0  0  0  0
 28 90  1  0  0  0  0
 29 70  2  0  0  0  0
 30 58  1  0  0  0  0
 30 71  2  0  0  0  0
 31 65  1  0  0  0  0
 31 71  1  0  0  0  0
 32 72  1  0  0  0  0
 32 76  1  0  0  0  0
 33 77  1  0  0  0  0
 33 81  2  0  0  0  0
 34 54  1  0  0  0  0
 34 78  1  0  0  0  0
 34 82  2  0  0  0  0
 35 67  1  0  0  0  0
 35 73  1  0  0  0  0
 35 83  2  0  0  0  0
 36 68  1  0  0  0  0
 36 79  1  0  0  0  0
 36 84  2  0  0  0  0
 37 74  1  0  0  0  0
 37 75  1  0  0  0  0
 37 85  2  0  0  0  0
 38 41  1  0  0  0  0
 39 54  1  0  0  0  0
 40 73  1  0  0  0  0
 41 43  1  0  0  0  0
 42 46  1  0  0  0  0
 42 49  1  0  0  0  0
 43 53  1  0  0  0  0
 44 45  1  0  0  0  0
 44 55  1  0  0  0  0
 45 55  1  0  0  0  0
 46 56  1  0  0  0  0
 47 50  1  0  0  0  0
 47 57  1  0  0  0  0
 48 51  1  0  0  0  0
 48 57  1  0  0  0  0
 49 74  1  0  0  0  0
 50 75  1  0  0  0  0
 51 75  1  0  0  0  0
 52 56  1  0  0  0  0
 52 74  1  0  0  0  0
 53 78  1  0  0  0  0
 54 73  1  0  0  0  0
 55 66  1  0  0  0  0
 56 72  1  0  0  0  0
 57 87  1  0  0  0  0
 59 66  1  0  0  0  0
 60 68  1  0  0  0  0
 61 69  1  0  0  0  0
 62 69  1  0  0  0  0
 63 69  1  0  0  0  0
 64 80  1  0  0  0  0
 65 88  1  0  0  0  0
 67 69  1  0  0  0  0
 67 79  1  0  0  0  0
 68 80  1  0  0  0  0
 70 72  1  0  0  0  0
M  CHG  1  80   1
M  ISO  4  37 100  65 101  75 100  88 101
M  END
> <Batch ID>
0156

> <Smiles>
CNC(C)C(=O)NC(C(=O)N1Cc2cc([101O:1][101CH2:1]c3nc(C)cc(OC4CC[100N:0]([100C:0](=O)N5CCCC(n6nc(-c7ccc(Oc8ccc(F)cc8F)cc7)c(C(N)=O)c6N)C5)CC4)c3C(C)C3CC3)ccc2CC1C(=O)NC1CCCc2ccccc21)C(C)(C)C

> <Shape>
0.287

> <Color>
0.094

> <Negative vol penalty>
0.000

$$$$

  -OEChem-04052321563D

 88 98  0     1  0  0  0  0  0999 V2000
  -18.1290  -26.1180   22.7487 C   0  0  0  0  0  0  0  0  0  0  0  0
  -19.3139  -25.5174   22.3354 C   0  0  0  0  0  0  0  0  0  0  0  0
  -22.6246  -10.3254   20.2101 C   0  0  0  0  0  0  0  0  0  0  0  0
  -24.3061   -9.4766   21.7232 C   0  0  0  0  0  0  0  0  0  0  0  0
  -18.0442  -27.5073   22.8292 C   0  0  0  0  0  0  0  0  0  0  0  0
  -20.4144  -26.3059   22.0013 C   0  0  0  0  0  0  0  0  0  0  0  0
  -24.7338  -24.5502   23.9775 C   0  0  0  0  0  0  0  0  0  0  0  0
  -21.8768   -9.1615   20.3883 C   0  0  0  0  0  0  0  0  0  0  0  0
  -23.5581   -8.3127   21.9014 C   0  0  0  0  0  0  0  0  0  0  0  0
  -25.3293  -23.4621   23.3408 C   0  0  0  0  0  0  0  0  0  0  0  0
  -20.8424   -7.3445   23.6644 C   0  0  0  0  0  0  0  0  0  0  0  0
  -20.6857   -6.8697   24.9665 C   0  0  0  0  0  0  0  0  0  0  0  0
  -26.8714  -24.9567   22.2421 C   0  0  0  0  0  0  0  0  0  0  0  0
  -21.7609   -4.7986   24.3407 C   0  0  0  0  0  0  0  0  0  0  0  0
  -23.8393  -10.4829   20.8776 C   0  0  0  0  0  0  0  0  0  0  0  0
  -24.2145  -13.0040   20.9806 C   0  0  0  0  0  0  0  0  0  0  0  0
  -19.1473  -28.3129   22.5053 C   0  0  0  0  0  0  0  0  0  0  0  0
  -25.1964  -25.8529   23.7423 C   0  0  0  0  0  0  0  0  0  0  0  0
  -20.3438  -27.7073   22.0763 C   0  0  0  0  0  0  0  0  0  0  0  0
  -26.2817  -26.0593   22.8789 C   0  0  0  0  0  0  0  0  0  0  0  0
  -29.6867  -17.9820   23.8960 C   0  0  0  0  0  0  0  0  0  0  0  0
  -29.5334  -17.9386   25.3224 C   0  0  0  0  0  0  0  0  0  0  0  0
  -22.3435   -8.1552   21.2339 C   0  0  0  0  0  0  0  0  0  0  0  0
  -26.3963  -23.6655   22.4708 C   0  0  0  0  0  0  0  0  0  0  0  0
  -21.4583   -6.5464   22.7003 C   0  0  0  0  0  0  0  0  0  0  0  0
  -21.1450   -5.5968   25.3047 C   0  0  0  0  0  0  0  0  0  0  0  0
  -21.9176   -5.2734   23.0385 C   0  0  0  0  0  0  0  0  0  0  0  0
  -24.6126  -11.6846   20.6935 C   0  0  0  0  0  0  0  0  0  0  0  0
  -30.5576  -16.9906   23.4707 C   0  0  0  0  0  0  0  0  0  0  0  0
  -30.2696  -16.9329   25.9073 C   0  0  0  0  0  0  0  0  0  0  0  0
  -25.2978  -13.7731   20.6321 C   0  0  0  0  0  0  0  0  0  0  0  0
  -22.9762  -13.4909   21.5146 C   0  0  0  0  0  0  0  0  0  0  0  0
  -23.9256  -28.4984   22.5216 C   0  0  0  0  0  0  0  0  0  0  0  0
  -26.7421  -29.8131   23.4496 C   0  0  0  0  0  0  0  0  0  0  0  0
  -30.2271  -28.8808   23.3977 C   0  0  0  0  0  0  0  0  0  0  0  0
  -30.7994  -14.7101   20.6211 C   0  0  0  0  0  0  0  0  0  0  0  0
  -18.9930  -29.8121   22.5624 C   0  0  0  0  0  0  0  0  0  0  0  0
  -24.5605  -27.0134   24.4575 C   0  0  0  0  0  0  0  0  0  0  0  0
  -26.8291  -27.4361   22.6082 C   0  0  0  0  0  0  0  0  0  0  0  0
  -20.3225  -30.5621   22.5502 C   0  0  0  0  0  0  0  0  0  0  0  0
  -29.5001  -12.5783   18.0827 C   0  0  0  0  0  0  0  0  0  0  0  0
  -21.2409  -30.0032   21.4680 C   0  0  0  0  0  0  0  0  0  0  0  0
  -30.6465  -17.9559   21.1816 C   0  0  0  0  0  0  0  0  0  0  0  0
  -28.0829  -12.2599   18.5624 C   0  0  0  0  0  0  0  0  0  0  0  0
  -29.0523  -21.5257   22.3950 C   0  0  0  0  0  0  0  0  0  0  0  0
  -26.8644  -20.2622   22.4311 C   0  0  0  0  0  0  0  0  0  0  0  0
  -29.2391  -18.5060   21.4629 C   0  0  0  0  0  0  0  0  0  0  0  0
  -29.7245  -20.3830   23.1551 C   0  0  0  0  0  0  0  0  0  0  0  0
  -27.5251  -19.1350   23.2227 C   0  0  0  0  0  0  0  0  0  0  0  0
  -30.4825  -12.6729   19.2480 C   0  0  0  0  0  0  0  0  0  0  0  0
  -28.6681  -13.2878   20.7984 C   0  0  0  0  0  0  0  0  0  0  0  0
  -21.5672  -28.5278   21.7293 C   0  0  1  0  0  0  0  0  0  0  0  0
  -30.9644  -16.7311   22.0521 C   0  0  2  0  0  0  0  0  0  0  0  0
  -24.7806  -28.3458   23.7477 C   0  0  1  0  0  0  0  0  0  0  0  0
  -27.6308  -13.2377   19.6636 C   0  0  2  0  0  0  0  0  0  0  0  0
  -27.5558  -21.5998   22.6807 C   0  0  0  0  0  0  0  0  0  1  0  0
  -29.0479  -18.9974   22.9406 C   0  0  0  0  0  0  0  0  0  0  0  0
  -30.3800  -16.5698   27.3385 C   0  0  0  0  0  0  0  0  0  0  0  0
  -27.3993  -18.2770   26.5942 C   0  0  0  0  0  0  0  0  0  0  0  0
  -32.1243  -29.5761   24.8859 C   0  0  0  0  0  0  0  0  0  0  0  0
  -27.2517  -31.9382   21.3203 C   0  0  0  0  0  0  0  0  0  0  0  0
  -29.7076  -31.5882   21.6581 C   0  0  0  0  0  0  0  0  0  0  0  0
  -28.2967  -32.4156   23.5416 C   0  0  0  0  0  0  0  0  0  0  0  0
  -30.8922  -26.0732   24.0566 C   0  0  0  0  0  0  0  0  0  0  0  0
  -28.7322  -18.8783   26.1490 C   0  0  0  0  0  0  0  0  0  0  0  0
  -28.0953  -30.0044   22.8084 C   0  0  1  0  0  0  0  0  0  0  0  0
  -31.0852  -28.5052   24.5923 C   0  0  2  0  0  0  0  0  0  0  0  0
  -28.3210  -31.4648   22.3250 C   0  0  0  0  0  0  0  0  0  0  0  0
  -25.8521  -11.6158   20.2004 N   0  0  0  0  0  0  0  0  0  0  0  0
  -26.2421  -12.9016   20.1750 N   0  0  0  0  0  0  0  0  0  0  0  0
  -26.1696  -28.5392   23.3265 N   0  0  0  0  0  0  0  0  0  0  0  0
  -29.9957  -13.6174   20.2563 N   0  0  0  0  0  0  0  0  0  0  0  0
  -25.5252  -15.1031   20.6752 N   0  0  0  0  0  0  0  0  0  0  0  0
  -22.8470  -13.6044   22.9055 N   0  0  0  0  0  0  0  0  0  0  0  0
  -22.5687  -28.4078   22.7670 N   0  0  0  0  0  0  0  0  0  0  0  0
  -29.0776  -29.5385   23.7813 N   0  0  0  0  0  0  0  0  0  0  0  0
  -30.2602  -15.5602   21.5789 N   0  0  0  0  0  0  0  0  0  0  0  0
  -31.7945  -27.2196   24.3369 N   0  3  0  0  0  0  0  0  0  0  0  0
  -22.0069  -13.8001   20.7808 O   0  0  0  0  0  0  0  0  0  0  0  0
  -24.4575  -28.6861   21.4337 O   0  0  0  0  0  0  0  0  0  0  0  0
  -26.2157  -30.7571   24.0441 O   0  0  0  0  0  0  0  0  0  0  0  0
  -30.5466  -28.6203   22.2399 O   0  0  0  0  0  0  0  0  0  0  0  0
  -31.9126  -14.9161   20.1258 O   0  0  0  0  0  0  0  0  0  0  0  0
  -21.6138   -7.0195   21.4082 O   0  0  0  0  0  0  0  0  0  0  0  0
  -26.9827  -22.5984   21.8436 O   0  0  0  0  0  0  0  0  0  1  0  0
  -20.9959   -5.1415   26.5556 F   0  0  0  0  0  0  0  0  0  0  0  0
  -22.5111   -4.5025   22.1170 F   0  0  0  0  0  0  0  0  0  0  0  0
  -31.1641  -16.0443   24.7565 S   0  0  0  0  0  0  0  0  0  0  0  0
  1  2  1  0  0  0  0
  1  5  2  0  0  0  0
  2  6  2  0  0  0  0
  3  8  2  0  0  0  0
  3 15  1  0  0  0  0
  4  9  1  0  0  0  0
  4 15  2  0  0  0  0
  5 17  1  0  0  0  0
  6 19  1  0  0  0  0
  7 10  2  0  0  0  0
  7 18  1  0  0  0  0
  8 23  1  0  0  0  0
  9 23  2  0  0  0  0
 10 24  1  0  0  0  0
 11 12  2  0  0  0  0
 11 25  1  0  0  0  0
 12 26  1  0  0  0  0
 13 20  1  0  0  0  0
 13 24  2  0  0  0  0
 14 26  2  0  0  0  0
 14 27  1  0  0  0  0
 15 28  1  0  0  0  0
 16 28  1  0  0  0  0
 16 31  2  0  0  0  0
 16 32  1  0  0  0  0
 17 19  2  0  0  0  0
 17 37  1  0  0  0  0
 18 20  2  0  0  0  0
 18 38  1  0  0  0  0
 19 52  1  0  0  0  0
 20 39  1  0  0  0  0
 21 22  1  0  0  0  0
 21 29  2  0  0  0  0
 21 57  1  0  0  0  0
 22 30  2  0  0  0  0
 22 65  1  0  0  0  0
 23 84  1  0  0  0  0
 24 85  1  0  0  0  0
 25 27  2  0  0  0  0
 25 84  1  0  0  0  0
 26 86  1  0  0  0  0
 27 87  1  0  0  0  0
 28 69  2  0  0  0  0
 29 53  1  0  0  0  0
 29 88  1  0  0  0  0
 30 58  1  0  0  0  0
 30 88  1  0  0  0  0
 31 70  1  0  0  0  0
 31 73  1  0  0  0  0
 32 74  1  0  0  0  0
 32 79  2  0  0  0  0
 33 54  1  0  0  0  0
 33 75  1  0  0  0  0
 33 80  2  0  0  0  0
 34 66  1  0  0  0  0
 34 71  1  0  0  0  0
 34 81  2  0  0  0  0
 35 67  1  0  0  0  0
 35 76  1  0  0  0  0
 35 82  2  0  0  0  0
 36 72  1  0  0  0  0
 36 77  1  0  0  0  0
 36 83  2  0  0  0  0
 37 40  1  0  0  0  0
 38 54  1  0  0  0  0
 39 71  1  0  0  0  0
 40 42  1  0  0  0  0
 41 44  1  0  0  0  0
 41 50  1  0  0  0  0
 42 52  1  0  0  0  0
 43 47  1  0  0  0  0
 43 53  1  0  0  0  0
 44 55  1  0  0  0  0
 45 48  1  0  0  0  0
 45 56  1  0  0  0  0
 46 49  1  0  0  0  0
 46 56  1  0  0  0  0
 47 57  1  0  0  0  0
 48 57  1  0  0  0  0
 49 57  1  0  0  0  0
 50 72  1  0  0  0  0
 51 55  1  0  0  0  0
 51 72  1  0  0  0  0
 52 75  1  0  0  0  0
 53 77  1  0  0  0  0
 54 71  1  0  0  0  0
 55 70  1  0  0  0  0
 56 85  1  0  0  0  0
 59 65  1  0  0  0  0
 60 67  1  0  0  0  0
 61 68  1  0  0  0  0
 62 68  1  0  0  0  0
 63 68  1  0  0  0  0
 64 78  1  0  0  0  0
 66 68  1  0  0  0  0
 66 76  1  0  0  0  0
 67 78  1  0  0  0  0
 69 70  1  0  0  0  0
M  CHG  1  78   1
M  ISO  4  36 100  56 101  77 100  85 101
M  END
> <Batch ID>
0156

> <Smiles>
CCc1c(C)sc2c1C1(CCC2[100NH:0][100C:0](=O)N2CCCC(n3nc(-c4ccc(Oc5ccc(F)cc5F)cc4)c(C(N)=O)c3N)C2)CC[101CH:1]([101O:1]c2ccc3c(c2)CN(C(=O)C(NC(=O)C(C)NC)C(C)(C)C)C(C(=O)NC2CCCc4ccccc42)C3)CC1

> <Shape>
0.315

> <Color>
0.191

> <Negative vol penalty>
0.000

$$$$

  -OEChem-04052321563D

 86 95  0     1  0  0  0  0  0999 V2000
  -15.6248  -26.1567   23.5372 C   0  0  0  0  0  0  0  0  0  0  0  0
  -16.6145  -25.6189   22.7224 C   0  0  0  0  0  0  0  0  0  0  0  0
  -22.4350  -14.1994   20.0904 C   0  0  0  0  0  0  0  0  0  0  0  0
  -24.1235  -15.7261   20.8999 C   0  0  0  0  0  0  0  0  0  0  0  0
  -15.7258  -27.4768   23.9713 C   0  0  0  0  0  0  0  0  0  0  0  0
  -17.7116  -26.3970   22.3512 C   0  0  0  0  0  0  0  0  0  0  0  0
  -23.9485  -24.0054   20.3649 C   0  0  0  0  0  0  0  0  0  0  0  0
  -21.5353  -15.2584   19.9698 C   0  0  0  0  0  0  0  0  0  0  0  0
  -23.2237  -16.7852   20.7793 C   0  0  0  0  0  0  0  0  0  0  0  0
  -25.1634  -23.5565   19.8465 C   0  0  0  0  0  0  0  0  0  0  0  0
  -21.2609  -19.8342   21.0261 C   0  0  0  0  0  0  0  0  0  0  0  0
  -21.1846  -20.7434   22.0811 C   0  0  0  0  0  0  0  0  0  0  0  0
  -25.8975  -25.8426   19.5589 C   0  0  0  0  0  0  0  0  0  0  0  0
  -20.5363  -18.9573   23.5734 C   0  0  0  0  0  0  0  0  0  0  0  0
  -23.7291  -14.4333   20.5555 C   0  0  0  0  0  0  0  0  0  0  0  0
  -24.5150  -12.1888   21.4787 C   0  0  0  0  0  0  0  0  0  0  0  0
  -16.8187  -28.2747   23.5946 C   0  0  0  0  0  0  0  0  0  0  0  0
  -23.7093  -25.3760   20.4967 C   0  0  0  0  0  0  0  0  0  0  0  0
  -17.8438  -27.7240   22.7987 C   0  0  0  0  0  0  0  0  0  0  0  0
  -24.6874  -26.2980   20.0891 C   0  0  0  0  0  0  0  0  0  0  0  0
  -21.9296  -16.5513   20.3142 C   0  0  0  0  0  0  0  0  0  0  0  0
  -26.1354  -24.4729   19.4443 C   0  0  0  0  0  0  0  0  0  0  0  0
  -20.9749  -18.4865   21.2447 C   0  0  0  0  0  0  0  0  0  0  0  0
  -20.8223  -20.3050   23.3548 C   0  0  0  0  0  0  0  0  0  0  0  0
  -20.6127  -18.0481   22.5183 C   0  0  0  0  0  0  0  0  0  0  0  0
  -24.6588  -13.3397   20.6809 C   0  0  0  0  0  0  0  0  0  0  0  0
  -25.6593  -11.4653   21.2474 C   0  0  0  0  0  0  0  0  0  0  0  0
  -23.4427  -11.8077   22.3509 C   0  0  0  0  0  0  0  0  0  0  0  0
  -21.3441  -28.0793   21.5803 C   0  0  0  0  0  0  0  0  0  0  0  0
  -24.1528  -28.9498   22.4542 C   0  0  0  0  0  0  0  0  0  0  0  0
  -26.4251  -30.0095   24.3559 C   0  0  0  0  0  0  0  0  0  0  0  0
  -28.9044  -14.5324   21.6705 C   0  0  0  0  0  0  0  0  0  0  0  0
  -16.8819  -29.6947   24.0994 C   0  0  0  0  0  0  0  0  0  0  0  0
  -22.3912  -25.9056   20.9926 C   0  0  0  0  0  0  0  0  0  0  0  0
  -24.3727  -27.7634   20.2171 C   0  0  0  0  0  0  0  0  0  0  0  0
  -17.8417  -30.5683   23.2983 C   0  0  0  0  0  0  0  0  0  0  0  0
  -28.4862  -13.7984   18.2542 C   0  0  0  0  0  0  0  0  0  0  0  0
  -19.1829  -29.8656   23.1493 C   0  0  0  0  0  0  0  0  0  0  0  0
  -28.0508  -12.3319   18.3355 C   0  0  0  0  0  0  0  0  0  0  0  0
  -29.1337  -18.2354   21.5933 C   0  0  0  0  0  0  0  0  0  0  0  0
  -31.3398  -17.2635   20.8602 C   0  0  0  0  0  0  0  0  0  0  0  0
  -30.1813  -21.0444   18.9537 C   0  0  0  0  0  0  0  0  0  0  0  0
  -29.5843  -14.1419   19.2575 C   0  0  0  0  0  0  0  0  0  0  0  0
  -28.8052  -16.9173   22.2905 C   0  0  0  0  0  0  0  0  0  0  0  0
  -30.9748  -15.9666   21.5764 C   0  0  0  0  0  0  0  0  0  0  0  0
  -30.4100  -19.5975   19.3877 C   0  0  0  0  0  0  0  0  0  0  0  0
  -28.9179  -12.2535   20.6960 C   0  0  0  0  0  0  0  0  0  0  0  0
  -19.0307  -28.5609   22.3571 C   0  0  1  0  0  0  0  0  0  0  0  0
  -22.5321  -27.1950   21.8213 C   0  0  1  0  0  0  0  0  0  0  0  0
  -27.7526  -11.8439   19.7712 C   0  0  1  0  0  0  0  0  0  0  0  0
  -30.6465  -18.4638   21.5140 C   0  0  0  0  0  0  0  0  0  0  0  0
  -30.5243  -21.8630   20.1876 C   0  0  2  0  0  0  0  0  0  0  0  0
  -30.3412  -20.8913   21.3478 C   0  0  2  0  0  0  0  0  0  0  0  0
  -31.0518  -21.3559   22.6140 C   0  0  0  0  0  0  0  0  0  0  0  0
  -27.9458  -31.7761   25.2854 C   0  0  0  0  0  0  0  0  0  0  0  0
  -30.9809  -24.8587   19.4054 C   0  0  0  0  0  0  0  0  0  0  0  0
  -24.8810  -29.6889   19.5859 C   0  0  0  0  0  0  0  0  0  0  0  0
  -26.5558  -31.3080   20.5034 C   0  0  0  0  0  0  0  0  0  0  0  0
  -24.1299  -31.6100   21.0000 C   0  0  0  0  0  0  0  0  0  0  0  0
  -25.3753  -29.6349   27.0976 C   0  0  0  0  0  0  0  0  0  0  0  0
  -28.4664  -24.8515   19.1565 C   0  0  0  0  0  0  0  0  0  1  0  0
  -25.3984  -29.7287   22.1151 C   0  0  1  0  0  0  0  0  0  0  0  0
  -26.6264  -31.0386   25.4536 C   0  0  2  0  0  0  0  0  0  0  0  0
  -29.7383  -24.0114   19.1852 C   0  0  2  0  0  0  0  0  0  0  0  0
  -25.2424  -30.5563   20.8081 C   0  0  0  0  0  0  0  0  0  0  0  0
  -25.8044  -13.3511   19.9941 N   0  0  0  0  0  0  0  0  0  0  0  0
  -26.3908  -12.1985   20.3599 N   0  0  0  0  0  0  0  0  0  0  0  0
  -23.7072  -28.0238   21.5032 N   0  0  0  0  0  0  0  0  0  0  0  0
  -29.2203  -13.6816   20.6010 N   0  0  0  0  0  0  0  0  0  0  0  0
  -29.5191  -15.7953   21.6810 N   0  0  0  0  0  0  0  0  0  0  0  0
  -30.9317  -19.6808   20.7577 N   0  0  2  0  0  0  0  0  0  0  0  0
  -26.1012  -10.2800   21.7187 N   0  0  0  0  0  0  0  0  0  0  0  0
  -22.3880  -11.0511   21.8221 N   0  0  0  0  0  0  0  0  0  0  0  0
  -20.2742  -27.8246   22.4169 N   0  0  0  0  0  0  0  0  0  0  0  0
  -25.7140  -30.5276   23.2942 N   0  0  0  0  0  0  0  0  0  0  0  0
  -29.6357  -23.0356   20.3084 N   0  3  0  0  0  0  0  0  0  0  0  0
  -26.6241  -30.3783   26.7896 N   0  3  0  0  0  0  0  0  0  0  0  0
  -23.4124  -12.1425   23.5594 O   0  0  0  0  0  0  0  0  0  0  0  0
  -21.3937  -28.9315   20.7011 O   0  0  0  0  0  0  0  0  0  0  0  0
  -23.5849  -29.1588   23.5299 O   0  0  0  0  0  0  0  0  0  0  0  0
  -26.8586  -28.8619   24.4311 O   0  0  0  0  0  0  0  0  0  0  0  0
  -28.1173  -14.1919   22.5624 O   0  0  0  0  0  0  0  0  0  0  0  0
  -21.0520  -17.5850   20.1964 O   0  0  0  0  0  0  0  0  0  0  0  0
  -27.3290  -24.0248   18.9398 O   0  0  0  0  0  0  0  0  0  1  0  0
  -20.7505  -21.1779   24.3681 F   0  0  0  0  0  0  0  0  0  0  0  0
  -20.3379  -16.7545   22.7347 F   0  0  0  0  0  0  0  0  0  0  0  0
  1  2  1  0  0  0  0
  1  5  2  0  0  0  0
  2  6  2  0  0  0  0
  3  8  2  0  0  0  0
  3 15  1  0  0  0  0
  4  9  1  0  0  0  0
  4 15  2  0  0  0  0
  5 17  1  0  0  0  0
  6 19  1  0  0  0  0
  7 10  2  0  0  0  0
  7 18  1  0  0  0  0
  8 21  1  0  0  0  0
  9 21  2  0  0  0  0
 10 22  1  0  0  0  0
 11 12  2  0  0  0  0
 11 23  1  0  0  0  0
 12 24  1  0  0  0  0
 13 20  1  0  0  0  0
 13 22  2  0  0  0  0
 14 24  2  0  0  0  0
 14 25  1  0  0  0  0
 15 26  1  0  0  0  0
 16 26  1  0  0  0  0
 16 27  2  0  0  0  0
 16 28  1  0  0  0  0
 17 19  2  0  0  0  0
 17 33  1  0  0  0  0
 18 20  2  0  0  0  0
 18 34  1  0  0  0  0
 19 48  1  0  0  0  0
 20 35  1  0  0  0  0
 21 83  1  0  0  0  0
 22 84  1  0  0  0  0
 23 25  2  0  0  0  0
 23 83  1  0  0  0  0
 24 85  1  0  0  0  0
 25 86  1  0  0  0  0
 26 66  2  0  0  0  0
 27 67  1  0  0  0  0
 27 72  1  0  0  0  0
 28 73  1  0  0  0  0
 28 78  2  0  0  0  0
 29 49  1  0  0  0  0
 29 74  1  0  0  0  0
 29 79  2  0  0  0  0
 30 62  1  0  0  0  0
 30 68  1  0  0  0  0
 30 80  2  0  0  0  0
 31 63  1  0  0  0  0
 31 75  1  0  0  0  0
 31 81  2  0  0  0  0
 32 69  1  0  0  0  0
 32 70  1  0  0  0  0
 32 82  2  0  0  0  0
 33 36  1  0  0  0  0
 34 49  1  0  0  0  0
 35 68  1  0  0  0  0
 36 38  1  0  0  0  0
 37 39  1  0  0  0  0
 37 43  1  0  0  0  0
 38 48  1  0  0  0  0
 39 50  1  0  0  0  0
 40 44  1  0  0  0  0
 40 51  1  0  0  0  0
 41 45  1  0  0  0  0
 41 51  1  0  0  0  0
 42 46  1  0  0  0  0
 42 52  1  0  0  0  0
 43 69  1  0  0  0  0
 44 70  1  0  0  0  0
 45 70  1  0  0  0  0
 46 71  1  0  0  0  0
 47 50  1  0  0  0  0
 47 69  1  0  0  0  0
 48 74  1  0  0  0  0
 49 68  1  0  0  0  0
 50 67  1  0  0  0  0
 51 71  1  0  0  0  0
 52 53  1  0  0  0  0
 52 76  1  0  0  0  0
 53 54  1  0  0  0  0
 53 71  1  0  0  0  0
 55 63  1  0  0  0  0
 56 64  1  0  0  0  0
 57 65  1  0  0  0  0
 58 65  1  0  0  0  0
 59 65  1  0  0  0  0
 60 77  1  0  0  0  0
 61 64  1  0  0  0  0
 61 84  1  0  0  0  0
 62 65  1  0  0  0  0
 62 75  1  0  0  0  0
 63 77  1  0  0  0  0
 64 76  1  0  0  0  0
 66 67  1  0  0  0  0
M  CHG  2  76   1  77   1
M  ISO  4  32 100  61 101  70 100  84 101
M  END
> <Batch ID>
0156

> <Smiles>
CNC(C)C(=O)NC(C(=O)N1Cc2cc([101O:1][101CH2:1]C(C)NC3CCN(C4CC[100N:0]([100C:0](=O)N5CCCC(n6nc(-c7ccc(Oc8ccc(F)cc8F)cc7)c(C(N)=O)c6N)C5)CC4)C3C)ccc2CC1C(=O)NC1CCCc2ccccc21)C(C)(C)C

> <Shape>
0.314

> <Color>
0.068

> <Negative vol penalty>
0.000

$$$$

  -OEChem-04052321563D

 87 95  0     1  0  0  0  0  0999 V2000
  -27.3814  -37.3068   18.0876 C   0  0  0  0  0  0  0  0  0  0  0  0
  -27.8833  -36.0094   18.0995 C   0  0  0  0  0  0  0  0  0  0  0  0
  -23.7033  -12.3012   19.9370 C   0  0  0  0  0  0  0  0  0  0  0  0
  -24.9489  -13.4866   21.6341 C   0  0  0  0  0  0  0  0  0  0  0  0
  -26.5101  -37.7252   19.0925 C   0  0  0  0  0  0  0  0  0  0  0  0
  -27.5150  -35.1298   19.1169 C   0  0  0  0  0  0  0  0  0  0  0  0
  -26.6756  -29.0829   18.6312 C   0  0  0  0  0  0  0  0  0  0  0  0
  -24.8685  -11.6458   19.5395 C   0  0  0  0  0  0  0  0  0  0  0  0
  -26.1142  -12.8311   21.2367 C   0  0  0  0  0  0  0  0  0  0  0  0
  -27.4953  -27.9952   18.9292 C   0  0  0  0  0  0  0  0  0  0  0  0
  -28.3916  -13.0857   18.7508 C   0  0  0  0  0  0  0  0  0  0  0  0
  -29.5491  -13.8508   18.6083 C   0  0  0  0  0  0  0  0  0  0  0  0
  -26.4265  -27.7872   21.0818 C   0  0  0  0  0  0  0  0  0  0  0  0
  -27.3566  -23.5259   21.7701 C   0  0  0  0  0  0  0  0  0  0  0  0
  -26.7959  -22.6740   19.5800 C   0  0  0  0  0  0  0  0  0  0  0  0
  -30.6455  -12.5049   20.2887 C   0  0  0  0  0  0  0  0  0  0  0  0
  -23.7434  -13.2217   20.9843 C   0  0  0  0  0  0  0  0  0  0  0  0
  -21.6162  -13.4763   22.3691 C   0  0  0  0  0  0  0  0  0  0  0  0
  -26.1233  -36.8473   20.1173 C   0  0  0  0  0  0  0  0  0  0  0  0
  -25.7311  -29.5385   19.5622 C   0  0  0  0  0  0  0  0  0  0  0  0
  -26.6387  -35.5372   20.1372 C   0  0  0  0  0  0  0  0  0  0  0  0
  -25.5942  -28.8793   20.7921 C   0  0  0  0  0  0  0  0  0  0  0  0
  -27.6459  -23.4036   20.4112 C   0  0  0  0  0  0  0  0  0  0  0  0
  -26.2172  -22.9186   22.2981 C   0  0  0  0  0  0  0  0  0  0  0  0
  -25.6564  -22.0667   20.1080 C   0  0  0  0  0  0  0  0  0  0  0  0
  -26.0740  -11.9106   20.1893 C   0  0  0  0  0  0  0  0  0  0  0  0
  -27.3728  -27.3490   20.1558 C   0  0  0  0  0  0  0  0  0  0  0  0
  -28.3610  -12.0302   19.6622 C   0  0  0  0  0  0  0  0  0  0  0  0
  -25.3672  -22.1890   21.4670 C   0  0  0  0  0  0  0  0  0  0  0  0
  -30.6761  -13.5604   19.3773 C   0  0  0  0  0  0  0  0  0  0  0  0
  -29.4879  -11.7398   20.4311 C   0  0  0  0  0  0  0  0  0  0  0  0
  -22.5401  -13.8996   21.3949 C   0  0  0  0  0  0  0  0  0  0  0  0
  -20.6588  -14.4610   22.3851 C   0  0  0  0  0  0  0  0  0  0  0  0
  -21.6228  -12.2983   23.1864 C   0  0  0  0  0  0  0  0  0  0  0  0
  -25.2736  -32.2556   21.1470 C   0  0  0  0  0  0  0  0  0  0  0  0
  -22.5485  -30.7817   22.1084 C   0  0  0  0  0  0  0  0  0  0  0  0
  -20.8728  -27.8591   22.6537 C   0  0  0  0  0  0  0  0  0  0  0  0
  -20.7499  -20.2610   20.9010 C   0  0  0  0  0  0  0  0  0  0  0  0
  -25.2163  -37.3595   21.2080 C   0  0  0  0  0  0  0  0  0  0  0  0
  -24.8361  -30.6964   19.2148 C   0  0  0  0  0  0  0  0  0  0  0  0
  -24.5818  -29.3166   21.8179 C   0  0  0  0  0  0  0  0  0  0  0  0
  -24.5807  -36.2505   22.0425 C   0  0  0  0  0  0  0  0  0  0  0  0
  -18.6153  -17.7431   19.5668 C   0  0  0  0  0  0  0  0  0  0  0  0
  -25.6286  -35.2175   22.4444 C   0  0  0  0  0  0  0  0  0  0  0  0
  -19.2958  -16.4343   19.9719 C   0  0  0  0  0  0  0  0  0  0  0  0
  -19.6351  -18.8250   19.2183 C   0  0  0  0  0  0  0  0  0  0  0  0
  -21.3293  -17.7701   20.6641 C   0  0  0  0  0  0  0  0  0  0  0  0
  -26.2431  -34.5462   21.2102 C   0  0  1  0  0  0  0  0  0  0  0  0
  -24.2618  -31.3969   20.4423 C   0  0  1  0  0  0  0  0  0  0  0  0
  -20.3422  -16.6656   21.0787 C   0  0  2  0  0  0  0  0  0  0  0  0
  -25.9243  -23.0611   23.7555 C   0  0  0  0  0  0  0  0  0  0  0  0
  -18.6744  -26.9731   23.4780 C   0  0  0  0  0  0  0  0  0  0  0  0
  -25.9889  -19.0780   19.5049 C   0  0  0  0  0  0  0  0  0  0  0  0
  -24.4565  -19.4002   17.5526 C   0  0  0  0  0  0  0  0  0  0  0  0
  -23.3886  -31.3764   24.9808 C   0  0  0  0  0  0  0  0  0  0  0  0
  -21.7086  -29.6862   25.7483 C   0  0  0  0  0  0  0  0  0  0  0  0
  -20.9558  -31.7186   24.5133 C   0  0  0  0  0  0  0  0  0  0  0  0
  -20.2894  -26.5638   20.0574 C   0  0  0  0  0  0  0  0  0  0  0  0
  -28.8791  -24.0602   19.8398 C   0  0  0  0  0  0  0  0  0  0  0  0
  -24.7583  -21.2901   19.2023 C   0  0  0  0  0  0  0  0  0  0  0  0
  -21.9422  -21.5660   22.6430 C   0  0  0  0  0  0  0  0  0  0  0  0
  -28.6083  -25.4808   19.3562 C   0  0  0  0  0  0  0  0  0  1  0  0
  -23.0540  -22.3673   21.9897 C   0  0  0  0  0  0  0  0  0  0  0  0
  -22.1675  -29.8859   23.2623 C   0  0  1  0  0  0  0  0  0  0  0  0
  -19.4765  -27.4105   22.2622 C   0  0  2  0  0  0  0  0  0  0  0  0
  -25.4411  -20.0927   18.4982 C   0  0  0  0  0  0  0  0  0  0  0  0
  -22.0756  -30.6595   24.6078 C   0  0  0  0  0  0  0  0  0  0  0  0
  -22.2003  -15.0626   20.8328 N   0  0  0  0  0  0  0  0  0  0  0  0
  -21.0520  -15.3784   21.4556 N   0  0  0  0  0  0  0  0  0  0  0  0
  -23.7342  -30.4575   21.4340 N   0  0  0  0  0  0  0  0  0  0  0  0
  -20.5973  -18.9962   20.3095 N   0  0  0  0  0  0  0  0  0  0  0  0
  -19.5274  -14.6229   23.1035 N   0  0  0  0  0  0  0  0  0  0  0  0
  -22.6812  -11.3910   23.0422 N   0  0  0  0  0  0  0  0  0  0  0  0
  -25.3391  -33.5519   20.6730 N   0  0  0  0  0  0  0  0  0  0  0  0
  -20.9302  -29.2196   22.8704 N   0  0  0  0  0  0  0  0  0  0  0  0
  -21.6781  -20.3347   21.9324 N   0  0  0  0  0  0  0  0  0  0  0  0
  -19.5480  -26.2663   21.3099 N   0  3  0  0  0  0  0  0  0  0  0  0
  -20.7084  -12.0493   24.0082 O   0  0  0  0  0  0  0  0  0  0  0  0
  -25.9440  -31.7778   22.0547 O   0  0  0  0  0  0  0  0  0  0  0  0
  -21.8173  -31.7298   21.8117 O   0  0  0  0  0  0  0  0  0  0  0  0
  -21.8173  -27.0800   22.7605 O   0  0  0  0  0  0  0  0  0  0  0  0
  -20.1028  -21.2500   20.5405 O   0  0  0  0  0  0  0  0  0  0  0  0
  -27.2113  -11.2710   19.8019 O   0  0  0  0  0  0  0  0  0  0  0  0
  -28.1721  -26.2875   20.4495 O   0  0  0  0  0  0  0  0  0  1  0  0
  -24.2527  -21.5959   21.9832 O   0  0  0  0  0  0  0  0  0  0  0  0
  -31.7881  -14.2942   19.2393 F   0  0  0  0  0  0  0  0  0  0  0  0
  -29.4649  -10.7263   21.3075 F   0  0  0  0  0  0  0  0  0  0  0  0
  1  2  1  0  0  0  0
  1  5  2  0  0  0  0
  2  6  2  0  0  0  0
  3  8  2  0  0  0  0
  3 17  1  0  0  0  0
  4  9  1  0  0  0  0
  4 17  2  0  0  0  0
  5 19  1  0  0  0  0
  6 21  1  0  0  0  0
  7 10  2  0  0  0  0
  7 20  1  0  0  0  0
  8 26  1  0  0  0  0
  9 26  2  0  0  0  0
 10 27  1  0  0  0  0
 11 12  2  0  0  0  0
 11 28  1  0  0  0  0
 12 30  1  0  0  0  0
 13 22  1  0  0  0  0
 13 27  2  0  0  0  0
 14 23  1  0  0  0  0
 14 24  2  0  0  0  0
 15 23  2  0  0  0  0
 15 25  1  0  0  0  0
 16 30  2  0  0  0  0
 16 31  1  0  0  0  0
 17 32  1  0  0  0  0
 18 32  1  0  0  0  0
 18 33  2  0  0  0  0
 18 34  1  0  0  0  0
 19 21  2  0  0  0  0
 19 39  1  0  0  0  0
 20 22  2  0  0  0  0
 20 40  1  0  0  0  0
 21 48  1  0  0  0  0
 22 41  1  0  0  0  0
 23 59  1  0  0  0  0
 24 29  1  0  0  0  0
 24 51  1  0  0  0  0
 25 29  2  0  0  0  0
 25 60  1  0  0  0  0
 26 83  1  0  0  0  0
 27 84  1  0  0  0  0
 28 31  2  0  0  0  0
 28 83  1  0  0  0  0
 29 85  1  0  0  0  0
 30 86  1  0  0  0  0
 31 87  1  0  0  0  0
 32 68  2  0  0  0  0
 33 69  1  0  0  0  0
 33 72  1  0  0  0  0
 34 73  1  0  0  0  0
 34 78  2  0  0  0  0
 35 49  1  0  0  0  0
 35 74  1  0  0  0  0
 35 79  2  0  0  0  0
 36 64  1  0  0  0  0
 36 70  1  0  0  0  0
 36 80  2  0  0  0  0
 37 65  1  0  0  0  0
 37 75  1  0  0  0  0
 37 81  2  0  0  0  0
 38 71  1  0  0  0  0
 38 76  1  0  0  0  0
 38 82  2  0  0  0  0
 39 42  1  0  0  0  0
 40 49  1  0  0  0  0
 41 70  1  0  0  0  0
 42 44  1  0  0  0  0
 43 45  1  0  0  0  0
 43 46  1  0  0  0  0
 44 48  1  0  0  0  0
 45 50  1  0  0  0  0
 46 71  1  0  0  0  0
 47 50  1  0  0  0  0
 47 71  1  0  0  0  0
 48 74  1  0  0  0  0
 49 70  1  0  0  0  0
 50 69  1  0  0  0  0
 52 65  1  0  0  0  0
 53 66  1  0  0  0  0
 54 66  1  0  0  0  0
 55 67  1  0  0  0  0
 56 67  1  0  0  0  0
 57 67  1  0  0  0  0
 58 77  1  0  0  0  0
 59 62  1  0  0  0  0
 60 66  1  0  0  0  0
 61 63  1  0  0  0  0
 61 76  1  0  0  0  0
 62 84  1  0  0  0  0
 63 85  1  0  0  0  0
 64 67  1  0  0  0  0
 64 75  1  0  0  0  0
 65 77  1  0  0  0  0
 68 69  1  0  0  0  0
M  CHG  1  77   1
M  ISO  4  38 100  62 101  76 100  84 101
M  END
> <Batch ID>
0156

> <Smiles>
CNC(C)C(=O)NC(C(=O)N1Cc2cc([101O:1][101CH2:1]Cc3cc(C)c(OCC[100NH:0][100C:0](=O)N4CCCC(n5nc(-c6ccc(Oc7ccc(F)cc7F)cc6)c(C(N)=O)c5N)C4)c(CC(C)C)c3)ccc2CC1C(=O)NC1CCCc2ccccc21)C(C)(C)C

> <Shape>
0.226

> <Color>
0.104

> <Negative vol penalty>
0.000

$$$$

  -OEChem-04052321563D

 88 97  0     1  0  0  0  0  0999 V2000
  -17.5279  -24.3033   23.9968 C   0  0  0  0  0  0  0  0  0  0  0  0
  -18.2953  -23.6203   23.0586 C   0  0  0  0  0  0  0  0  0  0  0  0
  -25.7797  -14.4917   21.7574 C   0  0  0  0  0  0  0  0  0  0  0  0
  -25.5501  -15.5947   19.6202 C   0  0  0  0  0  0  0  0  0  0  0  0
  -17.6702  -25.6827   24.1411 C   0  0  0  0  0  0  0  0  0  0  0  0
  -19.2048  -24.3167   22.2634 C   0  0  0  0  0  0  0  0  0  0  0  0
  -24.6312  -22.3092   20.2560 C   0  0  0  0  0  0  0  0  0  0  0  0
  -24.4132  -14.2123   21.7600 C   0  0  0  0  0  0  0  0  0  0  0  0
  -24.1835  -15.3153   19.6228 C   0  0  0  0  0  0  0  0  0  0  0  0
  -25.0379  -21.7640   19.0390 C   0  0  0  0  0  0  0  0  0  0  0  0
  -22.3254  -11.9744   20.3228 C   0  0  0  0  0  0  0  0  0  0  0  0
  -21.9274  -10.6882   20.6873 C   0  0  0  0  0  0  0  0  0  0  0  0
  -25.7817  -23.9427   18.3184 C   0  0  0  0  0  0  0  0  0  0  0  0
  -32.4515  -22.4289   18.9325 C   0  0  0  0  0  0  0  0  0  0  0  0
  -20.6508  -11.6033   22.5230 C   0  0  0  0  0  0  0  0  0  0  0  0
  -26.3482  -15.1830   20.6874 C   0  0  0  0  0  0  0  0  0  0  0  0
  -28.7908  -14.6704   20.1595 C   0  0  0  0  0  0  0  0  0  0  0  0
  -18.5888  -26.3949   23.3540 C   0  0  0  0  0  0  0  0  0  0  0  0
  -24.7870  -23.6796   20.5096 C   0  0  0  0  0  0  0  0  0  0  0  0
  -19.3585  -25.7072   22.3964 C   0  0  0  0  0  0  0  0  0  0  0  0
  -25.3785  -24.5024   19.5404 C   0  0  0  0  0  0  0  0  0  0  0  0
  -30.6207  -21.7840   17.4723 C   0  0  0  0  0  0  0  0  0  0  0  0
  -31.2978  -22.3469   16.3753 C   0  0  0  0  0  0  0  0  0  0  0  0
  -33.1209  -22.9924   17.8502 C   0  0  0  0  0  0  0  0  0  0  0  0
  -31.2096  -21.8240   18.7446 C   0  0  0  0  0  0  0  0  0  0  0  0
  -23.6151  -14.6241   20.6928 C   0  0  0  0  0  0  0  0  0  0  0  0
  -25.6106  -22.5813   18.0689 C   0  0  0  0  0  0  0  0  0  0  0  0
  -21.8862  -13.0751   21.0585 C   0  0  0  0  0  0  0  0  0  0  0  0
  -32.5487  -22.9516   16.5791 C   0  0  0  0  0  0  0  0  0  0  0  0
  -21.0901  -10.5026   21.7873 C   0  0  0  0  0  0  0  0  0  0  0  0
  -21.0489  -12.8896   22.1585 C   0  0  0  0  0  0  0  0  0  0  0  0
  -27.7597  -15.4723   20.6844 C   0  0  0  0  0  0  0  0  0  0  0  0
  -29.9388  -15.3839   20.4034 C   0  0  0  0  0  0  0  0  0  0  0  0
  -28.7174  -13.3945   19.5094 C   0  0  0  0  0  0  0  0  0  0  0  0
  -22.8036  -26.0883   21.1161 C   0  0  0  0  0  0  0  0  0  0  0  0
  -25.5621  -27.7292   21.5855 C   0  0  0  0  0  0  0  0  0  0  0  0
  -28.9035  -28.0197   20.9550 C   0  0  0  0  0  0  0  0  0  0  0  0
  -31.0394  -21.2053   21.1807 C   0  0  0  0  0  0  0  0  0  0  0  0
  -18.6735  -27.8923   23.5130 C   0  0  0  0  0  0  0  0  0  0  0  0
  -24.3676  -24.2474   21.8378 C   0  0  0  0  0  0  0  0  0  0  0  0
  -25.5866  -25.9761   19.7713 C   0  0  0  0  0  0  0  0  0  0  0  0
  -29.3006  -21.0836   17.2992 C   0  0  0  0  0  0  0  0  0  0  0  0
  -19.9284  -28.5007   22.8924 C   0  0  0  0  0  0  0  0  0  0  0  0
  -31.7868  -18.5740   23.4599 C   0  0  0  0  0  0  0  0  0  0  0  0
  -20.1564  -27.9412   21.4917 C   0  0  0  0  0  0  0  0  0  0  0  0
  -30.9374  -17.4052   22.9554 C   0  0  0  0  0  0  0  0  0  0  0  0
  -31.0639  -19.9104   23.3015 C   0  0  0  0  0  0  0  0  0  0  0  0
  -29.7111  -19.0188   21.4456 C   0  0  0  0  0  0  0  0  0  0  0  0
  -29.6132  -21.2493   14.8349 C   0  0  0  0  0  0  0  0  0  0  0  0
  -30.6853  -22.3369   14.9880 C   0  0  1  0  0  0  0  0  0  0  0  0
  -20.3736  -26.4237   21.5325 C   0  0  1  0  0  0  0  0  0  0  0  0
  -24.1035  -25.7491   21.7890 C   0  0  1  0  0  0  0  0  0  0  0  0
  -30.4232  -17.6585   21.5247 C   0  0  2  0  0  0  0  0  0  0  0  0
  -34.4521  -23.6325   18.0707 C   0  0  0  0  0  0  0  0  0  0  0  0
  -30.1367  -23.7256   14.6363 C   0  0  0  0  0  0  0  0  0  0  0  0
  -34.1944  -23.0845   13.3794 C   0  0  0  0  0  0  0  0  0  0  0  0
  -30.8808  -29.4846   21.4464 C   0  0  0  0  0  0  0  0  0  0  0  0
  -24.5324  -29.7870   19.5818 C   0  0  0  0  0  0  0  0  0  0  0  0
  -26.8668  -30.6731   19.3978 C   0  0  0  0  0  0  0  0  0  0  0  0
  -25.6703  -30.7601   21.5849 C   0  0  0  0  0  0  0  0  0  0  0  0
  -30.3504  -25.8144   22.2974 C   0  0  0  0  0  0  0  0  0  0  0  0
  -27.4297  -20.4610   15.7626 C   0  0  0  0  0  0  0  0  0  0  0  0
  -34.1259  -22.6436   14.8260 C   0  0  0  0  0  0  0  0  0  0  0  0
  -26.4357  -20.6916   16.8838 C   0  0  0  0  0  0  0  0  0  1  0  0
  -26.4894  -28.5348   20.7079 C   0  0  1  0  0  0  0  0  0  0  0  0
  -30.0851  -28.2621   21.8766 C   0  0  2  0  0  0  0  0  0  0  0  0
  -25.8841  -29.9114   20.3127 C   0  0  0  0  0  0  0  0  0  0  0  0
  -28.2127  -16.6083   21.2214 N   0  0  0  0  0  0  0  0  0  0  0  0
  -29.5411  -16.5252   21.0353 N   0  0  0  0  0  0  0  0  0  0  0  0
  -25.1544  -26.4852   21.0833 N   0  0  0  0  0  0  0  0  0  0  0  0
  -30.6092  -20.0833   21.9201 N   0  0  0  0  0  0  0  0  0  0  0  0
  -31.2395  -15.1400   20.1370 N   0  0  0  0  0  0  0  0  0  0  0  0
  -27.4584  -12.8025   19.3399 N   0  0  0  0  0  0  0  0  0  0  0  0
  -30.5689  -21.2462   19.8686 N   0  0  0  0  0  0  0  0  0  0  0  0
  -21.7183  -26.1173   21.9710 N   0  0  0  0  0  0  0  0  0  0  0  0
  -27.7565  -28.6231   21.4256 N   0  0  0  0  0  0  0  0  0  0  0  0
  -28.6259  -21.3464   15.9704 N   0  3  1  0  0  0  0  0  0  0  0  0
  -30.9962  -27.0828   21.8719 N   0  3  0  0  0  0  0  0  0  0  0  0
  -29.7396  -12.7897   19.1058 O   0  0  0  0  0  0  0  0  0  0  0  0
  -22.7867  -26.3089   19.9108 O   0  0  0  0  0  0  0  0  0  0  0  0
  -25.2181  -28.1836   22.6795 O   0  0  0  0  0  0  0  0  0  0  0  0
  -28.9902  -27.3640   19.9191 O   0  0  0  0  0  0  0  0  0  0  0  0
  -31.7934  -22.0524   21.6665 O   0  0  0  0  0  0  0  0  0  0  0  0
  -22.2816  -14.3515   20.6949 O   0  0  0  0  0  0  0  0  0  0  0  0
  -26.0107  -22.0480   16.8713 O   0  0  0  0  0  0  0  0  0  1  0  0
  -33.2313  -23.4996   15.5301 O   0  0  0  0  0  0  0  0  0  0  0  0
  -20.7067   -9.2675   22.1362 F   0  0  0  0  0  0  0  0  0  0  0  0
  -20.6227  -13.9433   22.8684 F   0  0  0  0  0  0  0  0  0  0  0  0
  1  2  1  0  0  0  0
  1  5  2  0  0  0  0
  2  6  2  0  0  0  0
  3  8  2  0  0  0  0
  3 16  1  0  0  0  0
  4  9  1  0  0  0  0
  4 16  2  0  0  0  0
  5 18  1  0  0  0  0
  6 20  1  0  0  0  0
  7 10  2  0  0  0  0
  7 19  1  0  0  0  0
  8 26  1  0  0  0  0
  9 26  2  0  0  0  0
 10 27  1  0  0  0  0
 11 12  2  0  0  0  0
 11 28  1  0  0  0  0
 12 30  1  0  0  0  0
 13 21  1  0  0  0  0
 13 27  2  0  0  0  0
 14 24  2  0  0  0  0
 14 25  1  0  0  0  0
 15 30  2  0  0  0  0
 15 31  1  0  0  0  0
 16 32  1  0  0  0  0
 17 32  1  0  0  0  0
 17 33  2  0  0  0  0
 17 34  1  0  0  0  0
 18 20  2  0  0  0  0
 18 39  1  0  0  0  0
 19 21  2  0  0  0  0
 19 40  1  0  0  0  0
 20 51  1  0  0  0  0
 21 41  1  0  0  0  0
 22 23  1  0  0  0  0
 22 25  2  0  0  0  0
 22 42  1  0  0  0  0
 23 29  2  0  0  0  0
 23 50  1  0  0  0  0
 24 29  1  0  0  0  0
 24 54  1  0  0  0  0
 25 74  1  0  0  0  0
 26 84  1  0  0  0  0
 27 85  1  0  0  0  0
 28 31  2  0  0  0  0
 28 84  1  0  0  0  0
 29 86  1  0  0  0  0
 30 87  1  0  0  0  0
 31 88  1  0  0  0  0
 32 68  2  0  0  0  0
 33 69  1  0  0  0  0
 33 72  1  0  0  0  0
 34 73  1  0  0  0  0
 34 79  2  0  0  0  0
 35 52  1  0  0  0  0
 35 75  1  0  0  0  0
 35 80  2  0  0  0  0
 36 65  1  0  0  0  0
 36 70  1  0  0  0  0
 36 81  2  0  0  0  0
 37 66  1  0  0  0  0
 37 76  1  0  0  0  0
 37 82  2  0  0  0  0
 38 71  1  0  0  0  0
 38 74  1  0  0  0  0
 38 83  2  0  0  0  0
 39 43  1  0  0  0  0
 40 52  1  0  0  0  0
 41 70  1  0  0  0  0
 42 77  1  0  0  0  0
 43 45  1  0  0  0  0
 44 46  1  0  0  0  0
 44 47  1  0  0  0  0
 45 51  1  0  0  0  0
 46 53  1  0  0  0  0
 47 71  1  0  0  0  0
 48 53  1  0  0  0  0
 48 71  1  0  0  0  0
 49 50  1  0  0  0  0
 49 77  1  0  0  0  0
 50 55  1  0  0  0  0
 51 75  1  0  0  0  0
 52 70  1  0  0  0  0
 53 69  1  0  0  0  0
 56 63  1  0  0  0  0
 57 66  1  0  0  0  0
 58 67  1  0  0  0  0
 59 67  1  0  0  0  0
 60 67  1  0  0  0  0
 61 78  1  0  0  0  0
 62 64  1  0  0  0  0
 62 77  1  0  0  0  0
 63 86  1  0  0  0  0
 64 85  1  0  0  0  0
 65 67  1  0  0  0  0
 65 76  1  0  0  0  0
 66 78  1  0  0  0  0
 68 69  1  0  0  0  0
M  CHG  2  77   1  78   1
M  ISO  4  38 100  64 101  74 100  85 101
M  END
> <Batch ID>
0156

> <Smiles>
CCOc1c(C)cc([100NH:0][100C:0](=O)N2CCCC(n3nc(-c4ccc(Oc5ccc(F)cc5F)cc4)c(C(N)=O)c3N)C2)c2c1C(C)CN(C[101CH2:1][101O:1]c1ccc3c(c1)CN(C(=O)C(NC(=O)C(C)NC)C(C)(C)C)C(C(=O)NC1CCCc4ccccc41)C3)C2

> <Shape>
0.218

> <Color>
0.051

> <Negative vol penalty>
0.000

$$$$

  -OEChem-04052321563D

 88 97  0     1  0  0  0  0  0999 V2000
  -28.4772  -35.7993   20.9638 C   0  0  0  0  0  0  0  0  0  0  0  0
  -29.1414  -34.6699   20.4961 C   0  0  0  0  0  0  0  0  0  0  0  0
  -22.9347  -10.1927   20.2454 C   0  0  0  0  0  0  0  0  0  0  0  0
  -24.2449   -9.3390   22.0870 C   0  0  0  0  0  0  0  0  0  0  0  0
  -27.4292  -35.6635   21.8734 C   0  0  0  0  0  0  0  0  0  0  0  0
  -28.7587  -33.4041   20.9386 C   0  0  0  0  0  0  0  0  0  0  0  0
  -28.3100  -26.6107   18.7104 C   0  0  0  0  0  0  0  0  0  0  0  0
  -22.1730   -9.0243   20.2456 C   0  0  0  0  0  0  0  0  0  0  0  0
  -23.4832   -8.1705   22.0873 C   0  0  0  0  0  0  0  0  0  0  0  0
  -28.6989  -25.3258   19.0867 C   0  0  0  0  0  0  0  0  0  0  0  0
  -20.4507   -7.1762   23.1990 C   0  0  0  0  0  0  0  0  0  0  0  0
  -20.0127   -6.6901   24.4308 C   0  0  0  0  0  0  0  0  0  0  0  0
  -26.8227  -25.2073   20.5983 C   0  0  0  0  0  0  0  0  0  0  0  0
  -28.8088  -21.1750   22.8687 C   0  0  0  0  0  0  0  0  0  0  0  0
  -21.2122   -4.6288   24.0439 C   0  0  0  0  0  0  0  0  0  0  0  0
  -23.9707  -10.3501   21.1661 C   0  0  0  0  0  0  0  0  0  0  0  0
  -24.5065  -12.7362   21.8922 C   0  0  0  0  0  0  0  0  0  0  0  0
  -27.0271  -34.3948   22.3198 C   0  0  0  0  0  0  0  0  0  0  0  0
  -27.1789  -27.2088   19.2842 C   0  0  0  0  0  0  0  0  0  0  0  0
  -27.7052  -33.2514   21.8560 C   0  0  0  0  0  0  0  0  0  0  0  0
  -26.4201  -26.4988   20.2256 C   0  0  0  0  0  0  0  0  0  0  0  0
  -28.1200  -21.3633   21.6706 C   0  0  0  0  0  0  0  0  0  0  0  0
  -29.3678  -19.9316   23.1639 C   0  0  0  0  0  0  0  0  0  0  0  0
  -27.9901  -20.3082   20.7675 C   0  0  0  0  0  0  0  0  0  0  0  0
  -28.5490  -19.0647   21.0627 C   0  0  0  0  0  0  0  0  0  0  0  0
  -22.4472   -8.0131   21.1665 C   0  0  0  0  0  0  0  0  0  0  0  0
  -27.9569  -24.6250   20.0329 C   0  0  0  0  0  0  0  0  0  0  0  0
  -21.2694   -6.3886   22.3895 C   0  0  0  0  0  0  0  0  0  0  0  0
  -29.2379  -18.8764   22.2609 C   0  0  0  0  0  0  0  0  0  0  0  0
  -20.3935   -5.4164   24.8533 C   0  0  0  0  0  0  0  0  0  0  0  0
  -21.6502   -5.1149   22.8120 C   0  0  0  0  0  0  0  0  0  0  0  0
  -24.7583  -11.5567   21.1660 C   0  0  0  0  0  0  0  0  0  0  0  0
  -25.5373  -13.5768   21.5496 C   0  0  0  0  0  0  0  0  0  0  0  0
  -23.4367  -13.0444   22.7956 C   0  0  0  0  0  0  0  0  0  0  0  0
  -26.6656  -29.7970   21.0566 C   0  0  0  0  0  0  0  0  0  0  0  0
  -23.5515  -28.9965   20.6272 C   0  0  0  0  0  0  0  0  0  0  0  0
  -21.2515  -26.5692   19.9455 C   0  0  0  0  0  0  0  0  0  0  0  0
  -30.9623  -14.4967   20.6177 C   0  0  0  0  0  0  0  0  0  0  0  0
  -25.9199  -34.3013   23.3396 C   0  0  0  0  0  0  0  0  0  0  0  0
  -26.7573  -28.5851   18.8477 C   0  0  0  0  0  0  0  0  0  0  0  0
  -25.1859  -27.0882   20.8565 C   0  0  0  0  0  0  0  0  0  0  0  0
  -25.3304  -32.8994   23.4719 C   0  0  0  0  0  0  0  0  0  0  0  0
  -29.0418  -13.1814   17.9236 C   0  0  0  0  0  0  0  0  0  0  0  0
  -26.4423  -31.8591   23.5625 C   0  0  0  0  0  0  0  0  0  0  0  0
  -28.3556  -18.8287   26.2029 C   0  0  0  0  0  0  0  0  0  0  0  0
  -29.5391  -19.3144   26.9922 C   0  0  0  0  0  0  0  0  0  0  0  0
  -27.7387  -12.7333   18.5878 C   0  0  0  0  0  0  0  0  0  0  0  0
  -30.2484  -12.9399   18.8280 C   0  0  0  0  0  0  0  0  0  0  0  0
  -28.8344  -13.0761   20.8419 C   0  0  0  0  0  0  0  0  0  0  0  0
  -27.3031  -31.8596   22.2935 C   0  0  1  0  0  0  0  0  0  0  0  0
  -25.8828  -29.2962   19.8758 C   0  0  1  0  0  0  0  0  0  0  0  0
  -29.1958  -19.9601   25.6785 C   0  0  0  0  0  0  0  0  0  0  0  0
  -27.5831  -13.3511   19.9904 C   0  0  2  0  0  0  0  0  0  0  0  0
  -27.2518  -20.5122   19.4826 C   0  0  0  0  0  0  0  0  0  0  0  0
  -28.4137  -17.9296   20.0983 C   0  0  0  0  0  0  0  0  0  0  0  0
  -31.3415  -20.6573   24.5539 C   0  0  0  0  0  0  0  0  0  0  0  0
  -18.7800  -26.2105   19.6999 C   0  0  0  0  0  0  0  0  0  0  0  0
  -23.2387  -29.0917   23.6609 C   0  0  0  0  0  0  0  0  0  0  0  0
  -21.0905  -27.8307   23.4091 C   0  0  0  0  0  0  0  0  0  0  0  0
  -21.3350  -30.0917   22.3840 C   0  0  0  0  0  0  0  0  0  0  0  0
  -21.5389  -25.7088   17.1284 C   0  0  0  0  0  0  0  0  0  0  0  0
  -27.5283  -22.7106   21.3773 C   0  0  0  0  0  0  0  0  0  1  0  0
  -31.5389  -16.0207   22.4896 C   0  0  0  0  0  0  0  0  0  0  0  0
  -31.1245  -17.4350   22.1246 C   0  0  0  0  0  0  0  0  0  0  0  0
  -30.1018  -19.7498   24.4514 C   0  0  2  0  0  0  0  0  0  0  0  0
  -22.5593  -28.1291   21.3635 C   0  0  1  0  0  0  0  0  0  0  0  0
  -20.0802  -26.5339   18.9805 C   0  0  2  0  0  0  0  0  0  0  0  0
  -22.0802  -28.7751   22.6941 C   0  0  0  0  0  0  0  0  0  0  0  0
  -25.8622  -11.6371   20.4185 N   0  0  0  0  0  0  0  0  0  0  0  0
  -26.3133  -12.8772   20.6731 N   0  0  0  0  0  0  0  0  0  0  0  0
  -24.8182  -28.4393   20.4016 N   0  0  0  0  0  0  0  0  0  0  0  0
  -30.0377  -13.5524   20.1419 N   0  0  0  0  0  0  0  0  0  0  0  0
  -25.8465  -14.8389   21.9157 N   0  0  0  0  0  0  0  0  0  0  0  0
  -22.4617  -12.0664   23.0349 N   0  0  0  0  0  0  0  0  0  0  0  0
  -26.6214  -31.1684   21.2201 N   0  0  0  0  0  0  0  0  0  0  0  0
  -21.4861  -27.8433   20.4175 N   0  0  0  0  0  0  0  0  0  0  0  0
  -30.6844  -15.0331   21.8690 N   0  0  0  0  0  0  0  0  0  0  0  0
  -20.3055  -25.5011   17.9300 N   0  3  0  0  0  0  0  0  0  0  0  0
  -23.3390  -14.1599   23.3608 O   0  0  0  0  0  0  0  0  0  0  0  0
  -27.2640  -28.9981   21.7675 O   0  0  0  0  0  0  0  0  0  0  0  0
  -23.2128  -30.1242   20.2594 O   0  0  0  0  0  0  0  0  0  0  0  0
  -21.8917  -25.5661   20.2530 O   0  0  0  0  0  0  0  0  0  0  0  0
  -31.9587  -14.8405   19.9727 O   0  0  0  0  0  0  0  0  0  0  0  0
  -21.7040   -6.8729   21.1671 O   0  0  0  0  0  0  0  0  0  0  0  0
  -28.3346  -23.3710   20.4026 O   0  0  0  0  0  0  0  0  0  1  0  0
  -29.7835  -17.6605   22.5520 O   0  0  0  0  0  0  0  0  0  0  0  0
  -19.9742   -4.9504   26.0370 F   0  0  0  0  0  0  0  0  0  0  0  0
  -22.4375   -4.3542   22.0393 F   0  0  0  0  0  0  0  0  0  0  0  0
  1  2  1  0  0  0  0
  1  5  2  0  0  0  0
  2  6  2  0  0  0  0
  3  8  2  0  0  0  0
  3 16  1  0  0  0  0
  4  9  1  0  0  0  0
  4 16  2  0  0  0  0
  5 18  1  0  0  0  0
  6 20  1  0  0  0  0
  7 10  2  0  0  0  0
  7 19  1  0  0  0  0
  8 26  1  0  0  0  0
  9 26  2  0  0  0  0
 10 27  1  0  0  0  0
 11 12  2  0  0  0  0
 11 28  1  0  0  0  0
 12 30  1  0  0  0  0
 13 21  1  0  0  0  0
 13 27  2  0  0  0  0
 14 22  1  0  0  0  0
 14 23  2  0  0  0  0
 15 30  2  0  0  0  0
 15 31  1  0  0  0  0
 16 32  1  0  0  0  0
 17 32  1  0  0  0  0
 17 33  2  0  0  0  0
 17 34  1  0  0  0  0
 18 20  2  0  0  0  0
 18 39  1  0  0  0  0
 19 21  2  0  0  0  0
 19 40  1  0  0  0  0
 20 50  1  0  0  0  0
 21 41  1  0  0  0  0
 22 24  2  0  0  0  0
 22 62  1  0  0  0  0
 23 29  1  0  0  0  0
 23 65  1  0  0  0  0
 24 25  1  0  0  0  0
 24 54  1  0  0  0  0
 25 29  2  0  0  0  0
 25 55  1  0  0  0  0
 26 84  1  0  0  0  0
 27 85  1  0  0  0  0
 28 31  2  0  0  0  0
 28 84  1  0  0  0  0
 29 86  1  0  0  0  0
 30 87  1  0  0  0  0
 31 88  1  0  0  0  0
 32 69  2  0  0  0  0
 33 70  1  0  0  0  0
 33 73  1  0  0  0  0
 34 74  1  0  0  0  0
 34 79  2  0  0  0  0
 35 51  1  0  0  0  0
 35 75  1  0  0  0  0
 35 80  2  0  0  0  0
 36 66  1  0  0  0  0
 36 71  1  0  0  0  0
 36 81  2  0  0  0  0
 37 67  1  0  0  0  0
 37 76  1  0  0  0  0
 37 82  2  0  0  0  0
 38 72  1  0  0  0  0
 38 77  1  0  0  0  0
 38 83  2  0  0  0  0
 39 42  1  0  0  0  0
 40 51  1  0  0  0  0
 41 71  1  0  0  0  0
 42 44  1  0  0  0  0
 43 47  1  0  0  0  0
 43 48  1  0  0  0  0
 44 50  1  0  0  0  0
 45 46  1  0  0  0  0
 45 52  1  0  0  0  0
 46 52  1  0  0  0  0
 47 53  1  0  0  0  0
 48 72  1  0  0  0  0
 49 53  1  0  0  0  0
 49 72  1  0  0  0  0
 50 75  1  0  0  0  0
 51 71  1  0  0  0  0
 52 65  1  0  0  0  0
 53 70  1  0  0  0  0
 56 65  1  0  0  0  0
 57 67  1  0  0  0  0
 58 68  1  0  0  0  0
 59 68  1  0  0  0  0
 60 68  1  0  0  0  0
 61 78  1  0  0  0  0
 62 85  1  0  0  0  0
 63 64  1  0  0  0  0
 63 77  1  0  0  0  0
 64 86  1  0  0  0  0
 66 68  1  0  0  0  0
 66 76  1  0  0  0  0
 67 78  1  0  0  0  0
 69 70  1  0  0  0  0
M  CHG  1  78   1
M  ISO  4  38 100  62 101  77 100  85 101
M  END
> <Batch ID>
0156

> <Smiles>
CNC(C)C(=O)NC(C(=O)N1Cc2cc([101O:1][101CH2:1]c3cc(C(C)C4CC4)c(OCC[100NH:0][100C:0](=O)N4CCCC(n5nc(-c6ccc(Oc7ccc(F)cc7F)cc6)c(C(N)=O)c5N)C4)c(C)c3C)ccc2CC1C(=O)NC1CCCc2ccccc21)C(C)(C)C

> <Shape>
0.357

> <Color>
0.141

> <Negative vol penalty>
0.000

$$$$

  -OEChem-04052321563D

 92102  0     1  0  0  0  0  0999 V2000
  -26.2452  -23.4395   15.0250 C   0  0  0  0  0  0  0  0  0  0  0  0
  -25.9691  -23.2358   16.3732 C   0  0  0  0  0  0  0  0  0  0  0  0
  -26.3929  -12.6202   21.6647 C   0  0  0  0  0  0  0  0  0  0  0  0
  -25.8451  -13.6676   19.5576 C   0  0  0  0  0  0  0  0  0  0  0  0
  -26.5128  -24.7249   14.5559 C   0  0  0  0  0  0  0  0  0  0  0  0
  -25.9615  -24.3173   17.2533 C   0  0  0  0  0  0  0  0  0  0  0  0
  -21.9952  -24.2332   20.4007 C   0  0  0  0  0  0  0  0  0  0  0  0
  -25.1663  -11.9563   21.6536 C   0  0  0  0  0  0  0  0  0  0  0  0
  -24.6185  -13.0036   19.5465 C   0  0  0  0  0  0  0  0  0  0  0  0
  -22.0617  -23.3601   21.4856 C   0  0  0  0  0  0  0  0  0  0  0  0
  -23.8128   -9.2492   20.1461 C   0  0  0  0  0  0  0  0  0  0  0  0
  -23.8066   -7.8933   20.4733 C   0  0  0  0  0  0  0  0  0  0  0  0
  -22.6888  -25.1971   22.9179 C   0  0  0  0  0  0  0  0  0  0  0  0
  -22.3261   -8.3475   22.3278 C   0  0  0  0  0  0  0  0  0  0  0  0
  -26.7323  -13.4760   20.6168 C   0  0  0  0  0  0  0  0  0  0  0  0
  -29.2165  -13.7092   20.0858 C   0  0  0  0  0  0  0  0  0  0  0  0
  -26.4990  -25.8240   15.4289 C   0  0  0  0  0  0  0  0  0  0  0  0
  -22.2861  -25.5952   20.5643 C   0  0  0  0  0  0  0  0  0  0  0  0
  -26.2306  -25.6185   16.7957 C   0  0  0  0  0  0  0  0  0  0  0  0
  -22.6228  -26.0859   21.8340 C   0  0  0  0  0  0  0  0  0  0  0  0
  -29.6900  -24.1864   21.4305 C   0  0  0  0  0  0  0  0  0  0  0  0
  -30.2080  -25.2976   20.7434 C   0  0  0  0  0  0  0  0  0  0  0  0
  -31.0545  -25.1289   19.6513 C   0  0  0  0  0  0  0  0  0  0  0  0
  -31.4027  -23.8478   19.2422 C   0  0  0  0  0  0  0  0  0  0  0  0
  -30.9044  -22.7349   19.9232 C   0  0  0  0  0  0  0  0  0  0  0  0
  -30.0396  -22.8844   21.0214 C   0  0  0  0  0  0  0  0  0  0  0  0
  -24.2791  -12.1479   20.5945 C   0  0  0  0  0  0  0  0  0  0  0  0
  -22.4113  -23.8414   22.7439 C   0  0  0  0  0  0  0  0  0  0  0  0
  -23.0757  -10.1543   20.9098 C   0  0  0  0  0  0  0  0  0  0  0  0
  -23.0633   -7.4424   21.5641 C   0  0  0  0  0  0  0  0  0  0  0  0
  -22.3323   -9.7034   22.0006 C   0  0  0  0  0  0  0  0  0  0  0  0
  -27.9990  -14.1626   20.6280 C   0  0  0  0  0  0  0  0  0  0  0  0
  -30.1089  -14.7182   20.3544 C   0  0  0  0  0  0  0  0  0  0  0  0
  -29.5142  -12.4855   19.4006 C   0  0  0  0  0  0  0  0  0  0  0  0
  -24.4764  -27.5777   19.3913 C   0  0  0  0  0  0  0  0  0  0  0  0
  -22.7408  -29.8118   20.9784 C   0  0  0  0  0  0  0  0  0  0  0  0
  -20.5618  -30.5310   23.5046 C   0  0  0  0  0  0  0  0  0  0  0  0
  -29.4948  -20.4638   21.1373 C   0  0  0  0  0  0  0  0  0  0  0  0
  -26.8409  -27.1882   14.8841 C   0  0  0  0  0  0  0  0  0  0  0  0
  -22.1839  -26.5288   19.3894 C   0  0  0  0  0  0  0  0  0  0  0  0
  -28.7840  -24.4380   22.6098 C   0  0  0  0  0  0  0  0  0  0  0  0
  -22.9247  -27.5430   22.0666 C   0  0  0  0  0  0  0  0  0  0  0  0
  -26.4446  -28.3323   15.8137 C   0  0  0  0  0  0  0  0  0  0  0  0
  -30.9821  -18.2249   23.4765 C   0  0  0  0  0  0  0  0  0  0  0  0
  -26.8783  -28.0318   17.2450 C   0  0  0  0  0  0  0  0  0  0  0  0
  -30.4830  -16.8751   22.9643 C   0  0  0  0  0  0  0  0  0  0  0  0
  -26.7676  -23.0122   21.9913 C   0  0  0  0  0  0  0  0  0  0  0  0
  -27.3261  -23.4547   24.4011 C   0  0  0  0  0  0  0  0  0  0  0  0
  -29.9140  -19.3138   23.3647 C   0  0  0  0  0  0  0  0  0  0  0  0
  -28.8392  -18.0976   21.4935 C   0  0  0  0  0  0  0  0  0  0  0  0
  -28.8851  -21.9961   23.0318 C   0  0  0  0  0  0  0  0  0  0  0  0
  -25.7718  -21.9422   22.4225 C   0  0  0  0  0  0  0  0  0  0  0  0
  -26.3178  -22.3947   24.8286 C   0  0  0  0  0  0  0  0  0  0  0  0
  -26.1887  -26.7697   17.7770 C   0  0  1  0  0  0  0  0  0  0  0  0
  -23.0015  -27.8045   19.5670 C   0  0  1  0  0  0  0  0  0  0  0  0
  -29.9163  -17.0038   21.5399 C   0  0  2  0  0  0  0  0  0  0  0  0
  -27.9310  -23.2104   22.9966 C   0  0  0  0  0  0  0  0  0  0  0  0
  -29.8695  -26.6916   21.1801 C   0  0  0  0  0  0  0  0  0  0  0  0
  -31.5963  -26.3208   18.9270 C   0  0  0  0  0  0  0  0  0  0  0  0
  -32.3339  -23.6708   18.0824 C   0  0  0  0  0  0  0  0  0  0  0  0
  -31.4646  -21.4062   19.5058 C   0  0  0  0  0  0  0  0  0  0  0  0
  -19.3548  -32.4515   24.5779 C   0  0  0  0  0  0  0  0  0  0  0  0
  -21.6892  -20.7122   23.9218 C   0  0  0  0  0  0  0  0  0  0  0  0
  -25.3307  -30.6744   22.3415 C   0  0  0  0  0  0  0  0  0  0  0  0
  -23.9501  -31.8897   24.0402 C   0  0  0  0  0  0  0  0  0  0  0  0
  -23.8436  -32.5586   21.6394 C   0  0  0  0  0  0  0  0  0  0  0  0
  -17.9135  -29.3688   22.8763 C   0  0  0  0  0  0  0  0  0  0  0  0
  -24.1575  -21.3176   24.2140 C   0  0  0  0  0  0  0  0  0  0  0  0
  -22.7644  -30.3927   22.3716 C   0  0  1  0  0  0  0  0  0  0  0  0
  -19.2848  -31.3514   23.5303 C   0  0  2  0  0  0  0  0  0  0  0  0
  -22.8340  -21.6356   23.5258 C   0  0  2  0  0  0  0  0  0  1  0  0
  -23.9685  -31.3510   22.5937 C   0  0  0  0  0  0  0  0  0  0  0  0
  -28.1047  -15.3658   21.1980 N   0  0  0  0  0  0  0  0  0  0  0  0
  -29.3993  -15.6771   21.0157 N   0  0  0  0  0  0  0  0  0  0  0  0
  -29.5441  -21.7403   21.7374 N   0  0  0  0  0  0  0  0  0  0  0  0
  -22.8174  -28.4149   20.8852 N   0  0  0  0  0  0  0  0  0  0  0  0
  -29.3576  -19.3678   22.0065 N   0  0  0  0  0  0  0  0  0  0  0  0
  -31.4234  -14.8698   20.0872 N   0  0  0  0  0  0  0  0  0  0  0  0
  -28.4807  -11.5583   19.2093 N   0  0  0  0  0  0  0  0  0  0  0  0
  -24.8232  -27.0620   18.1571 N   0  0  0  0  0  0  0  0  0  0  0  0
  -21.4605  -31.0139   22.5770 N   0  0  0  0  0  0  0  0  0  0  0  0
  -25.2327  -22.2800   23.7891 N   0  3  0  0  0  0  0  0  0  0  0  0
  -18.1158  -30.4806   23.8406 N   0  3  0  0  0  0  0  0  0  0  0  0
  -30.6665  -12.2148   18.9852 O   0  0  0  0  0  0  0  0  0  0  0  0
  -25.2431  -27.8519   20.3070 O   0  0  0  0  0  0  0  0  0  0  0  0
  -22.6503  -30.5691   20.0089 O   0  0  0  0  0  0  0  0  0  0  0  0
  -20.7453  -29.5612   24.2369 O   0  0  0  0  0  0  0  0  0  0  0  0
  -29.5239  -20.3138   19.9095 O   0  0  0  0  0  0  0  0  0  0  0  0
  -23.0822  -11.5000   20.5832 O   0  0  0  0  0  0  0  0  0  0  0  0
  -22.4780  -22.9863   23.8105 O   0  0  0  0  0  0  0  0  0  1  0  0
  -23.0562   -6.1401   21.8773 F   0  0  0  0  0  0  0  0  0  0  0  0
  -21.6213  -10.5680   22.7372 F   0  0  0  0  0  0  0  0  0  0  0  0
  1  2  1  0  0  0  0
  1  5  2  0  0  0  0
  2  6  2  0  0  0  0
  3  8  2  0  0  0  0
  3 15  1  0  0  0  0
  4  9  1  0  0  0  0
  4 15  2  0  0  0  0
  5 17  1  0  0  0  0
  6 19  1  0  0  0  0
  7 10  2  0  0  0  0
  7 18  1  0  0  0  0
  8 27  1  0  0  0  0
  9 27  2  0  0  0  0
 10 28  1  0  0  0  0
 11 12  2  0  0  0  0
 11 29  1  0  0  0  0
 12 30  1  0  0  0  0
 13 20  1  0  0  0  0
 13 28  2  0  0  0  0
 14 30  2  0  0  0  0
 14 31  1  0  0  0  0
 15 32  1  0  0  0  0
 16 32  1  0  0  0  0
 16 33  2  0  0  0  0
 16 34  1  0  0  0  0
 17 19  2  0  0  0  0
 17 39  1  0  0  0  0
 18 20  2  0  0  0  0
 18 40  1  0  0  0  0
 19 54  1  0  0  0  0
 20 42  1  0  0  0  0
 21 22  1  0  0  0  0
 21 26  2  0  0  0  0
 21 41  1  0  0  0  0
 22 23  2  0  0  0  0
 22 58  1  0  0  0  0
 23 24  1  0  0  0  0
 23 59  1  0  0  0  0
 24 25  2  0  0  0  0
 24 60  1  0  0  0  0
 25 26  1  0  0  0  0
 25 61  1  0  0  0  0
 26 75  1  0  0  0  0
 27 89  1  0  0  0  0
 28 90  1  0  0  0  0
 29 31  2  0  0  0  0
 29 89  1  0  0  0  0
 30 91  1  0  0  0  0
 31 92  1  0  0  0  0
 32 73  2  0  0  0  0
 33 74  1  0  0  0  0
 33 78  1  0  0  0  0
 34 79  1  0  0  0  0
 34 84  2  0  0  0  0
 35 55  1  0  0  0  0
 35 80  1  0  0  0  0
 35 85  2  0  0  0  0
 36 69  1  0  0  0  0
 36 76  1  0  0  0  0
 36 86  2  0  0  0  0
 37 70  1  0  0  0  0
 37 81  1  0  0  0  0
 37 87  2  0  0  0  0
 38 75  1  0  0  0  0
 38 77  1  0  0  0  0
 38 88  2  0  0  0  0
 39 43  1  0  0  0  0
 40 55  1  0  0  0  0
 41 57  1  0  0  0  0
 42 76  1  0  0  0  0
 43 45  1  0  0  0  0
 44 46  1  0  0  0  0
 44 49  1  0  0  0  0
 45 54  1  0  0  0  0
 46 56  1  0  0  0  0
 47 52  1  0  0  0  0
 47 57  1  0  0  0  0
 48 53  1  0  0  0  0
 48 57  1  0  0  0  0
 49 77  1  0  0  0  0
 50 56  1  0  0  0  0
 50 77  1  0  0  0  0
 51 57  1  0  0  0  0
 51 75  1  0  0  0  0
 52 82  1  0  0  0  0
 53 82  1  0  0  0  0
 54 80  1  0  0  0  0
 55 76  1  0  0  0  0
 56 74  1  0  0  0  0
 62 70  1  0  0  0  0
 63 71  1  0  0  0  0
 64 72  1  0  0  0  0
 65 72  1  0  0  0  0
 66 72  1  0  0  0  0
 67 83  1  0  0  0  0
 68 71  1  0  0  0  0
 68 82  1  0  0  0  0
 69 72  1  0  0  0  0
 69 81  1  0  0  0  0
 70 83  1  0  0  0  0
 71 90  1  0  0  0  0
 73 74  1  0  0  0  0
M  CHG  2  82   1  83   1
M  ISO  4  38 100  71 101  75 100  90 101
M  END
> <Batch ID>
0156

> <Smiles>
CNC(C)C(=O)NC(C(=O)N1Cc2cc([101O:1][101CH:1](C)CN3CCC4(CC3)Cc3c(C)c(C)c(C)c(C)c3[100N:0]([100C:0](=O)N3CCCC(n5nc(-c6ccc(Oc7ccc(F)cc7F)cc6)c(C(N)=O)c5N)C3)C4)ccc2CC1C(=O)NC1CCCc2ccccc21)C(C)(C)C

> <Shape>
0.273

> <Color>
0.067

> <Negative vol penalty>
0.000

$$$$

  -OEChem-04052321563D

 87 96  0     1  0  0  0  0  0999 V2000
  -28.0604  -36.8466   23.8199 C   0  0  0  0  0  0  0  0  0  0  0  0
  -28.2006  -35.4713   23.9762 C   0  0  0  0  0  0  0  0  0  0  0  0
  -23.4624  -10.1388   22.3149 C   0  0  0  0  0  0  0  0  0  0  0  0
  -22.4760  -10.2253   20.1111 C   0  0  0  0  0  0  0  0  0  0  0  0
  -26.7892  -37.4087   23.7111 C   0  0  0  0  0  0  0  0  0  0  0  0
  -27.0694  -34.6574   24.0248 C   0  0  0  0  0  0  0  0  0  0  0  0
  -25.4074  -22.3866   19.8675 C   0  0  0  0  0  0  0  0  0  0  0  0
  -27.5510  -30.4900   21.1883 C   0  0  0  0  0  0  0  0  0  0  0  0
  -24.2774  -21.7545   19.3488 C   0  0  0  0  0  0  0  0  0  0  0  0
  -23.0411   -8.8162   22.4516 C   0  0  0  0  0  0  0  0  0  0  0  0
  -22.0547   -8.9026   20.2479 C   0  0  0  0  0  0  0  0  0  0  0  0
  -28.3145  -29.4479   21.7124 C   0  0  0  0  0  0  0  0  0  0  0  0
  -20.1759   -7.1779   23.1803 C   0  0  0  0  0  0  0  0  0  0  0  0
  -19.5836   -6.8087   24.3880 C   0  0  0  0  0  0  0  0  0  0  0  0
  -26.2941  -28.3118   22.3807 C   0  0  0  0  0  0  0  0  0  0  0  0
  -25.6734  -20.0041   18.4408 C   0  0  0  0  0  0  0  0  0  0  0  0
  -21.3173   -5.1623   24.7350 C   0  0  0  0  0  0  0  0  0  0  0  0
  -23.1798  -10.8434   21.1447 C   0  0  0  0  0  0  0  0  0  0  0  0
  -24.8374  -12.6625   20.4731 C   0  0  0  0  0  0  0  0  0  0  0  0
  -25.6422  -36.6002   23.7488 C   0  0  0  0  0  0  0  0  0  0  0  0
  -26.1513  -30.4560   21.2664 C   0  0  0  0  0  0  0  0  0  0  0  0
  -25.7815  -35.2094   23.9178 C   0  0  0  0  0  0  0  0  0  0  0  0
  -26.6704  -21.8276   19.6728 C   0  0  0  0  0  0  0  0  0  0  0  0
  -25.5150  -29.3536   21.8546 C   0  0  0  0  0  0  0  0  0  0  0  0
  -24.4104  -20.5632   18.6354 C   0  0  0  0  0  0  0  0  0  0  0  0
  -26.8034  -20.6363   18.9595 C   0  0  0  0  0  0  0  0  0  0  0  0
  -22.3373   -8.1980   21.4181 C   0  0  0  0  0  0  0  0  0  0  0  0
  -27.6862  -28.3599   22.3113 C   0  0  0  0  0  0  0  0  0  0  0  0
  -21.3389   -6.5392   22.7499 C   0  0  0  0  0  0  0  0  0  0  0  0
  -20.1543   -5.8010   25.1654 C   0  0  0  0  0  0  0  0  0  0  0  0
  -21.9096   -5.5314   23.5273 C   0  0  0  0  0  0  0  0  0  0  0  0
  -23.6143  -12.2099   21.0030 C   0  0  0  0  0  0  0  0  0  0  0  0
  -24.7634  -14.0312   20.5590 C   0  0  0  0  0  0  0  0  0  0  0  0
  -25.9418  -11.9126   19.9498 C   0  0  0  0  0  0  0  0  0  0  0  0
  -23.9369  -32.2706   22.6475 C   0  0  0  0  0  0  0  0  0  0  0  0
  -21.8975  -30.3091   21.0614 C   0  0  0  0  0  0  0  0  0  0  0  0
  -21.3471  -27.2786   19.5917 C   0  0  0  0  0  0  0  0  0  0  0  0
  -21.9388  -18.8019   19.9203 C   0  0  0  0  0  0  0  0  0  0  0  0
  -24.2873  -37.2585   23.6747 C   0  0  0  0  0  0  0  0  0  0  0  0
  -25.3411  -31.5755   20.6724 C   0  0  0  0  0  0  0  0  0  0  0  0
  -24.0146  -29.2594   21.9455 C   0  0  0  0  0  0  0  0  0  0  0  0
  -23.1538  -36.2857   23.3597 C   0  0  0  0  0  0  0  0  0  0  0  0
  -21.4457  -17.0050   22.9542 C   0  0  0  0  0  0  0  0  0  0  0  0
  -23.2674  -35.0352   24.2257 C   0  0  0  0  0  0  0  0  0  0  0  0
  -22.0610  -15.6334   22.6710 C   0  0  0  0  0  0  0  0  0  0  0  0
  -28.0067  -23.9250   19.6239 C   0  0  0  0  0  0  0  0  0  0  0  0
  -27.7559  -22.6122   21.7688 C   0  0  0  0  0  0  0  0  0  0  0  0
  -20.7542  -17.5790   21.7196 C   0  0  0  0  0  0  0  0  0  0  0  0
  -22.2108  -16.2665   20.2265 C   0  0  0  0  0  0  0  0  0  0  0  0
  -29.1696  -24.6918   20.2406 C   0  0  0  0  0  0  0  0  0  0  0  0
  -28.9210  -23.3888   22.3689 C   0  0  0  0  0  0  0  0  0  0  0  0
  -27.8668  -22.5228   20.2382 C   0  0  0  0  0  0  0  0  0  0  0  0
  -24.5794  -34.2907   23.9503 C   0  0  1  0  0  0  0  0  0  0  0  0
  -23.9397  -31.6792   21.2663 C   0  0  1  0  0  0  0  0  0  0  0  0
  -22.9679  -15.6718   21.4263 C   0  0  2  0  0  0  0  0  0  0  0  0
  -28.1455  -20.0193   18.7380 C   0  0  0  0  0  0  0  0  0  0  0  0
  -19.5703  -25.9537   18.4148 C   0  0  0  0  0  0  0  0  0  0  0  0
  -20.5223  -29.7839   23.7340 C   0  0  0  0  0  0  0  0  0  0  0  0
  -19.4188  -27.7910   22.6953 C   0  0  0  0  0  0  0  0  0  0  0  0
  -18.9651  -30.0742   21.7987 C   0  0  0  0  0  0  0  0  0  0  0  0
  -22.9692  -27.0757   17.1246 C   0  0  0  0  0  0  0  0  0  0  0  0
  -23.2023  -19.8876   18.0806 C   0  0  0  0  0  0  0  0  0  0  0  0
  -30.0438  -25.6145   22.3852 C   0  0  0  0  0  0  0  0  0  0  0  0
  -29.6849  -27.0758   22.2007 C   0  0  0  0  0  0  0  0  0  1  0  0
  -21.2138  -28.9998   21.3733 C   0  0  1  0  0  0  0  0  0  0  0  0
  -20.7455  -26.9047   18.2491 C   0  0  2  0  0  0  0  0  0  0  0  0
  -20.0583  -29.1646   22.4005 C   0  0  0  0  0  0  0  0  0  0  0  0
  -22.8213  -13.2100   21.3967 N   0  0  0  0  0  0  0  0  0  0  0  0
  -23.5478  -14.3047   21.1139 N   0  0  0  0  0  0  0  0  0  0  0  0
  -23.2664  -30.3819   21.3559 N   0  0  0  0  0  0  0  0  0  0  0  0
  -21.6686  -17.5891   20.5752 N   0  0  0  0  0  0  0  0  0  0  0  0
  -25.6201  -15.0156   20.2133 N   0  0  0  0  0  0  0  0  0  0  0  0
  -25.8528  -10.5139   19.9356 N   0  0  0  0  0  0  0  0  0  0  0  0
  -24.4841  -33.5375   22.7182 N   0  0  0  0  0  0  0  0  0  0  0  0
  -20.7984  -28.4407   20.0914 N   0  0  0  0  0  0  0  0  0  0  0  0
  -22.8211  -18.7239   18.8497 N   0  0  0  0  0  0  0  0  0  0  0  0
  -29.0030  -24.7699   21.7465 N   0  3  0  0  0  0  0  0  0  0  0  0
  -21.7676  -26.2433   17.3896 N   0  3  0  0  0  0  0  0  0  0  0  0
  -26.9836  -12.4658   19.5231 O   0  0  0  0  0  0  0  0  0  0  0  0
  -23.4714  -31.6258   23.5799 O   0  0  0  0  0  0  0  0  0  0  0  0
  -21.2429  -31.2307   20.5679 O   0  0  0  0  0  0  0  0  0  0  0  0
  -22.2142  -26.6050   20.1439 O   0  0  0  0  0  0  0  0  0  0  0  0
  -21.4355  -19.8758   20.2675 O   0  0  0  0  0  0  0  0  0  0  0  0
  -21.9262   -6.9073   21.5511 O   0  0  0  0  0  0  0  0  0  0  0  0
  -28.4291  -27.3416   22.8242 O   0  0  0  0  0  0  0  0  0  1  0  0
  -19.5862   -5.4477   26.3258 F   0  0  0  0  0  0  0  0  0  0  0  0
  -23.0275   -4.9150   23.1197 F   0  0  0  0  0  0  0  0  0  0  0  0
  1  2  1  0  0  0  0
  1  5  2  0  0  0  0
  2  6  2  0  0  0  0
  3 10  2  0  0  0  0
  3 18  1  0  0  0  0
  4 11  1  0  0  0  0
  4 18  2  0  0  0  0
  5 20  1  0  0  0  0
  6 22  1  0  0  0  0
  7  9  2  0  0  0  0
  7 23  1  0  0  0  0
  8 12  2  0  0  0  0
  8 21  1  0  0  0  0
  9 25  1  0  0  0  0
 10 27  1  0  0  0  0
 11 27  2  0  0  0  0
 12 28  1  0  0  0  0
 13 14  2  0  0  0  0
 13 29  1  0  0  0  0
 14 30  1  0  0  0  0
 15 24  1  0  0  0  0
 15 28  2  0  0  0  0
 16 25  2  0  0  0  0
 16 26  1  0  0  0  0
 17 30  2  0  0  0  0
 17 31  1  0  0  0  0
 18 32  1  0  0  0  0
 19 32  1  0  0  0  0
 19 33  2  0  0  0  0
 19 34  1  0  0  0  0
 20 22  2  0  0  0  0
 20 39  1  0  0  0  0
 21 24  2  0  0  0  0
 21 40  1  0  0  0  0
 22 53  1  0  0  0  0
 23 26  2  0  0  0  0
 23 52  1  0  0  0  0
 24 41  1  0  0  0  0
 25 62  1  0  0  0  0
 26 56  1  0  0  0  0
 27 84  1  0  0  0  0
 28 85  1  0  0  0  0
 29 31  2  0  0  0  0
 29 84  1  0  0  0  0
 30 86  1  0  0  0  0
 31 87  1  0  0  0  0
 32 68  2  0  0  0  0
 33 69  1  0  0  0  0
 33 72  1  0  0  0  0
 34 73  1  0  0  0  0
 34 79  2  0  0  0  0
 35 54  1  0  0  0  0
 35 74  1  0  0  0  0
 35 80  2  0  0  0  0
 36 65  1  0  0  0  0
 36 70  1  0  0  0  0
 36 81  2  0  0  0  0
 37 66  1  0  0  0  0
 37 75  1  0  0  0  0
 37 82  2  0  0  0  0
 38 71  1  0  0  0  0
 38 76  1  0  0  0  0
 38 83  2  0  0  0  0
 39 42  1  0  0  0  0
 40 54  1  0  0  0  0
 41 70  1  0  0  0  0
 42 44  1  0  0  0  0
 43 45  1  0  0  0  0
 43 48  1  0  0  0  0
 44 53  1  0  0  0  0
 45 55  1  0  0  0  0
 46 50  1  0  0  0  0
 46 52  1  0  0  0  0
 47 51  1  0  0  0  0
 47 52  1  0  0  0  0
 48 71  1  0  0  0  0
 49 55  1  0  0  0  0
 49 71  1  0  0  0  0
 50 77  1  0  0  0  0
 51 77  1  0  0  0  0
 53 74  1  0  0  0  0
 54 70  1  0  0  0  0
 55 69  1  0  0  0  0
 57 66  1  0  0  0  0
 58 67  1  0  0  0  0
 59 67  1  0  0  0  0
 60 67  1  0  0  0  0
 61 78  1  0  0  0  0
 62 76  1  0  0  0  0
 63 64  1  0  0  0  0
 63 77  1  0  0  0  0
 64 85  1  0  0  0  0
 65 67  1  0  0  0  0
 65 75  1  0  0  0  0
 66 78  1  0  0  0  0
 68 69  1  0  0  0  0
M  CHG  2  77   1  78   1
M  ISO  4  38 100  64 101  76 100  85 101
M  END
> <Batch ID>
0156

> <Smiles>
CNC(C)C(=O)NC(C(=O)N1Cc2cc([101O:1][101CH2:1]CN3CCC(c4ccc(C[100NH:0][100C:0](=O)N5CCCC(n6nc(-c7ccc(Oc8ccc(F)cc8F)cc7)c(C(N)=O)c6N)C5)cc4C)CC3)ccc2CC1C(=O)NC1CCCc2ccccc21)C(C)(C)C

> <Shape>
0.290

> <Color>
0.105

> <Negative vol penalty>
0.000

$$$$

  -OEChem-04052321563D

 87 96  0     1  0  0  0  0  0999 V2000
  -16.2021  -20.9493   24.4863 C   0  0  0  0  0  0  0  0  0  0  0  0
  -17.1682  -20.3079   23.7177 C   0  0  0  0  0  0  0  0  0  0  0  0
  -22.9690   -9.9234   19.9999 C   0  0  0  0  0  0  0  0  0  0  0  0
  -23.6949   -9.9779   22.3037 C   0  0  0  0  0  0  0  0  0  0  0  0
  -16.1141  -22.3407   24.4743 C   0  0  0  0  0  0  0  0  0  0  0  0
  -18.0463  -21.0577   22.9359 C   0  0  0  0  0  0  0  0  0  0  0  0
  -23.9113  -19.7747   21.7266 C   0  0  0  0  0  0  0  0  0  0  0  0
  -22.1848   -8.8027   20.2735 C   0  0  0  0  0  0  0  0  0  0  0  0
  -22.9107   -8.8572   22.5773 C   0  0  0  0  0  0  0  0  0  0  0  0
  -24.5346  -19.1796   20.6307 C   0  0  0  0  0  0  0  0  0  0  0  0
  -23.1028   -5.5119   22.1269 C   0  0  0  0  0  0  0  0  0  0  0  0
  -23.6744   -4.4905   22.8856 C   0  0  0  0  0  0  0  0  0  0  0  0
  -29.7110  -17.9941   19.9901 C   0  0  0  0  0  0  0  0  0  0  0  0
  -25.0148  -21.3634   19.7255 C   0  0  0  0  0  0  0  0  0  0  0  0
  -29.5232  -20.3185   21.5090 C   0  0  0  0  0  0  0  0  0  0  0  0
  -21.9545   -4.7712   24.5591 C   0  0  0  0  0  0  0  0  0  0  0  0
  -23.7241  -10.5109   21.0150 C   0  0  0  0  0  0  0  0  0  0  0  0
  -24.1487  -13.0190   20.8228 C   0  0  0  0  0  0  0  0  0  0  0  0
  -16.9978  -23.1083   23.6994 C   0  0  0  0  0  0  0  0  0  0  0  0
  -23.8253  -21.1709   21.8250 C   0  0  0  0  0  0  0  0  0  0  0  0
  -17.9692  -22.4606   22.9125 C   0  0  0  0  0  0  0  0  0  0  0  0
  -30.2137  -17.9929   21.3031 C   0  0  0  0  0  0  0  0  0  0  0  0
  -24.3921  -21.9739   20.8249 C   0  0  0  0  0  0  0  0  0  0  0  0
  -30.1417  -19.1830   22.0535 C   0  0  0  0  0  0  0  0  0  0  0  0
  -29.1079  -19.1327   19.4536 C   0  0  0  0  0  0  0  0  0  0  0  0
  -22.1556   -8.2697   21.5622 C   0  0  0  0  0  0  0  0  0  0  0  0
  -25.0839  -19.9739   19.6285 C   0  0  0  0  0  0  0  0  0  0  0  0
  -21.9571   -6.1630   22.5843 C   0  0  0  0  0  0  0  0  0  0  0  0
  -29.0083  -20.2924   20.2149 C   0  0  0  0  0  0  0  0  0  0  0  0
  -23.1002   -4.1201   24.1017 C   0  0  0  0  0  0  0  0  0  0  0  0
  -21.3829   -5.7926   23.8004 C   0  0  0  0  0  0  0  0  0  0  0  0
  -24.5348  -11.6682   20.7329 C   0  0  0  0  0  0  0  0  0  0  0  0
  -25.2696  -13.7218   20.4539 C   0  0  0  0  0  0  0  0  0  0  0  0
  -22.8895  -13.5876   21.2057 C   0  0  0  0  0  0  0  0  0  0  0  0
  -21.4402  -23.2691   21.9369 C   0  0  0  0  0  0  0  0  0  0  0  0
  -23.8423  -25.3831   22.4689 C   0  0  0  0  0  0  0  0  0  0  0  0
  -27.1502  -26.1538   22.1362 C   0  0  0  0  0  0  0  0  0  0  0  0
  -30.7800  -14.5719   20.6969 C   0  0  0  0  0  0  0  0  0  0  0  0
  -16.8335  -24.6075   23.6820 C   0  0  0  0  0  0  0  0  0  0  0  0
  -23.1732  -21.7978   23.0267 C   0  0  0  0  0  0  0  0  0  0  0  0
  -24.3443  -23.4777   20.8933 C   0  0  0  0  0  0  0  0  0  0  0  0
  -30.6857  -19.2501   23.4510 C   0  0  0  0  0  0  0  0  0  0  0  0
  -18.0439  -25.3463   23.1169 C   0  0  0  0  0  0  0  0  0  0  0  0
  -29.6015  -12.1513   18.3670 C   0  0  0  0  0  0  0  0  0  0  0  0
  -18.5152  -24.6883   21.8240 C   0  0  0  0  0  0  0  0  0  0  0  0
  -28.1491  -11.9169   18.7861 C   0  0  0  0  0  0  0  0  0  0  0  0
  -30.5075  -12.3803   19.5748 C   0  0  0  0  0  0  0  0  0  0  0  0
  -28.6100  -13.2142   20.9082 C   0  0  0  0  0  0  0  0  0  0  0  0
  -18.9558  -23.2404   22.0706 C   0  0  1  0  0  0  0  0  0  0  0  0
  -30.8967  -16.7568   21.8680 C   0  0  1  0  0  0  0  0  0  0  0  0
  -22.6900  -23.2218   22.7696 C   0  0  1  0  0  0  0  0  0  0  0  0
  -27.6482  -13.0339   19.7213 C   0  0  2  0  0  0  0  0  0  0  0  0
  -31.0755  -16.7928   23.3982 C   0  0  1  0  0  0  0  0  0  0  0  0
  -32.0414  -15.7300   23.9118 C   0  0  0  0  0  0  0  0  0  0  0  0
  -28.8099  -27.9686   22.6353 C   0  0  0  0  0  0  0  0  0  0  0  0
  -22.7487  -27.0210   20.1383 C   0  0  0  0  0  0  0  0  0  0  0  0
  -24.9256  -28.2562   20.0759 C   0  0  0  0  0  0  0  0  0  0  0  0
  -23.4850  -28.3733   22.1090 C   0  0  0  0  0  0  0  0  0  0  0  0
  -28.7522  -24.3710   23.8722 C   0  0  0  0  0  0  0  0  0  0  0  0
  -28.3611  -22.5547   20.5601 C   0  0  0  0  0  0  0  0  0  0  0  0
  -28.5718  -19.0877   18.0450 C   0  0  0  0  0  0  0  0  0  0  0  0
  -27.5085  -18.0096   17.8248 C   0  0  0  0  0  0  0  0  0  0  0  0
  -26.3197  -18.1318   18.7709 C   0  0  0  0  0  0  0  0  0  1  0  0
  -24.7306  -26.2343   21.5941 C   0  0  1  0  0  0  0  0  0  0  0  0
  -28.1662  -26.6834   23.1320 C   0  0  2  0  0  0  0  0  0  0  0  0
  -23.9718  -27.4429   20.9768 C   0  0  0  0  0  0  0  0  0  0  0  0
  -25.8019  -11.5193   20.3377 N   0  0  0  0  0  0  0  0  0  0  0  0
  -26.2218  -12.7857   20.1759 N   0  0  0  0  0  0  0  0  0  0  0  0
  -23.6905  -24.0432   22.0850 N   0  0  0  0  0  0  0  0  0  0  0  0
  -29.9773  -13.4529   20.4200 N   0  0  0  0  0  0  0  0  0  0  0  0
  -25.5238  -15.0430   20.3433 N   0  0  0  0  0  0  0  0  0  0  0  0
  -21.8440  -12.7220   21.5548 N   0  0  0  0  0  0  0  0  0  0  0  0
  -20.2717  -23.2079   22.6720 N   0  0  0  0  0  0  0  0  0  0  0  0
  -25.8777  -26.6054   22.4157 N   0  0  0  0  0  0  0  0  0  0  0  0
  -30.1987  -15.5451   21.5005 N   0  0  0  0  0  0  0  0  0  0  0  0
  -31.6283  -18.1360   23.7747 N   0  3  0  0  0  0  0  0  0  0  0  0
  -29.2413  -25.6769   23.3600 N   0  3  0  0  0  0  0  0  0  0  0  0
  -22.6921  -14.8263   21.2214 O   0  0  0  0  0  0  0  0  0  0  0  0
  -21.5293  -23.3562   20.7178 O   0  0  0  0  0  0  0  0  0  0  0  0
  -23.3086  -25.8867   23.4605 O   0  0  0  0  0  0  0  0  0  0  0  0
  -27.4554  -25.4164   21.2015 O   0  0  0  0  0  0  0  0  0  0  0  0
  -31.9275  -14.6970   20.2560 O   0  0  0  0  0  0  0  0  0  0  0  0
  -21.3904   -7.1763   21.8295 O   0  0  0  0  0  0  0  0  0  0  0  0
  -28.4192  -21.4116   19.7091 O   0  0  0  0  0  0  0  0  0  0  0  0
  -25.6923  -19.3955   18.5574 O   0  0  0  0  0  0  0  0  0  1  0  0
  -23.6483   -3.1382   24.8294 F   0  0  0  0  0  0  0  0  0  0  0  0
  -20.2816   -6.4137   24.2444 F   0  0  0  0  0  0  0  0  0  0  0  0
  1  2  1  0  0  0  0
  1  5  2  0  0  0  0
  2  6  2  0  0  0  0
  3  8  2  0  0  0  0
  3 17  1  0  0  0  0
  4  9  1  0  0  0  0
  4 17  2  0  0  0  0
  5 19  1  0  0  0  0
  6 21  1  0  0  0  0
  7 10  2  0  0  0  0
  7 20  1  0  0  0  0
  8 26  1  0  0  0  0
  9 26  2  0  0  0  0
 10 27  1  0  0  0  0
 11 12  2  0  0  0  0
 11 28  1  0  0  0  0
 12 30  1  0  0  0  0
 13 22  2  0  0  0  0
 13 25  1  0  0  0  0
 14 23  1  0  0  0  0
 14 27  2  0  0  0  0
 15 24  2  0  0  0  0
 15 29  1  0  0  0  0
 16 30  2  0  0  0  0
 16 31  1  0  0  0  0
 17 32  1  0  0  0  0
 18 32  1  0  0  0  0
 18 33  2  0  0  0  0
 18 34  1  0  0  0  0
 19 21  2  0  0  0  0
 19 39  1  0  0  0  0
 20 23  2  0  0  0  0
 20 40  1  0  0  0  0
 21 49  1  0  0  0  0
 22 24  1  0  0  0  0
 22 50  1  0  0  0  0
 23 41  1  0  0  0  0
 24 42  1  0  0  0  0
 25 29  2  0  0  0  0
 25 61  1  0  0  0  0
 26 83  1  0  0  0  0
 27 85  1  0  0  0  0
 28 31  2  0  0  0  0
 28 83  1  0  0  0  0
 29 84  1  0  0  0  0
 30 86  1  0  0  0  0
 31 87  1  0  0  0  0
 32 67  2  0  0  0  0
 33 68  1  0  0  0  0
 33 71  1  0  0  0  0
 34 72  1  0  0  0  0
 34 78  2  0  0  0  0
 35 51  1  0  0  0  0
 35 73  1  0  0  0  0
 35 79  2  0  0  0  0
 36 64  1  0  0  0  0
 36 69  1  0  0  0  0
 36 80  2  0  0  0  0
 37 65  1  0  0  0  0
 37 74  1  0  0  0  0
 37 81  2  0  0  0  0
 38 70  1  0  0  0  0
 38 75  1  0  0  0  0
 38 82  2  0  0  0  0
 39 43  1  0  0  0  0
 40 51  1  0  0  0  0
 41 69  1  0  0  0  0
 42 76  1  0  0  0  0
 43 45  1  0  0  0  0
 44 46  1  0  0  0  0
 44 47  1  0  0  0  0
 45 49  1  0  0  0  0
 46 52  1  0  0  0  0
 47 70  1  0  0  0  0
 48 52  1  0  0  0  0
 48 70  1  0  0  0  0
 49 73  1  0  0  0  0
 50 53  1  0  0  0  0
 50 75  1  0  0  0  0
 51 69  1  0  0  0  0
 52 68  1  0  0  0  0
 53 54  1  0  0  0  0
 53 76  1  0  0  0  0
 55 65  1  0  0  0  0
 56 66  1  0  0  0  0
 57 66  1  0  0  0  0
 58 66  1  0  0  0  0
 59 77  1  0  0  0  0
 60 84  1  0  0  0  0
 61 62  1  0  0  0  0
 62 63  1  0  0  0  0
 63 85  1  0  0  0  0
 64 66  1  0  0  0  0
 64 74  1  0  0  0  0
 65 77  1  0  0  0  0
 67 68  1  0  0  0  0
M  CHG  2  76   1  77   1
M  ISO  4  38 100  63 101  75 100  85 101
M  END
> <Batch ID>
0156

> <Smiles>
CNC(C)C(=O)NC(C(=O)N1Cc2cc([101O:1][101CH2:1]CCc3cc4c(cc3OC)CNC(C)C4[100NH:0][100C:0](=O)N3CCCC(n4nc(-c5ccc(Oc6ccc(F)cc6F)cc5)c(C(N)=O)c4N)C3)ccc2CC1C(=O)NC1CCCc2ccccc21)C(C)(C)C

> <Shape>
0.257

> <Color>
0.193

> <Negative vol penalty>
0.000

$$$$

  -OEChem-04052321563D

 94103  0     1  0  0  0  0  0999 V2000
  -32.9780  -26.3525   23.7306 C   0  0  0  0  0  0  0  0  0  0  0  0
  -31.8879  -25.5068   23.5519 C   0  0  0  0  0  0  0  0  0  0  0  0
  -23.2221   -9.6663   19.9656 C   0  0  0  0  0  0  0  0  0  0  0  0
  -23.7254   -9.9589   22.3104 C   0  0  0  0  0  0  0  0  0  0  0  0
  -32.8052  -27.5889   24.3513 C   0  0  0  0  0  0  0  0  0  0  0  0
  -30.6245  -25.8966   23.9950 C   0  0  0  0  0  0  0  0  0  0  0  0
  -26.9966  -24.9597   20.5883 C   0  0  0  0  0  0  0  0  0  0  0  0
  -22.5179   -8.4995   20.2623 C   0  0  0  0  0  0  0  0  0  0  0  0
  -23.0212   -8.7920   22.6072 C   0  0  0  0  0  0  0  0  0  0  0  0
  -26.5461  -23.6445   20.4833 C   0  0  0  0  0  0  0  0  0  0  0  0
  -23.5478   -5.4560   22.4496 C   0  0  0  0  0  0  0  0  0  0  0  0
  -24.1350   -4.5521   23.3349 C   0  0  0  0  0  0  0  0  0  0  0  0
  -24.6236  -24.2020   21.8296 C   0  0  0  0  0  0  0  0  0  0  0  0
  -31.4168  -17.6245   22.2471 C   0  0  0  0  0  0  0  0  0  0  0  0
  -30.8808  -19.9439   22.6600 C   0  0  0  0  0  0  0  0  0  0  0  0
  -22.2505   -4.7905   24.8279 C   0  0  0  0  0  0  0  0  0  0  0  0
  -23.8259  -10.3960   20.9897 C   0  0  0  0  0  0  0  0  0  0  0  0
  -24.0438  -12.9121   20.6299 C   0  0  0  0  0  0  0  0  0  0  0  0
  -31.5373  -27.9982   24.7935 C   0  0  0  0  0  0  0  0  0  0  0  0
  -26.2684  -25.9049   21.3251 C   0  0  0  0  0  0  0  0  0  0  0  0
  -30.4349  -27.1391   24.6234 C   0  0  0  0  0  0  0  0  0  0  0  0
  -25.0657  -25.5291   21.9403 C   0  0  0  0  0  0  0  0  0  0  0  0
  -29.1463  -18.4057   21.9800 C   0  0  0  0  0  0  0  0  0  0  0  0
  -30.0819  -17.3722   21.9314 C   0  0  0  0  0  0  0  0  0  0  0  0
  -22.4174   -8.0623   21.5831 C   0  0  0  0  0  0  0  0  0  0  0  0
  -25.3609  -23.2647   21.1064 C   0  0  0  0  0  0  0  0  0  0  0  0
  -22.3120   -6.0272   22.7534 C   0  0  0  0  0  0  0  0  0  0  0  0
  -31.8163  -18.9104   22.6115 C   0  0  0  0  0  0  0  0  0  0  0  0
  -29.5458  -19.6915   22.3443 C   0  0  0  0  0  0  0  0  0  0  0  0
  -23.4863   -4.2193   24.5241 C   0  0  0  0  0  0  0  0  0  0  0  0
  -21.6634   -5.6944   23.9426 C   0  0  0  0  0  0  0  0  0  0  0  0
  -24.5540  -11.6012   20.6837 C   0  0  0  0  0  0  0  0  0  0  0  0
  -25.1276  -13.6892   20.3012 C   0  0  0  0  0  0  0  0  0  0  0  0
  -22.7095  -13.3852   20.8569 C   0  0  0  0  0  0  0  0  0  0  0  0
  -26.8506  -27.6728   23.9017 C   0  0  0  0  0  0  0  0  0  0  0  0
  -23.9710  -28.9787   23.1773 C   0  0  0  0  0  0  0  0  0  0  0  0
  -20.9409  -28.6430   21.6433 C   0  0  0  0  0  0  0  0  0  0  0  0
  -30.4784  -15.0983   20.9222 C   0  0  0  0  0  0  0  0  0  0  0  0
  -31.4083  -29.3236   25.5015 C   0  0  0  0  0  0  0  0  0  0  0  0
  -26.7541  -27.3261   21.4064 C   0  0  0  0  0  0  0  0  0  0  0  0
  -24.2365  -26.5107   22.7260 C   0  0  0  0  0  0  0  0  0  0  0  0
  -29.9689  -29.8211   25.6055 C   0  0  0  0  0  0  0  0  0  0  0  0
  -29.7596  -12.3862   18.7302 C   0  0  0  0  0  0  0  0  0  0  0  0
  -29.0480  -28.6975   26.0705 C   0  0  0  0  0  0  0  0  0  0  0  0
  -28.2993  -12.0480   19.0386 C   0  0  0  0  0  0  0  0  0  0  0  0
  -27.3366  -18.9870   20.4089 C   0  0  0  0  0  0  0  0  0  0  0  0
  -30.5245  -12.7963   19.9874 C   0  0  0  0  0  0  0  0  0  0  0  0
  -28.4422  -13.5346   21.0774 C   0  0  0  0  0  0  0  0  0  0  0  0
  -25.8673  -18.8407   20.0446 C   0  0  0  0  0  0  0  0  0  0  0  0
  -25.3032  -18.3423   22.4294 C   0  0  0  0  0  0  0  0  0  0  0  0
  -27.7105  -18.1454   21.6431 C   0  0  2  0  0  0  0  0  0  0  0  0
  -29.0441  -27.5369   25.0681 C   0  0  1  0  0  0  0  0  0  0  0  0
  -26.1981  -28.0795   22.6108 C   0  0  1  0  0  0  0  0  0  0  0  0
  -26.7765  -18.4728   22.8375 C   0  0  2  0  0  0  0  0  0  0  0  0
  -27.6145  -13.1783   19.8317 C   0  0  2  0  0  0  0  0  0  0  0  0
  -18.7829  -29.8638   21.2563 C   0  0  0  0  0  0  0  0  0  0  0  0
  -26.5960  -18.2328   25.3302 C   0  0  0  0  0  0  0  0  0  0  0  0
  -26.3376  -16.2191   23.8531 C   0  0  0  0  0  0  0  0  0  0  0  0
  -21.6505  -20.5538   19.8457 C   0  0  0  0  0  0  0  0  0  0  0  0
  -23.1117  -28.3620   26.0393 C   0  0  0  0  0  0  0  0  0  0  0  0
  -20.7366  -28.7078   25.3267 C   0  0  0  0  0  0  0  0  0  0  0  0
  -22.3666  -30.5907   25.1837 C   0  0  0  0  0  0  0  0  0  0  0  0
  -21.3236  -28.6268   18.7086 C   0  0  0  0  0  0  0  0  0  0  0  0
  -33.4582  -20.4940   23.2839 C   0  0  0  0  0  0  0  0  0  0  0  0
  -29.1433  -21.9946   22.7797 C   0  0  0  0  0  0  0  0  0  0  0  0
  -23.5579  -19.2342   20.8900 C   0  0  0  0  0  0  0  0  0  0  0  0
  -23.5079  -21.7751   21.0499 C   0  0  0  0  0  0  0  0  0  1  0  0
  -22.5376  -28.6759   23.5417 C   0  0  1  0  0  0  0  0  0  0  0  0
  -20.1733  -29.5679   20.7161 C   0  0  2  0  0  0  0  0  0  0  0  0
  -27.0439  -17.5578   24.0382 C   0  0  0  0  0  0  0  0  0  0  0  0
  -23.1387  -20.5440   20.2127 C   0  0  2  0  0  0  0  0  0  0  0  0
  -22.2045  -29.0649   25.0097 C   0  0  0  0  0  0  0  0  0  0  0  0
  -25.8603  -11.5447   20.4109 N   0  0  0  0  0  0  0  0  0  0  0  0
  -26.1800  -12.8298   20.1824 N   0  0  0  0  0  0  0  0  0  0  0  0
  -24.7566  -27.8869   22.7817 N   0  0  0  0  0  0  0  0  0  0  0  0
  -29.8189  -13.8739   20.6845 N   0  0  0  0  0  0  0  0  0  0  0  0
  -25.2735  -15.0168   20.1050 N   0  0  0  0  0  0  0  0  0  0  0  0
  -21.7167  -12.4521   21.1856 N   0  0  0  0  0  0  0  0  0  0  0  0
  -29.6972  -16.0590   21.5635 N   0  0  0  0  0  0  0  0  0  0  0  0
  -28.2195  -27.8603   23.9237 N   0  0  0  0  0  0  0  0  0  0  0  0
  -21.7121  -29.3472   22.5436 N   0  0  0  0  0  0  0  0  0  0  0  0
  -25.0008  -19.2182   21.2288 N   0  3  2  0  0  0  0  0  0  0  0  0
  -20.0318  -28.9490   19.3678 N   0  3  0  0  0  0  0  0  0  0  0  0
  -22.4031  -14.5973   20.7546 O   0  0  0  0  0  0  0  0  0  0  0  0
  -26.1628  -27.2237   24.8111 O   0  0  0  0  0  0  0  0  0  0  0  0
  -24.3766  -30.1423   23.2344 O   0  0  0  0  0  0  0  0  0  0  0  0
  -20.8614  -27.4183   21.5780 O   0  0  0  0  0  0  0  0  0  0  0  0
  -31.6413  -15.2905   20.5577 O   0  0  0  0  0  0  0  0  0  0  0  0
  -21.7301   -6.9238   21.8730 O   0  0  0  0  0  0  0  0  0  0  0  0
  -33.1189  -19.1568   22.9198 O   0  0  0  0  0  0  0  0  0  0  0  0
  -28.6462  -20.7138   22.3976 O   0  0  0  0  0  0  0  0  0  0  0  0
  -24.9192  -21.9815   21.0061 O   0  0  0  0  0  0  0  0  0  1  0  0
  -24.0495   -3.3501   25.3735 F   0  0  0  0  0  0  0  0  0  0  0  0
  -20.4754   -6.2390   24.2394 F   0  0  0  0  0  0  0  0  0  0  0  0
  1  2  1  0  0  0  0
  1  5  2  0  0  0  0
  2  6  2  0  0  0  0
  3  8  2  0  0  0  0
  3 17  1  0  0  0  0
  4  9  1  0  0  0  0
  4 17  2  0  0  0  0
  5 19  1  0  0  0  0
  6 21  1  0  0  0  0
  7 10  2  0  0  0  0
  7 20  1  0  0  0  0
  8 25  1  0  0  0  0
  9 25  2  0  0  0  0
 10 26  1  0  0  0  0
 11 12  2  0  0  0  0
 11 27  1  0  0  0  0
 12 30  1  0  0  0  0
 13 22  1  0  0  0  0
 13 26  2  0  0  0  0
 14 24  2  0  0  0  0
 14 28  1  0  0  0  0
 15 28  2  0  0  0  0
 15 29  1  0  0  0  0
 16 30  2  0  0  0  0
 16 31  1  0  0  0  0
 17 32  1  0  0  0  0
 18 32  1  0  0  0  0
 18 33  2  0  0  0  0
 18 34  1  0  0  0  0
 19 21  2  0  0  0  0
 19 39  1  0  0  0  0
 20 22  2  0  0  0  0
 20 40  1  0  0  0  0
 21 52  1  0  0  0  0
 22 41  1  0  0  0  0
 23 24  1  0  0  0  0
 23 29  2  0  0  0  0
 23 51  1  0  0  0  0
 24 79  1  0  0  0  0
 25 89  1  0  0  0  0
 26 92  1  0  0  0  0
 27 31  2  0  0  0  0
 27 89  1  0  0  0  0
 28 90  1  0  0  0  0
 29 91  1  0  0  0  0
 30 93  1  0  0  0  0
 31 94  1  0  0  0  0
 32 73  2  0  0  0  0
 33 74  1  0  0  0  0
 33 77  1  0  0  0  0
 34 78  1  0  0  0  0
 34 84  2  0  0  0  0
 35 53  1  0  0  0  0
 35 80  1  0  0  0  0
 35 85  2  0  0  0  0
 36 68  1  0  0  0  0
 36 75  1  0  0  0  0
 36 86  2  0  0  0  0
 37 69  1  0  0  0  0
 37 81  1  0  0  0  0
 37 87  2  0  0  0  0
 38 76  1  0  0  0  0
 38 79  1  0  0  0  0
 38 88  2  0  0  0  0
 39 42  1  0  0  0  0
 40 53  1  0  0  0  0
 41 75  1  0  0  0  0
 42 44  1  0  0  0  0
 43 45  1  0  0  0  0
 43 47  1  0  0  0  0
 44 52  1  0  0  0  0
 45 55  1  0  0  0  0
 46 49  1  0  0  0  0
 46 51  1  0  0  0  0
 47 76  1  0  0  0  0
 48 55  1  0  0  0  0
 48 76  1  0  0  0  0
 49 82  1  0  0  0  0
 50 54  1  0  0  0  0
 50 82  1  0  0  0  0
 51 54  1  0  0  0  0
 52 80  1  0  0  0  0
 53 75  1  0  0  0  0
 54 70  1  0  0  0  0
 55 74  1  0  0  0  0
 56 69  1  0  0  0  0
 57 70  1  0  0  0  0
 58 70  1  0  0  0  0
 59 71  1  0  0  0  0
 60 72  1  0  0  0  0
 61 72  1  0  0  0  0
 62 72  1  0  0  0  0
 63 83  1  0  0  0  0
 64 90  1  0  0  0  0
 65 91  1  0  0  0  0
 66 71  1  0  0  0  0
 66 82  1  0  0  0  0
 67 71  1  0  0  0  0
 67 92  1  0  0  0  0
 68 72  1  0  0  0  0
 68 81  1  0  0  0  0
 69 83  1  0  0  0  0
 73 74  1  0  0  0  0
M  CHG  2  82   1  83   1
M  ISO  4  38 100  67 101  79 100  92 101
M  END
> <Batch ID>
0156

> <Smiles>
CNC(C)C(=O)NC(C(=O)N1Cc2cc([101O:1][101CH2:1]C(C)CN3CCC(c4c([100NH:0][100C:0](=O)N5CCCC(n6nc(-c7ccc(Oc8ccc(F)cc8F)cc7)c(C(N)=O)c6N)C5)cc(OC)cc4OC)C(C(C)C)C3)ccc2CC1C(=O)NC1CCCc2ccccc21)C(C)(C)C

> <Shape>
0.230

> <Color>
0.182

> <Negative vol penalty>
0.000

$$$$

  -OEChem-04052321563D

 87 96  0     1  0  0  0  0  0999 V2000
  -24.5285  -34.5795   16.8377 C   0  0  0  0  0  0  0  0  0  0  0  0
  -25.4478  -33.5434   16.7082 C   0  0  0  0  0  0  0  0  0  0  0  0
  -24.5367   -9.2585   21.4647 C   0  0  0  0  0  0  0  0  0  0  0  0
  -22.6669  -10.5667   20.6712 C   0  0  0  0  0  0  0  0  0  0  0  0
  -24.0425  -34.9252   18.0980 C   0  0  0  0  0  0  0  0  0  0  0  0
  -25.8825  -32.8531   17.8391 C   0  0  0  0  0  0  0  0  0  0  0  0
  -27.3018  -26.9068   18.2035 C   0  0  0  0  0  0  0  0  0  0  0  0
  -23.7115   -8.1381   21.5621 C   0  0  0  0  0  0  0  0  0  0  0  0
  -21.8417   -9.4464   20.7686 C   0  0  0  0  0  0  0  0  0  0  0  0
  -28.5199  -26.2294   18.1688 C   0  0  0  0  0  0  0  0  0  0  0  0
  -22.0135   -5.0234   22.3616 C   0  0  0  0  0  0  0  0  0  0  0  0
  -22.1079   -4.2449   23.5151 C   0  0  0  0  0  0  0  0  0  0  0  0
  -28.5662  -26.2017   20.5805 C   0  0  0  0  0  0  0  0  0  0  0  0
  -21.4801   -6.1546   24.8553 C   0  0  0  0  0  0  0  0  0  0  0  0
  -24.0144  -10.4728   21.0193 C   0  0  0  0  0  0  0  0  0  0  0  0
  -25.6227  -12.0353   19.8030 C   0  0  0  0  0  0  0  0  0  0  0  0
  -24.4642  -34.2325   19.2438 C   0  0  0  0  0  0  0  0  0  0  0  0
  -26.7112  -27.2470   19.4290 C   0  0  0  0  0  0  0  0  0  0  0  0
  -25.4028  -33.1908   19.1160 C   0  0  0  0  0  0  0  0  0  0  0  0
  -27.3394  -26.8811   20.6280 C   0  0  0  0  0  0  0  0  0  0  0  0
  -31.5737  -22.2276   21.0313 C   0  0  0  0  0  0  0  0  0  0  0  0
  -30.9988  -22.3876   19.7463 C   0  0  0  0  0  0  0  0  0  0  0  0
  -22.3640   -8.2321   21.2141 C   0  0  0  0  0  0  0  0  0  0  0  0
  -29.1537  -25.8792   19.3574 C   0  0  0  0  0  0  0  0  0  0  0  0
  -21.6525   -6.3676   22.4549 C   0  0  0  0  0  0  0  0  0  0  0  0
  -21.8411   -4.8104   24.7619 C   0  0  0  0  0  0  0  0  0  0  0  0
  -21.3858   -6.9331   23.7018 C   0  0  0  0  0  0  0  0  0  0  0  0
  -24.8661  -11.6306   20.9191 C   0  0  0  0  0  0  0  0  0  0  0  0
  -30.7554  -21.3804   21.7454 C   0  0  0  0  0  0  0  0  0  0  0  0
  -29.8466  -21.6333   19.7144 C   0  0  0  0  0  0  0  0  0  0  0  0
  -26.2520  -13.1851   20.2133 C   0  0  0  0  0  0  0  0  0  0  0  0
  -25.7456  -11.4263   18.5108 C   0  0  0  0  0  0  0  0  0  0  0  0
  -25.9223  -29.9742   20.8585 C   0  0  0  0  0  0  0  0  0  0  0  0
  -24.5974  -27.9876   23.0540 C   0  0  0  0  0  0  0  0  0  0  0  0
  -24.5355  -24.8974   24.5011 C   0  0  0  0  0  0  0  0  0  0  0  0
  -25.6842  -18.1938   22.8003 C   0  0  0  0  0  0  0  0  0  0  0  0
  -23.9468  -34.6735   20.5901 C   0  0  0  0  0  0  0  0  0  0  0  0
  -25.3839  -27.9542   19.4493 C   0  0  0  0  0  0  0  0  0  0  0  0
  -26.7369  -27.2051   21.9698 C   0  0  0  0  0  0  0  0  0  0  0  0
  -24.1737  -33.6460   21.6961 C   0  0  0  0  0  0  0  0  0  0  0  0
  -26.6883  -15.2619   24.7990 C   0  0  0  0  0  0  0  0  0  0  0  0
  -25.6025  -33.1142   21.6459 C   0  0  0  0  0  0  0  0  0  0  0  0
  -26.3071  -14.0914   23.8927 C   0  0  0  0  0  0  0  0  0  0  0  0
  -28.5130  -18.8251   20.4750 C   0  0  0  0  0  0  0  0  0  0  0  0
  -27.2100  -20.8369   21.3234 C   0  0  0  0  0  0  0  0  0  0  0  0
  -25.7904  -16.4748   24.5704 C   0  0  0  0  0  0  0  0  0  0  0  0
  -27.4357  -17.8601   20.9917 C   0  0  0  0  0  0  0  0  0  0  0  0
  -26.0363  -19.8955   21.0450 C   0  0  0  0  0  0  0  0  0  0  0  0
  -25.3376  -15.7487   22.2544 C   0  0  0  0  0  0  0  0  0  0  0  0
  -25.8796  -32.4022   20.3163 C   0  0  1  0  0  0  0  0  0  0  0  0
  -25.1264  -28.7041   20.7527 C   0  0  1  0  0  0  0  0  0  0  0  0
  -26.2560  -14.5291   22.4177 C   0  0  2  0  0  0  0  0  0  0  0  0
  -28.5707  -20.1042   21.3289 C   0  0  0  0  0  0  0  0  0  0  0  0
  -32.8212  -22.8519   21.5179 C   0  0  0  0  0  0  0  0  0  0  0  0
  -30.8808  -20.8777   23.1302 C   0  0  0  0  0  0  0  0  0  0  0  0
  -28.8632  -21.4408   18.6271 C   0  0  0  0  0  0  0  0  0  0  0  0
  -31.9038  -22.3725   17.3985 C   0  0  0  0  0  0  0  0  0  0  0  0
  -23.3702  -23.5852   26.2948 C   0  0  0  0  0  0  0  0  0  0  0  0
  -26.2149  -29.4619   25.1800 C   0  0  0  0  0  0  0  0  0  0  0  0
  -25.7667  -27.5574   26.7421 C   0  0  0  0  0  0  0  0  0  0  0  0
  -23.8697  -28.9095   25.8502 C   0  0  0  0  0  0  0  0  0  0  0  0
  -23.5099  -22.9214   22.5510 C   0  0  0  0  0  0  0  0  0  0  0  0
  -30.5791  -24.3586   18.2120 C   0  0  0  0  0  0  0  0  0  1  0  0
  -31.5325  -23.2131   18.6433 C   0  0  1  0  0  0  0  0  0  0  0  0
  -25.0821  -27.3099   24.3129 C   0  0  1  0  0  0  0  0  0  0  0  0
  -23.3870  -23.9575   24.8204 C   0  0  2  0  0  0  0  0  0  0  0  0
  -25.2459  -28.3051   25.4962 C   0  0  0  0  0  0  0  0  0  0  0  0
  -25.0012  -12.4561   21.9603 N   0  0  0  0  0  0  0  0  0  0  0  0
  -29.7086  -21.0257   20.9350 N   0  0  0  0  0  0  0  0  0  0  0  0
  -25.8500  -13.3910   21.5003 N   0  0  0  0  0  0  0  0  0  0  0  0
  -25.4410  -27.9031   21.9374 N   0  0  0  0  0  0  0  0  0  0  0  0
  -25.7402  -16.8375   23.1540 N   0  0  0  0  0  0  0  0  0  0  0  0
  -26.2920  -18.5662   21.5899 N   0  0  0  0  0  0  0  0  0  0  0  0
  -27.1044  -14.0299   19.5953 N   0  0  0  0  0  0  0  0  0  0  0  0
  -25.0301  -10.2482   18.2566 N   0  0  0  0  0  0  0  0  0  0  0  0
  -25.2922  -31.0795   20.3193 N   0  0  0  0  0  0  0  0  0  0  0  0
  -24.1493  -26.2191   24.5744 N   0  0  0  0  0  0  0  0  0  0  0  0
  -23.5047  -22.7054   24.0208 N   0  3  0  0  0  0  0  0  0  0  0  0
  -26.4812  -11.9035   17.6137 O   0  0  0  0  0  0  0  0  0  0  0  0
  -27.0256  -29.9531   21.3913 O   0  0  0  0  0  0  0  0  0  0  0  0
  -23.5070  -28.5643   23.0591 O   0  0  0  0  0  0  0  0  0  0  0  0
  -25.6634  -24.4991   24.2187 O   0  0  0  0  0  0  0  0  0  0  0  0
  -25.1460  -19.0294   23.5378 O   0  0  0  0  0  0  0  0  0  0  0  0
  -21.5585   -7.1390   21.3087 O   0  0  0  0  0  0  0  0  0  0  0  0
  -30.3508  -25.2142   19.3262 O   0  0  0  0  0  0  0  0  0  1  0  0
  -21.9303   -4.0623   25.8694 F   0  0  0  0  0  0  0  0  0  0  0  0
  -21.0374   -8.2235   23.7977 F   0  0  0  0  0  0  0  0  0  0  0  0
  1  2  1  0  0  0  0
  1  5  2  0  0  0  0
  2  6  2  0  0  0  0
  3  8  2  0  0  0  0
  3 15  1  0  0  0  0
  4  9  1  0  0  0  0
  4 15  2  0  0  0  0
  5 17  1  0  0  0  0
  6 19  1  0  0  0  0
  7 10  2  0  0  0  0
  7 18  1  0  0  0  0
  8 23  1  0  0  0  0
  9 23  2  0  0  0  0
 10 24  1  0  0  0  0
 11 12  2  0  0  0  0
 11 25  1  0  0  0  0
 12 26  1  0  0  0  0
 13 20  1  0  0  0  0
 13 24  2  0  0  0  0
 14 26  2  0  0  0  0
 14 27  1  0  0  0  0
 15 28  1  0  0  0  0
 16 28  1  0  0  0  0
 16 31  2  0  0  0  0
 16 32  1  0  0  0  0
 17 19  2  0  0  0  0
 17 37  1  0  0  0  0
 18 20  2  0  0  0  0
 18 38  1  0  0  0  0
 19 50  1  0  0  0  0
 20 39  1  0  0  0  0
 21 22  1  0  0  0  0
 21 29  2  0  0  0  0
 21 54  1  0  0  0  0
 22 30  2  0  0  0  0
 22 64  1  0  0  0  0
 23 84  1  0  0  0  0
 24 85  1  0  0  0  0
 25 27  2  0  0  0  0
 25 84  1  0  0  0  0
 26 86  1  0  0  0  0
 27 87  1  0  0  0  0
 28 68  2  0  0  0  0
 29 55  1  0  0  0  0
 29 69  1  0  0  0  0
 30 56  1  0  0  0  0
 30 69  1  0  0  0  0
 31 70  1  0  0  0  0
 31 74  1  0  0  0  0
 32 75  1  0  0  0  0
 32 79  2  0  0  0  0
 33 51  1  0  0  0  0
 33 76  1  0  0  0  0
 33 80  2  0  0  0  0
 34 65  1  0  0  0  0
 34 71  1  0  0  0  0
 34 81  2  0  0  0  0
 35 66  1  0  0  0  0
 35 77  1  0  0  0  0
 35 82  2  0  0  0  0
 36 72  1  0  0  0  0
 36 73  1  0  0  0  0
 36 83  2  0  0  0  0
 37 40  1  0  0  0  0
 38 51  1  0  0  0  0
 39 71  1  0  0  0  0
 40 42  1  0  0  0  0
 41 43  1  0  0  0  0
 41 46  1  0  0  0  0
 42 50  1  0  0  0  0
 43 52  1  0  0  0  0
 44 47  1  0  0  0  0
 44 53  1  0  0  0  0
 45 48  1  0  0  0  0
 45 53  1  0  0  0  0
 46 72  1  0  0  0  0
 47 73  1  0  0  0  0
 48 73  1  0  0  0  0
 49 52  1  0  0  0  0
 49 72  1  0  0  0  0
 50 76  1  0  0  0  0
 51 71  1  0  0  0  0
 52 70  1  0  0  0  0
 53 69  1  0  0  0  0
 57 64  1  0  0  0  0
 58 66  1  0  0  0  0
 59 67  1  0  0  0  0
 60 67  1  0  0  0  0
 61 67  1  0  0  0  0
 62 78  1  0  0  0  0
 63 64  1  0  0  0  0
 63 85  1  0  0  0  0
 65 67  1  0  0  0  0
 65 77  1  0  0  0  0
 66 78  1  0  0  0  0
 68 70  1  0  0  0  0
M  CHG  1  78   1
M  ISO  4  36 100  63 101  73 100  85 101
M  END
> <Batch ID>
0156

> <Smiles>
CNC(C)C(=O)NC(C(=O)N1Cc2cc([101O:1][101CH2:1]C(C)c3c(C)c(C)n(C4CC[100N:0]([100C:0](=O)N5CCCC(n6nc(-c7ccc(Oc8ccc(F)cc8F)cc7)c(C(N)=O)c6N)C5)CC4)c3C)ccc2CC1C(=O)NC1CCCc2ccccc21)C(C)(C)C

> <Shape>
0.236

> <Color>
0.120

> <Negative vol penalty>
0.000

$$$$

  -OEChem-04052321563D

 89 98  0     1  0  0  0  0  0999 V2000
  -29.0056  -36.4438   24.9803 C   0  0  0  0  0  0  0  0  0  0  0  0
  -29.4233  -35.3682   24.2031 C   0  0  0  0  0  0  0  0  0  0  0  0
  -24.3575   -6.8682   23.5010 C   0  0  0  0  0  0  0  0  0  0  0  0
  -21.9454   -6.7436   23.4436 C   0  0  0  0  0  0  0  0  0  0  0  0
  -27.8109  -36.3639   25.6946 C   0  0  0  0  0  0  0  0  0  0  0  0
  -28.6471  -34.2115   24.1408 C   0  0  0  0  0  0  0  0  0  0  0  0
  -26.8431  -28.9345   19.6447 C   0  0  0  0  0  0  0  0  0  0  0  0
  -24.3834   -5.9022   24.5069 C   0  0  0  0  0  0  0  0  0  0  0  0
  -21.9713   -5.7776   24.4495 C   0  0  0  0  0  0  0  0  0  0  0  0
  -26.8048  -27.5424   19.5778 C   0  0  0  0  0  0  0  0  0  0  0  0
  -22.3438   -5.6882   27.8086 C   0  0  0  0  0  0  0  0  0  0  0  0
  -21.4382   -5.8237   28.8608 C   0  0  0  0  0  0  0  0  0  0  0  0
  -24.7200  -27.5474   20.7913 C   0  0  0  0  0  0  0  0  0  0  0  0
  -27.4904  -22.5285   20.0223 C   0  0  0  0  0  0  0  0  0  0  0  0
  -25.2227  -21.4343   18.8210 C   0  0  0  0  0  0  0  0  0  0  0  0
  -20.4752   -3.6779   28.3083 C   0  0  0  0  0  0  0  0  0  0  0  0
  -23.1384   -7.2889   22.9694 C   0  0  0  0  0  0  0  0  0  0  0  0
  -23.1551   -8.0689   20.5406 C   0  0  0  0  0  0  0  0  0  0  0  0
  -27.0149  -35.2093   25.6333 C   0  0  0  0  0  0  0  0  0  0  0  0
  -25.8238  -29.6440   20.2960 C   0  0  0  0  0  0  0  0  0  0  0  0
  -27.4414  -34.1155   24.8560 C   0  0  0  0  0  0  0  0  0  0  0  0
  -24.7463  -28.9485   20.8629 C   0  0  0  0  0  0  0  0  0  0  0  0
  -26.5515  -23.3625   19.4154 C   0  0  0  0  0  0  0  0  0  0  0  0
  -27.2955  -21.1473   20.0285 C   0  0  0  0  0  0  0  0  0  0  0  0
  -25.4177  -22.8155   18.8148 C   0  0  0  0  0  0  0  0  0  0  0  0
  -23.1904   -5.3569   24.9811 C   0  0  0  0  0  0  0  0  0  0  0  0
  -25.7447  -26.8485   20.1537 C   0  0  0  0  0  0  0  0  0  0  0  0
  -22.3151   -4.5475   27.0062 C   0  0  0  0  0  0  0  0  0  0  0  0
  -26.1617  -20.6002   19.4279 C   0  0  0  0  0  0  0  0  0  0  0  0
  -20.5039   -4.8186   29.1107 C   0  0  0  0  0  0  0  0  0  0  0  0
  -21.3808   -3.5424   27.2561 C   0  0  0  0  0  0  0  0  0  0  0  0
  -23.1109   -8.2871   21.9307 C   0  0  0  0  0  0  0  0  0  0  0  0
  -23.1023   -9.3277   19.9936 C   0  0  0  0  0  0  0  0  0  0  0  0
  -23.2366   -6.8385   19.8092 C   0  0  0  0  0  0  0  0  0  0  0  0
  -25.6942  -31.5797   22.8139 C   0  0  0  0  0  0  0  0  0  0  0  0
  -22.6121  -31.9566   21.8754 C   0  0  0  0  0  0  0  0  0  0  0  0
  -19.9195  -30.6974   20.1987 C   0  0  0  0  0  0  0  0  0  0  0  0
  -24.5699  -14.4832   19.7116 C   0  0  0  0  0  0  0  0  0  0  0  0
  -25.7550  -35.1514   26.4604 C   0  0  0  0  0  0  0  0  0  0  0  0
  -25.8661  -31.1470   20.3362 C   0  0  0  0  0  0  0  0  0  0  0  0
  -23.6168  -29.6645   21.5558 C   0  0  0  0  0  0  0  0  0  0  0  0
  -24.8038  -34.0325   26.0439 C   0  0  0  0  0  0  0  0  0  0  0  0
  -22.0894  -13.8053   22.1011 C   0  0  0  0  0  0  0  0  0  0  0  0
  -25.5670  -32.7253   25.8559 C   0  0  0  0  0  0  0  0  0  0  0  0
  -22.1353  -12.2787   22.1613 C   0  0  0  0  0  0  0  0  0  0  0  0
  -23.8766  -18.0632   19.0402 C   0  0  0  0  0  0  0  0  0  0  0  0
  -25.1269  -17.8627   21.2324 C   0  0  0  0  0  0  0  0  0  0  0  0
  -23.4878  -14.4171   22.0017 C   0  0  0  0  0  0  0  0  0  0  0  0
  -24.4232  -16.6961   18.6318 C   0  0  0  0  0  0  0  0  0  0  0  0
  -25.6475  -16.5028   20.7726 C   0  0  0  0  0  0  0  0  0  0  0  0
  -24.3486  -12.3501   20.9514 C   0  0  0  0  0  0  0  0  0  0  0  0
  -26.6145  -32.8531   24.7433 C   0  0  1  0  0  0  0  0  0  0  0  0
  -25.0368  -31.7379   21.4721 C   0  0  1  0  0  0  0  0  0  0  0  0
  -22.9551  -11.7039   20.9924 C   0  0  1  0  0  0  0  0  0  0  0  0
  -24.7684  -18.7749   20.0581 C   0  0  0  0  0  0  0  0  0  0  0  0
  -24.3985  -23.6881   18.1589 C   0  0  0  0  0  0  0  0  0  0  0  0
  -28.5305  -20.6091   22.1579 C   0  0  0  0  0  0  0  0  0  0  0  0
  -17.5287  -31.2156   19.6394 C   0  0  0  0  0  0  0  0  0  0  0  0
  -21.7864  -31.1980   24.7131 C   0  0  0  0  0  0  0  0  0  0  0  0
  -19.4658  -30.8070   23.8587 C   0  0  0  0  0  0  0  0  0  0  0  0
  -20.4792  -33.0818   23.7147 C   0  0  0  0  0  0  0  0  0  0  0  0
  -20.4804  -30.7089   17.2928 C   0  0  0  0  0  0  0  0  0  0  0  0
  -29.5830  -19.6370   18.8119 C   0  0  0  0  0  0  0  0  0  0  0  0
  -26.7818  -24.8382   19.4195 C   0  0  0  0  0  0  0  0  0  1  0  0
  -28.3104  -20.2694   20.6836 C   0  0  2  0  0  0  0  0  0  0  0  0
  -21.3095  -31.2553   22.1763 C   0  0  1  0  0  0  0  0  0  0  0  0
  -18.9769  -31.3273   19.1891 C   0  0  2  0  0  0  0  0  0  0  0  0
  -20.7823  -31.5716   23.6044 C   0  0  0  0  0  0  0  0  0  0  0  0
  -23.0360   -9.5826   22.2471 N   0  0  0  0  0  0  0  0  0  0  0  0
  -23.0327  -10.1898   21.0482 N   0  0  0  0  0  0  0  0  0  0  0  0
  -23.7068  -31.1339   21.5744 N   0  0  0  0  0  0  0  0  0  0  0  0
  -24.2444  -13.8099   20.8986 N   0  0  0  0  0  0  0  0  0  0  0  0
  -24.7448  -15.8748   19.7984 N   0  0  0  0  0  0  0  0  0  0  0  0
  -23.1091   -9.7702   18.7183 N   0  0  0  0  0  0  0  0  0  0  0  0
  -23.2823   -5.6359   20.5276 N   0  0  0  0  0  0  0  0  0  0  0  0
  -25.9831  -32.7754   23.4434 N   0  0  0  0  0  0  0  0  0  0  0  0
  -20.3905  -31.6238   21.1049 N   0  0  0  0  0  0  0  0  0  0  0  0
  -19.1108  -30.6550   17.8658 N   0  3  0  0  0  0  0  0  0  0  0  0
  -23.2844   -6.8071   18.5561 O   0  0  0  0  0  0  0  0  0  0  0  0
  -25.9211  -30.4560   23.2468 O   0  0  0  0  0  0  0  0  0  0  0  0
  -22.6549  -33.1891   21.8993 O   0  0  0  0  0  0  0  0  0  0  0  0
  -20.2061  -29.5023   20.1871 O   0  0  0  0  0  0  0  0  0  0  0  0
  -24.6938  -13.8811   18.6378 O   0  0  0  0  0  0  0  0  0  0  0  0
  -23.2154   -4.4141   25.9625 O   0  0  0  0  0  0  0  0  0  0  0  0
  -25.9556  -19.2457   19.4239 O   0  0  0  0  0  0  0  0  0  0  0  0
  -25.7050  -25.4800   20.0900 O   0  0  0  0  0  0  0  0  0  1  0  0
  -29.5600  -20.4106   19.9994 O   0  0  0  0  0  0  0  0  0  0  0  0
  -19.6353   -4.9481   30.1221 F   0  0  0  0  0  0  0  0  0  0  0  0
  -21.3491   -2.4438   26.4894 F   0  0  0  0  0  0  0  0  0  0  0  0
  1  2  1  0  0  0  0
  1  5  2  0  0  0  0
  2  6  2  0  0  0  0
  3  8  2  0  0  0  0
  3 17  1  0  0  0  0
  4  9  1  0  0  0  0
  4 17  2  0  0  0  0
  5 19  1  0  0  0  0
  6 21  1  0  0  0  0
  7 10  2  0  0  0  0
  7 20  1  0  0  0  0
  8 26  1  0  0  0  0
  9 26  2  0  0  0  0
 10 27  1  0  0  0  0
 11 12  2  0  0  0  0
 11 28  1  0  0  0  0
 12 30  1  0  0  0  0
 13 22  1  0  0  0  0
 13 27  2  0  0  0  0
 14 23  1  0  0  0  0
 14 24  2  0  0  0  0
 15 25  1  0  0  0  0
 15 29  2  0  0  0  0
 16 30  2  0  0  0  0
 16 31  1  0  0  0  0
 17 32  1  0  0  0  0
 18 32  1  0  0  0  0
 18 33  2  0  0  0  0
 18 34  1  0  0  0  0
 19 21  2  0  0  0  0
 19 39  1  0  0  0  0
 20 22  2  0  0  0  0
 20 40  1  0  0  0  0
 21 52  1  0  0  0  0
 22 41  1  0  0  0  0
 23 25  2  0  0  0  0
 23 64  1  0  0  0  0
 24 29  1  0  0  0  0
 24 65  1  0  0  0  0
 25 56  1  0  0  0  0
 26 84  1  0  0  0  0
 27 86  1  0  0  0  0
 28 31  2  0  0  0  0
 28 84  1  0  0  0  0
 29 85  1  0  0  0  0
 30 88  1  0  0  0  0
 31 89  1  0  0  0  0
 32 69  2  0  0  0  0
 33 70  1  0  0  0  0
 33 74  1  0  0  0  0
 34 75  1  0  0  0  0
 34 79  2  0  0  0  0
 35 53  1  0  0  0  0
 35 76  1  0  0  0  0
 35 80  2  0  0  0  0
 36 66  1  0  0  0  0
 36 71  1  0  0  0  0
 36 81  2  0  0  0  0
 37 67  1  0  0  0  0
 37 77  1  0  0  0  0
 37 82  2  0  0  0  0
 38 72  1  0  0  0  0
 38 73  1  0  0  0  0
 38 83  2  0  0  0  0
 39 42  1  0  0  0  0
 40 53  1  0  0  0  0
 41 71  1  0  0  0  0
 42 44  1  0  0  0  0
 43 45  1  0  0  0  0
 43 48  1  0  0  0  0
 44 52  1  0  0  0  0
 45 54  1  0  0  0  0
 46 49  1  0  0  0  0
 46 55  1  0  0  0  0
 47 50  1  0  0  0  0
 47 55  1  0  0  0  0
 48 72  1  0  0  0  0
 49 73  1  0  0  0  0
 50 73  1  0  0  0  0
 51 54  1  0  0  0  0
 51 72  1  0  0  0  0
 52 76  1  0  0  0  0
 53 71  1  0  0  0  0
 54 70  1  0  0  0  0
 55 85  1  0  0  0  0
 57 65  1  0  0  0  0
 58 67  1  0  0  0  0
 59 68  1  0  0  0  0
 60 68  1  0  0  0  0
 61 68  1  0  0  0  0
 62 78  1  0  0  0  0
 63 87  1  0  0  0  0
 64 86  1  0  0  0  0
 65 87  1  0  0  0  0
 66 68  1  0  0  0  0
 66 77  1  0  0  0  0
 67 78  1  0  0  0  0
 69 70  1  0  0  0  0
M  CHG  1  78   1
M  ISO  4  38 100  64 101  73 100  86 101
M  END
> <Batch ID>
0156

> <Smiles>
CNC(C)C(=O)NC(C(=O)N1Cc2cc([101O:1][101CH2:1]c3cc(C(C)OC)c(OC4CC[100N:0]([100C:0](=O)N5CCCC(n6nc(-c7ccc(Oc8ccc(F)cc8F)cc7)c(C(N)=O)c6N)C5)CC4)cc3C)ccc2CC1C(=O)NC1CCCc2ccccc21)C(C)(C)C

> <Shape>
0.239

> <Color>
0.076

> <Negative vol penalty>
0.000

$$$$

  -OEChem-04052321563D

 84 92  0     1  0  0  0  0  0999 V2000
  -31.8316  -14.7383   20.6861 C   0  0  0  0  0  0  0  0  0  0  0  0
  -31.1043  -15.8490   20.2703 C   0  0  0  0  0  0  0  0  0  0  0  0
  -26.1843  -23.8727   24.3754 C   0  0  0  0  0  0  0  0  0  0  0  0
  -24.4397  -23.9016   22.7043 C   0  0  0  0  0  0  0  0  0  0  0  0
  -31.2727  -13.4646   20.5899 C   0  0  0  0  0  0  0  0  0  0  0  0
  -29.8181  -15.6864   19.7569 C   0  0  0  0  0  0  0  0  0  0  0  0
  -26.5388  -19.0615   21.6277 C   0  0  0  0  0  0  0  0  0  0  0  0
  -25.4981  -22.8799   25.0747 C   0  0  0  0  0  0  0  0  0  0  0  0
  -23.7535  -22.9088   23.4035 C   0  0  0  0  0  0  0  0  0  0  0  0
  -26.5797  -20.3504   21.0977 C   0  0  0  0  0  0  0  0  0  0  0  0
  -25.0394  -19.5376   24.8479 C   0  0  0  0  0  0  0  0  0  0  0  0
  -25.7755  -18.4514   25.3211 C   0  0  0  0  0  0  0  0  0  0  0  0
  -24.6807  -19.8309   19.7036 C   0  0  0  0  0  0  0  0  0  0  0  0
  -27.0105  -27.5453   20.7804 C   0  0  0  0  0  0  0  0  0  0  0  0
  -25.0813  -27.0054   19.4298 C   0  0  0  0  0  0  0  0  0  0  0  0
  -25.1203  -18.9926   27.5827 C   0  0  0  0  0  0  0  0  0  0  0  0
  -25.6551  -24.3836   23.1902 C   0  0  0  0  0  0  0  0  0  0  0  0
  -27.3271  -25.2272   21.4581 C   0  0  0  0  0  0  0  0  0  0  0  0
  -29.9753  -13.2873   20.0840 C   0  0  0  0  0  0  0  0  0  0  0  0
  -25.5737  -18.1426   21.1910 C   0  0  0  0  0  0  0  0  0  0  0  0
  -29.2419  -14.4090   19.6525 C   0  0  0  0  0  0  0  0  0  0  0  0
  -24.6281  -18.5318   20.2315 C   0  0  0  0  0  0  0  0  0  0  0  0
  -27.0356  -28.8275   20.2321 C   0  0  0  0  0  0  0  0  0  0  0  0
  -25.1064  -28.2877   18.8815 C   0  0  0  0  0  0  0  0  0  0  0  0
  -26.0835  -29.1988   19.2826 C   0  0  0  0  0  0  0  0  0  0  0  0
  -24.2827  -22.3979   24.5887 C   0  0  0  0  0  0  0  0  0  0  0  0
  -25.6524  -20.7343   20.1334 C   0  0  0  0  0  0  0  0  0  0  0  0
  -24.3438  -20.3514   25.7421 C   0  0  0  0  0  0  0  0  0  0  0  0
  -26.0334  -26.6341   20.3793 C   0  0  0  0  0  0  0  0  0  0  0  0
  -25.8159  -18.1788   26.6884 C   0  0  0  0  0  0  0  0  0  0  0  0
  -24.3842  -20.0788   27.1095 C   0  0  0  0  0  0  0  0  0  0  0  0
  -26.3633  -25.4096   22.4677 C   0  0  0  0  0  0  0  0  0  0  0  0
  -27.6923  -26.5013   21.0977 C   0  0  0  0  0  0  0  0  0  0  0  0
  -27.8460  -24.0145   20.8961 C   0  0  0  0  0  0  0  0  0  0  0  0
  -25.6621  -15.3213   19.7294 C   0  0  0  0  0  0  0  0  0  0  0  0
  -22.4642  -15.3783   20.2705 C   0  0  0  0  0  0  0  0  0  0  0  0
  -19.6554  -17.2299   20.8437 C   0  0  0  0  0  0  0  0  0  0  0  0
  -24.9123  -31.7089   20.6120 C   0  0  0  0  0  0  0  0  0  0  0  0
  -29.4315  -11.8865   19.9552 C   0  0  0  0  0  0  0  0  0  0  0  0
  -25.5263  -16.7646   21.7920 C   0  0  0  0  0  0  0  0  0  0  0  0
  -23.5592  -17.5894   19.7438 C   0  0  0  0  0  0  0  0  0  0  0  0
  -27.9199  -11.8365   19.7485 C   0  0  0  0  0  0  0  0  0  0  0  0
  -27.4286  -30.9502   23.2186 C   0  0  0  0  0  0  0  0  0  0  0  0
  -27.4929  -12.8434   18.6852 C   0  0  0  0  0  0  0  0  0  0  0  0
  -27.4381  -29.4226   23.2377 C   0  0  0  0  0  0  0  0  0  0  0  0
  -26.0766  -31.5035   22.7785 C   0  0  0  0  0  0  0  0  0  0  0  0
  -25.6144  -29.4442   21.4901 C   0  0  0  0  0  0  0  0  0  0  0  0
  -27.8342  -14.2759   19.1132 C   0  0  1  0  0  0  0  0  0  0  0  0
  -24.8216  -15.7475   20.8997 C   0  0  1  0  0  0  0  0  0  0  0  0
  -26.9767  -28.8541   21.8845 C   0  0  2  0  0  0  0  0  0  0  0  0
  -28.0918  -29.7840   20.6801 C   0  0  0  0  0  0  0  0  0  0  0  0
  -24.0773  -28.6604   17.8650 C   0  0  0  0  0  0  0  0  0  0  0  0
  -17.1832  -16.9980   21.2071 C   0  0  0  0  0  0  0  0  0  0  0  0
  -22.0769  -14.8609   17.2885 C   0  0  0  0  0  0  0  0  0  0  0  0
  -19.6917  -15.5775   17.5450 C   0  0  0  0  0  0  0  0  0  0  0  0
  -20.5314  -13.5788   18.7791 C   0  0  0  0  0  0  0  0  0  0  0  0
  -24.3362  -32.2345   18.2729 C   0  0  0  0  0  0  0  0  0  0  0  0
  -19.8187  -18.4528   23.5339 C   0  0  0  0  0  0  0  0  0  0  0  0
  -26.1111  -30.5738   18.6944 C   0  0  0  0  0  0  0  0  0  0  0  0
  -26.1809  -23.0298   20.4612 C   0  0  0  0  0  0  0  0  0  1  0  0
  -25.5026  -24.3341   20.0895 C   0  0  0  0  0  0  0  0  0  0  0  0
  -21.2607  -15.8855   19.5134 C   0  0  1  0  0  0  0  0  0  0  0  0
  -18.5479  -17.0880   21.8722 C   0  0  2  0  0  0  0  0  0  0  0  0
  -20.9114  -14.9931   18.2891 C   0  0  0  0  0  0  0  0  0  0  0  0
  -26.1308  -26.6981   22.7320 N   0  0  0  0  0  0  0  0  0  0  0  0
  -26.9539  -27.3369   21.8831 N   0  0  0  0  0  0  0  0  0  0  0  0
  -23.5582  -16.2510   20.3572 N   0  0  0  0  0  0  0  0  0  0  0  0
  -25.6419  -30.9144   21.5115 N   0  0  0  0  0  0  0  0  0  0  0  0
  -28.5697  -26.9772   20.1889 N   0  0  0  0  0  0  0  0  0  0  0  0
  -27.3616  -22.7923   21.3817 N   0  0  0  0  0  0  0  0  0  0  0  0
  -26.8728  -14.7564   20.0823 N   0  0  0  0  0  0  0  0  0  0  0  0
  -20.1846  -16.0065   20.4910 N   0  0  0  0  0  0  0  0  0  0  0  0
  -25.0632  -31.4306   19.2451 N   0  0  0  0  0  0  0  0  0  0  0  0
  -18.5447  -18.2584   22.7948 N   0  3  0  0  0  0  0  0  0  0  0  0
  -28.7254  -24.0145   20.0016 O   0  0  0  0  0  0  0  0  0  0  0  0
  -25.2425  -15.4910   18.5906 O   0  0  0  0  0  0  0  0  0  0  0  0
  -22.4321  -14.2521   20.7728 O   0  0  0  0  0  0  0  0  0  0  0  0
  -20.0125  -18.3170   20.3951 O   0  0  0  0  0  0  0  0  0  0  0  0
  -24.1758  -32.6216   21.0076 O   0  0  0  0  0  0  0  0  0  0  0  0
  -23.6129  -21.4289   25.2707 O   0  0  0  0  0  0  0  0  0  0  0  0
  -25.6905  -21.9915   19.6139 O   0  0  0  0  0  0  0  0  0  1  0  0
  -26.0104  -25.3740   20.9166 O   0  0  0  0  0  0  0  0  0  0  0  0
  -26.5215  -17.1348   27.1426 F   0  0  0  0  0  0  0  0  0  0  0  0
  -23.7170  -20.8563   27.9733 F   0  0  0  0  0  0  0  0  0  0  0  0
  1  2  1  0  0  0  0
  1  5  2  0  0  0  0
  2  6  2  0  0  0  0
  3  8  2  0  0  0  0
  3 17  1  0  0  0  0
  4  9  1  0  0  0  0
  4 17  2  0  0  0  0
  5 19  1  0  0  0  0
  6 21  1  0  0  0  0
  7 10  2  0  0  0  0
  7 20  1  0  0  0  0
  8 26  1  0  0  0  0
  9 26  2  0  0  0  0
 10 27  1  0  0  0  0
 11 12  2  0  0  0  0
 11 28  1  0  0  0  0
 12 30  1  0  0  0  0
 13 22  1  0  0  0  0
 13 27  2  0  0  0  0
 14 23  2  0  0  0  0
 14 29  1  0  0  0  0
 15 24  1  0  0  0  0
 15 29  2  0  0  0  0
 16 30  2  0  0  0  0
 16 31  1  0  0  0  0
 17 32  1  0  0  0  0
 18 32  1  0  0  0  0
 18 33  2  0  0  0  0
 18 34  1  0  0  0  0
 19 21  2  0  0  0  0
 19 39  1  0  0  0  0
 20 22  2  0  0  0  0
 20 40  1  0  0  0  0
 21 48  1  0  0  0  0
 22 41  1  0  0  0  0
 23 25  1  0  0  0  0
 23 51  1  0  0  0  0
 24 25  2  0  0  0  0
 24 52  1  0  0  0  0
 25 59  1  0  0  0  0
 26 80  1  0  0  0  0
 27 81  1  0  0  0  0
 28 31  2  0  0  0  0
 28 80  1  0  0  0  0
 29 82  1  0  0  0  0
 30 83  1  0  0  0  0
 31 84  1  0  0  0  0
 32 65  2  0  0  0  0
 33 66  1  0  0  0  0
 33 69  1  0  0  0  0
 34 70  1  0  0  0  0
 34 75  2  0  0  0  0
 35 49  1  0  0  0  0
 35 71  1  0  0  0  0
 35 76  2  0  0  0  0
 36 62  1  0  0  0  0
 36 67  1  0  0  0  0
 36 77  2  0  0  0  0
 37 63  1  0  0  0  0
 37 72  1  0  0  0  0
 37 78  2  0  0  0  0
 38 68  1  0  0  0  0
 38 73  1  0  0  0  0
 38 79  2  0  0  0  0
 39 42  1  0  0  0  0
 40 49  1  0  0  0  0
 41 67  1  0  0  0  0
 42 44  1  0  0  0  0
 43 45  1  0  0  0  0
 43 46  1  0  0  0  0
 44 48  1  0  0  0  0
 45 50  1  0  0  0  0
 46 68  1  0  0  0  0
 47 50  1  0  0  0  0
 47 68  1  0  0  0  0
 48 71  1  0  0  0  0
 49 67  1  0  0  0  0
 50 66  1  0  0  0  0
 53 63  1  0  0  0  0
 54 64  1  0  0  0  0
 55 64  1  0  0  0  0
 56 64  1  0  0  0  0
 57 73  1  0  0  0  0
 58 74  1  0  0  0  0
 59 73  1  0  0  0  0
 60 61  1  0  0  0  0
 60 81  1  0  0  0  0
 61 82  1  0  0  0  0
 62 64  1  0  0  0  0
 62 72  1  0  0  0  0
 63 74  1  0  0  0  0
 65 66  1  0  0  0  0
M  CHG  1  74   1
M  ISO  4  38 100  60 101  73 100  81 101
M  END
> <Batch ID>
0156

> <Smiles>
CNC(C)C(=O)NC(C(=O)N1Cc2cc([101O:1][101CH2:1]COc3cc(C)c(C[100N:0](C)[100C:0](=O)N4CCCC(n5nc(-c6ccc(Oc7ccc(F)cc7F)cc6)c(C(N)=O)c5N)C4)c(C)c3)ccc2CC1C(=O)NC1CCCc2ccccc21)C(C)(C)C

> <Shape>
0.159

> <Color>
0.071

> <Negative vol penalty>
0.000

$$$$

  -OEChem-04052321563D

 84 93  0     1  0  0  0  0  0999 V2000
  -16.9865  -26.9118   21.7441 C   0  0  0  0  0  0  0  0  0  0  0  0
  -18.2382  -26.4246   21.3817 C   0  0  0  0  0  0  0  0  0  0  0  0
  -26.7743  -13.5328   21.6672 C   0  0  0  0  0  0  0  0  0  0  0  0
  -26.4517  -12.3670   19.5758 C   0  0  0  0  0  0  0  0  0  0  0  0
  -16.7665  -28.2872   21.8064 C   0  0  0  0  0  0  0  0  0  0  0  0
  -19.2702  -27.3125   21.0802 C   0  0  0  0  0  0  0  0  0  0  0  0
  -25.2361  -26.5521   22.2363 C   0  0  0  0  0  0  0  0  0  0  0  0
  -25.5231  -13.0969   22.1033 C   0  0  0  0  0  0  0  0  0  0  0  0
  -25.2005  -11.9311   20.0119 C   0  0  0  0  0  0  0  0  0  0  0  0
  -26.2987  -26.1257   21.4409 C   0  0  0  0  0  0  0  0  0  0  0  0
  -22.0748  -10.2129   20.7164 C   0  0  0  0  0  0  0  0  0  0  0  0
  -21.7432   -8.8748   20.5040 C   0  0  0  0  0  0  0  0  0  0  0  0
  -26.8672  -28.4241   20.9788 C   0  0  0  0  0  0  0  0  0  0  0  0
  -23.6377   -8.1934   21.8395 C   0  0  0  0  0  0  0  0  0  0  0  0
  -27.2386  -13.1679   20.4035 C   0  0  0  0  0  0  0  0  0  0  0  0
  -29.7663  -12.9662   20.1249 C   0  0  0  0  0  0  0  0  0  0  0  0
  -17.7991  -29.1924   21.5149 C   0  0  0  0  0  0  0  0  0  0  0  0
  -24.9739  -27.9199   22.4004 C   0  0  0  0  0  0  0  0  0  0  0  0
  -19.0634  -28.7012   21.1373 C   0  0  0  0  0  0  0  0  0  0  0  0
  -25.8021  -28.8653   21.7789 C   0  0  0  0  0  0  0  0  0  0  0  0
  -24.7362  -12.2960   21.2756 C   0  0  0  0  0  0  0  0  0  0  0  0
  -27.1127  -27.0617   20.8097 C   0  0  0  0  0  0  0  0  0  0  0  0
  -23.1879  -10.5413   21.4903 C   0  0  0  0  0  0  0  0  0  0  0  0
  -22.5246   -7.8651   21.0656 C   0  0  0  0  0  0  0  0  0  0  0  0
  -23.9693   -9.5315   22.0519 C   0  0  0  0  0  0  0  0  0  0  0  0
  -28.5307  -13.6184   19.9523 C   0  0  0  0  0  0  0  0  0  0  0  0
  -30.6795  -13.7954   19.5209 C   0  0  0  0  0  0  0  0  0  0  0  0
  -30.0620  -11.7221   20.7733 C   0  0  0  0  0  0  0  0  0  0  0  0
  -22.5337  -29.8351   21.7068 C   0  0  0  0  0  0  0  0  0  0  0  0
  -24.2985  -32.0247   23.3234 C   0  0  0  0  0  0  0  0  0  0  0  0
  -27.3706  -33.0380   24.4106 C   0  0  0  0  0  0  0  0  0  0  0  0
  -30.8906  -19.4873   18.5374 C   0  0  0  0  0  0  0  0  0  0  0  0
  -17.5003  -30.6703   21.5499 C   0  0  0  0  0  0  0  0  0  0  0  0
  -23.8400  -28.3639   23.2833 C   0  0  0  0  0  0  0  0  0  0  0  0
  -25.5754  -30.3456   21.9394 C   0  0  0  0  0  0  0  0  0  0  0  0
  -18.7516  -31.5442   21.5791 C   0  0  0  0  0  0  0  0  0  0  0  0
  -31.0725  -17.0344   16.0287 C   0  0  0  0  0  0  0  0  0  0  0  0
  -19.7596  -31.0680   20.5379 C   0  0  0  0  0  0  0  0  0  0  0  0
  -30.5564  -15.8024   16.7713 C   0  0  0  0  0  0  0  0  0  0  0  0
  -28.3341  -26.5225   17.6295 C   0  0  0  0  0  0  0  0  0  0  0  0
  -28.5770  -24.4982   18.9956 C   0  0  0  0  0  0  0  0  0  0  0  0
  -30.2804  -18.2933   16.3864 C   0  0  0  0  0  0  0  0  0  0  0  0
  -30.2164  -21.2129   16.8077 C   0  0  0  0  0  0  0  0  0  0  0  0
  -32.0665  -21.6601   18.3777 C   0  0  0  0  0  0  0  0  0  0  0  0
  -29.6824  -17.3256   18.5830 C   0  0  0  0  0  0  0  0  0  0  0  0
  -29.4961  -22.4705   17.2834 C   0  0  0  0  0  0  0  0  0  0  0  0
  -31.3654  -22.9062   18.8936 C   0  0  0  0  0  0  0  0  0  0  0  0
  -20.2151  -29.6326   20.8271 C   0  0  1  0  0  0  0  0  0  0  0  0
  -23.3521  -29.7740   22.9654 C   0  0  1  0  0  0  0  0  0  0  0  0
  -29.3436  -25.5513   16.9990 C   0  0  2  0  0  0  0  0  0  0  0  0
  -30.4967  -16.0565   18.2880 C   0  0  1  0  0  0  0  0  0  0  0  0
  -29.8482  -24.7630   18.2029 C   0  0  2  0  0  0  0  0  0  0  0  0
  -27.8315  -25.8304   18.9061 C   0  0  1  0  0  0  0  0  0  1  0  0
  -28.5015  -34.8871   25.6753 C   0  0  0  0  0  0  0  0  0  0  0  0
  -29.8494  -27.0615   15.0581 C   0  0  0  0  0  0  0  0  0  0  0  0
  -31.2547  -27.1737   17.1357 C   0  0  0  0  0  0  0  0  0  0  0  0
  -24.0478  -33.8421   20.8854 C   0  0  0  0  0  0  0  0  0  0  0  0
  -25.9322  -35.2132   21.8005 C   0  0  0  0  0  0  0  0  0  0  0  0
  -23.8036  -35.0074   23.0847 C   0  0  0  0  0  0  0  0  0  0  0  0
  -28.3350  -31.1764   26.4996 C   0  0  0  0  0  0  0  0  0  0  0  0
  -25.3660  -33.0244   22.9492 C   0  0  1  0  0  0  0  0  0  0  0  0
  -27.8513  -33.5155   25.7691 C   0  0  2  0  0  0  0  0  0  0  0  0
  -30.4398  -26.2601   16.2192 C   0  0  0  0  0  0  0  0  0  0  0  0
  -24.7908  -34.2439   22.1751 C   0  0  0  0  0  0  0  0  0  0  0  0
  -28.6451  -14.7729   19.2905 N   0  0  0  0  0  0  0  0  0  0  0  0
  -29.9634  -14.8528   19.0421 N   0  0  0  0  0  0  0  0  0  0  0  0
  -24.4502  -30.7298   22.8076 N   0  0  0  0  0  0  0  0  0  0  0  0
  -30.2161  -18.4715   17.8436 N   0  0  0  0  0  0  0  0  0  0  0  0
  -31.1071  -20.6916   17.8515 N   0  0  0  0  0  0  0  0  0  0  0  0
  -32.0173  -13.7159   19.3580 N   0  0  0  0  0  0  0  0  0  0  0  0
  -29.0057  -10.9970   21.3413 N   0  0  0  0  0  0  0  0  0  0  0  0
  -21.1834  -29.6166   21.9025 N   0  0  0  0  0  0  0  0  0  0  0  0
  -26.0515  -33.3728   24.1890 N   0  0  0  0  0  0  0  0  0  0  0  0
  -30.5033  -23.4745   17.7906 N   0  3  0  0  0  0  0  0  0  0  0  0
  -28.8479  -32.5605   26.3310 N   0  3  0  0  0  0  0  0  0  0  0  0
  -31.2307  -11.2749   20.8611 O   0  0  0  0  0  0  0  0  0  0  0  0
  -23.0862  -30.0650   20.6374 O   0  0  0  0  0  0  0  0  0  0  0  0
  -23.3683  -32.3778   24.0525 O   0  0  0  0  0  0  0  0  0  0  0  0
  -28.0941  -32.4320   23.6233 O   0  0  0  0  0  0  0  0  0  0  0  0
  -31.2764  -19.3277   19.7024 O   0  0  0  0  0  0  0  0  0  0  0  0
  -23.5154  -11.8703   21.7008 O   0  0  0  0  0  0  0  0  0  0  0  0
  -28.1569  -26.6455   20.0272 O   0  0  0  0  0  0  0  0  0  1  0  0
  -22.2052   -6.5801   20.8629 F   0  0  0  0  0  0  0  0  0  0  0  0
  -25.0392   -9.8408   22.7972 F   0  0  0  0  0  0  0  0  0  0  0  0
  1  2  1  0  0  0  0
  1  5  2  0  0  0  0
  2  6  2  0  0  0  0
  3  8  2  0  0  0  0
  3 15  1  0  0  0  0
  4  9  1  0  0  0  0
  4 15  2  0  0  0  0
  5 17  1  0  0  0  0
  6 19  1  0  0  0  0
  7 10  2  0  0  0  0
  7 18  1  0  0  0  0
  8 21  1  0  0  0  0
  9 21  2  0  0  0  0
 10 22  1  0  0  0  0
 11 12  2  0  0  0  0
 11 23  1  0  0  0  0
 12 24  1  0  0  0  0
 13 20  1  0  0  0  0
 13 22  2  0  0  0  0
 14 24  2  0  0  0  0
 14 25  1  0  0  0  0
 15 26  1  0  0  0  0
 16 26  1  0  0  0  0
 16 27  2  0  0  0  0
 16 28  1  0  0  0  0
 17 19  2  0  0  0  0
 17 33  1  0  0  0  0
 18 20  2  0  0  0  0
 18 34  1  0  0  0  0
 19 48  1  0  0  0  0
 20 35  1  0  0  0  0
 21 81  1  0  0  0  0
 22 82  1  0  0  0  0
 23 25  2  0  0  0  0
 23 81  1  0  0  0  0
 24 83  1  0  0  0  0
 25 84  1  0  0  0  0
 26 65  2  0  0  0  0
 27 66  1  0  0  0  0
 27 70  1  0  0  0  0
 28 71  1  0  0  0  0
 28 76  2  0  0  0  0
 29 49  1  0  0  0  0
 29 72  1  0  0  0  0
 29 77  2  0  0  0  0
 30 61  1  0  0  0  0
 30 67  1  0  0  0  0
 30 78  2  0  0  0  0
 31 62  1  0  0  0  0
 31 73  1  0  0  0  0
 31 79  2  0  0  0  0
 32 68  1  0  0  0  0
 32 69  1  0  0  0  0
 32 80  2  0  0  0  0
 33 36  1  0  0  0  0
 34 49  1  0  0  0  0
 35 67  1  0  0  0  0
 36 38  1  0  0  0  0
 37 39  1  0  0  0  0
 37 42  1  0  0  0  0
 38 48  1  0  0  0  0
 39 51  1  0  0  0  0
 40 50  1  0  0  0  0
 40 53  1  0  0  0  0
 41 52  1  0  0  0  0
 41 53  1  0  0  0  0
 42 68  1  0  0  0  0
 43 46  1  0  0  0  0
 43 69  1  0  0  0  0
 44 47  1  0  0  0  0
 44 69  1  0  0  0  0
 45 51  1  0  0  0  0
 45 68  1  0  0  0  0
 46 74  1  0  0  0  0
 47 74  1  0  0  0  0
 48 72  1  0  0  0  0
 49 67  1  0  0  0  0
 50 52  1  0  0  0  0
 50 63  1  0  0  0  0
 51 66  1  0  0  0  0
 52 74  1  0  0  0  0
 53 82  1  0  0  0  0
 54 62  1  0  0  0  0
 55 63  1  0  0  0  0
 56 63  1  0  0  0  0
 57 64  1  0  0  0  0
 58 64  1  0  0  0  0
 59 64  1  0  0  0  0
 60 75  1  0  0  0  0
 61 64  1  0  0  0  0
 61 73  1  0  0  0  0
 62 75  1  0  0  0  0
 65 66  1  0  0  0  0
M  CHG  2  74   1  75   1
M  ISO  4  32 100  53 101  69 100  82 101
M  END
> <Batch ID>
0156

> <Smiles>
CNC(C)C(=O)NC(C(=O)N1Cc2cc([101O:1][101CH:1]3CC(C(C)C)C(N4CC[100N:0]([100C:0](=O)N5CCCC(n6nc(-c7ccc(Oc8ccc(F)cc8F)cc7)c(C(N)=O)c6N)C5)CC4)C3)ccc2CC1C(=O)NC1CCCc2ccccc21)C(C)(C)C

> <Shape>
0.311

> <Color>
0.100

> <Negative vol penalty>
0.000

$$$$

  -OEChem-04052321563D

 90 99  0     1  0  0  0  0  0999 V2000
  -21.2130  -21.4558   19.8497 C   0  0  0  0  0  0  0  0  0  0  0  0
  -22.2769  -20.6193   20.1721 C   0  0  0  0  0  0  0  0  0  0  0  0
  -22.6592  -28.2889   23.0370 C   0  0  0  0  0  0  0  0  0  0  0  0
  -23.0461  -29.7094   21.1214 C   0  0  0  0  0  0  0  0  0  0  0  0
  -19.9291  -21.1547   20.3022 C   0  0  0  0  0  0  0  0  0  0  0  0
  -22.0575  -19.4817   20.9481 C   0  0  0  0  0  0  0  0  0  0  0  0
  -24.4335  -15.3983   19.1244 C   0  0  0  0  0  0  0  0  0  0  0  0
  -21.2931  -28.2818   22.7558 C   0  0  0  0  0  0  0  0  0  0  0  0
  -21.6799  -29.7022   20.8402 C   0  0  0  0  0  0  0  0  0  0  0  0
  -25.8017  -15.2943   19.3717 C   0  0  0  0  0  0  0  0  0  0  0  0
  -18.6506  -30.3444   23.1885 C   0  0  0  0  0  0  0  0  0  0  0  0
  -17.7696  -30.5351   24.2530 C   0  0  0  0  0  0  0  0  0  0  0  0
  -25.3520  -13.7666   21.1836 C   0  0  0  0  0  0  0  0  0  0  0  0
  -30.3271  -18.0986   20.8140 C   0  0  0  0  0  0  0  0  0  0  0  0
  -28.7458  -18.4193   22.6121 C   0  0  0  0  0  0  0  0  0  0  0  0
  -16.7765  -28.3761   23.8178 C   0  0  0  0  0  0  0  0  0  0  0  0
  -23.5358  -29.0028   22.2198 C   0  0  0  0  0  0  0  0  0  0  0  0
  -25.5707  -29.4723   23.6848 C   0  0  0  0  0  0  0  0  0  0  0  0
  -19.6923  -20.0076   21.0760 C   0  0  0  0  0  0  0  0  0  0  0  0
  -23.5122  -14.6945   19.9132 C   0  0  0  0  0  0  0  0  0  0  0  0
  -20.7694  -19.1656   21.4124 C   0  0  0  0  0  0  0  0  0  0  0  0
  -23.9729  -13.8613   20.9426 C   0  0  0  0  0  0  0  0  0  0  0  0
  -29.4576  -16.1897   22.0128 C   0  0  0  0  0  0  0  0  0  0  0  0
  -29.5628  -18.9487   21.6131 C   0  0  0  0  0  0  0  0  0  0  0  0
  -20.8034  -28.9884   21.6574 C   0  0  0  0  0  0  0  0  0  0  0  0
  -26.2610  -14.4806   20.4032 C   0  0  0  0  0  0  0  0  0  0  0  0
  -18.5945  -29.1696   22.4386 C   0  0  0  0  0  0  0  0  0  0  0  0
  -30.2745  -16.7190   21.0138 C   0  0  0  0  0  0  0  0  0  0  0  0
  -28.6932  -17.0398   22.8120 C   0  0  0  0  0  0  0  0  0  0  0  0
  -16.8326  -29.5510   24.5677 C   0  0  0  0  0  0  0  0  0  0  0  0
  -17.6574  -28.1854   22.7533 C   0  0  0  0  0  0  0  0  0  0  0  0
  -24.9471  -29.0110   22.5100 C   0  0  0  0  0  0  0  0  0  0  0  0
  -26.9107  -29.2641   23.4667 C   0  0  0  0  0  0  0  0  0  0  0  0
  -24.9905  -30.0382   24.8676 C   0  0  0  0  0  0  0  0  0  0  0  0
  -21.1345  -15.5156   21.8564 C   0  0  0  0  0  0  0  0  0  0  0  0
  -20.6230  -12.3137   21.9485 C   0  0  0  0  0  0  0  0  0  0  0  0
  -22.6401   -9.3299   22.1617 C   0  0  0  0  0  0  0  0  0  0  0  0
  -29.9289  -25.4571   19.9671 C   0  0  0  0  0  0  0  0  0  0  0  0
  -18.2952  -19.7489   21.5819 C   0  0  0  0  0  0  0  0  0  0  0  0
  -22.0412  -14.7965   19.6165 C   0  0  0  0  0  0  0  0  0  0  0  0
  -23.0260  -13.0690   21.8053 C   0  0  0  0  0  0  0  0  0  0  0  0
  -18.0838  -18.3232   22.0849 C   0  0  0  0  0  0  0  0  0  0  0  0
  -30.1357  -29.0114   19.9417 C   0  0  0  0  0  0  0  0  0  0  0  0
  -19.2356  -17.9006   22.9913 C   0  0  0  0  0  0  0  0  0  0  0  0
  -28.8856  -29.4560   20.7030 C   0  0  0  0  0  0  0  0  0  0  0  0
  -29.5293  -22.6237   22.3228 C   0  0  0  0  0  0  0  0  0  0  0  0
  -29.3329  -22.2284   19.8584 C   0  0  0  0  0  0  0  0  0  0  0  0
  -29.8669  -27.7729   19.0897 C   0  0  0  0  0  0  0  0  0  0  0  0
  -30.0599  -21.2019   22.5074 C   0  0  0  0  0  0  0  0  0  0  0  0
  -29.8691  -20.8100   20.0463 C   0  0  0  0  0  0  0  0  0  0  0  0
  -28.0335  -27.0773   20.5825 C   0  0  0  0  0  0  0  0  0  0  0  0
  -20.5674  -17.9091   22.2312 C   0  0  1  0  0  0  0  0  0  0  0  0
  -21.1642  -14.4361   20.8117 C   0  0  1  0  0  0  0  0  0  0  0  0
  -28.2697  -28.2898   21.4992 C   0  0  2  0  0  0  0  0  0  0  0  0
  -29.8600  -23.1736   20.9367 C   0  0  0  0  0  0  0  0  0  0  0  0
  -29.9054  -14.3121   23.6270 C   0  0  0  0  0  0  0  0  0  0  0  0
  -22.1868   -6.9938   21.3652 C   0  0  0  0  0  0  0  0  0  0  0  0
  -19.5979  -11.8554   24.7856 C   0  0  0  0  0  0  0  0  0  0  0  0
  -20.6275   -9.5743   24.7144 C   0  0  0  0  0  0  0  0  0  0  0  0
  -18.8147  -10.1732   23.1089 C   0  0  0  0  0  0  0  0  0  0  0  0
  -25.1374   -9.2621   20.5750 C   0  0  0  0  0  0  0  0  0  0  0  0
  -31.8328  -16.5308   19.2271 C   0  0  0  0  0  0  0  0  0  0  0  0
  -27.1447  -17.4826   24.5618 C   0  0  0  0  0  0  0  0  0  0  0  0
  -27.9923  -14.1239   21.9942 C   0  0  0  0  0  0  0  0  0  1  0  0
  -29.4008  -14.6858   22.2304 C   0  0  1  0  0  0  0  0  0  0  0  0
  -21.1160  -11.1767   22.8105 C   0  0  1  0  0  0  0  0  0  0  0  0
  -22.8783   -8.3133   21.0598 C   0  0  2  0  0  0  0  0  0  0  0  0
  -20.0549  -10.7181   23.8503 C   0  0  0  0  0  0  0  0  0  0  0  0
  -25.8193  -28.5451   21.6121 N   0  0  0  0  0  0  0  0  0  0  0  0
  -27.0046  -28.7126   22.2229 N   0  0  0  0  0  0  0  0  0  0  0  0
  -29.6152  -20.3338   21.4125 N   0  0  0  0  0  0  0  0  0  0  0  0
  -21.5968  -13.2070   21.4799 N   0  0  0  0  0  0  0  0  0  0  0  0
  -29.2849  -26.7038   19.9047 N   0  0  0  0  0  0  0  0  0  0  0  0
  -28.0060  -29.5009   24.2195 N   0  0  0  0  0  0  0  0  0  0  0  0
  -23.5975  -30.1809   24.9259 N   0  0  0  0  0  0  0  0  0  0  0  0
  -20.6782  -16.7348   21.3927 N   0  0  0  0  0  0  0  0  0  0  0  0
  -21.5471  -10.1267   21.8939 N   0  0  0  0  0  0  0  0  0  0  0  0
  -29.3141  -24.5018   20.7671 N   0  0  0  0  0  0  0  0  0  0  0  0
  -24.3372   -8.0537   20.9011 N   0  3  0  0  0  0  0  0  0  0  0  0
  -25.6881  -30.4216   25.8371 O   0  0  0  0  0  0  0  0  0  0  0  0
  -21.4971  -15.2610   22.9989 O   0  0  0  0  0  0  0  0  0  0  0  0
  -19.4192  -12.4018   21.6941 O   0  0  0  0  0  0  0  0  0  0  0  0
  -23.3501   -9.4067   23.1620 O   0  0  0  0  0  0  0  0  0  0  0  0
  -30.9772  -25.2151   19.3593 O   0  0  0  0  0  0  0  0  0  0  0  0
  -19.4703  -28.9814   21.3826 O   0  0  0  0  0  0  0  0  0  0  0  0
  -31.0270  -15.9038   20.2229 O   0  0  0  0  0  0  0  0  0  0  0  0
  -27.8906  -16.5408   23.7934 O   0  0  0  0  0  0  0  0  0  0  0  0
  -27.5958  -14.3779   20.6471 O   0  0  0  0  0  0  0  0  0  1  0  0
  -15.9877  -29.7336   25.5909 F   0  0  0  0  0  0  0  0  0  0  0  0
  -17.5995  -27.0542   22.0373 F   0  0  0  0  0  0  0  0  0  0  0  0
  1  2  1  0  0  0  0
  1  5  2  0  0  0  0
  2  6  2  0  0  0  0
  3  8  2  0  0  0  0
  3 17  1  0  0  0  0
  4  9  1  0  0  0  0
  4 17  2  0  0  0  0
  5 19  1  0  0  0  0
  6 21  1  0  0  0  0
  7 10  2  0  0  0  0
  7 20  1  0  0  0  0
  8 25  1  0  0  0  0
  9 25  2  0  0  0  0
 10 26  1  0  0  0  0
 11 12  2  0  0  0  0
 11 27  1  0  0  0  0
 12 30  1  0  0  0  0
 13 22  1  0  0  0  0
 13 26  2  0  0  0  0
 14 24  1  0  0  0  0
 14 28  2  0  0  0  0
 15 24  2  0  0  0  0
 15 29  1  0  0  0  0
 16 30  2  0  0  0  0
 16 31  1  0  0  0  0
 17 32  1  0  0  0  0
 18 32  1  0  0  0  0
 18 33  2  0  0  0  0
 18 34  1  0  0  0  0
 19 21  2  0  0  0  0
 19 39  1  0  0  0  0
 20 22  2  0  0  0  0
 20 40  1  0  0  0  0
 21 52  1  0  0  0  0
 22 41  1  0  0  0  0
 23 28  1  0  0  0  0
 23 29  2  0  0  0  0
 23 65  1  0  0  0  0
 24 71  1  0  0  0  0
 25 85  1  0  0  0  0
 26 88  1  0  0  0  0
 27 31  2  0  0  0  0
 27 85  1  0  0  0  0
 28 86  1  0  0  0  0
 29 87  1  0  0  0  0
 30 89  1  0  0  0  0
 31 90  1  0  0  0  0
 32 69  2  0  0  0  0
 33 70  1  0  0  0  0
 33 74  1  0  0  0  0
 34 75  1  0  0  0  0
 34 80  2  0  0  0  0
 35 53  1  0  0  0  0
 35 76  1  0  0  0  0
 35 81  2  0  0  0  0
 36 66  1  0  0  0  0
 36 72  1  0  0  0  0
 36 82  2  0  0  0  0
 37 67  1  0  0  0  0
 37 77  1  0  0  0  0
 37 83  2  0  0  0  0
 38 73  1  0  0  0  0
 38 78  1  0  0  0  0
 38 84  2  0  0  0  0
 39 42  1  0  0  0  0
 40 53  1  0  0  0  0
 41 72  1  0  0  0  0
 42 44  1  0  0  0  0
 43 45  1  0  0  0  0
 43 48  1  0  0  0  0
 44 52  1  0  0  0  0
 45 54  1  0  0  0  0
 46 49  1  0  0  0  0
 46 55  1  0  0  0  0
 47 50  1  0  0  0  0
 47 55  1  0  0  0  0
 48 73  1  0  0  0  0
 49 71  1  0  0  0  0
 50 71  1  0  0  0  0
 51 54  1  0  0  0  0
 51 73  1  0  0  0  0
 52 76  1  0  0  0  0
 53 72  1  0  0  0  0
 54 70  1  0  0  0  0
 55 78  1  0  0  0  0
 56 65  1  0  0  0  0
 57 67  1  0  0  0  0
 58 68  1  0  0  0  0
 59 68  1  0  0  0  0
 60 68  1  0  0  0  0
 61 79  1  0  0  0  0
 62 86  1  0  0  0  0
 63 87  1  0  0  0  0
 64 65  1  0  0  0  0
 64 88  1  0  0  0  0
 66 68  1  0  0  0  0
 66 77  1  0  0  0  0
 67 79  1  0  0  0  0
 69 70  1  0  0  0  0
M  CHG  1  79   1
M  ISO  4  38 100  64 101  78 100  88 101
M  END
> <Batch ID>
0156

> <Smiles>
CNC(C)C(=O)NC(C(=O)N1Cc2cc([101O:1][101CH2:1]C(C)c3c(OC)cc(N4CCC([100NH:0][100C:0](=O)N5CCCC(n6nc(-c7ccc(Oc8ccc(F)cc8F)cc7)c(C(N)=O)c6N)C5)CC4)cc3OC)ccc2CC1C(=O)NC1CCCc2ccccc21)C(C)(C)C

> <Shape>
0.281

> <Color>
0.038

> <Negative vol penalty>
0.000

$$$$

  -OEChem-04052321563D

 86 95  0     1  0  0  0  0  0999 V2000
  -23.8058  -32.7525   14.1343 C   0  0  0  0  0  0  0  0  0  0  0  0
  -24.7047  -31.9417   14.8199 C   0  0  0  0  0  0  0  0  0  0  0  0
  -25.1101   -9.0506   21.3067 C   0  0  0  0  0  0  0  0  0  0  0  0
  -23.1304   -9.5532   22.5972 C   0  0  0  0  0  0  0  0  0  0  0  0
  -23.2791  -33.8857   14.7528 C   0  0  0  0  0  0  0  0  0  0  0  0
  -25.0782  -32.2643   16.1241 C   0  0  0  0  0  0  0  0  0  0  0  0
  -25.0616  -28.2419   19.2007 C   0  0  0  0  0  0  0  0  0  0  0  0
  -25.1428   -7.7690   21.8561 C   0  0  0  0  0  0  0  0  0  0  0  0
  -23.1630   -8.2715   23.1465 C   0  0  0  0  0  0  0  0  0  0  0  0
  -26.1454  -27.3693   19.1137 C   0  0  0  0  0  0  0  0  0  0  0  0
  -22.5163   -5.0097   24.6164 C   0  0  0  0  0  0  0  0  0  0  0  0
  -21.3160   -4.3025   24.6864 C   0  0  0  0  0  0  0  0  0  0  0  0
  -27.1205  -28.3955   21.0670 C   0  0  0  0  0  0  0  0  0  0  0  0
  -31.8143  -24.4364   18.7029 C   0  0  0  0  0  0  0  0  0  0  0  0
  -29.3047  -23.4748   19.4515 C   0  0  0  0  0  0  0  0  0  0  0  0
  -21.1005   -4.4304   22.2834 C   0  0  0  0  0  0  0  0  0  0  0  0
  -24.1039   -9.9428   21.6773 C   0  0  0  0  0  0  0  0  0  0  0  0
  -23.4073  -11.6726   19.9366 C   0  0  0  0  0  0  0  0  0  0  0  0
  -23.6389  -34.2169   16.0686 C   0  0  0  0  0  0  0  0  0  0  0  0
  -25.0043  -29.2067   20.2167 C   0  0  0  0  0  0  0  0  0  0  0  0
  -24.5568  -33.4036   16.7603 C   0  0  0  0  0  0  0  0  0  0  0  0
  -26.0336  -29.2774   21.1662 C   0  0  0  0  0  0  0  0  0  0  0  0
  -30.6949  -25.2637   18.6120 C   0  0  0  0  0  0  0  0  0  0  0  0
  -31.6789  -23.1283   19.1680 C   0  0  0  0  0  0  0  0  0  0  0  0
  -29.4402  -24.7829   18.9863 C   0  0  0  0  0  0  0  0  0  0  0  0
  -30.4241  -22.6476   19.5423 C   0  0  0  0  0  0  0  0  0  0  0  0
  -24.1693   -7.3794   22.7759 C   0  0  0  0  0  0  0  0  0  0  0  0
  -27.1765  -27.4479   20.0453 C   0  0  0  0  0  0  0  0  0  0  0  0
  -23.0086   -5.4273   23.3799 C   0  0  0  0  0  0  0  0  0  0  0  0
  -20.6082   -4.0129   23.5200 C   0  0  0  0  0  0  0  0  0  0  0  0
  -22.3008   -5.1377   22.2134 C   0  0  0  0  0  0  0  0  0  0  0  0
  -24.0699  -11.2671   21.1106 C   0  0  0  0  0  0  0  0  0  0  0  0
  -23.6804  -13.0148   19.8344 C   0  0  0  0  0  0  0  0  0  0  0  0
  -22.6157  -10.9048   19.0204 C   0  0  0  0  0  0  0  0  0  0  0  0
  -24.9311  -32.3836   20.2919 C   0  0  0  0  0  0  0  0  0  0  0  0
  -24.4871  -31.9097   23.4700 C   0  0  0  0  0  0  0  0  0  0  0  0
  -24.8764  -29.8684   26.1771 C   0  0  0  0  0  0  0  0  0  0  0  0
  -26.9755  -17.2479   20.0043 C   0  0  0  0  0  0  0  0  0  0  0  0
  -23.0797  -35.4778   16.6786 C   0  0  0  0  0  0  0  0  0  0  0  0
  -23.8153  -30.1230   20.3126 C   0  0  0  0  0  0  0  0  0  0  0  0
  -26.0099  -30.2819   22.2882 C   0  0  0  0  0  0  0  0  0  0  0  0
  -23.2385  -35.5430   18.1955 C   0  0  0  0  0  0  0  0  0  0  0  0
  -25.7591  -16.2247   23.1352 C   0  0  0  0  0  0  0  0  0  0  0  0
  -24.6551  -35.1491   18.6013 C   0  0  0  0  0  0  0  0  0  0  0  0
  -25.1518  -14.8639   22.7948 C   0  0  0  0  0  0  0  0  0  0  0  0
  -29.2387  -19.5942   21.3315 C   0  0  0  0  0  0  0  0  0  0  0  0
  -28.1973  -20.3816   19.1721 C   0  0  0  0  0  0  0  0  0  0  0  0
  -27.0857  -16.4579   22.4099 C   0  0  0  0  0  0  0  0  0  0  0  0
  -27.9267  -18.8884   21.6868 C   0  0  0  0  0  0  0  0  0  0  0  0
  -26.9018  -19.6866   19.5817 C   0  0  0  0  0  0  0  0  0  0  0  0
  -26.4005  -14.9141   20.6027 C   0  0  0  0  0  0  0  0  0  0  0  0
  -24.9674  -33.7066   18.1850 C   0  0  1  0  0  0  0  0  0  0  0  0
  -24.1101  -31.4057   21.0840 C   0  0  1  0  0  0  0  0  0  0  0  0
  -25.0379  -14.6754   21.2715 C   0  0  1  0  0  0  0  0  0  0  0  0
  -29.0009  -20.7918   20.4087 C   0  0  0  0  0  0  0  0  0  0  0  0
  -30.8643  -26.6604   18.1107 C   0  0  0  0  0  0  0  0  0  0  0  0
  -32.8942  -22.2632   19.2526 C   0  0  0  0  0  0  0  0  0  0  0  0
  -24.4487  -29.7702   28.6479 C   0  0  0  0  0  0  0  0  0  0  0  0
  -26.8545  -33.7734   23.9515 C   0  0  0  0  0  0  0  0  0  0  0  0
  -26.9761  -32.9001   26.2947 C   0  0  0  0  0  0  0  0  0  0  0  0
  -24.9329  -34.1020   25.5179 C   0  0  0  0  0  0  0  0  0  0  0  0
  -23.1040  -27.5152   25.8942 C   0  0  0  0  0  0  0  0  0  0  0  0
  -28.2277  -25.6501   18.8967 C   0  0  0  0  0  0  0  0  0  1  0  0
  -25.3960  -31.7667   24.6669 C   0  0  1  0  0  0  0  0  0  0  0  0
  -23.9072  -29.4424   27.2651 C   0  0  2  0  0  0  0  0  0  0  0  0
  -26.0416  -33.1178   25.0856 C   0  0  0  0  0  0  0  0  0  0  0  0
  -24.7154  -12.2705   21.7112 N   0  0  0  0  0  0  0  0  0  0  0  0
  -24.4599  -13.3197   20.9113 N   0  0  0  0  0  0  0  0  0  0  0  0
  -24.8291  -31.1599   22.3357 N   0  0  0  0  0  0  0  0  0  0  0  0
  -26.9369  -16.2274   20.9662 N   0  0  0  0  0  0  0  0  0  0  0  0
  -27.1687  -18.5564   20.4719 N   0  0  0  0  0  0  0  0  0  0  0  0
  -23.3275  -13.9522   18.9292 N   0  0  0  0  0  0  0  0  0  0  0  0
  -22.4359   -9.5384   19.2754 N   0  0  0  0  0  0  0  0  0  0  0  0
  -30.2715  -21.3525   20.0048 N   0  0  0  0  0  0  0  0  0  0  0  0
  -24.3491  -32.7714   19.1001 N   0  0  0  0  0  0  0  0  0  0  0  0
  -24.5977  -31.1364   25.7127 N   0  0  0  0  0  0  0  0  0  0  0  0
  -23.6601  -27.9745   27.1930 N   0  3  0  0  0  0  0  0  0  0  0  0
  -22.0972  -11.4117   17.9969 O   0  0  0  0  0  0  0  0  0  0  0  0
  -26.0119  -32.7597   20.7303 O   0  0  0  0  0  0  0  0  0  0  0  0
  -23.5057  -32.6536   23.5415 O   0  0  0  0  0  0  0  0  0  0  0  0
  -25.7916  -29.1498   25.7816 O   0  0  0  0  0  0  0  0  0  0  0  0
  -26.8453  -17.0045   18.7981 O   0  0  0  0  0  0  0  0  0  0  0  0
  -24.2008   -6.1287   23.3120 O   0  0  0  0  0  0  0  0  0  0  0  0
  -28.2435  -26.5917   19.9617 O   0  0  0  0  0  0  0  0  0  1  0  0
  -19.4564   -3.3324   23.5872 F   0  0  0  0  0  0  0  0  0  0  0  0
  -22.7694   -5.5352   21.0226 F   0  0  0  0  0  0  0  0  0  0  0  0
  1  2  1  0  0  0  0
  1  5  2  0  0  0  0
  2  6  2  0  0  0  0
  3  8  2  0  0  0  0
  3 17  1  0  0  0  0
  4  9  1  0  0  0  0
  4 17  2  0  0  0  0
  5 19  1  0  0  0  0
  6 21  1  0  0  0  0
  7 10  2  0  0  0  0
  7 20  1  0  0  0  0
  8 27  1  0  0  0  0
  9 27  2  0  0  0  0
 10 28  1  0  0  0  0
 11 12  2  0  0  0  0
 11 29  1  0  0  0  0
 12 30  1  0  0  0  0
 13 22  1  0  0  0  0
 13 28  2  0  0  0  0
 14 23  1  0  0  0  0
 14 24  2  0  0  0  0
 15 25  1  0  0  0  0
 15 26  2  0  0  0  0
 16 30  2  0  0  0  0
 16 31  1  0  0  0  0
 17 32  1  0  0  0  0
 18 32  1  0  0  0  0
 18 33  2  0  0  0  0
 18 34  1  0  0  0  0
 19 21  2  0  0  0  0
 19 39  1  0  0  0  0
 20 22  2  0  0  0  0
 20 40  1  0  0  0  0
 21 52  1  0  0  0  0
 22 41  1  0  0  0  0
 23 25  2  0  0  0  0
 23 56  1  0  0  0  0
 24 26  1  0  0  0  0
 24 57  1  0  0  0  0
 25 63  1  0  0  0  0
 26 74  1  0  0  0  0
 27 83  1  0  0  0  0
 28 84  1  0  0  0  0
 29 31  2  0  0  0  0
 29 83  1  0  0  0  0
 30 85  1  0  0  0  0
 31 86  1  0  0  0  0
 32 67  2  0  0  0  0
 33 68  1  0  0  0  0
 33 72  1  0  0  0  0
 34 73  1  0  0  0  0
 34 78  2  0  0  0  0
 35 53  1  0  0  0  0
 35 75  1  0  0  0  0
 35 79  2  0  0  0  0
 36 64  1  0  0  0  0
 36 69  1  0  0  0  0
 36 80  2  0  0  0  0
 37 65  1  0  0  0  0
 37 76  1  0  0  0  0
 37 81  2  0  0  0  0
 38 70  1  0  0  0  0
 38 71  1  0  0  0  0
 38 82  2  0  0  0  0
 39 42  1  0  0  0  0
 40 53  1  0  0  0  0
 41 69  1  0  0  0  0
 42 44  1  0  0  0  0
 43 45  1  0  0  0  0
 43 48  1  0  0  0  0
 44 52  1  0  0  0  0
 45 54  1  0  0  0  0
 46 49  1  0  0  0  0
 46 55  1  0  0  0  0
 47 50  1  0  0  0  0
 47 55  1  0  0  0  0
 48 70  1  0  0  0  0
 49 71  1  0  0  0  0
 50 71  1  0  0  0  0
 51 54  1  0  0  0  0
 51 70  1  0  0  0  0
 52 75  1  0  0  0  0
 53 69  1  0  0  0  0
 54 68  1  0  0  0  0
 55 74  1  0  0  0  0
 58 65  1  0  0  0  0
 59 66  1  0  0  0  0
 60 66  1  0  0  0  0
 61 66  1  0  0  0  0
 62 77  1  0  0  0  0
 63 84  1  0  0  0  0
 64 66  1  0  0  0  0
 64 76  1  0  0  0  0
 65 77  1  0  0  0  0
 67 68  1  0  0  0  0
M  CHG  1  77   1
M  ISO  4  38 100  63 101  71 100  84 101
M  END
> <Batch ID>
0156

> <Smiles>
CNC(C)C(=O)NC(C(=O)N1Cc2cc([101O:1][101CH2:1]c3cc(NC4CC[100N:0]([100C:0](=O)N5CCCC(n6nc(-c7ccc(Oc8ccc(F)cc8F)cc7)c(C(N)=O)c6N)C5)CC4)c(C)cc3C)ccc2CC1C(=O)NC1CCCc2ccccc21)C(C)(C)C

> <Shape>
0.289

> <Color>
0.093

> <Negative vol penalty>
0.000

$$$$

  -OEChem-04052321563D

 86 95  0     1  0  0  0  0  0999 V2000
  -27.6273  -36.2683   19.9668 C   0  0  0  0  0  0  0  0  0  0  0  0
  -28.2051  -35.2095   19.2735 C   0  0  0  0  0  0  0  0  0  0  0  0
  -23.9495   -9.8420   22.1672 C   0  0  0  0  0  0  0  0  0  0  0  0
  -24.4410  -11.3223   24.0122 C   0  0  0  0  0  0  0  0  0  0  0  0
  -27.0886  -36.0581   21.2354 C   0  0  0  0  0  0  0  0  0  0  0  0
  -28.2454  -33.9400   19.8491 C   0  0  0  0  0  0  0  0  0  0  0  0
  -27.9843  -27.0012   18.0884 C   0  0  0  0  0  0  0  0  0  0  0  0
  -23.4902   -8.8771   23.0636 C   0  0  0  0  0  0  0  0  0  0  0  0
  -23.9816  -10.3575   24.9087 C   0  0  0  0  0  0  0  0  0  0  0  0
  -28.6912  -25.8145   18.2780 C   0  0  0  0  0  0  0  0  0  0  0  0
  -24.8274   -6.5715   25.1421 C   0  0  0  0  0  0  0  0  0  0  0  0
  -25.2429   -5.2547   24.9450 C   0  0  0  0  0  0  0  0  0  0  0  0
  -27.6585  -25.5522   20.4422 C   0  0  0  0  0  0  0  0  0  0  0  0
  -32.1444  -18.0253   21.0878 C   0  0  0  0  0  0  0  0  0  0  0  0
  -30.1922  -18.0810   22.5100 C   0  0  0  0  0  0  0  0  0  0  0  0
  -22.9409   -4.5663   24.6918 C   0  0  0  0  0  0  0  0  0  0  0  0
  -24.4250  -11.0646   22.6414 C   0  0  0  0  0  0  0  0  0  0  0  0
  -24.1459  -13.0787   21.1009 C   0  0  0  0  0  0  0  0  0  0  0  0
  -27.1138  -34.7833   21.8228 C   0  0  0  0  0  0  0  0  0  0  0  0
  -27.1160  -27.4787   19.0805 C   0  0  0  0  0  0  0  0  0  0  0  0
  -27.7078  -33.7129   21.1273 C   0  0  0  0  0  0  0  0  0  0  0  0
  -26.9398  -26.7439   20.2617 C   0  0  0  0  0  0  0  0  0  0  0  0
  -30.7754  -20.0137   21.1828 C   0  0  0  0  0  0  0  0  0  0  0  0
  -31.2993  -17.3996   22.0043 C   0  0  0  0  0  0  0  0  0  0  0  0
  -31.8825  -19.3323   20.6771 C   0  0  0  0  0  0  0  0  0  0  0  0
  -23.5062   -9.1349   24.4344 C   0  0  0  0  0  0  0  0  0  0  0  0
  -28.5306  -25.0914   19.4562 C   0  0  0  0  0  0  0  0  0  0  0  0
  -23.4687   -6.8857   25.1143 C   0  0  0  0  0  0  0  0  0  0  0  0
  -29.9302  -19.3880   22.0992 C   0  0  0  0  0  0  0  0  0  0  0  0
  -24.2997   -4.2520   24.7198 C   0  0  0  0  0  0  0  0  0  0  0  0
  -22.5255   -5.8831   24.8891 C   0  0  0  0  0  0  0  0  0  0  0  0
  -24.9001  -12.0614   21.7159 C   0  0  0  0  0  0  0  0  0  0  0  0
  -25.0520  -13.7532   20.3195 C   0  0  0  0  0  0  0  0  0  0  0  0
  -22.7511  -13.3864   21.2249 C   0  0  0  0  0  0  0  0  0  0  0  0
  -26.9870  -30.0975   20.8775 C   0  0  0  0  0  0  0  0  0  0  0  0
  -24.1452  -28.8442   21.8132 C   0  0  0  0  0  0  0  0  0  0  0  0
  -22.1832  -26.0777   22.1926 C   0  0  0  0  0  0  0  0  0  0  0  0
  -30.9942  -14.4237   20.6214 C   0  0  0  0  0  0  0  0  0  0  0  0
  -26.5612  -34.6150   23.2160 C   0  0  0  0  0  0  0  0  0  0  0  0
  -26.3405  -28.7466   18.8494 C   0  0  0  0  0  0  0  0  0  0  0  0
  -26.0044  -27.2030   21.3492 C   0  0  0  0  0  0  0  0  0  0  0  0
  -26.3086  -33.1591   23.5993 C   0  0  0  0  0  0  0  0  0  0  0  0
  -29.1250  -13.0991   17.8960 C   0  0  0  0  0  0  0  0  0  0  0  0
  -30.4793  -22.4678   21.8822 C   0  0  0  0  0  0  0  0  0  0  0  0
  -27.5057  -32.2923   23.2218 C   0  0  0  0  0  0  0  0  0  0  0  0
  -27.7622  -12.7747   18.5104 C   0  0  0  0  0  0  0  0  0  0  0  0
  -29.0734  -23.0652   21.8958 C   0  0  0  0  0  0  0  0  0  0  0  0
  -29.1167  -21.5643   20.0434 C   0  0  0  0  0  0  0  0  0  0  0  0
  -30.2649  -12.8257   18.8747 C   0  0  0  0  0  0  0  0  0  0  0  0
  -28.7642  -13.1621   20.8005 C   0  0  0  0  0  0  0  0  0  0  0  0
  -30.4862  -21.4306   20.7402 C   0  0  2  0  0  0  0  0  0  0  0  0
  -27.7484  -32.3159   21.7079 C   0  0  1  0  0  0  0  0  0  0  0  0
  -25.8733  -29.4056   20.1435 C   0  0  1  0  0  0  0  0  0  0  0  0
  -27.5795  -13.4747   19.8705 C   0  0  2  0  0  0  0  0  0  0  0  0
  -28.6056  -22.9384   20.4542 C   0  0  2  0  0  0  0  0  0  1  0  0
  -32.8035  -19.9804   19.6958 C   0  0  0  0  0  0  0  0  0  0  0  0
  -19.9238  -25.3632   23.0186 C   0  0  0  0  0  0  0  0  0  0  0  0
  -25.1125  -29.1240   24.6935 C   0  0  0  0  0  0  0  0  0  0  0  0
  -23.2820  -27.5628   25.3864 C   0  0  0  0  0  0  0  0  0  0  0  0
  -22.7190  -29.7519   24.3312 C   0  0  0  0  0  0  0  0  0  0  0  0
  -21.4036  -25.0550   19.5270 C   0  0  0  0  0  0  0  0  0  0  0  0
  -28.0351  -19.3214   23.5344 C   0  0  0  0  0  0  0  0  0  0  0  0
  -31.5804  -16.0026   22.4442 C   0  0  0  0  0  0  0  0  0  0  0  0
  -23.6994  -27.9060   22.9087 C   0  0  1  0  0  0  0  0  0  0  0  0
  -20.7381  -25.8080   21.8137 C   0  0  2  0  0  0  0  0  0  0  0  0
  -23.7224  -28.5782   24.3105 C   0  0  0  0  0  0  0  0  0  0  0  0
  -26.1862  -12.0838   21.3560 N   0  0  0  0  0  0  0  0  0  0  0  0
  -26.2472  -13.1233   20.5064 N   0  0  0  0  0  0  0  0  0  0  0  0
  -25.2733  -28.4520   21.0788 N   0  0  0  0  0  0  0  0  0  0  0  0
  -30.0314  -13.5195   20.1436 N   0  0  0  0  0  0  0  0  0  0  0  0
  -24.9349  -14.8176   19.4975 N   0  0  0  0  0  0  0  0  0  0  0  0
  -21.9643  -12.5925   22.0705 N   0  0  0  0  0  0  0  0  0  0  0  0
  -26.8000  -31.4580   21.0305 N   0  0  0  0  0  0  0  0  0  0  0  0
  -22.3894  -27.4040   22.5082 N   0  0  0  0  0  0  0  0  0  0  0  0
  -30.6916  -15.0428   21.8280 N   0  0  0  0  0  0  0  0  0  0  0  0
  -20.6652  -24.7399   20.7769 N   0  3  0  0  0  0  0  0  0  0  0  0
  -22.2148  -14.3271   20.5916 O   0  0  0  0  0  0  0  0  0  0  0  0
  -27.9444  -29.4450   21.2768 O   0  0  0  0  0  0  0  0  0  0  0  0
  -23.5115  -29.8831   21.6117 O   0  0  0  0  0  0  0  0  0  0  0  0
  -23.0422  -25.1989   22.2106 O   0  0  0  0  0  0  0  0  0  0  0  0
  -32.0432  -14.6657   20.0148 O   0  0  0  0  0  0  0  0  0  0  0  0
  -23.0578   -8.1937   25.3094 O   0  0  0  0  0  0  0  0  0  0  0  0
  -29.2198  -23.9331   19.6442 O   0  0  0  0  0  0  0  0  0  1  0  0
  -28.8436  -20.0375   22.6031 O   0  0  0  0  0  0  0  0  0  0  0  0
  -24.6989   -2.9878   24.5289 F   0  0  0  0  0  0  0  0  0  0  0  0
  -21.2188   -6.1791   24.8600 F   0  0  0  0  0  0  0  0  0  0  0  0
  1  2  1  0  0  0  0
  1  5  2  0  0  0  0
  2  6  2  0  0  0  0
  3  8  2  0  0  0  0
  3 17  1  0  0  0  0
  4  9  1  0  0  0  0
  4 17  2  0  0  0  0
  5 19  1  0  0  0  0
  6 21  1  0  0  0  0
  7 10  2  0  0  0  0
  7 20  1  0  0  0  0
  8 26  1  0  0  0  0
  9 26  2  0  0  0  0
 10 27  1  0  0  0  0
 11 12  2  0  0  0  0
 11 28  1  0  0  0  0
 12 30  1  0  0  0  0
 13 22  1  0  0  0  0
 13 27  2  0  0  0  0
 14 24  1  0  0  0  0
 14 25  2  0  0  0  0
 15 24  2  0  0  0  0
 15 29  1  0  0  0  0
 16 30  2  0  0  0  0
 16 31  1  0  0  0  0
 17 32  1  0  0  0  0
 18 32  1  0  0  0  0
 18 33  2  0  0  0  0
 18 34  1  0  0  0  0
 19 21  2  0  0  0  0
 19 39  1  0  0  0  0
 20 22  2  0  0  0  0
 20 40  1  0  0  0  0
 21 52  1  0  0  0  0
 22 41  1  0  0  0  0
 23 25  1  0  0  0  0
 23 29  2  0  0  0  0
 23 51  1  0  0  0  0
 24 63  1  0  0  0  0
 25 56  1  0  0  0  0
 26 82  1  0  0  0  0
 27 83  1  0  0  0  0
 28 31  2  0  0  0  0
 28 82  1  0  0  0  0
 29 84  1  0  0  0  0
 30 85  1  0  0  0  0
 31 86  1  0  0  0  0
 32 67  2  0  0  0  0
 33 68  1  0  0  0  0
 33 71  1  0  0  0  0
 34 72  1  0  0  0  0
 34 77  2  0  0  0  0
 35 53  1  0  0  0  0
 35 73  1  0  0  0  0
 35 78  2  0  0  0  0
 36 64  1  0  0  0  0
 36 69  1  0  0  0  0
 36 79  2  0  0  0  0
 37 65  1  0  0  0  0
 37 74  1  0  0  0  0
 37 80  2  0  0  0  0
 38 70  1  0  0  0  0
 38 75  1  0  0  0  0
 38 81  2  0  0  0  0
 39 42  1  0  0  0  0
 40 53  1  0  0  0  0
 41 69  1  0  0  0  0
 42 45  1  0  0  0  0
 43 46  1  0  0  0  0
 43 49  1  0  0  0  0
 44 47  1  0  0  0  0
 44 51  1  0  0  0  0
 45 52  1  0  0  0  0
 46 54  1  0  0  0  0
 47 55  1  0  0  0  0
 48 51  1  0  0  0  0
 48 55  1  0  0  0  0
 49 70  1  0  0  0  0
 50 54  1  0  0  0  0
 50 70  1  0  0  0  0
 52 73  1  0  0  0  0
 53 69  1  0  0  0  0
 54 68  1  0  0  0  0
 55 83  1  0  0  0  0
 57 65  1  0  0  0  0
 58 66  1  0  0  0  0
 59 66  1  0  0  0  0
 60 66  1  0  0  0  0
 61 76  1  0  0  0  0
 62 84  1  0  0  0  0
 63 75  1  0  0  0  0
 64 66  1  0  0  0  0
 64 74  1  0  0  0  0
 65 76  1  0  0  0  0
 67 68  1  0  0  0  0
M  CHG  1  76   1
M  ISO  4  38 100  55 101  75 100  83 101
M  END
> <Batch ID>
0156

> <Smiles>
CNC(C)C(=O)NC(C(=O)N1Cc2cc([101O:1][101CH:1]3CCC(c4c(C)cc(C[100NH:0][100C:0](=O)N5CCCC(n6nc(-c7ccc(Oc8ccc(F)cc8F)cc7)c(C(N)=O)c6N)C5)cc4OC)C3)ccc2CC1C(=O)NC1CCCc2ccccc21)C(C)(C)C

> <Shape>
0.286

> <Color>
0.135

> <Negative vol penalty>
0.000

$$$$

  -OEChem-04052321563D

 87 96  0     1  0  0  0  0  0999 V2000
  -22.8916  -35.8563   20.7728 C   0  0  0  0  0  0  0  0  0  0  0  0
  -23.5682  -34.6763   20.4810 C   0  0  0  0  0  0  0  0  0  0  0  0
  -23.8473   -9.5974   20.9877 C   0  0  0  0  0  0  0  0  0  0  0  0
  -25.5154   -9.8293   22.7199 C   0  0  0  0  0  0  0  0  0  0  0  0
  -23.1919  -36.5609   21.9378 C   0  0  0  0  0  0  0  0  0  0  0  0
  -24.5465  -34.2008   21.3536 C   0  0  0  0  0  0  0  0  0  0  0  0
  -24.1449  -29.2235   22.1964 C   0  0  0  0  0  0  0  0  0  0  0  0
  -23.5338   -8.3230   21.4601 C   0  0  0  0  0  0  0  0  0  0  0  0
  -25.2019   -8.5549   23.1925 C   0  0  0  0  0  0  0  0  0  0  0  0
  -24.6245  -28.3691   21.2046 C   0  0  0  0  0  0  0  0  0  0  0  0
  -21.7415   -6.9760   23.9912 C   0  0  0  0  0  0  0  0  0  0  0  0
  -20.3924   -6.6457   24.1187 C   0  0  0  0  0  0  0  0  0  0  0  0
  -27.7819  -20.9318   21.5526 C   0  0  0  0  0  0  0  0  0  0  0  0
  -28.3997  -20.6455   19.2346 C   0  0  0  0  0  0  0  0  0  0  0  0
  -26.6513  -28.0453   22.4721 C   0  0  0  0  0  0  0  0  0  0  0  0
  -20.6916   -4.8226   22.5617 C   0  0  0  0  0  0  0  0  0  0  0  0
  -24.8382  -10.3505   21.6175 C   0  0  0  0  0  0  0  0  0  0  0  0
  -24.2991  -12.7740   21.0310 C   0  0  0  0  0  0  0  0  0  0  0  0
  -24.1676  -36.0888   22.8299 C   0  0  0  0  0  0  0  0  0  0  0  0
  -24.9208  -29.5043   23.3302 C   0  0  0  0  0  0  0  0  0  0  0  0
  -24.8611  -34.9005   22.5309 C   0  0  0  0  0  0  0  0  0  0  0  0
  -27.9323  -21.4563   20.2690 C   0  0  0  0  0  0  0  0  0  0  0  0
  -26.1782  -28.9016   23.4781 C   0  0  0  0  0  0  0  0  0  0  0  0
  -28.0990  -19.5966   21.8021 C   0  0  0  0  0  0  0  0  0  0  0  0
  -28.7168  -19.3102   19.4840 C   0  0  0  0  0  0  0  0  0  0  0  0
  -28.5664  -18.7858   20.7678 C   0  0  0  0  0  0  0  0  0  0  0  0
  -24.2110   -7.8018   22.5626 C   0  0  0  0  0  0  0  0  0  0  0  0
  -25.8791  -27.7821   21.3410 C   0  0  0  0  0  0  0  0  0  0  0  0
  -22.5657   -6.2297   23.1489 C   0  0  0  0  0  0  0  0  0  0  0  0
  -19.8674   -5.5690   23.4040 C   0  0  0  0  0  0  0  0  0  0  0  0
  -22.0408   -5.1530   22.4342 C   0  0  0  0  0  0  0  0  0  0  0  0
  -25.1630  -11.6668   21.1296 C   0  0  0  0  0  0  0  0  0  0  0  0
  -25.0827  -13.7758   20.5126 C   0  0  0  0  0  0  0  0  0  0  0  0
  -22.9123  -12.8868   21.3772 C   0  0  0  0  0  0  0  0  0  0  0  0
  -26.2095  -32.1313   24.5720 C   0  0  0  0  0  0  0  0  0  0  0  0
  -26.9749  -30.1334   27.0102 C   0  0  0  0  0  0  0  0  0  0  0  0
  -28.2077  -26.7611   27.3633 C   0  0  0  0  0  0  0  0  0  0  0  0
  -29.8475  -16.6533   20.3707 C   0  0  0  0  0  0  0  0  0  0  0  0
  -24.4910  -36.9099   24.0530 C   0  0  0  0  0  0  0  0  0  0  0  0
  -24.3779  -30.4072   24.4038 C   0  0  0  0  0  0  0  0  0  0  0  0
  -27.0417  -29.1546   24.6859 C   0  0  0  0  0  0  0  0  0  0  0  0
  -25.2772  -36.1414   25.1120 C   0  0  0  0  0  0  0  0  0  0  0  0
  -29.7283  -13.6210   18.5084 C   0  0  0  0  0  0  0  0  0  0  0  0
  -28.4816  -23.8699   20.8017 C   0  0  0  0  0  0  0  0  0  0  0  0
  -26.0972  -23.2003   20.2490 C   0  0  0  0  0  0  0  0  0  0  0  0
  -26.4295  -35.3752   24.4701 C   0  0  0  0  0  0  0  0  0  0  0  0
  -28.4588  -12.9333   19.0162 C   0  0  0  0  0  0  0  0  0  0  0  0
  -28.1318  -25.3279   20.5153 C   0  0  0  0  0  0  0  0  0  0  0  0
  -25.7601  -24.6617   19.9648 C   0  0  0  0  0  0  0  0  0  0  0  0
  -30.4581  -14.3621   19.6272 C   0  0  0  0  0  0  0  0  0  0  0  0
  -28.3619  -14.6202   20.8956 C   0  0  0  0  0  0  0  0  0  0  0  0
  -27.5875  -22.9093   19.9976 C   0  0  0  0  0  0  0  0  0  0  0  0
  -25.9113  -34.3396   23.4650 C   0  0  1  0  0  0  0  0  0  0  0  0
  -25.4689  -31.0269   25.2715 C   0  0  1  0  0  0  0  0  0  0  0  0
  -27.5579  -13.9147   19.7913 C   0  0  2  0  0  0  0  0  0  0  0  0
  -26.6511  -25.6119   20.7614 C   0  0  0  0  0  0  0  0  0  1  0  0
  -27.9279  -19.0636   23.1879 C   0  0  0  0  0  0  0  0  0  0  0  0
  -30.5440  -18.9856   17.7783 C   0  0  0  0  0  0  0  0  0  0  0  0
  -28.1751  -18.3202   17.2300 C   0  0  0  0  0  0  0  0  0  0  0  0
  -27.9256  -25.1079   29.2301 C   0  0  0  0  0  0  0  0  0  0  0  0
  -29.6392  -31.2396   28.0044 C   0  0  0  0  0  0  0  0  0  0  0  0
  -30.2755  -28.9129   28.6750 C   0  0  0  0  0  0  0  0  0  0  0  0
  -28.3060  -30.0194   29.7330 C   0  0  0  0  0  0  0  0  0  0  0  0
  -27.1011  -24.7120   25.5370 C   0  0  0  0  0  0  0  0  0  0  0  0
  -29.2149  -18.4663   18.3554 C   0  0  0  0  0  0  0  0  0  0  0  0
  -28.1490  -29.2410   27.3327 C   0  0  1  0  0  0  0  0  0  0  0  0
  -27.4305  -25.5571   27.8642 C   0  0  2  0  0  0  0  0  0  0  0  0
  -29.0851  -29.8590   28.4094 C   0  0  0  0  0  0  0  0  0  0  0  0
  -26.4006  -11.9392   20.7075 N   0  0  0  0  0  0  0  0  0  0  0  0
  -26.3200  -13.2290   20.3386 N   0  0  0  0  0  0  0  0  0  0  0  0
  -26.4695  -30.0496   25.7051 N   0  0  0  0  0  0  0  0  0  0  0  0
  -29.5434  -15.2766   20.3141 N   0  0  0  0  0  0  0  0  0  0  0  0
  -24.8272  -15.0623   20.1931 N   0  0  0  0  0  0  0  0  0  0  0  0
  -22.5789  -13.2849   22.6790 N   0  0  0  0  0  0  0  0  0  0  0  0
  -28.8885  -17.4293   21.0209 N   0  0  0  0  0  0  0  0  0  0  0  0
  -25.4036  -33.1741   24.1566 N   0  0  0  0  0  0  0  0  0  0  0  0
  -27.5881  -27.9456   27.7011 N   0  0  0  0  0  0  0  0  0  0  0  0
  -27.5725  -24.4173   26.9146 N   0  3  0  0  0  0  0  0  0  0  0  0
  -21.9959  -12.6259   20.5613 O   0  0  0  0  0  0  0  0  0  0  0  0
  -27.4226  -32.0445   24.4216 O   0  0  0  0  0  0  0  0  0  0  0  0
  -26.5184  -30.8723   27.8862 O   0  0  0  0  0  0  0  0  0  0  0  0
  -29.2613  -26.6608   26.7384 O   0  0  0  0  0  0  0  0  0  0  0  0
  -30.8691  -17.1139   19.8549 O   0  0  0  0  0  0  0  0  0  0  0  0
  -23.9051   -6.5584   23.0240 O   0  0  0  0  0  0  0  0  0  0  0  0
  -26.3499  -26.9482   20.3741 O   0  0  0  0  0  0  0  0  0  1  0  0
  -18.5721   -5.2510   23.5277 F   0  0  0  0  0  0  0  0  0  0  0  0
  -22.8279   -4.4316   21.6244 F   0  0  0  0  0  0  0  0  0  0  0  0
  1  2  1  0  0  0  0
  1  5  2  0  0  0  0
  2  6  2  0  0  0  0
  3  8  2  0  0  0  0
  3 17  1  0  0  0  0
  4  9  1  0  0  0  0
  4 17  2  0  0  0  0
  5 19  1  0  0  0  0
  6 21  1  0  0  0  0
  7 10  2  0  0  0  0
  7 20  1  0  0  0  0
  8 27  1  0  0  0  0
  9 27  2  0  0  0  0
 10 28  1  0  0  0  0
 11 12  2  0  0  0  0
 11 29  1  0  0  0  0
 12 30  1  0  0  0  0
 13 22  1  0  0  0  0
 13 24  2  0  0  0  0
 14 22  2  0  0  0  0
 14 25  1  0  0  0  0
 15 23  1  0  0  0  0
 15 28  2  0  0  0  0
 16 30  2  0  0  0  0
 16 31  1  0  0  0  0
 17 32  1  0  0  0  0
 18 32  1  0  0  0  0
 18 33  2  0  0  0  0
 18 34  1  0  0  0  0
 19 21  2  0  0  0  0
 19 39  1  0  0  0  0
 20 23  2  0  0  0  0
 20 40  1  0  0  0  0
 21 53  1  0  0  0  0
 22 52  1  0  0  0  0
 23 41  1  0  0  0  0
 24 26  1  0  0  0  0
 24 57  1  0  0  0  0
 25 26  2  0  0  0  0
 25 65  1  0  0  0  0
 26 75  1  0  0  0  0
 27 84  1  0  0  0  0
 28 85  1  0  0  0  0
 29 31  2  0  0  0  0
 29 84  1  0  0  0  0
 30 86  1  0  0  0  0
 31 87  1  0  0  0  0
 32 69  2  0  0  0  0
 33 70  1  0  0  0  0
 33 73  1  0  0  0  0
 34 74  1  0  0  0  0
 34 79  2  0  0  0  0
 35 54  1  0  0  0  0
 35 76  1  0  0  0  0
 35 80  2  0  0  0  0
 36 66  1  0  0  0  0
 36 71  1  0  0  0  0
 36 81  2  0  0  0  0
 37 67  1  0  0  0  0
 37 77  1  0  0  0  0
 37 82  2  0  0  0  0
 38 72  1  0  0  0  0
 38 75  1  0  0  0  0
 38 83  2  0  0  0  0
 39 42  1  0  0  0  0
 40 54  1  0  0  0  0
 41 71  1  0  0  0  0
 42 46  1  0  0  0  0
 43 47  1  0  0  0  0
 43 50  1  0  0  0  0
 44 48  1  0  0  0  0
 44 52  1  0  0  0  0
 45 49  1  0  0  0  0
 45 52  1  0  0  0  0
 46 53  1  0  0  0  0
 47 55  1  0  0  0  0
 48 56  1  0  0  0  0
 49 56  1  0  0  0  0
 50 72  1  0  0  0  0
 51 55  1  0  0  0  0
 51 72  1  0  0  0  0
 53 76  1  0  0  0  0
 54 71  1  0  0  0  0
 55 70  1  0  0  0  0
 56 85  1  0  0  0  0
 58 65  1  0  0  0  0
 59 65  1  0  0  0  0
 60 67  1  0  0  0  0
 61 68  1  0  0  0  0
 62 68  1  0  0  0  0
 63 68  1  0  0  0  0
 64 78  1  0  0  0  0
 66 68  1  0  0  0  0
 66 77  1  0  0  0  0
 67 78  1  0  0  0  0
 69 70  1  0  0  0  0
M  CHG  1  78   1
M  ISO  4  38 100  56 101  75 100  85 101
M  END
> <Batch ID>
0156

> <Smiles>
CNC(C)C(=O)NC(C(=O)N1Cc2cc([101O:1][101CH:1]3CCC(c4cc(C)c([100NH:0][100C:0](=O)N5CCCC(n6nc(-c7ccc(Oc8ccc(F)cc8F)cc7)c(C(N)=O)c6N)C5)c(C(C)C)c4)CC3)ccc2CC1C(=O)NC1CCCc2ccccc21)C(C)(C)C

> <Shape>
0.317

> <Color>
0.104

> <Negative vol penalty>
0.000

$$$$

  -OEChem-04052321563D

 90 98  0     1  0  0  0  0  0999 V2000
  -44.4473  -23.7552   22.6447 C   0  0  0  0  0  0  0  0  0  0  0  0
  -43.8312  -22.5538   22.9803 C   0  0  0  0  0  0  0  0  0  0  0  0
  -23.0699   -9.8639   19.9570 C   0  0  0  0  0  0  0  0  0  0  0  0
  -23.8376   -9.8875   22.2476 C   0  0  0  0  0  0  0  0  0  0  0  0
  -43.6723  -24.8698   22.3269 C   0  0  0  0  0  0  0  0  0  0  0  0
  -42.4396  -22.4667   22.9994 C   0  0  0  0  0  0  0  0  0  0  0  0
  -39.0337  -17.6115   21.4722 C   0  0  0  0  0  0  0  0  0  0  0  0
  -22.3243   -8.7145   20.2187 C   0  0  0  0  0  0  0  0  0  0  0  0
  -23.0919   -8.7381   22.5094 C   0  0  0  0  0  0  0  0  0  0  0  0
  -38.4178  -16.6204   22.2352 C   0  0  0  0  0  0  0  0  0  0  0  0
  -19.8640   -7.9526   23.1292 C   0  0  0  0  0  0  0  0  0  0  0  0
  -19.1110   -7.9238   24.3029 C   0  0  0  0  0  0  0  0  0  0  0  0
  -36.3510  -17.8625   22.1694 C   0  0  0  0  0  0  0  0  0  0  0  0
  -20.3505   -5.9895   25.0507 C   0  0  0  0  0  0  0  0  0  0  0  0
  -23.8266  -10.4504   20.9714 C   0  0  0  0  0  0  0  0  0  0  0  0
  -24.1738  -12.9737   20.8300 C   0  0  0  0  0  0  0  0  0  0  0  0
  -42.2706  -24.7936   22.3327 C   0  0  0  0  0  0  0  0  0  0  0  0
  -38.3145  -18.7427   21.0606 C   0  0  0  0  0  0  0  0  0  0  0  0
  -41.6451  -23.5817   22.6827 C   0  0  0  0  0  0  0  0  0  0  0  0
  -36.9593  -18.8653   21.3990 C   0  0  0  0  0  0  0  0  0  0  0  0
  -22.3353   -8.1516   21.4949 C   0  0  0  0  0  0  0  0  0  0  0  0
  -37.0770  -16.7472   22.5863 C   0  0  0  0  0  0  0  0  0  0  0  0
  -20.8603   -6.9998   22.9161 C   0  0  0  0  0  0  0  0  0  0  0  0
  -19.3542   -6.9423   25.2637 C   0  0  0  0  0  0  0  0  0  0  0  0
  -21.1035   -6.0183   23.8769 C   0  0  0  0  0  0  0  0  0  0  0  0
  -24.5975  -11.6374   20.7016 C   0  0  0  0  0  0  0  0  0  0  0  0
  -25.2664  -13.7178   20.4570 C   0  0  0  0  0  0  0  0  0  0  0  0
  -22.9059  -13.4958   21.2490 C   0  0  0  0  0  0  0  0  0  0  0  0
  -38.5633  -21.8693   21.5768 C   0  0  0  0  0  0  0  0  0  0  0  0
  -36.1679  -22.0254   19.3951 C   0  0  0  0  0  0  0  0  0  0  0  0
  -33.5545  -20.4710   17.8456 C   0  0  0  0  0  0  0  0  0  0  0  0
  -30.7530  -14.7257   20.6187 C   0  0  0  0  0  0  0  0  0  0  0  0
  -41.4747  -26.0380   22.0281 C   0  0  0  0  0  0  0  0  0  0  0  0
  -38.9863  -19.7900   20.2153 C   0  0  0  0  0  0  0  0  0  0  0  0
  -36.1376  -20.0505   20.9649 C   0  0  0  0  0  0  0  0  0  0  0  0
  -40.0084  -25.7599   21.7073 C   0  0  0  0  0  0  0  0  0  0  0  0
  -29.6020  -12.3247   18.2550 C   0  0  0  0  0  0  0  0  0  0  0  0
  -39.4136  -24.7917   22.7251 C   0  0  0  0  0  0  0  0  0  0  0  0
  -28.1653  -12.0378   18.6951 C   0  0  0  0  0  0  0  0  0  0  0  0
  -30.5236  -12.5531   19.4510 C   0  0  0  0  0  0  0  0  0  0  0  0
  -28.6283  -13.2996   20.8381 C   0  0  0  0  0  0  0  0  0  0  0  0
  -40.1384  -23.4408   22.6905 C   0  0  1  0  0  0  0  0  0  0  0  0
  -38.2954  -21.1484   20.2860 C   0  0  1  0  0  0  0  0  0  0  0  0
  -31.1381  -17.8485   24.0781 C   0  0  2  0  0  0  0  0  0  0  0  0
  -27.6497  -13.1178   19.6652 C   0  0  2  0  0  0  0  0  0  0  0  0
  -30.8279  -16.8860   21.8380 C   0  0  2  0  0  0  0  0  0  0  0  0
  -31.6282  -16.7262   23.1438 C   0  0  1  0  0  0  0  0  0  0  0  0
  -30.5466  -18.8877   23.1231 C   0  0  1  0  0  0  0  0  0  0  0  0
  -29.8307  -18.0158   22.0981 C   0  0  1  0  0  0  0  0  0  0  0  0
  -31.7617  -20.8658   16.1346 C   0  0  0  0  0  0  0  0  0  0  0  0
  -37.2853  -13.7373   26.4385 C   0  0  0  0  0  0  0  0  0  0  0  0
  -34.5912  -23.6649   21.4289 C   0  0  0  0  0  0  0  0  0  0  0  0
  -32.5267  -23.2172   20.0852 C   0  0  0  0  0  0  0  0  0  0  0  0
  -34.4217  -24.4841   19.0720 C   0  0  0  0  0  0  0  0  0  0  0  0
  -34.5902  -18.3213   16.0950 C   0  0  0  0  0  0  0  0  0  0  0  0
  -29.4238  -20.9521   23.1046 C   0  0  0  0  0  0  0  0  0  0  0  0
  -28.6390  -18.0587   20.0731 C   0  0  0  0  0  0  0  0  0  0  0  0
  -32.1834  -18.4296   25.0050 C   0  0  0  0  0  0  0  0  0  0  0  0
  -34.2067  -16.6331   27.7198 C   0  0  0  0  0  0  0  0  0  0  0  0
  -33.7642  -17.7897   26.8298 C   0  0  0  0  0  0  0  0  0  0  0  0
  -34.7040  -15.3875   26.9938 C   0  0  0  0  0  0  0  0  0  0  0  0
  -37.3012  -15.0347   24.2702 C   0  0  0  0  0  0  0  0  0  1  0  0
  -34.6599  -21.9970   19.4593 C   0  0  1  0  0  0  0  0  0  0  0  0
  -33.1745  -20.3592   16.3802 C   0  0  2  0  0  0  0  0  0  0  0  0
  -36.4608  -14.5314   25.4384 C   0  0  2  0  0  0  0  0  0  0  0  0
  -34.0656  -23.3193   20.0213 C   0  0  0  0  0  0  0  0  0  0  0  0
  -25.8607  -11.5353   20.2798 N   0  0  0  0  0  0  0  0  0  0  0  0
  -26.2401  -12.8170   20.1399 N   0  0  0  0  0  0  0  0  0  0  0  0
  -36.8412  -21.0508   20.1453 N   0  0  0  0  0  0  0  0  0  0  0  0
  -29.9784  -13.5899   20.3305 N   0  0  0  0  0  0  0  0  0  0  0  0
  -25.4796  -15.0481   20.3726 N   0  0  0  0  0  0  0  0  0  0  0  0
  -21.8931  -12.5917   21.5970 N   0  0  0  0  0  0  0  0  0  0  0  0
  -39.6968  -22.6593   21.5553 N   0  0  0  0  0  0  0  0  0  0  0  0
  -34.2005  -21.6587   18.1166 N   0  0  0  0  0  0  0  0  0  0  0  0
  -30.1588  -15.6626   21.4553 N   0  0  0  0  0  0  0  0  0  0  0  0
  -33.2492  -18.9397   15.9325 N   0  3  0  0  0  0  0  0  0  0  0  0
  -32.6845  -17.3595   25.9114 N   0  3  0  0  0  0  0  0  0  0  0  0
  -35.8798  -15.7092   26.1457 N   0  3  0  0  0  0  0  0  0  0  0  0
  -22.6726  -14.7274   21.2973 O   0  0  0  0  0  0  0  0  0  0  0  0
  -37.7974  -21.7210   22.5219 O   0  0  0  0  0  0  0  0  0  0  0  0
  -36.7276  -22.8763   18.6993 O   0  0  0  0  0  0  0  0  0  0  0  0
  -33.3002  -19.5942   18.6685 O   0  0  0  0  0  0  0  0  0  0  0  0
  -31.8878  -14.8949   20.1599 O   0  0  0  0  0  0  0  0  0  0  0  0
  -33.0160  -16.8582   22.8578 O   0  0  0  0  0  0  0  0  0  0  0  0
  -21.6076   -7.0302   21.7507 O   0  0  0  0  0  0  0  0  0  0  0  0
  -36.4736  -15.7816   23.3316 O   0  0  0  0  0  0  0  0  0  1  0  0
  -29.6362  -19.7327   23.8058 O   0  0  0  0  0  0  0  0  0  0  0  0
  -29.5744  -18.7357   20.9038 O   0  0  0  0  0  0  0  0  0  0  0  0
  -18.6320   -6.9157   26.3915 F   0  0  0  0  0  0  0  0  0  0  0  0
  -22.0601   -5.1010   23.6784 F   0  0  0  0  0  0  0  0  0  0  0  0
  1  2  1  0  0  0  0
  1  5  2  0  0  0  0
  2  6  2  0  0  0  0
  3  8  2  0  0  0  0
  3 15  1  0  0  0  0
  4  9  1  0  0  0  0
  4 15  2  0  0  0  0
  5 17  1  0  0  0  0
  6 19  1  0  0  0  0
  7 10  2  0  0  0  0
  7 18  1  0  0  0  0
  8 21  1  0  0  0  0
  9 21  2  0  0  0  0
 10 22  1  0  0  0  0
 11 12  2  0  0  0  0
 11 23  1  0  0  0  0
 12 24  1  0  0  0  0
 13 20  1  0  0  0  0
 13 22  2  0  0  0  0
 14 24  2  0  0  0  0
 14 25  1  0  0  0  0
 15 26  1  0  0  0  0
 16 26  1  0  0  0  0
 16 27  2  0  0  0  0
 16 28  1  0  0  0  0
 17 19  2  0  0  0  0
 17 33  1  0  0  0  0
 18 20  2  0  0  0  0
 18 34  1  0  0  0  0
 19 42  1  0  0  0  0
 20 35  1  0  0  0  0
 21 85  1  0  0  0  0
 22 86  1  0  0  0  0
 23 25  2  0  0  0  0
 23 85  1  0  0  0  0
 24 89  1  0  0  0  0
 25 90  1  0  0  0  0
 26 67  2  0  0  0  0
 27 68  1  0  0  0  0
 27 71  1  0  0  0  0
 28 72  1  0  0  0  0
 28 79  2  0  0  0  0
 29 43  1  0  0  0  0
 29 73  1  0  0  0  0
 29 80  2  0  0  0  0
 30 63  1  0  0  0  0
 30 69  1  0  0  0  0
 30 81  2  0  0  0  0
 31 64  1  0  0  0  0
 31 74  1  0  0  0  0
 31 82  2  0  0  0  0
 32 70  1  0  0  0  0
 32 75  1  0  0  0  0
 32 83  2  0  0  0  0
 33 36  1  0  0  0  0
 34 43  1  0  0  0  0
 35 69  1  0  0  0  0
 36 38  1  0  0  0  0
 37 39  1  0  0  0  0
 37 40  1  0  0  0  0
 38 42  1  0  0  0  0
 39 45  1  0  0  0  0
 40 70  1  0  0  0  0
 41 45  1  0  0  0  0
 41 70  1  0  0  0  0
 42 73  1  0  0  0  0
 43 69  1  0  0  0  0
 44 47  1  0  0  0  0
 44 48  1  0  0  0  0
 44 58  1  0  0  0  0
 45 68  1  0  0  0  0
 46 47  1  0  0  0  0
 46 49  1  0  0  0  0
 46 75  1  0  0  0  0
 47 84  1  0  0  0  0
 48 49  1  0  0  0  0
 48 87  1  0  0  0  0
 49 88  1  0  0  0  0
 50 64  1  0  0  0  0
 51 65  1  0  0  0  0
 52 66  1  0  0  0  0
 53 66  1  0  0  0  0
 54 66  1  0  0  0  0
 55 76  1  0  0  0  0
 56 87  1  0  0  0  0
 57 88  1  0  0  0  0
 58 77  1  0  0  0  0
 59 60  1  0  0  0  0
 59 61  1  0  0  0  0
 60 77  1  0  0  0  0
 61 78  1  0  0  0  0
 62 65  1  0  0  0  0
 62 86  1  0  0  0  0
 63 66  1  0  0  0  0
 63 74  1  0  0  0  0
 64 76  1  0  0  0  0
 65 78  1  0  0  0  0
 67 68  1  0  0  0  0
M  CHG  3  76   1  77   1  78   1
M  ISO  4  32 100  62 101  75 100  86 101
M  END
> <Batch ID>
0156

> <Smiles>
CNC(C)C(=O)NC(C(=O)N1Cc2cc([101O:1][101CH2:1]C(C)NCCCNCC3C(O)C([100NH:0][100C:0](=O)N4CCCC(n5nc(-c6ccc(Oc7ccc(F)cc7F)cc6)c(C(N)=O)c5N)C4)C(OC)C3OC)ccc2CC1C(=O)NC1CCCc2ccccc21)C(C)(C)C

> <Shape>
0.182

> <Color>
0.172

> <Negative vol penalty>
0.000

$$$$

  -OEChem-04052321563D

 85 94  0     1  0  0  0  0  0999 V2000
  -32.8091  -19.2764   13.6854 C   0  0  0  0  0  0  0  0  0  0  0  0
  -31.8721  -19.3441   14.7114 C   0  0  0  0  0  0  0  0  0  0  0  0
  -23.0751   -9.8661   19.9415 C   0  0  0  0  0  0  0  0  0  0  0  0
  -23.8391   -9.8739   22.2335 C   0  0  0  0  0  0  0  0  0  0  0  0
  -34.0443  -19.9070   13.8282 C   0  0  0  0  0  0  0  0  0  0  0  0
  -32.1702  -20.0416   15.8815 C   0  0  0  0  0  0  0  0  0  0  0  0
  -28.2756  -23.2602   19.3425 C   0  0  0  0  0  0  0  0  0  0  0  0
  -22.3331   -8.7120   20.1927 C   0  0  0  0  0  0  0  0  0  0  0  0
  -23.0971   -8.7198   22.4848 C   0  0  0  0  0  0  0  0  0  0  0  0
  -27.5921  -22.9535   20.5183 C   0  0  0  0  0  0  0  0  0  0  0  0
  -19.8710   -7.9179   23.0931 C   0  0  0  0  0  0  0  0  0  0  0  0
  -19.1163   -7.8769   24.2654 C   0  0  0  0  0  0  0  0  0  0  0  0
  -29.5280  -20.1739   23.0491 C   0  0  0  0  0  0  0  0  0  0  0  0
  -29.3320  -24.0234   21.8018 C   0  0  0  0  0  0  0  0  0  0  0  0
  -28.5086  -18.5117   24.5032 C   0  0  0  0  0  0  0  0  0  0  0  0
  -20.3614   -5.9410   24.9994 C   0  0  0  0  0  0  0  0  0  0  0  0
  -23.8281  -10.4470   20.9619 C   0  0  0  0  0  0  0  0  0  0  0  0
  -24.1666  -12.9726   20.8415 C   0  0  0  0  0  0  0  0  0  0  0  0
  -34.3540  -20.6208   14.9966 C   0  0  0  0  0  0  0  0  0  0  0  0
  -29.5000  -23.9424   19.3882 C   0  0  0  0  0  0  0  0  0  0  0  0
  -33.4113  -20.6813   16.0406 C   0  0  0  0  0  0  0  0  0  0  0  0
  -30.1568  -19.1431   22.3708 C   0  0  0  0  0  0  0  0  0  0  0  0
  -30.0279  -24.3398   20.6250 C   0  0  0  0  0  0  0  0  0  0  0  0
  -29.9724  -17.8063   22.7494 C   0  0  0  0  0  0  0  0  0  0  0  0
  -28.6922  -19.8492   24.1193 C   0  0  0  0  0  0  0  0  0  0  0  0
  -22.3441   -8.1389   21.4643 C   0  0  0  0  0  0  0  0  0  0  0  0
  -28.1217  -23.3326   21.7483 C   0  0  0  0  0  0  0  0  0  0  0  0
  -20.8710   -6.9703   22.8739 C   0  0  0  0  0  0  0  0  0  0  0  0
  -29.1569  -17.4792   23.8216 C   0  0  0  0  0  0  0  0  0  0  0  0
  -19.3615   -6.8885   25.2185 C   0  0  0  0  0  0  0  0  0  0  0  0
  -21.1162   -5.9819   23.8271 C   0  0  0  0  0  0  0  0  0  0  0  0
  -24.5952  -11.6389   20.7029 C   0  0  0  0  0  0  0  0  0  0  0  0
  -25.2571  -13.7235   20.4763 C   0  0  0  0  0  0  0  0  0  0  0  0
  -22.8962  -13.4868   21.2627 C   0  0  0  0  0  0  0  0  0  0  0  0
  -32.4795  -23.2645   18.5128 C   0  0  0  0  0  0  0  0  0  0  0  0
  -33.0107  -26.3570   19.3356 C   0  0  0  0  0  0  0  0  0  0  0  0
  -32.0472  -29.0764   21.1585 C   0  0  0  0  0  0  0  0  0  0  0  0
  -30.7399  -14.7494   20.6547 C   0  0  0  0  0  0  0  0  0  0  0  0
  -35.7204  -21.2463   15.1245 C   0  0  0  0  0  0  0  0  0  0  0  0
  -30.2117  -24.2893   18.1094 C   0  0  0  0  0  0  0  0  0  0  0  0
  -31.1207  -19.2493   21.2304 C   0  0  0  0  0  0  0  0  0  0  0  0
  -31.3288  -25.0918   20.7271 C   0  0  0  0  0  0  0  0  0  0  0  0
  -35.8146  -22.2805   16.2433 C   0  0  0  0  0  0  0  0  0  0  0  0
  -31.0960  -17.8125   20.6864 C   0  0  0  0  0  0  0  0  0  0  0  0
  -29.6010  -12.3636   18.2698 C   0  0  0  0  0  0  0  0  0  0  0  0
  -35.1788  -21.7434   17.5216 C   0  0  0  0  0  0  0  0  0  0  0  0
  -28.1647  -12.0681   18.7054 C   0  0  0  0  0  0  0  0  0  0  0  0
  -30.5200  -12.5855   19.4691 C   0  0  0  0  0  0  0  0  0  0  0  0
  -28.6199  -13.3141   20.8592 C   0  0  0  0  0  0  0  0  0  0  0  0
  -33.6881  -21.4493   17.3149 C   0  0  1  0  0  0  0  0  0  0  0  0
  -30.8053  -16.8999   21.8917 C   0  0  2  0  0  0  0  0  0  0  0  0
  -31.7047  -24.5349   18.3041 C   0  0  1  0  0  0  0  0  0  0  0  0
  -27.6438  -13.1384   19.6833 C   0  0  2  0  0  0  0  0  0  0  0  0
  -32.7002  -31.4485   21.6528 C   0  0  0  0  0  0  0  0  0  0  0  0
  -35.2563  -25.3593   21.1444 C   0  0  0  0  0  0  0  0  0  0  0  0
  -35.2248  -27.5835   22.2933 C   0  0  0  0  0  0  0  0  0  0  0  0
  -35.7922  -27.4422   19.8682 C   0  0  0  0  0  0  0  0  0  0  0  0
  -29.4971  -30.1249   20.0830 C   0  0  0  0  0  0  0  0  0  0  0  0
  -28.1283  -15.9655   25.3403 C   0  0  0  0  0  0  0  0  0  0  0  0
  -27.9868  -20.9459   24.8763 C   0  0  0  0  0  0  0  0  0  0  0  0
  -26.6069  -21.2936   24.3136 C   0  0  0  0  0  0  0  0  0  0  0  0
  -26.6561  -21.8527   22.8964 C   0  0  0  0  0  0  0  0  0  1  0  0
  -33.4021  -27.0733   20.6055 C   0  0  1  0  0  0  0  0  0  0  0  0
  -31.8625  -30.5332   20.7735 C   0  0  2  0  0  0  0  0  0  0  0  0
  -34.8953  -26.8487   20.9764 C   0  0  0  0  0  0  0  0  0  0  0  0
  -25.8595  -11.5447   20.2823 N   0  0  0  0  0  0  0  0  0  0  0  0
  -26.2345  -12.8287   20.1534 N   0  0  0  0  0  0  0  0  0  0  0  0
  -31.9903  -25.4021   19.4489 N   0  0  0  0  0  0  0  0  0  0  0  0
  -29.9698  -13.6133   20.3561 N   0  0  0  0  0  0  0  0  0  0  0  0
  -25.4657  -15.0552   20.4030 N   0  0  0  0  0  0  0  0  0  0  0  0
  -21.8860  -12.5763   21.6018 N   0  0  0  0  0  0  0  0  0  0  0  0
  -32.9220  -22.6768   17.3431 N   0  0  0  0  0  0  0  0  0  0  0  0
  -33.0381  -28.4729   20.4135 N   0  0  0  0  0  0  0  0  0  0  0  0
  -30.1411  -15.6774   21.4979 N   0  0  0  0  0  0  0  0  0  0  0  0
  -30.4322  -30.9282   20.9119 N   0  3  0  0  0  0  0  0  0  0  0  0
  -22.6585  -14.7171   21.3206 O   0  0  0  0  0  0  0  0  0  0  0  0
  -32.6636  -22.8491   19.6509 O   0  0  0  0  0  0  0  0  0  0  0  0
  -33.5840  -26.6395   18.2806 O   0  0  0  0  0  0  0  0  0  0  0  0
  -31.3817  -28.5297   22.0353 O   0  0  0  0  0  0  0  0  0  0  0  0
  -31.8748  -14.9263   20.1991 O   0  0  0  0  0  0  0  0  0  0  0  0
  -21.6200   -7.0128   21.7099 O   0  0  0  0  0  0  0  0  0  0  0  0
  -28.9904  -16.1931   24.2246 O   0  0  0  0  0  0  0  0  0  0  0  0
  -27.4569  -23.0339   22.8975 O   0  0  0  0  0  0  0  0  0  1  0  0
  -18.6376   -6.8502   26.3449 F   0  0  0  0  0  0  0  0  0  0  0  0
  -22.0763   -5.0696   23.6226 F   0  0  0  0  0  0  0  0  0  0  0  0
  1  2  1  0  0  0  0
  1  5  2  0  0  0  0
  2  6  2  0  0  0  0
  3  8  2  0  0  0  0
  3 17  1  0  0  0  0
  4  9  1  0  0  0  0
  4 17  2  0  0  0  0
  5 19  1  0  0  0  0
  6 21  1  0  0  0  0
  7 10  2  0  0  0  0
  7 20  1  0  0  0  0
  8 26  1  0  0  0  0
  9 26  2  0  0  0  0
 10 27  1  0  0  0  0
 11 12  2  0  0  0  0
 11 28  1  0  0  0  0
 12 30  1  0  0  0  0
 13 22  2  0  0  0  0
 13 25  1  0  0  0  0
 14 23  1  0  0  0  0
 14 27  2  0  0  0  0
 15 25  2  0  0  0  0
 15 29  1  0  0  0  0
 16 30  2  0  0  0  0
 16 31  1  0  0  0  0
 17 32  1  0  0  0  0
 18 32  1  0  0  0  0
 18 33  2  0  0  0  0
 18 34  1  0  0  0  0
 19 21  2  0  0  0  0
 19 39  1  0  0  0  0
 20 23  2  0  0  0  0
 20 40  1  0  0  0  0
 21 50  1  0  0  0  0
 22 24  1  0  0  0  0
 22 41  1  0  0  0  0
 23 42  1  0  0  0  0
 24 29  2  0  0  0  0
 24 51  1  0  0  0  0
 25 60  1  0  0  0  0
 26 81  1  0  0  0  0
 27 83  1  0  0  0  0
 28 31  2  0  0  0  0
 28 81  1  0  0  0  0
 29 82  1  0  0  0  0
 30 84  1  0  0  0  0
 31 85  1  0  0  0  0
 32 66  2  0  0  0  0
 33 67  1  0  0  0  0
 33 70  1  0  0  0  0
 34 71  1  0  0  0  0
 34 76  2  0  0  0  0
 35 52  1  0  0  0  0
 35 72  1  0  0  0  0
 35 77  2  0  0  0  0
 36 63  1  0  0  0  0
 36 68  1  0  0  0  0
 36 78  2  0  0  0  0
 37 64  1  0  0  0  0
 37 73  1  0  0  0  0
 37 79  2  0  0  0  0
 38 69  1  0  0  0  0
 38 74  1  0  0  0  0
 38 80  2  0  0  0  0
 39 43  1  0  0  0  0
 40 52  1  0  0  0  0
 41 44  1  0  0  0  0
 42 68  1  0  0  0  0
 43 46  1  0  0  0  0
 44 51  1  0  0  0  0
 45 47  1  0  0  0  0
 45 48  1  0  0  0  0
 46 50  1  0  0  0  0
 47 53  1  0  0  0  0
 48 69  1  0  0  0  0
 49 53  1  0  0  0  0
 49 69  1  0  0  0  0
 50 72  1  0  0  0  0
 51 74  1  0  0  0  0
 52 68  1  0  0  0  0
 53 67  1  0  0  0  0
 54 64  1  0  0  0  0
 55 65  1  0  0  0  0
 56 65  1  0  0  0  0
 57 65  1  0  0  0  0
 58 75  1  0  0  0  0
 59 82  1  0  0  0  0
 60 61  1  0  0  0  0
 61 62  1  0  0  0  0
 62 83  1  0  0  0  0
 63 65  1  0  0  0  0
 63 73  1  0  0  0  0
 64 75  1  0  0  0  0
 66 67  1  0  0  0  0
M  CHG  1  75   1
M  ISO  4  38 100  62 101  74 100  83 101
M  END
> <Batch ID>
0156

> <Smiles>
CNC(C)C(=O)NC(C(=O)N1Cc2cc([101O:1][101CH2:1]CCc3cc4c(c(OC)c3)C([100NH:0][100C:0](=O)N3CCCC(n5nc(-c6ccc(Oc7ccc(F)cc7F)cc6)c(C(N)=O)c5N)C3)CC4)ccc2CC1C(=O)NC1CCCc2ccccc21)C(C)(C)C

> <Shape>
0.225

> <Color>
0.191

> <Negative vol penalty>
0.000

$$$$

  -OEChem-04052321563D

 85 93  0     1  0  0  0  0  0999 V2000
  -19.8738  -11.1083   20.3546 C   0  0  0  0  0  0  0  0  0  0  0  0
  -19.8318  -12.4083   20.8481 C   0  0  0  0  0  0  0  0  0  0  0  0
  -25.9352  -27.6630   19.0429 C   0  0  0  0  0  0  0  0  0  0  0  0
  -26.7378  -28.6448   21.0993 C   0  0  0  0  0  0  0  0  0  0  0  0
  -21.0523  -10.3684   20.4419 C   0  0  0  0  0  0  0  0  0  0  0  0
  -20.9682  -12.9689   21.4302 C   0  0  0  0  0  0  0  0  0  0  0  0
  -24.3166  -19.2528   22.2157 C   0  0  0  0  0  0  0  0  0  0  0  0
  -24.8006  -28.4724   19.0993 C   0  0  0  0  0  0  0  0  0  0  0  0
  -25.6033  -29.4543   21.1557 C   0  0  0  0  0  0  0  0  0  0  0  0
  -24.8500  -20.0721   23.2096 C   0  0  0  0  0  0  0  0  0  0  0  0
  -22.3580  -29.1362   22.0489 C   0  0  0  0  0  0  0  0  0  0  0  0
  -21.7030  -29.2495   23.2752 C   0  0  0  0  0  0  0  0  0  0  0  0
  -26.8529  -18.7279   23.2344 C   0  0  0  0  0  0  0  0  0  0  0  0
  -27.3908  -19.8704   29.6177 C   0  0  0  0  0  0  0  0  0  0  0  0
  -22.0887  -31.6345   23.2610 C   0  0  0  0  0  0  0  0  0  0  0  0
  -26.9038  -27.7492   20.0429 C   0  0  0  0  0  0  0  0  0  0  0  0
  -29.3033  -27.2112   19.3642 C   0  0  0  0  0  0  0  0  0  0  0  0
  -22.2064  -10.9236   21.0166 C   0  0  0  0  0  0  0  0  0  0  0  0
  -25.0441  -18.1565   21.7306 C   0  0  0  0  0  0  0  0  0  0  0  0
  -22.1629  -12.2353   21.5265 C   0  0  0  0  0  0  0  0  0  0  0  0
  -26.3276  -17.8977   22.2325 C   0  0  0  0  0  0  0  0  0  0  0  0
  -26.1001  -20.3635   29.4270 C   0  0  0  0  0  0  0  0  0  0  0  0
  -28.4059  -20.2084   28.7226 C   0  0  0  0  0  0  0  0  0  0  0  0
  -25.8243  -21.1945   28.3412 C   0  0  0  0  0  0  0  0  0  0  0  0
  -26.8393  -21.5325   27.4461 C   0  0  0  0  0  0  0  0  0  0  0  0
  -24.6346  -29.3681   20.1557 C   0  0  0  0  0  0  0  0  0  0  0  0
  -26.1172  -19.8081   23.7212 C   0  0  0  0  0  0  0  0  0  0  0  0
  -22.8784  -30.2721   21.4287 C   0  0  0  0  0  0  0  0  0  0  0  0
  -28.1301  -21.0394   27.6368 C   0  0  0  0  0  0  0  0  0  0  0  0
  -21.5683  -30.4985   23.8812 C   0  0  0  0  0  0  0  0  0  0  0  0
  -22.7437  -31.5212   22.0347 C   0  0  0  0  0  0  0  0  0  0  0  0
  -28.0758  -26.9130   19.9855 C   0  0  0  0  0  0  0  0  0  0  0  0
  -30.0813  -26.1023   19.5909 C   0  0  0  0  0  0  0  0  0  0  0  0
  -29.7044  -28.3857   18.6463 C   0  0  0  0  0  0  0  0  0  0  0  0
  -24.5979  -15.0096   21.6887 C   0  0  0  0  0  0  0  0  0  0  0  0
  -27.2847  -15.0450   19.8714 C   0  0  0  0  0  0  0  0  0  0  0  0
  -30.1595  -16.6544   18.9816 C   0  0  0  0  0  0  0  0  0  0  0  0
  -30.0046  -21.8629   23.8186 C   0  0  0  0  0  0  0  0  0  0  0  0
  -23.4435  -10.0685   21.1314 C   0  0  0  0  0  0  0  0  0  0  0  0
  -24.4656  -17.2981   20.6393 C   0  0  0  0  0  0  0  0  0  0  0  0
  -27.1576  -16.7453   21.7311 C   0  0  0  0  0  0  0  0  0  0  0  0
  -24.7110  -10.8673   21.4244 C   0  0  0  0  0  0  0  0  0  0  0  0
  -29.7566  -21.3817   20.2996 C   0  0  0  0  0  0  0  0  0  0  0  0
  -24.4611  -11.8738   22.5430 C   0  0  0  0  0  0  0  0  0  0  0  0
  -29.4085  -22.7717   19.7640 C   0  0  0  0  0  0  0  0  0  0  0  0
  -29.0859  -21.1109   21.6445 C   0  0  0  0  0  0  0  0  0  0  0  0
  -28.9880  -23.5225   22.1427 C   0  0  0  0  0  0  0  0  0  0  0  0
  -23.3818  -12.8869   22.1426 C   0  0  1  0  0  0  0  0  0  0  0  0
  -25.0840  -15.9046   20.5840 C   0  0  1  0  0  0  0  0  0  0  0  0
  -29.6861  -23.8633   20.8149 C   0  0  2  0  0  0  0  0  0  0  0  0
  -25.0312  -19.9864   30.4001 C   0  0  0  0  0  0  0  0  0  0  0  0
  -29.7813  -19.6710   28.9439 C   0  0  0  0  0  0  0  0  0  0  0  0
  -24.4396  -21.7232   28.1388 C   0  0  0  0  0  0  0  0  0  0  0  0
  -32.2700  -17.1162   17.7048 C   0  0  0  0  0  0  0  0  0  0  0  0
  -28.4736  -13.0127   21.8120 C   0  0  0  0  0  0  0  0  0  0  0  0
  -30.7319  -13.5336   20.8649 C   0  0  0  0  0  0  0  0  0  0  0  0
  -28.9612  -12.5619   19.4009 C   0  0  0  0  0  0  0  0  0  0  0  0
  -28.7136  -18.2268   16.9332 C   0  0  0  0  0  0  0  0  0  0  0  0
  -26.5475  -22.4319   26.2695 C   0  0  0  0  0  0  0  0  0  0  0  0
  -30.8974  -22.7702   25.9491 C   0  0  0  0  0  0  0  0  0  0  0  0
  -25.8353  -21.6959   25.1398 C   0  0  0  0  0  0  0  0  0  1  0  0
  -29.8802  -22.5399   27.0523 C   0  0  0  0  0  0  0  0  0  0  0  0
  -28.7660  -14.9682   20.1517 C   0  0  1  0  0  0  0  0  0  0  0  0
  -30.7585  -16.9691   17.6227 C   0  0  2  0  0  0  0  0  0  0  0  0
  -29.2170  -13.5397   20.5684 C   0  0  0  0  0  0  0  0  0  0  0  0
  -28.0695  -25.7088   20.5634 N   0  0  0  0  0  0  0  0  0  0  0  0
  -29.3027  -25.2406   20.3061 N   0  0  0  0  0  0  0  0  0  0  0  0
  -26.5457  -15.9312   20.6679 N   0  0  0  0  0  0  0  0  0  0  0  0
  -29.3901  -22.1819   22.5964 N   0  0  0  0  0  0  0  0  0  0  0  0
  -31.3486  -25.7899   19.2463 N   0  0  0  0  0  0  0  0  0  0  0  0
  -28.7815  -29.4312   18.5066 N   0  0  0  0  0  0  0  0  0  0  0  0
  -23.9307  -13.8828   21.2475 N   0  0  0  0  0  0  0  0  0  0  0  0
  -29.4340  -15.4820   18.9609 N   0  0  0  0  0  0  0  0  0  0  0  0
  -30.2638  -22.9378   24.6602 N   0  0  0  0  0  0  0  0  0  0  0  0
  -30.1911  -18.2392   17.0881 N   0  3  0  0  0  0  0  0  0  0  0  0
  -30.8419  -28.4978   18.1296 O   0  0  0  0  0  0  0  0  0  0  0  0
  -24.8136  -15.3177   22.8550 O   0  0  0  0  0  0  0  0  0  0  0  0
  -26.8022  -14.3499   18.9739 O   0  0  0  0  0  0  0  0  0  0  0  0
  -30.3223  -17.3745   19.9642 O   0  0  0  0  0  0  0  0  0  0  0  0
  -30.3051  -20.7066   24.1340 O   0  0  0  0  0  0  0  0  0  0  0  0
  -23.5277  -30.1582   20.2109 O   0  0  0  0  0  0  0  0  0  0  0  0
  -26.6399  -20.6058   24.6918 O   0  0  0  0  0  0  0  0  0  1  0  0
  -29.1235  -21.3675   26.7614 O   0  0  0  0  0  0  0  0  0  0  0  0
  -20.9379  -30.6073   25.0581 F   0  0  0  0  0  0  0  0  0  0  0  0
  -23.2406  -32.6162   21.4431 F   0  0  0  0  0  0  0  0  0  0  0  0
  1  2  1  0  0  0  0
  1  5  2  0  0  0  0
  2  6  2  0  0  0  0
  3  8  2  0  0  0  0
  3 16  1  0  0  0  0
  4  9  1  0  0  0  0
  4 16  2  0  0  0  0
  5 18  1  0  0  0  0
  6 20  1  0  0  0  0
  7 10  2  0  0  0  0
  7 19  1  0  0  0  0
  8 26  1  0  0  0  0
  9 26  2  0  0  0  0
 10 27  1  0  0  0  0
 11 12  2  0  0  0  0
 11 28  1  0  0  0  0
 12 30  1  0  0  0  0
 13 21  1  0  0  0  0
 13 27  2  0  0  0  0
 14 22  1  0  0  0  0
 14 23  2  0  0  0  0
 15 30  2  0  0  0  0
 15 31  1  0  0  0  0
 16 32  1  0  0  0  0
 17 32  1  0  0  0  0
 17 33  2  0  0  0  0
 17 34  1  0  0  0  0
 18 20  2  0  0  0  0
 18 39  1  0  0  0  0
 19 21  2  0  0  0  0
 19 40  1  0  0  0  0
 20 48  1  0  0  0  0
 21 41  1  0  0  0  0
 22 24  2  0  0  0  0
 22 51  1  0  0  0  0
 23 29  1  0  0  0  0
 23 52  1  0  0  0  0
 24 25  1  0  0  0  0
 24 53  1  0  0  0  0
 25 29  2  0  0  0  0
 25 59  1  0  0  0  0
 26 81  1  0  0  0  0
 27 82  1  0  0  0  0
 28 31  2  0  0  0  0
 28 81  1  0  0  0  0
 29 83  1  0  0  0  0
 30 84  1  0  0  0  0
 31 85  1  0  0  0  0
 32 66  2  0  0  0  0
 33 67  1  0  0  0  0
 33 70  1  0  0  0  0
 34 71  1  0  0  0  0
 34 76  2  0  0  0  0
 35 49  1  0  0  0  0
 35 72  1  0  0  0  0
 35 77  2  0  0  0  0
 36 63  1  0  0  0  0
 36 68  1  0  0  0  0
 36 78  2  0  0  0  0
 37 64  1  0  0  0  0
 37 73  1  0  0  0  0
 37 79  2  0  0  0  0
 38 69  1  0  0  0  0
 38 74  1  0  0  0  0
 38 80  2  0  0  0  0
 39 42  1  0  0  0  0
 40 49  1  0  0  0  0
 41 68  1  0  0  0  0
 42 44  1  0  0  0  0
 43 45  1  0  0  0  0
 43 46  1  0  0  0  0
 44 48  1  0  0  0  0
 45 50  1  0  0  0  0
 46 69  1  0  0  0  0
 47 50  1  0  0  0  0
 47 69  1  0  0  0  0
 48 72  1  0  0  0  0
 49 68  1  0  0  0  0
 50 67  1  0  0  0  0
 54 64  1  0  0  0  0
 55 65  1  0  0  0  0
 56 65  1  0  0  0  0
 57 65  1  0  0  0  0
 58 75  1  0  0  0  0
 59 61  1  0  0  0  0
 60 62  1  0  0  0  0
 60 74  1  0  0  0  0
 61 82  1  0  0  0  0
 62 83  1  0  0  0  0
 63 65  1  0  0  0  0
 63 73  1  0  0  0  0
 64 75  1  0  0  0  0
 66 67  1  0  0  0  0
M  CHG  1  75   1
M  ISO  4  38 100  61 101  74 100  82 101
M  END
> <Batch ID>
0156

> <Smiles>
CNC(C)C(=O)NC(C(=O)N1Cc2cc([101O:1][101CH2:1]Cc3c(C)c(C)cc(C)c3OCC[100NH:0][100C:0](=O)N3CCCC(n4nc(-c5ccc(Oc6ccc(F)cc6F)cc5)c(C(N)=O)c4N)C3)ccc2CC1C(=O)NC1CCCc2ccccc21)C(C)(C)C

> <Shape>
0.227

> <Color>
0.049

> <Negative vol penalty>
0.000

$$$$

  -OEChem-04052321563D

 92101  0     1  0  0  0  0  0999 V2000
  -25.6778  -29.7118   19.6312 C   0  0  0  0  0  0  0  0  0  0  0  0
  -25.4883  -28.3984   19.2136 C   0  0  0  0  0  0  0  0  0  0  0  0
  -22.1571  -25.3154   23.8208 C   0  0  0  0  0  0  0  0  0  0  0  0
  -19.8749  -24.5480   24.0202 C   0  0  0  0  0  0  0  0  0  0  0  0
  -26.8883  -30.0901   20.2105 C   0  0  0  0  0  0  0  0  0  0  0  0
  -26.5096  -27.4627   19.3741 C   0  0  0  0  0  0  0  0  0  0  0  0
  -27.5432  -20.4935   20.6698 C   0  0  0  0  0  0  0  0  0  0  0  0
  -21.7103  -26.4838   23.2037 C   0  0  0  0  0  0  0  0  0  0  0  0
  -19.4281  -25.7165   23.4032 C   0  0  0  0  0  0  0  0  0  0  0  0
  -28.2244  -19.3916   20.1545 C   0  0  0  0  0  0  0  0  0  0  0  0
  -18.8918  -28.9393   24.2672 C   0  0  0  0  0  0  0  0  0  0  0  0
  -17.7974  -29.5921   24.8343 C   0  0  0  0  0  0  0  0  0  0  0  0
  -30.2443  -20.1400   21.2403 C   0  0  0  0  0  0  0  0  0  0  0  0
  -28.3442  -11.1177   19.1618 C   0  0  0  0  0  0  0  0  0  0  0  0
  -30.2213  -12.4111   19.9620 C   0  0  0  0  0  0  0  0  0  0  0  0
  -16.5640  -29.3127   22.7757 C   0  0  0  0  0  0  0  0  0  0  0  0
  -21.2393  -24.3475   24.2290 C   0  0  0  0  0  0  0  0  0  0  0  0
  -21.8925  -22.9260   26.2441 C   0  0  0  0  0  0  0  0  0  0  0  0
  -27.9215  -29.1562   20.3869 C   0  0  0  0  0  0  0  0  0  0  0  0
  -28.2112  -21.4344   21.4667 C   0  0  0  0  0  0  0  0  0  0  0  0
  -27.7355  -27.8291   19.9550 C   0  0  0  0  0  0  0  0  0  0  0  0
  -29.5687  -21.2516   21.7667 C   0  0  0  0  0  0  0  0  0  0  0  0
  -29.7004  -11.2128   19.4738 C   0  0  0  0  0  0  0  0  0  0  0  0
  -27.5089  -12.2209   19.3379 C   0  0  0  0  0  0  0  0  0  0  0  0
  -29.3860  -13.5143   20.1381 C   0  0  0  0  0  0  0  0  0  0  0  0
  -20.3458  -26.6844   22.9949 C   0  0  0  0  0  0  0  0  0  0  0  0
  -29.5758  -19.2163   20.4373 C   0  0  0  0  0  0  0  0  0  0  0  0
  -18.8224  -28.4732   22.9544 C   0  0  0  0  0  0  0  0  0  0  0  0
  -28.0298  -13.4192   19.8261 C   0  0  0  0  0  0  0  0  0  0  0  0
  -16.6334  -29.7788   24.0886 C   0  0  0  0  0  0  0  0  0  0  0  0
  -17.6585  -28.6598   22.2086 C   0  0  0  0  0  0  0  0  0  0  0  0
  -21.7003  -23.1400   24.8660 C   0  0  0  0  0  0  0  0  0  0  0  0
  -22.3354  -21.6288   26.3315 C   0  0  0  0  0  0  0  0  0  0  0  0
  -21.6887  -23.8197   27.3465 C   0  0  0  0  0  0  0  0  0  0  0  0
  -28.8472  -24.5386   21.2158 C   0  0  0  0  0  0  0  0  0  0  0  0
  -29.9911  -24.1500   24.2262 C   0  0  0  0  0  0  0  0  0  0  0  0
  -31.2675  -22.0469   26.5916 C   0  0  0  0  0  0  0  0  0  0  0  0
  -25.2329  -18.1280   22.7627 C   0  0  0  0  0  0  0  0  0  0  0  0
  -29.2295  -29.6232   20.9749 C   0  0  0  0  0  0  0  0  0  0  0  0
  -27.4557  -22.6033   22.0370 C   0  0  0  0  0  0  0  0  0  0  0  0
  -30.3268  -22.2221   22.6338 C   0  0  0  0  0  0  0  0  0  0  0  0
  -30.1250  -28.4824   21.4511 C   0  0  0  0  0  0  0  0  0  0  0  0
  -22.0662  -17.4128   24.0976 C   0  0  0  0  0  0  0  0  0  0  0  0
  -30.1957  -27.3831   20.3959 C   0  0  0  0  0  0  0  0  0  0  0  0
  -21.6245  -18.7919   24.5866 C   0  0  0  0  0  0  0  0  0  0  0  0
  -26.5542  -14.6915   22.3243 C   0  0  0  0  0  0  0  0  0  0  0  0
  -24.9314  -15.1965   20.4478 C   0  0  0  0  0  0  0  0  0  0  0  0
  -22.7821  -17.4856   22.7478 C   0  0  0  0  0  0  0  0  0  0  0  0
  -26.7453  -16.1934   22.5299 C   0  0  0  0  0  0  0  0  0  0  0  0
  -25.1624  -16.6857   20.6938 C   0  0  0  0  0  0  0  0  0  0  0  0
  -23.4745  -19.8148   23.2085 C   0  0  0  0  0  0  0  0  0  0  0  0
  -28.8105  -26.7793   20.1347 C   0  0  1  0  0  0  0  0  0  0  0  0
  -28.3599  -23.7729   22.4133 C   0  0  1  0  0  0  0  0  0  0  0  0
  -22.8040  -19.7807   24.5907 C   0  0  1  0  0  0  0  0  0  0  0  0
  -26.1163  -14.3421   20.9015 C   0  0  0  0  0  0  0  0  0  0  0  0
  -30.5936  -10.0336   19.2851 C   0  0  0  0  0  0  0  0  0  0  0  0
  -26.0597  -12.0994   18.9984 C   0  0  0  0  0  0  0  0  0  0  0  0
  -30.6191  -14.6355   22.0396 C   0  0  0  0  0  0  0  0  0  0  0  0
  -32.1439  -22.0268   28.9429 C   0  0  0  0  0  0  0  0  0  0  0  0
  -32.6017  -25.4003   23.2613 C   0  0  0  0  0  0  0  0  0  0  0  0
  -33.7119  -24.4991   25.3165 C   0  0  0  0  0  0  0  0  0  0  0  0
  -31.8582  -26.1552   25.5267 C   0  0  0  0  0  0  0  0  0  0  0  0
  -31.5466  -16.6389   17.7357 C   0  0  0  0  0  0  0  0  0  0  0  0
  -29.5601  -15.0891   17.8044 C   0  0  0  0  0  0  0  0  0  0  0  0
  -29.1537  -20.1790   27.4868 C   0  0  0  0  0  0  0  0  0  0  0  0
  -29.4977  -17.2338   19.1259 C   0  0  0  0  0  0  0  0  0  1  0  0
  -29.9621  -14.7885   20.6622 C   0  0  1  0  0  0  0  0  0  0  0  0
  -31.3291  -23.7853   24.8227 C   0  0  1  0  0  0  0  0  0  0  0  0
  -30.9211  -21.8495   28.0563 C   0  0  2  0  0  0  0  0  0  0  0  0
  -32.3617  -24.9426   24.7139 C   0  0  0  0  0  0  0  0  0  0  0  0
  -30.3899  -16.1091   18.5858 C   0  0  0  0  0  0  0  0  0  0  0  0
  -21.9970  -22.0651   24.1309 N   0  0  0  0  0  0  0  0  0  0  0  0
  -22.3801  -21.1630   25.0504 N   0  0  0  0  0  0  0  0  0  0  0  0
  -29.5457  -23.3524   23.1626 N   0  0  0  0  0  0  0  0  0  0  0  0
  -23.8724  -18.4692   22.7894 N   0  0  0  0  0  0  0  0  0  0  0  0
  -25.5792  -16.9512   22.0773 N   0  0  0  0  0  0  0  0  0  0  0  0
  -22.6871  -20.8526   27.3785 N   0  0  0  0  0  0  0  0  0  0  0  0
  -21.2300  -25.1168   27.0791 N   0  0  0  0  0  0  0  0  0  0  0  0
  -28.4509  -25.8622   21.1949 N   0  0  0  0  0  0  0  0  0  0  0  0
  -31.0617  -23.3496   26.1891 N   0  0  0  0  0  0  0  0  0  0  0  0
  -30.3733  -20.4816   28.2792 N   0  3  0  0  0  0  0  0  0  0  0  0
  -30.9813  -15.4025   19.7448 N   0  3  0  0  0  0  0  0  0  0  0  0
  -21.9227  -23.4835   28.5322 O   0  0  0  0  0  0  0  0  0  0  0  0
  -29.5332  -23.9709   20.3739 O   0  0  0  0  0  0  0  0  0  0  0  0
  -29.3610  -25.1029   24.6917 O   0  0  0  0  0  0  0  0  0  0  0  0
  -31.6829  -21.1374   25.8769 O   0  0  0  0  0  0  0  0  0  0  0  0
  -26.0879  -18.8282   23.3194 O   0  0  0  0  0  0  0  0  0  0  0  0
  -19.9095  -27.8245   22.3930 O   0  0  0  0  0  0  0  0  0  0  0  0
  -27.2092  -14.5024   19.9998 O   0  0  0  0  0  0  0  0  0  0  0  0
  -30.2478  -18.1346   19.9315 O   0  0  0  0  0  0  0  0  0  1  0  0
  -15.5820  -30.4044   24.6338 F   0  0  0  0  0  0  0  0  0  0  0  0
  -17.5854  -28.2132   20.9473 F   0  0  0  0  0  0  0  0  0  0  0  0
  1  2  1  0  0  0  0
  1  5  2  0  0  0  0
  2  6  2  0  0  0  0
  3  8  2  0  0  0  0
  3 17  1  0  0  0  0
  4  9  1  0  0  0  0
  4 17  2  0  0  0  0
  5 19  1  0  0  0  0
  6 21  1  0  0  0  0
  7 10  2  0  0  0  0
  7 20  1  0  0  0  0
  8 26  1  0  0  0  0
  9 26  2  0  0  0  0
 10 27  1  0  0  0  0
 11 12  2  0  0  0  0
 11 28  1  0  0  0  0
 12 30  1  0  0  0  0
 13 22  1  0  0  0  0
 13 27  2  0  0  0  0
 14 23  1  0  0  0  0
 14 24  2  0  0  0  0
 15 23  2  0  0  0  0
 15 25  1  0  0  0  0
 16 30  2  0  0  0  0
 16 31  1  0  0  0  0
 17 32  1  0  0  0  0
 18 32  1  0  0  0  0
 18 33  2  0  0  0  0
 18 34  1  0  0  0  0
 19 21  2  0  0  0  0
 19 39  1  0  0  0  0
 20 22  2  0  0  0  0
 20 40  1  0  0  0  0
 21 52  1  0  0  0  0
 22 41  1  0  0  0  0
 23 56  1  0  0  0  0
 24 29  1  0  0  0  0
 24 57  1  0  0  0  0
 25 29  2  0  0  0  0
 25 67  1  0  0  0  0
 26 88  1  0  0  0  0
 27 90  1  0  0  0  0
 28 31  2  0  0  0  0
 28 88  1  0  0  0  0
 29 89  1  0  0  0  0
 30 91  1  0  0  0  0
 31 92  1  0  0  0  0
 32 72  2  0  0  0  0
 33 73  1  0  0  0  0
 33 77  1  0  0  0  0
 34 78  1  0  0  0  0
 34 83  2  0  0  0  0
 35 53  1  0  0  0  0
 35 79  1  0  0  0  0
 35 84  2  0  0  0  0
 36 68  1  0  0  0  0
 36 74  1  0  0  0  0
 36 85  2  0  0  0  0
 37 69  1  0  0  0  0
 37 80  1  0  0  0  0
 37 86  2  0  0  0  0
 38 75  1  0  0  0  0
 38 76  1  0  0  0  0
 38 87  2  0  0  0  0
 39 42  1  0  0  0  0
 40 53  1  0  0  0  0
 41 74  1  0  0  0  0
 42 44  1  0  0  0  0
 43 45  1  0  0  0  0
 43 48  1  0  0  0  0
 44 52  1  0  0  0  0
 45 54  1  0  0  0  0
 46 49  1  0  0  0  0
 46 55  1  0  0  0  0
 47 50  1  0  0  0  0
 47 55  1  0  0  0  0
 48 75  1  0  0  0  0
 49 76  1  0  0  0  0
 50 76  1  0  0  0  0
 51 54  1  0  0  0  0
 51 75  1  0  0  0  0
 52 79  1  0  0  0  0
 53 74  1  0  0  0  0
 54 73  1  0  0  0  0
 55 89  1  0  0  0  0
 58 67  1  0  0  0  0
 59 69  1  0  0  0  0
 60 70  1  0  0  0  0
 61 70  1  0  0  0  0
 62 70  1  0  0  0  0
 63 71  1  0  0  0  0
 64 71  1  0  0  0  0
 65 81  1  0  0  0  0
 66 71  1  0  0  0  0
 66 90  1  0  0  0  0
 67 82  1  0  0  0  0
 68 70  1  0  0  0  0
 68 80  1  0  0  0  0
 69 81  1  0  0  0  0
 71 82  1  0  0  0  0
 72 73  1  0  0  0  0
M  CHG  2  81   1  82   1
M  ISO  4  38 100  66 101  76 100  90 101
M  END
> <Batch ID>
0156

> <Smiles>
CNC(C)C(=O)NC(C(=O)N1Cc2cc([101O:1][101CH2:1]C(C)(C)NC(C)c3cc(C)cc(C)c3OC3CC[100N:0]([100C:0](=O)N4CCCC(n5nc(-c6ccc(Oc7ccc(F)cc7F)cc6)c(C(N)=O)c5N)C4)CC3)ccc2CC1C(=O)NC1CCCc2ccccc21)C(C)(C)C

> <Shape>
0.224

> <Color>
0.055

> <Negative vol penalty>
0.000

$$$$

  -OEChem-04052321563D

 86 95  0     1  0  0  0  0  0999 V2000
  -22.9340  -25.4549   18.6672 C   0  0  0  0  0  0  0  0  0  0  0  0
  -23.7218  -24.4792   18.0649 C   0  0  0  0  0  0  0  0  0  0  0  0
  -26.2092  -28.4288   18.9408 C   0  0  0  0  0  0  0  0  0  0  0  0
  -26.3888  -28.1347   21.3321 C   0  0  0  0  0  0  0  0  0  0  0  0
  -22.3743  -25.2204   19.9224 C   0  0  0  0  0  0  0  0  0  0  0  0
  -23.9512  -23.2687   18.7180 C   0  0  0  0  0  0  0  0  0  0  0  0
  -24.9878  -16.3090   17.3748 C   0  0  0  0  0  0  0  0  0  0  0  0
  -25.2296  -29.4027   19.1341 C   0  0  0  0  0  0  0  0  0  0  0  0
  -25.4092  -29.1087   21.5254 C   0  0  0  0  0  0  0  0  0  0  0  0
  -25.8786  -15.2769   17.6662 C   0  0  0  0  0  0  0  0  0  0  0  0
  -22.0394  -29.3217   21.3528 C   0  0  0  0  0  0  0  0  0  0  0  0
  -21.0298  -29.0511   22.2765 C   0  0  0  0  0  0  0  0  0  0  0  0
  -24.7952  -14.9516   19.7969 C   0  0  0  0  0  0  0  0  0  0  0  0
  -21.6867  -30.9885   23.5619 C   0  0  0  0  0  0  0  0  0  0  0  0
  -28.4805  -16.8122   23.2818 C   0  0  0  0  0  0  0  0  0  0  0  0
  -26.7888  -27.7947   20.0398 C   0  0  0  0  0  0  0  0  0  0  0  0
  -29.1919  -26.9854   19.7607 C   0  0  0  0  0  0  0  0  0  0  0  0
  -22.5890  -24.0028   20.5871 C   0  0  0  0  0  0  0  0  0  0  0  0
  -23.9993  -16.6781   18.2984 C   0  0  0  0  0  0  0  0  0  0  0  0
  -23.3949  -23.0183   19.9840 C   0  0  0  0  0  0  0  0  0  0  0  0
  -23.8915  -15.9870   19.5137 C   0  0  0  0  0  0  0  0  0  0  0  0
  -29.1223  -15.6964   22.7690 C   0  0  0  0  0  0  0  0  0  0  0  0
  -29.5231  -15.7305   21.4380 C   0  0  0  0  0  0  0  0  0  0  0  0
  -29.2734  -16.8633   20.6714 C   0  0  0  0  0  0  0  0  0  0  0  0
  -24.8296  -29.7428   20.4264 C   0  0  0  0  0  0  0  0  0  0  0  0
  -25.7842  -14.5999   18.8786 C   0  0  0  0  0  0  0  0  0  0  0  0
  -22.8727  -30.4256   21.5337 C   0  0  0  0  0  0  0  0  0  0  0  0
  -20.8535  -29.8845   23.3810 C   0  0  0  0  0  0  0  0  0  0  0  0
  -22.6963  -31.2590   22.6382 C   0  0  0  0  0  0  0  0  0  0  0  0
  -27.8003  -26.7881   19.8407 C   0  0  0  0  0  0  0  0  0  0  0  0
  -28.6247  -17.9268   21.2781 C   0  0  0  0  0  0  0  0  0  0  0  0
  -29.7066  -25.7267   19.5681 C   0  0  0  0  0  0  0  0  0  0  0  0
  -29.9512  -28.1981   19.8524 C   0  0  0  0  0  0  0  0  0  0  0  0
  -23.3251  -19.3244   19.9251 C   0  0  0  0  0  0  0  0  0  0  0  0
  -20.6982  -17.6420   20.8148 C   0  0  0  0  0  0  0  0  0  0  0  0
  -19.2277  -14.5975   21.2791 C   0  0  0  0  0  0  0  0  0  0  0  0
  -27.7282  -20.2550   20.9288 C   0  0  0  0  0  0  0  0  0  0  0  0
  -22.0019  -23.8136   21.9634 C   0  0  0  0  0  0  0  0  0  0  0  0
  -23.0291  -17.7759   17.9578 C   0  0  0  0  0  0  0  0  0  0  0  0
  -22.8352  -16.3312   20.5307 C   0  0  0  0  0  0  0  0  0  0  0  0
  -21.9856  -22.3582   22.4238 C   0  0  0  0  0  0  0  0  0  0  0  0
  -28.5806  -21.4671   17.6913 C   0  0  0  0  0  0  0  0  0  0  0  0
  -29.1389  -11.8181   18.5728 C   0  0  0  0  0  0  0  0  0  0  0  0
  -23.3327  -21.6968   22.1509 C   0  0  0  0  0  0  0  0  0  0  0  0
  -28.6099  -22.9869   17.8693 C   0  0  0  0  0  0  0  0  0  0  0  0
  -28.5386  -11.4712   19.9233 C   0  0  0  0  0  0  0  0  0  0  0  0
  -27.4741  -20.8200   18.5223 C   0  0  0  0  0  0  0  0  0  0  0  0
  -27.5129  -22.6893   20.1265 C   0  0  0  0  0  0  0  0  0  0  0  0
  -30.1083  -12.9283   18.9109 C   0  0  0  0  0  0  0  0  0  0  0  0
  -23.6464  -21.6829   20.6499 C   0  0  1  0  0  0  0  0  0  0  0  0
  -22.3879  -18.4098   19.1884 C   0  0  1  0  0  0  0  0  0  0  0  0
  -28.6527  -23.3791   19.3592 C   0  0  2  0  0  0  0  0  0  0  0  0
  -28.3801  -12.8117   20.6405 C   0  0  2  0  0  0  0  0  0  0  0  0
  -29.3633  -14.5103   23.6372 C   0  0  0  0  0  0  0  0  0  0  0  0
  -29.6956  -16.9208   19.2400 C   0  0  0  0  0  0  0  0  0  0  0  0
  -17.0862  -13.5414   22.0511 C   0  0  0  0  0  0  0  0  0  0  0  0
  -21.4506  -18.2391   23.7109 C   0  0  0  0  0  0  0  0  0  0  0  0
  -19.8844  -16.4190   24.4199 C   0  0  0  0  0  0  0  0  0  0  0  0
  -19.0068  -18.4163   23.2101 C   0  0  0  0  0  0  0  0  0  0  0  0
  -18.7773  -13.3146   18.6504 C   0  0  0  0  0  0  0  0  0  0  0  0
  -30.2221  -14.5479   20.8349 C   0  0  0  0  0  0  0  0  0  0  0  0
  -26.9729  -13.3830   20.5406 C   0  0  0  0  0  0  0  0  0  1  0  0
  -20.3649  -16.6991   21.9457 C   0  0  1  0  0  0  0  0  0  0  0  0
  -17.8730  -14.0583   20.8567 C   0  0  2  0  0  0  0  0  0  0  0  0
  -20.1979  -17.4379   23.3035 C   0  0  0  0  0  0  0  0  0  0  0  0
  -28.2204  -17.9305   22.5681 N   0  0  0  0  0  0  0  0  0  0  0  0
  -27.4531  -25.5050   19.7095 N   0  0  0  0  0  0  0  0  0  0  0  0
  -28.6339  -24.8848   19.5451 N   0  0  0  0  0  0  0  0  0  0  0  0
  -21.9140  -17.4161   20.1540 N   0  0  0  0  0  0  0  0  0  0  0  0
  -27.5805  -21.2336   19.9232 N   0  0  0  0  0  0  0  0  0  0  0  0
  -30.9677  -25.2691   19.4179 N   0  0  0  0  0  0  0  0  0  0  0  0
  -29.2641  -29.4033   20.0514 N   0  0  0  0  0  0  0  0  0  0  0  0
  -28.3639  -19.0873   20.5081 N   0  0  0  0  0  0  0  0  0  0  0  0
  -22.8975  -20.6370   19.9867 N   0  0  0  0  0  0  0  0  0  0  0  0
  -19.1844  -15.9542   21.5216 N   0  0  0  0  0  0  0  0  0  0  0  0
  -29.3448  -13.7516   19.9218 N   0  3  1  0  0  0  0  0  0  0  0  0
  -18.0403  -12.9408   19.8849 N   0  3  0  0  0  0  0  0  0  0  0  0
  -31.2008  -28.2146   19.7441 O   0  0  0  0  0  0  0  0  0  0  0  0
  -24.3587  -18.8725   20.4035 O   0  0  0  0  0  0  0  0  0  0  0  0
  -19.9056  -18.5412   20.5236 O   0  0  0  0  0  0  0  0  0  0  0  0
  -20.2238  -13.8857   21.3870 O   0  0  0  0  0  0  0  0  0  0  0  0
  -27.2965  -20.4284   22.0714 O   0  0  0  0  0  0  0  0  0  0  0  0
  -23.8740  -30.6933   20.6154 O   0  0  0  0  0  0  0  0  0  0  0  0
  -26.6528  -13.5924   19.1658 O   0  0  0  0  0  0  0  0  0  1  0  0
  -19.8830  -29.6255   24.2671 F   0  0  0  0  0  0  0  0  0  0  0  0
  -23.4929  -32.3217   22.8167 F   0  0  0  0  0  0  0  0  0  0  0  0
  1  2  1  0  0  0  0
  1  5  2  0  0  0  0
  2  6  2  0  0  0  0
  3  8  2  0  0  0  0
  3 16  1  0  0  0  0
  4  9  1  0  0  0  0
  4 16  2  0  0  0  0
  5 18  1  0  0  0  0
  6 20  1  0  0  0  0
  7 10  2  0  0  0  0
  7 19  1  0  0  0  0
  8 25  1  0  0  0  0
  9 25  2  0  0  0  0
 10 26  1  0  0  0  0
 11 12  2  0  0  0  0
 11 27  1  0  0  0  0
 12 28  1  0  0  0  0
 13 21  1  0  0  0  0
 13 26  2  0  0  0  0
 14 28  2  0  0  0  0
 14 29  1  0  0  0  0
 15 22  2  0  0  0  0
 15 66  1  0  0  0  0
 16 30  1  0  0  0  0
 17 30  1  0  0  0  0
 17 32  2  0  0  0  0
 17 33  1  0  0  0  0
 18 20  2  0  0  0  0
 18 38  1  0  0  0  0
 19 21  2  0  0  0  0
 19 39  1  0  0  0  0
 20 50  1  0  0  0  0
 21 40  1  0  0  0  0
 22 23  1  0  0  0  0
 22 54  1  0  0  0  0
 23 24  2  0  0  0  0
 23 61  1  0  0  0  0
 24 31  1  0  0  0  0
 24 55  1  0  0  0  0
 25 83  1  0  0  0  0
 26 84  1  0  0  0  0
 27 29  2  0  0  0  0
 27 83  1  0  0  0  0
 28 85  1  0  0  0  0
 29 86  1  0  0  0  0
 30 67  2  0  0  0  0
 31 66  2  0  0  0  0
 31 73  1  0  0  0  0
 32 68  1  0  0  0  0
 32 71  1  0  0  0  0
 33 72  1  0  0  0  0
 33 78  2  0  0  0  0
 34 51  1  0  0  0  0
 34 74  1  0  0  0  0
 34 79  2  0  0  0  0
 35 63  1  0  0  0  0
 35 69  1  0  0  0  0
 35 80  2  0  0  0  0
 36 64  1  0  0  0  0
 36 75  1  0  0  0  0
 36 81  2  0  0  0  0
 37 70  1  0  0  0  0
 37 73  1  0  0  0  0
 37 82  2  0  0  0  0
 38 41  1  0  0  0  0
 39 51  1  0  0  0  0
 40 69  1  0  0  0  0
 41 44  1  0  0  0  0
 42 45  1  0  0  0  0
 42 47  1  0  0  0  0
 43 46  1  0  0  0  0
 43 49  1  0  0  0  0
 44 50  1  0  0  0  0
 45 52  1  0  0  0  0
 46 53  1  0  0  0  0
 47 70  1  0  0  0  0
 48 52  1  0  0  0  0
 48 70  1  0  0  0  0
 49 76  1  0  0  0  0
 50 74  1  0  0  0  0
 51 69  1  0  0  0  0
 52 68  1  0  0  0  0
 53 62  1  0  0  0  0
 53 76  1  0  0  0  0
 56 64  1  0  0  0  0
 57 65  1  0  0  0  0
 58 65  1  0  0  0  0
 59 65  1  0  0  0  0
 60 77  1  0  0  0  0
 61 76  1  0  0  0  0
 62 84  1  0  0  0  0
 63 65  1  0  0  0  0
 63 75  1  0  0  0  0
 64 77  1  0  0  0  0
 67 68  1  0  0  0  0
M  CHG  2  76   1  77   1
M  ISO  4  37 100  62 101  73 100  84 101
M  END
> <Batch ID>
0156

> <Smiles>
CNC(C)C(=O)NC(C(=O)N1Cc2cc([101O:1][101CH2:1]C3CCCN3Cc3c(C)cnc([100NH:0][100C:0](=O)N4CCCC(n5nc(-c6ccc(Oc7ccc(F)cc7F)cc6)c(C(N)=O)c5N)C4)c3C)ccc2CC1C(=O)NC1CCCc2ccccc21)C(C)(C)C

> <Shape>
0.222

> <Color>
0.050

> <Negative vol penalty>
0.000

$$$$

  -OEChem-04052321563D

 86 95  0     1  0  0  0  0  0999 V2000
  -28.7239  -37.1084   19.0838 C   0  0  0  0  0  0  0  0  0  0  0  0
  -28.8953  -35.7583   18.7953 C   0  0  0  0  0  0  0  0  0  0  0  0
  -22.3782  -10.1493   22.9528 C   0  0  0  0  0  0  0  0  0  0  0  0
  -24.2443   -9.6697   21.4952 C   0  0  0  0  0  0  0  0  0  0  0  0
  -28.2779  -37.4992   20.3457 C   0  0  0  0  0  0  0  0  0  0  0  0
  -28.6218  -34.7982   19.7689 C   0  0  0  0  0  0  0  0  0  0  0  0
  -26.3040  -29.2011   18.8713 C   0  0  0  0  0  0  0  0  0  0  0  0
  -21.7877   -8.9371   22.5958 C   0  0  0  0  0  0  0  0  0  0  0  0
  -23.6539   -8.4574   21.1382 C   0  0  0  0  0  0  0  0  0  0  0  0
  -26.8982  -27.9431   18.7816 C   0  0  0  0  0  0  0  0  0  0  0  0
  -22.1410   -5.6674   23.3813 C   0  0  0  0  0  0  0  0  0  0  0  0
  -21.6075   -4.8807   24.4021 C   0  0  0  0  0  0  0  0  0  0  0  0
  -27.9188  -23.0583   18.1062 C   0  0  0  0  0  0  0  0  0  0  0  0
  -26.4322  -27.5632   21.1178 C   0  0  0  0  0  0  0  0  0  0  0  0
  -30.3634  -22.6000   19.3696 C   0  0  0  0  0  0  0  0  0  0  0  0
  -19.4287   -5.0147   23.3666 C   0  0  0  0  0  0  0  0  0  0  0  0
  -23.6065  -10.5157   22.4025 C   0  0  0  0  0  0  0  0  0  0  0  0
  -25.1080  -11.9988   23.8353 C   0  0  0  0  0  0  0  0  0  0  0  0
  -27.9895  -36.5430   21.3321 C   0  0  0  0  0  0  0  0  0  0  0  0
  -25.7783  -29.6548   20.0895 C   0  0  0  0  0  0  0  0  0  0  0  0
  -28.1728  -35.1767   21.0456 C   0  0  0  0  0  0  0  0  0  0  0  0
  -28.4280  -21.7625   18.1906 C   0  0  0  0  0  0  0  0  0  0  0  0
  -25.8295  -28.8263   21.2196 C   0  0  0  0  0  0  0  0  0  0  0  0
  -28.6319  -24.1250   18.6534 C   0  0  0  0  0  0  0  0  0  0  0  0
  -29.8542  -23.8958   19.2851 C   0  0  0  0  0  0  0  0  0  0  0  0
  -22.4255   -8.0912   21.6885 C   0  0  0  0  0  0  0  0  0  0  0  0
  -26.9650  -27.1251   19.9057 C   0  0  0  0  0  0  0  0  0  0  0  0
  -21.3184   -6.1278   22.3532 C   0  0  0  0  0  0  0  0  0  0  0  0
  -29.6503  -21.5334   18.8224 C   0  0  0  0  0  0  0  0  0  0  0  0
  -20.2514   -4.5543   24.3948 C   0  0  0  0  0  0  0  0  0  0  0  0
  -19.9623   -5.8014   22.3458 C   0  0  0  0  0  0  0  0  0  0  0  0
  -24.2167  -11.7680   22.7705 C   0  0  0  0  0  0  0  0  0  0  0  0
  -25.3942  -13.3400   23.7590 C   0  0  0  0  0  0  0  0  0  0  0  0
  -25.6307  -11.0828   24.8066 C   0  0  0  0  0  0  0  0  0  0  0  0
  -26.4086  -32.0856   22.0383 C   0  0  0  0  0  0  0  0  0  0  0  0
  -23.7797  -31.0059   23.6021 C   0  0  0  0  0  0  0  0  0  0  0  0
  -21.6832  -28.4023   24.2898 C   0  0  0  0  0  0  0  0  0  0  0  0
  -25.3467  -17.1190   19.2330 C   0  0  0  0  0  0  0  0  0  0  0  0
  -27.5551  -37.0160   22.6967 C   0  0  0  0  0  0  0  0  0  0  0  0
  -25.1166  -31.0035   20.1632 C   0  0  0  0  0  0  0  0  0  0  0  0
  -25.2617  -29.2583   22.5461 C   0  0  0  0  0  0  0  0  0  0  0  0
  -26.9292  -35.9171   23.5516 C   0  0  0  0  0  0  0  0  0  0  0  0
  -23.5047  -17.4962   22.3241 C   0  0  0  0  0  0  0  0  0  0  0  0
  -27.7775  -34.6504   23.4976 C   0  0  0  0  0  0  0  0  0  0  0  0
  -23.5695  -16.0765   22.8897 C   0  0  0  0  0  0  0  0  0  0  0  0
  -27.6085  -19.2421   18.3496 C   0  0  0  0  0  0  0  0  0  0  0  0
  -23.3465  -17.4811   20.8063 C   0  0  0  0  0  0  0  0  0  0  0  0
  -24.4621  -15.2905   20.6489 C   0  0  0  0  0  0  0  0  0  0  0  0
  -27.6227  -20.5857   17.5747 C   0  0  1  0  0  0  0  0  0  0  0  0
  -27.8629  -34.1042   22.0673 C   0  0  1  0  0  0  0  0  0  0  0  0
  -25.0737  -31.5715   21.5785 C   0  0  1  0  0  0  0  0  0  0  0  0
  -26.0737  -20.6002   17.7526 C   0  0  2  0  0  0  0  0  0  0  0  0
  -24.6467  -15.2383   22.1763 C   0  0  2  0  0  0  0  0  0  0  0  0
  -26.1605  -19.0532   17.8534 C   0  0  2  0  0  0  0  0  0  0  0  0
  -30.6367  -25.0218   19.8769 C   0  0  0  0  0  0  0  0  0  0  0  0
  -25.2679  -21.1507   16.5913 C   0  0  0  0  0  0  0  0  0  0  0  0
  -19.6459  -27.8154   25.6322 C   0  0  0  0  0  0  0  0  0  0  0  0
  -25.4782  -30.9140   26.1353 C   0  0  0  0  0  0  0  0  0  0  0  0
  -23.7234  -29.4625   27.1755 C   0  0  0  0  0  0  0  0  0  0  0  0
  -23.1577  -31.7861   26.4661 C   0  0  0  0  0  0  0  0  0  0  0  0
  -20.1368  -27.7201   21.8605 C   0  0  0  0  0  0  0  0  0  0  0  0
  -31.4152  -20.1269   19.5727 C   0  0  0  0  0  0  0  0  0  0  0  0
  -28.0648  -25.5103   18.5496 C   0  0  0  0  0  0  0  0  0  1  0  0
  -23.5274  -30.0084   24.7068 C   0  0  1  0  0  0  0  0  0  0  0  0
  -20.1685  -28.3015   24.2894 C   0  0  2  0  0  0  0  0  0  0  0  0
  -23.9842  -30.5351   26.0966 C   0  0  0  0  0  0  0  0  0  0  0  0
  -23.9537  -12.8739   22.0691 N   0  0  0  0  0  0  0  0  0  0  0  0
  -24.6842  -13.8126   22.6947 N   0  0  0  0  0  0  0  0  0  0  0  0
  -24.6306  -30.5882   22.5689 N   0  0  0  0  0  0  0  0  0  0  0  0
  -24.4141  -16.6823   20.1873 N   0  0  0  0  0  0  0  0  0  0  0  0
  -26.1812  -14.1494   24.4991 N   0  0  0  0  0  0  0  0  0  0  0  0
  -25.2333   -9.7404   24.7408 N   0  0  0  0  0  0  0  0  0  0  0  0
  -26.6425  -33.4093   21.7180 N   0  0  0  0  0  0  0  0  0  0  0  0
  -22.1108  -29.6674   24.6332 N   0  0  0  0  0  0  0  0  0  0  0  0
  -25.2446  -18.4503   18.8438 N   0  0  0  0  0  0  0  0  0  0  0  0
  -19.7130  -27.3512   23.2357 N   0  3  0  0  0  0  0  0  0  0  0  0
  -26.4138  -11.4473   25.7163 O   0  0  0  0  0  0  0  0  0  0  0  0
  -27.1695  -31.3371   22.6405 O   0  0  0  0  0  0  0  0  0  0  0  0
  -23.2361  -32.1121   23.6504 O   0  0  0  0  0  0  0  0  0  0  0  0
  -22.4141  -27.4527   24.0168 O   0  0  0  0  0  0  0  0  0  0  0  0
  -26.2175  -16.3805   18.7598 O   0  0  0  0  0  0  0  0  0  0  0  0
  -21.8498   -6.9081   21.3400 O   0  0  0  0  0  0  0  0  0  0  0  0
  -30.1603  -20.2734   18.9108 O   0  0  0  0  0  0  0  0  0  0  0  0
  -27.5451  -25.8970   19.8211 O   0  0  0  0  0  0  0  0  0  1  0  0
  -19.7395   -3.7976   25.3743 F   0  0  0  0  0  0  0  0  0  0  0  0
  -19.1673   -6.2398   21.3601 F   0  0  0  0  0  0  0  0  0  0  0  0
  1  2  1  0  0  0  0
  1  5  2  0  0  0  0
  2  6  2  0  0  0  0
  3  8  2  0  0  0  0
  3 17  1  0  0  0  0
  4  9  1  0  0  0  0
  4 17  2  0  0  0  0
  5 19  1  0  0  0  0
  6 21  1  0  0  0  0
  7 10  2  0  0  0  0
  7 20  1  0  0  0  0
  8 26  1  0  0  0  0
  9 26  2  0  0  0  0
 10 27  1  0  0  0  0
 11 12  2  0  0  0  0
 11 28  1  0  0  0  0
 12 30  1  0  0  0  0
 13 22  2  0  0  0  0
 13 24  1  0  0  0  0
 14 23  1  0  0  0  0
 14 27  2  0  0  0  0
 15 25  1  0  0  0  0
 15 29  2  0  0  0  0
 16 30  2  0  0  0  0
 16 31  1  0  0  0  0
 17 32  1  0  0  0  0
 18 32  1  0  0  0  0
 18 33  2  0  0  0  0
 18 34  1  0  0  0  0
 19 21  2  0  0  0  0
 19 39  1  0  0  0  0
 20 23  2  0  0  0  0
 20 40  1  0  0  0  0
 21 50  1  0  0  0  0
 22 29  1  0  0  0  0
 22 49  1  0  0  0  0
 23 41  1  0  0  0  0
 24 25  2  0  0  0  0
 24 63  1  0  0  0  0
 25 55  1  0  0  0  0
 26 82  1  0  0  0  0
 27 84  1  0  0  0  0
 28 31  2  0  0  0  0
 28 82  1  0  0  0  0
 29 83  1  0  0  0  0
 30 85  1  0  0  0  0
 31 86  1  0  0  0  0
 32 67  2  0  0  0  0
 33 68  1  0  0  0  0
 33 71  1  0  0  0  0
 34 72  1  0  0  0  0
 34 77  2  0  0  0  0
 35 51  1  0  0  0  0
 35 73  1  0  0  0  0
 35 78  2  0  0  0  0
 36 64  1  0  0  0  0
 36 69  1  0  0  0  0
 36 79  2  0  0  0  0
 37 65  1  0  0  0  0
 37 74  1  0  0  0  0
 37 80  2  0  0  0  0
 38 70  1  0  0  0  0
 38 75  1  0  0  0  0
 38 81  2  0  0  0  0
 39 42  1  0  0  0  0
 40 51  1  0  0  0  0
 41 69  1  0  0  0  0
 42 44  1  0  0  0  0
 43 45  1  0  0  0  0
 43 47  1  0  0  0  0
 44 50  1  0  0  0  0
 45 53  1  0  0  0  0
 46 49  1  0  0  0  0
 46 54  1  0  0  0  0
 47 70  1  0  0  0  0
 48 53  1  0  0  0  0
 48 70  1  0  0  0  0
 49 52  1  0  0  0  0
 50 73  1  0  0  0  0
 51 69  1  0  0  0  0
 52 54  1  0  0  0  0
 52 56  1  0  0  0  0
 53 68  1  0  0  0  0
 54 75  1  0  0  0  0
 57 65  1  0  0  0  0
 58 66  1  0  0  0  0
 59 66  1  0  0  0  0
 60 66  1  0  0  0  0
 61 76  1  0  0  0  0
 62 83  1  0  0  0  0
 63 84  1  0  0  0  0
 64 66  1  0  0  0  0
 64 74  1  0  0  0  0
 65 76  1  0  0  0  0
 67 68  1  0  0  0  0
M  CHG  1  76   1
M  ISO  4  38 100  63 101  75 100  84 101
M  END
> <Batch ID>
0156

> <Smiles>
CNC(C)C(=O)NC(C(=O)N1Cc2cc([101O:1][101CH2:1]c3cc(C4CC([100NH:0][100C:0](=O)N5CCCC(n6nc(-c7ccc(Oc8ccc(F)cc8F)cc7)c(C(N)=O)c6N)C5)C4C)c(OC)cc3C)ccc2CC1C(=O)NC1CCCc2ccccc21)C(C)(C)C

> <Shape>
0.225

> <Color>
0.093

> <Negative vol penalty>
0.000

$$$$

  -OEChem-04052321563D

 86 95  0     1  0  0  0  0  0999 V2000
  -29.5687  -25.3526   13.7246 C   0  0  0  0  0  0  0  0  0  0  0  0
  -28.6029  -25.3432   14.7258 C   0  0  0  0  0  0  0  0  0  0  0  0
  -28.5507  -18.3685   21.5035 C   0  0  0  0  0  0  0  0  0  0  0  0
  -26.4199  -18.4519   20.3678 C   0  0  0  0  0  0  0  0  0  0  0  0
  -30.9212  -25.3768   14.0624 C   0  0  0  0  0  0  0  0  0  0  0  0
  -28.9890  -25.3568   16.0656 C   0  0  0  0  0  0  0  0  0  0  0  0
  -26.2823  -28.6206   18.8344 C   0  0  0  0  0  0  0  0  0  0  0  0
  -28.6542  -17.0089   21.2094 C   0  0  0  0  0  0  0  0  0  0  0  0
  -26.5234  -17.0923   20.0737 C   0  0  0  0  0  0  0  0  0  0  0  0
  -25.0013  -28.2232   19.2151 C   0  0  0  0  0  0  0  0  0  0  0  0
  -26.0594  -14.1536   21.6797 C   0  0  0  0  0  0  0  0  0  0  0  0
  -24.9312  -13.3589   21.8827 C   0  0  0  0  0  0  0  0  0  0  0  0
  -25.8392  -27.6365   21.3998 C   0  0  0  0  0  0  0  0  0  0  0  0
  -24.9261  -12.7678   19.5401 C   0  0  0  0  0  0  0  0  0  0  0  0
  -27.4335  -19.0900   21.0828 C   0  0  0  0  0  0  0  0  0  0  0  0
  -27.7845  -21.5711   20.6045 C   0  0  0  0  0  0  0  0  0  0  0  0
  -31.3239  -25.4006   15.4070 C   0  0  0  0  0  0  0  0  0  0  0  0
  -27.3553  -28.5185   19.7315 C   0  0  0  0  0  0  0  0  0  0  0  0
  -30.3482  -25.3800   16.4218 C   0  0  0  0  0  0  0  0  0  0  0  0
  -27.1324  -28.0356   21.0289 C   0  0  0  0  0  0  0  0  0  0  0  0
  -19.9997  -23.9932   22.1383 C   0  0  0  0  0  0  0  0  0  0  0  0
  -20.7288  -24.7426   23.0690 C   0  0  0  0  0  0  0  0  0  0  0  0
  -19.6718  -24.5168   20.8985 C   0  0  0  0  0  0  0  0  0  0  0  0
  -21.1365  -26.0354   22.7798 C   0  0  0  0  0  0  0  0  0  0  0  0
  -20.0735  -25.8210   20.6023 C   0  0  0  0  0  0  0  0  0  0  0  0
  -20.8001  -26.5753   21.5367 C   0  0  0  0  0  0  0  0  0  0  0  0
  -27.6406  -16.3709   20.4945 C   0  0  0  0  0  0  0  0  0  0  0  0
  -24.7802  -27.7284   20.4970 C   0  0  0  0  0  0  0  0  0  0  0  0
  -26.6209  -14.2555   20.4069 C   0  0  0  0  0  0  0  0  0  0  0  0
  -24.3646  -12.6660   20.8129 C   0  0  0  0  0  0  0  0  0  0  0  0
  -26.0543  -13.5626   19.3371 C   0  0  0  0  0  0  0  0  0  0  0  0
  -27.3257  -20.4943   21.3867 C   0  0  0  0  0  0  0  0  0  0  0  0
  -27.4431  -22.6892   21.3255 C   0  0  0  0  0  0  0  0  0  0  0  0
  -28.4590  -21.5614   19.3393 C   0  0  0  0  0  0  0  0  0  0  0  0
  -30.0977  -26.9120   19.7749 C   0  0  0  0  0  0  0  0  0  0  0  0
  -30.6247  -28.6525   22.4610 C   0  0  0  0  0  0  0  0  0  0  0  0
  -28.7101  -29.7142   25.3288 C   0  0  0  0  0  0  0  0  0  0  0  0
  -23.2066  -23.7658   25.4174 C   0  0  0  0  0  0  0  0  0  0  0  0
  -32.7984  -25.3787   15.7236 C   0  0  0  0  0  0  0  0  0  0  0  0
  -28.7259  -28.9764   19.3141 C   0  0  0  0  0  0  0  0  0  0  0  0
  -19.7074  -22.6189   22.6592 C   0  0  0  0  0  0  0  0  0  0  0  0
  -28.2466  -27.9250   22.0362 C   0  0  0  0  0  0  0  0  0  0  0  0
  -33.1179  -25.7705   17.1640 C   0  0  0  0  0  0  0  0  0  0  0  0
  -26.7211  -24.1727   25.8164 C   0  0  0  0  0  0  0  0  0  0  0  0
  -32.1927  -25.0416   18.1333 C   0  0  0  0  0  0  0  0  0  0  0  0
  -27.3160  -23.3733   24.6558 C   0  0  0  0  0  0  0  0  0  0  0  0
  -25.4723  -23.5007   26.3830 C   0  0  0  0  0  0  0  0  0  0  0  0
  -25.0231  -22.3948   24.2269 C   0  0  0  0  0  0  0  0  0  0  0  0
  -30.7271  -25.4193   17.8864 C   0  0  1  0  0  0  0  0  0  0  0  0
  -20.9896  -23.9515   24.3176 C   0  0  1  0  0  0  0  0  0  0  0  0
  -29.8434  -28.3471   20.1403 C   0  0  1  0  0  0  0  0  0  0  0  0
  -26.2521  -23.0618   23.5860 C   0  0  2  0  0  0  0  0  0  0  0  0
  -19.9785  -22.7960   24.1635 C   0  0  1  0  0  0  0  0  0  0  0  0
  -18.9122  -23.6992   19.9088 C   0  0  0  0  0  0  0  0  0  0  0  0
  -21.9146  -26.8267   23.7771 C   0  0  0  0  0  0  0  0  0  0  0  0
  -19.7292  -26.4178   19.2729 C   0  0  0  0  0  0  0  0  0  0  0  0
  -28.9843  -31.7094   26.8259 C   0  0  0  0  0  0  0  0  0  0  0  0
  -32.2453  -26.7518   24.2135 C   0  0  0  0  0  0  0  0  0  0  0  0
  -31.2306  -27.8497   26.2217 C   0  0  0  0  0  0  0  0  0  0  0  0
  -32.6479  -29.1797   24.6581 C   0  0  0  0  0  0  0  0  0  0  0  0
  -25.9269  -30.6002   24.8517 C   0  0  0  0  0  0  0  0  0  0  0  0
  -21.2256  -27.9822   21.1933 C   0  0  0  0  0  0  0  0  0  0  0  0
  -22.4309  -28.0119   20.2598 C   0  0  0  0  0  0  0  0  0  1  0  0
  -30.3345  -28.4650   23.9305 C   0  0  1  0  0  0  0  0  0  0  0  0
  -28.2396  -31.1244   25.6360 C   0  0  2  0  0  0  0  0  0  0  0  0
  -31.5980  -28.0499   24.7359 C   0  0  0  0  0  0  0  0  0  0  0  0
  -26.7378  -20.8925   22.5180 N   0  0  0  0  0  0  0  0  0  0  0  0
  -26.8249  -22.2319   22.4520 N   0  0  0  0  0  0  0  0  0  0  0  0
  -29.5700  -28.3795   21.5785 N   0  0  0  0  0  0  0  0  0  0  0  0
  -24.5029  -23.2341   25.3177 N   0  0  0  0  0  0  0  0  0  0  0  0
  -27.6145  -24.0090   21.0994 N   0  0  0  0  0  0  0  0  0  0  0  0
  -28.7323  -20.3257   18.7373 N   0  0  0  0  0  0  0  0  0  0  0  0
  -30.4388  -26.7209   18.4495 N   0  0  0  0  0  0  0  0  0  0  0  0
  -29.7163  -29.7054   24.3861 N   0  0  0  0  0  0  0  0  0  0  0  0
  -22.3525  -23.4706   24.3618 N   0  0  0  0  0  0  0  0  0  0  0  0
  -26.7819  -31.1282   25.9458 N   0  3  0  0  0  0  0  0  0  0  0  0
  -28.8235  -22.6168   18.7677 O   0  0  0  0  0  0  0  0  0  0  0  0
  -29.9937  -26.0427   20.6323 O   0  0  0  0  0  0  0  0  0  0  0  0
  -31.7438  -29.0343   22.1095 O   0  0  0  0  0  0  0  0  0  0  0  0
  -28.2352  -28.7201   25.8736 O   0  0  0  0  0  0  0  0  0  0  0  0
  -22.8393  -24.4572   26.3735 O   0  0  0  0  0  0  0  0  0  0  0  0
  -18.7513  -23.1530   24.8062 O   0  0  0  0  0  0  0  0  0  0  0  0
  -27.7415  -15.0443   20.2072 O   0  0  0  0  0  0  0  0  0  0  0  0
  -23.5310  -27.3392   20.8710 O   0  0  0  0  0  0  0  0  0  1  0  0
  -23.2821  -11.9016   21.0083 F   0  0  0  0  0  0  0  0  0  0  0  0
  -26.5900  -13.6556   18.1123 F   0  0  0  0  0  0  0  0  0  0  0  0
  1  2  1  0  0  0  0
  1  5  2  0  0  0  0
  2  6  2  0  0  0  0
  3  8  2  0  0  0  0
  3 15  1  0  0  0  0
  4  9  1  0  0  0  0
  4 15  2  0  0  0  0
  5 17  1  0  0  0  0
  6 19  1  0  0  0  0
  7 10  2  0  0  0  0
  7 18  1  0  0  0  0
  8 27  1  0  0  0  0
  9 27  2  0  0  0  0
 10 28  1  0  0  0  0
 11 12  2  0  0  0  0
 11 29  1  0  0  0  0
 12 30  1  0  0  0  0
 13 20  1  0  0  0  0
 13 28  2  0  0  0  0
 14 30  2  0  0  0  0
 14 31  1  0  0  0  0
 15 32  1  0  0  0  0
 16 32  1  0  0  0  0
 16 33  2  0  0  0  0
 16 34  1  0  0  0  0
 17 19  2  0  0  0  0
 17 39  1  0  0  0  0
 18 20  2  0  0  0  0
 18 40  1  0  0  0  0
 19 49  1  0  0  0  0
 20 42  1  0  0  0  0
 21 22  2  0  0  0  0
 21 23  1  0  0  0  0
 21 41  1  0  0  0  0
 22 24  1  0  0  0  0
 22 50  1  0  0  0  0
 23 25  2  0  0  0  0
 23 54  1  0  0  0  0
 24 26  2  0  0  0  0
 24 55  1  0  0  0  0
 25 26  1  0  0  0  0
 25 56  1  0  0  0  0
 26 62  1  0  0  0  0
 27 83  1  0  0  0  0
 28 84  1  0  0  0  0
 29 31  2  0  0  0  0
 29 83  1  0  0  0  0
 30 85  1  0  0  0  0
 31 86  1  0  0  0  0
 32 67  2  0  0  0  0
 33 68  1  0  0  0  0
 33 71  1  0  0  0  0
 34 72  1  0  0  0  0
 34 77  2  0  0  0  0
 35 51  1  0  0  0  0
 35 73  1  0  0  0  0
 35 78  2  0  0  0  0
 36 64  1  0  0  0  0
 36 69  1  0  0  0  0
 36 79  2  0  0  0  0
 37 65  1  0  0  0  0
 37 74  1  0  0  0  0
 37 80  2  0  0  0  0
 38 70  1  0  0  0  0
 38 75  1  0  0  0  0
 38 81  2  0  0  0  0
 39 43  1  0  0  0  0
 40 51  1  0  0  0  0
 41 53  1  0  0  0  0
 42 69  1  0  0  0  0
 43 45  1  0  0  0  0
 44 46  1  0  0  0  0
 44 47  1  0  0  0  0
 45 49  1  0  0  0  0
 46 52  1  0  0  0  0
 47 70  1  0  0  0  0
 48 52  1  0  0  0  0
 48 70  1  0  0  0  0
 49 73  1  0  0  0  0
 50 53  1  0  0  0  0
 50 75  1  0  0  0  0
 51 69  1  0  0  0  0
 52 68  1  0  0  0  0
 53 82  1  0  0  0  0
 57 65  1  0  0  0  0
 58 66  1  0  0  0  0
 59 66  1  0  0  0  0
 60 66  1  0  0  0  0
 61 76  1  0  0  0  0
 62 63  1  0  0  0  0
 63 84  1  0  0  0  0
 64 66  1  0  0  0  0
 64 74  1  0  0  0  0
 65 76  1  0  0  0  0
 67 68  1  0  0  0  0
M  CHG  1  76   1
M  ISO  4  38 100  63 101  75 100  84 101
M  END
> <Batch ID>
0156

> <Smiles>
CNC(C)C(=O)NC(C(=O)N1Cc2cc([101O:1][101CH2:1]Cc3c(C)c(C)c4c(c3C)C([100NH:0][100C:0](=O)N3CCCC(n5nc(-c6ccc(Oc7ccc(F)cc7F)cc6)c(C(N)=O)c5N)C3)C(O)C4)ccc2CC1C(=O)NC1CCCc2ccccc21)C(C)(C)C

> <Shape>
0.197

> <Color>
0.044

> <Negative vol penalty>
0.000

$$$$

  -OEChem-04052321563D

 86 95  0     1  0  0  0  0  0999 V2000
  -24.3140  -19.5081   22.0995 C   0  0  0  0  0  0  0  0  0  0  0  0
  -24.9441  -20.6361   21.5837 C   0  0  0  0  0  0  0  0  0  0  0  0
  -26.2204  -12.7541   21.5926 C   0  0  0  0  0  0  0  0  0  0  0  0
  -25.7992  -13.5218   19.3409 C   0  0  0  0  0  0  0  0  0  0  0  0
  -22.9729  -19.5708   22.4752 C   0  0  0  0  0  0  0  0  0  0  0  0
  -24.2330  -21.8272   21.4423 C   0  0  0  0  0  0  0  0  0  0  0  0
  -26.8465  -25.8533   23.0565 C   0  0  0  0  0  0  0  0  0  0  0  0
  -25.0258  -12.0344   21.5708 C   0  0  0  0  0  0  0  0  0  0  0  0
  -24.6045  -12.8021   19.3191 C   0  0  0  0  0  0  0  0  0  0  0  0
  -27.8355  -26.3516   22.2096 C   0  0  0  0  0  0  0  0  0  0  0  0
  -22.2643   -9.7053   21.9760 C   0  0  0  0  0  0  0  0  0  0  0  0
  -22.2850   -8.3991   22.4649 C   0  0  0  0  0  0  0  0  0  0  0  0
  -30.0882  -22.3832   17.5471 C   0  0  0  0  0  0  0  0  0  0  0  0
  -26.3273  -28.0869   21.4793 C   0  0  0  0  0  0  0  0  0  0  0  0
  -23.9239   -7.7997   20.7940 C   0  0  0  0  0  0  0  0  0  0  0  0
  -30.5349  -20.4470   16.2402 C   0  0  0  0  0  0  0  0  0  0  0  0
  -26.6071  -13.4978   20.4777 C   0  0  0  0  0  0  0  0  0  0  0  0
  -29.1142  -13.7885   20.1068 C   0  0  0  0  0  0  0  0  0  0  0  0
  -22.2476  -20.7659   22.3475 C   0  0  0  0  0  0  0  0  0  0  0  0
  -25.5847  -26.4624   23.1131 C   0  0  0  0  0  0  0  0  0  0  0  0
  -22.8805  -21.9056   21.8155 C   0  0  0  0  0  0  0  0  0  0  0  0
  -30.1560  -23.1453   16.3861 C   0  0  0  0  0  0  0  0  0  0  0  0
  -25.3248  -27.5959   22.3296 C   0  0  0  0  0  0  0  0  0  0  0  0
  -30.2801  -21.0077   17.4814 C   0  0  0  0  0  0  0  0  0  0  0  0
  -24.2178  -12.0584   20.4340 C   0  0  0  0  0  0  0  0  0  0  0  0
  -27.5751  -27.4669   21.4187 C   0  0  0  0  0  0  0  0  0  0  0  0
  -23.0733  -10.0587   20.8960 C   0  0  0  0  0  0  0  0  0  0  0  0
  -23.1148   -7.4463   21.8739 C   0  0  0  0  0  0  0  0  0  0  0  0
  -23.9031   -9.1059   20.3050 C   0  0  0  0  0  0  0  0  0  0  0  0
  -27.8408  -14.2419   20.4999 C   0  0  0  0  0  0  0  0  0  0  0  0
  -30.4166  -22.4889   15.1940 C   0  0  0  0  0  0  0  0  0  0  0  0
  -29.9419  -14.8640   20.3178 C   0  0  0  0  0  0  0  0  0  0  0  0
  -29.5133  -12.5094   19.5966 C   0  0  0  0  0  0  0  0  0  0  0  0
  -22.6139  -25.5321   22.4710 C   0  0  0  0  0  0  0  0  0  0  0  0
  -21.8542  -28.4366   23.6995 C   0  0  0  0  0  0  0  0  0  0  0  0
  -22.8273  -31.6333   24.3934 C   0  0  0  0  0  0  0  0  0  0  0  0
  -29.9711  -20.6283   19.9526 C   0  0  0  0  0  0  0  0  0  0  0  0
  -20.7869  -20.7723   22.7229 C   0  0  0  0  0  0  0  0  0  0  0  0
  -24.5374  -25.9287   24.0517 C   0  0  0  0  0  0  0  0  0  0  0  0
  -23.9933  -28.2986   22.3687 C   0  0  0  0  0  0  0  0  0  0  0  0
  -20.2073  -22.1745   22.8910 C   0  0  0  0  0  0  0  0  0  0  0  0
  -29.6987  -18.9585   23.0854 C   0  0  0  0  0  0  0  0  0  0  0  0
  -20.6250  -23.0677   21.7272 C   0  0  0  0  0  0  0  0  0  0  0  0
  -29.3164  -17.5272   22.7014 C   0  0  0  0  0  0  0  0  0  0  0  0
  -28.5442  -24.9437   16.9816 C   0  0  0  0  0  0  0  0  0  0  0  0
  -31.0240  -25.2713   17.3419 C   0  0  0  0  0  0  0  0  0  0  0  0
  -29.0420  -19.9870   22.1663 C   0  0  0  0  0  0  0  0  0  0  0  0
  -28.8772  -18.3340   20.3470 C   0  0  0  0  0  0  0  0  0  0  0  0
  -28.3330  -26.4442   17.1382 C   0  0  0  0  0  0  0  0  0  0  0  0
  -30.7939  -26.7694   17.4953 C   0  0  0  0  0  0  0  0  0  0  0  0
  -29.9512  -24.6245   16.4511 C   0  0  0  0  0  0  0  0  0  0  0  0
  -22.1496  -23.2226   21.6701 C   0  0  1  0  0  0  0  0  0  0  0  0
  -23.1188  -26.3182   23.6477 C   0  0  1  0  0  0  0  0  0  0  0  0
  -29.5661  -17.2597   21.2042 C   0  0  2  0  0  0  0  0  0  0  0  0
  -30.5003  -23.2554   13.9148 C   0  0  0  0  0  0  0  0  0  0  0  0
  -21.9756  -33.7847   25.3647 C   0  0  0  0  0  0  0  0  0  0  0  0
  -20.2936  -28.9746   21.1333 C   0  0  0  0  0  0  0  0  0  0  0  0
  -20.2804  -31.4052   21.7335 C   0  0  0  0  0  0  0  0  0  0  0  0
  -19.1611  -29.7481   23.2247 C   0  0  0  0  0  0  0  0  0  0  0  0
  -24.8526  -31.5957   26.5511 C   0  0  0  0  0  0  0  0  0  0  0  0
  -29.1707  -28.4683   18.3281 C   0  0  0  0  0  0  0  0  0  0  0  0
  -28.1015  -28.5995   19.3948 C   0  0  0  0  0  0  0  0  0  1  0  0
  -21.6865  -29.8261   23.1336 C   0  0  1  0  0  0  0  0  0  0  0  0
  -22.6961  -32.4760   25.6492 C   0  0  2  0  0  0  0  0  0  0  0  0
  -20.3799  -29.9743   22.3039 C   0  0  0  0  0  0  0  0  0  0  0  0
  -30.6084  -21.1547   15.0907 N   0  0  0  0  0  0  0  0  0  0  0  0
  -27.8535  -15.5070   20.9283 N   0  0  0  0  0  0  0  0  0  0  0  0
  -29.1450  -15.8576   20.8057 N   0  0  0  0  0  0  0  0  0  0  0  0
  -22.9997  -27.7351   23.2976 N   0  0  0  0  0  0  0  0  0  0  0  0
  -29.3252  -19.6719   20.7644 N   0  0  0  0  0  0  0  0  0  0  0  0
  -31.2664  -15.0474   20.1318 N   0  0  0  0  0  0  0  0  0  0  0  0
  -28.5356  -11.5171   19.4420 N   0  0  0  0  0  0  0  0  0  0  0  0
  -30.2171  -20.2045   18.6470 N   0  0  0  0  0  0  0  0  0  0  0  0
  -22.5997  -24.1651   22.6719 N   0  0  0  0  0  0  0  0  0  0  0  0
  -21.7830  -30.7421   24.2650 N   0  0  0  0  0  0  0  0  0  0  0  0
  -29.4024  -27.0303   18.0407 N   0  3  0  0  0  0  0  0  0  0  0  0
  -24.0427  -32.7918   26.2041 N   0  3  0  0  0  0  0  0  0  0  0  0
  -30.7045  -12.2486   19.3023 O   0  0  0  0  0  0  0  0  0  0  0  0
  -22.2617  -26.1223   21.4564 O   0  0  0  0  0  0  0  0  0  0  0  0
  -21.0040  -27.9929   24.4753 O   0  0  0  0  0  0  0  0  0  0  0  0
  -23.7606  -31.7561   23.6033 O   0  0  0  0  0  0  0  0  0  0  0  0
  -30.3075  -21.7311   20.3915 O   0  0  0  0  0  0  0  0  0  0  0  0
  -23.0522  -11.3561   20.4123 O   0  0  0  0  0  0  0  0  0  0  0  0
  -28.5384  -27.9550   20.5907 O   0  0  0  0  0  0  0  0  0  1  0  0
  -23.1358   -6.1924   22.3445 F   0  0  0  0  0  0  0  0  0  0  0  0
  -24.6835   -9.4398   19.2680 F   0  0  0  0  0  0  0  0  0  0  0  0
  1  2  1  0  0  0  0
  1  5  2  0  0  0  0
  2  6  2  0  0  0  0
  3  8  2  0  0  0  0
  3 17  1  0  0  0  0
  4  9  1  0  0  0  0
  4 17  2  0  0  0  0
  5 19  1  0  0  0  0
  6 21  1  0  0  0  0
  7 10  2  0  0  0  0
  7 20  1  0  0  0  0
  8 25  1  0  0  0  0
  9 25  2  0  0  0  0
 10 26  1  0  0  0  0
 11 12  2  0  0  0  0
 11 27  1  0  0  0  0
 12 28  1  0  0  0  0
 13 22  1  0  0  0  0
 13 24  2  0  0  0  0
 14 23  1  0  0  0  0
 14 26  2  0  0  0  0
 15 28  2  0  0  0  0
 15 29  1  0  0  0  0
 16 24  1  0  0  0  0
 16 66  2  0  0  0  0
 17 30  1  0  0  0  0
 18 30  1  0  0  0  0
 18 32  2  0  0  0  0
 18 33  1  0  0  0  0
 19 21  2  0  0  0  0
 19 38  1  0  0  0  0
 20 23  2  0  0  0  0
 20 39  1  0  0  0  0
 21 52  1  0  0  0  0
 22 31  2  0  0  0  0
 22 51  1  0  0  0  0
 23 40  1  0  0  0  0
 24 73  1  0  0  0  0
 25 83  1  0  0  0  0
 26 84  1  0  0  0  0
 27 29  2  0  0  0  0
 27 83  1  0  0  0  0
 28 85  1  0  0  0  0
 29 86  1  0  0  0  0
 30 67  2  0  0  0  0
 31 55  1  0  0  0  0
 31 66  1  0  0  0  0
 32 68  1  0  0  0  0
 32 71  1  0  0  0  0
 33 72  1  0  0  0  0
 33 78  2  0  0  0  0
 34 53  1  0  0  0  0
 34 74  1  0  0  0  0
 34 79  2  0  0  0  0
 35 63  1  0  0  0  0
 35 69  1  0  0  0  0
 35 80  2  0  0  0  0
 36 64  1  0  0  0  0
 36 75  1  0  0  0  0
 36 81  2  0  0  0  0
 37 70  1  0  0  0  0
 37 73  1  0  0  0  0
 37 82  2  0  0  0  0
 38 41  1  0  0  0  0
 39 53  1  0  0  0  0
 40 69  1  0  0  0  0
 41 43  1  0  0  0  0
 42 44  1  0  0  0  0
 42 47  1  0  0  0  0
 43 52  1  0  0  0  0
 44 54  1  0  0  0  0
 45 49  1  0  0  0  0
 45 51  1  0  0  0  0
 46 50  1  0  0  0  0
 46 51  1  0  0  0  0
 47 70  1  0  0  0  0
 48 54  1  0  0  0  0
 48 70  1  0  0  0  0
 49 76  1  0  0  0  0
 50 76  1  0  0  0  0
 52 74  1  0  0  0  0
 53 69  1  0  0  0  0
 54 68  1  0  0  0  0
 56 64  1  0  0  0  0
 57 65  1  0  0  0  0
 58 65  1  0  0  0  0
 59 65  1  0  0  0  0
 60 77  1  0  0  0  0
 61 62  1  0  0  0  0
 61 76  1  0  0  0  0
 62 84  1  0  0  0  0
 63 65  1  0  0  0  0
 63 75  1  0  0  0  0
 64 77  1  0  0  0  0
 67 68  1  0  0  0  0
M  CHG  2  76   1  77   1
M  ISO  4  37 100  62 101  73 100  84 101
M  END
> <Batch ID>
0156

> <Smiles>
CNC(C)C(=O)NC(C(=O)N1Cc2cc([101O:1][101CH2:1]CN3CCC(c4cc([100NH:0][100C:0](=O)N5CCCC(n6nc(-c7ccc(Oc8ccc(F)cc8F)cc7)c(C(N)=O)c6N)C5)cnc4C)CC3)ccc2CC1C(=O)NC1CCCc2ccccc21)C(C)(C)C

> <Shape>
0.239

> <Color>
0.062

> <Negative vol penalty>
0.000

$$$$

  -OEChem-04052321563D

 89 98  0     1  0  0  0  0  0999 V2000
  -20.5338  -29.0357   22.0608 C   0  0  0  0  0  0  0  0  0  0  0  0
  -21.3213  -27.9230   21.7878 C   0  0  0  0  0  0  0  0  0  0  0  0
  -26.5265  -28.4664   18.8716 C   0  0  0  0  0  0  0  0  0  0  0  0
  -25.7622  -27.2213   20.7958 C   0  0  0  0  0  0  0  0  0  0  0  0
  -19.2982  -28.8744   22.6841 C   0  0  0  0  0  0  0  0  0  0  0  0
  -20.8684  -26.6476   22.1272 C   0  0  0  0  0  0  0  0  0  0  0  0
  -23.5746  -22.8344   20.5977 C   0  0  0  0  0  0  0  0  0  0  0  0
  -26.0223  -29.6405   19.4310 C   0  0  0  0  0  0  0  0  0  0  0  0
  -25.2580  -28.3954   21.3553 C   0  0  0  0  0  0  0  0  0  0  0  0
  -24.8143  -22.5194   21.1522 C   0  0  0  0  0  0  0  0  0  0  0  0
  -26.4655  -31.0812   23.0132 C   0  0  0  0  0  0  0  0  0  0  0  0
  -26.7226  -31.3162   24.3638 C   0  0  0  0  0  0  0  0  0  0  0  0
  -23.7989  -20.7063   22.3774 C   0  0  0  0  0  0  0  0  0  0  0  0
  -26.2879  -16.1490   19.2230 C   0  0  0  0  0  0  0  0  0  0  0  0
  -24.3483  -31.3578   24.8086 C   0  0  0  0  0  0  0  0  0  0  0  0
  -26.3964  -27.2568   19.5540 C   0  0  0  0  0  0  0  0  0  0  0  0
  -28.2078  -25.5082   19.1431 C   0  0  0  0  0  0  0  0  0  0  0  0
  -18.8362  -27.5972   23.0422 C   0  0  0  0  0  0  0  0  0  0  0  0
  -22.4337  -22.0933   20.9378 C   0  0  0  0  0  0  0  0  0  0  0  0
  -19.6136  -26.4620   22.7352 C   0  0  0  0  0  0  0  0  0  0  0  0
  -22.5463  -21.0123   21.8238 C   0  0  0  0  0  0  0  0  0  0  0  0
  -26.7280  -16.1319   21.6120 C   0  0  0  0  0  0  0  0  0  0  0  0
  -27.4544  -17.3346   21.4922 C   0  0  0  0  0  0  0  0  0  0  0  0
  -27.0348  -17.3151   19.0930 C   0  0  0  0  0  0  0  0  0  0  0  0
  -25.3880  -29.6050   20.6728 C   0  0  0  0  0  0  0  0  0  0  0  0
  -24.9262  -21.4570   22.0444 C   0  0  0  0  0  0  0  0  0  0  0  0
  -25.1498  -30.9846   22.5602 C   0  0  0  0  0  0  0  0  0  0  0  0
  -26.1343  -15.5599   20.4761 C   0  0  0  0  0  0  0  0  0  0  0  0
  -27.6181  -17.9007   20.2175 C   0  0  0  0  0  0  0  0  0  0  0  0
  -25.6640  -31.4545   25.2615 C   0  0  0  0  0  0  0  0  0  0  0  0
  -24.0912  -31.1228   23.4579 C   0  0  0  0  0  0  0  0  0  0  0  0
  -26.9165  -26.0436   18.9764 C   0  0  0  0  0  0  0  0  0  0  0  0
  -28.2008  -24.3559   18.3957 C   0  0  0  0  0  0  0  0  0  0  0  0
  -29.3146  -26.0078   19.9054 C   0  0  0  0  0  0  0  0  0  0  0  0
  -19.6654  -22.7589   22.3511 C   0  0  0  0  0  0  0  0  0  0  0  0
  -18.9664  -19.6937   21.5523 C   0  0  0  0  0  0  0  0  0  0  0  0
  -20.1027  -16.5684   20.7852 C   0  0  0  0  0  0  0  0  0  0  0  0
  -25.7159  -19.6378   16.7495 C   0  0  0  0  0  0  0  0  0  0  0  0
  -17.4877  -27.4794   23.7078 C   0  0  0  0  0  0  0  0  0  0  0  0
  -21.1086  -22.4290   20.3104 C   0  0  0  0  0  0  0  0  0  0  0  0
  -26.5310  -15.4673   22.9523 C   0  0  0  0  0  0  0  0  0  0  0  0
  -21.3557  -20.1727   22.2058 C   0  0  0  0  0  0  0  0  0  0  0  0
  -17.2930  -26.1476   24.4251 C   0  0  0  0  0  0  0  0  0  0  0  0
  -24.8364  -22.6317   15.0350 C   0  0  0  0  0  0  0  0  0  0  0  0
  -17.6700  -24.9995   23.5009 C   0  0  0  0  0  0  0  0  0  0  0  0
  -25.4001  -23.7415   15.9242 C   0  0  0  0  0  0  0  0  0  0  0  0
  -24.2989  -21.4650   15.8608 C   0  0  0  0  0  0  0  0  0  0  0  0
  -25.8181  -22.0124   17.7227 C   0  0  0  0  0  0  0  0  0  0  0  0
  -27.5987  -15.8573   23.9616 C   0  0  0  0  0  0  0  0  0  0  0  0
  -19.1551  -25.0677   23.1229 C   0  0  1  0  0  0  0  0  0  0  0  0
  -28.1106  -17.9641   22.7064 C   0  0  1  0  0  0  0  0  0  0  0  0
  -19.9186  -21.9296   21.1239 C   0  0  1  0  0  0  0  0  0  0  0  0
  -26.4229  -23.1862   16.9335 C   0  0  2  0  0  0  0  0  0  0  0  0
  -20.0037  -14.1663   20.0659 C   0  0  0  0  0  0  0  0  0  0  0  0
  -28.5917  -20.0208   24.0611 C   0  0  0  0  0  0  0  0  0  0  0  0
  -18.2601  -19.2229   24.4830 C   0  0  0  0  0  0  0  0  0  0  0  0
  -18.3867  -16.7610   24.0458 C   0  0  0  0  0  0  0  0  0  0  0  0
  -16.6982  -18.1533   22.8487 C   0  0  0  0  0  0  0  0  0  0  0  0
  -20.3409  -17.2940   17.9258 C   0  0  0  0  0  0  0  0  0  0  0  0
  -23.9968  -14.5725   20.8106 C   0  0  0  0  0  0  0  0  0  0  0  0
  -29.7752  -18.7781   19.7349 C   0  0  0  0  0  0  0  0  0  0  0  0
  -27.2074  -17.9173   17.7367 C   0  0  0  0  0  0  0  0  0  0  0  0
  -26.3654  -19.7802   22.9235 C   0  0  0  0  0  0  0  0  0  1  0  0
  -19.1386  -18.3496   22.2177 C   0  0  1  0  0  0  0  0  0  0  0  0
  -19.7352  -15.6092   19.6675 C   0  0  2  0  0  0  0  0  0  0  0  0
  -27.8619  -19.4677   22.8390 C   0  0  2  0  0  0  0  0  0  0  0  0
  -18.1432  -18.1385   23.3933 C   0  0  0  0  0  0  0  0  0  0  0  0
  -26.1454  -25.2931   18.1851 N   0  0  0  0  0  0  0  0  0  0  0  0
  -26.9545  -24.2744   17.8479 N   0  0  0  0  0  0  0  0  0  0  0  0
  -20.0807  -20.5445   21.5706 N   0  0  0  0  0  0  0  0  0  0  0  0
  -25.3181  -20.9841   16.7967 N   0  0  0  0  0  0  0  0  0  0  0  0
  -29.1393  -23.4145   18.1603 N   0  0  0  0  0  0  0  0  0  0  0  0
  -29.1510  -27.2056   20.6145 N   0  0  0  0  0  0  0  0  0  0  0  0
  -19.4241  -24.0938   22.0880 N   0  0  0  0  0  0  0  0  0  0  0  0
  -19.0316  -17.3527   21.1579 N   0  0  0  0  0  0  0  0  0  0  0  0
  -26.6912  -19.2662   17.6668 N   0  0  0  0  0  0  0  0  0  0  0  0
  -27.6676  -17.3448   24.0129 N   0  3  0  0  0  0  0  0  0  0  0  0
  -20.5272  -15.9136   18.4423 N   0  3  0  0  0  0  0  0  0  0  0  0
  -30.4212  -25.4183   19.9430 O   0  0  0  0  0  0  0  0  0  0  0  0
  -19.6860  -22.2268   23.4547 O   0  0  0  0  0  0  0  0  0  0  0  0
  -17.8854  -19.9754   21.0290 O   0  0  0  0  0  0  0  0  0  0  0  0
  -21.2265  -16.6146   21.2807 O   0  0  0  0  0  0  0  0  0  0  0  0
  -25.2411  -18.8282   15.9457 O   0  0  0  0  0  0  0  0  0  0  0  0
  -24.8961  -30.7505   21.2191 O   0  0  0  0  0  0  0  0  0  0  0  0
  -25.3930  -14.4181   20.5697 O   0  0  0  0  0  0  0  0  0  0  0  0
  -28.3991  -19.0043   20.0275 O   0  0  0  0  0  0  0  0  0  0  0  0
  -26.1350  -21.1478   22.5876 O   0  0  0  0  0  0  0  0  0  1  0  0
  -25.9111  -31.6786   26.5588 F   0  0  0  0  0  0  0  0  0  0  0  0
  -22.8250  -31.0298   23.0289 F   0  0  0  0  0  0  0  0  0  0  0  0
  1  2  1  0  0  0  0
  1  5  2  0  0  0  0
  2  6  2  0  0  0  0
  3  8  2  0  0  0  0
  3 16  1  0  0  0  0
  4  9  1  0  0  0  0
  4 16  2  0  0  0  0
  5 18  1  0  0  0  0
  6 20  1  0  0  0  0
  7 10  2  0  0  0  0
  7 19  1  0  0  0  0
  8 25  1  0  0  0  0
  9 25  2  0  0  0  0
 10 26  1  0  0  0  0
 11 12  2  0  0  0  0
 11 27  1  0  0  0  0
 12 30  1  0  0  0  0
 13 21  1  0  0  0  0
 13 26  2  0  0  0  0
 14 24  1  0  0  0  0
 14 28  2  0  0  0  0
 15 30  2  0  0  0  0
 15 31  1  0  0  0  0
 16 32  1  0  0  0  0
 17 32  1  0  0  0  0
 17 33  2  0  0  0  0
 17 34  1  0  0  0  0
 18 20  2  0  0  0  0
 18 39  1  0  0  0  0
 19 21  2  0  0  0  0
 19 40  1  0  0  0  0
 20 50  1  0  0  0  0
 21 42  1  0  0  0  0
 22 23  2  0  0  0  0
 22 28  1  0  0  0  0
 22 41  1  0  0  0  0
 23 29  1  0  0  0  0
 23 51  1  0  0  0  0
 24 29  2  0  0  0  0
 24 62  1  0  0  0  0
 25 84  1  0  0  0  0
 26 87  1  0  0  0  0
 27 31  2  0  0  0  0
 27 84  1  0  0  0  0
 28 85  1  0  0  0  0
 29 86  1  0  0  0  0
 30 88  1  0  0  0  0
 31 89  1  0  0  0  0
 32 68  2  0  0  0  0
 33 69  1  0  0  0  0
 33 72  1  0  0  0  0
 34 73  1  0  0  0  0
 34 79  2  0  0  0  0
 35 52  1  0  0  0  0
 35 74  1  0  0  0  0
 35 80  2  0  0  0  0
 36 64  1  0  0  0  0
 36 70  1  0  0  0  0
 36 81  2  0  0  0  0
 37 65  1  0  0  0  0
 37 75  1  0  0  0  0
 37 82  2  0  0  0  0
 38 71  1  0  0  0  0
 38 76  1  0  0  0  0
 38 83  2  0  0  0  0
 39 43  1  0  0  0  0
 40 52  1  0  0  0  0
 41 49  1  0  0  0  0
 42 70  1  0  0  0  0
 43 45  1  0  0  0  0
 44 46  1  0  0  0  0
 44 47  1  0  0  0  0
 45 50  1  0  0  0  0
 46 53  1  0  0  0  0
 47 71  1  0  0  0  0
 48 53  1  0  0  0  0
 48 71  1  0  0  0  0
 49 77  1  0  0  0  0
 50 74  1  0  0  0  0
 51 66  1  0  0  0  0
 51 77  1  0  0  0  0
 52 70  1  0  0  0  0
 53 69  1  0  0  0  0
 54 65  1  0  0  0  0
 55 66  1  0  0  0  0
 56 67  1  0  0  0  0
 57 67  1  0  0  0  0
 58 67  1  0  0  0  0
 59 78  1  0  0  0  0
 60 85  1  0  0  0  0
 61 86  1  0  0  0  0
 62 76  1  0  0  0  0
 63 66  1  0  0  0  0
 63 87  1  0  0  0  0
 64 67  1  0  0  0  0
 64 75  1  0  0  0  0
 65 78  1  0  0  0  0
 68 69  1  0  0  0  0
M  CHG  2  77   1  78   1
M  ISO  4  38 100  63 101  76 100  87 101
M  END
> <Batch ID>
0156

> <Smiles>
CNC(C)C(=O)NC(C(=O)N1Cc2cc([101O:1][101CH2:1]C(C)C3NCCc4c(OC)cc(C[100NH:0][100C:0](=O)N5CCCC(n6nc(-c7ccc(Oc8ccc(F)cc8F)cc7)c(C(N)=O)c6N)C5)c(OC)c43)ccc2CC1C(=O)NC1CCCc2ccccc21)C(C)(C)C

> <Shape>
0.191

> <Color>
0.059

> <Negative vol penalty>
0.000

$$$$

  -OEChem-04052321563D

 85 94  0     1  0  0  0  0  0999 V2000
  -20.4542  -33.9210   23.2156 C   0  0  0  0  0  0  0  0  0  0  0  0
  -21.6812  -33.4469   22.7629 C   0  0  0  0  0  0  0  0  0  0  0  0
  -22.8889  -10.1936   19.9423 C   0  0  0  0  0  0  0  0  0  0  0  0
  -23.9179   -9.7313   22.0788 C   0  0  0  0  0  0  0  0  0  0  0  0
  -19.5231  -33.0359   23.7575 C   0  0  0  0  0  0  0  0  0  0  0  0
  -21.9784  -32.0875   22.8528 C   0  0  0  0  0  0  0  0  0  0  0  0
  -26.9868  -20.6528   20.8157 C   0  0  0  0  0  0  0  0  0  0  0  0
  -25.5824  -26.9230   19.4388 C   0  0  0  0  0  0  0  0  0  0  0  0
  -27.5866  -19.5032   21.3414 C   0  0  0  0  0  0  0  0  0  0  0  0
  -22.1101   -9.0434   20.0685 C   0  0  0  0  0  0  0  0  0  0  0  0
  -23.1390   -8.5811   22.2050 C   0  0  0  0  0  0  0  0  0  0  0  0
  -26.5403  -25.9389   19.6788 C   0  0  0  0  0  0  0  0  0  0  0  0
  -23.1531   -5.4190   21.0082 C   0  0  0  0  0  0  0  0  0  0  0  0
  -23.7852   -4.2521   21.4375 C   0  0  0  0  0  0  0  0  0  0  0  0
  -29.7250  -20.1108   20.3598 C   0  0  0  0  0  0  0  0  0  0  0  0
  -24.8237  -24.4914   20.5603 C   0  0  0  0  0  0  0  0  0  0  0  0
  -22.3154   -4.1604   23.3528 C   0  0  0  0  0  0  0  0  0  0  0  0
  -23.7929  -10.5376   20.9474 C   0  0  0  0  0  0  0  0  0  0  0  0
  -29.1033  -21.2367   19.8514 C   0  0  0  0  0  0  0  0  0  0  0  0
  -24.2747  -13.0238   21.2545 C   0  0  0  0  0  0  0  0  0  0  0  0
  -27.7585  -21.5234   20.0592 C   0  0  0  0  0  0  0  0  0  0  0  0
  -19.8052  -31.6635   23.8452 C   0  0  0  0  0  0  0  0  0  0  0  0
  -24.2374  -26.7025   19.7683 C   0  0  0  0  0  0  0  0  0  0  0  0
  -21.0507  -31.1834   23.3976 C   0  0  0  0  0  0  0  0  0  0  0  0
  -23.8502  -25.4734   20.3211 C   0  0  0  0  0  0  0  0  0  0  0  0
  -28.9464  -19.2347   21.1149 C   0  0  0  0  0  0  0  0  0  0  0  0
  -22.2350   -8.2372   21.1998 C   0  0  0  0  0  0  0  0  0  0  0  0
  -26.1615  -24.7239   20.2423 C   0  0  0  0  0  0  0  0  0  0  0  0
  -22.1021   -5.9567   21.7513 C   0  0  0  0  0  0  0  0  0  0  0  0
  -23.3664   -3.6228   22.6097 C   0  0  0  0  0  0  0  0  0  0  0  0
  -21.6833   -5.3274   22.9235 C   0  0  0  0  0  0  0  0  0  0  0  0
  -24.5982  -11.7253   20.8174 C   0  0  0  0  0  0  0  0  0  0  0  0
  -25.3598  -13.7865   20.8978 C   0  0  0  0  0  0  0  0  0  0  0  0
  -29.6770  -22.2919   19.0322 C   0  0  0  0  0  0  0  0  0  0  0  0
  -23.0984  -13.4981   21.9231 C   0  0  0  0  0  0  0  0  0  0  0  0
  -22.1603  -28.0680   21.7495 C   0  0  0  0  0  0  0  0  0  0  0  0
  -20.0669  -26.0346   20.3334 C   0  0  0  0  0  0  0  0  0  0  0  0
  -19.5607  -23.1251   18.6230 C   0  0  0  0  0  0  0  0  0  0  0  0
  -30.8793  -14.5388   20.5584 C   0  0  0  0  0  0  0  0  0  0  0  0
  -18.7860  -30.7522   24.4820 C   0  0  0  0  0  0  0  0  0  0  0  0
  -23.2120  -27.7641   19.4785 C   0  0  0  0  0  0  0  0  0  0  0  0
  -22.4159  -25.1793   20.6742 C   0  0  0  0  0  0  0  0  0  0  0  0
  -28.5936  -23.2654   18.6295 C   0  0  0  0  0  0  0  0  0  0  0  0
  -19.0300  -29.2725   24.1974 C   0  0  0  0  0  0  0  0  0  0  0  0
  -29.3166  -12.7021   17.9390 C   0  0  0  0  0  0  0  0  0  0  0  0
  -20.4990  -28.9226   24.4126 C   0  0  0  0  0  0  0  0  0  0  0  0
  -27.9261  -12.3862   18.4929 C   0  0  0  0  0  0  0  0  0  0  0  0
  -30.3834  -12.6529   19.0306 C   0  0  0  0  0  0  0  0  0  0  0  0
  -28.7114  -13.1770   20.7637 C   0  0  0  0  0  0  0  0  0  0  0  0
  -21.4001  -29.7121   23.4553 C   0  0  1  0  0  0  0  0  0  0  0  0
  -21.9526  -27.6264   20.3284 C   0  0  1  0  0  0  0  0  0  0  0  0
  -27.5938  -13.2692   19.7107 C   0  0  2  0  0  0  0  0  0  0  0  0
  -27.3420  -22.8260   19.4298 C   0  0  1  0  0  0  0  0  0  1  0  0
  -26.1032  -22.7099   18.5482 C   0  0  0  0  0  0  0  0  0  0  0  0
  -17.7367  -21.7114   17.6371 C   0  0  0  0  0  0  0  0  0  0  0  0
  -19.3104  -25.0671   23.1265 C   0  0  0  0  0  0  0  0  0  0  0  0
  -18.2406  -23.0664   22.0679 C   0  0  0  0  0  0  0  0  0  0  0  0
  -17.3796  -25.3525   21.5628 C   0  0  0  0  0  0  0  0  0  0  0  0
  -20.6754  -23.3850   15.8937 C   0  0  0  0  0  0  0  0  0  0  0  0
  -30.9021  -17.7259   21.4672 C   0  0  0  0  0  0  0  0  0  0  0  0
  -31.2273  -16.4080   22.1535 C   0  0  0  0  0  0  0  0  0  0  0  0
  -19.6007  -24.6237   20.5997 C   0  0  1  0  0  0  0  0  0  0  0  0
  -18.7486  -22.8168   17.3781 C   0  0  2  0  0  0  0  0  0  0  0  0
  -18.6602  -24.5334   21.8345 C   0  0  0  0  0  0  0  0  0  0  0  0
  -25.7952  -11.6629   20.2280 N   0  0  0  0  0  0  0  0  0  0  0  0
  -26.2332  -12.9318   20.2921 N   0  0  0  0  0  0  0  0  0  0  0  0
  -21.4514  -26.2514   20.3775 N   0  0  0  0  0  0  0  0  0  0  0  0
  -30.0085  -13.5128   20.1558 N   0  0  0  0  0  0  0  0  0  0  0  0
  -25.6425  -15.0981   21.0463 N   0  0  0  0  0  0  0  0  0  0  0  0
  -22.0796  -12.5807   22.2144 N   0  0  0  0  0  0  0  0  0  0  0  0
  -29.5265  -18.0663   21.6547 N   0  0  0  0  0  0  0  0  0  0  0  0
  -21.3629  -29.1302   22.1308 N   0  0  0  0  0  0  0  0  0  0  0  0
  -19.0017  -24.1502   19.3565 N   0  0  0  0  0  0  0  0  0  0  0  0
  -30.4447  -15.3112   21.6286 N   0  0  0  0  0  0  0  0  0  0  0  0
  -19.6448  -22.3831   16.2692 N   0  3  0  0  0  0  0  0  0  0  0  0
  -30.8496  -22.3462   18.7087 O   0  0  0  0  0  0  0  0  0  0  0  0
  -22.9479  -14.7030   22.2379 O   0  0  0  0  0  0  0  0  0  0  0  0
  -22.9821  -27.4871   22.4488 O   0  0  0  0  0  0  0  0  0  0  0  0
  -19.2338  -26.9106   20.0880 O   0  0  0  0  0  0  0  0  0  0  0  0
  -20.5861  -22.5150   18.9174 O   0  0  0  0  0  0  0  0  0  0  0  0
  -31.9612  -14.7542   20.0016 O   0  0  0  0  0  0  0  0  0  0  0  0
  -21.4750   -7.1148   21.3234 O   0  0  0  0  0  0  0  0  0  0  0  0
  -27.0946  -23.7619   20.4782 O   0  0  0  0  0  0  0  0  0  1  0  0
  -23.9726   -2.5014   23.0210 F   0  0  0  0  0  0  0  0  0  0  0  0
  -20.6734   -5.8385   23.6409 F   0  0  0  0  0  0  0  0  0  0  0  0
  1  2  1  0  0  0  0
  1  5  2  0  0  0  0
  2  6  2  0  0  0  0
  3 10  2  0  0  0  0
  3 18  1  0  0  0  0
  4 11  1  0  0  0  0
  4 18  2  0  0  0  0
  5 22  1  0  0  0  0
  6 24  1  0  0  0  0
  7  9  2  0  0  0  0
  7 21  1  0  0  0  0
  8 12  2  0  0  0  0
  8 23  1  0  0  0  0
  9 26  1  0  0  0  0
 10 27  1  0  0  0  0
 11 27  2  0  0  0  0
 12 28  1  0  0  0  0
 13 14  2  0  0  0  0
 13 29  1  0  0  0  0
 14 30  1  0  0  0  0
 15 19  1  0  0  0  0
 15 26  2  0  0  0  0
 16 25  1  0  0  0  0
 16 28  2  0  0  0  0
 17 30  2  0  0  0  0
 17 31  1  0  0  0  0
 18 32  1  0  0  0  0
 19 21  2  0  0  0  0
 19 34  1  0  0  0  0
 20 32  1  0  0  0  0
 20 33  2  0  0  0  0
 20 35  1  0  0  0  0
 21 53  1  0  0  0  0
 22 24  2  0  0  0  0
 22 40  1  0  0  0  0
 23 25  2  0  0  0  0
 23 41  1  0  0  0  0
 24 50  1  0  0  0  0
 25 42  1  0  0  0  0
 26 71  1  0  0  0  0
 27 82  1  0  0  0  0
 28 83  1  0  0  0  0
 29 31  2  0  0  0  0
 29 82  1  0  0  0  0
 30 84  1  0  0  0  0
 31 85  1  0  0  0  0
 32 65  2  0  0  0  0
 33 66  1  0  0  0  0
 33 69  1  0  0  0  0
 34 43  1  0  0  0  0
 34 76  2  0  0  0  0
 35 70  1  0  0  0  0
 35 77  2  0  0  0  0
 36 51  1  0  0  0  0
 36 72  1  0  0  0  0
 36 78  2  0  0  0  0
 37 62  1  0  0  0  0
 37 67  1  0  0  0  0
 37 79  2  0  0  0  0
 38 63  1  0  0  0  0
 38 73  1  0  0  0  0
 38 80  2  0  0  0  0
 39 68  1  0  0  0  0
 39 74  1  0  0  0  0
 39 81  2  0  0  0  0
 40 44  1  0  0  0  0
 41 51  1  0  0  0  0
 42 67  1  0  0  0  0
 43 53  1  0  0  0  0
 44 46  1  0  0  0  0
 45 47  1  0  0  0  0
 45 48  1  0  0  0  0
 46 50  1  0  0  0  0
 47 52  1  0  0  0  0
 48 68  1  0  0  0  0
 49 52  1  0  0  0  0
 49 68  1  0  0  0  0
 50 72  1  0  0  0  0
 51 67  1  0  0  0  0
 52 66  1  0  0  0  0
 53 54  1  0  0  0  0
 53 83  1  0  0  0  0
 55 63  1  0  0  0  0
 56 64  1  0  0  0  0
 57 64  1  0  0  0  0
 58 64  1  0  0  0  0
 59 75  1  0  0  0  0
 60 61  1  0  0  0  0
 60 71  1  0  0  0  0
 61 74  1  0  0  0  0
 62 64  1  0  0  0  0
 62 73  1  0  0  0  0
 63 75  1  0  0  0  0
 65 66  1  0  0  0  0
M  CHG  1  75   1
M  ISO  4  39 100  53 101  74 100  83 101
M  END
> <Batch ID>
0156

> <Smiles>
CNC(C)C(=O)NC(C(=O)N1Cc2cc([101O:1][101C:1]3(C)CC(=O)c4cc(NCC[100NH:0][100C:0](=O)N5CCCC(n6nc(-c7ccc(Oc8ccc(F)cc8F)cc7)c(C(N)=O)c6N)C5)ccc43)ccc2CC1C(=O)NC1CCCc2ccccc21)C(C)(C)C

> <Shape>
0.315

> <Color>
0.183

> <Negative vol penalty>
0.000

$$$$

  -OEChem-04052321563D

 91100  0     1  0  0  0  0  0999 V2000
  -26.0841  -34.3394   19.7007 C   0  0  0  0  0  0  0  0  0  0  0  0
  -26.2543  -33.3391   20.6524 C   0  0  0  0  0  0  0  0  0  0  0  0
  -23.2257   -9.8370   19.9735 C   0  0  0  0  0  0  0  0  0  0  0  0
  -23.9749   -9.9455   22.2678 C   0  0  0  0  0  0  0  0  0  0  0  0
  -25.2772  -34.1103   18.5869 C   0  0  0  0  0  0  0  0  0  0  0  0
  -25.6168  -32.1094   20.4915 C   0  0  0  0  0  0  0  0  0  0  0  0
  -28.6793  -28.1929   21.4546 C   0  0  0  0  0  0  0  0  0  0  0  0
  -22.5691   -8.6366   20.2446 C   0  0  0  0  0  0  0  0  0  0  0  0
  -23.3182   -8.7452   22.5390 C   0  0  0  0  0  0  0  0  0  0  0  0
  -28.9182  -27.8857   22.7933 C   0  0  0  0  0  0  0  0  0  0  0  0
  -21.5384   -5.8941   23.9254 C   0  0  0  0  0  0  0  0  0  0  0  0
  -20.7833   -5.8171   25.0957 C   0  0  0  0  0  0  0  0  0  0  0  0
  -27.2927  -26.1077   22.6692 C   0  0  0  0  0  0  0  0  0  0  0  0
  -31.3667  -18.3302   22.4299 C   0  0  0  0  0  0  0  0  0  0  0  0
  -19.4003   -7.6413   24.3234 C   0  0  0  0  0  0  0  0  0  0  0  0
  -23.9286  -10.4914   20.9850 C   0  0  0  0  0  0  0  0  0  0  0  0
  -24.0815  -13.0322   20.8158 C   0  0  0  0  0  0  0  0  0  0  0  0
  -24.6373  -32.8738   18.4073 C   0  0  0  0  0  0  0  0  0  0  0  0
  -27.7357  -27.4656   20.7148 C   0  0  0  0  0  0  0  0  0  0  0  0
  -24.7996  -31.8640   19.3750 C   0  0  0  0  0  0  0  0  0  0  0  0
  -27.0454  -26.4060   21.3205 C   0  0  0  0  0  0  0  0  0  0  0  0
  -31.3808  -18.4568   23.8189 C   0  0  0  0  0  0  0  0  0  0  0  0
  -31.0706  -17.3596   24.6224 C   0  0  0  0  0  0  0  0  0  0  0  0
  -30.7462  -16.1359   24.0368 C   0  0  0  0  0  0  0  0  0  0  0  0
  -30.7320  -16.0093   22.6478 C   0  0  0  0  0  0  0  0  0  0  0  0
  -22.6153   -8.0907   21.5274 C   0  0  0  0  0  0  0  0  0  0  0  0
  -28.2228  -26.8448   23.4016 C   0  0  0  0  0  0  0  0  0  0  0  0
  -21.2244   -6.8448   22.9541 C   0  0  0  0  0  0  0  0  0  0  0  0
  -31.0422  -17.1065   21.8443 C   0  0  0  0  0  0  0  0  0  0  0  0
  -19.7143   -6.6907   25.2947 C   0  0  0  0  0  0  0  0  0  0  0  0
  -20.1553   -7.7184   23.1531 C   0  0  0  0  0  0  0  0  0  0  0  0
  -24.6076  -11.7311   20.7054 C   0  0  0  0  0  0  0  0  0  0  0  0
  -25.1160  -13.8539   20.4401 C   0  0  0  0  0  0  0  0  0  0  0  0
  -22.7746  -13.4598   21.2219 C   0  0  0  0  0  0  0  0  0  0  0  0
  -25.0178  -28.1784   19.2287 C   0  0  0  0  0  0  0  0  0  0  0  0
  -25.2099  -25.0980   18.2304 C   0  0  0  0  0  0  0  0  0  0  0  0
  -26.4149  -21.9497   18.7627 C   0  0  0  0  0  0  0  0  0  0  0  0
  -30.8635  -14.2752   20.8252 C   0  0  0  0  0  0  0  0  0  0  0  0
  -23.7371  -32.6893   17.2114 C   0  0  0  0  0  0  0  0  0  0  0  0
  -27.5089  -27.7923   19.2642 C   0  0  0  0  0  0  0  0  0  0  0  0
  -26.0369  -25.5815   20.5645 C   0  0  0  0  0  0  0  0  0  0  0  0
  -23.3972  -31.2290   16.9245 C   0  0  0  0  0  0  0  0  0  0  0  0
  -29.2653  -13.2536   17.8121 C   0  0  0  0  0  0  0  0  0  0  0  0
  -22.9940  -30.5124   18.2093 C   0  0  0  0  0  0  0  0  0  0  0  0
  -27.8494  -12.8837   18.2601 C   0  0  0  0  0  0  0  0  0  0  0  0
  -29.6736  -22.0505   26.4117 C   0  0  0  0  0  0  0  0  0  0  0  0
  -31.0269  -22.7145   24.3977 C   0  0  0  0  0  0  0  0  0  0  0  0
  -30.3104  -12.8641   18.8560 C   0  0  0  0  0  0  0  0  0  0  0  0
  -28.6368  -12.9987   20.6588 C   0  0  0  0  0  0  0  0  0  0  0  0
  -29.8441  -23.4490   26.9840 C   0  0  0  0  0  0  0  0  0  0  0  0
  -31.1941  -24.1116   24.9745 C   0  0  0  0  0  0  0  0  0  0  0  0
  -24.1446  -30.5083   19.2230 C   0  0  1  0  0  0  0  0  0  0  0  0
  -26.1531  -27.3183   18.7499 C   0  0  1  0  0  0  0  0  0  0  0  0
  -27.5431  -13.4303   19.6682 C   0  0  2  0  0  0  0  0  0  0  0  0
  -30.8316  -21.6701   25.4938 C   0  0  0  0  0  0  0  0  0  0  0  0
  -31.0882  -17.4985   26.1119 C   0  0  0  0  0  0  0  0  0  0  0  0
  -30.4175  -14.9592   24.9022 C   0  0  0  0  0  0  0  0  0  0  0  0
  -26.3711  -19.6342   17.7965 C   0  0  0  0  0  0  0  0  0  0  0  0
  -22.3854  -24.7018   19.3143 C   0  0  0  0  0  0  0  0  0  0  0  0
  -22.7614  -22.2294   19.1953 C   0  0  0  0  0  0  0  0  0  0  0  0
  -22.8217  -23.6002   17.1119 C   0  0  0  0  0  0  0  0  0  0  0  0
  -29.3462  -21.9393   18.3544 C   0  0  0  0  0  0  0  0  0  0  0  0
  -29.8057  -17.2919   19.8213 C   0  0  0  0  0  0  0  0  0  0  0  0
  -31.7358  -19.7834   24.4236 C   0  0  0  0  0  0  0  0  0  0  0  0
  -30.0632  -25.8528   26.3562 C   0  0  0  0  0  0  0  0  0  0  0  0
  -29.7629  -26.8024   25.2133 C   0  0  0  0  0  0  0  0  0  1  0  0
  -24.7290  -23.7697   18.7627 C   0  0  1  0  0  0  0  0  0  0  0  0
  -27.1053  -20.9654   17.8360 C   0  0  2  0  0  0  0  0  0  0  0  0
  -23.1919  -23.5919   18.6111 C   0  0  0  0  0  0  0  0  0  0  0  0
  -25.8776  -11.7219   20.2917 N   0  0  0  0  0  0  0  0  0  0  0  0
  -26.1581  -13.0273   20.1388 N   0  0  0  0  0  0  0  0  0  0  0  0
  -25.8457  -25.9438   19.1503 N   0  0  0  0  0  0  0  0  0  0  0  0
  -29.9565  -13.4205   20.1637 N   0  0  0  0  0  0  0  0  0  0  0  0
  -25.2267  -15.1957   20.3412 N   0  0  0  0  0  0  0  0  0  0  0  0
  -21.8322  -12.4844   21.5750 N   0  0  0  0  0  0  0  0  0  0  0  0
  -30.4048  -14.7689   22.0460 N   0  0  0  0  0  0  0  0  0  0  0  0
  -25.1279  -29.5076   18.8675 N   0  0  0  0  0  0  0  0  0  0  0  0
  -25.5186  -22.7478   18.0839 N   0  0  0  0  0  0  0  0  0  0  0  0
  -30.0083  -24.4367   25.8525 N   0  3  0  0  0  0  0  0  0  0  0  0
  -28.5027  -20.7180   18.2912 N   0  3  0  0  0  0  0  0  0  0  0  0
  -22.4470  -14.6702   21.2544 O   0  0  0  0  0  0  0  0  0  0  0  0
  -24.1085  -27.6731   19.8764 O   0  0  0  0  0  0  0  0  0  0  0  0
  -25.0345  -25.3719   17.0406 O   0  0  0  0  0  0  0  0  0  0  0  0
  -26.6449  -22.0026   19.9689 O   0  0  0  0  0  0  0  0  0  0  0  0
  -31.9548  -14.5706   20.3314 O   0  0  0  0  0  0  0  0  0  0  0  0
  -21.9745   -6.9195   21.7924 O   0  0  0  0  0  0  0  0  0  0  0  0
  -31.0350  -17.0061   20.4848 O   0  0  0  0  0  0  0  0  0  0  0  0
  -28.4536  -26.5432   24.7084 O   0  0  0  0  0  0  0  0  0  1  0  0
  -30.5531  -20.4038   24.9076 O   0  0  0  0  0  0  0  0  0  0  0  0
  -18.9884   -6.6156   26.4179 F   0  0  0  0  0  0  0  0  0  0  0  0
  -19.8482   -8.6330   22.2231 F   0  0  0  0  0  0  0  0  0  0  0  0
  1  2  1  0  0  0  0
  1  5  2  0  0  0  0
  2  6  2  0  0  0  0
  3  8  2  0  0  0  0
  3 16  1  0  0  0  0
  4  9  1  0  0  0  0
  4 16  2  0  0  0  0
  5 18  1  0  0  0  0
  6 20  1  0  0  0  0
  7 10  2  0  0  0  0
  7 19  1  0  0  0  0
  8 26  1  0  0  0  0
  9 26  2  0  0  0  0
 10 27  1  0  0  0  0
 11 12  2  0  0  0  0
 11 28  1  0  0  0  0
 12 30  1  0  0  0  0
 13 21  1  0  0  0  0
 13 27  2  0  0  0  0
 14 22  1  0  0  0  0
 14 29  2  0  0  0  0
 15 30  2  0  0  0  0
 15 31  1  0  0  0  0
 16 32  1  0  0  0  0
 17 32  1  0  0  0  0
 17 33  2  0  0  0  0
 17 34  1  0  0  0  0
 18 20  2  0  0  0  0
 18 39  1  0  0  0  0
 19 21  2  0  0  0  0
 19 40  1  0  0  0  0
 20 52  1  0  0  0  0
 21 41  1  0  0  0  0
 22 23  2  0  0  0  0
 22 64  1  0  0  0  0
 23 24  1  0  0  0  0
 23 56  1  0  0  0  0
 24 25  2  0  0  0  0
 24 57  1  0  0  0  0
 25 29  1  0  0  0  0
 25 76  1  0  0  0  0
 26 86  1  0  0  0  0
 27 88  1  0  0  0  0
 28 31  2  0  0  0  0
 28 86  1  0  0  0  0
 29 87  1  0  0  0  0
 30 90  1  0  0  0  0
 31 91  1  0  0  0  0
 32 70  2  0  0  0  0
 33 71  1  0  0  0  0
 33 74  1  0  0  0  0
 34 75  1  0  0  0  0
 34 81  2  0  0  0  0
 35 53  1  0  0  0  0
 35 77  1  0  0  0  0
 35 82  2  0  0  0  0
 36 67  1  0  0  0  0
 36 72  1  0  0  0  0
 36 83  2  0  0  0  0
 37 68  1  0  0  0  0
 37 78  1  0  0  0  0
 37 84  2  0  0  0  0
 38 73  1  0  0  0  0
 38 76  1  0  0  0  0
 38 85  2  0  0  0  0
 39 42  1  0  0  0  0
 40 53  1  0  0  0  0
 41 72  1  0  0  0  0
 42 44  1  0  0  0  0
 43 45  1  0  0  0  0
 43 48  1  0  0  0  0
 44 52  1  0  0  0  0
 45 54  1  0  0  0  0
 46 50  1  0  0  0  0
 46 55  1  0  0  0  0
 47 51  1  0  0  0  0
 47 55  1  0  0  0  0
 48 73  1  0  0  0  0
 49 54  1  0  0  0  0
 49 73  1  0  0  0  0
 50 79  1  0  0  0  0
 51 79  1  0  0  0  0
 52 77  1  0  0  0  0
 53 72  1  0  0  0  0
 54 71  1  0  0  0  0
 55 89  1  0  0  0  0
 58 68  1  0  0  0  0
 59 69  1  0  0  0  0
 60 69  1  0  0  0  0
 61 69  1  0  0  0  0
 62 80  1  0  0  0  0
 63 87  1  0  0  0  0
 64 89  1  0  0  0  0
 65 66  1  0  0  0  0
 65 79  1  0  0  0  0
 66 88  1  0  0  0  0
 67 69  1  0  0  0  0
 67 78  1  0  0  0  0
 68 80  1  0  0  0  0
 70 71  1  0  0  0  0
M  CHG  2  79   1  80   1
M  ISO  4  38 100  66 101  76 100  88 101
M  END
> <Batch ID>
0156

> <Smiles>
CNC(C)C(=O)NC(C(=O)N1Cc2cc([101O:1][101CH2:1]CN3CCC(OCc4cc(OC)c([100NH:0][100C:0](=O)N5CCCC(n6nc(-c7ccc(Oc8ccc(F)cc8F)cc7)c(C(N)=O)c6N)C5)c(C)c4C)CC3)ccc2CC1C(=O)NC1CCCc2ccccc21)C(C)(C)C

> <Shape>
0.246

> <Color>
0.180

> <Negative vol penalty>
0.000

$$$$

  -OEChem-04052321563D

 84 93  0     1  0  0  0  0  0999 V2000
  -19.5391  -33.8513   21.7073 C   0  0  0  0  0  0  0  0  0  0  0  0
  -20.8347  -33.4943   21.3476 C   0  0  0  0  0  0  0  0  0  0  0  0
  -27.1402  -15.4979   22.0783 C   0  0  0  0  0  0  0  0  0  0  0  0
  -27.9015  -15.1643   19.8098 C   0  0  0  0  0  0  0  0  0  0  0  0
  -18.8345  -33.0777   22.6287 C   0  0  0  0  0  0  0  0  0  0  0  0
  -21.4268  -32.3640   21.9099 C   0  0  0  0  0  0  0  0  0  0  0  0
  -25.3364  -28.5160   19.1870 C   0  0  0  0  0  0  0  0  0  0  0  0
  -26.3824  -14.3298   21.9958 C   0  0  0  0  0  0  0  0  0  0  0  0
  -27.1437  -13.9962   19.7272 C   0  0  0  0  0  0  0  0  0  0  0  0
  -26.7264  -28.4126   19.2192 C   0  0  0  0  0  0  0  0  0  0  0  0
  -23.9643  -11.6265   22.2582 C   0  0  0  0  0  0  0  0  0  0  0  0
  -22.6575  -11.6638   22.7444 C   0  0  0  0  0  0  0  0  0  0  0  0
  -26.5555  -26.7321   20.9414 C   0  0  0  0  0  0  0  0  0  0  0  0
  -22.1166  -13.4031   21.1571 C   0  0  0  0  0  0  0  0  0  0  0  0
  -31.5322  -26.0843   17.9602 C   0  0  0  0  0  0  0  0  0  0  0  0
  -27.8997  -15.9152   20.9852 C   0  0  0  0  0  0  0  0  0  0  0  0
  -30.0174  -17.2412   21.5000 C   0  0  0  0  0  0  0  0  0  0  0  0
  -19.4147  -31.9318   23.1952 C   0  0  0  0  0  0  0  0  0  0  0  0
  -24.5446  -27.7347   20.0409 C   0  0  0  0  0  0  0  0  0  0  0  0
  -20.7297  -31.5750   22.8406 C   0  0  0  0  0  0  0  0  0  0  0  0
  -25.1556  -26.8256   20.9163 C   0  0  0  0  0  0  0  0  0  0  0  0
  -31.9880  -24.5192   19.5096 C   0  0  0  0  0  0  0  0  0  0  0  0
  -31.9226  -24.7698   18.1190 C   0  0  0  0  0  0  0  0  0  0  0  0
  -26.3841  -13.5789   20.8203 C   0  0  0  0  0  0  0  0  0  0  0  0
  -27.3363  -27.5227   20.0985 C   0  0  0  0  0  0  0  0  0  0  0  0
  -24.3474  -12.4776   21.2216 C   0  0  0  0  0  0  0  0  0  0  0  0
  -21.7336  -12.5520   22.1938 C   0  0  0  0  0  0  0  0  0  0  0  0
  -23.4235  -13.3659   20.6710 C   0  0  0  0  0  0  0  0  0  0  0  0
  -28.6823  -17.1221   21.0697 C   0  0  0  0  0  0  0  0  0  0  0  0
  -31.6400  -25.6900   20.1518 C   0  0  0  0  0  0  0  0  0  0  0  0
  -30.2937  -18.5825   21.3946 C   0  0  0  0  0  0  0  0  0  0  0  0
  -30.9264  -16.2299   21.9543 C   0  0  0  0  0  0  0  0  0  0  0  0
  -22.4804  -28.3542   22.3773 C   0  0  0  0  0  0  0  0  0  0  0  0
  -21.9969  -25.1484   22.2719 C   0  0  0  0  0  0  0  0  0  0  0  0
  -23.1228  -21.7350   21.9584 C   0  0  0  0  0  0  0  0  0  0  0  0
  -29.1163  -23.1367   18.0201 C   0  0  0  0  0  0  0  0  0  0  0  0
  -18.6312  -31.1536   24.2224 C   0  0  0  0  0  0  0  0  0  0  0  0
  -23.0455  -27.8387   19.9751 C   0  0  0  0  0  0  0  0  0  0  0  0
  -24.3498  -25.9496   21.8392 C   0  0  0  0  0  0  0  0  0  0  0  0
  -32.3597  -23.2989   20.2624 C   0  0  0  0  0  0  0  0  0  0  0  0
  -31.5549  -25.8816   21.6241 C   0  0  0  0  0  0  0  0  0  0  0  0
  -19.1932  -29.7597   24.4894 C   0  0  0  0  0  0  0  0  0  0  0  0
  -27.5610  -22.6976   21.1926 C   0  0  0  0  0  0  0  0  0  0  0  0
  -20.7060  -29.8208   24.6758 C   0  0  0  0  0  0  0  0  0  0  0  0
  -27.8157  -21.2262   21.5243 C   0  0  0  0  0  0  0  0  0  0  0  0
  -27.3110  -22.9046   19.7004 C   0  0  0  0  0  0  0  0  0  0  0  0
  -28.6105  -20.8850   19.1472 C   0  0  0  0  0  0  0  0  0  0  0  0
  -32.3202  -24.7593   22.3420 C   0  0  0  0  0  0  0  0  0  0  0  0
  -21.3972  -30.3419   23.4100 C   0  0  1  0  0  0  0  0  0  0  0  0
  -22.3572  -27.3663   21.2519 C   0  0  1  0  0  0  0  0  0  0  0  0
  -28.9233  -20.6338   20.6323 C   0  0  2  0  0  0  0  0  0  0  0  0
  -22.4948  -19.3107   21.7975 C   0  0  0  0  0  0  0  0  0  0  0  0
  -22.5690  -25.0897   25.2685 C   0  0  0  0  0  0  0  0  0  0  0  0
  -22.8854  -22.6126   25.0889 C   0  0  0  0  0  0  0  0  0  0  0  0
  -20.6745  -23.6289   24.5393 C   0  0  0  0  0  0  0  0  0  0  0  0
  -23.3752  -21.7457   19.0097 C   0  0  0  0  0  0  0  0  0  0  0  0
  -32.2167  -23.8139   17.0341 C   0  0  0  0  0  0  0  0  0  0  0  0
  -30.9247  -28.0572   19.4655 C   0  0  0  0  0  0  0  0  0  0  0  0
  -30.9655  -23.2137   16.3667 C   0  0  0  0  0  0  0  0  0  0  0  0
  -29.4297  -28.2546   19.2396 C   0  0  0  0  0  0  0  0  0  1  0  0
  -22.6157  -23.9510   22.9518 C   0  0  1  0  0  0  0  0  0  0  0  0
  -22.5135  -20.6537   21.0843 C   0  0  2  0  0  0  0  0  0  0  0  0
  -22.2017  -23.8383   24.4462 C   0  0  0  0  0  0  0  0  0  0  0  0
  -28.1476  -18.2943   20.7173 N   0  0  0  0  0  0  0  0  0  0  0  0
  -31.3616  -26.6358   19.2066 N   0  0  0  0  0  0  0  0  0  0  0  0
  -29.1518  -19.1627   20.9261 N   0  0  0  0  0  0  0  0  0  0  0  0
  -22.8877  -26.0925   21.7420 N   0  0  0  0  0  0  0  0  0  0  0  0
  -28.3982  -22.3215   18.9105 N   0  0  0  0  0  0  0  0  0  0  0  0
  -31.3997  -19.3104   21.6580 N   0  0  0  0  0  0  0  0  0  0  0  0
  -30.4800  -14.9021   22.0006 N   0  0  0  0  0  0  0  0  0  0  0  0
  -21.4725  -29.2990   22.4095 N   0  0  0  0  0  0  0  0  0  0  0  0
  -22.2559  -22.7913   22.1430 N   0  0  0  0  0  0  0  0  0  0  0  0
  -30.1343  -22.5063   17.3152 N   0  0  0  0  0  0  0  0  0  0  0  0
  -31.9816  -23.4225   21.7252 N   0  3  0  0  0  0  0  0  0  0  0  0
  -23.2945  -20.5056   19.8237 N   0  3  0  0  0  0  0  0  0  0  0  0
  -32.0947  -16.4980   22.3244 O   0  0  0  0  0  0  0  0  0  0  0  0
  -23.4195  -28.2650   23.1595 O   0  0  0  0  0  0  0  0  0  0  0  0
  -20.7684  -25.2391   22.2070 O   0  0  0  0  0  0  0  0  0  0  0  0
  -24.2531  -21.6493   22.4333 O   0  0  0  0  0  0  0  0  0  0  0  0
  -28.8719  -24.3385   17.8687 O   0  0  0  0  0  0  0  0  0  0  0  0
  -25.6450  -12.4389   20.7395 O   0  0  0  0  0  0  0  0  0  0  0  0
  -28.6928  -27.4202   20.1325 O   0  0  0  0  0  0  0  0  0  1  0  0
  -20.4783  -12.5866   22.6597 F   0  0  0  0  0  0  0  0  0  0  0  0
  -23.7853  -14.1851   19.6741 F   0  0  0  0  0  0  0  0  0  0  0  0
  1  2  1  0  0  0  0
  1  5  2  0  0  0  0
  2  6  2  0  0  0  0
  3  8  2  0  0  0  0
  3 16  1  0  0  0  0
  4  9  1  0  0  0  0
  4 16  2  0  0  0  0
  5 18  1  0  0  0  0
  6 20  1  0  0  0  0
  7 10  2  0  0  0  0
  7 19  1  0  0  0  0
  8 24  1  0  0  0  0
  9 24  2  0  0  0  0
 10 25  1  0  0  0  0
 11 12  2  0  0  0  0
 11 26  1  0  0  0  0
 12 27  1  0  0  0  0
 13 21  1  0  0  0  0
 13 25  2  0  0  0  0
 14 27  2  0  0  0  0
 14 28  1  0  0  0  0
 15 23  2  0  0  0  0
 15 65  1  0  0  0  0
 16 29  1  0  0  0  0
 17 29  1  0  0  0  0
 17 31  2  0  0  0  0
 17 32  1  0  0  0  0
 18 20  2  0  0  0  0
 18 37  1  0  0  0  0
 19 21  2  0  0  0  0
 19 38  1  0  0  0  0
 20 49  1  0  0  0  0
 21 39  1  0  0  0  0
 22 23  1  0  0  0  0
 22 30  2  0  0  0  0
 22 40  1  0  0  0  0
 23 57  1  0  0  0  0
 24 81  1  0  0  0  0
 25 82  1  0  0  0  0
 26 28  2  0  0  0  0
 26 81  1  0  0  0  0
 27 83  1  0  0  0  0
 28 84  1  0  0  0  0
 29 64  2  0  0  0  0
 30 41  1  0  0  0  0
 30 65  1  0  0  0  0
 31 66  1  0  0  0  0
 31 69  1  0  0  0  0
 32 70  1  0  0  0  0
 32 76  2  0  0  0  0
 33 50  1  0  0  0  0
 33 71  1  0  0  0  0
 33 77  2  0  0  0  0
 34 61  1  0  0  0  0
 34 67  1  0  0  0  0
 34 78  2  0  0  0  0
 35 62  1  0  0  0  0
 35 72  1  0  0  0  0
 35 79  2  0  0  0  0
 36 68  1  0  0  0  0
 36 73  1  0  0  0  0
 36 80  2  0  0  0  0
 37 42  1  0  0  0  0
 38 50  1  0  0  0  0
 39 67  1  0  0  0  0
 40 74  1  0  0  0  0
 41 48  1  0  0  0  0
 42 44  1  0  0  0  0
 43 45  1  0  0  0  0
 43 46  1  0  0  0  0
 44 49  1  0  0  0  0
 45 51  1  0  0  0  0
 46 68  1  0  0  0  0
 47 51  1  0  0  0  0
 47 68  1  0  0  0  0
 48 74  1  0  0  0  0
 49 71  1  0  0  0  0
 50 67  1  0  0  0  0
 51 66  1  0  0  0  0
 52 62  1  0  0  0  0
 53 63  1  0  0  0  0
 54 63  1  0  0  0  0
 55 63  1  0  0  0  0
 56 75  1  0  0  0  0
 57 59  1  0  0  0  0
 58 60  1  0  0  0  0
 58 65  1  0  0  0  0
 59 73  1  0  0  0  0
 60 82  1  0  0  0  0
 61 63  1  0  0  0  0
 61 72  1  0  0  0  0
 62 75  1  0  0  0  0
 64 66  1  0  0  0  0
M  CHG  2  74   1  75   1
M  ISO  4  36 100  60 101  73 100  82 101
M  END
> <Batch ID>
0156

> <Smiles>
CNC(C)C(=O)NC(C(=O)N1Cc2cc([101O:1][101CH2:1]Cn3cc(CC[100NH:0][100C:0](=O)N4CCCC(n5nc(-c6ccc(Oc7ccc(F)cc7F)cc6)c(C(N)=O)c5N)C4)c4c3CCNC4)ccc2CC1C(=O)NC1CCCc2ccccc21)C(C)(C)C

> <Shape>
0.248

> <Color>
0.066

> <Negative vol penalty>
0.000

$$$$

  -OEChem-04052321563D

 85 94  0     1  0  0  0  0  0999 V2000
  -29.1655  -35.8055   24.1097 C   0  0  0  0  0  0  0  0  0  0  0  0
  -29.3312  -34.4604   23.7957 C   0  0  0  0  0  0  0  0  0  0  0  0
  -22.7871  -10.1818   20.2091 C   0  0  0  0  0  0  0  0  0  0  0  0
  -24.3276   -9.5706   21.9670 C   0  0  0  0  0  0  0  0  0  0  0  0
  -27.9003  -36.2939   24.4333 C   0  0  0  0  0  0  0  0  0  0  0  0
  -28.2319  -33.6026   23.8062 C   0  0  0  0  0  0  0  0  0  0  0  0
  -27.2483  -28.8331   20.0927 C   0  0  0  0  0  0  0  0  0  0  0  0
  -29.7118  -21.1814   21.4477 C   0  0  0  0  0  0  0  0  0  0  0  0
  -22.2683   -8.8870   20.2135 C   0  0  0  0  0  0  0  0  0  0  0  0
  -23.8088   -8.2758   21.9715 C   0  0  0  0  0  0  0  0  0  0  0  0
  -27.4478  -27.4626   20.2531 C   0  0  0  0  0  0  0  0  0  0  0  0
  -21.0863   -6.6893   23.1929 C   0  0  0  0  0  0  0  0  0  0  0  0
  -20.8126   -6.1067   24.4303 C   0  0  0  0  0  0  0  0  0  0  0  0
  -30.3374  -19.9848   21.7794 C   0  0  0  0  0  0  0  0  0  0  0  0
  -25.1364  -27.2073   20.8945 C   0  0  0  0  0  0  0  0  0  0  0  0
  -22.3697   -4.3265   23.9366 C   0  0  0  0  0  0  0  0  0  0  0  0
  -23.8168  -10.5236   21.0858 C   0  0  0  0  0  0  0  0  0  0  0  0
  -23.9133  -12.9560   21.8483 C   0  0  0  0  0  0  0  0  0  0  0  0
  -26.7833  -35.4436   24.4384 C   0  0  0  0  0  0  0  0  0  0  0  0
  -25.9919  -29.4036   20.3429 C   0  0  0  0  0  0  0  0  0  0  0  0
  -26.9508  -34.0797   24.1315 C   0  0  0  0  0  0  0  0  0  0  0  0
  -28.3422  -21.2004   21.2087 C   0  0  0  0  0  0  0  0  0  0  0  0
  -24.9229  -28.5849   20.7341 C   0  0  0  0  0  0  0  0  0  0  0  0
  -22.7791   -7.9340   21.0947 C   0  0  0  0  0  0  0  0  0  0  0  0
  -26.3925  -26.6499   20.6569 C   0  0  0  0  0  0  0  0  0  0  0  0
  -22.0017   -6.0905   22.3273 C   0  0  0  0  0  0  0  0  0  0  0  0
  -21.4543   -4.9253   24.8022 C   0  0  0  0  0  0  0  0  0  0  0  0
  -22.6434   -4.9092   22.6991 C   0  0  0  0  0  0  0  0  0  0  0  0
  -24.3536  -11.8607   21.0814 C   0  0  0  0  0  0  0  0  0  0  0  0
  -29.5550  -18.8441   21.8586 C   0  0  0  0  0  0  0  0  0  0  0  0
  -27.6491  -20.0052   21.3132 C   0  0  0  0  0  0  0  0  0  0  0  0
  -24.7426  -13.9876   21.4814 C   0  0  0  0  0  0  0  0  0  0  0  0
  -22.8498  -13.0340   22.8067 C   0  0  0  0  0  0  0  0  0  0  0  0
  -24.8777  -31.5663   22.3886 C   0  0  0  0  0  0  0  0  0  0  0  0
  -22.1503  -31.2187   20.6673 C   0  0  0  0  0  0  0  0  0  0  0  0
  -20.2502  -29.2657   18.6126 C   0  0  0  0  0  0  0  0  0  0  0  0
  -29.8322  -15.9660   20.3295 C   0  0  0  0  0  0  0  0  0  0  0  0
  -25.4436  -36.0075   24.8407 C   0  0  0  0  0  0  0  0  0  0  0  0
  -25.7862  -30.8796   20.1394 C   0  0  0  0  0  0  0  0  0  0  0  0
  -23.5495  -29.1451   20.9957 C   0  0  0  0  0  0  0  0  0  0  0  0
  -24.2672  -35.1106   24.4639 C   0  0  0  0  0  0  0  0  0  0  0  0
  -28.0739  -14.3451   17.6918 C   0  0  0  0  0  0  0  0  0  0  0  0
  -28.1741  -23.1600   19.5559 C   0  0  0  0  0  0  0  0  0  0  0  0
  -24.5527  -33.6638   24.8538 C   0  0  0  0  0  0  0  0  0  0  0  0
  -26.9173  -13.6399   18.4024 C   0  0  0  0  0  0  0  0  0  0  0  0
  -28.7119  -24.5264   19.9766 C   0  0  0  0  0  0  0  0  0  0  0  0
  -27.7835  -23.5647   21.9513 C   0  0  0  0  0  0  0  0  0  0  0  0
  -29.3475  -14.3294   18.5343 C   0  0  0  0  0  0  0  0  0  0  0  0
  -28.0351  -14.1532   20.6128 C   0  0  0  0  0  0  0  0  0  0  0  0
  -27.6515  -22.4963   20.8468 C   0  0  2  0  0  0  0  0  0  0  0  0
  -25.7785  -33.1230   24.1079 C   0  0  1  0  0  0  0  0  0  0  0  0
  -24.5961  -31.4301   20.9190 C   0  0  1  0  0  0  0  0  0  0  0  0
  -26.7138  -14.1921   19.8261 C   0  0  2  0  0  0  0  0  0  0  0  0
  -27.8854  -24.8861   21.2017 C   0  0  2  0  0  0  0  0  0  1  0  0
  -18.0531  -29.2363   17.4005 C   0  0  0  0  0  0  0  0  0  0  0  0
  -20.7090  -30.6618   23.2984 C   0  0  0  0  0  0  0  0  0  0  0  0
  -18.8013  -29.7255   21.9746 C   0  0  0  0  0  0  0  0  0  0  0  0
  -19.4472  -32.1200   21.7060 C   0  0  0  0  0  0  0  0  0  0  0  0
  -21.5756  -29.0355   15.9765 C   0  0  0  0  0  0  0  0  0  0  0  0
  -25.6490  -18.7228   21.2084 C   0  0  0  0  0  0  0  0  0  0  0  0
  -30.1929  -17.5423   22.2122 C   0  0  0  0  0  0  0  0  0  0  0  0
  -20.9414  -30.3185   20.7500 C   0  0  1  0  0  0  0  0  0  0  0  0
  -19.5334  -29.5731   17.3103 C   0  0  2  0  0  0  0  0  0  0  0  0
  -20.0010  -30.6959   21.9293 C   0  0  0  0  0  0  0  0  0  0  0  0
  -25.3826  -12.1678   20.2871 N   0  0  0  0  0  0  0  0  0  0  0  0
  -28.2222  -18.8233   21.6332 N   0  0  0  0  0  0  0  0  0  0  0  0
  -25.5957  -13.4678   20.5529 N   0  0  0  0  0  0  0  0  0  0  0  0
  -23.4002  -30.5951   20.7890 N   0  0  0  0  0  0  0  0  0  0  0  0
  -29.0867  -14.8671   19.8717 N   0  0  0  0  0  0  0  0  0  0  0  0
  -24.8179  -15.2795   21.8656 N   0  0  0  0  0  0  0  0  0  0  0  0
  -22.0967  -11.8805   23.0645 N   0  0  0  0  0  0  0  0  0  0  0  0
  -25.4309  -32.7813   22.7453 N   0  0  0  0  0  0  0  0  0  0  0  0
  -20.3046  -30.3686   19.4383 N   0  0  0  0  0  0  0  0  0  0  0  0
  -29.5173  -16.4170   21.6055 N   0  0  0  0  0  0  0  0  0  0  0  0
  -20.1274  -28.7851   16.1935 N   0  3  0  0  0  0  0  0  0  0  0  0
  -22.5648  -14.0995   23.4044 O   0  0  0  0  0  0  0  0  0  0  0  0
  -24.6114  -30.6383   23.1434 O   0  0  0  0  0  0  0  0  0  0  0  0
  -21.9919  -32.4297   20.4938 O   0  0  0  0  0  0  0  0  0  0  0  0
  -20.7121  -28.1569   18.8731 O   0  0  0  0  0  0  0  0  0  0  0  0
  -30.7096  -16.5086   19.6493 O   0  0  0  0  0  0  0  0  0  0  0  0
  -22.2729   -6.6706   21.0994 O   0  0  0  0  0  0  0  0  0  0  0  0
  -26.5847  -25.3120   20.8149 O   0  0  0  0  0  0  0  0  0  1  0  0
  -26.2979  -19.9825   21.0842 O   0  0  0  0  0  0  0  0  0  0  0  0
  -21.1926   -4.3668   25.9912 F   0  0  0  0  0  0  0  0  0  0  0  0
  -23.5246   -4.3299   21.8723 F   0  0  0  0  0  0  0  0  0  0  0  0
  1  2  1  0  0  0  0
  1  5  2  0  0  0  0
  2  6  2  0  0  0  0
  3  9  2  0  0  0  0
  3 17  1  0  0  0  0
  4 10  1  0  0  0  0
  4 17  2  0  0  0  0
  5 19  1  0  0  0  0
  6 21  1  0  0  0  0
  7 11  2  0  0  0  0
  7 20  1  0  0  0  0
  8 14  2  0  0  0  0
  8 22  1  0  0  0  0
  9 24  1  0  0  0  0
 10 24  2  0  0  0  0
 11 25  1  0  0  0  0
 12 13  2  0  0  0  0
 12 26  1  0  0  0  0
 13 27  1  0  0  0  0
 14 30  1  0  0  0  0
 15 23  1  0  0  0  0
 15 25  2  0  0  0  0
 16 27  2  0  0  0  0
 16 28  1  0  0  0  0
 17 29  1  0  0  0  0
 18 29  1  0  0  0  0
 18 32  2  0  0  0  0
 18 33  1  0  0  0  0
 19 21  2  0  0  0  0
 19 38  1  0  0  0  0
 20 23  2  0  0  0  0
 20 39  1  0  0  0  0
 21 51  1  0  0  0  0
 22 31  2  0  0  0  0
 22 50  1  0  0  0  0
 23 40  1  0  0  0  0
 24 81  1  0  0  0  0
 25 82  1  0  0  0  0
 26 28  2  0  0  0  0
 26 81  1  0  0  0  0
 27 84  1  0  0  0  0
 28 85  1  0  0  0  0
 29 65  2  0  0  0  0
 30 61  1  0  0  0  0
 30 66  2  0  0  0  0
 31 66  1  0  0  0  0
 31 83  1  0  0  0  0
 32 67  1  0  0  0  0
 32 70  1  0  0  0  0
 33 71  1  0  0  0  0
 33 76  2  0  0  0  0
 34 52  1  0  0  0  0
 34 72  1  0  0  0  0
 34 77  2  0  0  0  0
 35 62  1  0  0  0  0
 35 68  1  0  0  0  0
 35 78  2  0  0  0  0
 36 63  1  0  0  0  0
 36 73  1  0  0  0  0
 36 79  2  0  0  0  0
 37 69  1  0  0  0  0
 37 74  1  0  0  0  0
 37 80  2  0  0  0  0
 38 41  1  0  0  0  0
 39 52  1  0  0  0  0
 40 68  1  0  0  0  0
 41 44  1  0  0  0  0
 42 45  1  0  0  0  0
 42 48  1  0  0  0  0
 43 46  1  0  0  0  0
 43 50  1  0  0  0  0
 44 51  1  0  0  0  0
 45 53  1  0  0  0  0
 46 54  1  0  0  0  0
 47 50  1  0  0  0  0
 47 54  1  0  0  0  0
 48 69  1  0  0  0  0
 49 53  1  0  0  0  0
 49 69  1  0  0  0  0
 51 72  1  0  0  0  0
 52 68  1  0  0  0  0
 53 67  1  0  0  0  0
 54 82  1  0  0  0  0
 55 63  1  0  0  0  0
 56 64  1  0  0  0  0
 57 64  1  0  0  0  0
 58 64  1  0  0  0  0
 59 75  1  0  0  0  0
 60 83  1  0  0  0  0
 61 74  1  0  0  0  0
 62 64  1  0  0  0  0
 62 73  1  0  0  0  0
 63 75  1  0  0  0  0
 65 67  1  0  0  0  0
M  CHG  1  75   1
M  ISO  4  37 100  54 101  74 100  82 101
M  END
> <Batch ID>
0156

> <Smiles>
CNC(C)C(=O)NC(C(=O)N1Cc2cc([101O:1][101CH:1]3CCC(c4ccc(C[100NH:0][100C:0](=O)N5CCCC(n6nc(-c7ccc(Oc8ccc(F)cc8F)cc7)c(C(N)=O)c6N)C5)nc4OC)C3)ccc2CC1C(=O)NC1CCCc2ccccc21)C(C)(C)C

> <Shape>
0.334

> <Color>
0.117

> <Negative vol penalty>
0.000

$$$$

  -OEChem-04052321563D

 87 96  0     1  0  0  0  0  0999 V2000
  -25.6323  -19.9906   27.0171 C   0  0  0  0  0  0  0  0  0  0  0  0
  -26.2306  -20.8869   26.1373 C   0  0  0  0  0  0  0  0  0  0  0  0
  -26.3771  -12.5741   19.5764 C   0  0  0  0  0  0  0  0  0  0  0  0
  -24.8828  -13.1745   21.3775 C   0  0  0  0  0  0  0  0  0  0  0  0
  -24.2466  -19.8364   27.0181 C   0  0  0  0  0  0  0  0  0  0  0  0
  -25.4436  -21.6288   25.2572 C   0  0  0  0  0  0  0  0  0  0  0  0
  -26.8109  -26.5010   25.0636 C   0  0  0  0  0  0  0  0  0  0  0  0
  -25.5339  -11.5188   19.2286 C   0  0  0  0  0  0  0  0  0  0  0  0
  -24.0396  -12.1191   21.0297 C   0  0  0  0  0  0  0  0  0  0  0  0
  -27.9397  -26.8160   24.3084 C   0  0  0  0  0  0  0  0  0  0  0  0
  -23.9357   -8.7674   21.4608 C   0  0  0  0  0  0  0  0  0  0  0  0
  -23.4437   -7.9648   22.4901 C   0  0  0  0  0  0  0  0  0  0  0  0
  -26.5192  -27.5254   22.4923 C   0  0  0  0  0  0  0  0  0  0  0  0
  -32.5616  -27.4440   19.9450 C   0  0  0  0  0  0  0  0  0  0  0  0
  -32.9324  -29.4297   21.2702 C   0  0  0  0  0  0  0  0  0  0  0  0
  -21.1845   -8.5591   21.8735 C   0  0  0  0  0  0  0  0  0  0  0  0
  -26.0515  -13.4020   20.6508 C   0  0  0  0  0  0  0  0  0  0  0  0
  -28.2710  -14.4078   21.4059 C   0  0  0  0  0  0  0  0  0  0  0  0
  -23.4414  -20.5838   26.1442 C   0  0  0  0  0  0  0  0  0  0  0  0
  -25.5257  -26.6859   24.5339 C   0  0  0  0  0  0  0  0  0  0  0  0
  -24.0460  -21.4835   25.2456 C   0  0  0  0  0  0  0  0  0  0  0  0
  -25.3757  -27.2144   23.2438 C   0  0  0  0  0  0  0  0  0  0  0  0
  -33.2479  -28.6380   20.1660 C   0  0  0  0  0  0  0  0  0  0  0  0
  -31.2441  -27.8333   21.9324 C   0  0  0  0  0  0  0  0  0  0  0  0
  -31.5596  -27.0416   20.8281 C   0  0  0  0  0  0  0  0  0  0  0  0
  -24.3652  -11.2913   19.9553 C   0  0  0  0  0  0  0  0  0  0  0  0
  -27.7940  -27.3256   23.0214 C   0  0  0  0  0  0  0  0  0  0  0  0
  -23.0521   -9.4659   20.6380 C   0  0  0  0  0  0  0  0  0  0  0  0
  -31.9304  -29.0274   22.1534 C   0  0  0  0  0  0  0  0  0  0  0  0
  -22.0681   -7.8606   22.6964 C   0  0  0  0  0  0  0  0  0  0  0  0
  -21.6765   -9.3618   20.8443 C   0  0  0  0  0  0  0  0  0  0  0  0
  -26.9224  -14.4920   21.0109 C   0  0  0  0  0  0  0  0  0  0  0  0
  -28.6432  -15.7097   21.6364 C   0  0  0  0  0  0  0  0  0  0  0  0
  -29.1120  -13.2558   21.5515 C   0  0  0  0  0  0  0  0  0  0  0  0
  -23.0792  -24.7707   23.8627 C   0  0  0  0  0  0  0  0  0  0  0  0
  -21.5675  -27.5693   23.2262 C   0  0  0  0  0  0  0  0  0  0  0  0
  -21.8096  -30.8601   22.3551 C   0  0  0  0  0  0  0  0  0  0  0  0
  -28.7953  -20.9577   20.0930 C   0  0  0  0  0  0  0  0  0  0  0  0
  -21.9518  -20.3482   26.1491 C   0  0  0  0  0  0  0  0  0  0  0  0
  -24.3179  -26.3663   25.3713 C   0  0  0  0  0  0  0  0  0  0  0  0
  -24.0178  -27.4507   22.6366 C   0  0  0  0  0  0  0  0  0  0  0  0
  -21.1591  -21.4461   25.4444 C   0  0  0  0  0  0  0  0  0  0  0  0
  -25.8638  -19.9251   21.9471 C   0  0  0  0  0  0  0  0  0  0  0  0
  -21.7994  -21.7897   24.1032 C   0  0  0  0  0  0  0  0  0  0  0  0
  -25.9943  -18.4017   21.8987 C   0  0  0  0  0  0  0  0  0  0  0  0
  -29.0496  -24.6063   19.4942 C   0  0  0  0  0  0  0  0  0  0  0  0
  -30.3428  -23.5605   21.3656 C   0  0  0  0  0  0  0  0  0  0  0  0
  -26.3174  -20.5607   20.6362 C   0  0  0  0  0  0  0  0  0  0  0  0
  -30.1366  -25.6699   19.3390 C   0  0  0  0  0  0  0  0  0  0  0  0
  -31.4299  -24.6218   21.2034 C   0  0  0  0  0  0  0  0  0  0  0  0
  -27.8343  -18.6746   20.1724 C   0  0  0  0  0  0  0  0  0  0  0  0
  -23.2241  -22.3244   24.2929 C   0  0  1  0  0  0  0  0  0  0  0  0
  -23.0645  -26.1121   24.5397 C   0  0  1  0  0  0  0  0  0  0  0  0
  -27.4125  -17.9739   21.4767 C   0  0  2  0  0  0  0  0  0  0  0  0
  -29.6141  -23.2996   20.0484 C   0  0  0  0  0  0  0  0  0  0  0  0
  -34.3191  -29.0678   19.2217 C   0  0  0  0  0  0  0  0  0  0  0  0
  -20.3995  -32.8795   21.8745 C   0  0  0  0  0  0  0  0  0  0  0  0
  -20.8548  -26.4179   20.4919 C   0  0  0  0  0  0  0  0  0  0  0  0
  -20.3102  -28.7408   19.7332 C   0  0  0  0  0  0  0  0  0  0  0  0
  -19.0143  -27.7027   21.5948 C   0  0  0  0  0  0  0  0  0  0  0  0
  -23.0189  -32.3796   24.5884 C   0  0  0  0  0  0  0  0  0  0  0  0
  -30.6345  -30.8127   23.0416 C   0  0  0  0  0  0  0  0  0  0  0  0
  -30.1669  -27.4089   22.8868 C   0  0  0  0  0  0  0  0  0  1  0  0
  -21.3981  -28.4390   22.0039 C   0  0  1  0  0  0  0  0  0  0  0  0
  -21.1657  -32.1059   22.9362 C   0  0  2  0  0  0  0  0  0  0  0  0
  -20.4201  -27.8190   20.9664 C   0  0  0  0  0  0  0  0  0  0  0  0
  -26.4685  -15.7480   20.9906 N   0  0  0  0  0  0  0  0  0  0  0  0
  -27.5379  -16.4650   21.3758 N   0  0  0  0  0  0  0  0  0  0  0  0
  -30.8822  -25.8390   20.5903 N   0  0  0  0  0  0  0  0  0  0  0  0
  -22.8675  -27.1166   23.4926 N   0  0  0  0  0  0  0  0  0  0  0  0
  -27.6814  -20.1276   20.3013 N   0  0  0  0  0  0  0  0  0  0  0  0
  -29.8048  -16.2705   22.0345 N   0  0  0  0  0  0  0  0  0  0  0  0
  -28.5701  -11.9934   21.2739 N   0  0  0  0  0  0  0  0  0  0  0  0
  -23.1923  -23.7029   24.7324 N   0  0  0  0  0  0  0  0  0  0  0  0
  -20.9972  -29.7543   22.4913 N   0  0  0  0  0  0  0  0  0  0  0  0
  -28.5644  -22.3213   20.2270 N   0  0  0  0  0  0  0  0  0  0  0  0
  -22.2047  -33.0044   23.5143 N   0  3  0  0  0  0  0  0  0  0  0  0
  -30.3040  -13.3418   21.9328 O   0  0  0  0  0  0  0  0  0  0  0  0
  -22.9929  -24.7091   22.6419 O   0  0  0  0  0  0  0  0  0  0  0  0
  -20.5839  -27.3073   23.9230 O   0  0  0  0  0  0  0  0  0  0  0  0
  -22.9205  -30.8679   21.8293 O   0  0  0  0  0  0  0  0  0  0  0  0
  -29.9150  -20.5159   19.8133 O   0  0  0  0  0  0  0  0  0  0  0  0
  -23.5421  -10.2617   19.6161 O   0  0  0  0  0  0  0  0  0  0  0  0
  -31.6362  -29.8146   23.2260 O   0  0  0  0  0  0  0  0  0  0  0  0
  -28.8941  -27.6333   22.2819 O   0  0  0  0  0  0  0  0  0  1  0  0
  -21.5957   -7.0886   23.6839 F   0  0  0  0  0  0  0  0  0  0  0  0
  -20.8228  -10.0295   20.0563 F   0  0  0  0  0  0  0  0  0  0  0  0
  1  2  1  0  0  0  0
  1  5  2  0  0  0  0
  2  6  2  0  0  0  0
  3  8  2  0  0  0  0
  3 17  1  0  0  0  0
  4  9  1  0  0  0  0
  4 17  2  0  0  0  0
  5 19  1  0  0  0  0
  6 21  1  0  0  0  0
  7 10  2  0  0  0  0
  7 20  1  0  0  0  0
  8 26  1  0  0  0  0
  9 26  2  0  0  0  0
 10 27  1  0  0  0  0
 11 12  2  0  0  0  0
 11 28  1  0  0  0  0
 12 30  1  0  0  0  0
 13 22  1  0  0  0  0
 13 27  2  0  0  0  0
 14 23  2  0  0  0  0
 14 25  1  0  0  0  0
 15 23  1  0  0  0  0
 15 29  2  0  0  0  0
 16 30  2  0  0  0  0
 16 31  1  0  0  0  0
 17 32  1  0  0  0  0
 18 32  1  0  0  0  0
 18 33  2  0  0  0  0
 18 34  1  0  0  0  0
 19 21  2  0  0  0  0
 19 39  1  0  0  0  0
 20 22  2  0  0  0  0
 20 40  1  0  0  0  0
 21 52  1  0  0  0  0
 22 41  1  0  0  0  0
 23 56  1  0  0  0  0
 24 25  2  0  0  0  0
 24 29  1  0  0  0  0
 24 63  1  0  0  0  0
 25 69  1  0  0  0  0
 26 83  1  0  0  0  0
 27 85  1  0  0  0  0
 28 31  2  0  0  0  0
 28 83  1  0  0  0  0
 29 84  1  0  0  0  0
 30 86  1  0  0  0  0
 31 87  1  0  0  0  0
 32 67  2  0  0  0  0
 33 68  1  0  0  0  0
 33 72  1  0  0  0  0
 34 73  1  0  0  0  0
 34 78  2  0  0  0  0
 35 53  1  0  0  0  0
 35 74  1  0  0  0  0
 35 79  2  0  0  0  0
 36 64  1  0  0  0  0
 36 70  1  0  0  0  0
 36 80  2  0  0  0  0
 37 65  1  0  0  0  0
 37 75  1  0  0  0  0
 37 81  2  0  0  0  0
 38 71  1  0  0  0  0
 38 76  1  0  0  0  0
 38 82  2  0  0  0  0
 39 42  1  0  0  0  0
 40 53  1  0  0  0  0
 41 70  1  0  0  0  0
 42 44  1  0  0  0  0
 43 45  1  0  0  0  0
 43 48  1  0  0  0  0
 44 52  1  0  0  0  0
 45 54  1  0  0  0  0
 46 49  1  0  0  0  0
 46 55  1  0  0  0  0
 47 50  1  0  0  0  0
 47 55  1  0  0  0  0
 48 71  1  0  0  0  0
 49 69  1  0  0  0  0
 50 69  1  0  0  0  0
 51 54  1  0  0  0  0
 51 71  1  0  0  0  0
 52 74  1  0  0  0  0
 53 70  1  0  0  0  0
 54 68  1  0  0  0  0
 55 76  1  0  0  0  0
 57 65  1  0  0  0  0
 58 66  1  0  0  0  0
 59 66  1  0  0  0  0
 60 66  1  0  0  0  0
 61 77  1  0  0  0  0
 62 84  1  0  0  0  0
 63 85  1  0  0  0  0
 64 66  1  0  0  0  0
 64 75  1  0  0  0  0
 65 77  1  0  0  0  0
 67 68  1  0  0  0  0
M  CHG  1  77   1
M  ISO  4  38 100  63 101  76 100  85 101
M  END
> <Batch ID>
0156

> <Smiles>
CNC(C)C(=O)NC(C(=O)N1Cc2cc([101O:1][101CH2:1]c3c(OC)cc(C)cc3N3CCC([100NH:0][100C:0](=O)N4CCCC(n5nc(-c6ccc(Oc7ccc(F)cc7F)cc6)c(C(N)=O)c5N)C4)CC3)ccc2CC1C(=O)NC1CCCc2ccccc21)C(C)(C)C

> <Shape>
0.224

> <Color>
0.053

> <Negative vol penalty>
0.000

$$$$

  -OEChem-04052321563D

 88 97  0     1  0  0  0  0  0999 V2000
  -15.8157  -26.2927   24.3304 C   0  0  0  0  0  0  0  0  0  0  0  0
  -16.7158  -25.7233   23.4354 C   0  0  0  0  0  0  0  0  0  0  0  0
  -31.0783  -19.0559   18.6163 C   0  0  0  0  0  0  0  0  0  0  0  0
  -28.8342  -19.5204   19.3812 C   0  0  0  0  0  0  0  0  0  0  0  0
  -15.8984  -27.6516   24.6309 C   0  0  0  0  0  0  0  0  0  0  0  0
  -17.6985  -26.5130   22.8394 C   0  0  0  0  0  0  0  0  0  0  0  0
  -22.2474  -24.2875   22.8460 C   0  0  0  0  0  0  0  0  0  0  0  0
  -31.0542  -20.2153   17.8413 C   0  0  0  0  0  0  0  0  0  0  0  0
  -28.8100  -20.6799   18.6062 C   0  0  0  0  0  0  0  0  0  0  0  0
  -22.4734  -23.2977   21.8904 C   0  0  0  0  0  0  0  0  0  0  0  0
  -28.2919  -23.9524   17.1094 C   0  0  0  0  0  0  0  0  0  0  0  0
  -27.7917  -25.1149   17.6958 C   0  0  0  0  0  0  0  0  0  0  0  0
  -23.9498  -16.7259   19.4744 C   0  0  0  0  0  0  0  0  0  0  0  0
  -25.5425  -17.3897   21.1654 C   0  0  0  0  0  0  0  0  0  0  0  0
  -23.6659  -24.8927   20.5291 C   0  0  0  0  0  0  0  0  0  0  0  0
  -29.5086  -24.9982   19.3916 C   0  0  0  0  0  0  0  0  0  0  0  0
  -29.9683  -18.7083   19.3862 C   0  0  0  0  0  0  0  0  0  0  0  0
  -30.4220  -17.3885   21.5216 C   0  0  0  0  0  0  0  0  0  0  0  0
  -16.8887  -28.4563   24.0457 C   0  0  0  0  0  0  0  0  0  0  0  0
  -22.7203  -25.5922   22.6449 C   0  0  0  0  0  0  0  0  0  0  0  0
  -17.7937  -27.8843   23.1313 C   0  0  0  0  0  0  0  0  0  0  0  0
  -24.8150  -16.3922   20.5163 C   0  0  0  0  0  0  0  0  0  0  0  0
  -23.4468  -25.8966   21.4848 C   0  0  0  0  0  0  0  0  0  0  0  0
  -24.5397  -19.0547   19.7303 C   0  0  0  0  0  0  0  0  0  0  0  0
  -29.9201  -21.0274   17.8363 C   0  0  0  0  0  0  0  0  0  0  0  0
  -23.1802  -23.6010   20.7304 C   0  0  0  0  0  0  0  0  0  0  0  0
  -29.4004  -23.3127   17.6642 C   0  0  0  0  0  0  0  0  0  0  0  0
  -23.8122  -18.0572   19.0813 C   0  0  0  0  0  0  0  0  0  0  0  0
  -25.4049  -18.7211   20.7724 C   0  0  0  0  0  0  0  0  0  0  0  0
  -28.4001  -25.6379   18.8369 C   0  0  0  0  0  0  0  0  0  0  0  0
  -30.0088  -23.8356   18.8052 C   0  0  0  0  0  0  0  0  0  0  0  0
  -29.9924  -17.5104   20.1865 C   0  0  0  0  0  0  0  0  0  0  0  0
  -30.2471  -16.0590   21.8185 C   0  0  0  0  0  0  0  0  0  0  0  0
  -30.9333  -18.3878   22.4136 C   0  0  0  0  0  0  0  0  0  0  0  0
  -21.3612  -28.4508   22.3536 C   0  0  0  0  0  0  0  0  0  0  0  0
  -24.4364  -29.4830   22.3718 C   0  0  0  0  0  0  0  0  0  0  0  0
  -27.4568  -28.5972   22.3220 C   0  0  0  0  0  0  0  0  0  0  0  0
  -26.6986  -11.8345   19.7880 C   0  0  0  0  0  0  0  0  0  0  0  0
  -16.9090  -29.9302   24.3652 C   0  0  0  0  0  0  0  0  0  0  0  0
  -22.4913  -26.6418   23.6976 C   0  0  0  0  0  0  0  0  0  0  0  0
  -23.9932  -27.2769   21.2307 C   0  0  0  0  0  0  0  0  0  0  0  0
  -18.2145  -30.6196   23.9773 C   0  0  0  0  0  0  0  0  0  0  0  0
  -23.8279  -12.8914   21.8748 C   0  0  0  0  0  0  0  0  0  0  0  0
  -30.1653  -11.7354   19.7822 C   0  0  0  0  0  0  0  0  0  0  0  0
  -23.6454  -14.3536   21.4706 C   0  0  0  0  0  0  0  0  0  0  0  0
  -18.6351  -30.2126   22.5687 C   0  0  0  0  0  0  0  0  0  0  0  0
  -30.5718  -13.1907   20.0130 C   0  0  0  0  0  0  0  0  0  0  0  0
  -24.4346  -12.0619   20.7469 C   0  0  0  0  0  0  0  0  0  0  0  0
  -28.9759  -11.6443   18.8329 C   0  0  0  0  0  0  0  0  0  0  0  0
  -25.5269  -14.0736   19.8100 C   0  0  0  0  0  0  0  0  0  0  0  0
  -28.1745  -13.8805   19.5218 C   0  0  0  0  0  0  0  0  0  0  0  0
  -24.9647  -14.9443   20.9437 C   0  0  1  0  0  0  0  0  0  0  0  0
  -18.8893  -28.7028   22.4833 C   0  0  1  0  0  0  0  0  0  0  0  0
  -22.5742  -28.0639   23.1515 C   0  0  1  0  0  0  0  0  0  0  0  0
  -29.3710  -14.0306   20.4820 C   0  0  2  0  0  0  0  0  0  0  0  0
  -29.9208  -28.9993   22.0684 C   0  0  0  0  0  0  0  0  0  0  0  0
  -23.8275  -30.9513   19.7674 C   0  0  0  0  0  0  0  0  0  0  0  0
  -26.2936  -31.1741   19.3977 C   0  0  0  0  0  0  0  0  0  0  0  0
  -25.2313  -32.2394   21.3875 C   0  0  0  0  0  0  0  0  0  0  0  0
  -28.0168  -27.6115   25.0558 C   0  0  0  0  0  0  0  0  0  0  0  0
  -22.2591  -17.2830   17.4552 C   0  0  0  0  0  0  0  0  0  0  0  0
  -26.9831  -19.2498   22.4710 C   0  0  0  0  0  0  0  0  0  0  0  0
  -24.3920  -20.4818   19.3100 C   0  0  0  0  0  0  0  0  0  0  0  0
  -23.5085  -21.2928   20.2607 C   0  0  0  0  0  0  0  0  0  1  0  0
  -25.4890  -29.7253   21.3172 C   0  0  1  0  0  0  0  0  0  0  0  0
  -28.7592  -28.8922   23.0440 C   0  0  2  0  0  0  0  0  0  0  0  0
  -25.1985  -30.9969   20.4710 C   0  0  0  0  0  0  0  0  0  0  0  0
  -29.5761  -16.3508   19.6709 N   0  0  0  0  0  0  0  0  0  0  0  0
  -29.7433  -15.4875   20.6872 N   0  0  0  0  0  0  0  0  0  0  0  0
  -23.7378  -28.2703   22.2868 N   0  0  0  0  0  0  0  0  0  0  0  0
  -25.6612  -12.6709   20.2320 N   0  0  0  0  0  0  0  0  0  0  0  0
  -27.8580  -12.4608   19.3060 N   0  0  0  0  0  0  0  0  0  0  0  0
  -30.4767  -15.3346   22.9343 N   0  0  0  0  0  0  0  0  0  0  0  0
  -31.0477  -19.7044   21.9470 N   0  0  0  0  0  0  0  0  0  0  0  0
  -20.1756  -28.3735   23.0591 N   0  0  0  0  0  0  0  0  0  0  0  0
  -26.7690  -29.7526   22.0167 N   0  0  0  0  0  0  0  0  0  0  0  0
  -29.0654  -27.8107   24.0225 N   0  3  0  0  0  0  0  0  0  0  0  0
  -31.2941  -18.1178   23.5843 O   0  0  0  0  0  0  0  0  0  0  0  0
  -21.4915  -28.7955   21.1849 O   0  0  0  0  0  0  0  0  0  0  0  0
  -24.2461  -30.3350   23.2433 O   0  0  0  0  0  0  0  0  0  0  0  0
  -27.0885  -27.4561   22.0522 O   0  0  0  0  0  0  0  0  0  0  0  0
  -26.5952  -10.6019   19.8239 O   0  0  0  0  0  0  0  0  0  0  0  0
  -29.8963  -22.1590   17.0804 O   0  0  0  0  0  0  0  0  0  0  0  0
  -22.9624  -18.3652   18.0617 O   0  0  0  0  0  0  0  0  0  0  0  0
  -26.1237  -19.6817   21.4181 O   0  0  0  0  0  0  0  0  0  0  0  0
  -23.4032  -22.6302   19.7893 O   0  0  0  0  0  0  0  0  0  1  0  0
  -27.9206  -26.7552   19.3990 F   0  0  0  0  0  0  0  0  0  0  0  0
  -31.0747  -23.2262   19.3420 F   0  0  0  0  0  0  0  0  0  0  0  0
  1  2  1  0  0  0  0
  1  5  2  0  0  0  0
  2  6  2  0  0  0  0
  3  8  2  0  0  0  0
  3 17  1  0  0  0  0
  4  9  1  0  0  0  0
  4 17  2  0  0  0  0
  5 19  1  0  0  0  0
  6 21  1  0  0  0  0
  7 10  2  0  0  0  0
  7 20  1  0  0  0  0
  8 25  1  0  0  0  0
  9 25  2  0  0  0  0
 10 26  1  0  0  0  0
 11 12  2  0  0  0  0
 11 27  1  0  0  0  0
 12 30  1  0  0  0  0
 13 22  1  0  0  0  0
 13 28  2  0  0  0  0
 14 22  2  0  0  0  0
 14 29  1  0  0  0  0
 15 23  1  0  0  0  0
 15 26  2  0  0  0  0
 16 30  2  0  0  0  0
 16 31  1  0  0  0  0
 17 32  1  0  0  0  0
 18 32  1  0  0  0  0
 18 33  2  0  0  0  0
 18 34  1  0  0  0  0
 19 21  2  0  0  0  0
 19 39  1  0  0  0  0
 20 23  2  0  0  0  0
 20 40  1  0  0  0  0
 21 53  1  0  0  0  0
 22 52  1  0  0  0  0
 23 41  1  0  0  0  0
 24 28  1  0  0  0  0
 24 29  2  0  0  0  0
 24 63  1  0  0  0  0
 25 83  1  0  0  0  0
 26 86  1  0  0  0  0
 27 31  2  0  0  0  0
 27 83  1  0  0  0  0
 28 84  1  0  0  0  0
 29 85  1  0  0  0  0
 30 87  1  0  0  0  0
 31 88  1  0  0  0  0
 32 68  2  0  0  0  0
 33 69  1  0  0  0  0
 33 73  1  0  0  0  0
 34 74  1  0  0  0  0
 34 78  2  0  0  0  0
 35 54  1  0  0  0  0
 35 75  1  0  0  0  0
 35 79  2  0  0  0  0
 36 65  1  0  0  0  0
 36 70  1  0  0  0  0
 36 80  2  0  0  0  0
 37 66  1  0  0  0  0
 37 76  1  0  0  0  0
 37 81  2  0  0  0  0
 38 71  1  0  0  0  0
 38 72  1  0  0  0  0
 38 82  2  0  0  0  0
 39 42  1  0  0  0  0
 40 54  1  0  0  0  0
 41 70  1  0  0  0  0
 42 46  1  0  0  0  0
 43 45  1  0  0  0  0
 43 48  1  0  0  0  0
 44 47  1  0  0  0  0
 44 49  1  0  0  0  0
 45 52  1  0  0  0  0
 46 53  1  0  0  0  0
 47 55  1  0  0  0  0
 48 71  1  0  0  0  0
 49 72  1  0  0  0  0
 50 52  1  0  0  0  0
 50 71  1  0  0  0  0
 51 55  1  0  0  0  0
 51 72  1  0  0  0  0
 53 75  1  0  0  0  0
 54 70  1  0  0  0  0
 55 69  1  0  0  0  0
 56 66  1  0  0  0  0
 57 67  1  0  0  0  0
 58 67  1  0  0  0  0
 59 67  1  0  0  0  0
 60 77  1  0  0  0  0
 61 84  1  0  0  0  0
 62 85  1  0  0  0  0
 63 64  1  0  0  0  0
 64 86  1  0  0  0  0
 65 67  1  0  0  0  0
 65 76  1  0  0  0  0
 66 77  1  0  0  0  0
 68 69  1  0  0  0  0
M  CHG  1  77   1
M  ISO  4  38 100  64 101  71 100  86 101
M  END
> <Batch ID>
0156

> <Smiles>
CNC(C)C(=O)NC(C(=O)N1Cc2cc([101O:1][101CH2:1]Cc3c(OC)cc(C4CCC[100N:0]([100C:0](=O)N5CCCC(n6nc(-c7ccc(Oc8ccc(F)cc8F)cc7)c(C(N)=O)c6N)C5)C4)cc3OC)ccc2CC1C(=O)NC1CCCc2ccccc21)C(C)(C)C

> <Shape>
0.290

> <Color>
0.049

> <Negative vol penalty>
0.000

$$$$

  -OEChem-04052321563D

 84 93  0     1  0  0  0  0  0999 V2000
  -36.5022  -29.8585   15.9330 C   0  0  0  0  0  0  0  0  0  0  0  0
  -35.3413  -29.2439   15.4747 C   0  0  0  0  0  0  0  0  0  0  0  0
  -23.2755  -10.1424   22.1766 C   0  0  0  0  0  0  0  0  0  0  0  0
  -23.4837   -9.5814   19.8358 C   0  0  0  0  0  0  0  0  0  0  0  0
  -37.5896  -29.0824   16.3317 C   0  0  0  0  0  0  0  0  0  0  0  0
  -35.2676  -27.8528   15.4140 C   0  0  0  0  0  0  0  0  0  0  0  0
  -30.1907  -24.2466   19.0350 C   0  0  0  0  0  0  0  0  0  0  0  0
  -22.5113   -8.9941   22.3839 C   0  0  0  0  0  0  0  0  0  0  0  0
  -22.7195   -8.4330   20.0431 C   0  0  0  0  0  0  0  0  0  0  0  0
  -29.1212  -23.4997   19.5294 C   0  0  0  0  0  0  0  0  0  0  0  0
  -23.0510   -5.6780   22.7643 C   0  0  0  0  0  0  0  0  0  0  0  0
  -23.3487   -4.8936   23.8786 C   0  0  0  0  0  0  0  0  0  0  0  0
  -28.1456  -18.6756   21.4909 C   0  0  0  0  0  0  0  0  0  0  0  0
  -30.1536  -21.4673   18.7223 C   0  0  0  0  0  0  0  0  0  0  0  0
  -28.4060  -19.9375   23.5307 C   0  0  0  0  0  0  0  0  0  0  0  0
  -21.1088   -5.2348   24.7172 C   0  0  0  0  0  0  0  0  0  0  0  0
  -23.7616  -10.4361   20.9025 C   0  0  0  0  0  0  0  0  0  0  0  0
  -24.1589  -12.9560   20.9117 C   0  0  0  0  0  0  0  0  0  0  0  0
  -37.5257  -27.6808   16.2850 C   0  0  0  0  0  0  0  0  0  0  0  0
  -31.2544  -23.6043   18.3953 C   0  0  0  0  0  0  0  0  0  0  0  0
  -36.3557  -27.0572   15.8112 C   0  0  0  0  0  0  0  0  0  0  0  0
  -29.0977  -17.7419   21.9281 C   0  0  0  0  0  0  0  0  0  0  0  0
  -31.2336  -22.2089   18.2362 C   0  0  0  0  0  0  0  0  0  0  0  0
  -29.7250  -17.9272   23.1741 C   0  0  0  0  0  0  0  0  0  0  0  0
  -27.8006  -19.7657   22.2893 C   0  0  0  0  0  0  0  0  0  0  0  0
  -22.2333   -8.1394   21.3172 C   0  0  0  0  0  0  0  0  0  0  0  0
  -29.1026  -22.1135   19.3732 C   0  0  0  0  0  0  0  0  0  0  0  0
  -21.7822   -6.2408   22.6264 C   0  0  0  0  0  0  0  0  0  0  0  0
  -29.3609  -19.0223   23.9725 C   0  0  0  0  0  0  0  0  0  0  0  0
  -22.3776   -4.6720   24.8551 C   0  0  0  0  0  0  0  0  0  0  0  0
  -20.8111   -6.0192   23.6029 C   0  0  0  0  0  0  0  0  0  0  0  0
  -24.5506  -11.6225   20.6876 C   0  0  0  0  0  0  0  0  0  0  0  0
  -25.2573  -13.7006   20.5573 C   0  0  0  0  0  0  0  0  0  0  0  0
  -22.9136  -13.4752   21.3968 C   0  0  0  0  0  0  0  0  0  0  0  0
  -30.7887  -14.5156   20.7273 C   0  0  0  0  0  0  0  0  0  0  0  0
  -34.5752  -23.9387   16.6817 C   0  0  0  0  0  0  0  0  0  0  0  0
  -34.7376  -21.4448   18.4605 C   0  0  0  0  0  0  0  0  0  0  0  0
  -35.7342  -18.8775   20.4737 C   0  0  0  0  0  0  0  0  0  0  0  0
  -38.7438  -26.8849   16.6819 C   0  0  0  0  0  0  0  0  0  0  0  0
  -32.3977  -24.3749   17.7928 C   0  0  0  0  0  0  0  0  0  0  0  0
  -29.4652  -16.5930   21.0210 C   0  0  0  0  0  0  0  0  0  0  0  0
  -30.7380  -16.9420   23.7017 C   0  0  0  0  0  0  0  0  0  0  0  0
  -32.3830  -21.5643   17.5107 C   0  0  0  0  0  0  0  0  0  0  0  0
  -38.4497  -25.4095   16.9403 C   0  0  0  0  0  0  0  0  0  0  0  0
  -31.3254  -16.0447   22.6142 C   0  0  0  0  0  0  0  0  0  0  0  0
  -29.4982  -12.3877   18.1492 C   0  0  0  0  0  0  0  0  0  0  0  0
  -37.5827  -24.8346   15.8247 C   0  0  0  0  0  0  0  0  0  0  0  0
  -28.0743  -12.0841   18.6135 C   0  0  0  0  0  0  0  0  0  0  0  0
  -30.4578  -12.5029   19.3295 C   0  0  0  0  0  0  0  0  0  0  0  0
  -28.6138  -13.1997   20.8248 C   0  0  0  0  0  0  0  0  0  0  0  0
  -36.2283  -25.5503   15.7540 C   0  0  1  0  0  0  0  0  0  0  0  0
  -30.2119  -15.4688   21.7435 C   0  0  2  0  0  0  0  0  0  0  0  0
  -33.7435  -23.6348   17.8930 C   0  0  1  0  0  0  0  0  0  0  0  0
  -27.6063  -13.1055   19.6652 C   0  0  2  0  0  0  0  0  0  0  0  0
  -37.3755  -16.9823   20.5822 C   0  0  0  0  0  0  0  0  0  0  0  0
  -33.0295  -19.8578   16.4938 C   0  0  0  0  0  0  0  0  0  0  0  0
  -34.1079  -17.7680   17.3531 C   0  0  0  0  0  0  0  0  0  0  0  0
  -35.4949  -19.5198   16.2440 C   0  0  0  0  0  0  0  0  0  0  0  0
  -37.0192  -19.9763   22.9028 C   0  0  0  0  0  0  0  0  0  0  0  0
  -29.2964  -18.6184   26.3148 C   0  0  0  0  0  0  0  0  0  0  0  0
  -26.7716  -20.7591   21.8065 C   0  0  0  0  0  0  0  0  0  0  0  0
  -27.3969  -21.9044   21.0177 C   0  0  0  0  0  0  0  0  0  1  0  0
  -34.5755  -19.9490   18.5597 C   0  0  1  0  0  0  0  0  0  0  0  0
  -37.1108  -18.4370   20.9378 C   0  0  2  0  0  0  0  0  0  0  0  0
  -34.2884  -19.2913   17.1804 C   0  0  0  0  0  0  0  0  0  0  0  0
  -25.8001  -11.5226   20.2265 N   0  0  0  0  0  0  0  0  0  0  0  0
  -26.2031  -12.8028   20.1577 N   0  0  0  0  0  0  0  0  0  0  0  0
  -29.9666  -13.4661   20.3166 N   0  0  0  0  0  0  0  0  0  0  0  0
  -33.6530  -22.1658   17.9466 N   0  0  0  0  0  0  0  0  0  0  0  0
  -25.4966  -15.0292   20.5515 N   0  0  0  0  0  0  0  0  0  0  0  0
  -21.9124  -13.7877   20.4672 N   0  0  0  0  0  0  0  0  0  0  0  0
  -35.3507  -25.0760   16.8025 N   0  0  0  0  0  0  0  0  0  0  0  0
  -35.7770  -19.4511   19.2206 N   0  0  0  0  0  0  0  0  0  0  0  0
  -37.2326  -18.5893   22.4153 N   0  3  0  0  0  0  0  0  0  0  0  0
  -22.7011  -13.6720   22.6173 O   0  0  0  0  0  0  0  0  0  0  0  0
  -31.9347  -14.7016   20.3099 O   0  0  0  0  0  0  0  0  0  0  0  0
  -34.5195  -23.1958   15.7087 O   0  0  0  0  0  0  0  0  0  0  0  0
  -35.7981  -21.9618   18.8228 O   0  0  0  0  0  0  0  0  0  0  0  0
  -34.7216  -18.7243   21.1532 O   0  0  0  0  0  0  0  0  0  0  0  0
  -21.4879   -7.0186   21.5191 O   0  0  0  0  0  0  0  0  0  0  0  0
  -29.9356  -19.2227   25.1936 O   0  0  0  0  0  0  0  0  0  0  0  0
  -28.0576  -21.3899   19.8622 O   0  0  0  0  0  0  0  0  0  1  0  0
  -22.6632   -3.9175   25.9243 F   0  0  0  0  0  0  0  0  0  0  0  0
  -19.5900   -6.5562   23.4753 F   0  0  0  0  0  0  0  0  0  0  0  0
  1  2  1  0  0  0  0
  1  5  2  0  0  0  0
  2  6  2  0  0  0  0
  3  8  2  0  0  0  0
  3 17  1  0  0  0  0
  4  9  1  0  0  0  0
  4 17  2  0  0  0  0
  5 19  1  0  0  0  0
  6 21  1  0  0  0  0
  7 10  2  0  0  0  0
  7 20  1  0  0  0  0
  8 26  1  0  0  0  0
  9 26  2  0  0  0  0
 10 27  1  0  0  0  0
 11 12  2  0  0  0  0
 11 28  1  0  0  0  0
 12 30  1  0  0  0  0
 13 22  2  0  0  0  0
 13 25  1  0  0  0  0
 14 23  1  0  0  0  0
 14 27  2  0  0  0  0
 15 25  2  0  0  0  0
 15 29  1  0  0  0  0
 16 30  2  0  0  0  0
 16 31  1  0  0  0  0
 17 32  1  0  0  0  0
 18 32  1  0  0  0  0
 18 33  2  0  0  0  0
 18 34  1  0  0  0  0
 19 21  2  0  0  0  0
 19 39  1  0  0  0  0
 20 23  2  0  0  0  0
 20 40  1  0  0  0  0
 21 51  1  0  0  0  0
 22 24  1  0  0  0  0
 22 41  1  0  0  0  0
 23 43  1  0  0  0  0
 24 29  2  0  0  0  0
 24 42  1  0  0  0  0
 25 61  1  0  0  0  0
 26 80  1  0  0  0  0
 27 82  1  0  0  0  0
 28 31  2  0  0  0  0
 28 80  1  0  0  0  0
 29 81  1  0  0  0  0
 30 83  1  0  0  0  0
 31 84  1  0  0  0  0
 32 66  2  0  0  0  0
 33 67  1  0  0  0  0
 33 70  1  0  0  0  0
 34 71  1  0  0  0  0
 34 75  2  0  0  0  0
 35 52  1  0  0  0  0
 35 68  1  0  0  0  0
 35 76  2  0  0  0  0
 36 53  1  0  0  0  0
 36 72  1  0  0  0  0
 36 77  2  0  0  0  0
 37 63  1  0  0  0  0
 37 69  1  0  0  0  0
 37 78  2  0  0  0  0
 38 64  1  0  0  0  0
 38 73  1  0  0  0  0
 38 79  2  0  0  0  0
 39 44  1  0  0  0  0
 40 53  1  0  0  0  0
 41 52  1  0  0  0  0
 42 45  1  0  0  0  0
 43 69  1  0  0  0  0
 44 47  1  0  0  0  0
 45 52  1  0  0  0  0
 46 48  1  0  0  0  0
 46 49  1  0  0  0  0
 47 51  1  0  0  0  0
 48 54  1  0  0  0  0
 49 68  1  0  0  0  0
 50 54  1  0  0  0  0
 50 68  1  0  0  0  0
 51 72  1  0  0  0  0
 53 69  1  0  0  0  0
 54 67  1  0  0  0  0
 55 64  1  0  0  0  0
 56 65  1  0  0  0  0
 57 65  1  0  0  0  0
 58 65  1  0  0  0  0
 59 74  1  0  0  0  0
 60 81  1  0  0  0  0
 61 62  1  0  0  0  0
 62 82  1  0  0  0  0
 63 65  1  0  0  0  0
 63 73  1  0  0  0  0
 64 74  1  0  0  0  0
 66 67  1  0  0  0  0
M  CHG  1  74   1
M  ISO  4  35 100  52 100  62 101  82 101
M  END
> <Batch ID>
0156

> <Smiles>
CNC(C)C(=O)NC(C(=O)N1Cc2cc([101O:1][101CH2:1]Cc3cc4c(c(OC)c3)CC[100CH:0]([100C:0](=O)N3CCCC(n5nc(-c6ccc(Oc7ccc(F)cc7F)cc6)c(C(N)=O)c5N)C3)C4)ccc2CC1C(=O)NC1CCCc2ccccc21)C(C)(C)C

> <Shape>
0.225

> <Color>
0.180

> <Negative vol penalty>
0.000

$$$$

  -OEChem-04052321563D

 87 96  0     1  0  0  0  0  0999 V2000
  -16.7705  -28.6063   23.9432 C   0  0  0  0  0  0  0  0  0  0  0  0
  -17.4253  -27.8632   22.9663 C   0  0  0  0  0  0  0  0  0  0  0  0
  -26.4387  -10.5899   20.3650 C   0  0  0  0  0  0  0  0  0  0  0  0
  -25.6042  -12.4650   19.0904 C   0  0  0  0  0  0  0  0  0  0  0  0
  -17.2535  -29.8644   24.3010 C   0  0  0  0  0  0  0  0  0  0  0  0
  -18.5629  -28.3782   22.3457 C   0  0  0  0  0  0  0  0  0  0  0  0
  -22.2783  -24.9594   21.9545 C   0  0  0  0  0  0  0  0  0  0  0  0
  -25.1502  -10.0594   20.4282 C   0  0  0  0  0  0  0  0  0  0  0  0
  -24.3157  -11.9344   19.1535 C   0  0  0  0  0  0  0  0  0  0  0  0
  -22.1647  -24.0088   20.9411 C   0  0  0  0  0  0  0  0  0  0  0  0
  -22.3245  -10.5860   22.2064 C   0  0  0  0  0  0  0  0  0  0  0  0
  -21.8833  -10.1021   23.4380 C   0  0  0  0  0  0  0  0  0  0  0  0
  -23.6966  -25.2835   19.5818 C   0  0  0  0  0  0  0  0  0  0  0  0
  -21.5781   -7.9107   22.4676 C   0  0  0  0  0  0  0  0  0  0  0  0
  -26.6657  -11.7928   19.6962 C   0  0  0  0  0  0  0  0  0  0  0  0
  -28.9677  -12.1010   18.6409 C   0  0  0  0  0  0  0  0  0  0  0  0
  -18.4032  -30.3909   23.6914 C   0  0  0  0  0  0  0  0  0  0  0  0
  -23.0949  -26.0868   21.7846 C   0  0  0  0  0  0  0  0  0  0  0  0
  -19.0610  -29.6450   22.6948 C   0  0  0  0  0  0  0  0  0  0  0  0
  -23.8209  -26.2457   20.5956 C   0  0  0  0  0  0  0  0  0  0  0  0
  -27.3815  -20.7814   17.7550 C   0  0  0  0  0  0  0  0  0  0  0  0
  -26.7865  -20.4788   18.9922 C   0  0  0  0  0  0  0  0  0  0  0  0
  -28.7790  -20.7734   17.6420 C   0  0  0  0  0  0  0  0  0  0  0  0
  -27.5960  -20.1384   20.0845 C   0  0  0  0  0  0  0  0  0  0  0  0
  -29.5757  -20.4419   18.7377 C   0  0  0  0  0  0  0  0  0  0  0  0
  -28.9847  -20.1224   19.9573 C   0  0  0  0  0  0  0  0  0  0  0  0
  -24.0888  -10.7316   19.8224 C   0  0  0  0  0  0  0  0  0  0  0  0
  -22.8716  -24.1721   19.7534 C   0  0  0  0  0  0  0  0  0  0  0  0
  -22.3924   -9.7323   21.1054 C   0  0  0  0  0  0  0  0  0  0  0  0
  -21.5101   -8.7645   23.5686 C   0  0  0  0  0  0  0  0  0  0  0  0
  -22.0192   -8.3947   21.2360 C   0  0  0  0  0  0  0  0  0  0  0  0
  -27.9963  -12.3416   19.6311 C   0  0  0  0  0  0  0  0  0  0  0  0
  -30.0502  -12.8502   19.0327 C   0  0  0  0  0  0  0  0  0  0  0  0
  -28.8976  -11.2744   17.4716 C   0  0  0  0  0  0  0  0  0  0  0  0
  -22.5992  -29.2257   21.7158 C   0  0  0  0  0  0  0  0  0  0  0  0
  -25.8382  -29.3412   21.5838 C   0  0  0  0  0  0  0  0  0  0  0  0
  -28.7629  -27.7753   20.7830 C   0  0  0  0  0  0  0  0  0  0  0  0
  -30.6002  -17.7692   22.4019 C   0  0  0  0  0  0  0  0  0  0  0  0
  -18.8603  -31.7753   24.0776 C   0  0  0  0  0  0  0  0  0  0  0  0
  -23.2275  -27.0895   22.8979 C   0  0  0  0  0  0  0  0  0  0  0  0
  -26.5408  -21.1781   16.5682 C   0  0  0  0  0  0  0  0  0  0  0  0
  -24.7269  -27.4278   20.3716 C   0  0  0  0  0  0  0  0  0  0  0  0
  -25.2901  -20.4619   19.1456 C   0  0  0  0  0  0  0  0  0  0  0  0
  -20.2882  -32.0898   23.6390 C   0  0  0  0  0  0  0  0  0  0  0  0
  -32.1629  -14.6165   22.9451 C   0  0  0  0  0  0  0  0  0  0  0  0
  -20.5057  -31.6704   22.1886 C   0  0  0  0  0  0  0  0  0  0  0  0
  -31.3599  -13.6543   22.0680 C   0  0  0  0  0  0  0  0  0  0  0  0
  -31.2723  -15.6894   23.5677 C   0  0  0  0  0  0  0  0  0  0  0  0
  -29.6446  -15.4822   21.7288 C   0  0  0  0  0  0  0  0  0  0  0  0
  -25.0911  -20.7182   16.6758 C   0  0  0  0  0  0  0  0  0  0  0  0
  -20.3123  -30.1589   22.0165 C   0  0  1  0  0  0  0  0  0  0  0  0
  -23.6877  -28.4614   22.4147 C   0  0  1  0  0  0  0  0  0  0  0  0
  -30.5085  -14.4157   21.0343 C   0  0  2  0  0  0  0  0  0  0  0  0
  -29.4399  -21.1318   16.3457 C   0  0  0  0  0  0  0  0  0  0  0  0
  -26.9794  -19.7777   21.4011 C   0  0  0  0  0  0  0  0  0  0  0  0
  -31.0666  -20.4305   18.6043 C   0  0  0  0  0  0  0  0  0  0  0  0
  -31.2460  -28.1364   20.7506 C   0  0  0  0  0  0  0  0  0  0  0  0
  -25.5499  -31.0837   19.0957 C   0  0  0  0  0  0  0  0  0  0  0  0
  -27.9555  -30.6216   18.5784 C   0  0  0  0  0  0  0  0  0  0  0  0
  -27.3407  -31.8160   20.6803 C   0  0  0  0  0  0  0  0  0  0  0  0
  -29.2290  -25.5432   22.6697 C   0  0  0  0  0  0  0  0  0  0  0  0
  -29.8410  -19.7604   21.1300 C   0  0  0  0  0  0  0  0  0  0  0  0
  -23.0619  -20.9487   18.1182 C   0  0  0  0  0  0  0  0  0  0  0  0
  -22.5017  -21.8997   19.1573 C   0  0  0  0  0  0  0  0  0  1  0  0
  -26.8637  -29.3416   20.4759 C   0  0  1  0  0  0  0  0  0  0  0  0
  -30.0626  -27.6149   21.5508 C   0  0  2  0  0  0  0  0  0  0  0  0
  -26.9090  -30.6943   19.7107 C   0  0  0  0  0  0  0  0  0  0  0  0
  -28.4241  -13.1780   20.5806 N   0  0  0  0  0  0  0  0  0  0  0  0
  -29.6761  -13.4695   20.1888 N   0  0  0  0  0  0  0  0  0  0  0  0
  -24.8182  -28.3840   21.4874 N   0  0  0  0  0  0  0  0  0  0  0  0
  -30.4928  -16.3749   22.5341 N   0  0  0  0  0  0  0  0  0  0  0  0
  -31.2760  -13.0329   18.4975 N   0  0  0  0  0  0  0  0  0  0  0  0
  -27.7106  -10.5734   17.2190 N   0  0  0  0  0  0  0  0  0  0  0  0
  -21.4767  -29.4430   22.4919 N   0  0  0  0  0  0  0  0  0  0  0  0
  -28.1302  -28.9609   21.0919 N   0  0  0  0  0  0  0  0  0  0  0  0
  -29.8325  -18.3387   21.3934 N   0  0  0  0  0  0  0  0  0  0  0  0
  -24.5476  -21.1456   18.0156 N   0  3  1  0  0  0  0  0  0  0  0  0
  -30.3044  -26.1784   21.8655 N   0  3  0  0  0  0  0  0  0  0  0  0
  -29.8650  -11.1478   16.6831 O   0  0  0  0  0  0  0  0  0  0  0  0
  -22.7659  -29.5926   20.5585 O   0  0  0  0  0  0  0  0  0  0  0  0
  -25.9425  -30.1553   22.5046 O   0  0  0  0  0  0  0  0  0  0  0  0
  -28.3519  -26.9348   19.9861 O   0  0  0  0  0  0  0  0  0  0  0  0
  -31.3305  -18.4550   23.1253 O   0  0  0  0  0  0  0  0  0  0  0  0
  -22.8314  -10.2141   19.8835 O   0  0  0  0  0  0  0  0  0  0  0  0
  -22.7620  -23.2461   18.7623 O   0  0  0  0  0  0  0  0  0  1  0  0
  -21.0879   -8.2995   24.7517 F   0  0  0  0  0  0  0  0  0  0  0  0
  -22.0835   -7.5694   20.1821 F   0  0  0  0  0  0  0  0  0  0  0  0
  1  2  1  0  0  0  0
  1  5  2  0  0  0  0
  2  6  2  0  0  0  0
  3  8  2  0  0  0  0
  3 15  1  0  0  0  0
  4  9  1  0  0  0  0
  4 15  2  0  0  0  0
  5 17  1  0  0  0  0
  6 19  1  0  0  0  0
  7 10  2  0  0  0  0
  7 18  1  0  0  0  0
  8 27  1  0  0  0  0
  9 27  2  0  0  0  0
 10 28  1  0  0  0  0
 11 12  2  0  0  0  0
 11 29  1  0  0  0  0
 12 30  1  0  0  0  0
 13 20  1  0  0  0  0
 13 28  2  0  0  0  0
 14 30  2  0  0  0  0
 14 31  1  0  0  0  0
 15 32  1  0  0  0  0
 16 32  1  0  0  0  0
 16 33  2  0  0  0  0
 16 34  1  0  0  0  0
 17 19  2  0  0  0  0
 17 39  1  0  0  0  0
 18 20  2  0  0  0  0
 18 40  1  0  0  0  0
 19 51  1  0  0  0  0
 20 42  1  0  0  0  0
 21 22  2  0  0  0  0
 21 23  1  0  0  0  0
 21 41  1  0  0  0  0
 22 24  1  0  0  0  0
 22 43  1  0  0  0  0
 23 25  2  0  0  0  0
 23 54  1  0  0  0  0
 24 26  2  0  0  0  0
 24 55  1  0  0  0  0
 25 26  1  0  0  0  0
 25 56  1  0  0  0  0
 26 62  1  0  0  0  0
 27 84  1  0  0  0  0
 28 85  1  0  0  0  0
 29 31  2  0  0  0  0
 29 84  1  0  0  0  0
 30 86  1  0  0  0  0
 31 87  1  0  0  0  0
 32 68  2  0  0  0  0
 33 69  1  0  0  0  0
 33 72  1  0  0  0  0
 34 73  1  0  0  0  0
 34 79  2  0  0  0  0
 35 52  1  0  0  0  0
 35 74  1  0  0  0  0
 35 80  2  0  0  0  0
 36 65  1  0  0  0  0
 36 70  1  0  0  0  0
 36 81  2  0  0  0  0
 37 66  1  0  0  0  0
 37 75  1  0  0  0  0
 37 82  2  0  0  0  0
 38 71  1  0  0  0  0
 38 76  1  0  0  0  0
 38 83  2  0  0  0  0
 39 44  1  0  0  0  0
 40 52  1  0  0  0  0
 41 50  1  0  0  0  0
 42 70  1  0  0  0  0
 43 77  1  0  0  0  0
 44 46  1  0  0  0  0
 45 47  1  0  0  0  0
 45 48  1  0  0  0  0
 46 51  1  0  0  0  0
 47 53  1  0  0  0  0
 48 71  1  0  0  0  0
 49 53  1  0  0  0  0
 49 71  1  0  0  0  0
 50 77  1  0  0  0  0
 51 74  1  0  0  0  0
 52 70  1  0  0  0  0
 53 69  1  0  0  0  0
 57 66  1  0  0  0  0
 58 67  1  0  0  0  0
 59 67  1  0  0  0  0
 60 67  1  0  0  0  0
 61 78  1  0  0  0  0
 62 76  1  0  0  0  0
 63 64  1  0  0  0  0
 63 77  1  0  0  0  0
 64 85  1  0  0  0  0
 65 67  1  0  0  0  0
 65 75  1  0  0  0  0
 66 78  1  0  0  0  0
 68 69  1  0  0  0  0
M  CHG  2  77   1  78   1
M  ISO  4  38 100  64 101  76 100  85 101
M  END
> <Batch ID>
0156

> <Smiles>
CNC(C)C(=O)NC(C(=O)N1Cc2cc([101O:1][101CH2:1]CN3CCc4c(C)c(C)c(C[100NH:0][100C:0](=O)N5CCCC(n6nc(-c7ccc(Oc8ccc(F)cc8F)cc7)c(C(N)=O)c6N)C5)c(C)c4C3)ccc2CC1C(=O)NC1CCCc2ccccc21)C(C)(C)C

> <Shape>
0.286

> <Color>
0.075

> <Negative vol penalty>
0.000

$$$$

  -OEChem-04052321563D

 87 96  0     1  0  0  0  0  0999 V2000
  -27.0886  -37.7212   24.0402 C   0  0  0  0  0  0  0  0  0  0  0  0
  -27.7817  -36.7160   23.3735 C   0  0  0  0  0  0  0  0  0  0  0  0
  -23.6579  -10.4728   22.4460 C   0  0  0  0  0  0  0  0  0  0  0  0
  -24.4657   -8.6156   21.1286 C   0  0  0  0  0  0  0  0  0  0  0  0
  -25.9699  -37.4031   24.8092 C   0  0  0  0  0  0  0  0  0  0  0  0
  -27.3572  -35.3918   23.4763 C   0  0  0  0  0  0  0  0  0  0  0  0
  -28.2531  -21.6700   19.1718 C   0  0  0  0  0  0  0  0  0  0  0  0
  -27.0499  -29.3178   19.6908 C   0  0  0  0  0  0  0  0  0  0  0  0
  -28.0789  -23.0465   19.0286 C   0  0  0  0  0  0  0  0  0  0  0  0
  -22.5200   -9.7395   22.7820 C   0  0  0  0  0  0  0  0  0  0  0  0
  -23.3278   -7.8822   21.4647 C   0  0  0  0  0  0  0  0  0  0  0  0
  -27.3996  -27.9715   19.7845 C   0  0  0  0  0  0  0  0  0  0  0  0
  -22.2060   -6.0995   24.1074 C   0  0  0  0  0  0  0  0  0  0  0  0
  -22.3833   -4.7698   24.4893 C   0  0  0  0  0  0  0  0  0  0  0  0
  -25.4069  -27.5500   21.0772 C   0  0  0  0  0  0  0  0  0  0  0  0
  -20.9869   -4.0559   22.6514 C   0  0  0  0  0  0  0  0  0  0  0  0
  -24.6308   -9.9109   21.6192 C   0  0  0  0  0  0  0  0  0  0  0  0
  -27.0294  -10.7066   21.9669 C   0  0  0  0  0  0  0  0  0  0  0  0
  -25.5257  -36.0755   24.9136 C   0  0  0  0  0  0  0  0  0  0  0  0
  -25.8796  -29.7933   20.2999 C   0  0  0  0  0  0  0  0  0  0  0  0
  -26.2323  -35.0553   24.2485 C   0  0  0  0  0  0  0  0  0  0  0  0
  -28.6655  -21.1428   20.3956 C   0  0  0  0  0  0  0  0  0  0  0  0
  -25.0433  -28.9024   20.9876 C   0  0  0  0  0  0  0  0  0  0  0  0
  -28.3172  -23.8958   20.1091 C   0  0  0  0  0  0  0  0  0  0  0  0
  -22.3549   -8.4442   22.2914 C   0  0  0  0  0  0  0  0  0  0  0  0
  -26.5796  -27.0879   20.4802 C   0  0  0  0  0  0  0  0  0  0  0  0
  -21.4191   -6.4076   22.9976 C   0  0  0  0  0  0  0  0  0  0  0  0
  -28.9038  -21.9921   21.4761 C   0  0  0  0  0  0  0  0  0  0  0  0
  -28.7297  -23.3686   21.3329 C   0  0  0  0  0  0  0  0  0  0  0  0
  -21.7738   -3.7479   23.7613 C   0  0  0  0  0  0  0  0  0  0  0  0
  -20.8096   -5.3857   22.2696 C   0  0  0  0  0  0  0  0  0  0  0  0
  -25.8062  -10.6681   21.2713 C   0  0  0  0  0  0  0  0  0  0  0  0
  -27.8135  -11.5651   21.2357 C   0  0  0  0  0  0  0  0  0  0  0  0
  -27.4220  -10.0268   23.1668 C   0  0  0  0  0  0  0  0  0  0  0  0
  -25.2403  -31.9090   22.5844 C   0  0  0  0  0  0  0  0  0  0  0  0
  -22.1663  -31.3074   21.7410 C   0  0  0  0  0  0  0  0  0  0  0  0
  -19.9146  -29.1630   20.3346 C   0  0  0  0  0  0  0  0  0  0  0  0
  -28.6203  -16.1644   18.3693 C   0  0  0  0  0  0  0  0  0  0  0  0
  -24.3394  -35.7741   25.7948 C   0  0  0  0  0  0  0  0  0  0  0  0
  -25.5027  -31.2434   20.1669 C   0  0  0  0  0  0  0  0  0  0  0  0
  -23.7658  -29.3587   21.6420 C   0  0  0  0  0  0  0  0  0  0  0  0
  -23.7329  -34.3950   25.5491 C   0  0  0  0  0  0  0  0  0  0  0  0
  -27.1308  -13.5635   16.6475 C   0  0  0  0  0  0  0  0  0  0  0  0
  -24.8278  -33.3351   25.4789 C   0  0  0  0  0  0  0  0  0  0  0  0
  -26.7496  -12.5716   17.7462 C   0  0  0  0  0  0  0  0  0  0  0  0
  -27.5322  -18.8778   20.3112 C   0  0  0  0  0  0  0  0  0  0  0  0
  -29.9495  -19.1096   19.5952 C   0  0  0  0  0  0  0  0  0  0  0  0
  -26.8537  -14.9967   17.0862 C   0  0  0  0  0  0  0  0  0  0  0  0
  -27.7318  -17.3632   20.4172 C   0  0  0  0  0  0  0  0  0  0  0  0
  -30.0988  -17.5982   19.7430 C   0  0  0  0  0  0  0  0  0  0  0  0
  -27.1673  -14.3989   19.4658 C   0  0  0  0  0  0  0  0  0  0  0  0
  -28.8496  -19.6430   20.5310 C   0  0  0  0  0  0  0  0  0  0  0  0
  -25.7881  -33.6103   24.3154 C   0  0  1  0  0  0  0  0  0  0  0  0
  -24.5524  -31.7166   21.2625 C   0  0  1  0  0  0  0  0  0  0  0  0
  -27.4341  -12.9305   19.0770 C   0  0  1  0  0  0  0  0  0  0  0  0
  -17.4689  -28.9322   19.8222 C   0  0  0  0  0  0  0  0  0  0  0  0
  -21.6105  -30.7006   24.6792 C   0  0  0  0  0  0  0  0  0  0  0  0
  -19.4823  -29.5861   23.9743 C   0  0  0  0  0  0  0  0  0  0  0  0
  -19.8219  -32.0170   23.5293 C   0  0  0  0  0  0  0  0  0  0  0  0
  -20.4232  -28.9760   17.4251 C   0  0  0  0  0  0  0  0  0  0  0  0
  -28.2848  -21.1210   23.6007 C   0  0  0  0  0  0  0  0  0  0  0  0
  -30.2876  -24.7050   22.5340 C   0  0  0  0  0  0  0  0  0  0  0  0
  -28.1280  -25.3668   19.9360 C   0  0  0  0  0  0  0  0  0  1  0  0
  -21.1130  -30.3168   22.1749 C   0  0  1  0  0  0  0  0  0  0  0  0
  -18.8247  -29.3823   19.3009 C   0  0  2  0  0  0  0  0  0  0  0  0
  -20.5319  -30.6466   23.5789 C   0  0  0  0  0  0  0  0  0  0  0  0
  -25.8080  -11.4410   20.1819 N   0  0  0  0  0  0  0  0  0  0  0  0
  -27.0421  -11.9732   20.1876 N   0  0  0  0  0  0  0  0  0  0  0  0
  -23.4438  -30.7871   21.4893 N   0  0  0  0  0  0  0  0  0  0  0  0
  -27.5174  -15.2973   18.3546 N   0  0  0  0  0  0  0  0  0  0  0  0
  -28.8198  -16.9199   19.5345 N   0  0  0  0  0  0  0  0  0  0  0  0
  -29.0805  -12.0034   21.3936 N   0  0  0  0  0  0  0  0  0  0  0  0
  -26.4937   -9.1818   23.7902 N   0  0  0  0  0  0  0  0  0  0  0  0
  -25.1912  -33.2052   23.0608 N   0  0  0  0  0  0  0  0  0  0  0  0
  -20.1178  -30.2859   21.1086 N   0  0  0  0  0  0  0  0  0  0  0  0
  -19.1280  -28.6175   18.0582 N   0  3  0  0  0  0  0  0  0  0  0  0
  -28.5566  -10.1775   23.6801 O   0  0  0  0  0  0  0  0  0  0  0  0
  -25.7747  -30.9520   23.1323 O   0  0  0  0  0  0  0  0  0  0  0  0
  -21.8650  -32.4976   21.6226 O   0  0  0  0  0  0  0  0  0  0  0  0
  -20.5221  -28.1005   20.4469 O   0  0  0  0  0  0  0  0  0  0  0  0
  -29.3828  -16.2580   17.3992 O   0  0  0  0  0  0  0  0  0  0  0  0
  -21.2448   -7.7282   22.6193 O   0  0  0  0  0  0  0  0  0  0  0  0
  -29.3069  -21.4799   22.6739 O   0  0  0  0  0  0  0  0  0  0  0  0
  -28.9636  -24.1965   22.3912 O   0  0  0  0  0  0  0  0  0  0  0  0
  -26.9214  -25.7641   20.5744 O   0  0  0  0  0  0  0  0  0  1  0  0
  -21.9453   -2.4709   24.1271 F   0  0  0  0  0  0  0  0  0  0  0  0
  -20.0536   -5.6754   21.2018 F   0  0  0  0  0  0  0  0  0  0  0  0
  1  2  1  0  0  0  0
  1  5  2  0  0  0  0
  2  6  2  0  0  0  0
  3 10  2  0  0  0  0
  3 17  1  0  0  0  0
  4 11  1  0  0  0  0
  4 17  2  0  0  0  0
  5 19  1  0  0  0  0
  6 21  1  0  0  0  0
  7  9  2  0  0  0  0
  7 22  1  0  0  0  0
  8 12  2  0  0  0  0
  8 20  1  0  0  0  0
  9 24  1  0  0  0  0
 10 25  1  0  0  0  0
 11 25  2  0  0  0  0
 12 26  1  0  0  0  0
 13 14  2  0  0  0  0
 13 27  1  0  0  0  0
 14 30  1  0  0  0  0
 15 23  1  0  0  0  0
 15 26  2  0  0  0  0
 16 30  2  0  0  0  0
 16 31  1  0  0  0  0
 17 32  1  0  0  0  0
 18 32  1  0  0  0  0
 18 33  2  0  0  0  0
 18 34  1  0  0  0  0
 19 21  2  0  0  0  0
 19 39  1  0  0  0  0
 20 23  2  0  0  0  0
 20 40  1  0  0  0  0
 21 53  1  0  0  0  0
 22 28  2  0  0  0  0
 22 52  1  0  0  0  0
 23 41  1  0  0  0  0
 24 29  2  0  0  0  0
 24 63  1  0  0  0  0
 25 82  1  0  0  0  0
 26 85  1  0  0  0  0
 27 31  2  0  0  0  0
 27 82  1  0  0  0  0
 28 29  1  0  0  0  0
 28 83  1  0  0  0  0
 29 84  1  0  0  0  0
 30 86  1  0  0  0  0
 31 87  1  0  0  0  0
 32 67  2  0  0  0  0
 33 68  1  0  0  0  0
 33 72  1  0  0  0  0
 34 73  1  0  0  0  0
 34 77  2  0  0  0  0
 35 54  1  0  0  0  0
 35 74  1  0  0  0  0
 35 78  2  0  0  0  0
 36 64  1  0  0  0  0
 36 69  1  0  0  0  0
 36 79  2  0  0  0  0
 37 65  1  0  0  0  0
 37 75  1  0  0  0  0
 37 80  2  0  0  0  0
 38 70  1  0  0  0  0
 38 71  1  0  0  0  0
 38 81  2  0  0  0  0
 39 42  1  0  0  0  0
 40 54  1  0  0  0  0
 41 69  1  0  0  0  0
 42 44  1  0  0  0  0
 43 45  1  0  0  0  0
 43 48  1  0  0  0  0
 44 53  1  0  0  0  0
 45 55  1  0  0  0  0
 46 49  1  0  0  0  0
 46 52  1  0  0  0  0
 47 50  1  0  0  0  0
 47 52  1  0  0  0  0
 48 70  1  0  0  0  0
 49 71  1  0  0  0  0
 50 71  1  0  0  0  0
 51 55  1  0  0  0  0
 51 70  1  0  0  0  0
 53 74  1  0  0  0  0
 54 69  1  0  0  0  0
 55 68  1  0  0  0  0
 56 65  1  0  0  0  0
 57 66  1  0  0  0  0
 58 66  1  0  0  0  0
 59 66  1  0  0  0  0
 60 76  1  0  0  0  0
 61 83  1  0  0  0  0
 62 84  1  0  0  0  0
 63 85  1  0  0  0  0
 64 66  1  0  0  0  0
 64 75  1  0  0  0  0
 65 76  1  0  0  0  0
 67 68  1  0  0  0  0
M  CHG  1  76   1
M  ISO  4  38 100  63 101  71 100  85 101
M  END
> <Batch ID>
0156

> <Smiles>
CNC(C)C(=O)NC(C(=O)N1Cc2cc([101O:1][101CH2:1]c3ccc(C4CC[100N:0]([100C:0](=O)N5CCCC(n6nc(-c7ccc(Oc8ccc(F)cc8F)cc7)c(C(N)=O)c6N)C5)CC4)c(OC)c3OC)ccc2CC1C(=O)NC1CCCc2ccccc21)C(C)(C)C

> <Shape>
0.324

> <Color>
0.085

> <Negative vol penalty>
0.000

$$$$

  -OEChem-04052321563D

 89 98  0     1  0  0  0  0  0999 V2000
  -18.5775  -24.8284   24.1942 C   0  0  0  0  0  0  0  0  0  0  0  0
  -19.9331  -24.5880   23.9938 C   0  0  0  0  0  0  0  0  0  0  0  0
  -24.2966  -11.8564   20.7313 C   0  0  0  0  0  0  0  0  0  0  0  0
  -23.5018  -12.9137   18.7095 C   0  0  0  0  0  0  0  0  0  0  0  0
  -18.0143  -26.0320   23.7725 C   0  0  0  0  0  0  0  0  0  0  0  0
  -20.7260  -25.5509   23.3705 C   0  0  0  0  0  0  0  0  0  0  0  0
  -26.5989  -26.8159   24.5600 C   0  0  0  0  0  0  0  0  0  0  0  0
  -23.1925  -11.0041   20.7196 C   0  0  0  0  0  0  0  0  0  0  0  0
  -22.3978  -12.0613   18.6978 C   0  0  0  0  0  0  0  0  0  0  0  0
  -27.7859  -26.4309   23.9383 C   0  0  0  0  0  0  0  0  0  0  0  0
  -22.2284   -8.1990   19.0963 C   0  0  0  0  0  0  0  0  0  0  0  0
  -22.4527   -6.8444   19.3415 C   0  0  0  0  0  0  0  0  0  0  0  0
  -30.0665  -21.7145   18.4608 C   0  0  0  0  0  0  0  0  0  0  0  0
  -27.7867  -28.4883   22.6789 C   0  0  0  0  0  0  0  0  0  0  0  0
  -31.2256  -20.6430   16.1605 C   0  0  0  0  0  0  0  0  0  0  0  0
  -20.9964   -6.9516   21.2663 C   0  0  0  0  0  0  0  0  0  0  0  0
  -24.4512  -12.8113   19.7263 C   0  0  0  0  0  0  0  0  0  0  0  0
  -26.8421  -13.4724   19.1311 C   0  0  0  0  0  0  0  0  0  0  0  0
  -18.8027  -27.0141   23.1524 C   0  0  0  0  0  0  0  0  0  0  0  0
  -25.9901  -28.0373   24.2373 C   0  0  0  0  0  0  0  0  0  0  0  0
  -20.1725  -26.7683   22.9389 C   0  0  0  0  0  0  0  0  0  0  0  0
  -31.0323  -22.4402   17.7635 C   0  0  0  0  0  0  0  0  0  0  0  0
  -26.5933  -28.8877   23.2998 C   0  0  0  0  0  0  0  0  0  0  0  0
  -29.6803  -20.4529   18.0079 C   0  0  0  0  0  0  0  0  0  0  0  0
  -22.2431  -11.1065   19.7028 C   0  0  0  0  0  0  0  0  0  0  0  0
  -28.3784  -27.2658   22.9954 C   0  0  0  0  0  0  0  0  0  0  0  0
  -21.3881   -8.9301   19.9362 C   0  0  0  0  0  0  0  0  0  0  0  0
  -31.6118  -21.9045   16.6134 C   0  0  0  0  0  0  0  0  0  0  0  0
  -30.2598  -19.9172   16.8578 C   0  0  0  0  0  0  0  0  0  0  0  0
  -21.8366   -6.2206   20.4265 C   0  0  0  0  0  0  0  0  0  0  0  0
  -20.7721   -8.3064   21.0211 C   0  0  0  0  0  0  0  0  0  0  0  0
  -25.5911  -13.6925   19.7382 C   0  0  0  0  0  0  0  0  0  0  0  0
  -27.5719  -14.5967   19.4312 C   0  0  0  0  0  0  0  0  0  0  0  0
  -27.3032  -12.3520   18.3645 C   0  0  0  0  0  0  0  0  0  0  0  0
  -23.1986  -28.8884   22.9776 C   0  0  0  0  0  0  0  0  0  0  0  0
  -24.2415  -31.8813   23.6683 C   0  0  0  0  0  0  0  0  0  0  0  0
  -26.8786  -33.9695   24.2446 C   0  0  0  0  0  0  0  0  0  0  0  0
  -28.0329  -20.1269   19.8857 C   0  0  0  0  0  0  0  0  0  0  0  0
  -18.1395  -28.2803   22.6710 C   0  0  0  0  0  0  0  0  0  0  0  0
  -24.7239  -28.4502   24.9364 C   0  0  0  0  0  0  0  0  0  0  0  0
  -25.9906  -30.2184   22.9330 C   0  0  0  0  0  0  0  0  0  0  0  0
  -19.1253  -29.4024   22.3559 C   0  0  0  0  0  0  0  0  0  0  0  0
  -26.6120  -18.3857   22.6473 C   0  0  0  0  0  0  0  0  0  0  0  0
  -20.2887  -28.8728   21.5234 C   0  0  0  0  0  0  0  0  0  0  0  0
  -26.3226  -16.9914   22.0867 C   0  0  0  0  0  0  0  0  0  0  0  0
  -30.2239  -24.7384   18.2656 C   0  0  0  0  0  0  0  0  0  0  0  0
  -32.0358  -23.6786   19.6731 C   0  0  0  0  0  0  0  0  0  0  0  0
  -26.3636  -19.4776   21.6081 C   0  0  0  0  0  0  0  0  0  0  0  0
  -26.7672  -17.8910   19.7672 C   0  0  0  0  0  0  0  0  0  0  0  0
  -30.5817  -26.0999   18.8476 C   0  0  0  0  0  0  0  0  0  0  0  0
  -32.3800  -25.0484   20.2440 C   0  0  0  0  0  0  0  0  0  0  0  0
  -31.4342  -23.7905   18.2629 C   0  0  0  0  0  0  0  0  0  0  0  0
  -21.0706  -27.7984   22.2887 C   0  0  1  0  0  0  0  0  0  0  0  0
  -23.9191  -29.4834   24.1541 C   0  0  1  0  0  0  0  0  0  0  0  0
  -27.0653  -16.7532   20.7573 C   0  0  2  0  0  0  0  0  0  0  0  0
  -27.4190  -36.3687   24.7435 C   0  0  0  0  0  0  0  0  0  0  0  0
  -23.7059  -32.6056   20.7531 C   0  0  0  0  0  0  0  0  0  0  0  0
  -25.1179  -34.6481   21.0739 C   0  0  0  0  0  0  0  0  0  0  0  0
  -23.0282  -34.3570   22.4047 C   0  0  0  0  0  0  0  0  0  0  0  0
  -28.1377  -33.2691   26.8297 C   0  0  0  0  0  0  0  0  0  0  0  0
  -33.0957  -21.9771   14.7564 C   0  0  0  0  0  0  0  0  0  0  0  0
  -30.6355  -17.5691   16.8878 C   0  0  0  0  0  0  0  0  0  0  0  0
  -31.3994  -27.2425   20.9068 C   0  0  0  0  0  0  0  0  0  0  0  0
  -30.0889  -27.7960   21.4305 C   0  0  0  0  0  0  0  0  0  1  0  0
  -25.0454  -32.9287   22.9366 C   0  0  1  0  0  0  0  0  0  0  0  0
  -27.1306  -34.9969   25.3332 C   0  0  2  0  0  0  0  0  0  0  0  0
  -24.2349  -33.6090   21.7973 C   0  0  0  0  0  0  0  0  0  0  0  0
  -25.5265  -14.8644   20.3758 N   0  0  0  0  0  0  0  0  0  0  0  0
  -26.7460  -15.3907   20.1712 N   0  0  0  0  0  0  0  0  0  0  0  0
  -24.7489  -30.5746   23.6394 N   0  0  0  0  0  0  0  0  0  0  0  0
  -27.1022  -19.1873   20.3773 N   0  0  0  0  0  0  0  0  0  0  0  0
  -28.8331  -14.9735   19.1316 N   0  0  0  0  0  0  0  0  0  0  0  0
  -26.4242  -11.2814   18.1510 N   0  0  0  0  0  0  0  0  0  0  0  0
  -28.6983  -19.7276   18.7271 N   0  0  0  0  0  0  0  0  0  0  0  0
  -21.9368  -28.4093   23.2741 N   0  0  0  0  0  0  0  0  0  0  0  0
  -25.5357  -33.8518   23.9544 N   0  0  0  0  0  0  0  0  0  0  0  0
  -31.1504  -25.9373   20.2446 N   0  3  0  0  0  0  0  0  0  0  0  0
  -28.2954  -34.5905   26.1693 N   0  3  0  0  0  0  0  0  0  0  0  0
  -28.4657  -12.2945   17.8969 O   0  0  0  0  0  0  0  0  0  0  0  0
  -23.7462  -28.8669   21.8815 O   0  0  0  0  0  0  0  0  0  0  0  0
  -23.2053  -32.2116   24.2504 O   0  0  0  0  0  0  0  0  0  0  0  0
  -27.7828  -33.3374   23.7029 O   0  0  0  0  0  0  0  0  0  0  0  0
  -28.2452  -21.1947   20.4661 O   0  0  0  0  0  0  0  0  0  0  0  0
  -21.1658  -10.2747   19.6909 O   0  0  0  0  0  0  0  0  0  0  0  0
  -32.5565  -22.6001   15.9204 O   0  0  0  0  0  0  0  0  0  0  0  0
  -29.8967  -18.6862   16.3986 O   0  0  0  0  0  0  0  0  0  0  0  0
  -29.5367  -26.8920   22.3866 O   0  0  0  0  0  0  0  0  0  1  0  0
  -22.0509   -4.9194   20.6609 F   0  0  0  0  0  0  0  0  0  0  0  0
  -19.9629   -9.0032   21.8307 F   0  0  0  0  0  0  0  0  0  0  0  0
  1  2  1  0  0  0  0
  1  5  2  0  0  0  0
  2  6  2  0  0  0  0
  3  8  2  0  0  0  0
  3 17  1  0  0  0  0
  4  9  1  0  0  0  0
  4 17  2  0  0  0  0
  5 19  1  0  0  0  0
  6 21  1  0  0  0  0
  7 10  2  0  0  0  0
  7 20  1  0  0  0  0
  8 25  1  0  0  0  0
  9 25  2  0  0  0  0
 10 26  1  0  0  0  0
 11 12  2  0  0  0  0
 11 27  1  0  0  0  0
 12 30  1  0  0  0  0
 13 22  1  0  0  0  0
 13 24  2  0  0  0  0
 14 23  1  0  0  0  0
 14 26  2  0  0  0  0
 15 28  1  0  0  0  0
 15 29  2  0  0  0  0
 16 30  2  0  0  0  0
 16 31  1  0  0  0  0
 17 32  1  0  0  0  0
 18 32  1  0  0  0  0
 18 33  2  0  0  0  0
 18 34  1  0  0  0  0
 19 21  2  0  0  0  0
 19 39  1  0  0  0  0
 20 23  2  0  0  0  0
 20 40  1  0  0  0  0
 21 53  1  0  0  0  0
 22 28  2  0  0  0  0
 22 52  1  0  0  0  0
 23 41  1  0  0  0  0
 24 29  1  0  0  0  0
 24 74  1  0  0  0  0
 25 84  1  0  0  0  0
 26 87  1  0  0  0  0
 27 31  2  0  0  0  0
 27 84  1  0  0  0  0
 28 85  1  0  0  0  0
 29 86  1  0  0  0  0
 30 88  1  0  0  0  0
 31 89  1  0  0  0  0
 32 68  2  0  0  0  0
 33 69  1  0  0  0  0
 33 72  1  0  0  0  0
 34 73  1  0  0  0  0
 34 79  2  0  0  0  0
 35 54  1  0  0  0  0
 35 75  1  0  0  0  0
 35 80  2  0  0  0  0
 36 65  1  0  0  0  0
 36 70  1  0  0  0  0
 36 81  2  0  0  0  0
 37 66  1  0  0  0  0
 37 76  1  0  0  0  0
 37 82  2  0  0  0  0
 38 71  1  0  0  0  0
 38 74  1  0  0  0  0
 38 83  2  0  0  0  0
 39 42  1  0  0  0  0
 40 54  1  0  0  0  0
 41 70  1  0  0  0  0
 42 44  1  0  0  0  0
 43 45  1  0  0  0  0
 43 48  1  0  0  0  0
 44 53  1  0  0  0  0
 45 55  1  0  0  0  0
 46 50  1  0  0  0  0
 46 52  1  0  0  0  0
 47 51  1  0  0  0  0
 47 52  1  0  0  0  0
 48 71  1  0  0  0  0
 49 55  1  0  0  0  0
 49 71  1  0  0  0  0
 50 77  1  0  0  0  0
 51 77  1  0  0  0  0
 53 75  1  0  0  0  0
 54 70  1  0  0  0  0
 55 69  1  0  0  0  0
 56 66  1  0  0  0  0
 57 67  1  0  0  0  0
 58 67  1  0  0  0  0
 59 67  1  0  0  0  0
 60 78  1  0  0  0  0
 61 85  1  0  0  0  0
 62 86  1  0  0  0  0
 63 64  1  0  0  0  0
 63 77  1  0  0  0  0
 64 87  1  0  0  0  0
 65 67  1  0  0  0  0
 65 76  1  0  0  0  0
 66 78  1  0  0  0  0
 68 69  1  0  0  0  0
M  CHG  2  77   1  78   1
M  ISO  4  38 100  64 101  74 100  87 101
M  END
> <Batch ID>
0156

> <Smiles>
CNC(C)C(=O)NC(C(=O)N1Cc2cc([101O:1][101CH2:1]CN3CCC(c4cc([100NH:0][100C:0](=O)N5CCCC(n6nc(-c7ccc(Oc8ccc(F)cc8F)cc7)c(C(N)=O)c6N)C5)c(OC)cc4OC)CC3)ccc2CC1C(=O)NC1CCCc2ccccc21)C(C)(C)C

> <Shape>
0.281

> <Color>
0.068

> <Negative vol penalty>
0.000

$$$$

  -OEChem-04052321563D

 89 98  0     1  0  0  0  0  0999 V2000
  -25.8214  -35.7578   22.1176 C   0  0  0  0  0  0  0  0  0  0  0  0
  -26.4178  -34.5047   22.0199 C   0  0  0  0  0  0  0  0  0  0  0  0
  -22.3705  -10.2401   22.0764 C   0  0  0  0  0  0  0  0  0  0  0  0
  -22.8827   -9.8499   19.7477 C   0  0  0  0  0  0  0  0  0  0  0  0
  -24.5574  -35.8840   22.6922 C   0  0  0  0  0  0  0  0  0  0  0  0
  -25.7509  -33.3772   22.4979 C   0  0  0  0  0  0  0  0  0  0  0  0
  -25.9941  -29.4693   19.2864 C   0  0  0  0  0  0  0  0  0  0  0  0
  -21.9307   -8.9223   22.2005 C   0  0  0  0  0  0  0  0  0  0  0  0
  -22.4429   -8.5320   19.8719 C   0  0  0  0  0  0  0  0  0  0  0  0
  -27.1841  -28.7435   19.2557 C   0  0  0  0  0  0  0  0  0  0  0  0
  -21.0103   -5.5572   23.2221 C   0  0  0  0  0  0  0  0  0  0  0  0
  -21.4272   -4.8371   24.3416 C   0  0  0  0  0  0  0  0  0  0  0  0
  -26.1824  -27.0534   20.6554 C   0  0  0  0  0  0  0  0  0  0  0  0
  -25.9763  -21.0612   18.1594 C   0  0  0  0  0  0  0  0  0  0  0  0
  -23.7304   -5.1364   23.6764 C   0  0  0  0  0  0  0  0  0  0  0  0
  -22.8465  -10.7040   20.8499 C   0  0  0  0  0  0  0  0  0  0  0  0
  -24.6063  -12.5492   20.9269 C   0  0  0  0  0  0  0  0  0  0  0  0
  -23.8705  -34.7562   23.1687 C   0  0  0  0  0  0  0  0  0  0  0  0
  -24.8909  -28.9971   20.0121 C   0  0  0  0  0  0  0  0  0  0  0  0
  -24.4771  -33.4887   23.0807 C   0  0  0  0  0  0  0  0  0  0  0  0
  -24.9787  -27.7738   20.6917 C   0  0  0  0  0  0  0  0  0  0  0  0
  -27.0840  -20.9212   17.3233 C   0  0  0  0  0  0  0  0  0  0  0  0
  -27.1934  -19.8071   16.4913 C   0  0  0  0  0  0  0  0  0  0  0  0
  -26.1951  -18.8328   16.4953 C   0  0  0  0  0  0  0  0  0  0  0  0
  -25.0874  -18.9728   17.3314 C   0  0  0  0  0  0  0  0  0  0  0  0
  -21.9669   -8.0682   21.0983 C   0  0  0  0  0  0  0  0  0  0  0  0
  -27.2793  -27.5368   19.9426 C   0  0  0  0  0  0  0  0  0  0  0  0
  -21.9535   -6.0668   22.3297 C   0  0  0  0  0  0  0  0  0  0  0  0
  -24.9780  -20.0869   18.1635 C   0  0  0  0  0  0  0  0  0  0  0  0
  -22.7872   -4.6267   24.5688 C   0  0  0  0  0  0  0  0  0  0  0  0
  -23.3135   -5.8564   22.5569 C   0  0  0  0  0  0  0  0  0  0  0  0
  -23.3004  -12.0654   20.7209 C   0  0  0  0  0  0  0  0  0  0  0  0
  -24.5159  -13.8973   20.6802 C   0  0  0  0  0  0  0  0  0  0  0  0
  -25.7948  -11.8431   21.3071 C   0  0  0  0  0  0  0  0  0  0  0  0
  -23.2075  -30.0701   22.4856 C   0  0  0  0  0  0  0  0  0  0  0  0
  -21.3361  -27.5038   21.8262 C   0  0  0  0  0  0  0  0  0  0  0  0
  -21.0608  -24.4001   20.4341 C   0  0  0  0  0  0  0  0  0  0  0  0
  -22.7134  -18.1767   17.6075 C   0  0  0  0  0  0  0  0  0  0  0  0
  -22.5262  -34.9486   23.8249 C   0  0  0  0  0  0  0  0  0  0  0  0
  -23.6058  -29.7787   20.0133 C   0  0  0  0  0  0  0  0  0  0  0  0
  -23.8167  -27.2132   21.4688 C   0  0  0  0  0  0  0  0  0  0  0  0
  -21.7273  -33.6556   23.9671 C   0  0  0  0  0  0  0  0  0  0  0  0
  -20.4653  -16.8638   20.0365 C   0  0  0  0  0  0  0  0  0  0  0  0
  -22.6106  -32.5400   24.5167 C   0  0  0  0  0  0  0  0  0  0  0  0
  -21.1099  -15.5382   20.4480 C   0  0  0  0  0  0  0  0  0  0  0  0
  -27.5414  -23.3301   16.9048 C   0  0  0  0  0  0  0  0  0  0  0  0
  -28.7657  -22.0900   18.7351 C   0  0  0  0  0  0  0  0  0  0  0  0
  -20.6555  -17.1489   18.5477 C   0  0  0  0  0  0  0  0  0  0  0  0
  -22.6894  -15.7600   18.4876 C   0  0  0  0  0  0  0  0  0  0  0  0
  -28.5720  -24.4489   16.9868 C   0  0  0  0  0  0  0  0  0  0  0  0
  -29.7872  -23.2181   18.8028 C   0  0  0  0  0  0  0  0  0  0  0  0
  -28.1383  -21.9807   17.3360 C   0  0  0  0  0  0  0  0  0  0  0  0
  -23.7749  -32.2388   23.5652 C   0  0  1  0  0  0  0  0  0  0  0  0
  -22.7117  -29.4566   21.2067 C   0  0  1  0  0  0  0  0  0  0  0  0
  -22.5801  -15.4608   19.9917 C   0  0  2  0  0  0  0  0  0  0  0  0
  -28.3821  -19.6609   15.5946 C   0  0  0  0  0  0  0  0  0  0  0  0
  -26.3138  -17.6402   15.5980 C   0  0  0  0  0  0  0  0  0  0  0  0
  -19.4170  -22.5363   20.0853 C   0  0  0  0  0  0  0  0  0  0  0  0
  -21.6604  -26.6749   24.7447 C   0  0  0  0  0  0  0  0  0  0  0  0
  -20.8344  -24.3964   24.1168 C   0  0  0  0  0  0  0  0  0  0  0  0
  -19.3524  -26.3820   23.8273 C   0  0  0  0  0  0  0  0  0  0  0  0
  -21.2540  -24.6251   17.4894 C   0  0  0  0  0  0  0  0  0  0  0  0
  -24.0092  -19.6937   20.2995 C   0  0  0  0  0  0  0  0  0  0  0  0
  -30.0628  -25.6836   18.5577 C   0  0  0  0  0  0  0  0  0  0  0  0
  -29.2475  -26.9479   18.7446 C   0  0  0  0  0  0  0  0  0  1  0  0
  -21.3112  -26.0587   22.2619 C   0  0  1  0  0  0  0  0  0  0  0  0
  -20.0227  -23.8030   19.5012 C   0  0  2  0  0  0  0  0  0  0  0  0
  -20.8123  -25.8892   23.7247 C   0  0  0  0  0  0  0  0  0  0  0  0
  -22.4432  -13.0279   20.3706 N   0  0  0  0  0  0  0  0  0  0  0  0
  -23.2121  -14.1300   20.3545 N   0  0  0  0  0  0  0  0  0  0  0  0
  -22.5838  -28.0175   21.4450 N   0  0  0  0  0  0  0  0  0  0  0  0
  -22.0728  -17.0621   18.1892 N   0  0  0  0  0  0  0  0  0  0  0  0
  -25.4252  -14.8945   20.7123 N   0  0  0  0  0  0  0  0  0  0  0  0
  -25.7110  -10.4605   21.5211 N   0  0  0  0  0  0  0  0  0  0  0  0
  -24.0688  -17.9879   17.3398 N   0  0  0  0  0  0  0  0  0  0  0  0
  -23.3186  -31.4468   22.4432 N   0  0  0  0  0  0  0  0  0  0  0  0
  -20.5104  -25.3474   21.2713 N   0  0  0  0  0  0  0  0  0  0  0  0
  -29.1449  -24.5289   18.3893 N   0  3  0  0  0  0  0  0  0  0  0  0
  -20.6399  -23.4662   18.1872 N   0  3  0  0  0  0  0  0  0  0  0  0
  -26.8949  -12.4237   21.4687 O   0  0  0  0  0  0  0  0  0  0  0  0
  -23.4683  -29.3480   23.4407 O   0  0  0  0  0  0  0  0  0  0  0  0
  -20.2860  -28.1510   21.8174 O   0  0  0  0  0  0  0  0  0  0  0  0
  -22.2411  -24.0575   20.4239 O   0  0  0  0  0  0  0  0  0  0  0  0
  -22.1108  -19.2309   17.3899 O   0  0  0  0  0  0  0  0  0  0  0  0
  -21.5380   -6.7821   21.2191 O   0  0  0  0  0  0  0  0  0  0  0  0
  -23.9045  -20.2448   18.9886 O   0  0  0  0  0  0  0  0  0  0  0  0
  -28.4398  -26.8267   19.9148 O   0  0  0  0  0  0  0  0  0  1  0  0
  -23.1875   -3.9366   25.6448 F   0  0  0  0  0  0  0  0  0  0  0  0
  -24.2244   -6.3446   21.7037 F   0  0  0  0  0  0  0  0  0  0  0  0
  1  2  1  0  0  0  0
  1  5  2  0  0  0  0
  2  6  2  0  0  0  0
  3  8  2  0  0  0  0
  3 16  1  0  0  0  0
  4  9  1  0  0  0  0
  4 16  2  0  0  0  0
  5 18  1  0  0  0  0
  6 20  1  0  0  0  0
  7 10  2  0  0  0  0
  7 19  1  0  0  0  0
  8 26  1  0  0  0  0
  9 26  2  0  0  0  0
 10 27  1  0  0  0  0
 11 12  2  0  0  0  0
 11 28  1  0  0  0  0
 12 30  1  0  0  0  0
 13 21  1  0  0  0  0
 13 27  2  0  0  0  0
 14 22  1  0  0  0  0
 14 29  2  0  0  0  0
 15 30  2  0  0  0  0
 15 31  1  0  0  0  0
 16 32  1  0  0  0  0
 17 32  1  0  0  0  0
 17 33  2  0  0  0  0
 17 34  1  0  0  0  0
 18 20  2  0  0  0  0
 18 39  1  0  0  0  0
 19 21  2  0  0  0  0
 19 40  1  0  0  0  0
 20 53  1  0  0  0  0
 21 41  1  0  0  0  0
 22 23  2  0  0  0  0
 22 52  1  0  0  0  0
 23 24  1  0  0  0  0
 23 56  1  0  0  0  0
 24 25  2  0  0  0  0
 24 57  1  0  0  0  0
 25 29  1  0  0  0  0
 25 75  1  0  0  0  0
 26 85  1  0  0  0  0
 27 87  1  0  0  0  0
 28 31  2  0  0  0  0
 28 85  1  0  0  0  0
 29 86  1  0  0  0  0
 30 88  1  0  0  0  0
 31 89  1  0  0  0  0
 32 69  2  0  0  0  0
 33 70  1  0  0  0  0
 33 73  1  0  0  0  0
 34 74  1  0  0  0  0
 34 80  2  0  0  0  0
 35 54  1  0  0  0  0
 35 76  1  0  0  0  0
 35 81  2  0  0  0  0
 36 66  1  0  0  0  0
 36 71  1  0  0  0  0
 36 82  2  0  0  0  0
 37 67  1  0  0  0  0
 37 77  1  0  0  0  0
 37 83  2  0  0  0  0
 38 72  1  0  0  0  0
 38 75  1  0  0  0  0
 38 84  2  0  0  0  0
 39 42  1  0  0  0  0
 40 54  1  0  0  0  0
 41 71  1  0  0  0  0
 42 44  1  0  0  0  0
 43 45  1  0  0  0  0
 43 48  1  0  0  0  0
 44 53  1  0  0  0  0
 45 55  1  0  0  0  0
 46 50  1  0  0  0  0
 46 52  1  0  0  0  0
 47 51  1  0  0  0  0
 47 52  1  0  0  0  0
 48 72  1  0  0  0  0
 49 55  1  0  0  0  0
 49 72  1  0  0  0  0
 50 78  1  0  0  0  0
 51 78  1  0  0  0  0
 53 76  1  0  0  0  0
 54 71  1  0  0  0  0
 55 70  1  0  0  0  0
 58 67  1  0  0  0  0
 59 68  1  0  0  0  0
 60 68  1  0  0  0  0
 61 68  1  0  0  0  0
 62 79  1  0  0  0  0
 63 86  1  0  0  0  0
 64 65  1  0  0  0  0
 64 78  1  0  0  0  0
 65 87  1  0  0  0  0
 66 68  1  0  0  0  0
 66 77  1  0  0  0  0
 67 79  1  0  0  0  0
 69 70  1  0  0  0  0
M  CHG  2  78   1  79   1
M  ISO  4  38 100  65 101  75 100  87 101
M  END
> <Batch ID>
0156

> <Smiles>
CNC(C)C(=O)NC(C(=O)N1Cc2cc([101O:1][101CH2:1]CN3CCC(c4cc(OC)c([100NH:0][100C:0](=O)N5CCCC(n6nc(-c7ccc(Oc8ccc(F)cc8F)cc7)c(C(N)=O)c6N)C5)c(C)c4C)CC3)ccc2CC1C(=O)NC1CCCc2ccccc21)C(C)(C)C

> <Shape>
0.252

> <Color>
0.129

> <Negative vol penalty>
0.000

$$$$

  -OEChem-04052321563D

100111  0     1  0  0  0  0  0999 V2000
  -17.6350  -30.1676   25.5226 C   0  0  0  0  0  0  0  0  0  0  0  0
  -18.9769  -30.2043   25.8878 C   0  0  0  0  0  0  0  0  0  0  0  0
  -24.2292   -8.4637   21.8588 C   0  0  0  0  0  0  0  0  0  0  0  0
  -23.5393   -9.7243   19.9167 C   0  0  0  0  0  0  0  0  0  0  0  0
  -17.2510  -29.5229   24.3475 C   0  0  0  0  0  0  0  0  0  0  0  0
  -19.9355  -29.5954   25.0786 C   0  0  0  0  0  0  0  0  0  0  0  0
  -26.7538  -30.3069   22.9998 C   0  0  0  0  0  0  0  0  0  0  0  0
  -22.8925   -8.2542   22.1978 C   0  0  0  0  0  0  0  0  0  0  0  0
  -22.2025   -9.5148   20.2556 C   0  0  0  0  0  0  0  0  0  0  0  0
  -27.9378  -29.5750   22.9214 C   0  0  0  0  0  0  0  0  0  0  0  0
  -20.3637   -6.2311   21.2256 C   0  0  0  0  0  0  0  0  0  0  0  0
  -19.9861   -4.9443   21.6089 C   0  0  0  0  0  0  0  0  0  0  0  0
  -28.6554  -22.0429   19.7548 C   0  0  0  0  0  0  0  0  0  0  0  0
  -27.1671  -28.5590   20.8737 C   0  0  0  0  0  0  0  0  0  0  0  0
  -31.3823  -14.4383   17.7711 C   0  0  0  0  0  0  0  0  0  0  0  0
  -19.2809   -5.7917   23.7588 C   0  0  0  0  0  0  0  0  0  0  0  0
  -24.5526   -9.1987   20.7183 C   0  0  0  0  0  0  0  0  0  0  0  0
  -26.9028   -8.4353   20.0848 C   0  0  0  0  0  0  0  0  0  0  0  0
  -18.2064  -28.9141   23.5186 C   0  0  0  0  0  0  0  0  0  0  0  0
  -25.7612  -30.1619   22.0199 C   0  0  0  0  0  0  0  0  0  0  0  0
  -19.5637  -28.9409   23.8920 C   0  0  0  0  0  0  0  0  0  0  0  0
  -29.5797  -22.3622   20.7495 C   0  0  0  0  0  0  0  0  0  0  0  0
  -25.9725  -29.2920   20.9406 C   0  0  0  0  0  0  0  0  0  0  0  0
  -31.6955  -16.8341   17.6342 C   0  0  0  0  0  0  0  0  0  0  0  0
  -28.6165  -20.7522   19.2273 C   0  0  0  0  0  0  0  0  0  0  0  0
  -30.4651  -21.3909   21.2166 C   0  0  0  0  0  0  0  0  0  0  0  0
  -33.0861  -16.6280   17.6132 C   0  0  0  0  0  0  0  0  0  0  0  0
  -33.6182  -15.3436   17.6831 C   0  0  0  0  0  0  0  0  0  0  0  0
  -30.4262  -20.1002   20.6891 C   0  0  0  0  0  0  0  0  0  0  0  0
  -30.8260  -15.7284   17.7322 C   0  0  0  0  0  0  0  0  0  0  0  0
  -21.8791   -8.7798   21.3962 C   0  0  0  0  0  0  0  0  0  0  0  0
  -28.1435  -28.6987   21.8598 C   0  0  0  0  0  0  0  0  0  0  0  0
  -20.2000   -7.2983   22.1088 C   0  0  0  0  0  0  0  0  0  0  0  0
  -32.7658  -14.2493   17.7558 C   0  0  0  0  0  0  0  0  0  0  0  0
  -29.5019  -19.7809   19.6944 C   0  0  0  0  0  0  0  0  0  0  0  0
  -19.4447   -4.7245   22.8755 C   0  0  0  0  0  0  0  0  0  0  0  0
  -19.6586   -7.0785   23.3754 C   0  0  0  0  0  0  0  0  0  0  0  0
  -25.9333   -9.4159   20.3680 C   0  0  0  0  0  0  0  0  0  0  0  0
  -28.0441   -9.1494   19.8126 C   0  0  0  0  0  0  0  0  0  0  0  0
  -26.7825   -7.0067   20.0690 C   0  0  0  0  0  0  0  0  0  0  0  0
  -22.7388  -29.1776   22.0170 C   0  0  0  0  0  0  0  0  0  0  0  0
  -22.8372  -30.1386   18.9204 C   0  0  0  0  0  0  0  0  0  0  0  0
  -24.7163  -30.7872   16.1464 C   0  0  0  0  0  0  0  0  0  0  0  0
  -28.4595  -14.9168   17.9573 C   0  0  0  0  0  0  0  0  0  0  0  0
  -17.7379  -28.1884   22.2823 C   0  0  0  0  0  0  0  0  0  0  0  0
  -24.5009  -30.9785   22.1047 C   0  0  0  0  0  0  0  0  0  0  0  0
  -31.1920  -18.2514   17.4982 C   0  0  0  0  0  0  0  0  0  0  0  0
  -24.9468  -29.1154   19.8520 C   0  0  0  0  0  0  0  0  0  0  0  0
  -18.8584  -27.8916   21.2889 C   0  0  0  0  0  0  0  0  0  0  0  0
  -30.2403  -13.2576   20.8215 C   0  0  0  0  0  0  0  0  0  0  0  0
  -28.1974  -24.4055   21.3198 C   0  0  0  0  0  0  0  0  0  0  0  0
  -30.6030  -24.6698   20.5567 C   0  0  0  0  0  0  0  0  0  0  0  0
  -20.0722  -27.3144   22.0100 C   0  0  0  0  0  0  0  0  0  0  0  0
  -29.3460  -12.0407   21.0434 C   0  0  0  0  0  0  0  0  0  0  0  0
  -28.2291  -25.8216   21.8890 C   0  0  0  0  0  0  0  0  0  0  0  0
  -30.6223  -26.0843   21.1303 C   0  0  0  0  0  0  0  0  0  0  0  0
  -29.4572  -14.4292   20.2394 C   0  0  0  0  0  0  0  0  0  0  0  0
  -27.8270  -12.8764   19.1984 C   0  0  0  0  0  0  0  0  0  0  0  0
  -28.9187  -17.2133   17.2168 C   0  0  0  0  0  0  0  0  0  0  0  0
  -29.6009  -23.7740   21.3064 C   0  0  0  0  0  0  0  0  0  0  0  0
  -20.6359  -28.3134   23.0278 C   0  0  1  0  0  0  0  0  0  0  0  0
  -23.3400  -30.3683   21.3253 C   0  0  1  0  0  0  0  0  0  0  0  0
  -28.6019  -11.6698   19.7512 C   0  0  2  0  0  0  0  0  0  0  0  0
  -29.7001  -18.3922   17.7730 C   0  0  1  0  0  0  0  0  0  0  0  0
  -29.2281  -26.7064   21.1454 C   0  0  0  0  0  0  0  0  0  1  0  0
  -27.6197  -20.4296   18.1634 C   0  0  0  0  0  0  0  0  0  0  0  0
  -31.4549  -21.7349   22.2841 C   0  0  0  0  0  0  0  0  0  0  0  0
  -34.0282  -17.7895   17.5036 C   0  0  0  0  0  0  0  0  0  0  0  0
  -35.0984  -15.1305   17.6709 C   0  0  0  0  0  0  0  0  0  0  0  0
  -30.6985  -18.0737   22.1402 C   0  0  0  0  0  0  0  0  0  0  0  0
  -24.5111  -31.5211   13.7555 C   0  0  0  0  0  0  0  0  0  0  0  0
  -21.8286  -27.3618   18.1572 C   0  0  0  0  0  0  0  0  0  0  0  0
  -22.5423  -27.8259   15.8028 C   0  0  0  0  0  0  0  0  0  0  0  0
  -20.7876  -29.2390   16.8738 C   0  0  0  0  0  0  0  0  0  0  0  0
  -26.3691  -33.1957   16.6225 C   0  0  0  0  0  0  0  0  0  0  0  0
  -31.3724  -19.0540   21.1862 C   0  0  0  0  0  0  0  0  0  0  0  0
  -23.1945  -29.4829   17.6083 C   0  0  1  0  0  0  0  0  0  0  0  0
  -24.7299  -31.9680   15.1925 C   0  0  2  0  0  0  0  0  0  0  0  0
  -22.1070  -28.4791   17.1319 C   0  0  0  0  0  0  0  0  0  0  0  0
  -26.4165  -10.6582   20.2837 N   0  0  0  0  0  0  0  0  0  0  0  0
  -27.7022  -10.4631   19.9445 N   0  0  0  0  0  0  0  0  0  0  0  0
  -29.4033  -15.9358   17.7455 N   0  0  0  0  0  0  0  0  0  0  0  0
  -23.7283  -29.9312   19.9828 N   0  0  0  0  0  0  0  0  0  0  0  0
  -28.6929  -14.0482   19.0421 N   0  0  0  0  0  0  0  0  0  0  0  0
  -29.2967   -8.7754   19.4757 N   0  0  0  0  0  0  0  0  0  0  0  0
  -25.5382   -6.4375   20.3726 N   0  0  0  0  0  0  0  0  0  0  0  0
  -21.4089  -29.3365   22.3569 N   0  0  0  0  0  0  0  0  0  0  0  0
  -23.4594  -30.5672   16.6690 N   0  0  0  0  0  0  0  0  0  0  0  0
  -26.0365  -32.6809   15.2692 N   0  3  0  0  0  0  0  0  0  0  0  0
  -27.7540   -6.2565   19.8100 O   0  0  0  0  0  0  0  0  0  0  0  0
  -23.4299  -28.1873   22.2255 O   0  0  0  0  0  0  0  0  0  0  0  0
  -21.8091  -30.8158   18.9977 O   0  0  0  0  0  0  0  0  0  0  0  0
  -25.7195  -30.1239   16.3996 O   0  0  0  0  0  0  0  0  0  0  0  0
  -27.4421  -14.8332   17.2578 O   0  0  0  0  0  0  0  0  0  0  0  0
  -33.2611  -12.9799   17.7995 O   0  0  0  0  0  0  0  0  0  0  0  0
  -20.5746   -8.5754   21.7264 O   0  0  0  0  0  0  0  0  0  0  0  0
  -29.3055  -27.9780   21.7807 O   0  0  0  0  0  0  0  0  0  1  0  0
  -29.4636  -18.5154   19.1743 O   0  0  0  0  0  0  0  0  0  0  0  0
  -19.0807   -3.4889   23.2429 F   0  0  0  0  0  0  0  0  0  0  0  0
  -19.4978   -8.1000   24.2278 F   0  0  0  0  0  0  0  0  0  0  0  0
  1  2  1  0  0  0  0
  1  5  2  0  0  0  0
  2  6  2  0  0  0  0
  3  8  2  0  0  0  0
  3 17  1  0  0  0  0
  4  9  1  0  0  0  0
  4 17  2  0  0  0  0
  5 19  1  0  0  0  0
  6 21  1  0  0  0  0
  7 10  2  0  0  0  0
  7 20  1  0  0  0  0
  8 31  1  0  0  0  0
  9 31  2  0  0  0  0
 10 32  1  0  0  0  0
 11 12  2  0  0  0  0
 11 33  1  0  0  0  0
 12 36  1  0  0  0  0
 13 22  1  0  0  0  0
 13 25  2  0  0  0  0
 14 23  1  0  0  0  0
 14 32  2  0  0  0  0
 15 30  2  0  0  0  0
 15 34  1  0  0  0  0
 16 36  2  0  0  0  0
 16 37  1  0  0  0  0
 17 38  1  0  0  0  0
 18 38  1  0  0  0  0
 18 39  2  0  0  0  0
 18 40  1  0  0  0  0
 19 21  2  0  0  0  0
 19 45  1  0  0  0  0
 20 23  2  0  0  0  0
 20 46  1  0  0  0  0
 21 61  1  0  0  0  0
 22 26  2  0  0  0  0
 22 60  1  0  0  0  0
 23 48  1  0  0  0  0
 24 27  2  0  0  0  0
 24 30  1  0  0  0  0
 24 47  1  0  0  0  0
 25 35  1  0  0  0  0
 25 66  1  0  0  0  0
 26 29  1  0  0  0  0
 26 67  1  0  0  0  0
 27 28  1  0  0  0  0
 27 68  1  0  0  0  0
 28 34  2  0  0  0  0
 28 69  1  0  0  0  0
 29 35  2  0  0  0  0
 29 76  1  0  0  0  0
 30 82  1  0  0  0  0
 31 96  1  0  0  0  0
 32 97  1  0  0  0  0
 33 37  2  0  0  0  0
 33 96  1  0  0  0  0
 34 95  1  0  0  0  0
 35 98  1  0  0  0  0
 36 99  1  0  0  0  0
 37100  1  0  0  0  0
 38 80  2  0  0  0  0
 39 81  1  0  0  0  0
 39 85  1  0  0  0  0
 40 86  1  0  0  0  0
 40 90  2  0  0  0  0
 41 62  1  0  0  0  0
 41 87  1  0  0  0  0
 41 91  2  0  0  0  0
 42 77  1  0  0  0  0
 42 83  1  0  0  0  0
 42 92  2  0  0  0  0
 43 78  1  0  0  0  0
 43 88  1  0  0  0  0
 43 93  2  0  0  0  0
 44 82  1  0  0  0  0
 44 84  1  0  0  0  0
 44 94  2  0  0  0  0
 45 49  1  0  0  0  0
 46 62  1  0  0  0  0
 47 64  1  0  0  0  0
 48 83  1  0  0  0  0
 49 53  1  0  0  0  0
 50 54  1  0  0  0  0
 50 57  1  0  0  0  0
 51 55  1  0  0  0  0
 51 60  1  0  0  0  0
 52 56  1  0  0  0  0
 52 60  1  0  0  0  0
 53 61  1  0  0  0  0
 54 63  1  0  0  0  0
 55 65  1  0  0  0  0
 56 65  1  0  0  0  0
 57 84  1  0  0  0  0
 58 63  1  0  0  0  0
 58 84  1  0  0  0  0
 59 64  1  0  0  0  0
 59 82  1  0  0  0  0
 61 87  1  0  0  0  0
 62 83  1  0  0  0  0
 63 81  1  0  0  0  0
 64 98  1  0  0  0  0
 65 97  1  0  0  0  0
 70 76  1  0  0  0  0
 71 78  1  0  0  0  0
 72 79  1  0  0  0  0
 73 79  1  0  0  0  0
 74 79  1  0  0  0  0
 75 89  1  0  0  0  0
 77 79  1  0  0  0  0
 77 88  1  0  0  0  0
 78 89  1  0  0  0  0
 80 81  1  0  0  0  0
M  CHG  1  89   1
M  ISO  4  44 100  65 101  82 100  97 101
M  END
> <Batch ID>
0156

> <Smiles>
CCc1c(C)c(C2CC[101CH:1]([101O:1]c3ccc4c(c3)CN(C(=O)C(NC(=O)C(C)NC)C(C)(C)C)C(C(=O)NC3CCCc5ccccc53)C4)CC2)cc(C)c1OC1Cc2c(cc(O)c(C)c2C)[100N:0]([100C:0](=O)N2CCCC(n3nc(-c4ccc(Oc5ccc(F)cc5F)cc4)c(C(N)=O)c3N)C2)C1

> <Shape>
0.272

> <Color>
0.093

> <Negative vol penalty>
0.000

$$$$

  -OEChem-04052321563D

 86 94  0     1  0  0  0  0  0999 V2000
  -27.8904  -33.6577   23.1356 C   0  0  0  0  0  0  0  0  0  0  0  0
  -27.9176  -32.2865   22.9019 C   0  0  0  0  0  0  0  0  0  0  0  0
  -22.7936  -10.5522   19.9779 C   0  0  0  0  0  0  0  0  0  0  0  0
  -23.8731   -9.8151   22.0098 C   0  0  0  0  0  0  0  0  0  0  0  0
  -26.7072  -34.2703   23.5465 C   0  0  0  0  0  0  0  0  0  0  0  0
  -26.7620  -31.5269   23.0802 C   0  0  0  0  0  0  0  0  0  0  0  0
  -25.9882  -28.2502   19.2975 C   0  0  0  0  0  0  0  0  0  0  0  0
  -21.9052   -9.4801   20.0608 C   0  0  0  0  0  0  0  0  0  0  0  0
  -22.9846   -8.7430   22.0928 C   0  0  0  0  0  0  0  0  0  0  0  0
  -26.7484  -27.0815   19.3019 C   0  0  0  0  0  0  0  0  0  0  0  0
  -19.7916   -8.2263   23.0716 C   0  0  0  0  0  0  0  0  0  0  0  0
  -19.2205   -7.9546   24.3148 C   0  0  0  0  0  0  0  0  0  0  0  0
  -24.8788  -25.8761   20.2352 C   0  0  0  0  0  0  0  0  0  0  0  0
  -30.7650  -19.6157   20.5059 C   0  0  0  0  0  0  0  0  0  0  0  0
  -28.6417  -19.3183   21.6197 C   0  0  0  0  0  0  0  0  0  0  0  0
  -20.1999   -5.7463   24.2822 C   0  0  0  0  0  0  0  0  0  0  0  0
  -23.7776  -10.7197   20.9523 C   0  0  0  0  0  0  0  0  0  0  0  0
  -24.5330  -13.1111   21.4196 C   0  0  0  0  0  0  0  0  0  0  0  0
  -25.5340  -33.5193   23.7206 C   0  0  0  0  0  0  0  0  0  0  0  0
  -24.6689  -28.2430   19.7728 C   0  0  0  0  0  0  0  0  0  0  0  0
  -25.5623  -32.1298   23.4952 C   0  0  0  0  0  0  0  0  0  0  0  0
  -24.1031  -27.0455   20.2333 C   0  0  0  0  0  0  0  0  0  0  0  0
  -30.3321  -20.8450   20.0089 C   0  0  0  0  0  0  0  0  0  0  0  0
  -28.2089  -20.5477   21.1227 C   0  0  0  0  0  0  0  0  0  0  0  0
  -29.9197  -18.8523   21.3113 C   0  0  0  0  0  0  0  0  0  0  0  0
  -22.0007   -8.5755   21.1183 C   0  0  0  0  0  0  0  0  0  0  0  0
  -26.1947  -25.8948   19.7736 C   0  0  0  0  0  0  0  0  0  0  0  0
  -20.5668   -7.2579   22.4336 C   0  0  0  0  0  0  0  0  0  0  0  0
  -29.0541  -21.3110   20.3173 C   0  0  0  0  0  0  0  0  0  0  0  0
  -19.4246   -6.7147   24.9202 C   0  0  0  0  0  0  0  0  0  0  0  0
  -20.7710   -6.0179   23.0390 C   0  0  0  0  0  0  0  0  0  0  0  0
  -24.6960  -11.8267   20.8668 C   0  0  0  0  0  0  0  0  0  0  0  0
  -25.6734  -13.7869   21.0599 C   0  0  0  0  0  0  0  0  0  0  0  0
  -23.4479  -13.6455   22.1894 C   0  0  0  0  0  0  0  0  0  0  0  0
  -23.1311  -29.6973   22.1443 C   0  0  0  0  0  0  0  0  0  0  0  0
  -20.5333  -28.2967   20.7981 C   0  0  0  0  0  0  0  0  0  0  0  0
  -19.2735  -25.7861   18.8600 C   0  0  0  0  0  0  0  0  0  0  0  0
  -31.2176  -14.0032   20.4600 C   0  0  0  0  0  0  0  0  0  0  0  0
  -24.2910  -34.2181   24.2117 C   0  0  0  0  0  0  0  0  0  0  0  0
  -23.8534  -29.5063   19.7364 C   0  0  0  0  0  0  0  0  0  0  0  0
  -22.6846  -26.9803   20.7354 C   0  0  0  0  0  0  0  0  0  0  0  0
  -23.0158  -33.4022   24.0156 C   0  0  0  0  0  0  0  0  0  0  0  0
  -29.3421  -12.5541   17.8031 C   0  0  0  0  0  0  0  0  0  0  0  0
  -23.2266  -31.9633   24.4762 C   0  0  0  0  0  0  0  0  0  0  0  0
  -27.9553  -12.3360   18.4107 C   0  0  0  0  0  0  0  0  0  0  0  0
  -30.4507  -12.3083   18.8242 C   0  0  0  0  0  0  0  0  0  0  0  0
  -28.9313  -12.8550   20.6860 C   0  0  0  0  0  0  0  0  0  0  0  0
  -24.3231  -31.2758   23.6536 C   0  0  1  0  0  0  0  0  0  0  0  0
  -22.6894  -29.4947   20.7225 C   0  0  1  0  0  0  0  0  0  0  0  0
  -27.7787  -13.1454   19.7096 C   0  0  2  0  0  0  0  0  0  0  0  0
  -31.2507  -21.6472   19.1472 C   0  0  0  0  0  0  0  0  0  0  0  0
  -26.8370  -21.0292   21.4634 C   0  0  0  0  0  0  0  0  0  0  0  0
  -17.1083  -24.8814   17.9706 C   0  0  0  0  0  0  0  0  0  0  0  0
  -31.7222  -15.7176   23.6910 C   0  0  0  0  0  0  0  0  0  0  0  0
  -19.8979  -27.1257   23.5431 C   0  0  0  0  0  0  0  0  0  0  0  0
  -18.3412  -25.5184   22.4199 C   0  0  0  0  0  0  0  0  0  0  0  0
  -17.9094  -27.9715   22.2840 C   0  0  0  0  0  0  0  0  0  0  0  0
  -20.1221  -26.1929   16.0541 C   0  0  0  0  0  0  0  0  0  0  0  0
  -31.6535  -17.0720   21.5354 C   0  0  0  0  0  0  0  0  0  0  0  0
  -28.3456  -24.8940   19.9400 C   0  0  0  0  0  0  0  0  0  1  0  0
  -28.8906  -23.6620   20.6362 C   0  0  0  0  0  0  0  0  0  0  0  0
  -19.8235  -26.9751   20.9667 C   0  0  1  0  0  0  0  0  0  0  0  0
  -18.2887  -25.8027   17.7049 C   0  0  2  0  0  0  0  0  0  0  0  0
  -31.8393  -15.6909   22.1701 C   0  0  2  0  0  0  0  0  0  0  0  0
  -19.0204  -26.8990   22.2958 C   0  0  0  0  0  0  0  0  0  0  0  0
  -25.8490  -11.6922   20.2061 N   0  0  0  0  0  0  0  0  0  0  0  0
  -26.4208  -12.9008   20.3413 N   0  0  0  0  0  0  0  0  0  0  0  0
  -21.9298  -28.2433   20.6856 N   0  0  0  0  0  0  0  0  0  0  0  0
  -30.2248  -13.1067   20.0315 N   0  0  0  0  0  0  0  0  0  0  0  0
  -26.0996  -15.0467   21.2914 N   0  0  0  0  0  0  0  0  0  0  0  0
  -22.3540  -12.8149   22.4683 N   0  0  0  0  0  0  0  0  0  0  0  0
  -30.3573  -17.6090   21.8130 N   0  0  0  0  0  0  0  0  0  0  0  0
  -23.8110  -30.8810   22.3589 N   0  0  0  0  0  0  0  0  0  0  0  0
  -19.0132  -26.7910   19.7676 N   0  0  0  0  0  0  0  0  0  0  0  0
  -30.9205  -14.7253   21.6093 N   0  0  0  0  0  0  0  0  0  0  0  0
  -18.9566  -25.3603   16.4483 N   0  3  0  0  0  0  0  0  0  0  0  0
  -23.4409  -14.8296   22.6032 O   0  0  0  0  0  0  0  0  0  0  0  0
  -22.8729  -28.8436   22.9847 O   0  0  0  0  0  0  0  0  0  0  0  0
  -19.8723  -29.3376   20.7603 O   0  0  0  0  0  0  0  0  0  0  0  0
  -20.1804  -24.9616   18.9503 O   0  0  0  0  0  0  0  0  0  0  0  0
  -32.2872  -14.1530   19.8596 O   0  0  0  0  0  0  0  0  0  0  0  0
  -21.1338   -7.5294   21.1997 O   0  0  0  0  0  0  0  0  0  0  0  0
  -26.9347  -24.7528   19.7796 O   0  0  0  0  0  0  0  0  0  1  0  0
  -28.6293  -22.5192   19.8307 O   0  0  0  0  0  0  0  0  0  0  0  0
  -18.8774   -6.4545   26.1147 F   0  0  0  0  0  0  0  0  0  0  0  0
  -21.5157   -5.0840   22.4315 F   0  0  0  0  0  0  0  0  0  0  0  0
  1  2  1  0  0  0  0
  1  5  2  0  0  0  0
  2  6  2  0  0  0  0
  3  8  2  0  0  0  0
  3 17  1  0  0  0  0
  4  9  1  0  0  0  0
  4 17  2  0  0  0  0
  5 19  1  0  0  0  0
  6 21  1  0  0  0  0
  7 10  2  0  0  0  0
  7 20  1  0  0  0  0
  8 26  1  0  0  0  0
  9 26  2  0  0  0  0
 10 27  1  0  0  0  0
 11 12  2  0  0  0  0
 11 28  1  0  0  0  0
 12 30  1  0  0  0  0
 13 22  1  0  0  0  0
 13 27  2  0  0  0  0
 14 23  2  0  0  0  0
 14 25  1  0  0  0  0
 15 24  1  0  0  0  0
 15 25  2  0  0  0  0
 16 30  2  0  0  0  0
 16 31  1  0  0  0  0
 17 32  1  0  0  0  0
 18 32  1  0  0  0  0
 18 33  2  0  0  0  0
 18 34  1  0  0  0  0
 19 21  2  0  0  0  0
 19 39  1  0  0  0  0
 20 22  2  0  0  0  0
 20 40  1  0  0  0  0
 21 48  1  0  0  0  0
 22 41  1  0  0  0  0
 23 29  1  0  0  0  0
 23 51  1  0  0  0  0
 24 29  2  0  0  0  0
 24 52  1  0  0  0  0
 25 72  1  0  0  0  0
 26 82  1  0  0  0  0
 27 83  1  0  0  0  0
 28 31  2  0  0  0  0
 28 82  1  0  0  0  0
 29 84  1  0  0  0  0
 30 85  1  0  0  0  0
 31 86  1  0  0  0  0
 32 66  2  0  0  0  0
 33 67  1  0  0  0  0
 33 70  1  0  0  0  0
 34 71  1  0  0  0  0
 34 77  2  0  0  0  0
 35 49  1  0  0  0  0
 35 73  1  0  0  0  0
 35 78  2  0  0  0  0
 36 62  1  0  0  0  0
 36 68  1  0  0  0  0
 36 79  2  0  0  0  0
 37 63  1  0  0  0  0
 37 74  1  0  0  0  0
 37 80  2  0  0  0  0
 38 69  1  0  0  0  0
 38 75  1  0  0  0  0
 38 81  2  0  0  0  0
 39 42  1  0  0  0  0
 40 49  1  0  0  0  0
 41 68  1  0  0  0  0
 42 44  1  0  0  0  0
 43 45  1  0  0  0  0
 43 46  1  0  0  0  0
 44 48  1  0  0  0  0
 45 50  1  0  0  0  0
 46 69  1  0  0  0  0
 47 50  1  0  0  0  0
 47 69  1  0  0  0  0
 48 73  1  0  0  0  0
 49 68  1  0  0  0  0
 50 67  1  0  0  0  0
 53 63  1  0  0  0  0
 54 64  1  0  0  0  0
 55 65  1  0  0  0  0
 56 65  1  0  0  0  0
 57 65  1  0  0  0  0
 58 76  1  0  0  0  0
 59 64  1  0  0  0  0
 59 72  1  0  0  0  0
 60 61  1  0  0  0  0
 60 83  1  0  0  0  0
 61 84  1  0  0  0  0
 62 65  1  0  0  0  0
 62 74  1  0  0  0  0
 63 76  1  0  0  0  0
 64 75  1  0  0  0  0
 66 67  1  0  0  0  0
M  CHG  1  76   1
M  ISO  4  38 100  60 101  75 100  83 101
M  END
> <Batch ID>
0156

> <Smiles>
CNC(C)C(=O)NC(C(=O)N1Cc2cc([101O:1][101CH2:1]COc3c(C)cc(NCC(C)[100NH:0][100C:0](=O)N4CCCC(n5nc(-c6ccc(Oc7ccc(F)cc7F)cc6)c(C(N)=O)c5N)C4)cc3C)ccc2CC1C(=O)NC1CCCc2ccccc21)C(C)(C)C

> <Shape>
0.384

> <Color>
0.141

> <Negative vol penalty>
0.000

$$$$

  -OEChem-04052321563D

 85 93  0     1  0  0  0  0  0999 V2000
  -29.6029  -23.4045   16.2204 C   0  0  0  0  0  0  0  0  0  0  0  0
  -28.3709  -23.7099   16.7899 C   0  0  0  0  0  0  0  0  0  0  0  0
  -28.0640  -14.5993   21.2260 C   0  0  0  0  0  0  0  0  0  0  0  0
  -26.0074  -15.2415   20.1328 C   0  0  0  0  0  0  0  0  0  0  0  0
  -30.7712  -23.5570   16.9659 C   0  0  0  0  0  0  0  0  0  0  0  0
  -28.3065  -24.1670   18.1057 C   0  0  0  0  0  0  0  0  0  0  0  0
  -25.1856  -28.1194   18.6386 C   0  0  0  0  0  0  0  0  0  0  0  0
  -27.7033  -13.2565   21.1159 C   0  0  0  0  0  0  0  0  0  0  0  0
  -25.6466  -13.8986   20.0227 C   0  0  0  0  0  0  0  0  0  0  0  0
  -23.8179  -27.8507   18.6726 C   0  0  0  0  0  0  0  0  0  0  0  0
  -27.7013  -10.8657   18.7249 C   0  0  0  0  0  0  0  0  0  0  0  0
  -28.6752   -9.9663   18.2910 C   0  0  0  0  0  0  0  0  0  0  0  0
  -23.8498  -28.0235   21.0785 C   0  0  0  0  0  0  0  0  0  0  0  0
  -28.4658   -8.7404   20.3624 C   0  0  0  0  0  0  0  0  0  0  0  0
  -27.2161  -15.5919   20.7345 C   0  0  0  0  0  0  0  0  0  0  0  0
  -28.3199  -17.7423   19.9190 C   0  0  0  0  0  0  0  0  0  0  0  0
  -30.7218  -24.0253   18.2883 C   0  0  0  0  0  0  0  0  0  0  0  0
  -25.8989  -28.3317   19.8271 C   0  0  0  0  0  0  0  0  0  0  0  0
  -29.4751  -24.3246   18.8701 C   0  0  0  0  0  0  0  0  0  0  0  0
  -25.2259  -28.2973   21.0567 C   0  0  0  0  0  0  0  0  0  0  0  0
  -19.7314  -25.1292   21.8403 C   0  0  0  0  0  0  0  0  0  0  0  0
  -20.3310  -25.0708   20.5580 C   0  0  0  0  0  0  0  0  0  0  0  0
  -26.4946  -12.9061   20.5142 C   0  0  0  0  0  0  0  0  0  0  0  0
  -23.1504  -27.7999   19.8928 C   0  0  0  0  0  0  0  0  0  0  0  0
  -27.1097  -10.7025   19.9775 C   0  0  0  0  0  0  0  0  0  0  0  0
  -29.0575   -8.9036   19.1098 C   0  0  0  0  0  0  0  0  0  0  0  0
  -27.4919   -9.6398   20.7962 C   0  0  0  0  0  0  0  0  0  0  0  0
  -27.5879  -16.9793   20.8484 C   0  0  0  0  0  0  0  0  0  0  0  0
  -20.2796  -24.1174   22.5972 C   0  0  0  0  0  0  0  0  0  0  0  0
  -21.2272  -24.0248   20.5703 C   0  0  0  0  0  0  0  0  0  0  0  0
  -28.4050  -18.9889   20.4893 C   0  0  0  0  0  0  0  0  0  0  0  0
  -28.8733  -17.3586   18.6532 C   0  0  0  0  0  0  0  0  0  0  0  0
  -28.3128  -26.8666   21.2867 C   0  0  0  0  0  0  0  0  0  0  0  0
  -28.1171  -29.3980   23.3056 C   0  0  0  0  0  0  0  0  0  0  0  0
  -26.2192  -31.9030   24.6358 C   0  0  0  0  0  0  0  0  0  0  0  0
  -25.0129  -21.8854   24.4837 C   0  0  0  0  0  0  0  0  0  0  0  0
  -32.0074  -24.1290   19.0702 C   0  0  0  0  0  0  0  0  0  0  0  0
  -27.3686  -28.6469   19.7717 C   0  0  0  0  0  0  0  0  0  0  0  0
  -25.9420  -28.5383   22.3597 C   0  0  0  0  0  0  0  0  0  0  0  0
  -31.8847  -24.9753   20.3347 C   0  0  0  0  0  0  0  0  0  0  0  0
  -28.4879  -21.1582   24.7529 C   0  0  0  0  0  0  0  0  0  0  0  0
  -30.6312  -24.5913   21.1146 C   0  0  0  0  0  0  0  0  0  0  0  0
  -28.7173  -20.0736   23.6989 C   0  0  0  0  0  0  0  0  0  0  0  0
  -27.1274  -21.0082   25.4302 C   0  0  0  0  0  0  0  0  0  0  0  0
  -26.2089  -19.8599   23.4524 C   0  0  0  0  0  0  0  0  0  0  0  0
  -29.3662  -24.8467   20.2863 C   0  0  1  0  0  0  0  0  0  0  0  0
  -28.0954  -28.3385   21.0771 C   0  0  1  0  0  0  0  0  0  0  0  0
  -27.5444  -20.0028   22.7026 C   0  0  2  0  0  0  0  0  0  0  0  0
  -18.7079  -26.0967   22.2866 C   0  0  0  0  0  0  0  0  0  0  0  0
  -20.0171  -23.7268   23.9988 C   0  0  0  0  0  0  0  0  0  0  0  0
  -22.1168  -23.5191   19.5028 C   0  0  0  0  0  0  0  0  0  0  0  0
  -26.3233  -33.7874   26.2898 C   0  0  0  0  0  0  0  0  0  0  0  0
  -21.0867  -21.1239   22.5881 C   0  0  0  0  0  0  0  0  0  0  0  0
  -27.9112  -27.3944   25.5976 C   0  0  0  0  0  0  0  0  0  0  0  0
  -27.0778  -29.2522   27.0544 C   0  0  0  0  0  0  0  0  0  0  0  0
  -29.3663  -29.3730   26.0692 C   0  0  0  0  0  0  0  0  0  0  0  0
  -25.6559  -33.9220   22.5464 C   0  0  0  0  0  0  0  0  0  0  0  0
  -22.9102  -22.6560   23.4141 C   0  0  0  0  0  0  0  0  0  0  0  0
  -21.2875  -26.7135   18.8900 C   0  0  0  0  0  0  0  0  0  1  0  0
  -20.0401  -25.9847   19.3881 C   0  0  1  0  0  0  0  0  0  0  0  0
  -27.3542  -29.6980   24.5733 C   0  0  1  0  0  0  0  0  0  0  0  0
  -26.4990  -33.3818   24.8347 C   0  0  2  0  0  0  0  0  0  0  0  0
  -21.9812  -22.3176   22.2374 C   0  0  2  0  0  0  0  0  0  0  0  0
  -27.9140  -28.9229   25.7994 C   0  0  0  0  0  0  0  0  0  0  0  0
  -27.2333  -17.6823   21.9273 N   0  0  0  0  0  0  0  0  0  0  0  0
  -21.1874  -23.4524   21.8149 N   0  0  0  0  0  0  0  0  0  0  0  0
  -27.7448  -18.9001   21.6795 N   0  0  0  0  0  0  0  0  0  0  0  0
  -27.3798  -28.8363   22.2536 N   0  0  0  0  0  0  0  0  0  0  0  0
  -26.0584  -20.9489   24.4304 N   0  0  0  0  0  0  0  0  0  0  0  0
  -28.9794  -20.1413   20.0839 N   0  0  0  0  0  0  0  0  0  0  0  0
  -28.6934  -16.0385   18.2179 N   0  0  0  0  0  0  0  0  0  0  0  0
  -29.0406  -26.2568   20.2828 N   0  0  0  0  0  0  0  0  0  0  0  0
  -27.3700  -31.1489   24.7255 N   0  0  0  0  0  0  0  0  0  0  0  0
  -24.0442  -21.7625   23.4952 N   0  0  0  0  0  0  0  0  0  0  0  0
  -25.5722  -34.2007   24.0033 N   0  3  0  0  0  0  0  0  0  0  0  0
  -29.5227  -18.1580   17.9372 O   0  0  0  0  0  0  0  0  0  0  0  0
  -27.8554  -26.3246   22.2861 O   0  0  0  0  0  0  0  0  0  0  0  0
  -29.3213  -29.6593   23.2484 O   0  0  0  0  0  0  0  0  0  0  0  0
  -25.0918  -31.4608   24.4258 O   0  0  0  0  0  0  0  0  0  0  0  0
  -24.9504  -22.7692   25.3451 O   0  0  0  0  0  0  0  0  0  0  0  0
  -19.4884  -25.2076   18.3273 O   0  0  0  0  0  0  0  0  0  0  0  0
  -26.1424  -11.5958   20.4064 O   0  0  0  0  0  0  0  0  0  0  0  0
  -21.8156  -27.5372   19.9288 O   0  0  0  0  0  0  0  0  0  1  0  0
  -29.9916   -8.0391   18.6924 F   0  0  0  0  0  0  0  0  0  0  0  0
  -26.9262   -9.4772   22.0001 F   0  0  0  0  0  0  0  0  0  0  0  0
  1  2  1  0  0  0  0
  1  5  2  0  0  0  0
  2  6  2  0  0  0  0
  3  8  2  0  0  0  0
  3 15  1  0  0  0  0
  4  9  1  0  0  0  0
  4 15  2  0  0  0  0
  5 17  1  0  0  0  0
  6 19  1  0  0  0  0
  7 10  2  0  0  0  0
  7 18  1  0  0  0  0
  8 23  1  0  0  0  0
  9 23  2  0  0  0  0
 10 24  1  0  0  0  0
 11 12  2  0  0  0  0
 11 25  1  0  0  0  0
 12 26  1  0  0  0  0
 13 20  1  0  0  0  0
 13 24  2  0  0  0  0
 14 26  2  0  0  0  0
 14 27  1  0  0  0  0
 15 28  1  0  0  0  0
 16 28  1  0  0  0  0
 16 31  2  0  0  0  0
 16 32  1  0  0  0  0
 17 19  2  0  0  0  0
 17 37  1  0  0  0  0
 18 20  2  0  0  0  0
 18 38  1  0  0  0  0
 19 46  1  0  0  0  0
 20 39  1  0  0  0  0
 21 22  1  0  0  0  0
 21 29  2  0  0  0  0
 21 49  1  0  0  0  0
 22 30  2  0  0  0  0
 22 60  1  0  0  0  0
 23 82  1  0  0  0  0
 24 83  1  0  0  0  0
 25 27  2  0  0  0  0
 25 82  1  0  0  0  0
 26 84  1  0  0  0  0
 27 85  1  0  0  0  0
 28 65  2  0  0  0  0
 29 50  1  0  0  0  0
 29 66  1  0  0  0  0
 30 51  1  0  0  0  0
 30 66  1  0  0  0  0
 31 67  1  0  0  0  0
 31 70  1  0  0  0  0
 32 71  1  0  0  0  0
 32 76  2  0  0  0  0
 33 47  1  0  0  0  0
 33 72  1  0  0  0  0
 33 77  2  0  0  0  0
 34 61  1  0  0  0  0
 34 68  1  0  0  0  0
 34 78  2  0  0  0  0
 35 62  1  0  0  0  0
 35 73  1  0  0  0  0
 35 79  2  0  0  0  0
 36 69  1  0  0  0  0
 36 74  1  0  0  0  0
 36 80  2  0  0  0  0
 37 40  1  0  0  0  0
 38 47  1  0  0  0  0
 39 68  1  0  0  0  0
 40 42  1  0  0  0  0
 41 43  1  0  0  0  0
 41 44  1  0  0  0  0
 42 46  1  0  0  0  0
 43 48  1  0  0  0  0
 44 69  1  0  0  0  0
 45 48  1  0  0  0  0
 45 69  1  0  0  0  0
 46 72  1  0  0  0  0
 47 68  1  0  0  0  0
 48 67  1  0  0  0  0
 52 62  1  0  0  0  0
 53 63  1  0  0  0  0
 54 64  1  0  0  0  0
 55 64  1  0  0  0  0
 56 64  1  0  0  0  0
 57 75  1  0  0  0  0
 58 63  1  0  0  0  0
 58 74  1  0  0  0  0
 59 60  1  0  0  0  0
 59 83  1  0  0  0  0
 60 81  1  0  0  0  0
 61 64  1  0  0  0  0
 61 73  1  0  0  0  0
 62 75  1  0  0  0  0
 63 66  1  0  0  0  0
 65 67  1  0  0  0  0
M  CHG  1  75   1
M  ISO  4  36 100  59 101  74 100  83 101
M  END
> <Batch ID>
0156

> <Smiles>
CNC(C)C(=O)NC(C(=O)N1Cc2cc([101O:1][101CH2:1]C(O)c3c(C)c(C)n(C(C)C[100NH:0][100C:0](=O)N4CCCC(n5nc(-c6ccc(Oc7ccc(F)cc7F)cc6)c(C(N)=O)c5N)C4)c3C)ccc2CC1C(=O)NC1CCCc2ccccc21)C(C)(C)C

> <Shape>
0.226

> <Color>
0.056

> <Negative vol penalty>
0.000

$$$$

  -OEChem-04052321563D

 86 95  0     1  0  0  0  0  0999 V2000
  -22.6110  -37.2783   17.9222 C   0  0  0  0  0  0  0  0  0  0  0  0
  -23.0034  -36.0675   17.3607 C   0  0  0  0  0  0  0  0  0  0  0  0
  -24.2544   -9.6632   22.0283 C   0  0  0  0  0  0  0  0  0  0  0  0
  -24.1980   -8.7709   19.7838 C   0  0  0  0  0  0  0  0  0  0  0  0
  -23.0766  -37.6434   19.1847 C   0  0  0  0  0  0  0  0  0  0  0  0
  -23.8626  -35.2214   18.0610 C   0  0  0  0  0  0  0  0  0  0  0  0
  -25.2689  -28.2674   19.0508 C   0  0  0  0  0  0  0  0  0  0  0  0
  -23.1176   -8.9225   22.3514 C   0  0  0  0  0  0  0  0  0  0  0  0
  -23.0611   -8.0300   20.1070 C   0  0  0  0  0  0  0  0  0  0  0  0
  -26.3319  -27.3664   19.0058 C   0  0  0  0  0  0  0  0  0  0  0  0
  -20.4415   -6.9886   23.8725 C   0  0  0  0  0  0  0  0  0  0  0  0
  -20.4382   -6.3021   25.0867 C   0  0  0  0  0  0  0  0  0  0  0  0
  -27.0096  -28.0651   21.2130 C   0  0  0  0  0  0  0  0  0  0  0  0
  -29.3143  -23.3200   19.2494 C   0  0  0  0  0  0  0  0  0  0  0  0
  -22.3709   -5.0379   24.3770 C   0  0  0  0  0  0  0  0  0  0  0  0
  -24.7946   -9.5875   20.7445 C   0  0  0  0  0  0  0  0  0  0  0  0
  -27.3113   -9.9491   20.5365 C   0  0  0  0  0  0  0  0  0  0  0  0
  -23.9343  -36.7971   19.9049 C   0  0  0  0  0  0  0  0  0  0  0  0
  -25.0743  -29.0831   20.1747 C   0  0  0  0  0  0  0  0  0  0  0  0
  -24.3412  -35.5762   19.3337 C   0  0  0  0  0  0  0  0  0  0  0  0
  -25.9419  -28.9738   21.2708 C   0  0  0  0  0  0  0  0  0  0  0  0
  -29.5351  -24.6713   19.0080 C   0  0  0  0  0  0  0  0  0  0  0  0
  -22.5209   -8.1059   21.3908 C   0  0  0  0  0  0  0  0  0  0  0  0
  -27.2042  -27.2672   20.0858 C   0  0  0  0  0  0  0  0  0  0  0  0
  -21.4094   -6.6997   22.9105 C   0  0  0  0  0  0  0  0  0  0  0  0
  -30.3966  -22.4576   19.3840 C   0  0  0  0  0  0  0  0  0  0  0  0
  -21.4030   -5.3268   25.3390 C   0  0  0  0  0  0  0  0  0  0  0  0
  -22.3741   -5.7244   23.1628 C   0  0  0  0  0  0  0  0  0  0  0  0
  -25.9686  -10.3529   20.4099 C   0  0  0  0  0  0  0  0  0  0  0  0
  -30.8468  -25.1069   18.9105 C   0  0  0  0  0  0  0  0  0  0  0  0
  -31.6698  -22.9921   19.2694 C   0  0  0  0  0  0  0  0  0  0  0  0
  -28.0373  -11.0258   20.0892 C   0  0  0  0  0  0  0  0  0  0  0  0
  -27.8537   -8.7113   21.0154 C   0  0  0  0  0  0  0  0  0  0  0  0
  -25.0653  -32.2187   20.6961 C   0  0  0  0  0  0  0  0  0  0  0  0
  -24.1130  -31.3285   23.6664 C   0  0  0  0  0  0  0  0  0  0  0  0
  -24.0207  -28.9149   26.0774 C   0  0  0  0  0  0  0  0  0  0  0  0
  -29.1420  -16.2724   19.8317 C   0  0  0  0  0  0  0  0  0  0  0  0
  -24.4492  -37.2561   21.2461 C   0  0  0  0  0  0  0  0  0  0  0  0
  -23.9071  -30.0308   20.2186 C   0  0  0  0  0  0  0  0  0  0  0  0
  -25.7646  -29.8125   22.5092 C   0  0  0  0  0  0  0  0  0  0  0  0
  -25.0583  -36.1330   22.0816 C   0  0  0  0  0  0  0  0  0  0  0  0
  -26.5828  -15.2169   17.6735 C   0  0  0  0  0  0  0  0  0  0  0  0
  -26.0020  -35.2874   21.2323 C   0  0  0  0  0  0  0  0  0  0  0  0
  -26.2974  -13.8125   18.2051 C   0  0  0  0  0  0  0  0  0  0  0  0
  -30.3119  -19.2978   18.0358 C   0  0  0  0  0  0  0  0  0  0  0  0
  -28.1650  -19.8449   19.2610 C   0  0  0  0  0  0  0  0  0  0  0  0
  -26.8270  -16.2186   18.8033 C   0  0  0  0  0  0  0  0  0  0  0  0
  -30.5331  -18.1299   18.9957 C   0  0  0  0  0  0  0  0  0  0  0  0
  -28.4371  -18.6676   20.1945 C   0  0  0  0  0  0  0  0  0  0  0  0
  -27.5904  -14.3970   20.2918 C   0  0  0  0  0  0  0  0  0  0  0  0
  -25.2523  -34.6202   20.0728 C   0  0  1  0  0  0  0  0  0  0  0  0
  -24.1065  -31.1790   21.2033 C   0  0  1  0  0  0  0  0  0  0  0  0
  -27.3989  -13.3557   19.1782 C   0  0  1  0  0  0  0  0  0  0  0  0
  -29.4472  -20.4038   18.6419 C   0  0  0  0  0  0  0  0  0  0  0  0
  -31.1436  -26.5478   18.6519 C   0  0  0  0  0  0  0  0  0  0  0  0
  -32.8667  -22.1094   19.4039 C   0  0  0  0  0  0  0  0  0  0  0  0
  -23.2052  -28.4939   28.4131 C   0  0  0  0  0  0  0  0  0  0  0  0
  -26.4178  -32.9963   24.7691 C   0  0  0  0  0  0  0  0  0  0  0  0
  -26.1464  -31.8010   26.9522 C   0  0  0  0  0  0  0  0  0  0  0  0
  -24.2808  -33.1919   26.0534 C   0  0  0  0  0  0  0  0  0  0  0  0
  -22.2602  -26.7079   25.1892 C   0  0  0  0  0  0  0  0  0  0  0  0
  -28.3798  -25.6004   18.8628 C   0  0  0  0  0  0  0  0  0  1  0  0
  -24.8174  -30.9788   24.9550 C   0  0  1  0  0  0  0  0  0  0  0  0
  -22.8818  -28.3868   26.9310 C   0  0  2  0  0  0  0  0  0  0  0  0
  -25.4203  -32.2275   25.6585 C   0  0  0  0  0  0  0  0  0  0  0  0
  -25.8461  -11.5897   19.9207 N   0  0  0  0  0  0  0  0  0  0  0  0
  -31.9237  -24.2992   19.0354 N   0  0  0  0  0  0  0  0  0  0  0  0
  -27.1211  -11.9724   19.7360 N   0  0  0  0  0  0  0  0  0  0  0  0
  -24.6123  -30.7288   22.5016 N   0  0  0  0  0  0  0  0  0  0  0  0
  -27.8561  -15.7214   19.7262 N   0  0  0  0  0  0  0  0  0  0  0  0
  -29.2706  -17.6432   19.5509 N   0  0  0  0  0  0  0  0  0  0  0  0
  -29.3637  -11.2458   19.9676 N   0  0  0  0  0  0  0  0  0  0  0  0
  -26.9664   -7.7113   21.4362 N   0  0  0  0  0  0  0  0  0  0  0  0
  -24.5068  -33.4737   20.5462 N   0  0  0  0  0  0  0  0  0  0  0  0
  -23.8490  -30.2467   25.7640 N   0  0  0  0  0  0  0  0  0  0  0  0
  -22.6145  -26.9562   26.6104 N   0  3  0  0  0  0  0  0  0  0  0  0
  -29.0891   -8.5045   21.0842 O   0  0  0  0  0  0  0  0  0  0  0  0
  -26.2263  -31.9058   20.4597 O   0  0  0  0  0  0  0  0  0  0  0  0
  -23.1505  -32.0995   23.6933 O   0  0  0  0  0  0  0  0  0  0  0  0
  -24.9697  -28.2169   25.7271 O   0  0  0  0  0  0  0  0  0  0  0  0
  -30.1181  -15.5832   20.1534 O   0  0  0  0  0  0  0  0  0  0  0  0
  -21.4117   -7.3827   21.7058 O   0  0  0  0  0  0  0  0  0  0  0  0
  -30.1907  -21.1242   19.6225 O   0  0  0  0  0  0  0  0  0  0  0  0
  -28.2499  -26.3832   20.0439 O   0  0  0  0  0  0  0  0  0  1  0  0
  -21.4007   -4.6687   26.5056 F   0  0  0  0  0  0  0  0  0  0  0  0
  -23.3072   -5.4433   22.2430 F   0  0  0  0  0  0  0  0  0  0  0  0
  1  2  1  0  0  0  0
  1  5  2  0  0  0  0
  2  6  2  0  0  0  0
  3  8  2  0  0  0  0
  3 16  1  0  0  0  0
  4  9  1  0  0  0  0
  4 16  2  0  0  0  0
  5 18  1  0  0  0  0
  6 20  1  0  0  0  0
  7 10  2  0  0  0  0
  7 19  1  0  0  0  0
  8 23  1  0  0  0  0
  9 23  2  0  0  0  0
 10 24  1  0  0  0  0
 11 12  2  0  0  0  0
 11 25  1  0  0  0  0
 12 27  1  0  0  0  0
 13 21  1  0  0  0  0
 13 24  2  0  0  0  0
 14 22  1  0  0  0  0
 14 26  2  0  0  0  0
 15 27  2  0  0  0  0
 15 28  1  0  0  0  0
 16 29  1  0  0  0  0
 17 29  1  0  0  0  0
 17 32  2  0  0  0  0
 17 33  1  0  0  0  0
 18 20  2  0  0  0  0
 18 38  1  0  0  0  0
 19 21  2  0  0  0  0
 19 39  1  0  0  0  0
 20 51  1  0  0  0  0
 21 40  1  0  0  0  0
 22 30  2  0  0  0  0
 22 62  1  0  0  0  0
 23 82  1  0  0  0  0
 24 84  1  0  0  0  0
 25 28  2  0  0  0  0
 25 82  1  0  0  0  0
 26 31  1  0  0  0  0
 26 83  1  0  0  0  0
 27 85  1  0  0  0  0
 28 86  1  0  0  0  0
 29 66  2  0  0  0  0
 30 55  1  0  0  0  0
 30 67  1  0  0  0  0
 31 56  1  0  0  0  0
 31 67  2  0  0  0  0
 32 68  1  0  0  0  0
 32 72  1  0  0  0  0
 33 73  1  0  0  0  0
 33 77  2  0  0  0  0
 34 52  1  0  0  0  0
 34 74  1  0  0  0  0
 34 78  2  0  0  0  0
 35 63  1  0  0  0  0
 35 69  1  0  0  0  0
 35 79  2  0  0  0  0
 36 64  1  0  0  0  0
 36 75  1  0  0  0  0
 36 80  2  0  0  0  0
 37 70  1  0  0  0  0
 37 71  1  0  0  0  0
 37 81  2  0  0  0  0
 38 41  1  0  0  0  0
 39 52  1  0  0  0  0
 40 69  1  0  0  0  0
 41 43  1  0  0  0  0
 42 44  1  0  0  0  0
 42 47  1  0  0  0  0
 43 51  1  0  0  0  0
 44 53  1  0  0  0  0
 45 48  1  0  0  0  0
 45 54  1  0  0  0  0
 46 49  1  0  0  0  0
 46 54  1  0  0  0  0
 47 70  1  0  0  0  0
 48 71  1  0  0  0  0
 49 71  1  0  0  0  0
 50 53  1  0  0  0  0
 50 70  1  0  0  0  0
 51 74  1  0  0  0  0
 52 69  1  0  0  0  0
 53 68  1  0  0  0  0
 54 83  1  0  0  0  0
 57 64  1  0  0  0  0
 58 65  1  0  0  0  0
 59 65  1  0  0  0  0
 60 65  1  0  0  0  0
 61 76  1  0  0  0  0
 62 84  1  0  0  0  0
 63 65  1  0  0  0  0
 63 75  1  0  0  0  0
 64 76  1  0  0  0  0
 66 68  1  0  0  0  0
M  CHG  1  76   1
M  ISO  4  37 100  62 101  71 100  84 101
M  END
> <Batch ID>
0156

> <Smiles>
CNC(C)C(=O)NC(C(=O)N1Cc2cc([101O:1][101CH2:1]c3cc(OC4CC[100N:0]([100C:0](=O)N5CCCC(n6nc(-c7ccc(Oc8ccc(F)cc8F)cc7)c(C(N)=O)c6N)C5)CC4)c(C)nc3C)ccc2CC1C(=O)NC1CCCc2ccccc21)C(C)(C)C

> <Shape>
0.297

> <Color>
0.130

> <Negative vol penalty>
0.000

$$$$

  -OEChem-04052321563D

 91101  0     1  0  0  0  0  0999 V2000
  -26.6570  -35.1585   23.1143 C   0  0  0  0  0  0  0  0  0  0  0  0
  -27.0724  -33.8442   22.9255 C   0  0  0  0  0  0  0  0  0  0  0  0
  -23.5861  -10.3883   21.5109 C   0  0  0  0  0  0  0  0  0  0  0  0
  -24.8965   -8.4782   22.1973 C   0  0  0  0  0  0  0  0  0  0  0  0
  -25.3646  -35.4217   23.5665 C   0  0  0  0  0  0  0  0  0  0  0  0
  -26.1959  -32.7924   23.1898 C   0  0  0  0  0  0  0  0  0  0  0  0
  -26.2549  -29.2569   19.5646 C   0  0  0  0  0  0  0  0  0  0  0  0
  -22.4834   -9.5588   21.3074 C   0  0  0  0  0  0  0  0  0  0  0  0
  -23.7938   -7.6486   21.9939 C   0  0  0  0  0  0  0  0  0  0  0  0
  -27.3217  -28.3593   19.5679 C   0  0  0  0  0  0  0  0  0  0  0  0
  -20.9468   -6.8467   23.6286 C   0  0  0  0  0  0  0  0  0  0  0  0
  -20.6607   -5.8990   24.6112 C   0  0  0  0  0  0  0  0  0  0  0  0
  -30.2530  -20.0971   17.2306 C   0  0  0  0  0  0  0  0  0  0  0  0
  -25.9233  -26.7107   20.6384 C   0  0  0  0  0  0  0  0  0  0  0  0
  -20.9342   -4.1319   22.9865 C   0  0  0  0  0  0  0  0  0  0  0  0
  -24.7927   -9.8480   21.9558 C   0  0  0  0  0  0  0  0  0  0  0  0
  -26.2860  -11.3733   23.3528 C   0  0  0  0  0  0  0  0  0  0  0  0
  -24.4687  -34.3729   23.8272 C   0  0  0  0  0  0  0  0  0  0  0  0
  -25.0153  -28.8913   20.1089 C   0  0  0  0  0  0  0  0  0  0  0  0
  -24.8908  -33.0418   23.6471 C   0  0  0  0  0  0  0  0  0  0  0  0
  -29.6086  -20.2640   18.4563 C   0  0  0  0  0  0  0  0  0  0  0  0
  -24.8416  -27.6046   20.6384 C   0  0  0  0  0  0  0  0  0  0  0  0
  -30.3802  -21.1769   16.3567 C   0  0  0  0  0  0  0  0  0  0  0  0
  -29.8628  -22.4236   16.7086 C   0  0  0  0  0  0  0  0  0  0  0  0
  -29.2183  -22.5905   17.9343 C   0  0  0  0  0  0  0  0  0  0  0  0
  -29.0912  -21.5107   18.8082 C   0  0  0  0  0  0  0  0  0  0  0  0
  -22.5872   -8.1889   21.5489 C   0  0  0  0  0  0  0  0  0  0  0  0
  -27.1568  -27.0870   20.1075 C   0  0  0  0  0  0  0  0  0  0  0  0
  -21.2266   -6.4371   22.3249 C   0  0  0  0  0  0  0  0  0  0  0  0
  -20.6544   -4.5416   24.2902 C   0  0  0  0  0  0  0  0  0  0  0  0
  -21.2204   -5.0797   22.0039 C   0  0  0  0  0  0  0  0  0  0  0  0
  -25.9324  -10.7043   22.1656 C   0  0  0  0  0  0  0  0  0  0  0  0
  -27.4388  -12.0491   23.0357 C   0  0  0  0  0  0  0  0  0  0  0  0
  -25.6309  -11.3827   24.6281 C   0  0  0  0  0  0  0  0  0  0  0  0
  -23.2192  -29.9496   22.5084 C   0  0  0  0  0  0  0  0  0  0  0  0
  -21.0884  -27.7961   21.3488 C   0  0  0  0  0  0  0  0  0  0  0  0
  -20.5353  -24.9399   19.5648 C   0  0  0  0  0  0  0  0  0  0  0  0
  -30.5158  -15.1125   19.6937 C   0  0  0  0  0  0  0  0  0  0  0  0
  -23.0973  -34.7052   24.3597 C   0  0  0  0  0  0  0  0  0  0  0  0
  -23.8668  -29.8618   20.0735 C   0  0  0  0  0  0  0  0  0  0  0  0
  -23.5252  -27.1560   21.2166 C   0  0  0  0  0  0  0  0  0  0  0  0
  -22.1077  -33.5472   24.2586 C   0  0  0  0  0  0  0  0  0  0  0  0
  -30.4488  -11.7284   18.9924 C   0  0  0  0  0  0  0  0  0  0  0  0
  -22.7466  -32.2541   24.7551 C   0  0  0  0  0  0  0  0  0  0  0  0
  -29.2986  -11.2022   19.8505 C   0  0  0  0  0  0  0  0  0  0  0  0
  -29.1792  -22.1593   22.4542 C   0  0  0  0  0  0  0  0  0  0  0  0
  -30.3064  -22.5674   21.5523 C   0  0  0  0  0  0  0  0  0  0  0  0
  -28.6528  -17.9370   18.7616 C   0  0  0  0  0  0  0  0  0  0  0  0
  -30.8611  -18.5481   19.8382 C   0  0  0  0  0  0  0  0  0  0  0  0
  -30.0902  -13.0690   18.3618 C   0  0  0  0  0  0  0  0  0  0  0  0
  -28.5602  -16.7239   19.6915 C   0  0  0  0  0  0  0  0  0  0  0  0
  -30.7043  -17.3401   20.7572 C   0  0  0  0  0  0  0  0  0  0  0  0
  -28.5461  -13.6041   20.2185 C   0  0  0  0  0  0  0  0  0  0  0  0
  -29.4858  -19.0711   19.3855 C   0  0  0  0  0  0  0  0  0  0  0  0
  -23.9611  -31.8747   23.8992 C   0  0  1  0  0  0  0  0  0  0  0  0
  -22.7978  -29.5610   21.1195 C   0  0  1  0  0  0  0  0  0  0  0  0
  -28.8582  -12.2502   20.8879 C   0  0  1  0  0  0  0  0  0  0  0  0
  -28.8917  -22.5975   21.0453 C   0  0  0  0  0  0  0  0  0  0  0  0
  -31.0748  -20.9714   15.0504 C   0  0  0  0  0  0  0  0  0  0  0  0
  -30.0008  -23.5797   15.7691 C   0  0  0  0  0  0  0  0  0  0  0  0
  -18.6924  -23.4072   18.8217 C   0  0  0  0  0  0  0  0  0  0  0  0
  -20.9337  -26.6226   24.1611 C   0  0  0  0  0  0  0  0  0  0  0  0
  -19.8674  -24.5828   23.1759 C   0  0  0  0  0  0  0  0  0  0  0  0
  -18.7356  -26.7972   22.9813 C   0  0  0  0  0  0  0  0  0  0  0  0
  -21.1135  -25.4415   16.7060 C   0  0  0  0  0  0  0  0  0  0  0  0
  -28.6643  -23.9299   18.3085 C   0  0  0  0  0  0  0  0  0  0  0  0
  -29.7253  -24.9439   18.7573 C   0  0  0  0  0  0  0  0  0  0  0  0
  -29.1490  -26.3228   19.0570 C   0  0  0  0  0  0  0  0  0  1  0  0
  -20.8013  -26.3353   21.5987 C   0  0  1  0  0  0  0  0  0  0  0  0
  -19.5419  -24.6167   18.4634 C   0  0  2  0  0  0  0  0  0  0  0  0
  -20.1100  -26.0933   22.9702 C   0  0  0  0  0  0  0  0  0  0  0  0
  -26.7910  -10.9345   21.1687 N   0  0  0  0  0  0  0  0  0  0  0  0
  -27.6955  -11.7557   21.7287 N   0  0  0  0  0  0  0  0  0  0  0  0
  -22.4342  -28.1433   21.1645 N   0  0  0  0  0  0  0  0  0  0  0  0
  -29.6742  -14.0352   19.3783 N   0  0  0  0  0  0  0  0  0  0  0  0
  -29.8986  -16.2971   20.1228 N   0  0  0  0  0  0  0  0  0  0  0  0
  -28.2479  -12.8600   23.7501 N   0  0  0  0  0  0  0  0  0  0  0  0
  -24.4566  -10.6333   24.7816 N   0  0  0  0  0  0  0  0  0  0  0  0
  -28.4381  -21.6777   20.0516 N   0  0  0  0  0  0  0  0  0  0  0  0
  -23.5336  -31.2880   22.6472 N   0  0  0  0  0  0  0  0  0  0  0  0
  -20.0313  -25.8685   20.4508 N   0  0  0  0  0  0  0  0  0  0  0  0
  -20.2578  -24.3272   17.1888 N   0  3  0  0  0  0  0  0  0  0  0  0
  -26.0648  -12.0496   25.5979 O   0  0  0  0  0  0  0  0  0  0  0  0
  -23.2550  -29.0984   23.3893 O   0  0  0  0  0  0  0  0  0  0  0  0
  -20.1523  -28.5986   21.3113 O   0  0  0  0  0  0  0  0  0  0  0  0
  -21.6458  -24.4178   19.6345 O   0  0  0  0  0  0  0  0  0  0  0  0
  -31.7462  -15.0219   19.5984 O   0  0  0  0  0  0  0  0  0  0  0  0
  -21.5113   -7.3792   21.3507 O   0  0  0  0  0  0  0  0  0  0  0  0
  -28.2040  -26.2029   20.1126 O   0  0  0  0  0  0  0  0  0  1  0  0
  -20.3811   -3.6315   25.2343 F   0  0  0  0  0  0  0  0  0  0  0  0
  -21.4896   -4.6800   20.7535 F   0  0  0  0  0  0  0  0  0  0  0  0
  1  2  1  0  0  0  0
  1  5  2  0  0  0  0
  2  6  2  0  0  0  0
  3  8  2  0  0  0  0
  3 16  1  0  0  0  0
  4  9  1  0  0  0  0
  4 16  2  0  0  0  0
  5 18  1  0  0  0  0
  6 20  1  0  0  0  0
  7 10  2  0  0  0  0
  7 19  1  0  0  0  0
  8 27  1  0  0  0  0
  9 27  2  0  0  0  0
 10 28  1  0  0  0  0
 11 12  2  0  0  0  0
 11 29  1  0  0  0  0
 12 30  1  0  0  0  0
 13 21  2  0  0  0  0
 13 23  1  0  0  0  0
 14 22  1  0  0  0  0
 14 28  2  0  0  0  0
 15 30  2  0  0  0  0
 15 31  1  0  0  0  0
 16 32  1  0  0  0  0
 17 32  1  0  0  0  0
 17 33  2  0  0  0  0
 17 34  1  0  0  0  0
 18 20  2  0  0  0  0
 18 39  1  0  0  0  0
 19 22  2  0  0  0  0
 19 40  1  0  0  0  0
 20 55  1  0  0  0  0
 21 26  1  0  0  0  0
 21 54  1  0  0  0  0
 22 41  1  0  0  0  0
 23 24  2  0  0  0  0
 23 59  1  0  0  0  0
 24 25  1  0  0  0  0
 24 60  1  0  0  0  0
 25 26  2  0  0  0  0
 25 66  1  0  0  0  0
 26 79  1  0  0  0  0
 27 88  1  0  0  0  0
 28 89  1  0  0  0  0
 29 31  2  0  0  0  0
 29 88  1  0  0  0  0
 30 90  1  0  0  0  0
 31 91  1  0  0  0  0
 32 72  2  0  0  0  0
 33 73  1  0  0  0  0
 33 77  1  0  0  0  0
 34 78  1  0  0  0  0
 34 83  2  0  0  0  0
 35 56  1  0  0  0  0
 35 80  1  0  0  0  0
 35 84  2  0  0  0  0
 36 69  1  0  0  0  0
 36 74  1  0  0  0  0
 36 85  2  0  0  0  0
 37 70  1  0  0  0  0
 37 81  1  0  0  0  0
 37 86  2  0  0  0  0
 38 75  1  0  0  0  0
 38 76  1  0  0  0  0
 38 87  2  0  0  0  0
 39 42  1  0  0  0  0
 40 56  1  0  0  0  0
 41 74  1  0  0  0  0
 42 44  1  0  0  0  0
 43 45  1  0  0  0  0
 43 50  1  0  0  0  0
 44 55  1  0  0  0  0
 45 57  1  0  0  0  0
 46 47  1  0  0  0  0
 46 58  1  0  0  0  0
 47 58  1  0  0  0  0
 48 51  1  0  0  0  0
 48 54  1  0  0  0  0
 49 52  1  0  0  0  0
 49 54  1  0  0  0  0
 50 75  1  0  0  0  0
 51 76  1  0  0  0  0
 52 76  1  0  0  0  0
 53 57  1  0  0  0  0
 53 75  1  0  0  0  0
 55 80  1  0  0  0  0
 56 74  1  0  0  0  0
 57 73  1  0  0  0  0
 58 79  1  0  0  0  0
 61 70  1  0  0  0  0
 62 71  1  0  0  0  0
 63 71  1  0  0  0  0
 64 71  1  0  0  0  0
 65 82  1  0  0  0  0
 66 67  1  0  0  0  0
 67 68  1  0  0  0  0
 68 89  1  0  0  0  0
 69 71  1  0  0  0  0
 69 81  1  0  0  0  0
 70 82  1  0  0  0  0
 72 73  1  0  0  0  0
M  CHG  1  82   1
M  ISO  4  38 100  68 101  76 100  89 101
M  END
> <Batch ID>
0156

> <Smiles>
CNC(C)C(=O)NC(C(=O)N1Cc2cc([101O:1][101CH2:1]CCc3c(C)c(C)cc(C4CC[100N:0]([100C:0](=O)N5CCCC(n6nc(-c7ccc(Oc8ccc(F)cc8F)cc7)c(C(N)=O)c6N)C5)CC4)c3NC3CC3)ccc2CC1C(=O)NC1CCCc2ccccc21)C(C)(C)C

> <Shape>
0.354

> <Color>
0.125

> <Negative vol penalty>
0.000

$$$$

  -OEChem-04052321563D

 88 97  0     1  0  0  0  0  0999 V2000
  -28.3785  -24.5910   15.0784 C   0  0  0  0  0  0  0  0  0  0  0  0
  -27.3258  -25.4364   15.4102 C   0  0  0  0  0  0  0  0  0  0  0  0
  -26.2568  -15.1252   20.9650 C   0  0  0  0  0  0  0  0  0  0  0  0
  -26.9199  -14.5859   18.7052 C   0  0  0  0  0  0  0  0  0  0  0  0
  -29.2042  -24.0860   16.0806 C   0  0  0  0  0  0  0  0  0  0  0  0
  -27.1057  -25.7867   16.7427 C   0  0  0  0  0  0  0  0  0  0  0  0
  -22.6643  -29.0914   19.2883 C   0  0  0  0  0  0  0  0  0  0  0  0
  -25.9920  -13.7776   21.2089 C   0  0  0  0  0  0  0  0  0  0  0  0
  -26.6552  -13.2383   18.9492 C   0  0  0  0  0  0  0  0  0  0  0  0
  -21.4139  -28.8662   19.8624 C   0  0  0  0  0  0  0  0  0  0  0  0
  -23.5292  -11.5622   20.5375 C   0  0  0  0  0  0  0  0  0  0  0  0
  -22.3425  -11.2449   21.1983 C   0  0  0  0  0  0  0  0  0  0  0  0
  -20.0125  -25.4832   22.4332 C   0  0  0  0  0  0  0  0  0  0  0  0
  -22.4253  -28.8702   22.0524 C   0  0  0  0  0  0  0  0  0  0  0  0
  -23.6092  -10.2087   22.9756 C   0  0  0  0  0  0  0  0  0  0  0  0
  -26.7206  -15.5294   19.7131 C   0  0  0  0  0  0  0  0  0  0  0  0
  -28.2127  -17.5977   19.6563 C   0  0  0  0  0  0  0  0  0  0  0  0
  -28.9858  -24.4208   17.4272 C   0  0  0  0  0  0  0  0  0  0  0  0
  -23.8082  -29.1971   20.0926 C   0  0  0  0  0  0  0  0  0  0  0  0
  -27.9427  -25.3065   17.7662 C   0  0  0  0  0  0  0  0  0  0  0  0
  -20.6646  -24.5585   23.2488 C   0  0  0  0  0  0  0  0  0  0  0  0
  -23.6887  -29.0993   21.4863 C   0  0  0  0  0  0  0  0  0  0  0  0
  -18.8262  -26.0780   22.8630 C   0  0  0  0  0  0  0  0  0  0  0  0
  -20.1303  -24.2284   24.4943 C   0  0  0  0  0  0  0  0  0  0  0  0
  -18.9440  -24.8230   24.9242 C   0  0  0  0  0  0  0  0  0  0  0  0
  -18.2920  -25.7478   24.1085 C   0  0  0  0  0  0  0  0  0  0  0  0
  -26.1912  -12.8342   20.2011 C   0  0  0  0  0  0  0  0  0  0  0  0
  -21.2947  -28.7526   21.2444 C   0  0  0  0  0  0  0  0  0  0  0  0
  -24.7559  -11.2027   21.0957 C   0  0  0  0  0  0  0  0  0  0  0  0
  -22.3825  -10.5682   22.4174 C   0  0  0  0  0  0  0  0  0  0  0  0
  -24.7959  -10.5259   22.3148 C   0  0  0  0  0  0  0  0  0  0  0  0
  -26.9937  -16.9213   19.4603 C   0  0  0  0  0  0  0  0  0  0  0  0
  -27.9539  -18.8904   19.2710 C   0  0  0  0  0  0  0  0  0  0  0  0
  -29.4668  -17.1019   20.1432 C   0  0  0  0  0  0  0  0  0  0  0  0
  -26.5160  -27.5553   20.3681 C   0  0  0  0  0  0  0  0  0  0  0  0
  -27.3009  -29.9453   22.4162 C   0  0  0  0  0  0  0  0  0  0  0  0
  -26.2519  -32.4128   24.5275 C   0  0  0  0  0  0  0  0  0  0  0  0
  -23.9087  -22.8696   19.3099 C   0  0  0  0  0  0  0  0  0  0  0  0
  -29.9148  -23.8520   18.4706 C   0  0  0  0  0  0  0  0  0  0  0  0
  -25.1458  -29.4668   19.4598 C   0  0  0  0  0  0  0  0  0  0  0  0
  -24.8829  -29.2254   22.3954 C   0  0  0  0  0  0  0  0  0  0  0  0
  -29.3380  -23.9204   19.8809 C   0  0  0  0  0  0  0  0  0  0  0  0
  -24.5637  -21.0775   16.4276 C   0  0  0  0  0  0  0  0  0  0  0  0
  -28.8166  -25.3218   20.1618 C   0  0  0  0  0  0  0  0  0  0  0  0
  -25.3812  -19.8835   16.9200 C   0  0  0  0  0  0  0  0  0  0  0  0
  -21.7003  -22.5968   22.0239 C   0  0  0  0  0  0  0  0  0  0  0  0
  -22.7671  -24.8877   21.8726 C   0  0  0  0  0  0  0  0  0  0  0  0
  -23.4205  -21.3887   17.3865 C   0  0  0  0  0  0  0  0  0  0  0  0
  -23.0017  -21.9805   21.5025 C   0  0  0  0  0  0  0  0  0  0  0  0
  -24.0471  -24.2178   21.3816 C   0  0  0  0  0  0  0  0  0  0  0  0
  -24.6818  -20.4545   19.2981 C   0  0  0  0  0  0  0  0  0  0  0  0
  -21.9531  -23.9263   22.7574 C   0  0  0  0  0  0  0  0  0  0  0  0
  -27.6655  -25.6768   19.2120 C   0  0  1  0  0  0  0  0  0  0  0  0
  -26.3188  -29.0446   20.3392 C   0  0  1  0  0  0  0  0  0  0  0  0
  -25.8588  -20.0993   18.3670 C   0  0  1  0  0  0  0  0  0  0  0  0
  -20.8321  -23.2359   25.3666 C   0  0  0  0  0  0  0  0  0  0  0  0
  -18.3737  -24.4657   26.2613 C   0  0  0  0  0  0  0  0  0  0  0  0
  -27.1252  -34.1731   26.0883 C   0  0  0  0  0  0  0  0  0  0  0  0
  -27.9222  -27.7950   24.4898 C   0  0  0  0  0  0  0  0  0  0  0  0
  -27.8584  -29.5734   26.2509 C   0  0  0  0  0  0  0  0  0  0  0  0
  -29.5565  -29.6869   24.4271 C   0  0  0  0  0  0  0  0  0  0  0  0
  -25.0111  -34.5896   22.9525 C   0  0  0  0  0  0  0  0  0  0  0  0
  -19.1247  -27.8018   21.0368 C   0  0  0  0  0  0  0  0  0  1  0  0
  -18.1507  -27.0651   21.9673 C   0  0  1  0  0  0  0  0  0  0  0  0
  -27.1342  -30.1813   23.8979 C   0  0  1  0  0  0  0  0  0  0  0  0
  -26.6740  -33.8641   24.6692 C   0  0  2  0  0  0  0  0  0  0  0  0
  -28.0954  -29.3048   24.7495 C   0  0  0  0  0  0  0  0  0  0  0  0
  -26.0320  -17.7184   18.9873 N   0  0  0  0  0  0  0  0  0  0  0  0
  -26.6465  -18.9091   18.8830 N   0  0  0  0  0  0  0  0  0  0  0  0
  -26.1700  -29.4826   21.7285 N   0  0  0  0  0  0  0  0  0  0  0  0
  -23.9140  -21.5833   18.7497 N   0  0  0  0  0  0  0  0  0  0  0  0
  -23.7537  -22.9565   20.7016 N   0  0  0  0  0  0  0  0  0  0  0  0
  -17.0888  -26.3514   24.5423 N   0  0  0  0  0  0  0  0  0  0  0  0
  -28.7194  -20.0016   19.2296 N   0  0  0  0  0  0  0  0  0  0  0  0
  -29.5591  -15.7481   20.4942 N   0  0  0  0  0  0  0  0  0  0  0  0
  -27.3403  -27.0775   19.3672 N   0  0  0  0  0  0  0  0  0  0  0  0
  -27.2947  -31.6167   24.1032 N   0  0  0  0  0  0  0  0  0  0  0  0
  -25.5397  -34.7689   24.3292 N   0  3  0  0  0  0  0  0  0  0  0  0
  -30.4711  -17.8411   20.2789 O   0  0  0  0  0  0  0  0  0  0  0  0
  -25.9627  -26.8893   21.2351 O   0  0  0  0  0  0  0  0  0  0  0  0
  -28.3923  -30.1701   21.8870 O   0  0  0  0  0  0  0  0  0  0  0  0
  -25.1122  -32.0236   24.7725 O   0  0  0  0  0  0  0  0  0  0  0  0
  -24.0358  -23.8813   18.6088 O   0  0  0  0  0  0  0  0  0  0  0  0
  -17.1722  -26.3904   21.1685 O   0  0  0  0  0  0  0  0  0  0  0  0
  -25.9332  -11.5191   20.4388 O   0  0  0  0  0  0  0  0  0  0  0  0
  -20.0663  -28.5304   21.8114 O   0  0  0  0  0  0  0  0  0  1  0  0
  -21.2428  -10.2650   23.0525 F   0  0  0  0  0  0  0  0  0  0  0  0
  -25.9714  -10.1790   22.8566 F   0  0  0  0  0  0  0  0  0  0  0  0
  1  2  1  0  0  0  0
  1  5  2  0  0  0  0
  2  6  2  0  0  0  0
  3  8  2  0  0  0  0
  3 16  1  0  0  0  0
  4  9  1  0  0  0  0
  4 16  2  0  0  0  0
  5 18  1  0  0  0  0
  6 20  1  0  0  0  0
  7 10  2  0  0  0  0
  7 19  1  0  0  0  0
  8 27  1  0  0  0  0
  9 27  2  0  0  0  0
 10 28  1  0  0  0  0
 11 12  2  0  0  0  0
 11 29  1  0  0  0  0
 12 30  1  0  0  0  0
 13 21  2  0  0  0  0
 13 23  1  0  0  0  0
 14 22  1  0  0  0  0
 14 28  2  0  0  0  0
 15 30  2  0  0  0  0
 15 31  1  0  0  0  0
 16 32  1  0  0  0  0
 17 32  1  0  0  0  0
 17 33  2  0  0  0  0
 17 34  1  0  0  0  0
 18 20  2  0  0  0  0
 18 39  1  0  0  0  0
 19 22  2  0  0  0  0
 19 40  1  0  0  0  0
 20 53  1  0  0  0  0
 21 24  1  0  0  0  0
 21 52  1  0  0  0  0
 22 41  1  0  0  0  0
 23 26  2  0  0  0  0
 23 64  1  0  0  0  0
 24 25  2  0  0  0  0
 24 56  1  0  0  0  0
 25 26  1  0  0  0  0
 25 57  1  0  0  0  0
 26 73  1  0  0  0  0
 27 85  1  0  0  0  0
 28 86  1  0  0  0  0
 29 31  2  0  0  0  0
 29 85  1  0  0  0  0
 30 87  1  0  0  0  0
 31 88  1  0  0  0  0
 32 68  2  0  0  0  0
 33 69  1  0  0  0  0
 33 74  1  0  0  0  0
 34 75  1  0  0  0  0
 34 79  2  0  0  0  0
 35 54  1  0  0  0  0
 35 76  1  0  0  0  0
 35 80  2  0  0  0  0
 36 65  1  0  0  0  0
 36 70  1  0  0  0  0
 36 81  2  0  0  0  0
 37 66  1  0  0  0  0
 37 77  1  0  0  0  0
 37 82  2  0  0  0  0
 38 71  1  0  0  0  0
 38 72  1  0  0  0  0
 38 83  2  0  0  0  0
 39 42  1  0  0  0  0
 40 54  1  0  0  0  0
 41 70  1  0  0  0  0
 42 44  1  0  0  0  0
 43 45  1  0  0  0  0
 43 48  1  0  0  0  0
 44 53  1  0  0  0  0
 45 55  1  0  0  0  0
 46 49  1  0  0  0  0
 46 52  1  0  0  0  0
 47 50  1  0  0  0  0
 47 52  1  0  0  0  0
 48 71  1  0  0  0  0
 49 72  1  0  0  0  0
 50 72  1  0  0  0  0
 51 55  1  0  0  0  0
 51 71  1  0  0  0  0
 53 76  1  0  0  0  0
 54 70  1  0  0  0  0
 55 69  1  0  0  0  0
 58 66  1  0  0  0  0
 59 67  1  0  0  0  0
 60 67  1  0  0  0  0
 61 67  1  0  0  0  0
 62 78  1  0  0  0  0
 63 64  1  0  0  0  0
 63 86  1  0  0  0  0
 64 84  1  0  0  0  0
 65 67  1  0  0  0  0
 65 77  1  0  0  0  0
 66 78  1  0  0  0  0
 68 69  1  0  0  0  0
M  CHG  1  78   1
M  ISO  4  38 100  63 101  72 100  86 101
M  END
> <Batch ID>
0156

> <Smiles>
CNC(C)C(=O)NC(C(=O)N1Cc2cc([101O:1][101CH2:1]C(O)c3cc(C4CC[100N:0]([100C:0](=O)N5CCCC(n6nc(-c7ccc(Oc8ccc(F)cc8F)cc7)c(C(N)=O)c6N)C5)CC4)c(C)c(C)c3N)ccc2CC1C(=O)NC1CCCc2ccccc21)C(C)(C)C

> <Shape>
0.274

> <Color>
0.058

> <Negative vol penalty>
0.000

$$$$

  -OEChem-04052321563D

 84 93  0     1  0  0  0  0  0999 V2000
  -18.9628  -23.0419   19.8323 C   0  0  0  0  0  0  0  0  0  0  0  0
  -20.1924  -22.6186   19.3380 C   0  0  0  0  0  0  0  0  0  0  0  0
  -23.8600  -30.1799   21.1522 C   0  0  0  0  0  0  0  0  0  0  0  0
  -25.9420  -30.4268   22.3529 C   0  0  0  0  0  0  0  0  0  0  0  0
  -18.4452  -22.4694   20.9935 C   0  0  0  0  0  0  0  0  0  0  0  0
  -20.9056  -21.6233   20.0052 C   0  0  0  0  0  0  0  0  0  0  0  0
  -24.4366  -17.3032   17.4804 C   0  0  0  0  0  0  0  0  0  0  0  0
  -23.2508  -31.0836   22.0227 C   0  0  0  0  0  0  0  0  0  0  0  0
  -25.3328  -31.3306   23.2233 C   0  0  0  0  0  0  0  0  0  0  0  0
  -25.8155  -17.2069   17.2985 C   0  0  0  0  0  0  0  0  0  0  0  0
  -24.4405  -34.5900   23.2034 C   0  0  0  0  0  0  0  0  0  0  0  0
  -25.1364  -35.7584   23.5135 C   0  0  0  0  0  0  0  0  0  0  0  0
  -30.3277  -17.2328   21.7039 C   0  0  0  0  0  0  0  0  0  0  0  0
  -29.6579  -19.2552   19.8445 C   0  0  0  0  0  0  0  0  0  0  0  0
  -25.9855  -15.9059   19.3228 C   0  0  0  0  0  0  0  0  0  0  0  0
  -25.1184  -35.1486   25.8513 C   0  0  0  0  0  0  0  0  0  0  0  0
  -25.2056  -29.8514   21.3173 C   0  0  0  0  0  0  0  0  0  0  0  0
  -26.4966  -29.2132   19.2117 C   0  0  0  0  0  0  0  0  0  0  0  0
  -19.1478  -21.4598   21.6699 C   0  0  0  0  0  0  0  0  0  0  0  0
  -23.8222  -16.7099   18.5925 C   0  0  0  0  0  0  0  0  0  0  0  0
  -20.3974  -21.0377   21.1772 C   0  0  0  0  0  0  0  0  0  0  0  0
  -29.9861  -18.5068   22.1261 C   0  0  0  0  0  0  0  0  0  0  0  0
  -29.6507  -19.5104   21.2070 C   0  0  0  0  0  0  0  0  0  0  0  0
  -24.5983  -15.9940   19.5151 C   0  0  0  0  0  0  0  0  0  0  0  0
  -30.3205  -16.9653   20.3336 C   0  0  0  0  0  0  0  0  0  0  0  0
  -29.9886  -17.9693   19.4107 C   0  0  0  0  0  0  0  0  0  0  0  0
  -23.9872  -31.6590   23.0582 C   0  0  0  0  0  0  0  0  0  0  0  0
  -26.5906  -16.5106   18.2213 C   0  0  0  0  0  0  0  0  0  0  0  0
  -24.0834  -33.7010   24.2172 C   0  0  0  0  0  0  0  0  0  0  0  0
  -25.4755  -36.0376   24.8374 C   0  0  0  0  0  0  0  0  0  0  0  0
  -24.4224  -33.9802   25.5411 C   0  0  0  0  0  0  0  0  0  0  0  0
  -25.8353  -28.9175   20.4188 C   0  0  0  0  0  0  0  0  0  0  0  0
  -26.9140  -27.9923   18.7409 C   0  0  0  0  0  0  0  0  0  0  0  0
  -26.7143  -30.4784   18.5732 C   0  0  0  0  0  0  0  0  0  0  0  0
  -22.1520  -17.7875   21.0730 C   0  0  0  0  0  0  0  0  0  0  0  0
  -21.7625  -14.6262   21.6866 C   0  0  0  0  0  0  0  0  0  0  0  0
  -22.9165  -11.4372   21.3052 C   0  0  0  0  0  0  0  0  0  0  0  0
  -28.1703  -22.9301   21.5068 C   0  0  0  0  0  0  0  0  0  0  0  0
  -18.5700  -20.9043   22.9474 C   0  0  0  0  0  0  0  0  0  0  0  0
  -22.3302  -16.8002   18.7601 C   0  0  0  0  0  0  0  0  0  0  0  0
  -29.9644  -19.0337   23.5270 C   0  0  0  0  0  0  0  0  0  0  0  0
  -23.9846  -15.3218   20.7151 C   0  0  0  0  0  0  0  0  0  0  0  0
  -19.2136  -19.5915   23.3867 C   0  0  0  0  0  0  0  0  0  0  0  0
  -29.1188  -20.3048   23.3528 C   0  0  0  0  0  0  0  0  0  0  0  0
  -25.7616  -23.3479   18.8384 C   0  0  0  0  0  0  0  0  0  0  0  0
  -20.7335  -19.6871   23.3005 C   0  0  0  0  0  0  0  0  0  0  0  0
  -25.5744  -24.8662   18.8327 C   0  0  0  0  0  0  0  0  0  0  0  0
  -25.9292  -22.8170   20.2590 C   0  0  0  0  0  0  0  0  0  0  0  0
  -26.8501  -24.9712   21.0238 C   0  0  0  0  0  0  0  0  0  0  0  0
  -21.1894  -19.9431   21.8589 C   0  0  1  0  0  0  0  0  0  0  0  0
  -29.3788  -20.8025   21.9195 C   0  0  2  0  0  0  0  0  0  0  0  0
  -21.8773  -16.5942   20.2023 C   0  0  1  0  0  0  0  0  0  0  0  0
  -26.6978  -25.5723   19.6147 C   0  0  2  0  0  0  0  0  0  0  0  0
  -32.1848  -15.3434   19.9087 C   0  0  0  0  0  0  0  0  0  0  0  0
  -22.4065   -9.0671   21.9532 C   0  0  0  0  0  0  0  0  0  0  0  0
  -22.8220  -15.1689   24.4960 C   0  0  0  0  0  0  0  0  0  0  0  0
  -23.1851  -12.7058   24.7595 C   0  0  0  0  0  0  0  0  0  0  0  0
  -20.8820  -13.5936   24.3990 C   0  0  0  0  0  0  0  0  0  0  0  0
  -22.6001  -10.6107   18.4810 C   0  0  0  0  0  0  0  0  0  0  0  0
  -30.6804  -15.5918   19.8672 C   0  0  0  0  0  0  0  0  0  0  0  0
  -29.9898  -17.6819   17.9289 C   0  0  0  0  0  0  0  0  0  0  0  0
  -28.5822  -17.4956   17.3732 C   0  0  0  0  0  0  0  0  0  1  0  0
  -22.5236  -13.5887   22.4761 C   0  0  1  0  0  0  0  0  0  0  0  0
  -22.2132  -10.1525   20.9057 C   0  0  2  0  0  0  0  0  0  0  0  0
  -22.3653  -13.7784   24.0112 C   0  0  0  0  0  0  0  0  0  0  0  0
  -25.8302  -27.6112   20.6974 N   0  0  0  0  0  0  0  0  0  0  0  0
  -26.4933  -27.0752   19.6586 N   0  0  0  0  0  0  0  0  0  0  0  0
  -22.5226  -15.4439   20.8384 N   0  0  0  0  0  0  0  0  0  0  0  0
  -27.0260  -23.5174   20.9421 N   0  0  0  0  0  0  0  0  0  0  0  0
  -27.5959  -27.6244   17.6354 N   0  0  0  0  0  0  0  0  0  0  0  0
  -26.2189  -31.6336   19.1931 N   0  0  0  0  0  0  0  0  0  0  0  0
  -21.1329  -18.7207   21.0863 N   0  0  0  0  0  0  0  0  0  0  0  0
  -22.0735  -12.2908   21.9849 N   0  0  0  0  0  0  0  0  0  0  0  0
  -28.2573  -21.5480   21.3927 N   0  0  0  0  0  0  0  0  0  0  0  0
  -22.7462   -9.6526   19.6069 N   0  3  0  0  0  0  0  0  0  0  0  0
  -27.3155  -30.5796   17.4770 O   0  0  0  0  0  0  0  0  0  0  0  0
  -23.2095  -17.8559   21.6883 O   0  0  0  0  0  0  0  0  0  0  0  0
  -20.5378  -14.7033   21.8123 O   0  0  0  0  0  0  0  0  0  0  0  0
  -24.0966  -11.6595   21.0439 O   0  0  0  0  0  0  0  0  0  0  0  0
  -29.0527  -23.5894   22.0671 O   0  0  0  0  0  0  0  0  0  0  0  0
  -23.3931  -32.5411   23.9076 O   0  0  0  0  0  0  0  0  0  0  0  0
  -27.9368  -16.4156   18.0465 O   0  0  0  0  0  0  0  0  0  1  0  0
  -26.1452  -37.1589   25.1349 F   0  0  0  0  0  0  0  0  0  0  0  0
  -24.0831  -33.1294   26.5192 F   0  0  0  0  0  0  0  0  0  0  0  0
  1  2  1  0  0  0  0
  1  5  2  0  0  0  0
  2  6  2  0  0  0  0
  3  8  2  0  0  0  0
  3 17  1  0  0  0  0
  4  9  1  0  0  0  0
  4 17  2  0  0  0  0
  5 19  1  0  0  0  0
  6 21  1  0  0  0  0
  7 10  2  0  0  0  0
  7 20  1  0  0  0  0
  8 27  1  0  0  0  0
  9 27  2  0  0  0  0
 10 28  1  0  0  0  0
 11 12  2  0  0  0  0
 11 29  1  0  0  0  0
 12 30  1  0  0  0  0
 13 22  2  0  0  0  0
 13 25  1  0  0  0  0
 14 23  2  0  0  0  0
 14 26  1  0  0  0  0
 15 24  1  0  0  0  0
 15 28  2  0  0  0  0
 16 30  2  0  0  0  0
 16 31  1  0  0  0  0
 17 32  1  0  0  0  0
 18 32  1  0  0  0  0
 18 33  2  0  0  0  0
 18 34  1  0  0  0  0
 19 21  2  0  0  0  0
 19 39  1  0  0  0  0
 20 24  2  0  0  0  0
 20 40  1  0  0  0  0
 21 50  1  0  0  0  0
 22 23  1  0  0  0  0
 22 41  1  0  0  0  0
 23 51  1  0  0  0  0
 24 42  1  0  0  0  0
 25 26  2  0  0  0  0
 25 60  1  0  0  0  0
 26 61  1  0  0  0  0
 27 81  1  0  0  0  0
 28 82  1  0  0  0  0
 29 31  2  0  0  0  0
 29 81  1  0  0  0  0
 30 83  1  0  0  0  0
 31 84  1  0  0  0  0
 32 66  2  0  0  0  0
 33 67  1  0  0  0  0
 33 70  1  0  0  0  0
 34 71  1  0  0  0  0
 34 76  2  0  0  0  0
 35 52  1  0  0  0  0
 35 72  1  0  0  0  0
 35 77  2  0  0  0  0
 36 63  1  0  0  0  0
 36 68  1  0  0  0  0
 36 78  2  0  0  0  0
 37 64  1  0  0  0  0
 37 73  1  0  0  0  0
 37 79  2  0  0  0  0
 38 69  1  0  0  0  0
 38 74  1  0  0  0  0
 38 80  2  0  0  0  0
 39 43  1  0  0  0  0
 40 52  1  0  0  0  0
 41 44  1  0  0  0  0
 42 68  1  0  0  0  0
 43 46  1  0  0  0  0
 44 51  1  0  0  0  0
 45 47  1  0  0  0  0
 45 48  1  0  0  0  0
 46 50  1  0  0  0  0
 47 53  1  0  0  0  0
 48 69  1  0  0  0  0
 49 53  1  0  0  0  0
 49 69  1  0  0  0  0
 50 72  1  0  0  0  0
 51 74  1  0  0  0  0
 52 68  1  0  0  0  0
 53 67  1  0  0  0  0
 54 60  1  0  0  0  0
 55 64  1  0  0  0  0
 56 65  1  0  0  0  0
 57 65  1  0  0  0  0
 58 65  1  0  0  0  0
 59 75  1  0  0  0  0
 61 62  1  0  0  0  0
 62 82  1  0  0  0  0
 63 65  1  0  0  0  0
 63 73  1  0  0  0  0
 64 75  1  0  0  0  0
 66 67  1  0  0  0  0
M  CHG  1  75   1
M  ISO  4  38 100  62 101  74 100  82 101
M  END
> <Batch ID>
0156

> <Smiles>
CCc1cc2c(cc1C[101CH2:1][101O:1]c1ccc3c(c1)CN(C(=O)C(NC(=O)C(C)NC)C(C)(C)C)C(C(=O)NC1CCCc4ccccc41)C3)C([100NH:0][100C:0](=O)N1CCCC(n3nc(-c4ccc(Oc5ccc(F)cc5F)cc4)c(C(N)=O)c3N)C1)CC2

> <Shape>
0.212

> <Color>
0.048

> <Negative vol penalty>
0.000

$$$$

  -OEChem-04052321563D

 88 97  0     1  0  0  0  0  0999 V2000
  -18.1618  -28.5293   23.8357 C   0  0  0  0  0  0  0  0  0  0  0  0
  -19.5530  -28.5308   23.8308 C   0  0  0  0  0  0  0  0  0  0  0  0
  -24.4590  -14.0151   20.6112 C   0  0  0  0  0  0  0  0  0  0  0  0
  -26.8299  -13.6304   20.8718 C   0  0  0  0  0  0  0  0  0  0  0  0
  -17.4633  -27.7650   22.9020 C   0  0  0  0  0  0  0  0  0  0  0  0
  -20.2466  -27.7670   22.8926 C   0  0  0  0  0  0  0  0  0  0  0  0
  -24.0859  -30.3035   20.7783 C   0  0  0  0  0  0  0  0  0  0  0  0
  -24.2722  -12.6644   20.3171 C   0  0  0  0  0  0  0  0  0  0  0  0
  -26.6431  -12.2798   20.5777 C   0  0  0  0  0  0  0  0  0  0  0  0
  -25.2545  -30.4308   21.5280 C   0  0  0  0  0  0  0  0  0  0  0  0
  -23.1207   -9.2479   19.8521 C   0  0  0  0  0  0  0  0  0  0  0  0
  -22.0555   -8.5913   20.4683 C   0  0  0  0  0  0  0  0  0  0  0  0
  -26.2466  -28.6222   20.2773 C   0  0  0  0  0  0  0  0  0  0  0  0
  -27.2394  -26.0027   25.0034 C   0  0  0  0  0  0  0  0  0  0  0  0
  -23.0003   -9.0921   22.6348 C   0  0  0  0  0  0  0  0  0  0  0  0
  -25.7379  -14.4981   20.8885 C   0  0  0  0  0  0  0  0  0  0  0  0
  -25.8909  -16.5010   22.4609 C   0  0  0  0  0  0  0  0  0  0  0  0
  -18.1486  -26.9990   21.9458 C   0  0  0  0  0  0  0  0  0  0  0  0
  -23.9848  -29.3258   19.7782 C   0  0  0  0  0  0  0  0  0  0  0  0
  -19.5566  -26.9907   21.9461 C   0  0  0  0  0  0  0  0  0  0  0  0
  -25.0765  -28.4863   19.5146 C   0  0  0  0  0  0  0  0  0  0  0  0
  -29.1136  -25.8755   23.4841 C   0  0  0  0  0  0  0  0  0  0  0  0
  -27.3295  -27.3946   24.9981 C   0  0  0  0  0  0  0  0  0  0  0  0
  -29.2038  -27.2675   23.4788 C   0  0  0  0  0  0  0  0  0  0  0  0
  -28.3117  -28.0270   24.2358 C   0  0  0  0  0  0  0  0  0  0  0  0
  -25.3642  -11.7968   20.3004 C   0  0  0  0  0  0  0  0  0  0  0  0
  -26.3340  -29.5882   21.2795 C   0  0  0  0  0  0  0  0  0  0  0  0
  -24.1258   -9.8265   20.6271 C   0  0  0  0  0  0  0  0  0  0  0  0
  -28.1315  -25.2431   24.2464 C   0  0  0  0  0  0  0  0  0  0  0  0
  -21.9953   -8.5134   21.8597 C   0  0  0  0  0  0  0  0  0  0  0  0
  -24.0656   -9.7487   22.0185 C   0  0  0  0  0  0  0  0  0  0  0  0
  -25.9316  -15.8933   21.1917 C   0  0  0  0  0  0  0  0  0  0  0  0
  -26.1345  -17.8298   22.2133 C   0  0  0  0  0  0  0  0  0  0  0  0
  -25.6541  -15.9165   23.7486 C   0  0  0  0  0  0  0  0  0  0  0  0
  -22.1240  -26.7943   19.2960 C   0  0  0  0  0  0  0  0  0  0  0  0
  -23.6694  -26.6887   16.4459 C   0  0  0  0  0  0  0  0  0  0  0  0
  -26.4373  -27.4947   14.6194 C   0  0  0  0  0  0  0  0  0  0  0  0
  -29.0138  -21.8502   19.6264 C   0  0  0  0  0  0  0  0  0  0  0  0
  -17.3505  -26.1518   20.9867 C   0  0  0  0  0  0  0  0  0  0  0  0
  -22.7270  -29.2191   18.9603 C   0  0  0  0  0  0  0  0  0  0  0  0
  -25.0260  -27.4340   18.4383 C   0  0  0  0  0  0  0  0  0  0  0  0
  -18.1589  -25.6638   19.7873 C   0  0  0  0  0  0  0  0  0  0  0  0
  -26.2916  -20.3918   17.8546 C   0  0  0  0  0  0  0  0  0  0  0  0
  -30.9358  -24.0630   23.4919 C   0  0  0  0  0  0  0  0  0  0  0  0
  -19.5060  -25.1104   20.2408 C   0  0  0  0  0  0  0  0  0  0  0  0
  -25.9564  -19.1390   18.6658 C   0  0  0  0  0  0  0  0  0  0  0  0
  -30.5824  -22.6692   22.9799 C   0  0  0  0  0  0  0  0  0  0  0  0
  -29.3631  -24.1857   21.6052 C   0  0  0  0  0  0  0  0  0  0  0  0
  -27.7945  -20.6612   17.8275 C   0  0  0  0  0  0  0  0  0  0  0  0
  -28.1008  -19.4736   19.9652 C   0  0  0  0  0  0  0  0  0  0  0  0
  -30.0772  -25.0453   22.6661 C   0  0  1  0  0  0  0  0  0  0  0  0
  -20.3445  -26.1946   20.9284 C   0  0  1  0  0  0  0  0  0  0  0  0
  -22.5491  -27.8488   18.3137 C   0  0  1  0  0  0  0  0  0  0  0  0
  -26.5919  -19.1923   20.0681 C   0  0  2  0  0  0  0  0  0  0  0  0
  -30.2016  -22.9155   21.5273 C   0  0  2  0  0  0  0  0  0  0  0  0
  -26.3626  -28.1841   25.8185 C   0  0  0  0  0  0  0  0  0  0  0  0
  -30.2573  -27.9452   22.6607 C   0  0  0  0  0  0  0  0  0  0  0  0
  -27.4279  -27.2406   12.3278 C   0  0  0  0  0  0  0  0  0  0  0  0
  -24.3555  -23.7813   17.0675 C   0  0  0  0  0  0  0  0  0  0  0  0
  -26.0912  -23.8786   15.2658 C   0  0  0  0  0  0  0  0  0  0  0  0
  -23.6853  -24.2111   14.6967 C   0  0  0  0  0  0  0  0  0  0  0  0
  -26.5195  -30.4237   14.2036 C   0  0  0  0  0  0  0  0  0  0  0  0
  -26.9945  -23.3241   25.0713 C   0  0  0  0  0  0  0  0  0  0  0  0
  -28.4062  -29.5334   24.2317 C   0  0  0  0  0  0  0  0  0  0  0  0
  -27.3415  -30.1787   23.3512 C   0  0  0  0  0  0  0  0  0  1  0  0
  -24.9287  -26.0303   15.9364 C   0  0  1  0  0  0  0  0  0  0  0  0
  -26.5899  -28.1187   13.2440 C   0  0  2  0  0  0  0  0  0  0  0  0
  -24.7657  -24.4938   15.7633 C   0  0  0  0  0  0  0  0  0  0  0  0
  -26.1813  -16.7646   20.2106 N   0  0  0  0  0  0  0  0  0  0  0  0
  -26.2996  -17.9333   20.8634 N   0  0  0  0  0  0  0  0  0  0  0  0
  -23.7720  -27.3646   17.6700 N   0  0  0  0  0  0  0  0  0  0  0  0
  -28.3349  -20.7011   19.1885 N   0  0  0  0  0  0  0  0  0  0  0  0
  -26.2214  -18.9082   23.0208 N   0  0  0  0  0  0  0  0  0  0  0  0
  -25.4213  -14.5365   23.8233 N   0  0  0  0  0  0  0  0  0  0  0  0
  -20.9367  -27.0755   19.9446 N   0  0  0  0  0  0  0  0  0  0  0  0
  -25.2904  -26.7346   14.7110 N   0  0  0  0  0  0  0  0  0  0  0  0
  -29.4886  -21.8076   20.9316 N   0  0  0  0  0  0  0  0  0  0  0  0
  -27.2491  -29.4511   13.3500 N   0  3  0  0  0  0  0  0  0  0  0  0
  -25.6329  -16.6005   24.7999 O   0  0  0  0  0  0  0  0  0  0  0  0
  -22.8208  -25.7985   19.4528 O   0  0  0  0  0  0  0  0  0  0  0  0
  -22.6346  -26.6124   15.7788 O   0  0  0  0  0  0  0  0  0  0  0  0
  -27.2556  -27.6615   15.5211 O   0  0  0  0  0  0  0  0  0  0  0  0
  -29.1794  -22.8428   18.9093 O   0  0  0  0  0  0  0  0  0  0  0  0
  -25.1823  -10.4787   20.0138 O   0  0  0  0  0  0  0  0  0  0  0  0
  -28.0280  -23.8847   24.2641 O   0  0  0  0  0  0  0  0  0  0  0  0
  -27.4756  -29.7098   22.0102 O   0  0  0  0  0  0  0  0  0  1  0  0
  -20.9715   -7.8842   22.4515 F   0  0  0  0  0  0  0  0  0  0  0  0
  -25.0275  -10.3037   22.7684 F   0  0  0  0  0  0  0  0  0  0  0  0
  1  2  1  0  0  0  0
  1  5  2  0  0  0  0
  2  6  2  0  0  0  0
  3  8  2  0  0  0  0
  3 16  1  0  0  0  0
  4  9  1  0  0  0  0
  4 16  2  0  0  0  0
  5 18  1  0  0  0  0
  6 20  1  0  0  0  0
  7 10  2  0  0  0  0
  7 19  1  0  0  0  0
  8 26  1  0  0  0  0
  9 26  2  0  0  0  0
 10 27  1  0  0  0  0
 11 12  2  0  0  0  0
 11 28  1  0  0  0  0
 12 30  1  0  0  0  0
 13 21  1  0  0  0  0
 13 27  2  0  0  0  0
 14 23  2  0  0  0  0
 14 29  1  0  0  0  0
 15 30  2  0  0  0  0
 15 31  1  0  0  0  0
 16 32  1  0  0  0  0
 17 32  1  0  0  0  0
 17 33  2  0  0  0  0
 17 34  1  0  0  0  0
 18 20  2  0  0  0  0
 18 39  1  0  0  0  0
 19 21  2  0  0  0  0
 19 40  1  0  0  0  0
 20 52  1  0  0  0  0
 21 41  1  0  0  0  0
 22 24  1  0  0  0  0
 22 29  2  0  0  0  0
 22 51  1  0  0  0  0
 23 25  1  0  0  0  0
 23 56  1  0  0  0  0
 24 25  2  0  0  0  0
 24 57  1  0  0  0  0
 25 64  1  0  0  0  0
 26 84  1  0  0  0  0
 27 86  1  0  0  0  0
 28 31  2  0  0  0  0
 28 84  1  0  0  0  0
 29 85  1  0  0  0  0
 30 87  1  0  0  0  0
 31 88  1  0  0  0  0
 32 69  2  0  0  0  0
 33 70  1  0  0  0  0
 33 73  1  0  0  0  0
 34 74  1  0  0  0  0
 34 79  2  0  0  0  0
 35 53  1  0  0  0  0
 35 75  1  0  0  0  0
 35 80  2  0  0  0  0
 36 66  1  0  0  0  0
 36 71  1  0  0  0  0
 36 81  2  0  0  0  0
 37 67  1  0  0  0  0
 37 76  1  0  0  0  0
 37 82  2  0  0  0  0
 38 72  1  0  0  0  0
 38 77  1  0  0  0  0
 38 83  2  0  0  0  0
 39 42  1  0  0  0  0
 40 53  1  0  0  0  0
 41 71  1  0  0  0  0
 42 45  1  0  0  0  0
 43 46  1  0  0  0  0
 43 49  1  0  0  0  0
 44 47  1  0  0  0  0
 44 51  1  0  0  0  0
 45 52  1  0  0  0  0
 46 54  1  0  0  0  0
 47 55  1  0  0  0  0
 48 51  1  0  0  0  0
 48 55  1  0  0  0  0
 49 72  1  0  0  0  0
 50 54  1  0  0  0  0
 50 72  1  0  0  0  0
 52 75  1  0  0  0  0
 53 71  1  0  0  0  0
 54 70  1  0  0  0  0
 55 77  1  0  0  0  0
 58 67  1  0  0  0  0
 59 68  1  0  0  0  0
 60 68  1  0  0  0  0
 61 68  1  0  0  0  0
 62 78  1  0  0  0  0
 63 85  1  0  0  0  0
 64 65  1  0  0  0  0
 65 86  1  0  0  0  0
 66 68  1  0  0  0  0
 66 76  1  0  0  0  0
 67 78  1  0  0  0  0
 69 70  1  0  0  0  0
M  CHG  1  78   1
M  ISO  4  38 100  65 101  77 100  86 101
M  END
> <Batch ID>
0156

> <Smiles>
CNC(C)C(=O)NC(C(=O)N1Cc2cc([101O:1][101CH2:1]Cc3c(C)cc(OC)c(C4CCC([100NH:0][100C:0](=O)N5CCCC(n6nc(-c7ccc(Oc8ccc(F)cc8F)cc7)c(C(N)=O)c6N)C5)C4)c3C)ccc2CC1C(=O)NC1CCCc2ccccc21)C(C)(C)C

> <Shape>
0.227

> <Color>
0.077

> <Negative vol penalty>
0.000

$$$$

  -OEChem-04052321563D

 89 99  0     1  0  0  0  0  0999 V2000
  -21.5829  -12.3088   20.5651 C   0  0  0  0  0  0  0  0  0  0  0  0
  -21.6284  -13.6341   20.9857 C   0  0  0  0  0  0  0  0  0  0  0  0
  -24.3631  -30.2345   20.8126 C   0  0  0  0  0  0  0  0  0  0  0  0
  -24.1931  -29.2045   22.9914 C   0  0  0  0  0  0  0  0  0  0  0  0
  -22.7675  -11.6015   20.3637 C   0  0  0  0  0  0  0  0  0  0  0  0
  -22.8585  -14.2526   21.2062 C   0  0  0  0  0  0  0  0  0  0  0  0
  -23.0714  -18.9122   19.2344 C   0  0  0  0  0  0  0  0  0  0  0  0
  -22.9754  -30.3680   20.7674 C   0  0  0  0  0  0  0  0  0  0  0  0
  -22.8054  -29.3380   22.9463 C   0  0  0  0  0  0  0  0  0  0  0  0
  -22.4393  -19.9329   19.9431 C   0  0  0  0  0  0  0  0  0  0  0  0
  -20.1958  -27.7508   21.4965 C   0  0  0  0  0  0  0  0  0  0  0  0
  -19.4263  -26.6542   21.8851 C   0  0  0  0  0  0  0  0  0  0  0  0
  -24.5693  -20.6177   20.8449 C   0  0  0  0  0  0  0  0  0  0  0  0
  -18.4216  -27.9803   23.6371 C   0  0  0  0  0  0  0  0  0  0  0  0
  -22.7674  -23.5717   23.8595 C   0  0  0  0  0  0  0  0  0  0  0  0
  -24.9720  -29.6527   21.9246 C   0  0  0  0  0  0  0  0  0  0  0  0
  -27.3329  -30.4417   22.4828 C   0  0  0  0  0  0  0  0  0  0  0  0
  -24.0129  -12.2146   20.5725 C   0  0  0  0  0  0  0  0  0  0  0  0
  -24.4581  -18.7294   19.3344 C   0  0  0  0  0  0  0  0  0  0  0  0
  -24.0608  -13.5525   21.0087 C   0  0  0  0  0  0  0  0  0  0  0  0
  -25.2170  -19.5955   20.1345 C   0  0  0  0  0  0  0  0  0  0  0  0
  -22.2203  -23.0711   25.9604 C   0  0  0  0  0  0  0  0  0  0  0  0
  -23.2215  -23.6459   25.1690 C   0  0  0  0  0  0  0  0  0  0  0  0
  -22.1966  -29.9197   21.8342 C   0  0  0  0  0  0  0  0  0  0  0  0
  -23.1878  -20.7841   20.7507 C   0  0  0  0  0  0  0  0  0  0  0  0
  -20.0783  -28.9621   22.1781 C   0  0  0  0  0  0  0  0  0  0  0  0
  -18.5392  -26.7690   22.9554 C   0  0  0  0  0  0  0  0  0  0  0  0
  -19.1912  -29.0768   23.2484 C   0  0  0  0  0  0  0  0  0  0  0  0
  -26.4054  -29.5141   21.9717 C   0  0  0  0  0  0  0  0  0  0  0  0
  -21.2085  -22.6707   25.1326 C   0  0  0  0  0  0  0  0  0  0  0  0
  -28.5551  -29.8435   22.2962 C   0  0  0  0  0  0  0  0  0  0  0  0
  -27.1095  -31.7289   23.0734 C   0  0  0  0  0  0  0  0  0  0  0  0
  -26.3434  -16.3848   20.3601 C   0  0  0  0  0  0  0  0  0  0  0  0
  -28.6960  -18.3010   19.2130 C   0  0  0  0  0  0  0  0  0  0  0  0
  -29.7185  -21.4463   18.3713 C   0  0  0  0  0  0  0  0  0  0  0  0
  -27.2004  -24.6358   22.1252 C   0  0  0  0  0  0  0  0  0  0  0  0
  -25.2655  -11.3953   20.3872 C   0  0  0  0  0  0  0  0  0  0  0  0
  -25.1285  -17.6403   18.5426 C   0  0  0  0  0  0  0  0  0  0  0  0
  -21.9139  -22.7726   27.3723 C   0  0  0  0  0  0  0  0  0  0  0  0
  -26.7112  -19.4542   20.2600 C   0  0  0  0  0  0  0  0  0  0  0  0
  -26.5343  -12.2376   20.2822 C   0  0  0  0  0  0  0  0  0  0  0  0
  -20.6872  -21.7976   27.2410 C   0  0  0  0  0  0  0  0  0  0  0  0
  -28.2402  -26.4869   19.2514 C   0  0  0  0  0  0  0  0  0  0  0  0
  -28.5119  -22.7334   24.9199 C   0  0  0  0  0  0  0  0  0  0  0  0
  -26.5606  -13.3017   21.3748 C   0  0  0  0  0  0  0  0  0  0  0  0
  -29.3404  -27.4121   19.7596 C   0  0  0  0  0  0  0  0  0  0  0  0
  -27.1504  -23.0954   25.4964 C   0  0  0  0  0  0  0  0  0  0  0  0
  -28.2912  -25.1479   19.9707 C   0  0  0  0  0  0  0  0  0  0  0  0
  -28.7878  -23.8879   23.9691 C   0  0  0  0  0  0  0  0  0  0  0  0
  -29.1868  -26.2287   22.0240 C   0  0  0  0  0  0  0  0  0  0  0  0
  -25.3763  -14.2657   21.2347 C   0  0  1  0  0  0  0  0  0  0  0  0
  -26.4774  -17.2245   19.1214 C   0  0  1  0  0  0  0  0  0  0  0  0
  -29.3084  -27.5824   21.2868 C   0  0  2  0  0  0  0  0  0  0  0  0
  -26.4118  -23.7010   24.2997 C   0  0  1  0  0  0  0  0  0  0  0  0
  -20.0486  -22.0340   25.8083 C   0  0  0  0  0  0  0  0  0  0  0  0
  -19.6349  -20.7160   25.1596 C   0  0  0  0  0  0  0  0  0  0  0  0
  -18.8639  -22.9991   25.8948 C   0  0  0  0  0  0  0  0  0  0  0  0
  -31.7068  -22.7035   17.4978 C   0  0  0  0  0  0  0  0  0  0  0  0
  -30.0236  -18.1004   21.9529 C   0  0  0  0  0  0  0  0  0  0  0  0
  -31.4326  -20.0763   21.3376 C   0  0  0  0  0  0  0  0  0  0  0  0
  -31.6012  -17.9666   20.0170 C   0  0  0  0  0  0  0  0  0  0  0  0
  -28.2393  -22.3496   15.9724 C   0  0  0  0  0  0  0  0  0  0  0  0
  -25.4083  -24.7637   24.7289 C   0  0  0  0  0  0  0  0  0  0  0  0
  -20.7211  -22.7354   22.6735 C   0  0  0  0  0  0  0  0  0  0  0  0
  -21.2262  -21.5531   21.8537 C   0  0  0  0  0  0  0  0  0  1  0  0
  -29.5415  -19.4141   19.7832 C   0  0  1  0  0  0  0  0  0  0  0  0
  -30.4189  -21.9807   17.1351 C   0  0  2  0  0  0  0  0  0  0  0  0
  -30.6213  -18.8911   20.7720 C   0  0  0  0  0  0  0  0  0  0  0  0
  -26.9885  -28.4106   21.4960 N   0  0  0  0  0  0  0  0  0  0  0  0
  -21.5230  -22.9699   23.8500 N   0  0  0  0  0  0  0  0  0  0  0  0
  -28.2956  -28.6409   21.7074 N   0  0  0  0  0  0  0  0  0  0  0  0
  -27.3196  -18.3702   19.4711 N   0  0  0  0  0  0  0  0  0  0  0  0
  -28.2147  -25.3039   21.4234 N   0  0  0  0  0  0  0  0  0  0  0  0
  -27.4703  -24.2399   23.4372 N   0  0  0  0  0  0  0  0  0  0  0  0
  -29.8158  -30.2341   22.5801 N   0  0  0  0  0  0  0  0  0  0  0  0
  -25.7916  -32.1916   23.1885 N   0  0  0  0  0  0  0  0  0  0  0  0
  -24.4339  -24.1899   25.5967 N   0  0  0  0  0  0  0  0  0  0  0  0
  -25.6238  -15.2197   20.1750 N   0  0  0  0  0  0  0  0  0  0  0  0
  -30.0808  -20.1434   18.6405 N   0  0  0  0  0  0  0  0  0  0  0  0
  -29.5330  -22.9345   16.4095 N   0  3  0  0  0  0  0  0  0  0  0  0
  -28.0520  -32.4545   23.4718 O   0  0  0  0  0  0  0  0  0  0  0  0
  -26.8563  -16.7649   21.4061 O   0  0  0  0  0  0  0  0  0  0  0  0
  -29.2359  -17.4070   18.5565 O   0  0  0  0  0  0  0  0  0  0  0  0
  -28.9317  -22.1187   19.0342 O   0  0  0  0  0  0  0  0  0  0  0  0
  -26.1054  -24.3944   21.6000 O   0  0  0  0  0  0  0  0  0  0  0  0
  -20.8424  -30.0500   21.7906 O   0  0  0  0  0  0  0  0  0  0  0  0
  -22.5690  -21.7878   21.4489 O   0  0  0  0  0  0  0  0  0  1  0  0
  -17.7992  -25.7164   23.3276 F   0  0  0  0  0  0  0  0  0  0  0  0
  -19.0731  -30.2383   23.9063 F   0  0  0  0  0  0  0  0  0  0  0  0
  1  2  1  0  0  0  0
  1  5  2  0  0  0  0
  2  6  2  0  0  0  0
  3  8  2  0  0  0  0
  3 16  1  0  0  0  0
  4  9  1  0  0  0  0
  4 16  2  0  0  0  0
  5 18  1  0  0  0  0
  6 20  1  0  0  0  0
  7 10  2  0  0  0  0
  7 19  1  0  0  0  0
  8 24  1  0  0  0  0
  9 24  2  0  0  0  0
 10 25  1  0  0  0  0
 11 12  2  0  0  0  0
 11 26  1  0  0  0  0
 12 27  1  0  0  0  0
 13 21  1  0  0  0  0
 13 25  2  0  0  0  0
 14 27  2  0  0  0  0
 14 28  1  0  0  0  0
 15 23  2  0  0  0  0
 15 70  1  0  0  0  0
 16 29  1  0  0  0  0
 17 29  1  0  0  0  0
 17 31  2  0  0  0  0
 17 32  1  0  0  0  0
 18 20  2  0  0  0  0
 18 37  1  0  0  0  0
 19 21  2  0  0  0  0
 19 38  1  0  0  0  0
 20 51  1  0  0  0  0
 21 40  1  0  0  0  0
 22 23  1  0  0  0  0
 22 30  2  0  0  0  0
 22 39  1  0  0  0  0
 23 77  1  0  0  0  0
 24 86  1  0  0  0  0
 25 87  1  0  0  0  0
 26 28  2  0  0  0  0
 26 86  1  0  0  0  0
 27 88  1  0  0  0  0
 28 89  1  0  0  0  0
 29 69  2  0  0  0  0
 30 55  1  0  0  0  0
 30 70  1  0  0  0  0
 31 71  1  0  0  0  0
 31 75  1  0  0  0  0
 32 76  1  0  0  0  0
 32 81  2  0  0  0  0
 33 52  1  0  0  0  0
 33 78  1  0  0  0  0
 33 82  2  0  0  0  0
 34 66  1  0  0  0  0
 34 72  1  0  0  0  0
 34 83  2  0  0  0  0
 35 67  1  0  0  0  0
 35 79  1  0  0  0  0
 35 84  2  0  0  0  0
 36 73  1  0  0  0  0
 36 74  1  0  0  0  0
 36 85  2  0  0  0  0
 37 41  1  0  0  0  0
 38 52  1  0  0  0  0
 39 42  1  0  0  0  0
 40 72  1  0  0  0  0
 41 45  1  0  0  0  0
 42 55  1  0  0  0  0
 43 46  1  0  0  0  0
 43 48  1  0  0  0  0
 44 47  1  0  0  0  0
 44 49  1  0  0  0  0
 45 51  1  0  0  0  0
 46 53  1  0  0  0  0
 47 54  1  0  0  0  0
 48 73  1  0  0  0  0
 49 74  1  0  0  0  0
 50 53  1  0  0  0  0
 50 73  1  0  0  0  0
 51 78  1  0  0  0  0
 52 72  1  0  0  0  0
 53 71  1  0  0  0  0
 54 63  1  0  0  0  0
 54 74  1  0  0  0  0
 55 56  1  0  0  0  0
 55 57  1  0  0  0  0
 58 67  1  0  0  0  0
 59 68  1  0  0  0  0
 60 68  1  0  0  0  0
 61 68  1  0  0  0  0
 62 80  1  0  0  0  0
 63 77  1  0  0  0  0
 64 65  1  0  0  0  0
 64 70  1  0  0  0  0
 65 87  1  0  0  0  0
 66 68  1  0  0  0  0
 66 79  1  0  0  0  0
 67 80  1  0  0  0  0
 69 71  1  0  0  0  0
M  CHG  1  80   1
M  ISO  4  36 100  65 101  74 100  87 101
M  END
> <Batch ID>
0156

> <Smiles>
CNC(C)C(=O)NC(C(=O)N1Cc2cc([101O:1][101CH2:1]Cn3cc(NCC4CCC[100N:0]4[100C:0](=O)N4CCCC(n5nc(-c6ccc(Oc7ccc(F)cc7F)cc6)c(C(N)=O)c5N)C4)c4c3C(C)(C)CC4)ccc2CC1C(=O)NC1CCCc2ccccc21)C(C)(C)C

> <Shape>
0.247

> <Color>
0.064

> <Negative vol penalty>
0.000

$$$$

  -OEChem-04052321563D

 85 94  0     1  0  0  0  0  0999 V2000
  -26.3647  -36.5888   23.9068 C   0  0  0  0  0  0  0  0  0  0  0  0
  -27.0508  -35.4827   23.4159 C   0  0  0  0  0  0  0  0  0  0  0  0
  -23.2264  -10.1688   22.6060 C   0  0  0  0  0  0  0  0  0  0  0  0
  -23.6432  -10.0705   20.2282 C   0  0  0  0  0  0  0  0  0  0  0  0
  -25.1297  -36.4208   24.5316 C   0  0  0  0  0  0  0  0  0  0  0  0
  -26.5027  -34.2076   23.5504 C   0  0  0  0  0  0  0  0  0  0  0  0
  -26.9865  -29.5564   19.5959 C   0  0  0  0  0  0  0  0  0  0  0  0
  -22.5334   -8.9604   22.5345 C   0  0  0  0  0  0  0  0  0  0  0  0
  -22.9503   -8.8620   20.1567 C   0  0  0  0  0  0  0  0  0  0  0  0
  -27.8228  -28.4415   19.5569 C   0  0  0  0  0  0  0  0  0  0  0  0
  -23.2804   -5.6680   22.3464 C   0  0  0  0  0  0  0  0  0  0  0  0
  -23.5521   -4.7065   23.3196 C   0  0  0  0  0  0  0  0  0  0  0  0
  -27.8353  -21.0112   20.0975 C   0  0  0  0  0  0  0  0  0  0  0  0
  -26.1038  -27.1225   20.6174 C   0  0  0  0  0  0  0  0  0  0  0  0
  -29.8530  -19.5777   21.3844 C   0  0  0  0  0  0  0  0  0  0  0  0
  -21.2386   -4.7559   24.0141 C   0  0  0  0  0  0  0  0  0  0  0  0
  -23.7812  -10.7239   21.4528 C   0  0  0  0  0  0  0  0  0  0  0  0
  -25.8733  -12.1510   21.7597 C   0  0  0  0  0  0  0  0  0  0  0  0
  -24.5616  -35.1440   24.6653 C   0  0  0  0  0  0  0  0  0  0  0  0
  -25.7045  -29.4652   20.1568 C   0  0  0  0  0  0  0  0  0  0  0  0
  -25.2595  -34.0221   24.1788 C   0  0  0  0  0  0  0  0  0  0  0  0
  -28.5484  -21.5968   21.1435 C   0  0  0  0  0  0  0  0  0  0  0  0
  -25.2523  -28.2370   20.6600 C   0  0  0  0  0  0  0  0  0  0  0  0
  -28.1310  -19.7088   19.6949 C   0  0  0  0  0  0  0  0  0  0  0  0
  -29.5573  -20.8801   21.7869 C   0  0  0  0  0  0  0  0  0  0  0  0
  -22.3954   -8.3070   21.3099 C   0  0  0  0  0  0  0  0  0  0  0  0
  -27.3826  -27.2250   20.0703 C   0  0  0  0  0  0  0  0  0  0  0  0
  -21.9878   -6.1736   22.2070 C   0  0  0  0  0  0  0  0  0  0  0  0
  -29.1399  -18.9921   20.3384 C   0  0  0  0  0  0  0  0  0  0  0  0
  -22.5312   -4.2504   24.1535 C   0  0  0  0  0  0  0  0  0  0  0  0
  -20.9669   -5.7175   23.0409 C   0  0  0  0  0  0  0  0  0  0  0  0
  -24.4966  -11.9725   21.5259 C   0  0  0  0  0  0  0  0  0  0  0  0
  -26.0523  -13.5126   21.7339 C   0  0  0  0  0  0  0  0  0  0  0  0
  -26.8987  -11.1735   21.9803 C   0  0  0  0  0  0  0  0  0  0  0  0
  -24.2294  -30.8362   22.6161 C   0  0  0  0  0  0  0  0  0  0  0  0
  -21.6503  -29.2510   21.4510 C   0  0  0  0  0  0  0  0  0  0  0  0
  -20.4399  -26.6423   19.6134 C   0  0  0  0  0  0  0  0  0  0  0  0
  -25.1021  -18.5031   19.4237 C   0  0  0  0  0  0  0  0  0  0  0  0
  -23.2462  -35.0070   25.3902 C   0  0  0  0  0  0  0  0  0  0  0  0
  -24.8047  -30.6704   20.1671 C   0  0  0  0  0  0  0  0  0  0  0  0
  -23.8772  -28.0816   21.2544 C   0  0  0  0  0  0  0  0  0  0  0  0
  -22.5604  -33.6629   25.1589 C   0  0  0  0  0  0  0  0  0  0  0  0
  -22.6741  -17.2774   21.7214 C   0  0  0  0  0  0  0  0  0  0  0  0
  -23.5583  -32.5202   25.3172 C   0  0  0  0  0  0  0  0  0  0  0  0
  -23.0416  -15.8021   21.8895 C   0  0  0  0  0  0  0  0  0  0  0  0
  -29.2281  -24.2097   21.3140 C   0  0  0  0  0  0  0  0  0  0  0  0
  -27.2118  -23.9093   20.7134 C   0  0  0  0  0  0  0  0  0  0  0  0
  -22.9045  -17.7569   20.2900 C   0  0  0  0  0  0  0  0  0  0  0  0
  -24.6267  -16.0307   19.9315 C   0  0  0  0  0  0  0  0  0  0  0  0
  -28.1964  -23.0771   21.5842 C   0  0  0  0  0  0  0  0  0  0  0  0
  -24.6862  -32.6255   24.2836 C   0  0  1  0  0  0  0  0  0  0  0  0
  -23.7108  -30.5903   21.2275 C   0  0  1  0  0  0  0  0  0  0  0  0
  -24.4641  -15.5161   21.3720 C   0  0  2  0  0  0  0  0  0  0  0  0
  -28.0355  -25.1631   21.0797 C   0  0  0  0  0  0  0  0  0  1  0  0
  -30.3312  -21.4880   22.9097 C   0  0  0  0  0  0  0  0  0  0  0  0
  -18.2877  -25.5854   18.8730 C   0  0  0  0  0  0  0  0  0  0  0  0
  -21.2756  -28.0671   24.2381 C   0  0  0  0  0  0  0  0  0  0  0  0
  -19.7616  -26.3478   23.2282 C   0  0  0  0  0  0  0  0  0  0  0  0
  -19.1568  -28.7649   23.1076 C   0  0  0  0  0  0  0  0  0  0  0  0
  -21.0745  -27.0776   16.7557 C   0  0  0  0  0  0  0  0  0  0  0  0
  -30.4855  -17.0598   20.6719 C   0  0  0  0  0  0  0  0  0  0  0  0
  -27.3569  -19.0973   18.5741 C   0  0  0  0  0  0  0  0  0  0  0  0
  -21.0441  -27.8864   21.6730 C   0  0  1  0  0  0  0  0  0  0  0  0
  -19.3831  -26.5814   18.5253 C   0  0  2  0  0  0  0  0  0  0  0  0
  -20.3362  -27.7696   23.0523 C   0  0  0  0  0  0  0  0  0  0  0  0
  -23.8470  -13.1283   21.3637 N   0  0  0  0  0  0  0  0  0  0  0  0
  -24.8198  -14.0460   21.4959 N   0  0  0  0  0  0  0  0  0  0  0  0
  -23.0369  -29.2905   21.2473 N   0  0  0  0  0  0  0  0  0  0  0  0
  -24.2726  -17.4571   19.8606 N   0  0  0  0  0  0  0  0  0  0  0  0
  -27.1420  -14.2935   21.8919 N   0  0  0  0  0  0  0  0  0  0  0  0
  -26.5421   -9.8181   21.9746 N   0  0  0  0  0  0  0  0  0  0  0  0
  -24.2299  -32.1668   22.9891 N   0  0  0  0  0  0  0  0  0  0  0  0
  -20.1718  -27.6364   20.5306 N   0  0  0  0  0  0  0  0  0  0  0  0
  -26.3855  -18.1332   19.0406 N   0  0  0  0  0  0  0  0  0  0  0  0
  -19.9963  -26.1724   17.2301 N   0  3  0  0  0  0  0  0  0  0  0  0
  -28.0929  -11.4932   22.1931 O   0  0  0  0  0  0  0  0  0  0  0  0
  -24.6002  -29.8888   23.2991 O   0  0  0  0  0  0  0  0  0  0  0  0
  -20.9193  -30.2447   21.4509 O   0  0  0  0  0  0  0  0  0  0  0  0
  -21.4045  -25.8816   19.6485 O   0  0  0  0  0  0  0  0  0  0  0  0
  -24.7284  -19.6803   19.3835 O   0  0  0  0  0  0  0  0  0  0  0  0
  -21.7196   -7.1276   21.2398 O   0  0  0  0  0  0  0  0  0  0  0  0
  -28.1971  -26.1355   20.0341 O   0  0  0  0  0  0  0  0  0  1  0  0
  -29.4399  -17.7181   19.9597 O   0  0  0  0  0  0  0  0  0  0  0  0
  -22.7919   -3.3258   25.0870 F   0  0  0  0  0  0  0  0  0  0  0  0
  -19.7229   -6.1985   22.9110 F   0  0  0  0  0  0  0  0  0  0  0  0
  1  2  1  0  0  0  0
  1  5  2  0  0  0  0
  2  6  2  0  0  0  0
  3  8  2  0  0  0  0
  3 17  1  0  0  0  0
  4  9  1  0  0  0  0
  4 17  2  0  0  0  0
  5 19  1  0  0  0  0
  6 21  1  0  0  0  0
  7 10  2  0  0  0  0
  7 20  1  0  0  0  0
  8 26  1  0  0  0  0
  9 26  2  0  0  0  0
 10 27  1  0  0  0  0
 11 12  2  0  0  0  0
 11 28  1  0  0  0  0
 12 30  1  0  0  0  0
 13 22  1  0  0  0  0
 13 24  2  0  0  0  0
 14 23  1  0  0  0  0
 14 27  2  0  0  0  0
 15 25  1  0  0  0  0
 15 29  2  0  0  0  0
 16 30  2  0  0  0  0
 16 31  1  0  0  0  0
 17 32  1  0  0  0  0
 18 32  1  0  0  0  0
 18 33  2  0  0  0  0
 18 34  1  0  0  0  0
 19 21  2  0  0  0  0
 19 39  1  0  0  0  0
 20 23  2  0  0  0  0
 20 40  1  0  0  0  0
 21 51  1  0  0  0  0
 22 25  2  0  0  0  0
 22 50  1  0  0  0  0
 23 41  1  0  0  0  0
 24 29  1  0  0  0  0
 24 62  1  0  0  0  0
 25 55  1  0  0  0  0
 26 81  1  0  0  0  0
 27 82  1  0  0  0  0
 28 31  2  0  0  0  0
 28 81  1  0  0  0  0
 29 83  1  0  0  0  0
 30 84  1  0  0  0  0
 31 85  1  0  0  0  0
 32 66  2  0  0  0  0
 33 67  1  0  0  0  0
 33 70  1  0  0  0  0
 34 71  1  0  0  0  0
 34 76  2  0  0  0  0
 35 52  1  0  0  0  0
 35 72  1  0  0  0  0
 35 77  2  0  0  0  0
 36 63  1  0  0  0  0
 36 68  1  0  0  0  0
 36 78  2  0  0  0  0
 37 64  1  0  0  0  0
 37 73  1  0  0  0  0
 37 79  2  0  0  0  0
 38 69  1  0  0  0  0
 38 74  1  0  0  0  0
 38 80  2  0  0  0  0
 39 42  1  0  0  0  0
 40 52  1  0  0  0  0
 41 68  1  0  0  0  0
 42 44  1  0  0  0  0
 43 45  1  0  0  0  0
 43 48  1  0  0  0  0
 44 51  1  0  0  0  0
 45 53  1  0  0  0  0
 46 50  1  0  0  0  0
 46 54  1  0  0  0  0
 47 50  1  0  0  0  0
 47 54  1  0  0  0  0
 48 69  1  0  0  0  0
 49 53  1  0  0  0  0
 49 69  1  0  0  0  0
 51 72  1  0  0  0  0
 52 68  1  0  0  0  0
 53 67  1  0  0  0  0
 54 82  1  0  0  0  0
 56 64  1  0  0  0  0
 57 65  1  0  0  0  0
 58 65  1  0  0  0  0
 59 65  1  0  0  0  0
 60 75  1  0  0  0  0
 61 83  1  0  0  0  0
 62 74  1  0  0  0  0
 63 65  1  0  0  0  0
 63 73  1  0  0  0  0
 64 75  1  0  0  0  0
 66 67  1  0  0  0  0
M  CHG  1  75   1
M  ISO  4  38 100  54 101  74 100  82 101
M  END
> <Batch ID>
0156

> <Smiles>
CNC(C)C(=O)NC(C(=O)N1Cc2cc([101O:1][101CH:1]3CC(c4cc(C[100NH:0][100C:0](=O)N5CCCC(n6nc(-c7ccc(Oc8ccc(F)cc8F)cc7)c(C(N)=O)c6N)C5)c(OC)cc4C)C3)ccc2CC1C(=O)NC1CCCc2ccccc21)C(C)(C)C

> <Shape>
0.330

> <Color>
0.103

> <Negative vol penalty>
0.000

$$$$

  -OEChem-04052321563D

 92101  0     1  0  0  0  0  0999 V2000
  -23.1763   -8.1869   21.9724 C   0  0  0  0  0  0  0  0  0  0  0  0
  -24.0751   -9.1283   22.4638 C   0  0  0  0  0  0  0  0  0  0  0  0
  -24.2685  -27.8307   21.9759 C   0  0  0  0  0  0  0  0  0  0  0  0
  -23.7946  -29.2003   20.0428 C   0  0  0  0  0  0  0  0  0  0  0  0
  -22.3681   -8.5001   20.8803 C   0  0  0  0  0  0  0  0  0  0  0  0
  -24.1670  -10.3831   21.8626 C   0  0  0  0  0  0  0  0  0  0  0  0
  -25.4809  -17.2463   23.4394 C   0  0  0  0  0  0  0  0  0  0  0  0
  -25.3945  -28.6069   22.2498 C   0  0  0  0  0  0  0  0  0  0  0  0
  -24.9207  -29.9765   20.3167 C   0  0  0  0  0  0  0  0  0  0  0  0
  -26.2944  -18.3062   23.0413 C   0  0  0  0  0  0  0  0  0  0  0  0
  -26.0698  -31.6090   23.6512 C   0  0  0  0  0  0  0  0  0  0  0  0
  -26.2772  -32.0070   24.9719 C   0  0  0  0  0  0  0  0  0  0  0  0
  -24.7921  -18.7637   21.2102 C   0  0  0  0  0  0  0  0  0  0  0  0
  -30.0443  -22.5575   20.0868 C   0  0  0  0  0  0  0  0  0  0  0  0
  -28.5561  -22.7572   22.4380 C   0  0  0  0  0  0  0  0  0  0  0  0
  -28.3978  -30.8493   24.9877 C   0  0  0  0  0  0  0  0  0  0  0  0
  -23.4685  -28.1274   20.8723 C   0  0  0  0  0  0  0  0  0  0  0  0
  -20.9944  -27.5338   21.0572 C   0  0  0  0  0  0  0  0  0  0  0  0
  -22.4433   -9.7627   20.2715 C   0  0  0  0  0  0  0  0  0  0  0  0
  -24.3206  -16.9298   22.7182 C   0  0  0  0  0  0  0  0  0  0  0  0
  -23.3600  -10.7129   20.7605 C   0  0  0  0  0  0  0  0  0  0  0  0
  -23.9642  -17.7009   21.6027 C   0  0  0  0  0  0  0  0  0  0  0  0
  -29.9675  -23.7755   20.7622 C   0  0  0  0  0  0  0  0  0  0  0  0
  -28.6329  -21.5392   21.7625 C   0  0  0  0  0  0  0  0  0  0  0  0
  -25.7207  -29.6798   21.4202 C   0  0  0  0  0  0  0  0  0  0  0  0
  -25.9517  -19.0633   21.9249 C   0  0  0  0  0  0  0  0  0  0  0  0
  -27.0263  -30.8312   22.9988 C   0  0  0  0  0  0  0  0  0  0  0  0
  -29.2234  -23.8753   21.9378 C   0  0  0  0  0  0  0  0  0  0  0  0
  -29.3770  -21.4393   20.5869 C   0  0  0  0  0  0  0  0  0  0  0  0
  -27.4412  -31.6272   25.6401 C   0  0  0  0  0  0  0  0  0  0  0  0
  -28.1903  -30.4514   23.6670 C   0  0  0  0  0  0  0  0  0  0  0  0
  -22.3054  -27.3256   20.5885 C   0  0  0  0  0  0  0  0  0  0  0  0
  -20.2661  -26.5073   20.5073 C   0  0  0  0  0  0  0  0  0  0  0  0
  -20.4808  -28.5632   21.9129 C   0  0  0  0  0  0  0  0  0  0  0  0
  -23.3147  -14.3931   21.0881 C   0  0  0  0  0  0  0  0  0  0  0  0
  -29.3929  -24.9356   18.0764 C   0  0  0  0  0  0  0  0  0  0  0  0
  -20.5652  -16.1019   20.8828 C   0  0  0  0  0  0  0  0  0  0  0  0
  -19.0391  -19.1538   20.9463 C   0  0  0  0  0  0  0  0  0  0  0  0
  -24.1089  -24.1451   17.1250 C   0  0  0  0  0  0  0  0  0  0  0  0
  -21.5831  -10.0387   19.0638 C   0  0  0  0  0  0  0  0  0  0  0  0
  -23.4395  -15.8001   23.1764 C   0  0  0  0  0  0  0  0  0  0  0  0
  -22.7182  -17.4149   20.8063 C   0  0  0  0  0  0  0  0  0  0  0  0
  -21.4754  -11.5218   18.7187 C   0  0  0  0  0  0  0  0  0  0  0  0
  -22.3106  -22.7712   20.1051 C   0  0  0  0  0  0  0  0  0  0  0  0
  -22.8518  -12.1786   18.7507 C   0  0  0  0  0  0  0  0  0  0  0  0
  -20.8876  -23.2547   19.8333 C   0  0  0  0  0  0  0  0  0  0  0  0
  -23.0768  -22.5759   18.8042 C   0  0  0  0  0  0  0  0  0  0  0  0
  -27.4903  -24.5943   16.5382 C   0  0  0  0  0  0  0  0  0  0  0  0
  -27.0043  -25.0085   18.9352 C   0  0  0  0  0  0  0  0  0  0  0  0
  -26.4245  -23.5063   16.5233 C   0  0  0  0  0  0  0  0  0  0  0  0
  -25.9141  -23.9359   18.8936 C   0  0  0  0  0  0  0  0  0  0  0  0
  -21.7115  -24.3187   17.6880 C   0  0  0  0  0  0  0  0  0  0  0  0
  -23.4712  -12.0936   20.1509 C   0  0  1  0  0  0  0  0  0  0  0  0
  -22.5542  -15.2444   22.0651 C   0  0  1  0  0  0  0  0  0  0  0  0
  -20.8561  -24.5213   18.9549 C   0  0  2  0  0  0  0  0  0  0  0  0
  -30.6246  -26.9689   18.6631 C   0  0  0  0  0  0  0  0  0  0  0  0
  -16.7869  -20.2353   20.7114 C   0  0  0  0  0  0  0  0  0  0  0  0
  -20.6962  -15.7128   17.8593 C   0  0  0  0  0  0  0  0  0  0  0  0
  -19.0220  -17.5588   17.6192 C   0  0  0  0  0  0  0  0  0  0  0  0
  -18.4097  -15.4735   18.8438 C   0  0  0  0  0  0  0  0  0  0  0  0
  -19.1497  -20.2489   23.6935 C   0  0  0  0  0  0  0  0  0  0  0  0
  -28.3558  -25.0699   23.8022 C   0  0  0  0  0  0  0  0  0  0  0  0
  -30.2435  -20.2452   18.7218 C   0  0  0  0  0  0  0  0  0  0  0  0
  -30.6952  -24.9762   20.2052 C   0  0  0  0  0  0  0  0  0  0  0  0
  -27.9119  -20.3530   22.3120 C   0  0  0  0  0  0  0  0  0  1  0  0
  -29.8404  -25.7944   19.2325 C   0  0  2  0  0  0  0  0  0  0  0  0
  -20.0064  -17.1159   19.9139 C   0  0  1  0  0  0  0  0  0  0  0  0
  -17.8036  -19.6472   21.6774 C   0  0  2  0  0  0  0  0  0  0  0  0
  -19.5582  -16.4697   18.5727 C   0  0  0  0  0  0  0  0  0  0  0  0
  -22.4072  -26.2511   19.8017 N   0  0  0  0  0  0  0  0  0  0  0  0
  -21.1508  -25.7749   19.7717 N   0  0  0  0  0  0  0  0  0  0  0  0
  -21.8926  -16.2961   21.2903 N   0  0  0  0  0  0  0  0  0  0  0  0
  -28.0156  -24.8066   17.8894 N   0  0  0  0  0  0  0  0  0  0  0  0
  -23.0463  -23.7835   17.9710 N   0  0  0  0  0  0  0  0  0  0  0  0
  -25.3984  -23.7686   17.5299 N   0  0  0  0  0  0  0  0  0  0  0  0
  -18.9617  -26.1686   20.5862 N   0  0  0  0  0  0  0  0  0  0  0  0
  -21.3661  -29.5399   22.3888 N   0  0  0  0  0  0  0  0  0  0  0  0
  -22.8799  -13.0829   21.0261 N   0  0  0  0  0  0  0  0  0  0  0  0
  -18.9423  -17.8164   20.6248 N   0  0  0  0  0  0  0  0  0  0  0  0
  -18.1729  -20.6975   22.6681 N   0  3  0  0  0  0  0  0  0  0  0  0
  -19.2758  -28.6059   22.2589 O   0  0  0  0  0  0  0  0  0  0  0  0
  -24.2274  -14.8886   20.4377 O   0  0  0  0  0  0  0  0  0  0  0  0
  -30.2420  -24.3936   17.3643 O   0  0  0  0  0  0  0  0  0  0  0  0
  -19.8479  -15.1758   21.2694 O   0  0  0  0  0  0  0  0  0  0  0  0
  -19.9930  -19.8828   20.6831 O   0  0  0  0  0  0  0  0  0  0  0  0
  -23.9153  -24.7769   16.0789 O   0  0  0  0  0  0  0  0  0  0  0  0
  -26.8193  -30.4375   21.6873 O   0  0  0  0  0  0  0  0  0  0  0  0
  -29.1375  -25.0577   22.6095 O   0  0  0  0  0  0  0  0  0  0  0  0
  -29.4617  -20.2573   19.9144 O   0  0  0  0  0  0  0  0  0  0  0  0
  -26.7500  -20.1052   21.5310 O   0  0  0  0  0  0  0  0  0  1  0  0
  -27.6410  -32.0107   26.9079 F   0  0  0  0  0  0  0  0  0  0  0  0
  -29.1134  -29.7051   23.0450 F   0  0  0  0  0  0  0  0  0  0  0  0
  1  2  1  0  0  0  0
  1  5  2  0  0  0  0
  2  6  2  0  0  0  0
  3  8  2  0  0  0  0
  3 17  1  0  0  0  0
  4  9  1  0  0  0  0
  4 17  2  0  0  0  0
  5 19  1  0  0  0  0
  6 21  1  0  0  0  0
  7 10  2  0  0  0  0
  7 20  1  0  0  0  0
  8 25  1  0  0  0  0
  9 25  2  0  0  0  0
 10 26  1  0  0  0  0
 11 12  2  0  0  0  0
 11 27  1  0  0  0  0
 12 30  1  0  0  0  0
 13 22  1  0  0  0  0
 13 26  2  0  0  0  0
 14 23  2  0  0  0  0
 14 29  1  0  0  0  0
 15 24  1  0  0  0  0
 15 28  2  0  0  0  0
 16 30  2  0  0  0  0
 16 31  1  0  0  0  0
 17 32  1  0  0  0  0
 18 32  1  0  0  0  0
 18 33  2  0  0  0  0
 18 34  1  0  0  0  0
 19 21  2  0  0  0  0
 19 40  1  0  0  0  0
 20 22  2  0  0  0  0
 20 41  1  0  0  0  0
 21 53  1  0  0  0  0
 22 42  1  0  0  0  0
 23 28  1  0  0  0  0
 23 64  1  0  0  0  0
 24 29  2  0  0  0  0
 24 65  1  0  0  0  0
 25 87  1  0  0  0  0
 26 90  1  0  0  0  0
 27 31  2  0  0  0  0
 27 87  1  0  0  0  0
 28 88  1  0  0  0  0
 29 89  1  0  0  0  0
 30 91  1  0  0  0  0
 31 92  1  0  0  0  0
 32 70  2  0  0  0  0
 33 71  1  0  0  0  0
 33 76  1  0  0  0  0
 34 77  1  0  0  0  0
 34 81  2  0  0  0  0
 35 54  1  0  0  0  0
 35 78  1  0  0  0  0
 35 82  2  0  0  0  0
 36 66  1  0  0  0  0
 36 73  1  0  0  0  0
 36 83  2  0  0  0  0
 37 67  1  0  0  0  0
 37 72  1  0  0  0  0
 37 84  2  0  0  0  0
 38 68  1  0  0  0  0
 38 79  1  0  0  0  0
 38 85  2  0  0  0  0
 39 74  1  0  0  0  0
 39 75  1  0  0  0  0
 39 86  2  0  0  0  0
 40 43  1  0  0  0  0
 41 54  1  0  0  0  0
 42 72  1  0  0  0  0
 43 45  1  0  0  0  0
 44 46  1  0  0  0  0
 44 47  1  0  0  0  0
 45 53  1  0  0  0  0
 46 55  1  0  0  0  0
 47 74  1  0  0  0  0
 48 50  1  0  0  0  0
 48 73  1  0  0  0  0
 49 51  1  0  0  0  0
 49 73  1  0  0  0  0
 50 75  1  0  0  0  0
 51 75  1  0  0  0  0
 52 55  1  0  0  0  0
 52 74  1  0  0  0  0
 53 78  1  0  0  0  0
 54 72  1  0  0  0  0
 55 71  1  0  0  0  0
 56 66  1  0  0  0  0
 57 68  1  0  0  0  0
 58 69  1  0  0  0  0
 59 69  1  0  0  0  0
 60 69  1  0  0  0  0
 61 80  1  0  0  0  0
 62 88  1  0  0  0  0
 63 89  1  0  0  0  0
 64 66  1  0  0  0  0
 65 90  1  0  0  0  0
 67 69  1  0  0  0  0
 67 79  1  0  0  0  0
 68 80  1  0  0  0  0
 70 71  1  0  0  0  0
M  CHG  1  80   1
M  ISO  4  39 100  65 101  75 100  90 101
M  END
> <Batch ID>
0156

> <Smiles>
CNC(C)C(=O)NC(C(=O)N1Cc2cc([101O:1][101CH2:1]c3cc(OC)c(CC(C)C(=O)N4CC[100N:0]([100C:0](=O)N5CCCC(n6nc(-c7ccc(Oc8ccc(F)cc8F)cc7)c(C(N)=O)c6N)C5)CC4)cc3OC)ccc2CC1C(=O)NC1CCCc2ccccc21)C(C)(C)C

> <Shape>
0.225

> <Color>
0.065

> <Negative vol penalty>
0.000

$$$$

  -OEChem-04052321563D

 86 94  0     1  0  0  0  0  0999 V2000
  -20.3347   -9.1999   23.6571 C   0  0  0  0  0  0  0  0  0  0  0  0
  -21.3316  -10.0277   24.1633 C   0  0  0  0  0  0  0  0  0  0  0  0
  -25.9131  -29.0376   20.3657 C   0  0  0  0  0  0  0  0  0  0  0  0
  -27.0587  -28.5453   22.4350 C   0  0  0  0  0  0  0  0  0  0  0  0
  -20.5098   -8.5738   22.4237 C   0  0  0  0  0  0  0  0  0  0  0  0
  -22.5047  -10.2290   23.4370 C   0  0  0  0  0  0  0  0  0  0  0  0
  -23.9003  -15.0954   23.3102 C   0  0  0  0  0  0  0  0  0  0  0  0
  -24.8327  -29.5480   21.0852 C   0  0  0  0  0  0  0  0  0  0  0  0
  -25.9783  -29.0557   23.1546 C   0  0  0  0  0  0  0  0  0  0  0  0
  -24.5243  -15.6086   24.4464 C   0  0  0  0  0  0  0  0  0  0  0  0
  -24.7772  -32.0931   24.0217 C   0  0  0  0  0  0  0  0  0  0  0  0
  -25.0565  -32.9460   25.0895 C   0  0  0  0  0  0  0  0  0  0  0  0
  -26.6712  -15.3485   23.3775 C   0  0  0  0  0  0  0  0  0  0  0  0
  -27.0567  -19.7713   25.2443 C   0  0  0  0  0  0  0  0  0  0  0  0
  -29.8278  -19.4509   25.2771 C   0  0  0  0  0  0  0  0  0  0  0  0
  -23.9558  -31.4151   26.6002 C   0  0  0  0  0  0  0  0  0  0  0  0
  -27.0261  -28.5362   21.0406 C   0  0  0  0  0  0  0  0  0  0  0  0
  -29.2707  -28.7157   19.8417 C   0  0  0  0  0  0  0  0  0  0  0  0
  -21.6816   -8.7752   21.6773 C   0  0  0  0  0  0  0  0  0  0  0  0
  -24.6592  -14.6940   22.2014 C   0  0  0  0  0  0  0  0  0  0  0  0
  -22.6963   -9.6040   22.1930 C   0  0  0  0  0  0  0  0  0  0  0  0
  -26.0542  -14.8329   22.2275 C   0  0  0  0  0  0  0  0  0  0  0  0
  -27.8531  -20.4965   24.3582 C   0  0  0  0  0  0  0  0  0  0  0  0
  -27.6458  -18.8858   26.1469 C   0  0  0  0  0  0  0  0  0  0  0  0
  -24.8652  -29.5571   22.4796 C   0  0  0  0  0  0  0  0  0  0  0  0
  -25.9101  -15.7325   24.4813 C   0  0  0  0  0  0  0  0  0  0  0  0
  -24.0871  -30.9013   24.2431 C   0  0  0  0  0  0  0  0  0  0  0  0
  -29.2386  -20.3363   24.3745 C   0  0  0  0  0  0  0  0  0  0  0  0
  -29.0313  -18.7256   26.1633 C   0  0  0  0  0  0  0  0  0  0  0  0
  -24.6458  -32.6070   26.3788 C   0  0  0  0  0  0  0  0  0  0  0  0
  -23.6764  -30.5623   25.5323 C   0  0  0  0  0  0  0  0  0  0  0  0
  -28.1423  -28.0083   20.2979 C   0  0  0  0  0  0  0  0  0  0  0  0
  -30.0308  -27.7706   19.1970 C   0  0  0  0  0  0  0  0  0  0  0  0
  -29.6022  -30.1029   19.9877 C   0  0  0  0  0  0  0  0  0  0  0  0
  -25.1197  -11.9440   20.6752 C   0  0  0  0  0  0  0  0  0  0  0  0
  -26.7833  -13.8157   18.6133 C   0  0  0  0  0  0  0  0  0  0  0  0
  -28.5325  -16.6977   18.0828 C   0  0  0  0  0  0  0  0  0  0  0  0
  -30.4392  -21.8195   19.7153 C   0  0  0  0  0  0  0  0  0  0  0  0
  -21.8457   -8.0394   20.3710 C   0  0  0  0  0  0  0  0  0  0  0  0
  -23.9689  -14.1673   20.9732 C   0  0  0  0  0  0  0  0  0  0  0  0
  -26.9127  -14.4354   21.0556 C   0  0  0  0  0  0  0  0  0  0  0  0
  -22.9590   -8.6018   19.4909 C   0  0  0  0  0  0  0  0  0  0  0  0
  -29.6366  -23.6625   16.7766 C   0  0  0  0  0  0  0  0  0  0  0  0
  -24.2217   -8.8384   20.3134 C   0  0  0  0  0  0  0  0  0  0  0  0
  -29.2644  -25.0491   17.3046 C   0  0  0  0  0  0  0  0  0  0  0  0
  -29.1699  -22.5556   17.7194 C   0  0  0  0  0  0  0  0  0  0  0  0
  -29.2427  -24.0911   19.6457 C   0  0  0  0  0  0  0  0  0  0  0  0
  -23.9724   -9.8668   21.4233 C   0  0  1  0  0  0  0  0  0  0  0  0
  -24.8782  -13.3101   20.0980 C   0  0  1  0  0  0  0  0  0  0  0  0
  -29.7417  -25.2429   18.7565 C   0  0  2  0  0  0  0  0  0  0  0  0
  -27.2048  -21.4407   23.4002 C   0  0  0  0  0  0  0  0  0  0  0  0
  -26.0067  -19.0432   28.0496 C   0  0  0  0  0  0  0  0  0  0  0  0
  -29.8040  -17.9315   16.3056 C   0  0  0  0  0  0  0  0  0  0  0  0
  -29.1357  -11.9063   18.9741 C   0  0  0  0  0  0  0  0  0  0  0  0
  -30.6203  -13.6574   17.9751 C   0  0  0  0  0  0  0  0  0  0  0  0
  -28.7678  -12.6759   16.6231 C   0  0  0  0  0  0  0  0  0  0  0  0
  -26.6811  -19.0039   18.1961 C   0  0  0  0  0  0  0  0  0  0  0  0
  -31.0452  -17.7659   26.9873 C   0  0  0  0  0  0  0  0  0  0  0  0
  -31.6823  -21.2290   21.7805 C   0  0  0  0  0  0  0  0  0  0  0  0
  -30.8380  -20.2828   22.6153 C   0  0  0  0  0  0  0  0  0  0  0  0
  -25.7876  -17.1786   26.3654 C   0  0  0  0  0  0  0  0  0  1  0  0
  -26.7629  -18.1034   27.1064 C   0  0  1  0  0  0  0  0  0  0  0  0
  -28.2178  -14.2733   18.5041 C   0  0  1  0  0  0  0  0  0  0  0  0
  -28.4537  -17.7348   16.9770 C   0  0  2  0  0  0  0  0  0  0  0  0
  -29.1697  -13.1340   18.0421 C   0  0  0  0  0  0  0  0  0  0  0  0
  -28.1782  -26.7138   19.9706 N   0  0  0  0  0  0  0  0  0  0  0  0
  -29.3383  -26.6003   19.3019 N   0  0  0  0  0  0  0  0  0  0  0  0
  -26.1916  -13.9199   19.8801 N   0  0  0  0  0  0  0  0  0  0  0  0
  -29.6575  -22.7980   19.0793 N   0  0  0  0  0  0  0  0  0  0  0  0
  -31.2173  -27.8349   18.5563 N   0  0  0  0  0  0  0  0  0  0  0  0
  -28.7098  -30.9340   20.6786 N   0  0  0  0  0  0  0  0  0  0  0  0
  -23.9683  -11.2075   20.8784 N   0  0  0  0  0  0  0  0  0  0  0  0
  -28.2090  -15.4378   17.6253 N   0  0  0  0  0  0  0  0  0  0  0  0
  -30.8657  -22.1319   21.0003 N   0  0  0  0  0  0  0  0  0  0  0  0
  -28.0070  -19.0457   17.5273 N   0  3  0  0  0  0  0  0  0  0  0  0
  -30.6505  -30.5945   19.5052 O   0  0  0  0  0  0  0  0  0  0  0  0
  -26.2660  -11.5842   20.9168 O   0  0  0  0  0  0  0  0  0  0  0  0
  -26.2067  -13.3886   17.6099 O   0  0  0  0  0  0  0  0  0  0  0  0
  -28.8528  -16.9767   19.2361 O   0  0  0  0  0  0  0  0  0  0  0  0
  -30.7396  -20.7492   19.1757 O   0  0  0  0  0  0  0  0  0  0  0  0
  -23.8112  -30.0553   23.1821 O   0  0  0  0  0  0  0  0  0  0  0  0
  -29.6237  -17.8672   27.0400 O   0  0  0  0  0  0  0  0  0  0  0  0
  -26.5218  -16.2326   25.5893 O   0  0  0  0  0  0  0  0  0  1  0  0
  -30.0308  -21.0381   23.5163 O   0  0  0  0  0  0  0  0  0  0  0  0
  -24.9155  -33.4253   27.4043 F   0  0  0  0  0  0  0  0  0  0  0  0
  -23.0142  -29.4180   25.7514 F   0  0  0  0  0  0  0  0  0  0  0  0
  1  2  1  0  0  0  0
  1  5  2  0  0  0  0
  2  6  2  0  0  0  0
  3  8  2  0  0  0  0
  3 17  1  0  0  0  0
  4  9  1  0  0  0  0
  4 17  2  0  0  0  0
  5 19  1  0  0  0  0
  6 21  1  0  0  0  0
  7 10  2  0  0  0  0
  7 20  1  0  0  0  0
  8 25  1  0  0  0  0
  9 25  2  0  0  0  0
 10 26  1  0  0  0  0
 11 12  2  0  0  0  0
 11 27  1  0  0  0  0
 12 30  1  0  0  0  0
 13 22  1  0  0  0  0
 13 26  2  0  0  0  0
 14 23  2  0  0  0  0
 14 24  1  0  0  0  0
 15 28  2  0  0  0  0
 15 29  1  0  0  0  0
 16 30  2  0  0  0  0
 16 31  1  0  0  0  0
 17 32  1  0  0  0  0
 18 32  1  0  0  0  0
 18 33  2  0  0  0  0
 18 34  1  0  0  0  0
 19 21  2  0  0  0  0
 19 39  1  0  0  0  0
 20 22  2  0  0  0  0
 20 40  1  0  0  0  0
 21 48  1  0  0  0  0
 22 41  1  0  0  0  0
 23 28  1  0  0  0  0
 23 51  1  0  0  0  0
 24 29  2  0  0  0  0
 24 62  1  0  0  0  0
 25 81  1  0  0  0  0
 26 83  1  0  0  0  0
 27 31  2  0  0  0  0
 27 81  1  0  0  0  0
 28 84  1  0  0  0  0
 29 82  1  0  0  0  0
 30 85  1  0  0  0  0
 31 86  1  0  0  0  0
 32 66  2  0  0  0  0
 33 67  1  0  0  0  0
 33 70  1  0  0  0  0
 34 71  1  0  0  0  0
 34 76  2  0  0  0  0
 35 49  1  0  0  0  0
 35 72  1  0  0  0  0
 35 77  2  0  0  0  0
 36 63  1  0  0  0  0
 36 68  1  0  0  0  0
 36 78  2  0  0  0  0
 37 64  1  0  0  0  0
 37 73  1  0  0  0  0
 37 79  2  0  0  0  0
 38 69  1  0  0  0  0
 38 74  1  0  0  0  0
 38 80  2  0  0  0  0
 39 42  1  0  0  0  0
 40 49  1  0  0  0  0
 41 68  1  0  0  0  0
 42 44  1  0  0  0  0
 43 45  1  0  0  0  0
 43 46  1  0  0  0  0
 44 48  1  0  0  0  0
 45 50  1  0  0  0  0
 46 69  1  0  0  0  0
 47 50  1  0  0  0  0
 47 69  1  0  0  0  0
 48 72  1  0  0  0  0
 49 68  1  0  0  0  0
 50 67  1  0  0  0  0
 52 62  1  0  0  0  0
 53 64  1  0  0  0  0
 54 65  1  0  0  0  0
 55 65  1  0  0  0  0
 56 65  1  0  0  0  0
 57 75  1  0  0  0  0
 58 82  1  0  0  0  0
 59 60  1  0  0  0  0
 59 74  1  0  0  0  0
 60 84  1  0  0  0  0
 61 62  1  0  0  0  0
 61 83  1  0  0  0  0
 63 65  1  0  0  0  0
 63 73  1  0  0  0  0
 64 75  1  0  0  0  0
 66 67  1  0  0  0  0
M  CHG  1  75   1
M  ISO  4  38 100  61 101  74 100  83 101
M  END
> <Batch ID>
0156

> <Smiles>
CNC(C)C(=O)NC(C(=O)N1Cc2cc([101O:1][101CH2:1]C(C)c3cc(C)c(OCC[100NH:0][100C:0](=O)N4CCCC(n5nc(-c6ccc(Oc7ccc(F)cc7F)cc6)c(C(N)=O)c5N)C4)cc3OC)ccc2CC1C(=O)NC1CCCc2ccccc21)C(C)(C)C

> <Shape>
0.229

> <Color>
0.055

> <Negative vol penalty>
0.000

$$$$

  -OEChem-04052321563D

 85 94  0     1  0  0  0  0  0999 V2000
  -19.4923   -8.7721   20.4235 C   0  0  0  0  0  0  0  0  0  0  0  0
  -19.4463  -10.0562   20.9567 C   0  0  0  0  0  0  0  0  0  0  0  0
  -24.0950  -28.9918   22.3486 C   0  0  0  0  0  0  0  0  0  0  0  0
  -24.8838  -27.6871   24.2228 C   0  0  0  0  0  0  0  0  0  0  0  0
  -20.7102   -8.0996   20.3324 C   0  0  0  0  0  0  0  0  0  0  0  0
  -20.6182  -10.6682   21.4001 C   0  0  0  0  0  0  0  0  0  0  0  0
  -22.0064  -16.6248   21.0874 C   0  0  0  0  0  0  0  0  0  0  0  0
  -22.9931  -28.1458   22.2234 C   0  0  0  0  0  0  0  0  0  0  0  0
  -23.7819  -26.8411   24.0976 C   0  0  0  0  0  0  0  0  0  0  0  0
  -21.9315  -17.6558   22.0230 C   0  0  0  0  0  0  0  0  0  0  0  0
  -20.0079  -27.7012   23.7479 C   0  0  0  0  0  0  0  0  0  0  0  0
  -18.7572  -28.2893   23.5599 C   0  0  0  0  0  0  0  0  0  0  0  0
  -24.2598  -17.3277   22.5621 C   0  0  0  0  0  0  0  0  0  0  0  0
  -18.5299  -27.1318   21.4515 C   0  0  0  0  0  0  0  0  0  0  0  0
  -25.0404  -28.7624   23.3483 C   0  0  0  0  0  0  0  0  0  0  0  0
  -26.2689  -30.8060   24.2550 C   0  0  0  0  0  0  0  0  0  0  0  0
  -21.8990   -8.7074   20.7661 C   0  0  0  0  0  0  0  0  0  0  0  0
  -23.2078  -15.9291   20.8896 C   0  0  0  0  0  0  0  0  0  0  0  0
  -21.8530  -10.0027   21.3160 C   0  0  0  0  0  0  0  0  0  0  0  0
  -24.3480  -16.2900   21.6216 C   0  0  0  0  0  0  0  0  0  0  0  0
  -22.8365  -27.0704   23.0979 C   0  0  0  0  0  0  0  0  0  0  0  0
  -23.0575  -18.0054   22.7626 C   0  0  0  0  0  0  0  0  0  0  0  0
  -20.5197  -26.8285   22.7877 C   0  0  0  0  0  0  0  0  0  0  0  0
  -18.0181  -28.0046   22.4117 C   0  0  0  0  0  0  0  0  0  0  0  0
  -19.7807  -26.5437   21.6395 C   0  0  0  0  0  0  0  0  0  0  0  0
  -26.1791  -29.6357   23.4778 C   0  0  0  0  0  0  0  0  0  0  0  0
  -27.5452  -31.2650   24.0384 C   0  0  0  0  0  0  0  0  0  0  0  0
  -25.2865  -31.4231   25.0975 C   0  0  0  0  0  0  0  0  0  0  0  0
  -24.1341  -12.9084   21.2376 C   0  0  0  0  0  0  0  0  0  0  0  0
  -26.8727  -14.0010   19.8852 C   0  0  0  0  0  0  0  0  0  0  0  0
  -28.9297  -16.6462   19.2384 C   0  0  0  0  0  0  0  0  0  0  0  0
  -29.3928  -27.1408   20.8701 C   0  0  0  0  0  0  0  0  0  0  0  0
  -23.1848   -7.9227   20.6910 C   0  0  0  0  0  0  0  0  0  0  0  0
  -23.2792  -14.8373   19.8575 C   0  0  0  0  0  0  0  0  0  0  0  0
  -25.6669  -15.5878   21.4324 C   0  0  0  0  0  0  0  0  0  0  0  0
  -24.4349   -8.7864   20.8377 C   0  0  0  0  0  0  0  0  0  0  0  0
  -29.1880  -30.6240   20.1001 C   0  0  0  0  0  0  0  0  0  0  0  0
  -31.5948  -24.6739   22.3583 C   0  0  0  0  0  0  0  0  0  0  0  0
  -24.2825   -9.7516   22.0089 C   0  0  0  0  0  0  0  0  0  0  0  0
  -29.6187  -31.3329   21.3794 C   0  0  0  0  0  0  0  0  0  0  0  0
  -30.2699  -23.9439   22.5286 C   0  0  0  0  0  0  0  0  0  0  0  0
  -25.9931  -22.9562   23.8083 C   0  0  0  0  0  0  0  0  0  0  0  0
  -25.1252  -22.4818   21.4952 C   0  0  0  0  0  0  0  0  0  0  0  0
  -29.9771  -29.3381   19.9084 C   0  0  0  0  0  0  0  0  0  0  0  0
  -31.1747  -26.1353   22.3842 C   0  0  0  0  0  0  0  0  0  0  0  0
  -30.1882  -29.0420   22.3688 C   0  0  0  0  0  0  0  0  0  0  0  0
  -24.6065  -22.7008   24.3781 C   0  0  0  0  0  0  0  0  0  0  0  0
  -23.7407  -22.2273   22.0702 C   0  0  0  0  0  0  0  0  0  0  0  0
  -23.1062  -10.7096   21.7848 C   0  0  1  0  0  0  0  0  0  0  0  0
  -24.4192  -13.8543   20.1055 C   0  0  1  0  0  0  0  0  0  0  0  0
  -29.5354  -30.4220   22.6146 C   0  0  2  0  0  0  0  0  0  0  0  0
  -25.9299  -23.4450   22.3643 C   0  0  0  0  0  0  0  0  0  0  0  0
  -29.2924  -24.7950   21.7134 C   0  0  1  0  0  0  0  0  0  0  0  0
  -31.1142  -17.2217   18.1457 C   0  0  0  0  0  0  0  0  0  0  0  0
  -28.3718  -12.8202   22.2661 C   0  0  0  0  0  0  0  0  0  0  0  0
  -30.3489  -14.2157   21.6243 C   0  0  0  0  0  0  0  0  0  0  0  0
  -29.4895  -12.4773   20.0553 C   0  0  0  0  0  0  0  0  0  0  0  0
  -27.6166  -18.4595   17.3028 C   0  0  0  0  0  0  0  0  0  0  0  0
  -27.8826  -24.7505   22.2887 C   0  0  0  0  0  0  0  0  0  0  0  0
  -22.5367  -21.3442   24.0679 C   0  0  0  0  0  0  0  0  0  0  0  0
  -22.0573  -20.0608   23.4189 C   0  0  0  0  0  0  0  0  0  1  0  0
  -28.1580  -14.5977   20.4057 C   0  0  1  0  0  0  0  0  0  0  0  0
  -29.6092  -17.1049   17.9608 C   0  0  2  0  0  0  0  0  0  0  0  0
  -29.0668  -13.5399   21.0930 C   0  0  0  0  0  0  0  0  0  0  0  0
  -27.3084  -29.3679   22.8166 N   0  0  0  0  0  0  0  0  0  0  0  0
  -28.1198  -30.3764   23.1778 N   0  0  0  0  0  0  0  0  0  0  0  0
  -25.6845  -14.5228   20.4160 N   0  0  0  0  0  0  0  0  0  0  0  0
  -29.8626  -28.4483   21.0641 N   0  0  0  0  0  0  0  0  0  0  0  0
  -29.8658  -26.1462   21.7290 N   0  0  0  0  0  0  0  0  0  0  0  0
  -28.2207  -32.3379   24.5019 N   0  0  0  0  0  0  0  0  0  0  0  0
  -24.0262  -30.8197   25.2069 N   0  0  0  0  0  0  0  0  0  0  0  0
  -23.4760  -11.7552   20.8550 N   0  0  0  0  0  0  0  0  0  0  0  0
  -28.7808  -15.2759   19.2741 N   0  0  0  0  0  0  0  0  0  0  0  0
  -23.8717  -21.7247   23.4891 N   0  3  0  0  0  0  0  0  0  0  0  0
  -29.0825  -18.4348   17.5426 N   0  3  0  0  0  0  0  0  0  0  0  0
  -25.5139  -32.4872   25.7215 O   0  0  0  0  0  0  0  0  0  0  0  0
  -24.4865  -13.2024   22.3739 O   0  0  0  0  0  0  0  0  0  0  0  0
  -26.9210  -13.1098   19.0337 O   0  0  0  0  0  0  0  0  0  0  0  0
  -28.5704  -17.4252   20.1185 O   0  0  0  0  0  0  0  0  0  0  0  0
  -28.5937  -26.8716   19.9633 O   0  0  0  0  0  0  0  0  0  0  0  0
  -21.7613  -26.2448   22.9761 O   0  0  0  0  0  0  0  0  0  0  0  0
  -22.9864  -19.0181   23.6834 O   0  0  0  0  0  0  0  0  0  1  0  0
  -27.2561  -23.5543   21.8603 O   0  0  0  0  0  0  0  0  0  0  0  0
  -16.8164  -28.5682   22.2320 F   0  0  0  0  0  0  0  0  0  0  0  0
  -20.2666  -25.7051   20.7140 F   0  0  0  0  0  0  0  0  0  0  0  0
  1  2  1  0  0  0  0
  1  5  2  0  0  0  0
  2  6  2  0  0  0  0
  3  8  2  0  0  0  0
  3 15  1  0  0  0  0
  4  9  1  0  0  0  0
  4 15  2  0  0  0  0
  5 17  1  0  0  0  0
  6 19  1  0  0  0  0
  7 10  2  0  0  0  0
  7 18  1  0  0  0  0
  8 21  1  0  0  0  0
  9 21  2  0  0  0  0
 10 22  1  0  0  0  0
 11 12  2  0  0  0  0
 11 23  1  0  0  0  0
 12 24  1  0  0  0  0
 13 20  1  0  0  0  0
 13 22  2  0  0  0  0
 14 24  2  0  0  0  0
 14 25  1  0  0  0  0
 15 26  1  0  0  0  0
 16 26  1  0  0  0  0
 16 27  2  0  0  0  0
 16 28  1  0  0  0  0
 17 19  2  0  0  0  0
 17 33  1  0  0  0  0
 18 20  2  0  0  0  0
 18 34  1  0  0  0  0
 19 49  1  0  0  0  0
 20 35  1  0  0  0  0
 21 81  1  0  0  0  0
 22 82  1  0  0  0  0
 23 25  2  0  0  0  0
 23 81  1  0  0  0  0
 24 84  1  0  0  0  0
 25 85  1  0  0  0  0
 26 65  2  0  0  0  0
 27 66  1  0  0  0  0
 27 70  1  0  0  0  0
 28 71  1  0  0  0  0
 28 76  2  0  0  0  0
 29 50  1  0  0  0  0
 29 72  1  0  0  0  0
 29 77  2  0  0  0  0
 30 62  1  0  0  0  0
 30 67  1  0  0  0  0
 30 78  2  0  0  0  0
 31 63  1  0  0  0  0
 31 73  1  0  0  0  0
 31 79  2  0  0  0  0
 32 68  1  0  0  0  0
 32 69  1  0  0  0  0
 32 80  2  0  0  0  0
 33 36  1  0  0  0  0
 34 50  1  0  0  0  0
 35 67  1  0  0  0  0
 36 39  1  0  0  0  0
 37 40  1  0  0  0  0
 37 44  1  0  0  0  0
 38 41  1  0  0  0  0
 38 45  1  0  0  0  0
 39 49  1  0  0  0  0
 40 51  1  0  0  0  0
 41 53  1  0  0  0  0
 42 47  1  0  0  0  0
 42 52  1  0  0  0  0
 43 48  1  0  0  0  0
 43 52  1  0  0  0  0
 44 68  1  0  0  0  0
 45 69  1  0  0  0  0
 46 51  1  0  0  0  0
 46 68  1  0  0  0  0
 47 74  1  0  0  0  0
 48 74  1  0  0  0  0
 49 72  1  0  0  0  0
 50 67  1  0  0  0  0
 51 66  1  0  0  0  0
 52 83  1  0  0  0  0
 53 59  1  0  0  0  0
 53 69  1  0  0  0  0
 54 63  1  0  0  0  0
 55 64  1  0  0  0  0
 56 64  1  0  0  0  0
 57 64  1  0  0  0  0
 58 75  1  0  0  0  0
 59 83  1  0  0  0  0
 60 61  1  0  0  0  0
 60 74  1  0  0  0  0
 61 82  1  0  0  0  0
 62 64  1  0  0  0  0
 62 73  1  0  0  0  0
 63 75  1  0  0  0  0
 65 66  1  0  0  0  0
M  CHG  2  74   1  75   1
M  ISO  4  32 100  61 101  69 100  82 101
M  END
> <Batch ID>
0156

> <Smiles>
CNC(C)C(=O)NC(C(=O)N1Cc2cc([101O:1][101CH2:1]CN3CCC(OCC4CCC[100N:0]4[100C:0](=O)N4CCCC(n5nc(-c6ccc(Oc7ccc(F)cc7F)cc6)c(C(N)=O)c5N)C4)CC3)ccc2CC1C(=O)NC1CCCc2ccccc21)C(C)(C)C

> <Shape>
0.262

> <Color>
0.054

> <Negative vol penalty>
0.000

$$$$

  -OEChem-04052321563D

 87 96  0     1  0  0  0  0  0999 V2000
  -22.4449  -37.1752   17.9091 C   0  0  0  0  0  0  0  0  0  0  0  0
  -22.8517  -35.9692   17.3474 C   0  0  0  0  0  0  0  0  0  0  0  0
  -24.1783   -9.8315   22.1332 C   0  0  0  0  0  0  0  0  0  0  0  0
  -24.0905   -8.9215   19.8968 C   0  0  0  0  0  0  0  0  0  0  0  0
  -22.9237  -37.5561   19.1619 C   0  0  0  0  0  0  0  0  0  0  0  0
  -23.7385  -35.1439   18.0379 C   0  0  0  0  0  0  0  0  0  0  0  0
  -25.2961  -28.2239   19.0401 C   0  0  0  0  0  0  0  0  0  0  0  0
  -23.0314   -9.1129   22.4707 C   0  0  0  0  0  0  0  0  0  0  0  0
  -22.9436   -8.2028   20.2343 C   0  0  0  0  0  0  0  0  0  0  0  0
  -26.3756  -27.3435   18.9823 C   0  0  0  0  0  0  0  0  0  0  0  0
  -22.2406   -5.9346   23.3110 C   0  0  0  0  0  0  0  0  0  0  0  0
  -22.2363   -5.2555   24.5293 C   0  0  0  0  0  0  0  0  0  0  0  0
  -27.0753  -28.0672   21.1746 C   0  0  0  0  0  0  0  0  0  0  0  0
  -29.4286  -23.3597   19.2065 C   0  0  0  0  0  0  0  0  0  0  0  0
  -20.3305   -6.5554   25.2471 C   0  0  0  0  0  0  0  0  0  0  0  0
  -24.7078   -9.7358   20.8462 C   0  0  0  0  0  0  0  0  0  0  0  0
  -27.2287  -10.0528   20.6173 C   0  0  0  0  0  0  0  0  0  0  0  0
  -23.8093  -36.7305   19.8723 C   0  0  0  0  0  0  0  0  0  0  0  0
  -25.1039  -29.0418   20.1628 C   0  0  0  0  0  0  0  0  0  0  0  0
  -24.2306  -35.5147   19.3009 C   0  0  0  0  0  0  0  0  0  0  0  0
  -25.9911  -28.9552   21.2452 C   0  0  0  0  0  0  0  0  0  0  0  0
  -29.6393  -24.7145   18.9506 C   0  0  0  0  0  0  0  0  0  0  0  0
  -30.9384  -25.2068   18.8251 C   0  0  0  0  0  0  0  0  0  0  0  0
  -32.0268  -24.3441   18.9555 C   0  0  0  0  0  0  0  0  0  0  0  0
  -31.8160  -22.9892   19.2115 C   0  0  0  0  0  0  0  0  0  0  0  0
  -22.4141   -8.2985   21.5213 C   0  0  0  0  0  0  0  0  0  0  0  0
  -27.2671  -27.2672   20.0484 C   0  0  0  0  0  0  0  0  0  0  0  0
  -21.2900   -6.9242   23.0607 C   0  0  0  0  0  0  0  0  0  0  0  0
  -30.5170  -22.4970   19.3370 C   0  0  0  0  0  0  0  0  0  0  0  0
  -21.2812   -5.5659   25.4974 C   0  0  0  0  0  0  0  0  0  0  0  0
  -20.3349   -7.2346   24.0287 C   0  0  0  0  0  0  0  0  0  0  0  0
  -25.8921  -10.4783   20.4968 C   0  0  0  0  0  0  0  0  0  0  0  0
  -27.9695  -11.1133   20.1558 C   0  0  0  0  0  0  0  0  0  0  0  0
  -27.7535   -8.8101   21.1028 C   0  0  0  0  0  0  0  0  0  0  0  0
  -25.0421  -32.1793   20.6683 C   0  0  0  0  0  0  0  0  0  0  0  0
  -24.1556  -31.2869   23.6582 C   0  0  0  0  0  0  0  0  0  0  0  0
  -24.1495  -28.8851   26.0827 C   0  0  0  0  0  0  0  0  0  0  0  0
  -29.1611  -16.3380   19.8460 C   0  0  0  0  0  0  0  0  0  0  0  0
  -24.3367  -37.2067   21.2026 C   0  0  0  0  0  0  0  0  0  0  0  0
  -23.9193  -29.9668   20.2210 C   0  0  0  0  0  0  0  0  0  0  0  0
  -25.8176  -29.7970   22.4820 C   0  0  0  0  0  0  0  0  0  0  0  0
  -24.9811  -36.1003   22.0337 C   0  0  0  0  0  0  0  0  0  0  0  0
  -26.5687  -15.3082   17.7150 C   0  0  0  0  0  0  0  0  0  0  0  0
  -25.9272  -35.2686   21.1735 C   0  0  0  0  0  0  0  0  0  0  0  0
  -26.2635  -13.9133   18.2606 C   0  0  0  0  0  0  0  0  0  0  0  0
  -30.3689  -19.3281   18.0163 C   0  0  0  0  0  0  0  0  0  0  0  0
  -28.2406  -19.9218   19.2520 C   0  0  0  0  0  0  0  0  0  0  0  0
  -26.8381  -16.3150   18.8346 C   0  0  0  0  0  0  0  0  0  0  0  0
  -30.5772  -18.1645   18.9844 C   0  0  0  0  0  0  0  0  0  0  0  0
  -28.4994  -18.7478   20.1935 C   0  0  0  0  0  0  0  0  0  0  0  0
  -27.5813  -14.4932   20.3330 C   0  0  0  0  0  0  0  0  0  0  0  0
  -25.1721  -34.5806   20.0298 C   0  0  1  0  0  0  0  0  0  0  0  0
  -24.1121  -31.1239   21.1963 C   0  0  1  0  0  0  0  0  0  0  0  0
  -27.3641  -13.4460   19.2296 C   0  0  1  0  0  0  0  0  0  0  0  0
  -29.5276  -20.4536   18.6191 C   0  0  0  0  0  0  0  0  0  0  0  0
  -31.1611  -26.6604   18.5499 C   0  0  0  0  0  0  0  0  0  0  0  0
  -33.4205  -24.8714   18.8208 C   0  0  0  0  0  0  0  0  0  0  0  0
  -32.9780  -22.0581   19.3527 C   0  0  0  0  0  0  0  0  0  0  0  0
  -23.3804  -28.4609   28.4335 C   0  0  0  0  0  0  0  0  0  0  0  0
  -26.4450  -33.0052   24.7147 C   0  0  0  0  0  0  0  0  0  0  0  0
  -26.2324  -31.8167   26.9080 C   0  0  0  0  0  0  0  0  0  0  0  0
  -24.3257  -33.1661   26.0327 C   0  0  0  0  0  0  0  0  0  0  0  0
  -22.4183  -26.6395   25.2346 C   0  0  0  0  0  0  0  0  0  0  0  0
  -28.4564  -25.6168   18.8165 C   0  0  0  0  0  0  0  0  0  1  0  0
  -24.8875  -30.9580   24.9370 C   0  0  1  0  0  0  0  0  0  0  0  0
  -23.0351  -28.3396   26.9574 C   0  0  2  0  0  0  0  0  0  0  0  0
  -25.4773  -32.2219   25.6241 C   0  0  0  0  0  0  0  0  0  0  0  0
  -25.7870  -11.7129   19.9981 N   0  0  0  0  0  0  0  0  0  0  0  0
  -27.0669  -12.0723   19.8011 N   0  0  0  0  0  0  0  0  0  0  0  0
  -24.6476  -30.6907   22.4885 N   0  0  0  0  0  0  0  0  0  0  0  0
  -27.8653  -15.8081   19.7544 N   0  0  0  0  0  0  0  0  0  0  0  0
  -29.3108  -17.7040   19.5527 N   0  0  0  0  0  0  0  0  0  0  0  0
  -29.2985  -11.3097   20.0229 N   0  0  0  0  0  0  0  0  0  0  0  0
  -26.8525   -7.8288   21.5383 N   0  0  0  0  0  0  0  0  0  0  0  0
  -24.4568  -33.4224   20.5211 N   0  0  0  0  0  0  0  0  0  0  0  0
  -23.9468  -30.2115   25.7653 N   0  0  0  0  0  0  0  0  0  0  0  0
  -22.7907  -26.9023   26.6485 N   0  3  0  0  0  0  0  0  0  0  0  0
  -28.9856   -8.5829   21.1645 O   0  0  0  0  0  0  0  0  0  0  0  0
  -26.2050  -31.8878   20.4146 O   0  0  0  0  0  0  0  0  0  0  0  0
  -23.1788  -32.0392   23.6969 O   0  0  0  0  0  0  0  0  0  0  0  0
  -25.1062  -28.2038   25.7206 O   0  0  0  0  0  0  0  0  0  0  0  0
  -30.1276  -15.6351   20.1665 O   0  0  0  0  0  0  0  0  0  0  0  0
  -21.2951   -7.5970   21.8503 O   0  0  0  0  0  0  0  0  0  0  0  0
  -30.2902  -21.1694   19.5883 O   0  0  0  0  0  0  0  0  0  0  0  0
  -28.3295  -26.4031   19.9940 O   0  0  0  0  0  0  0  0  0  1  0  0
  -21.2762   -4.9126   26.6667 F   0  0  0  0  0  0  0  0  0  0  0  0
  -19.4183   -8.1835   23.7935 F   0  0  0  0  0  0  0  0  0  0  0  0
  1  2  1  0  0  0  0
  1  5  2  0  0  0  0
  2  6  2  0  0  0  0
  3  8  2  0  0  0  0
  3 16  1  0  0  0  0
  4  9  1  0  0  0  0
  4 16  2  0  0  0  0
  5 18  1  0  0  0  0
  6 20  1  0  0  0  0
  7 10  2  0  0  0  0
  7 19  1  0  0  0  0
  8 26  1  0  0  0  0
  9 26  2  0  0  0  0
 10 27  1  0  0  0  0
 11 12  2  0  0  0  0
 11 28  1  0  0  0  0
 12 30  1  0  0  0  0
 13 21  1  0  0  0  0
 13 27  2  0  0  0  0
 14 22  1  0  0  0  0
 14 29  2  0  0  0  0
 15 30  2  0  0  0  0
 15 31  1  0  0  0  0
 16 32  1  0  0  0  0
 17 32  1  0  0  0  0
 17 33  2  0  0  0  0
 17 34  1  0  0  0  0
 18 20  2  0  0  0  0
 18 39  1  0  0  0  0
 19 21  2  0  0  0  0
 19 40  1  0  0  0  0
 20 52  1  0  0  0  0
 21 41  1  0  0  0  0
 22 23  2  0  0  0  0
 22 64  1  0  0  0  0
 23 24  1  0  0  0  0
 23 56  1  0  0  0  0
 24 25  2  0  0  0  0
 24 57  1  0  0  0  0
 25 29  1  0  0  0  0
 25 58  1  0  0  0  0
 26 83  1  0  0  0  0
 27 85  1  0  0  0  0
 28 31  2  0  0  0  0
 28 83  1  0  0  0  0
 29 84  1  0  0  0  0
 30 86  1  0  0  0  0
 31 87  1  0  0  0  0
 32 68  2  0  0  0  0
 33 69  1  0  0  0  0
 33 73  1  0  0  0  0
 34 74  1  0  0  0  0
 34 78  2  0  0  0  0
 35 53  1  0  0  0  0
 35 75  1  0  0  0  0
 35 79  2  0  0  0  0
 36 65  1  0  0  0  0
 36 70  1  0  0  0  0
 36 80  2  0  0  0  0
 37 66  1  0  0  0  0
 37 76  1  0  0  0  0
 37 81  2  0  0  0  0
 38 71  1  0  0  0  0
 38 72  1  0  0  0  0
 38 82  2  0  0  0  0
 39 42  1  0  0  0  0
 40 53  1  0  0  0  0
 41 70  1  0  0  0  0
 42 44  1  0  0  0  0
 43 45  1  0  0  0  0
 43 48  1  0  0  0  0
 44 52  1  0  0  0  0
 45 54  1  0  0  0  0
 46 49  1  0  0  0  0
 46 55  1  0  0  0  0
 47 50  1  0  0  0  0
 47 55  1  0  0  0  0
 48 71  1  0  0  0  0
 49 72  1  0  0  0  0
 50 72  1  0  0  0  0
 51 54  1  0  0  0  0
 51 71  1  0  0  0  0
 52 75  1  0  0  0  0
 53 70  1  0  0  0  0
 54 69  1  0  0  0  0
 55 84  1  0  0  0  0
 59 66  1  0  0  0  0
 60 67  1  0  0  0  0
 61 67  1  0  0  0  0
 62 67  1  0  0  0  0
 63 77  1  0  0  0  0
 64 85  1  0  0  0  0
 65 67  1  0  0  0  0
 65 76  1  0  0  0  0
 66 77  1  0  0  0  0
 68 69  1  0  0  0  0
M  CHG  1  77   1
M  ISO  4  38 100  64 101  72 100  85 101
M  END
> <Batch ID>
0156

> <Smiles>
CNC(C)C(=O)NC(C(=O)N1Cc2cc([101O:1][101CH2:1]c3cc(OC4CC[100N:0]([100C:0](=O)N5CCCC(n6nc(-c7ccc(Oc8ccc(F)cc8F)cc7)c(C(N)=O)c6N)C5)CC4)c(C)c(C)c3C)ccc2CC1C(=O)NC1CCCc2ccccc21)C(C)(C)C

> <Shape>
0.293

> <Color>
0.125

> <Negative vol penalty>
0.000

$$$$

  -OEChem-04052321563D

 86 95  0     1  0  0  0  0  0999 V2000
  -29.2574  -33.9992   27.5049 C   0  0  0  0  0  0  0  0  0  0  0  0
  -28.9339  -32.8356   26.8143 C   0  0  0  0  0  0  0  0  0  0  0  0
  -26.5528   -8.3321   22.0973 C   0  0  0  0  0  0  0  0  0  0  0  0
  -24.7529   -8.0210   20.5160 C   0  0  0  0  0  0  0  0  0  0  0  0
  -28.3216  -35.0270   27.6136 C   0  0  0  0  0  0  0  0  0  0  0  0
  -27.6739  -32.6988   26.2327 C   0  0  0  0  0  0  0  0  0  0  0  0
  -27.8963  -30.8232   21.5341 C   0  0  0  0  0  0  0  0  0  0  0  0
  -26.0735   -7.2624   22.8533 C   0  0  0  0  0  0  0  0  0  0  0  0
  -24.2736   -6.9512   21.2719 C   0  0  0  0  0  0  0  0  0  0  0  0
  -28.0968  -29.4494   21.4057 C   0  0  0  0  0  0  0  0  0  0  0  0
  -22.4690   -6.5073   24.0963 C   0  0  0  0  0  0  0  0  0  0  0  0
  -21.0965   -6.4478   24.3377 C   0  0  0  0  0  0  0  0  0  0  0  0
  -25.7352  -29.1472   21.0175 C   0  0  0  0  0  0  0  0  0  0  0  0
  -29.0221  -24.4892   21.9950 C   0  0  0  0  0  0  0  0  0  0  0  0
  -28.1801  -23.3610   19.5865 C   0  0  0  0  0  0  0  0  0  0  0  0
  -20.9924   -4.3090   23.2188 C   0  0  0  0  0  0  0  0  0  0  0  0
  -25.8924   -8.7115   20.9287 C   0  0  0  0  0  0  0  0  0  0  0  0
  -27.3203   -9.7639   19.0952 C   0  0  0  0  0  0  0  0  0  0  0  0
  -27.0529  -34.9066   27.0248 C   0  0  0  0  0  0  0  0  0  0  0  0
  -26.6100  -31.3689   21.4158 C   0  0  0  0  0  0  0  0  0  0  0  0
  -26.7198  -33.7254   26.3347 C   0  0  0  0  0  0  0  0  0  0  0  0
  -25.5215  -30.5284   21.1423 C   0  0  0  0  0  0  0  0  0  0  0  0
  -28.5683  -25.3091   20.9619 C   0  0  0  0  0  0  0  0  0  0  0  0
  -29.0551  -23.1052   21.8239 C   0  0  0  0  0  0  0  0  0  0  0  0
  -28.1472  -24.7450   19.7576 C   0  0  0  0  0  0  0  0  0  0  0  0
  -24.9339   -6.5719   22.4406 C   0  0  0  0  0  0  0  0  0  0  0  0
  -27.0158  -28.6109   21.1503 C   0  0  0  0  0  0  0  0  0  0  0  0
  -23.1033   -5.4676   23.4161 C   0  0  0  0  0  0  0  0  0  0  0  0
  -28.6340  -22.5412   20.6197 C   0  0  0  0  0  0  0  0  0  0  0  0
  -20.3582   -5.3486   23.8990 C   0  0  0  0  0  0  0  0  0  0  0  0
  -22.3650   -4.3685   22.9774 C   0  0  0  0  0  0  0  0  0  0  0  0
  -26.3867   -9.8168   20.1476 C   0  0  0  0  0  0  0  0  0  0  0  0
  -27.4521  -11.0687   18.6872 C   0  0  0  0  0  0  0  0  0  0  0  0
  -28.0068   -8.6360   18.5364 C   0  0  0  0  0  0  0  0  0  0  0  0
  -24.6729  -32.9861   23.3487 C   0  0  0  0  0  0  0  0  0  0  0  0
  -22.8423  -33.2187   20.6809 C   0  0  0  0  0  0  0  0  0  0  0  0
  -21.9937  -31.9475   17.6295 C   0  0  0  0  0  0  0  0  0  0  0  0
  -28.0598  -16.3239   19.5965 C   0  0  0  0  0  0  0  0  0  0  0  0
  -26.0580  -36.0250   27.2093 C   0  0  0  0  0  0  0  0  0  0  0  0
  -26.4144  -32.8558   21.5303 C   0  0  0  0  0  0  0  0  0  0  0  0
  -24.1235  -31.0668   20.9863 C   0  0  0  0  0  0  0  0  0  0  0  0
  -24.8770  -35.9549   26.2445 C   0  0  0  0  0  0  0  0  0  0  0  0
  -24.7504  -15.1787   19.8383 C   0  0  0  0  0  0  0  0  0  0  0  0
  -24.3186  -34.5366   26.1863 C   0  0  0  0  0  0  0  0  0  0  0  0
  -24.9540  -13.6639   19.8563 C   0  0  0  0  0  0  0  0  0  0  0  0
  -27.4642  -19.8897   18.7732 C   0  0  0  0  0  0  0  0  0  0  0  0
  -27.0793  -19.5403   21.2510 C   0  0  0  0  0  0  0  0  0  0  0  0
  -25.8041  -15.9085   20.6731 C   0  0  0  0  0  0  0  0  0  0  0  0
  -28.3242  -18.6270   18.7539 C   0  0  0  0  0  0  0  0  0  0  0  0
  -27.9506  -18.2886   21.1757 C   0  0  0  0  0  0  0  0  0  0  0  0
  -27.4017  -14.0518   20.3318 C   0  0  0  0  0  0  0  0  0  0  0  0
  -25.3722  -33.5497   25.6690 C   0  0  1  0  0  0  0  0  0  0  0  0
  -24.9865  -33.2438   21.9020 C   0  0  1  0  0  0  0  0  0  0  0  0
  -26.3930  -13.2950   19.4538 C   0  0  1  0  0  0  0  0  0  0  0  0
  -27.4159  -20.5494   20.1518 C   0  0  0  0  0  0  0  0  0  0  0  0
  -29.5430  -22.2427   22.9408 C   0  0  0  0  0  0  0  0  0  0  0  0
  -27.6572  -25.6022   18.6371 C   0  0  0  0  0  0  0  0  0  0  0  0
  -20.4375  -32.3322   15.6989 C   0  0  0  0  0  0  0  0  0  0  0  0
  -20.5342  -32.0754   22.3167 C   0  0  0  0  0  0  0  0  0  0  0  0
  -19.3394  -31.5994   20.1686 C   0  0  0  0  0  0  0  0  0  0  0  0
  -19.9008  -33.9499   20.7872 C   0  0  0  0  0  0  0  0  0  0  0  0
  -24.2419  -32.3375   15.7448 C   0  0  0  0  0  0  0  0  0  0  0  0
  -28.5434  -26.7882   21.1669 C   0  0  0  0  0  0  0  0  0  1  0  0
  -21.7481  -32.3849   20.0591 C   0  0  1  0  0  0  0  0  0  0  0  0
  -21.8167  -32.6111   16.2758 C   0  0  2  0  0  0  0  0  0  0  0  0
  -20.4065  -32.4917   20.8377 C   0  0  0  0  0  0  0  0  0  0  0  0
  -25.9561  -11.0571   20.3930 N   0  0  0  0  0  0  0  0  0  0  0  0
  -26.6221  -11.7956   19.4891 N   0  0  0  0  0  0  0  0  0  0  0  0
  -23.9825  -32.5268   21.1132 N   0  0  0  0  0  0  0  0  0  0  0  0
  -27.1576  -15.4947   20.2799 N   0  0  0  0  0  0  0  0  0  0  0  0
  -27.9519  -17.7058   19.8271 N   0  0  0  0  0  0  0  0  0  0  0  0
  -28.1959  -11.6537   17.7245 N   0  0  0  0  0  0  0  0  0  0  0  0
  -27.7546   -7.3666   19.0743 N   0  0  0  0  0  0  0  0  0  0  0  0
  -25.4999  -33.6544   24.2313 N   0  0  0  0  0  0  0  0  0  0  0  0
  -21.6632  -32.7987   18.6627 N   0  0  0  0  0  0  0  0  0  0  0  0
  -22.8386  -32.1081   15.3147 N   0  3  0  0  0  0  0  0  0  0  0  0
  -28.8322   -8.7527   17.5990 O   0  0  0  0  0  0  0  0  0  0  0  0
  -23.7482  -32.2376   23.6424 O   0  0  0  0  0  0  0  0  0  0  0  0
  -22.6938  -34.4398   20.7730 O   0  0  0  0  0  0  0  0  0  0  0  0
  -22.3825  -30.7886   17.7576 O   0  0  0  0  0  0  0  0  0  0  0  0
  -28.9084  -15.8608   18.8242 O   0  0  0  0  0  0  0  0  0  0  0  0
  -24.4661   -5.5278   23.1779 O   0  0  0  0  0  0  0  0  0  0  0  0
  -28.6612  -21.1840   20.4345 O   0  0  0  0  0  0  0  0  0  0  0  0
  -27.2099  -27.2601   21.0243 O   0  0  0  0  0  0  0  0  0  1  0  0
  -19.0405   -5.2909   24.1322 F   0  0  0  0  0  0  0  0  0  0  0  0
  -22.9689   -3.3662   22.3244 F   0  0  0  0  0  0  0  0  0  0  0  0
  1  2  1  0  0  0  0
  1  5  2  0  0  0  0
  2  6  2  0  0  0  0
  3  8  2  0  0  0  0
  3 17  1  0  0  0  0
  4  9  1  0  0  0  0
  4 17  2  0  0  0  0
  5 19  1  0  0  0  0
  6 21  1  0  0  0  0
  7 10  2  0  0  0  0
  7 20  1  0  0  0  0
  8 26  1  0  0  0  0
  9 26  2  0  0  0  0
 10 27  1  0  0  0  0
 11 12  2  0  0  0  0
 11 28  1  0  0  0  0
 12 30  1  0  0  0  0
 13 22  1  0  0  0  0
 13 27  2  0  0  0  0
 14 23  1  0  0  0  0
 14 24  2  0  0  0  0
 15 25  1  0  0  0  0
 15 29  2  0  0  0  0
 16 30  2  0  0  0  0
 16 31  1  0  0  0  0
 17 32  1  0  0  0  0
 18 32  1  0  0  0  0
 18 33  2  0  0  0  0
 18 34  1  0  0  0  0
 19 21  2  0  0  0  0
 19 39  1  0  0  0  0
 20 22  2  0  0  0  0
 20 40  1  0  0  0  0
 21 52  1  0  0  0  0
 22 41  1  0  0  0  0
 23 25  2  0  0  0  0
 23 63  1  0  0  0  0
 24 29  1  0  0  0  0
 24 56  1  0  0  0  0
 25 57  1  0  0  0  0
 26 82  1  0  0  0  0
 27 84  1  0  0  0  0
 28 31  2  0  0  0  0
 28 82  1  0  0  0  0
 29 83  1  0  0  0  0
 30 85  1  0  0  0  0
 31 86  1  0  0  0  0
 32 67  2  0  0  0  0
 33 68  1  0  0  0  0
 33 72  1  0  0  0  0
 34 73  1  0  0  0  0
 34 77  2  0  0  0  0
 35 53  1  0  0  0  0
 35 74  1  0  0  0  0
 35 78  2  0  0  0  0
 36 64  1  0  0  0  0
 36 69  1  0  0  0  0
 36 79  2  0  0  0  0
 37 65  1  0  0  0  0
 37 75  1  0  0  0  0
 37 80  2  0  0  0  0
 38 70  1  0  0  0  0
 38 71  1  0  0  0  0
 38 81  2  0  0  0  0
 39 42  1  0  0  0  0
 40 53  1  0  0  0  0
 41 69  1  0  0  0  0
 42 44  1  0  0  0  0
 43 45  1  0  0  0  0
 43 48  1  0  0  0  0
 44 52  1  0  0  0  0
 45 54  1  0  0  0  0
 46 49  1  0  0  0  0
 46 55  1  0  0  0  0
 47 50  1  0  0  0  0
 47 55  1  0  0  0  0
 48 70  1  0  0  0  0
 49 71  1  0  0  0  0
 50 71  1  0  0  0  0
 51 54  1  0  0  0  0
 51 70  1  0  0  0  0
 52 74  1  0  0  0  0
 53 69  1  0  0  0  0
 54 68  1  0  0  0  0
 55 83  1  0  0  0  0
 58 65  1  0  0  0  0
 59 66  1  0  0  0  0
 60 66  1  0  0  0  0
 61 66  1  0  0  0  0
 62 76  1  0  0  0  0
 63 84  1  0  0  0  0
 64 66  1  0  0  0  0
 64 75  1  0  0  0  0
 65 76  1  0  0  0  0
 67 68  1  0  0  0  0
M  CHG  1  76   1
M  ISO  4  38 100  63 101  71 100  84 101
M  END
> <Batch ID>
0156

> <Smiles>
CNC(C)C(=O)NC(C(=O)N1Cc2cc([101O:1][101CH2:1]c3cc(C)c(OC4CC[100N:0]([100C:0](=O)N5CCCC(n6nc(-c7ccc(Oc8ccc(F)cc8F)cc7)c(C(N)=O)c6N)C5)CC4)cc3C)ccc2CC1C(=O)NC1CCCc2ccccc21)C(C)(C)C

> <Shape>
0.231

> <Color>
0.076

> <Negative vol penalty>
0.000

$$$$

  -OEChem-04052321563D

 87 96  0     1  0  0  0  0  0999 V2000
  -26.3578  -35.8434   25.2992 C   0  0  0  0  0  0  0  0  0  0  0  0
  -26.5460  -34.4657   25.3414 C   0  0  0  0  0  0  0  0  0  0  0  0
  -24.4116  -10.0246   21.8660 C   0  0  0  0  0  0  0  0  0  0  0  0
  -24.6544  -11.3126   23.8955 C   0  0  0  0  0  0  0  0  0  0  0  0
  -25.1535  -36.3673   24.8309 C   0  0  0  0  0  0  0  0  0  0  0  0
  -25.5295  -33.6109   24.9164 C   0  0  0  0  0  0  0  0  0  0  0  0
  -27.2448  -29.8677   21.9684 C   0  0  0  0  0  0  0  0  0  0  0  0
  -24.0334   -8.9119   22.6173 C   0  0  0  0  0  0  0  0  0  0  0  0
  -24.2761  -10.2000   24.6469 C   0  0  0  0  0  0  0  0  0  0  0  0
  -27.8721  -28.7953   22.6012 C   0  0  0  0  0  0  0  0  0  0  0  0
  -21.2566   -7.7959   24.1912 C   0  0  0  0  0  0  0  0  0  0  0  0
  -20.1558   -7.0607   23.7517 C   0  0  0  0  0  0  0  0  0  0  0  0
  -25.8401  -27.5079   22.4207 C   0  0  0  0  0  0  0  0  0  0  0  0
  -27.5861  -20.1474   20.7306 C   0  0  0  0  0  0  0  0  0  0  0  0
  -21.5508   -5.0997   23.5380 C   0  0  0  0  0  0  0  0  0  0  0  0
  -24.7222  -11.2249   22.5050 C   0  0  0  0  0  0  0  0  0  0  0  0
  -24.2703  -13.3693   21.1992 C   0  0  0  0  0  0  0  0  0  0  0  0
  -24.1254  -35.5187   24.3909 C   0  0  0  0  0  0  0  0  0  0  0  0
  -25.9049  -29.7718   21.5661 C   0  0  0  0  0  0  0  0  0  0  0  0
  -24.3099  -34.1239   24.4431 C   0  0  0  0  0  0  0  0  0  0  0  0
  -25.1988  -28.5795   21.7807 C   0  0  0  0  0  0  0  0  0  0  0  0
  -27.5531  -21.5227   20.5292 C   0  0  0  0  0  0  0  0  0  0  0  0
  -28.6695  -22.1712   20.0131 C   0  0  0  0  0  0  0  0  0  0  0  0
  -23.9656   -8.9996   24.0078 C   0  0  0  0  0  0  0  0  0  0  0  0
  -27.1689  -27.6163   22.8300 C   0  0  0  0  0  0  0  0  0  0  0  0
  -22.5046   -7.1831   24.3040 C   0  0  0  0  0  0  0  0  0  0  0  0
  -20.3029   -5.7125   23.4251 C   0  0  0  0  0  0  0  0  0  0  0  0
  -22.6517   -5.8349   23.9775 C   0  0  0  0  0  0  0  0  0  0  0  0
  -25.1135  -12.3745   21.7295 C   0  0  0  0  0  0  0  0  0  0  0  0
  -29.7854  -21.4050   19.7171 C   0  0  0  0  0  0  0  0  0  0  0  0
  -28.7504  -19.4718   20.4023 C   0  0  0  0  0  0  0  0  0  0  0  0
  -25.1212  -14.2311   20.5514 C   0  0  0  0  0  0  0  0  0  0  0  0
  -22.8452  -13.5024   21.2847 C   0  0  0  0  0  0  0  0  0  0  0  0
  -23.2238  -31.3083   22.3110 C   0  0  0  0  0  0  0  0  0  0  0  0
  -21.9820  -29.4949   19.9252 C   0  0  0  0  0  0  0  0  0  0  0  0
  -22.1865  -26.6624   18.0326 C   0  0  0  0  0  0  0  0  0  0  0  0
  -29.8300  -17.1961   20.3540 C   0  0  0  0  0  0  0  0  0  0  0  0
  -22.8235  -36.1303   23.9375 C   0  0  0  0  0  0  0  0  0  0  0  0
  -25.2507  -30.9281   20.8607 C   0  0  0  0  0  0  0  0  0  0  0  0
  -23.7646  -28.4186   21.3498 C   0  0  0  0  0  0  0  0  0  0  0  0
  -21.9373  -35.1652   23.1542 C   0  0  0  0  0  0  0  0  0  0  0  0
  -30.0293  -13.7710   19.4023 C   0  0  0  0  0  0  0  0  0  0  0  0
  -24.9922  -21.5569   20.8682 C   0  0  0  0  0  0  0  0  0  0  0  0
  -25.2997  -22.5516   19.7929 C   0  0  0  0  0  0  0  0  0  0  0  0
  -21.8567  -33.8180   23.8650 C   0  0  0  0  0  0  0  0  0  0  0  0
  -28.6988  -13.1842   19.8793 C   0  0  0  0  0  0  0  0  0  0  0  0
  -30.5655  -14.8226   20.3720 C   0  0  0  0  0  0  0  0  0  0  0  0
  -28.2912  -15.3097   21.1842 C   0  0  0  0  0  0  0  0  0  0  0  0
  -26.3132  -22.2793   20.8725 C   0  0  0  0  0  0  0  0  0  0  0  0
  -23.2403  -33.1647   23.9676 C   0  0  1  0  0  0  0  0  0  0  0  0
  -23.7283  -30.9017   20.9553 C   0  0  1  0  0  0  0  0  0  0  0  0
  -27.6792  -14.2926   20.2072 C   0  0  2  0  0  0  0  0  0  0  0  0
  -31.0147  -22.0459   19.1606 C   0  0  0  0  0  0  0  0  0  0  0  0
  -21.0069  -25.4364   16.1879 C   0  0  0  0  0  0  0  0  0  0  0  0
  -29.2395  -24.2791   24.5799 C   0  0  0  0  0  0  0  0  0  0  0  0
  -19.8481  -28.5766   21.9034 C   0  0  0  0  0  0  0  0  0  0  0  0
  -19.3087  -26.6958   20.3414 C   0  0  0  0  0  0  0  0  0  0  0  0
  -18.9984  -29.0576   19.6010 C   0  0  0  0  0  0  0  0  0  0  0  0
  -24.5420  -26.8419   16.2497 C   0  0  0  0  0  0  0  0  0  0  0  0
  -28.6646  -23.6550   19.7841 C   0  0  0  0  0  0  0  0  0  0  0  0
  -29.4516  -24.4424   20.8268 C   0  0  0  0  0  0  0  0  0  0  0  0
  -29.1865  -26.4325   23.2589 C   0  0  0  0  0  0  0  0  0  1  0  0
  -21.3386  -28.1317   19.8427 C   0  0  1  0  0  0  0  0  0  0  0  0
  -22.0925  -26.4438   16.5333 C   0  0  2  0  0  0  0  0  0  0  0  0
  -29.5858  -24.9612   23.2664 C   0  0  2  0  0  0  0  0  0  0  0  0
  -19.8999  -28.1188   20.4321 C   0  0  0  0  0  0  0  0  0  0  0  0
  -26.4012  -12.5837   21.4432 N   0  0  0  0  0  0  0  0  0  0  0  0
  -29.8549  -20.0672   19.8990 N   0  0  0  0  0  0  0  0  0  0  0  0
  -26.3735  -13.7199   20.7260 N   0  0  0  0  0  0  0  0  0  0  0  0
  -23.1671  -29.5797   20.6698 N   0  0  0  0  0  0  0  0  0  0  0  0
  -29.5469  -15.8422   20.6325 N   0  0  0  0  0  0  0  0  0  0  0  0
  -24.9128  -15.3688   19.8552 N   0  0  0  0  0  0  0  0  0  0  0  0
  -22.1242  -12.5282   21.9883 N   0  0  0  0  0  0  0  0  0  0  0  0
  -28.7745  -18.0705   20.6110 N   0  0  0  0  0  0  0  0  0  0  0  0
  -23.6159  -32.5748   22.7006 N   0  0  0  0  0  0  0  0  0  0  0  0
  -21.4144  -27.7287   18.4426 N   0  0  0  0  0  0  0  0  0  0  0  0
  -23.3895  -25.9380   16.0013 N   0  3  0  0  0  0  0  0  0  0  0  0
  -28.8487  -24.2651   22.1723 N   0  3  0  0  0  0  0  0  0  0  0  0
  -22.2280  -14.4482   20.7388 O   0  0  0  0  0  0  0  0  0  0  0  0
  -22.5290  -30.5312   22.9552 O   0  0  0  0  0  0  0  0  0  0  0  0
  -21.4565  -30.4478   19.3444 O   0  0  0  0  0  0  0  0  0  0  0  0
  -22.8731  -25.9555   18.7670 O   0  0  0  0  0  0  0  0  0  0  0  0
  -30.9186  -17.5502   19.8940 O   0  0  0  0  0  0  0  0  0  0  0  0
  -23.5964   -7.9142   24.7413 O   0  0  0  0  0  0  0  0  0  0  0  0
  -27.7786  -26.5683   23.4481 O   0  0  0  0  0  0  0  0  0  1  0  0
  -19.2453   -5.0062   23.0046 F   0  0  0  0  0  0  0  0  0  0  0  0
  -23.8478   -5.2404   24.0851 F   0  0  0  0  0  0  0  0  0  0  0  0
  1  2  1  0  0  0  0
  1  5  2  0  0  0  0
  2  6  2  0  0  0  0
  3  8  2  0  0  0  0
  3 16  1  0  0  0  0
  4  9  1  0  0  0  0
  4 16  2  0  0  0  0
  5 18  1  0  0  0  0
  6 20  1  0  0  0  0
  7 10  2  0  0  0  0
  7 19  1  0  0  0  0
  8 24  1  0  0  0  0
  9 24  2  0  0  0  0
 10 25  1  0  0  0  0
 11 12  2  0  0  0  0
 11 26  1  0  0  0  0
 12 27  1  0  0  0  0
 13 21  1  0  0  0  0
 13 25  2  0  0  0  0
 14 22  2  0  0  0  0
 14 31  1  0  0  0  0
 15 27  2  0  0  0  0
 15 28  1  0  0  0  0
 16 29  1  0  0  0  0
 17 29  1  0  0  0  0
 17 32  2  0  0  0  0
 17 33  1  0  0  0  0
 18 20  2  0  0  0  0
 18 38  1  0  0  0  0
 19 21  2  0  0  0  0
 19 39  1  0  0  0  0
 20 50  1  0  0  0  0
 21 40  1  0  0  0  0
 22 23  1  0  0  0  0
 22 49  1  0  0  0  0
 23 30  2  0  0  0  0
 23 60  1  0  0  0  0
 24 84  1  0  0  0  0
 25 85  1  0  0  0  0
 26 28  2  0  0  0  0
 26 84  1  0  0  0  0
 27 86  1  0  0  0  0
 28 87  1  0  0  0  0
 29 67  2  0  0  0  0
 30 53  1  0  0  0  0
 30 68  1  0  0  0  0
 31 68  2  0  0  0  0
 31 74  1  0  0  0  0
 32 69  1  0  0  0  0
 32 72  1  0  0  0  0
 33 73  1  0  0  0  0
 33 79  2  0  0  0  0
 34 51  1  0  0  0  0
 34 75  1  0  0  0  0
 34 80  2  0  0  0  0
 35 63  1  0  0  0  0
 35 70  1  0  0  0  0
 35 81  2  0  0  0  0
 36 64  1  0  0  0  0
 36 76  1  0  0  0  0
 36 82  2  0  0  0  0
 37 71  1  0  0  0  0
 37 74  1  0  0  0  0
 37 83  2  0  0  0  0
 38 41  1  0  0  0  0
 39 51  1  0  0  0  0
 40 70  1  0  0  0  0
 41 45  1  0  0  0  0
 42 46  1  0  0  0  0
 42 47  1  0  0  0  0
 43 44  1  0  0  0  0
 43 49  1  0  0  0  0
 44 49  1  0  0  0  0
 45 50  1  0  0  0  0
 46 52  1  0  0  0  0
 47 71  1  0  0  0  0
 48 52  1  0  0  0  0
 48 71  1  0  0  0  0
 50 75  1  0  0  0  0
 51 70  1  0  0  0  0
 52 69  1  0  0  0  0
 54 64  1  0  0  0  0
 55 65  1  0  0  0  0
 56 66  1  0  0  0  0
 57 66  1  0  0  0  0
 58 66  1  0  0  0  0
 59 77  1  0  0  0  0
 60 61  1  0  0  0  0
 61 78  1  0  0  0  0
 62 65  1  0  0  0  0
 62 85  1  0  0  0  0
 63 66  1  0  0  0  0
 63 76  1  0  0  0  0
 64 77  1  0  0  0  0
 65 78  1  0  0  0  0
 67 69  1  0  0  0  0
M  CHG  2  77   1  78   1
M  ISO  4  37 100  62 101  74 100  85 101
M  END
> <Batch ID>
0156

> <Smiles>
CNC(C)C(=O)NC(C(=O)N1Cc2cc([101O:1][101CH2:1]C(C)NCCc3c(C4CC4)cc([100NH:0][100C:0](=O)N4CCCC(n5nc(-c6ccc(Oc7ccc(F)cc7F)cc6)c(C(N)=O)c5N)C4)nc3C)ccc2CC1C(=O)NC1CCCc2ccccc21)C(C)(C)C

> <Shape>
0.291

> <Color>
0.120

> <Negative vol penalty>
0.000

$$$$

  -OEChem-04052321563D

 88 97  0     1  0  0  0  0  0999 V2000
  -23.5299   -8.1003   21.6526 C   0  0  0  0  0  0  0  0  0  0  0  0
  -24.1280   -9.0774   20.8633 C   0  0  0  0  0  0  0  0  0  0  0  0
  -22.9238  -29.1663   20.8389 C   0  0  0  0  0  0  0  0  0  0  0  0
  -22.7019  -28.1866   23.0362 C   0  0  0  0  0  0  0  0  0  0  0  0
  -22.3099   -8.3596   22.2758 C   0  0  0  0  0  0  0  0  0  0  0  0
  -23.5058  -10.3140   20.6958 C   0  0  0  0  0  0  0  0  0  0  0  0
  -26.7325  -14.1901   21.1537 C   0  0  0  0  0  0  0  0  0  0  0  0
  -21.5518  -29.0195   20.6348 C   0  0  0  0  0  0  0  0  0  0  0  0
  -21.3298  -28.0398   22.8321 C   0  0  0  0  0  0  0  0  0  0  0  0
  -27.5563  -14.4650   20.0631 C   0  0  0  0  0  0  0  0  0  0  0  0
  -18.5748  -29.9942   22.9352 C   0  0  0  0  0  0  0  0  0  0  0  0
  -17.7230  -30.3662   23.9752 C   0  0  0  0  0  0  0  0  0  0  0  0
  -29.2806  -20.0829   17.0397 C   0  0  0  0  0  0  0  0  0  0  0  0
  -30.1854  -19.7095   19.2484 C   0  0  0  0  0  0  0  0  0  0  0  0
  -26.0784  -16.2544   19.4053 C   0  0  0  0  0  0  0  0  0  0  0  0
  -16.8599  -28.1118   24.0747 C   0  0  0  0  0  0  0  0  0  0  0  0
  -23.4988  -28.7498   22.0395 C   0  0  0  0  0  0  0  0  0  0  0  0
  -25.6539  -30.0997   22.2431 C   0  0  0  0  0  0  0  0  0  0  0  0
  -21.6772   -9.6034   22.1237 C   0  0  0  0  0  0  0  0  0  0  0  0
  -25.5676  -14.9395   21.3726 C   0  0  0  0  0  0  0  0  0  0  0  0
  -22.2755  -10.5897   21.3164 C   0  0  0  0  0  0  0  0  0  0  0  0
  -29.6357  -20.5695   18.2977 C   0  0  0  0  0  0  0  0  0  0  0  0
  -25.2428  -15.9887   20.5009 C   0  0  0  0  0  0  0  0  0  0  0  0
  -29.4750  -18.7362   16.7324 C   0  0  0  0  0  0  0  0  0  0  0  0
  -30.0247  -17.8762   17.6831 C   0  0  0  0  0  0  0  0  0  0  0  0
  -20.7548  -28.4563   21.6314 C   0  0  0  0  0  0  0  0  0  0  0  0
  -27.2278  -15.4954   19.1871 C   0  0  0  0  0  0  0  0  0  0  0  0
  -18.5691  -28.6810   22.4648 C   0  0  0  0  0  0  0  0  0  0  0  0
  -30.3799  -18.3629   18.9412 C   0  0  0  0  0  0  0  0  0  0  0  0
  -16.8656  -29.4250   24.5450 C   0  0  0  0  0  0  0  0  0  0  0  0
  -17.7117  -27.7398   23.0346 C   0  0  0  0  0  0  0  0  0  0  0  0
  -24.9161  -28.9007   22.2507 C   0  0  0  0  0  0  0  0  0  0  0  0
  -26.9469  -29.7088   22.4913 C   0  0  0  0  0  0  0  0  0  0  0  0
  -25.2099  -31.4464   22.0307 C   0  0  0  0  0  0  0  0  0  0  0  0
  -22.4607  -14.2765   21.4790 C   0  0  0  0  0  0  0  0  0  0  0  0
  -22.2276  -17.3780   22.4002 C   0  0  0  0  0  0  0  0  0  0  0  0
  -23.5915  -20.5063   22.4146 C   0  0  0  0  0  0  0  0  0  0  0  0
  -29.9909  -24.7634   21.6409 C   0  0  0  0  0  0  0  0  0  0  0  0
  -20.3360   -9.8206   22.7786 C   0  0  0  0  0  0  0  0  0  0  0  0
  -24.7036  -14.6478   22.5687 C   0  0  0  0  0  0  0  0  0  0  0  0
  -24.0141  -16.8360   20.7030 C   0  0  0  0  0  0  0  0  0  0  0  0
  -19.9257  -11.2890   22.8539 C   0  0  0  0  0  0  0  0  0  0  0  0
  -29.4847  -26.3110   24.6900 C   0  0  0  0  0  0  0  0  0  0  0  0
  -20.1590  -11.9780   21.5132 C   0  0  0  0  0  0  0  0  0  0  0  0
  -28.3284  -27.2739   24.4213 C   0  0  0  0  0  0  0  0  0  0  0  0
  -28.4284  -22.2223   19.7918 C   0  0  0  0  0  0  0  0  0  0  0  0
  -30.7489  -22.7563   18.9316 C   0  0  0  0  0  0  0  0  0  0  0  0
  -29.2541  -24.9740   23.9954 C   0  0  0  0  0  0  0  0  0  0  0  0
  -28.2432  -23.7008   20.1452 C   0  0  0  0  0  0  0  0  0  0  0  0
  -30.5000  -24.2210   19.2797 C   0  0  0  0  0  0  0  0  0  0  0  0
  -27.8875  -26.0487   22.2361 C   0  0  0  0  0  0  0  0  0  0  0  0
  -29.4229  -22.0339   18.6320 C   0  0  0  0  0  0  0  0  0  0  0  0
  -21.6437  -11.9522   21.1307 C   0  0  1  0  0  0  0  0  0  0  0  0
  -23.2694  -15.1410   22.4044 C   0  0  1  0  0  0  0  0  0  0  0  0
  -28.0726  -27.4230   22.9111 C   0  0  1  0  0  0  0  0  0  0  0  0
  -29.0852  -18.2395   15.3787 C   0  0  0  0  0  0  0  0  0  0  0  0
  -31.7260  -16.0429   17.4071 C   0  0  0  0  0  0  0  0  0  0  0  0
  -23.1507  -22.8438   23.2141 C   0  0  0  0  0  0  0  0  0  0  0  0
  -20.2063  -17.7648   20.1475 C   0  0  0  0  0  0  0  0  0  0  0  0
  -20.5258  -20.2371   20.3793 C   0  0  0  0  0  0  0  0  0  0  0  0
  -19.6152  -18.9146   22.2883 C   0  0  0  0  0  0  0  0  0  0  0  0
  -26.0201  -20.5099   24.1061 C   0  0  0  0  0  0  0  0  0  0  0  0
  -31.2522  -18.1208   21.1403 C   0  0  0  0  0  0  0  0  0  0  0  0
  -29.4219  -15.4871   18.2695 C   0  0  0  0  0  0  0  0  0  1  0  0
  -30.2362  -16.4318   17.3587 C   0  0  1  0  0  0  0  0  0  0  0  0
  -22.0604  -18.6963   21.6839 C   0  0  1  0  0  0  0  0  0  0  0  0
  -23.8026  -21.5080   23.5356 C   0  0  2  0  0  0  0  0  0  0  0  0
  -20.6241  -18.8861   21.1195 C   0  0  0  0  0  0  0  0  0  0  0  0
  -25.6773  -27.8285   22.4850 N   0  0  0  0  0  0  0  0  0  0  0  0
  -26.9068  -28.3523   22.6269 N   0  0  0  0  0  0  0  0  0  0  0  0
  -23.1978  -16.5076   21.8835 N   0  0  0  0  0  0  0  0  0  0  0  0
  -29.0114  -25.1582   22.5647 N   0  0  0  0  0  0  0  0  0  0  0  0
  -29.5429  -24.3455   20.3787 N   0  0  0  0  0  0  0  0  0  0  0  0
  -28.1031  -30.3965   22.6046 N   0  0  0  0  0  0  0  0  0  0  0  0
  -24.8093  -32.2008   23.1418 N   0  0  0  0  0  0  0  0  0  0  0  0
  -22.3748  -12.9553   21.8748 N   0  0  0  0  0  0  0  0  0  0  0  0
  -22.4728  -19.7291   22.6281 N   0  0  0  0  0  0  0  0  0  0  0  0
  -25.2583  -21.7369   23.7583 N   0  3  0  0  0  0  0  0  0  0  0  0
  -25.1542  -31.9598   20.8876 O   0  0  0  0  0  0  0  0  0  0  0  0
  -21.9511  -14.7717   20.4807 O   0  0  0  0  0  0  0  0  0  0  0  0
  -21.5283  -17.1326   23.3863 O   0  0  0  0  0  0  0  0  0  0  0  0
  -24.3417  -20.4243   21.4446 O   0  0  0  0  0  0  0  0  0  0  0  0
  -31.1948  -24.7836   21.9260 O   0  0  0  0  0  0  0  0  0  0  0  0
  -19.4159  -28.3131   21.4328 O   0  0  0  0  0  0  0  0  0  0  0  0
  -30.9191  -17.5380   19.8821 O   0  0  0  0  0  0  0  0  0  0  0  0
  -28.0352  -15.7671   18.1144 O   0  0  0  0  0  0  0  0  0  1  0  0
  -16.0488  -29.7819   25.5448 F   0  0  0  0  0  0  0  0  0  0  0  0
  -17.7027  -26.4764   22.5878 F   0  0  0  0  0  0  0  0  0  0  0  0
  1  2  1  0  0  0  0
  1  5  2  0  0  0  0
  2  6  2  0  0  0  0
  3  8  2  0  0  0  0
  3 17  1  0  0  0  0
  4  9  1  0  0  0  0
  4 17  2  0  0  0  0
  5 19  1  0  0  0  0
  6 21  1  0  0  0  0
  7 10  2  0  0  0  0
  7 20  1  0  0  0  0
  8 26  1  0  0  0  0
  9 26  2  0  0  0  0
 10 27  1  0  0  0  0
 11 12  2  0  0  0  0
 11 28  1  0  0  0  0
 12 30  1  0  0  0  0
 13 22  1  0  0  0  0
 13 24  2  0  0  0  0
 14 22  2  0  0  0  0
 14 29  1  0  0  0  0
 15 23  1  0  0  0  0
 15 27  2  0  0  0  0
 16 30  2  0  0  0  0
 16 31  1  0  0  0  0
 17 32  1  0  0  0  0
 18 32  1  0  0  0  0
 18 33  2  0  0  0  0
 18 34  1  0  0  0  0
 19 21  2  0  0  0  0
 19 39  1  0  0  0  0
 20 23  2  0  0  0  0
 20 40  1  0  0  0  0
 21 53  1  0  0  0  0
 22 52  1  0  0  0  0
 23 41  1  0  0  0  0
 24 25  1  0  0  0  0
 24 56  1  0  0  0  0
 25 29  2  0  0  0  0
 25 65  1  0  0  0  0
 26 84  1  0  0  0  0
 27 86  1  0  0  0  0
 28 31  2  0  0  0  0
 28 84  1  0  0  0  0
 29 85  1  0  0  0  0
 30 87  1  0  0  0  0
 31 88  1  0  0  0  0
 32 69  2  0  0  0  0
 33 70  1  0  0  0  0
 33 74  1  0  0  0  0
 34 75  1  0  0  0  0
 34 79  2  0  0  0  0
 35 54  1  0  0  0  0
 35 76  1  0  0  0  0
 35 80  2  0  0  0  0
 36 66  1  0  0  0  0
 36 71  1  0  0  0  0
 36 81  2  0  0  0  0
 37 67  1  0  0  0  0
 37 77  1  0  0  0  0
 37 82  2  0  0  0  0
 38 72  1  0  0  0  0
 38 73  1  0  0  0  0
 38 83  2  0  0  0  0
 39 42  1  0  0  0  0
 40 54  1  0  0  0  0
 41 71  1  0  0  0  0
 42 44  1  0  0  0  0
 43 45  1  0  0  0  0
 43 48  1  0  0  0  0
 44 53  1  0  0  0  0
 45 55  1  0  0  0  0
 46 49  1  0  0  0  0
 46 52  1  0  0  0  0
 47 50  1  0  0  0  0
 47 52  1  0  0  0  0
 48 72  1  0  0  0  0
 49 73  1  0  0  0  0
 50 73  1  0  0  0  0
 51 55  1  0  0  0  0
 51 72  1  0  0  0  0
 53 76  1  0  0  0  0
 54 71  1  0  0  0  0
 55 70  1  0  0  0  0
 57 65  1  0  0  0  0
 58 67  1  0  0  0  0
 59 68  1  0  0  0  0
 60 68  1  0  0  0  0
 61 68  1  0  0  0  0
 62 78  1  0  0  0  0
 63 85  1  0  0  0  0
 64 65  1  0  0  0  0
 64 86  1  0  0  0  0
 66 68  1  0  0  0  0
 66 77  1  0  0  0  0
 67 78  1  0  0  0  0
 69 70  1  0  0  0  0
M  CHG  1  78   1
M  ISO  4  38 100  64 101  73 100  86 101
M  END
> <Batch ID>
0156

> <Smiles>
CNC(C)C(=O)NC(C(=O)N1Cc2cc([101O:1][101CH2:1]C(C)c3c(C)cc(C4CC[100N:0]([100C:0](=O)N5CCCC(n6nc(-c7ccc(Oc8ccc(F)cc8F)cc7)c(C(N)=O)c6N)C5)CC4)cc3OC)ccc2CC1C(=O)NC1CCCc2ccccc21)C(C)(C)C

> <Shape>
0.231

> <Color>
0.079

> <Negative vol penalty>
0.000

$$$$

  -OEChem-04052321563D

 89 98  0     1  0  0  0  0  0999 V2000
  -28.4500  -36.9993   20.0180 C   0  0  0  0  0  0  0  0  0  0  0  0
  -28.7846  -35.6700   19.7803 C   0  0  0  0  0  0  0  0  0  0  0  0
  -24.0201   -9.1119   20.5539 C   0  0  0  0  0  0  0  0  0  0  0  0
  -22.9462  -11.2122   21.0759 C   0  0  0  0  0  0  0  0  0  0  0  0
  -27.5885  -37.3237   21.0651 C   0  0  0  0  0  0  0  0  0  0  0  0
  -28.2585  -34.6643   20.5904 C   0  0  0  0  0  0  0  0  0  0  0  0
  -26.6953  -28.9966   18.8761 C   0  0  0  0  0  0  0  0  0  0  0  0
  -23.0607   -8.4343   21.3062 C   0  0  0  0  0  0  0  0  0  0  0  0
  -21.9867  -10.5346   21.8282 C   0  0  0  0  0  0  0  0  0  0  0  0
  -27.3566  -27.7727   18.9686 C   0  0  0  0  0  0  0  0  0  0  0  0
  -22.4352   -7.8171   24.5700 C   0  0  0  0  0  0  0  0  0  0  0  0
  -22.8796   -6.8235   25.4422 C   0  0  0  0  0  0  0  0  0  0  0  0
  -26.1634  -27.2890   21.0085 C   0  0  0  0  0  0  0  0  0  0  0  0
  -27.8544  -21.8969   21.8883 C   0  0  0  0  0  0  0  0  0  0  0  0
  -29.2948  -20.1984   22.8249 C   0  0  0  0  0  0  0  0  0  0  0  0
  -21.5483   -5.1903   24.2601 C   0  0  0  0  0  0  0  0  0  0  0  0
  -23.9629  -10.5008   20.4388 C   0  0  0  0  0  0  0  0  0  0  0  0
  -24.8954  -11.5125   18.2906 C   0  0  0  0  0  0  0  0  0  0  0  0
  -27.0440  -36.3206   21.8824 C   0  0  0  0  0  0  0  0  0  0  0  0
  -25.7696  -29.3813   19.8566 C   0  0  0  0  0  0  0  0  0  0  0  0
  -27.3899  -34.9757   21.6503 C   0  0  0  0  0  0  0  0  0  0  0  0
  -25.4898  -28.5172   20.9248 C   0  0  0  0  0  0  0  0  0  0  0  0
  -28.2760  -19.8593   20.6607 C   0  0  0  0  0  0  0  0  0  0  0  0
  -27.6554  -21.1048   20.7577 C   0  0  0  0  0  0  0  0  0  0  0  0
  -22.0439   -9.1457   21.9433 C   0  0  0  0  0  0  0  0  0  0  0  0
  -27.0928  -26.9200   20.0365 C   0  0  0  0  0  0  0  0  0  0  0  0
  -21.5471   -7.4974   23.5429 C   0  0  0  0  0  0  0  0  0  0  0  0
  -28.6742  -21.4438   22.9220 C   0  0  0  0  0  0  0  0  0  0  0  0
  -29.0957  -19.4061   21.6943 C   0  0  0  0  0  0  0  0  0  0  0  0
  -22.4362   -5.5101   25.2873 C   0  0  0  0  0  0  0  0  0  0  0  0
  -21.1037   -6.1840   23.3880 C   0  0  0  0  0  0  0  0  0  0  0  0
  -24.9541  -11.2014   19.6623 C   0  0  0  0  0  0  0  0  0  0  0  0
  -26.0707  -12.1770   18.0386 C   0  0  0  0  0  0  0  0  0  0  0  0
  -23.8700  -11.2264   17.3301 C   0  0  0  0  0  0  0  0  0  0  0  0
  -25.5763  -31.7699   21.9449 C   0  0  0  0  0  0  0  0  0  0  0  0
  -22.6435  -30.5102   22.5233 C   0  0  0  0  0  0  0  0  0  0  0  0
  -20.5904  -27.7858   22.4277 C   0  0  0  0  0  0  0  0  0  0  0  0
  -29.8193  -16.0921   19.6007 C   0  0  0  0  0  0  0  0  0  0  0  0
  -26.1545  -36.7239   23.0316 C   0  0  0  0  0  0  0  0  0  0  0  0
  -25.0449  -30.6931   19.7281 C   0  0  0  0  0  0  0  0  0  0  0  0
  -24.4897  -28.8745   21.9928 C   0  0  0  0  0  0  0  0  0  0  0  0
  -25.3441  -35.5667   23.6099 C   0  0  0  0  0  0  0  0  0  0  0  0
  -30.2171  -12.7445   20.8395 C   0  0  0  0  0  0  0  0  0  0  0  0
  -26.2332  -34.3452   23.8206 C   0  0  0  0  0  0  0  0  0  0  0  0
  -28.8660  -12.0847   20.5835 C   0  0  0  0  0  0  0  0  0  0  0  0
  -30.0459  -14.2167   21.1887 C   0  0  0  0  0  0  0  0  0  0  0  0
  -29.2852  -18.3850   18.6236 C   0  0  0  0  0  0  0  0  0  0  0  0
  -27.6033  -17.4768   19.5576 C   0  0  0  0  0  0  0  0  0  0  0  0
  -27.9700  -14.3476   19.8370 C   0  0  0  0  0  0  0  0  0  0  0  0
  -28.0513  -18.9477   19.3683 C   0  0  0  0  0  0  0  0  0  0  0  0
  -26.8201  -33.8543   22.4917 C   0  0  1  0  0  0  0  0  0  0  0  0
  -24.5018  -31.2084   21.0573 C   0  0  1  0  0  0  0  0  0  0  0  0
  -28.0920  -12.8483   19.4993 C   0  0  2  0  0  0  0  0  0  0  0  0
  -25.2984  -21.2359   19.8521 C   0  0  0  0  0  0  0  0  0  0  0  0
  -18.2599  -27.0544   23.0031 C   0  0  0  0  0  0  0  0  0  0  0  0
  -23.4060  -30.4118   25.4760 C   0  0  0  0  0  0  0  0  0  0  0  0
  -21.4915  -28.8415   25.8464 C   0  0  0  0  0  0  0  0  0  0  0  0
  -21.0616  -31.1586   25.0283 C   0  0  0  0  0  0  0  0  0  0  0  0
  -19.9808  -27.1152   19.6103 C   0  0  0  0  0  0  0  0  0  0  0  0
  -28.2039  -23.4789   24.0591 C   0  0  0  0  0  0  0  0  0  0  0  0
  -30.5294  -17.8071   22.7159 C   0  0  0  0  0  0  0  0  0  0  0  0
  -28.1805  -23.5945   19.0978 C   0  0  0  0  0  0  0  0  0  0  0  0
  -28.1241  -25.0976   18.9089 C   0  0  0  0  0  0  0  0  0  1  0  0
  -26.7739  -21.6095   19.6633 C   0  0  1  0  0  0  0  0  0  0  0  0
  -22.0960  -29.4636   23.4634 C   0  0  1  0  0  0  0  0  0  0  0  0
  -19.1703  -27.6120   21.9201 C   0  0  2  0  0  0  0  0  0  0  0  0
  -22.0341  -29.9627   24.9346 C   0  0  0  0  0  0  0  0  0  0  0  0
  -26.0778  -11.6327   20.2412 N   0  0  0  0  0  0  0  0  0  0  0  0
  -26.7362  -12.2215   19.2283 N   0  0  0  0  0  0  0  0  0  0  0  0
  -23.8118  -30.1707   21.8263 N   0  0  0  0  0  0  0  0  0  0  0  0
  -29.2734  -14.9375   20.1726 N   0  0  0  0  0  0  0  0  0  0  0  0
  -28.9585  -17.0912   19.2067 N   0  0  0  0  0  0  0  0  0  0  0  0
  -26.5895  -12.7217   16.9176 N   0  0  0  0  0  0  0  0  0  0  0  0
  -22.7281  -10.5354   17.7576 N   0  0  0  0  0  0  0  0  0  0  0  0
  -25.8271  -33.1138   21.7434 N   0  0  0  0  0  0  0  0  0  0  0  0
  -20.8064  -29.0573   22.9155 N   0  0  0  0  0  0  0  0  0  0  0  0
  -19.1460  -26.6783   20.7589 N   0  3  0  0  0  0  0  0  0  0  0  0
  -26.8398  -23.1000   19.4855 N   0  3  0  0  0  0  0  0  0  0  0  0
  -23.9711  -11.5588   16.1248 O   0  0  0  0  0  0  0  0  0  0  0  0
  -26.1353  -31.0385   22.7536 O   0  0  0  0  0  0  0  0  0  0  0  0
  -22.0524  -31.5865   22.4061 O   0  0  0  0  0  0  0  0  0  0  0  0
  -21.4235  -26.8828   22.3982 O   0  0  0  0  0  0  0  0  0  0  0  0
  -31.0416  -16.2423   19.4731 O   0  0  0  0  0  0  0  0  0  0  0  0
  -21.1074   -8.4848   22.6773 O   0  0  0  0  0  0  0  0  0  0  0  0
  -28.8686  -22.2169   24.0253 O   0  0  0  0  0  0  0  0  0  0  0  0
  -29.7090  -18.1923   21.6147 O   0  0  0  0  0  0  0  0  0  0  0  0
  -27.7420  -25.7165   20.1302 O   0  0  0  0  0  0  0  0  0  1  0  0
  -22.8644   -4.5558   26.1240 F   0  0  0  0  0  0  0  0  0  0  0  0
  -20.2516   -5.8705   22.4024 F   0  0  0  0  0  0  0  0  0  0  0  0
  1  2  1  0  0  0  0
  1  5  2  0  0  0  0
  2  6  2  0  0  0  0
  3  8  2  0  0  0  0
  3 17  1  0  0  0  0
  4  9  1  0  0  0  0
  4 17  2  0  0  0  0
  5 19  1  0  0  0  0
  6 21  1  0  0  0  0
  7 10  2  0  0  0  0
  7 20  1  0  0  0  0
  8 25  1  0  0  0  0
  9 25  2  0  0  0  0
 10 26  1  0  0  0  0
 11 12  2  0  0  0  0
 11 27  1  0  0  0  0
 12 30  1  0  0  0  0
 13 22  1  0  0  0  0
 13 26  2  0  0  0  0
 14 24  1  0  0  0  0
 14 28  2  0  0  0  0
 15 28  1  0  0  0  0
 15 29  2  0  0  0  0
 16 30  2  0  0  0  0
 16 31  1  0  0  0  0
 17 32  1  0  0  0  0
 18 32  1  0  0  0  0
 18 33  2  0  0  0  0
 18 34  1  0  0  0  0
 19 21  2  0  0  0  0
 19 39  1  0  0  0  0
 20 22  2  0  0  0  0
 20 40  1  0  0  0  0
 21 51  1  0  0  0  0
 22 41  1  0  0  0  0
 23 24  2  0  0  0  0
 23 29  1  0  0  0  0
 23 50  1  0  0  0  0
 24 64  1  0  0  0  0
 25 84  1  0  0  0  0
 26 87  1  0  0  0  0
 27 31  2  0  0  0  0
 27 84  1  0  0  0  0
 28 85  1  0  0  0  0
 29 86  1  0  0  0  0
 30 88  1  0  0  0  0
 31 89  1  0  0  0  0
 32 68  2  0  0  0  0
 33 69  1  0  0  0  0
 33 73  1  0  0  0  0
 34 74  1  0  0  0  0
 34 79  2  0  0  0  0
 35 52  1  0  0  0  0
 35 75  1  0  0  0  0
 35 80  2  0  0  0  0
 36 65  1  0  0  0  0
 36 70  1  0  0  0  0
 36 81  2  0  0  0  0
 37 66  1  0  0  0  0
 37 76  1  0  0  0  0
 37 82  2  0  0  0  0
 38 71  1  0  0  0  0
 38 72  1  0  0  0  0
 38 83  2  0  0  0  0
 39 42  1  0  0  0  0
 40 52  1  0  0  0  0
 41 70  1  0  0  0  0
 42 44  1  0  0  0  0
 43 45  1  0  0  0  0
 43 46  1  0  0  0  0
 44 51  1  0  0  0  0
 45 53  1  0  0  0  0
 46 71  1  0  0  0  0
 47 50  1  0  0  0  0
 47 72  1  0  0  0  0
 48 50  1  0  0  0  0
 48 72  1  0  0  0  0
 49 53  1  0  0  0  0
 49 71  1  0  0  0  0
 51 75  1  0  0  0  0
 52 70  1  0  0  0  0
 53 69  1  0  0  0  0
 54 64  1  0  0  0  0
 55 66  1  0  0  0  0
 56 67  1  0  0  0  0
 57 67  1  0  0  0  0
 58 67  1  0  0  0  0
 59 77  1  0  0  0  0
 60 85  1  0  0  0  0
 61 86  1  0  0  0  0
 62 63  1  0  0  0  0
 62 78  1  0  0  0  0
 63 87  1  0  0  0  0
 64 78  1  0  0  0  0
 65 67  1  0  0  0  0
 65 76  1  0  0  0  0
 66 77  1  0  0  0  0
 68 69  1  0  0  0  0
M  CHG  2  77   1  78   1
M  ISO  4  38 100  63 101  72 100  87 101
M  END
> <Batch ID>
0156

> <Smiles>
CNC(C)C(=O)NC(C(=O)N1Cc2cc([101O:1][101CH2:1]CNC(C)c3cc(OC)cc(OC)c3C3C[100N:0]([100C:0](=O)N4CCCC(n5nc(-c6ccc(Oc7ccc(F)cc7F)cc6)c(C(N)=O)c5N)C4)C3)ccc2CC1C(=O)NC1CCCc2ccccc21)C(C)(C)C

> <Shape>
0.331

> <Color>
0.085

> <Negative vol penalty>
0.000

$$$$

  -OEChem-04052321563D

 85 93  0     1  0  0  0  0  0999 V2000
  -26.1724  -25.6135   12.1093 C   0  0  0  0  0  0  0  0  0  0  0  0
  -26.2049  -24.9009   13.3037 C   0  0  0  0  0  0  0  0  0  0  0  0
  -23.2554   -9.7085   20.0018 C   0  0  0  0  0  0  0  0  0  0  0  0
  -23.8203   -9.9773   22.3354 C   0  0  0  0  0  0  0  0  0  0  0  0
  -26.1572  -27.0075   12.1308 C   0  0  0  0  0  0  0  0  0  0  0  0
  -26.2235  -25.5819   14.5203 C   0  0  0  0  0  0  0  0  0  0  0  0
  -23.0246  -23.5966   17.9071 C   0  0  0  0  0  0  0  0  0  0  0  0
  -22.5651   -8.5348   20.3040 C   0  0  0  0  0  0  0  0  0  0  0  0
  -23.1299   -8.8036   22.6377 C   0  0  0  0  0  0  0  0  0  0  0  0
  -23.4299  -22.4335   18.5602 C   0  0  0  0  0  0  0  0  0  0  0  0
  -19.9175   -7.8448   23.0643 C   0  0  0  0  0  0  0  0  0  0  0  0
  -19.0698   -7.8603   24.1718 C   0  0  0  0  0  0  0  0  0  0  0  0
  -24.0692  -23.7430   20.4826 C   0  0  0  0  0  0  0  0  0  0  0  0
  -20.3615   -6.0880   25.1854 C   0  0  0  0  0  0  0  0  0  0  0  0
  -23.8831  -10.4298   21.0175 C   0  0  0  0  0  0  0  0  0  0  0  0
  -24.0791  -12.9508   20.6806 C   0  0  0  0  0  0  0  0  0  0  0  0
  -26.1659  -27.7059   13.3486 C   0  0  0  0  0  0  0  0  0  0  0  0
  -23.1488  -24.8450   18.5337 C   0  0  0  0  0  0  0  0  0  0  0  0
  -26.2099  -26.9866   14.5581 C   0  0  0  0  0  0  0  0  0  0  0  0
  -23.6623  -24.9202   19.8363 C   0  0  0  0  0  0  0  0  0  0  0  0
  -25.2854  -20.1737   22.3236 C   0  0  0  0  0  0  0  0  0  0  0  0
  -26.9775  -18.5564   22.8766 C   0  0  0  0  0  0  0  0  0  0  0  0
  -22.5023   -8.0823   21.6220 C   0  0  0  0  0  0  0  0  0  0  0  0
  -23.9550  -22.5069   19.8471 C   0  0  0  0  0  0  0  0  0  0  0  0
  -20.9873   -6.9508   23.0172 C   0  0  0  0  0  0  0  0  0  0  0  0
  -26.6260  -19.8112   22.3915 C   0  0  0  0  0  0  0  0  0  0  0  0
  -19.2918   -6.9820   25.2324 C   0  0  0  0  0  0  0  0  0  0  0  0
  -21.2093   -6.0725   24.0778 C   0  0  0  0  0  0  0  0  0  0  0  0
  -24.5968  -11.6420   20.7058 C   0  0  0  0  0  0  0  0  0  0  0  0
  -24.3422  -19.2525   22.7497 C   0  0  0  0  0  0  0  0  0  0  0  0
  -25.9585  -17.7077   23.2781 C   0  0  0  0  0  0  0  0  0  0  0  0
  -25.1499  -13.7371   20.3317 C   0  0  0  0  0  0  0  0  0  0  0  0
  -22.7491  -13.4145   20.9486 C   0  0  0  0  0  0  0  0  0  0  0  0
  -24.7580  -27.5154   17.9145 C   0  0  0  0  0  0  0  0  0  0  0  0
  -23.0824  -28.6507   20.4495 C   0  0  0  0  0  0  0  0  0  0  0  0
  -21.3784  -27.9824   23.3298 C   0  0  0  0  0  0  0  0  0  0  0  0
  -30.5266  -15.1426   20.8421 C   0  0  0  0  0  0  0  0  0  0  0  0
  -26.1964  -29.2135   13.3206 C   0  0  0  0  0  0  0  0  0  0  0  0
  -22.6821  -26.0874   17.8259 C   0  0  0  0  0  0  0  0  0  0  0  0
  -23.7978  -26.2338   20.5607 C   0  0  0  0  0  0  0  0  0  0  0  0
  -25.8393  -29.8549   14.6590 C   0  0  0  0  0  0  0  0  0  0  0  0
  -29.7388  -12.4774   18.6166 C   0  0  0  0  0  0  0  0  0  0  0  0
  -26.5903  -29.1701   15.7964 C   0  0  0  0  0  0  0  0  0  0  0  0
  -28.2909  -12.1267   18.9640 C   0  0  0  0  0  0  0  0  0  0  0  0
  -30.5378  -12.8695   19.8575 C   0  0  0  0  0  0  0  0  0  0  0  0
  -28.4864  -13.5922   21.0164 C   0  0  0  0  0  0  0  0  0  0  0  0
  -26.2058  -27.6891   15.8985 C   0  0  1  0  0  0  0  0  0  0  0  0
  -23.3318  -27.3597   18.3612 C   0  0  1  0  0  0  0  0  0  0  0  0
  -27.6259  -13.2443   19.7897 C   0  0  2  0  0  0  0  0  0  0  0  0
  -22.8866  -19.5858   22.7010 C   0  0  0  0  0  0  0  0  0  0  0  0
  -26.2711  -16.3467   23.8096 C   0  0  0  0  0  0  0  0  0  0  0  0
  -20.1557  -29.1181   25.2040 C   0  0  0  0  0  0  0  0  0  0  0  0
  -25.7470  -29.4946   21.6733 C   0  0  0  0  0  0  0  0  0  0  0  0
  -24.5808  -29.7318   23.8760 C   0  0  0  0  0  0  0  0  0  0  0  0
  -23.9000  -31.1585   21.9463 C   0  0  0  0  0  0  0  0  0  0  0  0
  -18.8472  -26.5964   22.6731 C   0  0  0  0  0  0  0  0  0  0  0  0
  -28.1154  -21.5733   22.9685 C   0  0  0  0  0  0  0  0  0  0  0  0
  -24.8810  -21.5218   21.8036 C   0  0  0  0  0  0  0  0  0  1  0  0
  -29.2895  -18.4764   21.9417 C   0  0  0  0  0  0  0  0  0  0  0  0
  -30.3582  -17.3967   21.8667 C   0  0  0  0  0  0  0  0  0  0  0  0
  -23.3047  -28.7014   21.9418 C   0  0  1  0  0  0  0  0  0  0  0  0
  -20.0307  -28.4625   23.8374 C   0  0  2  0  0  0  0  0  0  0  0  0
  -24.3825  -29.7469   22.3452 C   0  0  0  0  0  0  0  0  0  0  0  0
  -25.8956  -11.5953   20.3973 N   0  0  0  0  0  0  0  0  0  0  0  0
  -24.6452  -18.0245   23.2269 N   0  0  0  0  0  0  0  0  0  0  0  0
  -26.2028  -12.8845   20.1749 N   0  0  0  0  0  0  0  0  0  0  0  0
  -23.3335  -27.4211   19.8242 N   0  0  0  0  0  0  0  0  0  0  0  0
  -29.8538  -13.9346   20.5949 N   0  0  0  0  0  0  0  0  0  0  0  0
  -25.2840  -15.0675   20.1467 N   0  0  0  0  0  0  0  0  0  0  0  0
  -21.7700  -12.4728   21.2933 N   0  0  0  0  0  0  0  0  0  0  0  0
  -28.3279  -18.1660   22.9557 N   0  0  0  0  0  0  0  0  0  0  0  0
  -24.9177  -27.5446   16.5423 N   0  0  0  0  0  0  0  0  0  0  0  0
  -21.9951  -28.9312   22.5420 N   0  0  0  0  0  0  0  0  0  0  0  0
  -29.8040  -16.1012   21.5418 N   0  0  0  0  0  0  0  0  0  0  0  0
  -19.0821  -27.3187   23.9499 N   0  3  0  0  0  0  0  0  0  0  0  0
  -22.4343  -14.6261   20.8684 O   0  0  0  0  0  0  0  0  0  0  0  0
  -25.6474  -27.6039   18.7528 O   0  0  0  0  0  0  0  0  0  0  0  0
  -22.6932  -29.6627   19.8613 O   0  0  0  0  0  0  0  0  0  0  0  0
  -21.8398  -26.8776   23.6077 O   0  0  0  0  0  0  0  0  0  0  0  0
  -31.6835  -15.3533   20.4624 O   0  0  0  0  0  0  0  0  0  0  0  0
  -21.8285   -6.9372   21.9173 O   0  0  0  0  0  0  0  0  0  0  0  0
  -27.5901  -20.6858   21.9843 O   0  0  0  0  0  0  0  0  0  0  0  0
  -24.3521  -21.3732   20.4866 O   0  0  0  0  0  0  0  0  0  1  0  0
  -18.4785   -6.9980   26.2966 F   0  0  0  0  0  0  0  0  0  0  0  0
  -22.2361   -5.2122   24.0389 F   0  0  0  0  0  0  0  0  0  0  0  0
  1  2  1  0  0  0  0
  1  5  2  0  0  0  0
  2  6  2  0  0  0  0
  3  8  2  0  0  0  0
  3 15  1  0  0  0  0
  4  9  1  0  0  0  0
  4 15  2  0  0  0  0
  5 17  1  0  0  0  0
  6 19  1  0  0  0  0
  7 10  2  0  0  0  0
  7 18  1  0  0  0  0
  8 23  1  0  0  0  0
  9 23  2  0  0  0  0
 10 24  1  0  0  0  0
 11 12  2  0  0  0  0
 11 25  1  0  0  0  0
 12 27  1  0  0  0  0
 13 20  1  0  0  0  0
 13 24  2  0  0  0  0
 14 27  2  0  0  0  0
 14 28  1  0  0  0  0
 15 29  1  0  0  0  0
 16 29  1  0  0  0  0
 16 32  2  0  0  0  0
 16 33  1  0  0  0  0
 17 19  2  0  0  0  0
 17 38  1  0  0  0  0
 18 20  2  0  0  0  0
 18 39  1  0  0  0  0
 19 47  1  0  0  0  0
 20 40  1  0  0  0  0
 21 26  2  0  0  0  0
 21 30  1  0  0  0  0
 21 58  1  0  0  0  0
 22 26  1  0  0  0  0
 22 31  2  0  0  0  0
 22 71  1  0  0  0  0
 23 81  1  0  0  0  0
 24 83  1  0  0  0  0
 25 28  2  0  0  0  0
 25 81  1  0  0  0  0
 26 82  1  0  0  0  0
 27 84  1  0  0  0  0
 28 85  1  0  0  0  0
 29 64  2  0  0  0  0
 30 50  1  0  0  0  0
 30 65  2  0  0  0  0
 31 51  1  0  0  0  0
 31 65  1  0  0  0  0
 32 66  1  0  0  0  0
 32 69  1  0  0  0  0
 33 70  1  0  0  0  0
 33 76  2  0  0  0  0
 34 48  1  0  0  0  0
 34 72  1  0  0  0  0
 34 77  2  0  0  0  0
 35 61  1  0  0  0  0
 35 67  1  0  0  0  0
 35 78  2  0  0  0  0
 36 62  1  0  0  0  0
 36 73  1  0  0  0  0
 36 79  2  0  0  0  0
 37 68  1  0  0  0  0
 37 74  1  0  0  0  0
 37 80  2  0  0  0  0
 38 41  1  0  0  0  0
 39 48  1  0  0  0  0
 40 67  1  0  0  0  0
 41 43  1  0  0  0  0
 42 44  1  0  0  0  0
 42 45  1  0  0  0  0
 43 47  1  0  0  0  0
 44 49  1  0  0  0  0
 45 68  1  0  0  0  0
 46 49  1  0  0  0  0
 46 68  1  0  0  0  0
 47 72  1  0  0  0  0
 48 67  1  0  0  0  0
 49 66  1  0  0  0  0
 52 62  1  0  0  0  0
 53 63  1  0  0  0  0
 54 63  1  0  0  0  0
 55 63  1  0  0  0  0
 56 75  1  0  0  0  0
 57 82  1  0  0  0  0
 58 83  1  0  0  0  0
 59 60  1  0  0  0  0
 59 71  1  0  0  0  0
 60 74  1  0  0  0  0
 61 63  1  0  0  0  0
 61 73  1  0  0  0  0
 62 75  1  0  0  0  0
 64 66  1  0  0  0  0
M  CHG  1  75   1
M  ISO  4  37 100  58 101  74 100  83 101
M  END
> <Batch ID>
0156

> <Smiles>
CNC(C)C(=O)NC(C(=O)N1Cc2cc([101O:1][101CH2:1]c3c(C)nc(C)c(NCC[100NH:0][100C:0](=O)N4CCCC(n5nc(-c6ccc(Oc7ccc(F)cc7F)cc6)c(C(N)=O)c5N)C4)c3OC)ccc2CC1C(=O)NC1CCCc2ccccc21)C(C)(C)C

> <Shape>
0.257

> <Color>
0.186

> <Negative vol penalty>
0.000

$$$$

  -OEChem-04052321563D

 86 95  0     1  0  0  0  0  0999 V2000
  -25.3352  -38.6343   23.4061 C   0  0  0  0  0  0  0  0  0  0  0  0
  -26.1315  -37.8725   22.5571 C   0  0  0  0  0  0  0  0  0  0  0  0
  -23.5518   -9.6349   21.7271 C   0  0  0  0  0  0  0  0  0  0  0  0
  -24.2013   -8.4611   19.7177 C   0  0  0  0  0  0  0  0  0  0  0  0
  -24.6725  -38.0256   24.4711 C   0  0  0  0  0  0  0  0  0  0  0  0
  -26.2665  -36.5016   22.7732 C   0  0  0  0  0  0  0  0  0  0  0  0
  -27.1535  -30.3492   19.2126 C   0  0  0  0  0  0  0  0  0  0  0  0
  -22.6226   -8.6342   22.0113 C   0  0  0  0  0  0  0  0  0  0  0  0
  -23.2721   -7.4604   20.0019 C   0  0  0  0  0  0  0  0  0  0  0  0
  -27.9816  -29.2279   19.1895 C   0  0  0  0  0  0  0  0  0  0  0  0
  -20.3331   -6.2069   23.4542 C   0  0  0  0  0  0  0  0  0  0  0  0
  -20.2728   -5.7310   24.7639 C   0  0  0  0  0  0  0  0  0  0  0  0
  -26.7265  -28.2709   21.0138 C   0  0  0  0  0  0  0  0  0  0  0  0
  -27.0836  -25.4733   19.1691 C   0  0  0  0  0  0  0  0  0  0  0  0
  -22.5816   -5.0345   24.6172 C   0  0  0  0  0  0  0  0  0  0  0  0
  -24.3411   -9.5484   20.5802 C   0  0  0  0  0  0  0  0  0  0  0  0
  -26.6478  -10.6321   20.6917 C   0  0  0  0  0  0  0  0  0  0  0  0
  -24.7917  -36.6449   24.6946 C   0  0  0  0  0  0  0  0  0  0  0  0
  -26.1106  -30.4448   20.1452 C   0  0  0  0  0  0  0  0  0  0  0  0
  -25.6058  -35.8740   23.8430 C   0  0  0  0  0  0  0  0  0  0  0  0
  -25.8850  -29.3933   21.0450 C   0  0  0  0  0  0  0  0  0  0  0  0
  -26.4668  -24.2240   19.2340 C   0  0  0  0  0  0  0  0  0  0  0  0
  -27.6785  -23.7311   21.2653 C   0  0  0  0  0  0  0  0  0  0  0  0
  -28.2953  -24.9805   21.2004 C   0  0  0  0  0  0  0  0  0  0  0  0
  -26.7642  -23.3529   20.2821 C   0  0  0  0  0  0  0  0  0  0  0  0
  -22.4827   -7.5470   21.1488 C   0  0  0  0  0  0  0  0  0  0  0  0
  -27.7701  -28.1898   20.0921 C   0  0  0  0  0  0  0  0  0  0  0  0
  -21.5177   -6.0965   22.7259 C   0  0  0  0  0  0  0  0  0  0  0  0
  -27.9979  -25.8516   20.1523 C   0  0  0  0  0  0  0  0  0  1  0  0
  -21.3970   -5.1448   25.3455 C   0  0  0  0  0  0  0  0  0  0  0  0
  -22.6419   -5.5103   23.3074 C   0  0  0  0  0  0  0  0  0  0  0  0
  -25.3008  -10.5820   20.2858 C   0  0  0  0  0  0  0  0  0  0  0  0
  -27.1236  -11.8053   20.1591 C   0  0  0  0  0  0  0  0  0  0  0  0
  -27.4016   -9.7012   21.4797 C   0  0  0  0  0  0  0  0  0  0  0  0
  -25.4085  -32.4259   22.5297 C   0  0  0  0  0  0  0  0  0  0  0  0
  -22.6624  -30.7025   22.6354 C   0  0  0  0  0  0  0  0  0  0  0  0
  -21.0524  -27.7726   21.9492 C   0  0  0  0  0  0  0  0  0  0  0  0
  -26.7655  -17.0465   19.0604 C   0  0  0  0  0  0  0  0  0  0  0  0
  -24.0940  -36.0396   25.8869 C   0  0  0  0  0  0  0  0  0  0  0  0
  -25.2095  -31.6491   20.1395 C   0  0  0  0  0  0  0  0  0  0  0  0
  -24.7665  -29.4382   22.0527 C   0  0  0  0  0  0  0  0  0  0  0  0
  -23.9901  -34.5179   25.8242 C   0  0  0  0  0  0  0  0  0  0  0  0
  -25.0909  -14.9648   16.7819 C   0  0  0  0  0  0  0  0  0  0  0  0
  -25.3297  -33.9074   25.4247 C   0  0  0  0  0  0  0  0  0  0  0  0
  -25.1020  -13.6297   17.5260 C   0  0  0  0  0  0  0  0  0  0  0  0
  -25.0998  -20.1268   19.4147 C   0  0  0  0  0  0  0  0  0  0  0  0
  -27.6099  -20.3855   19.4394 C   0  0  0  0  0  0  0  0  0  0  0  0
  -24.8145  -16.1414   17.7197 C   0  0  0  0  0  0  0  0  0  0  0  0
  -25.2459  -18.9718   18.4196 C   0  0  0  0  0  0  0  0  0  0  0  0
  -27.7041  -19.2483   18.4260 C   0  0  0  0  0  0  0  0  0  0  0  0
  -25.7329  -14.8688   19.6317 C   0  0  0  0  0  0  0  0  0  0  0  0
  -25.7574  -34.3800   24.0300 C   0  0  1  0  0  0  0  0  0  0  0  0
  -24.4986  -31.8697   21.4712 C   0  0  1  0  0  0  0  0  0  0  0  0
  -26.0659  -13.6737   18.7251 C   0  0  1  0  0  0  0  0  0  0  0  0
  -26.2677  -21.1104   19.3100 C   0  0  0  0  0  0  0  0  0  0  0  0
  -25.4918  -23.8460   18.1663 C   0  0  0  0  0  0  0  0  0  0  0  0
  -28.0004  -22.7997   22.3920 C   0  0  0  0  0  0  0  0  0  0  0  0
  -29.2776  -25.3934   22.2498 C   0  0  0  0  0  0  0  0  0  0  0  0
  -18.8214  -26.6485   22.1863 C   0  0  0  0  0  0  0  0  0  0  0  0
  -23.2105  -30.2456   25.6020 C   0  0  0  0  0  0  0  0  0  0  0  0
  -21.5302  -28.3901   25.5553 C   0  0  0  0  0  0  0  0  0  0  0  0
  -20.8204  -30.7264   25.0447 C   0  0  0  0  0  0  0  0  0  0  0  0
  -20.7600  -27.4770   19.0190 C   0  0  0  0  0  0  0  0  0  0  0  0
  -22.2095  -29.4561   23.3568 C   0  0  1  0  0  0  0  0  0  0  0  0
  -19.7158  -27.4887   21.2880 C   0  0  2  0  0  0  0  0  0  0  0  0
  -21.9650  -29.7043   24.8721 C   0  0  0  0  0  0  0  0  0  0  0  0
  -24.9437  -11.6395   19.5521 N   0  0  0  0  0  0  0  0  0  0  0  0
  -26.0734  -12.3651   19.4928 N   0  0  0  0  0  0  0  0  0  0  0  0
  -23.9166  -30.6396   22.0118 N   0  0  0  0  0  0  0  0  0  0  0  0
  -25.7314  -16.1182   18.8679 N   0  0  0  0  0  0  0  0  0  0  0  0
  -26.5656  -18.3373   18.5486 N   0  0  0  0  0  0  0  0  0  0  0  0
  -28.3336  -12.4025   20.2005 N   0  0  0  0  0  0  0  0  0  0  0  0
  -26.7586   -8.5469   21.9470 N   0  0  0  0  0  0  0  0  0  0  0  0
  -26.1503  -22.1145   20.3444 N   0  0  0  0  0  0  0  0  0  0  0  0
  -25.0248  -33.6645   23.0073 N   0  0  0  0  0  0  0  0  0  0  0  0
  -21.0392  -28.9690   22.6347 N   0  0  0  0  0  0  0  0  0  0  0  0
  -19.9173  -26.7549   20.0066 N   0  3  0  0  0  0  0  0  0  0  0  0
  -28.6052   -9.8955   21.7748 O   0  0  0  0  0  0  0  0  0  0  0  0
  -26.3854  -31.7786   22.8878 O   0  0  0  0  0  0  0  0  0  0  0  0
  -21.9272  -31.6929   22.6195 O   0  0  0  0  0  0  0  0  0  0  0  0
  -22.0111  -27.0078   21.8690 O   0  0  0  0  0  0  0  0  0  0  0  0
  -27.8066  -16.7403   19.6549 O   0  0  0  0  0  0  0  0  0  0  0  0
  -21.5763   -6.5702   21.4259 O   0  0  0  0  0  0  0  0  0  0  0  0
  -28.5911  -27.0757   20.0718 O   0  0  0  0  0  0  0  0  0  1  0  0
  -21.3393   -4.6893   26.6037 F   0  0  0  0  0  0  0  0  0  0  0  0
  -23.7830   -5.4026   22.6131 F   0  0  0  0  0  0  0  0  0  0  0  0
  1  2  1  0  0  0  0
  1  5  2  0  0  0  0
  2  6  2  0  0  0  0
  3  8  2  0  0  0  0
  3 16  1  0  0  0  0
  4  9  1  0  0  0  0
  4 16  2  0  0  0  0
  5 18  1  0  0  0  0
  6 20  1  0  0  0  0
  7 10  2  0  0  0  0
  7 19  1  0  0  0  0
  8 26  1  0  0  0  0
  9 26  2  0  0  0  0
 10 27  1  0  0  0  0
 11 12  2  0  0  0  0
 11 28  1  0  0  0  0
 12 30  1  0  0  0  0
 13 21  1  0  0  0  0
 13 27  2  0  0  0  0
 14 22  2  0  0  0  0
 14 29  1  0  0  0  0
 15 30  2  0  0  0  0
 15 31  1  0  0  0  0
 16 32  1  0  0  0  0
 17 32  1  0  0  0  0
 17 33  2  0  0  0  0
 17 34  1  0  0  0  0
 18 20  2  0  0  0  0
 18 39  1  0  0  0  0
 19 21  2  0  0  0  0
 19 40  1  0  0  0  0
 20 52  1  0  0  0  0
 21 41  1  0  0  0  0
 22 25  1  0  0  0  0
 22 56  1  0  0  0  0
 23 24  1  0  0  0  0
 23 25  2  0  0  0  0
 23 57  1  0  0  0  0
 24 29  2  0  0  0  0
 24 58  1  0  0  0  0
 25 74  1  0  0  0  0
 26 83  1  0  0  0  0
 27 84  1  0  0  0  0
 28 31  2  0  0  0  0
 28 83  1  0  0  0  0
 29 84  1  0  0  0  0
 30 85  1  0  0  0  0
 31 86  1  0  0  0  0
 32 67  2  0  0  0  0
 33 68  1  0  0  0  0
 33 72  1  0  0  0  0
 34 73  1  0  0  0  0
 34 78  2  0  0  0  0
 35 53  1  0  0  0  0
 35 75  1  0  0  0  0
 35 79  2  0  0  0  0
 36 64  1  0  0  0  0
 36 69  1  0  0  0  0
 36 80  2  0  0  0  0
 37 65  1  0  0  0  0
 37 76  1  0  0  0  0
 37 81  2  0  0  0  0
 38 70  1  0  0  0  0
 38 71  1  0  0  0  0
 38 82  2  0  0  0  0
 39 42  1  0  0  0  0
 40 53  1  0  0  0  0
 41 69  1  0  0  0  0
 42 44  1  0  0  0  0
 43 45  1  0  0  0  0
 43 48  1  0  0  0  0
 44 52  1  0  0  0  0
 45 54  1  0  0  0  0
 46 49  1  0  0  0  0
 46 55  1  0  0  0  0
 47 50  1  0  0  0  0
 47 55  1  0  0  0  0
 48 70  1  0  0  0  0
 49 71  1  0  0  0  0
 50 71  1  0  0  0  0
 51 54  1  0  0  0  0
 51 70  1  0  0  0  0
 52 75  1  0  0  0  0
 53 69  1  0  0  0  0
 54 68  1  0  0  0  0
 55 74  1  0  0  0  0
 59 65  1  0  0  0  0
 60 66  1  0  0  0  0
 61 66  1  0  0  0  0
 62 66  1  0  0  0  0
 63 77  1  0  0  0  0
 64 66  1  0  0  0  0
 64 76  1  0  0  0  0
 65 77  1  0  0  0  0
 67 68  1  0  0  0  0
M  CHG  1  77   1
M  ISO  4  29 101  38 100  71 100  84 101
M  END
> <Batch ID>
0156

> <Smiles>
CNC(C)C(=O)NC(C(=O)N1Cc2cc([101O:1][101c:1]3cc(C)c(NC4CC[100N:0]([100C:0](=O)N5CCCC(n6nc(-c7ccc(Oc8ccc(F)cc8F)cc7)c(C(N)=O)c6N)C5)CC4)c(C)c3C)ccc2CC1C(=O)NC1CCCc2ccccc21)C(C)(C)C

> <Shape>
0.285

> <Color>
0.098

> <Negative vol penalty>
0.000

$$$$
