
  -OEChem-04052321593D

 86 95  0     1  0  0  0  0  0999 V2000
  -17.1925  -26.7044   22.2703 C   0  0  0  0  0  0  0  0  0  0  0  0
  -18.4569  -26.1268   22.2131 C   0  0  0  0  0  0  0  0  0  0  0  0
  -23.9356   -9.6994   21.8760 C   0  0  0  0  0  0  0  0  0  0  0  0
  -24.5317  -11.0443   23.7925 C   0  0  0  0  0  0  0  0  0  0  0  0
  -17.0297  -28.0547   21.9636 C   0  0  0  0  0  0  0  0  0  0  0  0
  -19.5591  -26.8991   21.8482 C   0  0  0  0  0  0  0  0  0  0  0  0
  -25.2831  -26.3758   23.9620 C   0  0  0  0  0  0  0  0  0  0  0  0
  -23.4738   -8.6939   22.7252 C   0  0  0  0  0  0  0  0  0  0  0  0
  -24.0698  -10.0388   24.6418 C   0  0  0  0  0  0  0  0  0  0  0  0
  -26.4192  -25.7520   23.4484 C   0  0  0  0  0  0  0  0  0  0  0  0
  -20.7174   -8.0733   24.5828 C   0  0  0  0  0  0  0  0  0  0  0  0
  -19.4909   -7.4820   24.2802 C   0  0  0  0  0  0  0  0  0  0  0  0
  -30.5279  -18.9595   18.8791 C   0  0  0  0  0  0  0  0  0  0  0  0
  -27.1479  -27.8562   22.5209 C   0  0  0  0  0  0  0  0  0  0  0  0
  -20.5759   -5.3322   24.0839 C   0  0  0  0  0  0  0  0  0  0  0  0
  -30.2638  -20.3100   18.8174 C   0  0  0  0  0  0  0  0  0  0  0  0
  -24.4646  -10.8746   22.4097 C   0  0  0  0  0  0  0  0  0  0  0  0
  -24.2024  -12.9898   21.0080 C   0  0  0  0  0  0  0  0  0  0  0  0
  -18.1320  -28.8462   21.6041 C   0  0  0  0  0  0  0  0  0  0  0  0
  -25.0650  -27.7446   23.7492 C   0  0  0  0  0  0  0  0  0  0  0  0
  -19.4107  -28.2610   21.5352 C   0  0  0  0  0  0  0  0  0  0  0  0
  -26.0095  -28.4956   23.0350 C   0  0  0  0  0  0  0  0  0  0  0  0
  -29.4126  -18.3380   19.4930 C   0  0  0  0  0  0  0  0  0  0  0  0
  -23.5408   -8.8635   24.1081 C   0  0  0  0  0  0  0  0  0  0  0  0
  -27.3504  -26.4916   22.7253 C   0  0  0  0  0  0  0  0  0  0  0  0
  -21.8732   -7.2942   24.6358 C   0  0  0  0  0  0  0  0  0  0  0  0
  -19.4201   -6.1114   24.0308 C   0  0  0  0  0  0  0  0  0  0  0  0
  -21.8024   -5.9236   24.3864 C   0  0  0  0  0  0  0  0  0  0  0  0
  -24.9424  -11.9134   21.5329 C   0  0  0  0  0  0  0  0  0  0  0  0
  -28.5009  -19.3276   19.7877 C   0  0  0  0  0  0  0  0  0  0  0  0
  -25.1048  -13.6850   20.2406 C   0  0  0  0  0  0  0  0  0  0  0  0
  -22.8227  -13.3309   21.1972 C   0  0  0  0  0  0  0  0  0  0  0  0
  -22.8262  -29.4576   22.2805 C   0  0  0  0  0  0  0  0  0  0  0  0
  -24.4650  -31.9581   23.5390 C   0  0  0  0  0  0  0  0  0  0  0  0
  -27.4134  -33.1715   24.7562 C   0  0  0  0  0  0  0  0  0  0  0  0
  -30.1442  -15.9274   19.4797 C   0  0  0  0  0  0  0  0  0  0  0  0
  -17.8994  -30.2901   21.2355 C   0  0  0  0  0  0  0  0  0  0  0  0
  -23.8477  -28.4081   24.3326 C   0  0  0  0  0  0  0  0  0  0  0  0
  -25.8321  -29.9720   22.7960 C   0  0  0  0  0  0  0  0  0  0  0  0
  -19.1752  -31.1282   21.2214 C   0  0  0  0  0  0  0  0  0  0  0  0
  -29.7818  -12.4638   18.7386 C   0  0  0  0  0  0  0  0  0  0  0  0
  -20.2869  -30.3958   20.4766 C   0  0  0  0  0  0  0  0  0  0  0  0
  -28.4296  -12.1004   19.3563 C   0  0  0  0  0  0  0  0  0  0  0  0
  -26.8707  -23.5426   18.4570 C   0  0  0  0  0  0  0  0  0  0  0  0
  -30.5416  -13.4770   19.5928 C   0  0  0  0  0  0  0  0  0  0  0  0
  -28.4370  -14.3283   20.5493 C   0  0  0  0  0  0  0  0  0  0  0  0
  -27.9122  -24.6247   18.7085 C   0  0  0  0  0  0  0  0  0  0  0  0
  -29.4491  -22.9139   19.7233 C   0  0  0  0  0  0  0  0  0  0  0  0
  -20.6345  -29.0717   21.1676 C   0  0  1  0  0  0  0  0  0  0  0  0
  -23.4706  -29.7010   23.6158 C   0  0  1  0  0  0  0  0  0  0  0  0
  -27.4818  -22.1419   18.2829 C   0  0  2  0  0  0  0  0  0  0  0  0
  -27.6065  -13.3597   19.6916 C   0  0  2  0  0  0  0  0  0  0  0  0
  -28.3956  -21.8184   19.4939 C   0  0  1  0  0  0  0  0  0  0  0  0
  -27.1708  -19.2423   20.4289 C   0  0  0  0  0  0  0  0  0  0  0  0
  -28.1946  -22.0214   16.9287 C   0  0  0  0  0  0  0  0  0  0  0  0
  -28.4544  -35.2627   25.6731 C   0  0  0  0  0  0  0  0  0  0  0  0
  -24.6167  -33.1158   20.7200 C   0  0  0  0  0  0  0  0  0  0  0  0
  -26.4275  -34.6477   21.5216 C   0  0  0  0  0  0  0  0  0  0  0  0
  -24.1430  -34.7938   22.5127 C   0  0  0  0  0  0  0  0  0  0  0  0
  -28.0118  -31.8755   27.3487 C   0  0  0  0  0  0  0  0  0  0  0  0
  -29.7310  -25.3339   20.2569 C   0  0  0  0  0  0  0  0  0  0  0  0
  -29.0070  -26.4253   21.0202 C   0  0  0  0  0  0  0  0  0  1  0  0
  -25.6169  -32.8201   23.0818 C   0  0  1  0  0  0  0  0  0  0  0  0
  -27.7352  -33.9656   26.0093 C   0  0  2  0  0  0  0  0  0  0  0  0
  -25.2037  -33.8161   21.9617 C   0  0  0  0  0  0  0  0  0  0  0  0
  -26.2167  -11.9199   21.1327 N   0  0  0  0  0  0  0  0  0  0  0  0
  -29.0288  -20.5221   19.3723 N   0  0  0  0  0  0  0  0  0  0  0  0
  -26.2844  -13.0089   20.3480 N   0  0  0  0  0  0  0  0  0  0  0  0
  -24.6226  -30.5739   23.3812 N   0  0  0  0  0  0  0  0  0  0  0  0
  -29.7013  -14.6448   19.8666 N   0  0  0  0  0  0  0  0  0  0  0  0
  -24.9964  -14.8025   19.4910 N   0  0  0  0  0  0  0  0  0  0  0  0
  -22.0377  -12.5089   22.0172 N   0  0  0  0  0  0  0  0  0  0  0  0
  -29.2469  -16.9568   19.7623 N   0  0  0  0  0  0  0  0  0  0  0  0
  -21.4532  -29.3114   22.3366 N   0  0  0  0  0  0  0  0  0  0  0  0
  -26.1510  -33.4571   24.2806 N   0  0  0  0  0  0  0  0  0  0  0  0
  -28.7677  -24.2602   19.9052 N   0  3  1  0  0  0  0  0  0  0  0  0
  -28.6054  -33.1678   26.9189 N   0  3  0  0  0  0  0  0  0  0  0  0
  -22.2974  -14.3256   20.6420 O   0  0  0  0  0  0  0  0  0  0  0  0
  -23.5228  -29.4077   21.2735 O   0  0  0  0  0  0  0  0  0  0  0  0
  -23.4653  -32.4928   24.0250 O   0  0  0  0  0  0  0  0  0  0  0  0
  -28.2043  -32.3800   24.2477 O   0  0  0  0  0  0  0  0  0  0  0  0
  -31.2269  -16.0965   18.9130 O   0  0  0  0  0  0  0  0  0  0  0  0
  -23.0900   -7.8827   24.9371 O   0  0  0  0  0  0  0  0  0  0  0  0
  -28.4600  -25.8851   22.2224 O   0  0  0  0  0  0  0  0  0  1  0  0
  -18.2420   -5.5434   23.7418 F   0  0  0  0  0  0  0  0  0  0  0  0
  -22.9092   -5.1697   24.4371 F   0  0  0  0  0  0  0  0  0  0  0  0
  1  2  1  0  0  0  0
  1  5  2  0  0  0  0
  2  6  2  0  0  0  0
  3  8  2  0  0  0  0
  3 17  1  0  0  0  0
  4  9  1  0  0  0  0
  4 17  2  0  0  0  0
  5 19  1  0  0  0  0
  6 21  1  0  0  0  0
  7 10  2  0  0  0  0
  7 20  1  0  0  0  0
  8 24  1  0  0  0  0
  9 24  2  0  0  0  0
 10 25  1  0  0  0  0
 11 12  2  0  0  0  0
 11 26  1  0  0  0  0
 12 27  1  0  0  0  0
 13 16  2  0  0  0  0
 13 23  1  0  0  0  0
 14 22  1  0  0  0  0
 14 25  2  0  0  0  0
 15 27  2  0  0  0  0
 15 28  1  0  0  0  0
 16 67  1  0  0  0  0
 17 29  1  0  0  0  0
 18 29  1  0  0  0  0
 18 31  2  0  0  0  0
 18 32  1  0  0  0  0
 19 21  2  0  0  0  0
 19 37  1  0  0  0  0
 20 22  2  0  0  0  0
 20 38  1  0  0  0  0
 21 49  1  0  0  0  0
 22 39  1  0  0  0  0
 23 30  2  0  0  0  0
 23 73  1  0  0  0  0
 24 83  1  0  0  0  0
 25 84  1  0  0  0  0
 26 28  2  0  0  0  0
 26 83  1  0  0  0  0
 27 85  1  0  0  0  0
 28 86  1  0  0  0  0
 29 66  2  0  0  0  0
 30 54  1  0  0  0  0
 30 67  1  0  0  0  0
 31 68  1  0  0  0  0
 31 71  1  0  0  0  0
 32 72  1  0  0  0  0
 32 78  2  0  0  0  0
 33 50  1  0  0  0  0
 33 74  1  0  0  0  0
 33 79  2  0  0  0  0
 34 63  1  0  0  0  0
 34 69  1  0  0  0  0
 34 80  2  0  0  0  0
 35 64  1  0  0  0  0
 35 75  1  0  0  0  0
 35 81  2  0  0  0  0
 36 70  1  0  0  0  0
 36 73  1  0  0  0  0
 36 82  2  0  0  0  0
 37 40  1  0  0  0  0
 38 50  1  0  0  0  0
 39 69  1  0  0  0  0
 40 42  1  0  0  0  0
 41 43  1  0  0  0  0
 41 45  1  0  0  0  0
 42 49  1  0  0  0  0
 43 52  1  0  0  0  0
 44 47  1  0  0  0  0
 44 51  1  0  0  0  0
 45 70  1  0  0  0  0
 46 52  1  0  0  0  0
 46 70  1  0  0  0  0
 47 76  1  0  0  0  0
 48 53  1  0  0  0  0
 48 76  1  0  0  0  0
 49 74  1  0  0  0  0
 50 69  1  0  0  0  0
 51 53  1  0  0  0  0
 51 55  1  0  0  0  0
 52 68  1  0  0  0  0
 53 67  1  0  0  0  0
 56 64  1  0  0  0  0
 57 65  1  0  0  0  0
 58 65  1  0  0  0  0
 59 65  1  0  0  0  0
 60 77  1  0  0  0  0
 61 62  1  0  0  0  0
 61 76  1  0  0  0  0
 62 84  1  0  0  0  0
 63 65  1  0  0  0  0
 63 75  1  0  0  0  0
 64 77  1  0  0  0  0
 66 68  1  0  0  0  0
M  CHG  2  76   1  77   1
M  ISO  4  36 100  62 101  73 100  84 101
M  END
> <Batch ID>
0157

> <Smiles>
CNC(C)C(=O)NC(C(=O)N1Cc2cc([101O:1][101CH2:1]CN3CCC(C)C(n4ccc([100NH:0][100C:0](=O)N5CCCC(n6nc(-c7ccc(Oc8ccc(F)cc8F)cc7)c(C(N)=O)c6N)C5)c4C)C3)ccc2CC1C(=O)NC1CCCc2ccccc21)C(C)(C)C

> <Shape>
0.329

> <Color>
0.150

> <Negative vol penalty>
0.000

$$$$

  -OEChem-04052321593D

 98109  0     1  0  0  0  0  0999 V2000
  -20.5890  -14.2237   27.4186 C   0  0  0  0  0  0  0  0  0  0  0  0
  -20.4564  -15.4725   26.8200 C   0  0  0  0  0  0  0  0  0  0  0  0
  -28.8998  -23.3174   20.8544 C   0  0  0  0  0  0  0  0  0  0  0  0
  -27.5584  -23.9311   18.9410 C   0  0  0  0  0  0  0  0  0  0  0  0
  -21.6132  -13.9975   28.3372 C   0  0  0  0  0  0  0  0  0  0  0  0
  -21.3474  -16.4962   27.1404 C   0  0  0  0  0  0  0  0  0  0  0  0
  -23.4421  -20.8617   23.3908 C   0  0  0  0  0  0  0  0  0  0  0  0
  -28.3485  -22.0364   20.8300 C   0  0  0  0  0  0  0  0  0  0  0  0
  -27.0071  -22.6501   18.9166 C   0  0  0  0  0  0  0  0  0  0  0  0
  -23.0637  -22.1889   23.1925 C   0  0  0  0  0  0  0  0  0  0  0  0
  -27.5613  -18.4942   21.0491 C   0  0  0  0  0  0  0  0  0  0  0  0
  -28.4286  -17.4120   21.1979 C   0  0  0  0  0  0  0  0  0  0  0  0
  -24.8043  -22.9042   24.7018 C   0  0  0  0  0  0  0  0  0  0  0  0
  -19.3109  -28.3983   21.8800 C   0  0  0  0  0  0  0  0  0  0  0  0
  -29.6249  -18.0980   19.2142 C   0  0  0  0  0  0  0  0  0  0  0  0
  -28.5047  -24.2648   19.9099 C   0  0  0  0  0  0  0  0  0  0  0  0
  -30.4319  -25.9328   19.8012 C   0  0  0  0  0  0  0  0  0  0  0  0
  -22.5230  -15.0161   28.6618 C   0  0  0  0  0  0  0  0  0  0  0  0
  -24.4991  -20.5446   24.2559 C   0  0  0  0  0  0  0  0  0  0  0  0
  -22.3839  -16.2838   28.0652 C   0  0  0  0  0  0  0  0  0  0  0  0
  -25.1957  -21.5725   24.9073 C   0  0  0  0  0  0  0  0  0  0  0  0
  -20.4420  -27.8865   22.5159 C   0  0  0  0  0  0  0  0  0  0  0  0
  -20.3625  -26.6853   23.2204 C   0  0  0  0  0  0  0  0  0  0  0  0
  -19.1518  -25.9958   23.2891 C   0  0  0  0  0  0  0  0  0  0  0  0
  -18.0207  -26.5076   22.6533 C   0  0  0  0  0  0  0  0  0  0  0  0
  -27.4022  -21.7027   19.8611 C   0  0  0  0  0  0  0  0  0  0  0  0
  -23.7429  -23.2102   23.8503 C   0  0  0  0  0  0  0  0  0  0  0  0
  -27.7257  -19.3783   19.9828 C   0  0  0  0  0  0  0  0  0  0  0  0
  -18.1002  -27.7089   21.9488 C   0  0  0  0  0  0  0  0  0  0  0  0
  -29.4604  -17.2139   20.2805 C   0  0  0  0  0  0  0  0  0  0  0  0
  -28.7576  -19.1802   19.0654 C   0  0  0  0  0  0  0  0  0  0  0  0
  -29.0734  -25.5885   19.9350 C   0  0  0  0  0  0  0  0  0  0  0  0
  -30.4495  -27.3031   19.8932 C   0  0  0  0  0  0  0  0  0  0  0  0
  -31.5755  -25.0893   19.6107 C   0  0  0  0  0  0  0  0  0  0  0  0
  -24.7724  -18.8705   26.9441 C   0  0  0  0  0  0  0  0  0  0  0  0
  -27.9362  -19.4506   26.5247 C   0  0  0  0  0  0  0  0  0  0  0  0
  -30.3641  -21.4214   25.1579 C   0  0  0  0  0  0  0  0  0  0  0  0
  -25.0796  -28.3408   21.2046 C   0  0  0  0  0  0  0  0  0  0  0  0
  -23.5851  -14.7383   29.6960 C   0  0  0  0  0  0  0  0  0  0  0  0
  -24.9123  -19.1099   24.4383 C   0  0  0  0  0  0  0  0  0  0  0  0
  -26.3506  -21.2863   25.8308 C   0  0  0  0  0  0  0  0  0  0  0  0
  -24.7150  -15.7647   29.6996 C   0  0  0  0  0  0  0  0  0  0  0  0
  -27.0842  -29.3242   18.2036 C   0  0  0  0  0  0  0  0  0  0  0  0
  -24.1500  -17.1808   29.6533 C   0  0  0  0  0  0  0  0  0  0  0  0
  -19.2341  -22.1078   23.7108 C   0  0  0  0  0  0  0  0  0  0  0  0
  -18.2561  -22.6114   22.6862 C   0  0  0  0  0  0  0  0  0  0  0  0
  -22.5565  -26.1171   26.3325 C   0  0  0  0  0  0  0  0  0  0  0  0
  -21.6390  -27.3048   26.2470 C   0  0  0  0  0  0  0  0  0  0  0  0
  -28.3856  -29.7777   18.8623 C   0  0  0  0  0  0  0  0  0  0  0  0
  -25.9015  -29.5268   19.1403 C   0  0  0  0  0  0  0  0  0  0  0  0
  -22.5528  -28.1884   21.1999 C   0  0  0  0  0  0  0  0  0  0  0  0
  -27.3694  -29.2657   21.1209 C   0  0  0  0  0  0  0  0  0  0  0  0
  -22.9167  -30.8862   22.2537 C   0  0  0  0  0  0  0  0  0  0  0  0
  -23.3457  -17.4122   28.3684 C   0  0  1  0  0  0  0  0  0  0  0  0
  -21.7466  -28.6577   22.4261 C   0  0  1  0  0  0  0  0  0  0  0  0
  -25.6706  -18.8673   25.7396 C   0  0  1  0  0  0  0  0  0  0  0  0
  -19.3705  -23.5013   23.1626 C   0  0  0  0  0  0  0  0  0  0  0  0
  -21.3730  -26.0875   25.4054 C   0  0  0  0  0  0  0  0  0  0  0  0
  -28.6173  -29.1017   20.2293 C   0  0  1  0  0  0  0  0  0  0  0  0
  -23.6910  -30.3951   21.0328 C   0  0  2  0  0  0  0  0  0  0  0  0
  -16.7190  -25.7741   22.7226 C   0  0  0  0  0  0  0  0  0  0  0  0
  -23.0885  -30.8807   19.7114 C   0  0  0  0  0  0  0  0  0  0  0  0
  -32.3282  -22.3320   23.8889 C   0  0  0  0  0  0  0  0  0  0  0  0
  -20.1294  -32.0267   23.0916 C   0  0  0  0  0  0  0  0  0  0  0  0
  -21.7549  -30.9493   24.6952 C   0  0  0  0  0  0  0  0  0  0  0  0
  -27.9809  -20.5641   29.3651 C   0  0  0  0  0  0  0  0  0  0  0  0
  -30.1825  -21.6328   28.8370 C   0  0  0  0  0  0  0  0  0  0  0  0
  -29.9550  -19.1496   28.7679 C   0  0  0  0  0  0  0  0  0  0  0  0
  -30.5817  -18.9732   23.5093 C   0  0  0  0  0  0  0  0  0  0  0  0
  -17.1793  -29.4567   20.6249 C   0  0  0  0  0  0  0  0  0  0  0  0
  -19.0659  -24.7072   24.0445 C   0  0  0  0  0  0  0  0  0  0  0  0
  -22.0002  -24.7537   23.3642 C   0  0  0  0  0  0  0  0  0  1  0  0
  -21.5776  -26.1386   23.9007 C   0  0  1  0  0  0  0  0  0  0  0  0
  -28.8882  -20.5431   26.9480 C   0  0  1  0  0  0  0  0  0  0  0  0
  -31.6154  -21.0778   24.3700 C   0  0  2  0  0  0  0  0  0  0  0  0
  -20.7995  -30.7352   23.5322 C   0  0  0  0  0  0  0  0  0  0  0  0
  -29.2286  -20.4780   28.4637 C   0  0  0  0  0  0  0  0  0  0  0  0
  -28.2852  -26.6542   20.0996 N   0  0  0  0  0  0  0  0  0  0  0  0
  -29.1511  -27.6815   20.0699 N   0  0  0  0  0  0  0  0  0  0  0  0
  -26.7127  -19.8672   25.9814 N   0  0  0  0  0  0  0  0  0  0  0  0
  -26.1265  -28.8880   20.4422 N   0  0  0  0  0  0  0  0  0  0  0  0
  -23.8119  -28.9305   21.0537 N   0  0  0  0  0  0  0  0  0  0  0  0
  -31.4487  -28.2091   19.8394 N   0  0  0  0  0  0  0  0  0  0  0  0
  -32.2500  -24.6124   20.7430 N   0  0  0  0  0  0  0  0  0  0  0  0
  -24.2350  -17.6344   27.2485 N   0  0  0  0  0  0  0  0  0  0  0  0
  -30.0483  -20.4366   26.0698 N   0  0  0  0  0  0  0  0  0  0  0  0
  -21.5820  -30.1795   22.3655 N   0  3  1  0  0  0  0  0  0  0  0  0
  -31.2677  -20.2494   23.1810 N   0  3  0  0  0  0  0  0  0  0  0  0
  -31.9970  -24.7814   18.4701 O   0  0  0  0  0  0  0  0  0  0  0  0
  -24.5822  -19.9167   27.5532 O   0  0  0  0  0  0  0  0  0  0  0  0
  -28.2690  -18.2710   26.6641 O   0  0  0  0  0  0  0  0  0  0  0  0
  -29.7323  -22.4612   24.9844 O   0  0  0  0  0  0  0  0  0  0  0  0
  -25.2670  -27.3793   21.9600 O   0  0  0  0  0  0  0  0  0  0  0  0
  -26.8643  -20.4527   19.8369 O   0  0  0  0  0  0  0  0  0  0  0  0
  -17.0061  -28.2243   21.3213 O   0  0  0  0  0  0  0  0  0  0  0  0
  -23.3729  -24.5146   23.6579 O   0  0  0  0  0  0  0  0  0  1  0  0
  -30.2942  -16.1755   20.4244 F   0  0  0  0  0  0  0  0  0  0  0  0
  -28.9213  -20.0269   18.0396 F   0  0  0  0  0  0  0  0  0  0  0  0
  1  2  1  0  0  0  0
  1  5  2  0  0  0  0
  2  6  2  0  0  0  0
  3  8  2  0  0  0  0
  3 16  1  0  0  0  0
  4  9  1  0  0  0  0
  4 16  2  0  0  0  0
  5 18  1  0  0  0  0
  6 20  1  0  0  0  0
  7 10  2  0  0  0  0
  7 19  1  0  0  0  0
  8 26  1  0  0  0  0
  9 26  2  0  0  0  0
 10 27  1  0  0  0  0
 11 12  2  0  0  0  0
 11 28  1  0  0  0  0
 12 30  1  0  0  0  0
 13 21  1  0  0  0  0
 13 27  2  0  0  0  0
 14 22  2  0  0  0  0
 14 29  1  0  0  0  0
 15 30  2  0  0  0  0
 15 31  1  0  0  0  0
 16 32  1  0  0  0  0
 17 32  1  0  0  0  0
 17 33  2  0  0  0  0
 17 34  1  0  0  0  0
 18 20  2  0  0  0  0
 18 39  1  0  0  0  0
 19 21  2  0  0  0  0
 19 40  1  0  0  0  0
 20 54  1  0  0  0  0
 21 41  1  0  0  0  0
 22 23  1  0  0  0  0
 22 55  1  0  0  0  0
 23 24  2  0  0  0  0
 23 73  1  0  0  0  0
 24 25  1  0  0  0  0
 24 71  1  0  0  0  0
 25 29  2  0  0  0  0
 25 61  1  0  0  0  0
 26 94  1  0  0  0  0
 27 96  1  0  0  0  0
 28 31  2  0  0  0  0
 28 94  1  0  0  0  0
 29 95  1  0  0  0  0
 30 97  1  0  0  0  0
 31 98  1  0  0  0  0
 32 78  2  0  0  0  0
 33 79  1  0  0  0  0
 33 83  1  0  0  0  0
 34 84  1  0  0  0  0
 34 89  2  0  0  0  0
 35 56  1  0  0  0  0
 35 85  1  0  0  0  0
 35 90  2  0  0  0  0
 36 74  1  0  0  0  0
 36 80  1  0  0  0  0
 36 91  2  0  0  0  0
 37 75  1  0  0  0  0
 37 86  1  0  0  0  0
 37 92  2  0  0  0  0
 38 81  1  0  0  0  0
 38 82  1  0  0  0  0
 38 93  2  0  0  0  0
 39 42  1  0  0  0  0
 40 56  1  0  0  0  0
 41 80  1  0  0  0  0
 42 44  1  0  0  0  0
 43 49  1  0  0  0  0
 43 50  1  0  0  0  0
 44 54  1  0  0  0  0
 45 46  1  0  0  0  0
 45 57  1  0  0  0  0
 46 57  1  0  0  0  0
 47 48  1  0  0  0  0
 47 58  1  0  0  0  0
 48 58  1  0  0  0  0
 49 59  1  0  0  0  0
 50 81  1  0  0  0  0
 51 55  1  0  0  0  0
 51 82  1  0  0  0  0
 52 59  1  0  0  0  0
 52 81  1  0  0  0  0
 53 60  1  0  0  0  0
 53 87  1  0  0  0  0
 54 85  1  0  0  0  0
 55 87  1  0  0  0  0
 56 80  1  0  0  0  0
 57 71  1  0  0  0  0
 58 73  1  0  0  0  0
 59 79  1  0  0  0  0
 60 62  1  0  0  0  0
 60 82  1  0  0  0  0
 63 75  1  0  0  0  0
 64 76  1  0  0  0  0
 65 76  1  0  0  0  0
 66 77  1  0  0  0  0
 67 77  1  0  0  0  0
 68 77  1  0  0  0  0
 69 88  1  0  0  0  0
 70 95  1  0  0  0  0
 72 73  1  0  0  0  0
 72 96  1  0  0  0  0
 74 77  1  0  0  0  0
 74 86  1  0  0  0  0
 75 88  1  0  0  0  0
 76 87  1  0  0  0  0
 78 79  1  0  0  0  0
M  CHG  2  87   1  88   1
M  ISO  4  38 100  72 101  82 100  96 101
M  END
> <Batch ID>
0157

> <Smiles>
CNC(C)C(=O)NC(C(=O)N1Cc2cc([101O:1][101CH2:1]C(c3c(C4C[100N:0]([100C:0](=O)N5CCCC(n6nc(-c7ccc(Oc8ccc(F)cc8F)cc7)c(C(N)=O)c6N)C5)C(C)CN4C(C)C)cc(OC)c(C)c3CC3CC3)C3CC3)ccc2CC1C(=O)NC1CCCc2ccccc21)C(C)(C)C

> <Shape>
0.194

> <Color>
0.043

> <Negative vol penalty>
0.000

$$$$

  -OEChem-04052321593D

 86 95  0     1  0  0  0  0  0999 V2000
  -29.2288  -12.3826   19.7210 C   0  0  0  0  0  0  0  0  0  0  0  0
  -29.0252  -13.5922   19.0646 C   0  0  0  0  0  0  0  0  0  0  0  0
  -28.5560  -26.0067   19.6898 C   0  0  0  0  0  0  0  0  0  0  0  0
  -26.6369  -24.6226   19.2017 C   0  0  0  0  0  0  0  0  0  0  0  0
  -28.1706  -11.7653   20.3868 C   0  0  0  0  0  0  0  0  0  0  0  0
  -27.7629  -14.1847   19.0727 C   0  0  0  0  0  0  0  0  0  0  0  0
  -24.6167  -20.6204   19.0859 C   0  0  0  0  0  0  0  0  0  0  0  0
  -29.4013  -24.9323   19.4130 C   0  0  0  0  0  0  0  0  0  0  0  0
  -27.4822  -23.5481   18.9249 C   0  0  0  0  0  0  0  0  0  0  0  0
  -23.6518  -21.3489   18.3917 C   0  0  0  0  0  0  0  0  0  0  0  0
  -29.1177  -20.3390   18.4383 C   0  0  0  0  0  0  0  0  0  0  0  0
  -28.7792  -19.0943   18.9691 C   0  0  0  0  0  0  0  0  0  0  0  0
  -21.9175  -20.2311   19.6415 C   0  0  0  0  0  0  0  0  0  0  0  0
  -28.9130  -20.0098   21.2009 C   0  0  0  0  0  0  0  0  0  0  0  0
  -27.1738  -25.8519   19.5842 C   0  0  0  0  0  0  0  0  0  0  0  0
  -25.8315  -27.9304   18.9634 C   0  0  0  0  0  0  0  0  0  0  0  0
  -26.8971  -12.3554   20.4112 C   0  0  0  0  0  0  0  0  0  0  0  0
  -24.2382  -19.6822   20.0570 C   0  0  0  0  0  0  0  0  0  0  0  0
  -26.6864  -13.5741   19.7384 C   0  0  0  0  0  0  0  0  0  0  0  0
  -22.8796  -19.4938   20.3484 C   0  0  0  0  0  0  0  0  0  0  0  0
  -18.4551  -23.8009   19.0997 C   0  0  0  0  0  0  0  0  0  0  0  0
  -28.8645  -23.7030   19.0306 C   0  0  0  0  0  0  0  0  0  0  0  0
  -22.3018  -21.1523   18.6674 C   0  0  0  0  0  0  0  0  0  0  0  0
  -29.3539  -21.4191   19.2888 C   0  0  0  0  0  0  0  0  0  0  0  0
  -28.6769  -18.9297   20.3504 C   0  0  0  0  0  0  0  0  0  0  0  0
  -29.2515  -21.2545   20.6701 C   0  0  0  0  0  0  0  0  0  0  0  0
  -26.3000  -26.9612   19.8705 C   0  0  0  0  0  0  0  0  0  0  0  0
  -19.7638  -24.2010   18.7694 C   0  0  0  0  0  0  0  0  0  0  0  0
  -18.3081  -24.1608   20.4170 C   0  0  0  0  0  0  0  0  0  0  0  0
  -25.0407  -28.7577   19.7228 C   0  0  0  0  0  0  0  0  0  0  0  0
  -26.0881  -28.0704   17.5597 C   0  0  0  0  0  0  0  0  0  0  0  0
  -24.5842  -16.5407   20.3962 C   0  0  0  0  0  0  0  0  0  0  0  0
  -23.2707  -17.1033   23.3083 C   0  0  0  0  0  0  0  0  0  0  0  0
  -21.3332  -19.1107   25.2738 C   0  0  0  0  0  0  0  0  0  0  0  0
  -21.9473  -28.0929   24.6576 C   0  0  0  0  0  0  0  0  0  0  0  0
  -25.7728  -11.6271   21.1041 C   0  0  0  0  0  0  0  0  0  0  0  0
  -25.2924  -18.9237   20.8158 C   0  0  0  0  0  0  0  0  0  0  0  0
  -22.4219  -18.5133   21.3960 C   0  0  0  0  0  0  0  0  0  0  0  0
  -24.5568  -12.5072   21.3819 C   0  0  0  0  0  0  0  0  0  0  0  0
  -24.4984  -30.3792   24.1863 C   0  0  0  0  0  0  0  0  0  0  0  0
  -24.1930  -13.3212   20.1442 C   0  0  0  0  0  0  0  0  0  0  0  0
  -25.2159  -29.8686   22.9367 C   0  0  0  0  0  0  0  0  0  0  0  0
  -19.4378  -26.7758   22.2789 C   0  0  0  0  0  0  0  0  0  0  0  0
  -21.3437  -25.1225   22.4650 C   0  0  0  0  0  0  0  0  0  0  0  0
  -24.1055  -29.2245   25.1010 C   0  0  0  0  0  0  0  0  0  0  0  0
  -19.8263  -27.3422   23.6426 C   0  0  0  0  0  0  0  0  0  0  0  0
  -21.6876  -25.7242   23.8245 C   0  0  0  0  0  0  0  0  0  0  0  0
  -23.9653  -27.6688   23.1839 C   0  0  0  0  0  0  0  0  0  0  0  0
  -25.3377  -14.2605   19.7455 C   0  0  1  0  0  0  0  0  0  0  0  0
  -24.7733  -17.6231   21.4211 C   0  0  1  0  0  0  0  0  0  0  0  0
  -24.3765  -28.7976   22.2177 C   0  0  2  0  0  0  0  0  0  0  0  0
  -19.8495  -25.2997   22.1424 C   0  0  0  0  0  0  0  0  0  0  0  0
  -17.4637  -23.1433   18.2308 C   0  0  0  0  0  0  0  0  0  0  0  0
  -17.1712  -24.0150   21.3455 C   0  0  0  0  0  0  0  0  0  0  0  0
  -20.8325  -25.4205   16.8453 C   0  0  0  0  0  0  0  0  0  0  0  0
  -20.4095  -19.2904   27.6001 C   0  0  0  0  0  0  0  0  0  0  0  0
  -21.1988  -14.9628   22.6484 C   0  0  0  0  0  0  0  0  0  0  0  0
  -19.7956  -15.8410   24.5267 C   0  0  0  0  0  0  0  0  0  0  0  0
  -22.0559  -14.8963   24.9969 C   0  0  0  0  0  0  0  0  0  0  0  0
  -22.7470  -21.6644   25.7625 C   0  0  0  0  0  0  0  0  0  0  0  0
  -21.7235  -23.1664   17.5429 C   0  0  0  0  0  0  0  0  0  1  0  0
  -20.4532  -24.0573   17.4751 C   0  0  1  0  0  0  0  0  0  0  0  0
  -21.8650  -17.1449   23.8571 C   0  0  1  0  0  0  0  0  0  0  0  0
  -21.5513  -19.6676   26.6690 C   0  0  2  0  0  0  0  0  0  0  0  0
  -21.2370  -15.7284   23.9861 C   0  0  0  0  0  0  0  0  0  0  0  0
  -25.8450  -27.1537   21.1114 N   0  0  0  0  0  0  0  0  0  0  0  0
  -20.4026  -24.7715   19.7943 N   0  0  0  0  0  0  0  0  0  0  0  0
  -19.4915  -24.7327   20.7814 N   0  0  0  0  0  0  0  0  0  0  0  0
  -25.0823  -28.2535   20.9894 N   0  0  0  0  0  0  0  0  0  0  0  0
  -23.4902  -17.7911   22.1064 N   0  0  0  0  0  0  0  0  0  0  0  0
  -23.3163  -28.2258   24.3801 N   0  0  0  0  0  0  0  0  0  0  0  0
  -21.2435  -27.1209   23.9276 N   0  0  0  0  0  0  0  0  0  0  0  0
  -24.3208  -29.8599   19.4241 N   0  0  0  0  0  0  0  0  0  0  0  0
  -26.9234  -27.1333   16.9365 N   0  0  0  0  0  0  0  0  0  0  0  0
  -25.3642  -15.4204   20.6105 N   0  0  0  0  0  0  0  0  0  0  0  0
  -21.9389  -17.8825   25.1136 N   0  0  0  0  0  0  0  0  0  0  0  0
  -21.6496  -21.1539   26.6240 N   0  3  0  0  0  0  0  0  0  0  0  0
  -25.6045  -29.0085   16.8817 O   0  0  0  0  0  0  0  0  0  0  0  0
  -23.7884  -16.7090   19.4796 O   0  0  0  0  0  0  0  0  0  0  0  0
  -24.1435  -16.4894   23.9271 O   0  0  0  0  0  0  0  0  0  0  0  0
  -20.6867  -19.7042   24.4133 O   0  0  0  0  0  0  0  0  0  0  0  0
  -21.3845  -28.8019   25.5011 O   0  0  0  0  0  0  0  0  0  0  0  0
  -29.6890  -22.6544   18.7602 O   0  0  0  0  0  0  0  0  0  0  0  0
  -21.3516  -21.8663   17.9865 O   0  0  0  0  0  0  0  0  0  1  0  0
  -28.3503  -17.7348   20.8600 F   0  0  0  0  0  0  0  0  0  0  0  0
  -29.4761  -22.2887   21.4921 F   0  0  0  0  0  0  0  0  0  0  0  0
  1  2  1  0  0  0  0
  1  5  2  0  0  0  0
  2  6  2  0  0  0  0
  3  8  2  0  0  0  0
  3 15  1  0  0  0  0
  4  9  1  0  0  0  0
  4 15  2  0  0  0  0
  5 17  1  0  0  0  0
  6 19  1  0  0  0  0
  7 10  2  0  0  0  0
  7 18  1  0  0  0  0
  8 22  1  0  0  0  0
  9 22  2  0  0  0  0
 10 23  1  0  0  0  0
 11 12  2  0  0  0  0
 11 24  1  0  0  0  0
 12 25  1  0  0  0  0
 13 20  1  0  0  0  0
 13 23  2  0  0  0  0
 14 25  2  0  0  0  0
 14 26  1  0  0  0  0
 15 27  1  0  0  0  0
 16 27  1  0  0  0  0
 16 30  2  0  0  0  0
 16 31  1  0  0  0  0
 17 19  2  0  0  0  0
 17 36  1  0  0  0  0
 18 20  2  0  0  0  0
 18 37  1  0  0  0  0
 19 49  1  0  0  0  0
 20 38  1  0  0  0  0
 21 28  1  0  0  0  0
 21 29  2  0  0  0  0
 21 53  1  0  0  0  0
 22 83  1  0  0  0  0
 23 84  1  0  0  0  0
 24 26  2  0  0  0  0
 24 83  1  0  0  0  0
 25 85  1  0  0  0  0
 26 86  1  0  0  0  0
 27 66  2  0  0  0  0
 28 62  1  0  0  0  0
 28 67  2  0  0  0  0
 29 54  1  0  0  0  0
 29 68  1  0  0  0  0
 30 69  1  0  0  0  0
 30 73  1  0  0  0  0
 31 74  1  0  0  0  0
 31 78  2  0  0  0  0
 32 50  1  0  0  0  0
 32 75  1  0  0  0  0
 32 79  2  0  0  0  0
 33 63  1  0  0  0  0
 33 70  1  0  0  0  0
 33 80  2  0  0  0  0
 34 64  1  0  0  0  0
 34 76  1  0  0  0  0
 34 81  2  0  0  0  0
 35 71  1  0  0  0  0
 35 72  1  0  0  0  0
 35 82  2  0  0  0  0
 36 39  1  0  0  0  0
 37 50  1  0  0  0  0
 38 70  1  0  0  0  0
 39 41  1  0  0  0  0
 40 42  1  0  0  0  0
 40 45  1  0  0  0  0
 41 49  1  0  0  0  0
 42 51  1  0  0  0  0
 43 46  1  0  0  0  0
 43 52  1  0  0  0  0
 44 47  1  0  0  0  0
 44 52  1  0  0  0  0
 45 71  1  0  0  0  0
 46 72  1  0  0  0  0
 47 72  1  0  0  0  0
 48 51  1  0  0  0  0
 48 71  1  0  0  0  0
 49 75  1  0  0  0  0
 50 70  1  0  0  0  0
 51 69  1  0  0  0  0
 52 68  1  0  0  0  0
 55 62  1  0  0  0  0
 56 64  1  0  0  0  0
 57 65  1  0  0  0  0
 58 65  1  0  0  0  0
 59 65  1  0  0  0  0
 60 77  1  0  0  0  0
 61 62  1  0  0  0  0
 61 84  1  0  0  0  0
 63 65  1  0  0  0  0
 63 76  1  0  0  0  0
 64 77  1  0  0  0  0
 66 69  1  0  0  0  0
 67 68  1  0  0  0  0
M  CHG  1  77   1
M  ISO  4  35 100  61 101  72 100  84 101
M  END
> <Batch ID>
0157

> <Smiles>
CNC(C)C(=O)NC(C(=O)N1Cc2cc([101O:1][101CH2:1]C(C)c3nn(C4CC[100N:0]([100C:0](=O)N5CCCC(n6nc(-c7ccc(Oc8ccc(F)cc8F)cc7)c(C(N)=O)c6N)C5)CC4)c(C)c3C)ccc2CC1C(=O)NC1CCCc2ccccc21)C(C)(C)C

> <Shape>
0.200

> <Color>
0.061

> <Negative vol penalty>
0.000

$$$$

  -OEChem-04052321593D

 92102  0     1  0  0  0  0  0999 V2000
  -17.9463  -26.2288   19.9289 C   0  0  0  0  0  0  0  0  0  0  0  0
  -18.5955  -25.8320   21.0936 C   0  0  0  0  0  0  0  0  0  0  0  0
  -23.2790   -9.9486   22.4895 C   0  0  0  0  0  0  0  0  0  0  0  0
  -23.7280   -9.6606   20.1331 C   0  0  0  0  0  0  0  0  0  0  0  0
  -18.4886  -27.2429   19.1407 C   0  0  0  0  0  0  0  0  0  0  0  0
  -19.7882  -26.4485   21.4702 C   0  0  0  0  0  0  0  0  0  0  0  0
  -19.9044  -27.6074   26.3985 C   0  0  0  0  0  0  0  0  0  0  0  0
  -22.4689   -8.8133   22.4739 C   0  0  0  0  0  0  0  0  0  0  0  0
  -22.9179   -8.5252   20.1175 C   0  0  0  0  0  0  0  0  0  0  0  0
  -20.1678  -26.5690   27.2907 C   0  0  0  0  0  0  0  0  0  0  0  0
  -20.5716   -5.7837   23.1350 C   0  0  0  0  0  0  0  0  0  0  0  0
  -20.7236   -4.8643   24.1728 C   0  0  0  0  0  0  0  0  0  0  0  0
  -26.1661  -22.1802   29.0182 C   0  0  0  0  0  0  0  0  0  0  0  0
  -22.4640  -27.2922   27.4451 C   0  0  0  0  0  0  0  0  0  0  0  0
  -24.3984  -21.2328   27.0790 C   0  0  0  0  0  0  0  0  0  0  0  0
  -23.0335   -4.5371   23.5445 C   0  0  0  0  0  0  0  0  0  0  0  0
  -23.9085  -10.3724   21.3191 C   0  0  0  0  0  0  0  0  0  0  0  0
  -26.1281  -11.6000   21.5911 C   0  0  0  0  0  0  0  0  0  0  0  0
  -19.6835  -27.8788   19.5129 C   0  0  0  0  0  0  0  0  0  0  0  0
  -20.9231  -28.4909   26.0138 C   0  0  0  0  0  0  0  0  0  0  0  0
  -20.3478  -27.4712   20.6855 C   0  0  0  0  0  0  0  0  0  0  0  0
  -24.8855  -22.7236   28.9168 C   0  0  0  0  0  0  0  0  0  0  0  0
  -22.2103  -28.3425   26.5499 C   0  0  0  0  0  0  0  0  0  0  0  0
  -25.6791  -20.6894   27.1804 C   0  0  0  0  0  0  0  0  0  0  0  0
  -26.5630  -21.1631   28.1499 C   0  0  0  0  0  0  0  0  0  0  0  0
  -22.2883   -8.1015   21.2880 C   0  0  0  0  0  0  0  0  0  0  0  0
  -21.4485  -26.4095   27.8120 C   0  0  0  0  0  0  0  0  0  0  0  0
  -21.6504   -6.0798   22.3019 C   0  0  0  0  0  0  0  0  0  0  0  0
  -24.0016  -22.2499   27.9472 C   0  0  0  0  0  0  0  0  0  0  0  0
  -21.9546   -4.2410   24.3776 C   0  0  0  0  0  0  0  0  0  0  0  0
  -22.8814   -5.4566   22.5067 C   0  0  0  0  0  0  0  0  0  0  0  0
  -24.7450  -11.5454   21.3344 C   0  0  0  0  0  0  0  0  0  0  0  0
  -26.4443  -12.9326   21.4875 C   0  0  0  0  0  0  0  0  0  0  0  0
  -27.0451  -10.5407   21.8957 C   0  0  0  0  0  0  0  0  0  0  0  0
  -22.3270  -29.2336   23.2604 C   0  0  0  0  0  0  0  0  0  0  0  0
  -23.7978  -31.4905   25.0673 C   0  0  0  0  0  0  0  0  0  0  0  0
  -24.8245  -32.5113   28.1577 C   0  0  0  0  0  0  0  0  0  0  0  0
  -25.4656  -18.2463   22.3973 C   0  0  0  0  0  0  0  0  0  0  0  0
  -20.2561  -28.9375   18.6041 C   0  0  0  0  0  0  0  0  0  0  0  0
  -20.6163  -29.6221   25.0711 C   0  0  0  0  0  0  0  0  0  0  0  0
  -23.3340  -29.2765   26.1845 C   0  0  0  0  0  0  0  0  0  0  0  0
  -21.3274  -29.7973   19.2698 C   0  0  0  0  0  0  0  0  0  0  0  0
  -23.7581  -16.8377   19.7424 C   0  0  0  0  0  0  0  0  0  0  0  0
  -22.3237  -28.9210   20.0224 C   0  0  0  0  0  0  0  0  0  0  0  0
  -23.9705  -15.3357   19.9296 C   0  0  0  0  0  0  0  0  0  0  0  0
  -24.9003  -18.6898   25.8327 C   0  0  0  0  0  0  0  0  0  0  0  0
  -26.7877  -20.1392   24.9688 C   0  0  0  0  0  0  0  0  0  0  0  0
  -24.0854  -25.1470   29.1192 C   0  0  0  0  0  0  0  0  0  0  0  0
  -23.4985  -17.5228   21.0790 C   0  0  0  0  0  0  0  0  0  0  0  0
  -25.3149  -17.5978   24.8423 C   0  0  0  0  0  0  0  0  0  0  0  0
  -27.1727  -19.0072   24.0207 C   0  0  0  0  0  0  0  0  0  0  0  0
  -24.7995  -15.8019   22.2889 C   0  0  0  0  0  0  0  0  0  0  0  0
  -22.4527  -24.8048   30.9077 C   0  0  0  0  0  0  0  0  0  0  0  0
  -26.0894  -19.5855   26.2240 C   0  0  0  0  0  0  0  0  0  0  0  0
  -21.6305  -28.1329   21.1404 C   0  0  1  0  0  0  0  0  0  0  0  0
  -21.8525  -30.1518   24.3510 C   0  0  1  0  0  0  0  0  0  0  0  0
  -25.0738  -15.0581   20.9660 C   0  0  1  0  0  0  0  0  0  0  0  0
  -22.7304  -25.6138   29.6582 C   0  0  2  0  0  0  0  0  0  1  0  0
  -24.4660  -23.8403   29.8814 C   0  0  2  0  0  0  0  0  0  0  0  0
  -27.9399  -20.5987   28.2763 C   0  0  0  0  0  0  0  0  0  0  0  0
  -25.5426  -24.2027   30.9348 C   0  0  0  0  0  0  0  0  0  0  0  0
  -26.0340  -34.3818   29.3134 C   0  0  0  0  0  0  0  0  0  0  0  0
  -26.4559  -30.4093   24.0303 C   0  0  0  0  0  0  0  0  0  0  0  0
  -27.6000  -31.6334   25.8906 C   0  0  0  0  0  0  0  0  0  0  0  0
  -26.3248  -32.9032   24.1632 C   0  0  0  0  0  0  0  0  0  0  0  0
  -23.2369  -22.5859   31.8124 C   0  0  0  0  0  0  0  0  0  0  0  0
  -22.4589  -33.1770   29.8069 C   0  0  0  0  0  0  0  0  0  0  0  0
  -21.9100  -22.2271   26.8157 C   0  0  0  0  0  0  0  0  0  0  0  0
  -25.0655  -31.5462   25.8851 C   0  0  1  0  0  0  0  0  0  0  0  0
  -24.6813  -33.8394   28.8790 C   0  0  2  0  0  0  0  0  0  0  0  0
  -26.3411  -31.6041   24.9979 C   0  0  0  0  0  0  0  0  0  0  0  0
  -24.2188  -12.7478   21.0866 N   0  0  0  0  0  0  0  0  0  0  0  0
  -25.2767  -13.5704   21.1872 N   0  0  0  0  0  0  0  0  0  0  0  0
  -22.9856  -30.3631   25.2542 N   0  0  0  0  0  0  0  0  0  0  0  0
  -24.5656  -17.2322   22.0364 N   0  0  0  0  0  0  0  0  0  0  0  0
  -26.0121  -18.1816   23.6879 N   0  0  0  0  0  0  0  0  0  0  0  0
  -27.6043  -13.6092   21.6251 N   0  0  0  0  0  0  0  0  0  0  0  0
  -26.5534   -9.2300   21.9630 N   0  0  0  0  0  0  0  0  0  0  0  0
  -21.3827  -28.9870   22.2821 N   0  0  0  0  0  0  0  0  0  0  0  0
  -24.9167  -32.6791   26.7922 N   0  0  0  0  0  0  0  0  0  0  0  0
  -23.1488  -23.4964   30.6267 N   0  3  1  0  0  0  0  0  0  0  0  0
  -23.8272  -33.6817   30.0900 N   0  3  0  0  0  0  0  0  0  0  0  0
  -28.2613  -10.7523   22.1183 O   0  0  0  0  0  0  0  0  0  0  0  0
  -23.4659  -28.7833   23.3025 O   0  0  0  0  0  0  0  0  0  0  0  0
  -23.5343  -32.4168   24.2964 O   0  0  0  0  0  0  0  0  0  0  0  0
  -24.8555  -31.4332   28.7470 O   0  0  0  0  0  0  0  0  0  0  0  0
  -25.7642  -19.1557   21.6132 O   0  0  0  0  0  0  0  0  0  0  0  0
  -21.4981   -6.9935   21.2725 O   0  0  0  0  0  0  0  0  0  0  0  0
  -21.7107  -25.3876   28.6900 O   0  0  0  0  0  0  0  0  0  1  0  0
  -22.7475  -22.7702   27.8343 O   0  0  0  0  0  0  0  0  0  0  0  0
  -22.1009   -3.3592   25.3752 F   0  0  0  0  0  0  0  0  0  0  0  0
  -23.9218   -5.7379   21.7103 F   0  0  0  0  0  0  0  0  0  0  0  0
  1  2  1  0  0  0  0
  1  5  2  0  0  0  0
  2  6  2  0  0  0  0
  3  8  2  0  0  0  0
  3 17  1  0  0  0  0
  4  9  1  0  0  0  0
  4 17  2  0  0  0  0
  5 19  1  0  0  0  0
  6 21  1  0  0  0  0
  7 10  2  0  0  0  0
  7 20  1  0  0  0  0
  8 26  1  0  0  0  0
  9 26  2  0  0  0  0
 10 27  1  0  0  0  0
 11 12  2  0  0  0  0
 11 28  1  0  0  0  0
 12 30  1  0  0  0  0
 13 22  1  0  0  0  0
 13 25  2  0  0  0  0
 14 23  1  0  0  0  0
 14 27  2  0  0  0  0
 15 24  2  0  0  0  0
 15 29  1  0  0  0  0
 16 30  2  0  0  0  0
 16 31  1  0  0  0  0
 17 32  1  0  0  0  0
 18 32  1  0  0  0  0
 18 33  2  0  0  0  0
 18 34  1  0  0  0  0
 19 21  2  0  0  0  0
 19 39  1  0  0  0  0
 20 23  2  0  0  0  0
 20 40  1  0  0  0  0
 21 55  1  0  0  0  0
 22 29  2  0  0  0  0
 22 59  1  0  0  0  0
 23 41  1  0  0  0  0
 24 25  1  0  0  0  0
 24 54  1  0  0  0  0
 25 60  1  0  0  0  0
 26 88  1  0  0  0  0
 27 89  1  0  0  0  0
 28 31  2  0  0  0  0
 28 88  1  0  0  0  0
 29 90  1  0  0  0  0
 30 91  1  0  0  0  0
 31 92  1  0  0  0  0
 32 72  2  0  0  0  0
 33 73  1  0  0  0  0
 33 77  1  0  0  0  0
 34 78  1  0  0  0  0
 34 83  2  0  0  0  0
 35 56  1  0  0  0  0
 35 79  1  0  0  0  0
 35 84  2  0  0  0  0
 36 69  1  0  0  0  0
 36 74  1  0  0  0  0
 36 85  2  0  0  0  0
 37 70  1  0  0  0  0
 37 80  1  0  0  0  0
 37 86  2  0  0  0  0
 38 75  1  0  0  0  0
 38 76  1  0  0  0  0
 38 87  2  0  0  0  0
 39 42  1  0  0  0  0
 40 56  1  0  0  0  0
 41 74  1  0  0  0  0
 42 44  1  0  0  0  0
 43 45  1  0  0  0  0
 43 49  1  0  0  0  0
 44 55  1  0  0  0  0
 45 57  1  0  0  0  0
 46 50  1  0  0  0  0
 46 54  1  0  0  0  0
 47 51  1  0  0  0  0
 47 54  1  0  0  0  0
 48 58  1  0  0  0  0
 48 59  1  0  0  0  0
 49 75  1  0  0  0  0
 50 76  1  0  0  0  0
 51 76  1  0  0  0  0
 52 57  1  0  0  0  0
 52 75  1  0  0  0  0
 53 58  1  0  0  0  0
 53 81  1  0  0  0  0
 55 79  1  0  0  0  0
 56 74  1  0  0  0  0
 57 73  1  0  0  0  0
 58 89  1  0  0  0  0
 59 61  1  0  0  0  0
 59 81  1  0  0  0  0
 62 70  1  0  0  0  0
 63 71  1  0  0  0  0
 64 71  1  0  0  0  0
 65 71  1  0  0  0  0
 66 81  1  0  0  0  0
 67 82  1  0  0  0  0
 68 90  1  0  0  0  0
 69 71  1  0  0  0  0
 69 80  1  0  0  0  0
 70 82  1  0  0  0  0
 72 73  1  0  0  0  0
M  CHG  2  81   1  82   1
M  ISO  4  38 100  58 101  76 100  89 101
M  END
> <Batch ID>
0157

> <Smiles>
CNC(C)C(=O)NC(C(=O)N1Cc2cc([101O:1][101CH:1]3CN(C)C(C)(c4cc(C)c(C5CC[100N:0]([100C:0](=O)N6CCCC(n7nc(-c8ccc(Oc9ccc(F)cc9F)cc8)c(C(N)=O)c7N)C6)CC5)cc4OC)C3)ccc2CC1C(=O)NC1CCCc2ccccc21)C(C)(C)C

> <Shape>
0.188

> <Color>
0.130

> <Negative vol penalty>
0.000

$$$$

  -OEChem-04052321593D

 89 98  0     1  0  0  0  0  0999 V2000
  -27.1088  -37.6823   23.7168 C   0  0  0  0  0  0  0  0  0  0  0  0
  -27.8165  -36.6379   23.1306 C   0  0  0  0  0  0  0  0  0  0  0  0
  -27.4531   -7.3826   23.5530 C   0  0  0  0  0  0  0  0  0  0  0  0
  -26.4043   -6.7516   21.4700 C   0  0  0  0  0  0  0  0  0  0  0  0
  -25.9438  -37.4167   24.4353 C   0  0  0  0  0  0  0  0  0  0  0  0
  -27.3603  -35.3269   23.2636 C   0  0  0  0  0  0  0  0  0  0  0  0
  -27.1358  -29.1070   19.7169 C   0  0  0  0  0  0  0  0  0  0  0  0
  -26.5412   -6.5917   24.2518 C   0  0  0  0  0  0  0  0  0  0  0  0
  -25.4924   -5.9606   22.1688 C   0  0  0  0  0  0  0  0  0  0  0  0
  -27.4526  -27.7597   19.8843 C   0  0  0  0  0  0  0  0  0  0  0  0
  -22.6685   -6.4155   23.9714 C   0  0  0  0  0  0  0  0  0  0  0  0
  -21.3241   -6.5034   23.6101 C   0  0  0  0  0  0  0  0  0  0  0  0
  -25.3846  -27.4284   21.0813 C   0  0  0  0  0  0  0  0  0  0  0  0
  -29.3606  -23.2283   21.1624 C   0  0  0  0  0  0  0  0  0  0  0  0
  -27.4947  -21.4110   20.1631 C   0  0  0  0  0  0  0  0  0  0  0  0
  -21.3157   -4.1488   23.0689 C   0  0  0  0  0  0  0  0  0  0  0  0
  -27.3847   -7.4626   22.1621 C   0  0  0  0  0  0  0  0  0  0  0  0
  -29.5773   -7.8860   20.9289 C   0  0  0  0  0  0  0  0  0  0  0  0
  -25.4678  -36.1028   24.5690 C   0  0  0  0  0  0  0  0  0  0  0  0
  -25.9442  -29.6285   20.2408 C   0  0  0  0  0  0  0  0  0  0  0  0
  -26.1886  -35.0433   23.9857 C   0  0  0  0  0  0  0  0  0  0  0  0
  -25.0538  -28.7822   20.9170 C   0  0  0  0  0  0  0  0  0  0  0  0
  -28.2682  -23.6848   20.4249 C   0  0  0  0  0  0  0  0  0  0  0  0
  -29.5201  -21.8631   21.4001 C   0  0  0  0  0  0  0  0  0  0  0  0
  -27.3352  -22.7762   19.9253 C   0  0  0  0  0  0  0  0  0  0  0  0
  -25.5608   -5.8806   23.5597 C   0  0  0  0  0  0  0  0  0  0  0  0
  -26.5783  -26.9208   20.5691 C   0  0  0  0  0  0  0  0  0  0  0  0
  -23.3365   -5.1943   23.8814 C   0  0  0  0  0  0  0  0  0  0  0  0
  -28.5871  -20.9545   20.9005 C   0  0  0  0  0  0  0  0  0  0  0  0
  -20.6477   -5.3700   23.1588 C   0  0  0  0  0  0  0  0  0  0  0  0
  -22.6601   -4.0609   23.4302 C   0  0  0  0  0  0  0  0  0  0  0  0
  -28.3261   -8.2800   21.4397 C   0  0  0  0  0  0  0  0  0  0  0  0
  -30.0770   -9.0183   20.3333 C   0  0  0  0  0  0  0  0  0  0  0  0
  -30.2295   -6.6105   20.9874 C   0  0  0  0  0  0  0  0  0  0  0  0
  -25.2248  -31.8487   22.3988 C   0  0  0  0  0  0  0  0  0  0  0  0
  -22.1896  -31.2679   21.4125 C   0  0  0  0  0  0  0  0  0  0  0  0
  -19.9745  -29.1077   19.9725 C   0  0  0  0  0  0  0  0  0  0  0  0
  -29.3347  -14.6798   21.2185 C   0  0  0  0  0  0  0  0  0  0  0  0
  -24.2296  -35.8599   25.3950 C   0  0  0  0  0  0  0  0  0  0  0  0
  -25.6045  -31.0783   20.0285 C   0  0  0  0  0  0  0  0  0  0  0  0
  -23.7522  -29.2883   21.4809 C   0  0  0  0  0  0  0  0  0  0  0  0
  -23.6095  -34.4828   25.1725 C   0  0  0  0  0  0  0  0  0  0  0  0
  -28.6863  -13.0503   18.1778 C   0  0  0  0  0  0  0  0  0  0  0  0
  -24.6848  -33.4014   25.2058 C   0  0  0  0  0  0  0  0  0  0  0  0
  -28.6415  -11.5881   18.6207 C   0  0  0  0  0  0  0  0  0  0  0  0
  -30.2029  -18.0649   19.9796 C   0  0  0  0  0  0  0  0  0  0  0  0
  -27.6874  -17.7847   19.9186 C   0  0  0  0  0  0  0  0  0  0  0  0
  -27.9992  -13.9751   19.1839 C   0  0  0  0  0  0  0  0  0  0  0  0
  -30.2769  -16.9510   21.0227 C   0  0  0  0  0  0  0  0  0  0  0  0
  -27.8186  -16.6806   20.9652 C   0  0  0  0  0  0  0  0  0  0  0  0
  -28.4561  -12.3730   21.0118 C   0  0  0  0  0  0  0  0  0  0  0  0
  -25.7122  -33.6105   24.0867 C   0  0  1  0  0  0  0  0  0  0  0  0
  -24.6059  -31.6138   21.0499 C   0  0  1  0  0  0  0  0  0  0  0  0
  -29.1903  -11.4264   20.0495 C   0  0  1  0  0  0  0  0  0  0  0  0
  -28.8499  -18.7774   19.9725 C   0  0  0  0  0  0  0  0  0  0  0  0
  -26.1576  -23.2410   19.1331 C   0  0  0  0  0  0  0  0  0  0  0  0
  -29.5361  -21.5366   24.4720 C   0  0  0  0  0  0  0  0  0  0  0  0
  -32.0227  -21.7152   21.4762 C   0  0  0  0  0  0  0  0  0  0  0  0
  -17.5560  -28.8999   19.3361 C   0  0  0  0  0  0  0  0  0  0  0  0
  -21.4629  -30.7942   24.3379 C   0  0  0  0  0  0  0  0  0  0  0  0
  -19.3539  -29.6899   23.5628 C   0  0  0  0  0  0  0  0  0  0  0  0
  -19.7664  -32.0936   23.0388 C   0  0  0  0  0  0  0  0  0  0  0  0
  -20.6363  -28.7906   17.1054 C   0  0  0  0  0  0  0  0  0  0  0  0
  -28.1187  -25.1507   20.1814 C   0  0  0  0  0  0  0  0  0  1  0  0
  -30.7450  -21.9489   23.6409 C   0  0  0  0  0  0  0  0  0  0  0  0
  -30.6948  -21.3921   22.1923 C   0  0  1  0  0  0  0  0  0  0  0  0
  -21.0944  -30.3155   21.8277 C   0  0  1  0  0  0  0  0  0  0  0  0
  -18.9470  -29.3034   18.8723 C   0  0  2  0  0  0  0  0  0  0  0  0
  -20.4448  -30.7139   23.1829 C   0  0  0  0  0  0  0  0  0  0  0  0
  -28.0480   -9.5624   21.1906 N   0  0  0  0  0  0  0  0  0  0  0  0
  -29.1317   -9.9841   20.5168 N   0  0  0  0  0  0  0  0  0  0  0  0
  -23.4680  -30.7147   21.2529 N   0  0  0  0  0  0  0  0  0  0  0  0
  -28.5277  -13.7564   20.5370 N   0  0  0  0  0  0  0  0  0  0  0  0
  -29.1390  -16.0383   20.9170 N   0  0  0  0  0  0  0  0  0  0  0  0
  -31.2284   -9.2720   19.6759 N   0  0  0  0  0  0  0  0  0  0  0  0
  -29.5756   -5.5549   21.6373 N   0  0  0  0  0  0  0  0  0  0  0  0
  -25.1762  -33.1643   22.8187 N   0  0  0  0  0  0  0  0  0  0  0  0
  -20.1581  -30.2580   20.7103 N   0  0  0  0  0  0  0  0  0  0  0  0
  -19.3017  -28.4822   17.6804 N   0  3  0  0  0  0  0  0  0  0  0  0
  -31.3659   -6.4171   20.4928 O   0  0  0  0  0  0  0  0  0  0  0  0
  -25.7092  -30.9059   23.0137 O   0  0  0  0  0  0  0  0  0  0  0  0
  -21.9193  -32.4575   21.2295 O   0  0  0  0  0  0  0  0  0  0  0  0
  -20.5533  -28.0401   20.1612 O   0  0  0  0  0  0  0  0  0  0  0  0
  -30.1815  -14.3155   22.0439 O   0  0  0  0  0  0  0  0  0  0  0  0
  -24.6710   -5.1085   24.2413 O   0  0  0  0  0  0  0  0  0  0  0  0
  -28.7295  -19.6102   21.1237 O   0  0  0  0  0  0  0  0  0  0  0  0
  -26.8876  -25.5960   20.7357 O   0  0  0  0  0  0  0  0  0  1  0  0
  -19.3563   -5.4543   22.8133 F   0  0  0  0  0  0  0  0  0  0  0  0
  -23.2962   -2.8847   23.3427 F   0  0  0  0  0  0  0  0  0  0  0  0
  1  2  1  0  0  0  0
  1  5  2  0  0  0  0
  2  6  2  0  0  0  0
  3  8  2  0  0  0  0
  3 17  1  0  0  0  0
  4  9  1  0  0  0  0
  4 17  2  0  0  0  0
  5 19  1  0  0  0  0
  6 21  1  0  0  0  0
  7 10  2  0  0  0  0
  7 20  1  0  0  0  0
  8 26  1  0  0  0  0
  9 26  2  0  0  0  0
 10 27  1  0  0  0  0
 11 12  2  0  0  0  0
 11 28  1  0  0  0  0
 12 30  1  0  0  0  0
 13 22  1  0  0  0  0
 13 27  2  0  0  0  0
 14 23  2  0  0  0  0
 14 24  1  0  0  0  0
 15 25  2  0  0  0  0
 15 29  1  0  0  0  0
 16 30  2  0  0  0  0
 16 31  1  0  0  0  0
 17 32  1  0  0  0  0
 18 32  1  0  0  0  0
 18 33  2  0  0  0  0
 18 34  1  0  0  0  0
 19 21  2  0  0  0  0
 19 39  1  0  0  0  0
 20 22  2  0  0  0  0
 20 40  1  0  0  0  0
 21 52  1  0  0  0  0
 22 41  1  0  0  0  0
 23 25  1  0  0  0  0
 23 64  1  0  0  0  0
 24 29  2  0  0  0  0
 24 66  1  0  0  0  0
 25 56  1  0  0  0  0
 26 85  1  0  0  0  0
 27 87  1  0  0  0  0
 28 31  2  0  0  0  0
 28 85  1  0  0  0  0
 29 86  1  0  0  0  0
 30 88  1  0  0  0  0
 31 89  1  0  0  0  0
 32 70  2  0  0  0  0
 33 71  1  0  0  0  0
 33 75  1  0  0  0  0
 34 76  1  0  0  0  0
 34 80  2  0  0  0  0
 35 53  1  0  0  0  0
 35 77  1  0  0  0  0
 35 81  2  0  0  0  0
 36 67  1  0  0  0  0
 36 72  1  0  0  0  0
 36 82  2  0  0  0  0
 37 68  1  0  0  0  0
 37 78  1  0  0  0  0
 37 83  2  0  0  0  0
 38 73  1  0  0  0  0
 38 74  1  0  0  0  0
 38 84  2  0  0  0  0
 39 42  1  0  0  0  0
 40 53  1  0  0  0  0
 41 72  1  0  0  0  0
 42 44  1  0  0  0  0
 43 45  1  0  0  0  0
 43 48  1  0  0  0  0
 44 52  1  0  0  0  0
 45 54  1  0  0  0  0
 46 49  1  0  0  0  0
 46 55  1  0  0  0  0
 47 50  1  0  0  0  0
 47 55  1  0  0  0  0
 48 73  1  0  0  0  0
 49 74  1  0  0  0  0
 50 74  1  0  0  0  0
 51 54  1  0  0  0  0
 51 73  1  0  0  0  0
 52 77  1  0  0  0  0
 53 72  1  0  0  0  0
 54 71  1  0  0  0  0
 55 86  1  0  0  0  0
 57 65  1  0  0  0  0
 58 66  1  0  0  0  0
 59 68  1  0  0  0  0
 60 69  1  0  0  0  0
 61 69  1  0  0  0  0
 62 69  1  0  0  0  0
 63 79  1  0  0  0  0
 64 87  1  0  0  0  0
 65 66  1  0  0  0  0
 67 69  1  0  0  0  0
 67 78  1  0  0  0  0
 68 79  1  0  0  0  0
 70 71  1  0  0  0  0
M  CHG  1  79   1
M  ISO  4  38 100  64 101  74 100  87 101
M  END
> <Batch ID>
0157

> <Smiles>
CCC(C)c1cc([101CH2:1][101O:1]c2ccc3c(c2)CN(C(=O)C(NC(=O)C(C)NC)C(C)(C)C)C(C(=O)NC2CCCc4ccccc42)C3)c(C)cc1OC1CC[100N:0]([100C:0](=O)N2CCCC(n3nc(-c4ccc(Oc5ccc(F)cc5F)cc4)c(C(N)=O)c3N)C2)CC1

> <Shape>
0.282

> <Color>
0.070

> <Negative vol penalty>
0.000

$$$$

  -OEChem-04052321593D

 86 95  0     1  0  0  0  0  0999 V2000
  -27.6021  -37.4756   24.4677 C   0  0  0  0  0  0  0  0  0  0  0  0
  -28.2197  -36.4732   23.7266 C   0  0  0  0  0  0  0  0  0  0  0  0
  -28.2520  -13.3695   18.9626 C   0  0  0  0  0  0  0  0  0  0  0  0
  -28.4361  -11.4149   20.3707 C   0  0  0  0  0  0  0  0  0  0  0  0
  -26.4912  -37.1751   25.2549 C   0  0  0  0  0  0  0  0  0  0  0  0
  -27.7273  -35.1694   23.7731 C   0  0  0  0  0  0  0  0  0  0  0  0
  -26.9792  -29.3353   19.6842 C   0  0  0  0  0  0  0  0  0  0  0  0
  -29.5147  -13.1061   18.4318 C   0  0  0  0  0  0  0  0  0  0  0  0
  -29.6989  -11.1515   19.8400 C   0  0  0  0  0  0  0  0  0  0  0  0
  -27.2581  -27.9693   19.6952 C   0  0  0  0  0  0  0  0  0  0  0  0
  -30.8669  -11.0251   16.1353 C   0  0  0  0  0  0  0  0  0  0  0  0
  -31.0217  -11.1210   14.7524 C   0  0  0  0  0  0  0  0  0  0  0  0
  -25.2849  -27.5832   21.0280 C   0  0  0  0  0  0  0  0  0  0  0  0
  -29.0872  -23.2617   20.3595 C   0  0  0  0  0  0  0  0  0  0  0  0
  -26.9482  -23.0333   19.2599 C   0  0  0  0  0  0  0  0  0  0  0  0
  -32.6919  -12.8398   15.0586 C   0  0  0  0  0  0  0  0  0  0  0  0
  -27.7127  -12.5239   19.9321 C   0  0  0  0  0  0  0  0  0  0  0  0
  -25.1698  -12.3318   19.9995 C   0  0  0  0  0  0  0  0  0  0  0  0
  -25.9791  -35.8690   25.3035 C   0  0  0  0  0  0  0  0  0  0  0  0
  -25.8550  -29.8376   20.3553 C   0  0  0  0  0  0  0  0  0  0  0  0
  -26.6093  -34.8509   24.5627 C   0  0  0  0  0  0  0  0  0  0  0  0
  -24.9925  -28.9556   21.0218 C   0  0  0  0  0  0  0  0  0  0  0  0
  -27.9640  -23.8418   19.7700 C   0  0  0  0  0  0  0  0  0  0  0  0
  -29.1947  -21.8732   20.4388 C   0  0  0  0  0  0  0  0  0  0  0  0
  -27.0556  -21.6448   19.3392 C   0  0  0  0  0  0  0  0  0  0  0  0
  -30.2381  -11.9971   18.8705 C   0  0  0  0  0  0  0  0  0  0  0  0
  -26.4125  -27.0934   20.3696 C   0  0  0  0  0  0  0  0  0  0  0  0
  -31.6245  -11.8366   16.9799 C   0  0  0  0  0  0  0  0  0  0  0  0
  -28.1789  -21.0648   19.9287 C   0  0  0  0  0  0  0  0  0  0  0  0
  -31.9342  -12.0283   14.2140 C   0  0  0  0  0  0  0  0  0  0  0  0
  -32.5370  -12.7439   16.4415 C   0  0  0  0  0  0  0  0  0  0  0  0
  -26.4086  -12.7958   20.4812 C   0  0  0  0  0  0  0  0  0  0  0  0
  -24.2441  -12.8654   20.8626 C   0  0  0  0  0  0  0  0  0  0  0  0
  -24.8816  -11.4934   18.8727 C   0  0  0  0  0  0  0  0  0  0  0  0
  -25.3993  -31.8563   22.7680 C   0  0  0  0  0  0  0  0  0  0  0  0
  -22.2736  -31.4636   21.9946 C   0  0  0  0  0  0  0  0  0  0  0  0
  -19.8683  -29.5202   20.5510 C   0  0  0  0  0  0  0  0  0  0  0  0
  -27.6844  -15.7377   23.8359 C   0  0  0  0  0  0  0  0  0  0  0  0
  -24.8049  -35.5827   26.2057 C   0  0  0  0  0  0  0  0  0  0  0  0
  -25.5534  -31.3105   20.3115 C   0  0  0  0  0  0  0  0  0  0  0  0
  -23.7616  -29.4420   21.7407 C   0  0  0  0  0  0  0  0  0  0  0  0
  -24.1176  -34.2527   25.9074 C   0  0  0  0  0  0  0  0  0  0  0  0
  -25.4293  -13.3498   25.0650 C   0  0  0  0  0  0  0  0  0  0  0  0
  -25.1509  -33.1423   25.7456 C   0  0  0  0  0  0  0  0  0  0  0  0
  -24.1841  -13.5088   24.1963 C   0  0  0  0  0  0  0  0  0  0  0  0
  -26.9973  -18.8416   21.8617 C   0  0  0  0  0  0  0  0  0  0  0  0
  -29.2324  -17.8688   21.2324 C   0  0  0  0  0  0  0  0  0  0  0  0
  -26.0515  -14.7028   25.3800 C   0  0  0  0  0  0  0  0  0  0  0  0
  -27.0766  -18.0953   23.1873 C   0  0  0  0  0  0  0  0  0  0  0  0
  -29.2707  -17.1350   22.5676 C   0  0  0  0  0  0  0  0  0  0  0  0
  -25.2039  -15.6712   23.2635 C   0  0  0  0  0  0  0  0  0  0  0  0
  -26.0897  -33.4296   24.5676 C   0  0  1  0  0  0  0  0  0  0  0  0
  -24.6630  -31.7725   21.4609 C   0  0  1  0  0  0  0  0  0  0  0  0
  -24.4087  -14.3843   22.9504 C   0  0  1  0  0  0  0  0  0  0  0  0
  -28.3911  -19.1409   21.3107 C   0  0  0  0  0  0  0  0  0  0  0  0
  -30.4048  -21.2710   21.0737 C   0  0  0  0  0  0  0  0  0  0  0  0
  -25.9576  -20.7961   18.7878 C   0  0  0  0  0  0  0  0  0  0  0  0
  -17.3995  -29.4463   20.1071 C   0  0  0  0  0  0  0  0  0  0  0  0
  -21.7733  -30.7277   24.9132 C   0  0  0  0  0  0  0  0  0  0  0  0
  -19.5679  -29.7665   24.2202 C   0  0  0  0  0  0  0  0  0  0  0  0
  -20.0252  -32.1969   23.8934 C   0  0  0  0  0  0  0  0  0  0  0  0
  -20.2793  -29.4656   17.6206 C   0  0  0  0  0  0  0  0  0  0  0  0
  -27.8491  -25.3262   19.6846 C   0  0  0  0  0  0  0  0  0  1  0  0
  -21.1815  -30.5076   22.4097 C   0  0  1  0  0  0  0  0  0  0  0  0
  -18.7617  -29.8524   19.5664 C   0  0  2  0  0  0  0  0  0  0  0  0
  -20.6612  -30.7904   23.8473 C   0  0  0  0  0  0  0  0  0  0  0  0
  -26.2846  -13.5651   21.5660 N   0  0  0  0  0  0  0  0  0  0  0  0
  -24.9569  -13.5887   21.7731 N   0  0  0  0  0  0  0  0  0  0  0  0
  -23.5130  -30.8916   21.6743 N   0  0  0  0  0  0  0  0  0  0  0  0
  -26.3486  -15.4485   24.1586 N   0  0  0  0  0  0  0  0  0  0  0  0
  -27.9224  -16.8982   23.0837 N   0  0  0  0  0  0  0  0  0  0  0  0
  -22.8982  -12.7819   20.9239 N   0  0  0  0  0  0  0  0  0  0  0  0
  -25.9505  -11.0326   18.0920 N   0  0  0  0  0  0  0  0  0  0  0  0
  -25.4347  -33.1254   23.3135 N   0  0  0  0  0  0  0  0  0  0  0  0
  -20.1549  -30.5870   21.3762 N   0  0  0  0  0  0  0  0  0  0  0  0
  -18.9860  -29.1416   18.2758 N   0  3  0  0  0  0  0  0  0  0  0  0
  -23.7097  -11.1761   18.5575 O   0  0  0  0  0  0  0  0  0  0  0  0
  -25.8972  -30.8441   23.2469 O   0  0  0  0  0  0  0  0  0  0  0  0
  -22.0338  -32.6728   21.9491 O   0  0  0  0  0  0  0  0  0  0  0  0
  -20.4204  -28.4227   20.5871 O   0  0  0  0  0  0  0  0  0  0  0  0
  -28.6111  -14.9909   24.1753 O   0  0  0  0  0  0  0  0  0  0  0  0
  -31.4703  -11.7396   18.3526 O   0  0  0  0  0  0  0  0  0  0  0  0
  -28.2842  -19.7011   20.0073 O   0  0  0  0  0  0  0  0  0  0  0  0
  -26.6847  -25.7505   20.3825 O   0  0  0  0  0  0  0  0  0  1  0  0
  -32.0839  -12.1192   12.8861 F   0  0  0  0  0  0  0  0  0  0  0  0
  -33.2685  -13.5252   17.2478 F   0  0  0  0  0  0  0  0  0  0  0  0
  1  2  1  0  0  0  0
  1  5  2  0  0  0  0
  2  6  2  0  0  0  0
  3  8  2  0  0  0  0
  3 17  1  0  0  0  0
  4  9  1  0  0  0  0
  4 17  2  0  0  0  0
  5 19  1  0  0  0  0
  6 21  1  0  0  0  0
  7 10  2  0  0  0  0
  7 20  1  0  0  0  0
  8 26  1  0  0  0  0
  9 26  2  0  0  0  0
 10 27  1  0  0  0  0
 11 12  2  0  0  0  0
 11 28  1  0  0  0  0
 12 30  1  0  0  0  0
 13 22  1  0  0  0  0
 13 27  2  0  0  0  0
 14 23  1  0  0  0  0
 14 24  2  0  0  0  0
 15 23  2  0  0  0  0
 15 25  1  0  0  0  0
 16 30  2  0  0  0  0
 16 31  1  0  0  0  0
 17 32  1  0  0  0  0
 18 32  1  0  0  0  0
 18 33  2  0  0  0  0
 18 34  1  0  0  0  0
 19 21  2  0  0  0  0
 19 39  1  0  0  0  0
 20 22  2  0  0  0  0
 20 40  1  0  0  0  0
 21 52  1  0  0  0  0
 22 41  1  0  0  0  0
 23 63  1  0  0  0  0
 24 29  1  0  0  0  0
 24 56  1  0  0  0  0
 25 29  2  0  0  0  0
 25 57  1  0  0  0  0
 26 82  1  0  0  0  0
 27 84  1  0  0  0  0
 28 31  2  0  0  0  0
 28 82  1  0  0  0  0
 29 83  1  0  0  0  0
 30 85  1  0  0  0  0
 31 86  1  0  0  0  0
 32 67  2  0  0  0  0
 33 68  1  0  0  0  0
 33 72  1  0  0  0  0
 34 73  1  0  0  0  0
 34 77  2  0  0  0  0
 35 53  1  0  0  0  0
 35 74  1  0  0  0  0
 35 78  2  0  0  0  0
 36 64  1  0  0  0  0
 36 69  1  0  0  0  0
 36 79  2  0  0  0  0
 37 65  1  0  0  0  0
 37 75  1  0  0  0  0
 37 80  2  0  0  0  0
 38 70  1  0  0  0  0
 38 71  1  0  0  0  0
 38 81  2  0  0  0  0
 39 42  1  0  0  0  0
 40 53  1  0  0  0  0
 41 69  1  0  0  0  0
 42 44  1  0  0  0  0
 43 45  1  0  0  0  0
 43 48  1  0  0  0  0
 44 52  1  0  0  0  0
 45 54  1  0  0  0  0
 46 49  1  0  0  0  0
 46 55  1  0  0  0  0
 47 50  1  0  0  0  0
 47 55  1  0  0  0  0
 48 70  1  0  0  0  0
 49 71  1  0  0  0  0
 50 71  1  0  0  0  0
 51 54  1  0  0  0  0
 51 70  1  0  0  0  0
 52 74  1  0  0  0  0
 53 69  1  0  0  0  0
 54 68  1  0  0  0  0
 55 83  1  0  0  0  0
 58 65  1  0  0  0  0
 59 66  1  0  0  0  0
 60 66  1  0  0  0  0
 61 66  1  0  0  0  0
 62 76  1  0  0  0  0
 63 84  1  0  0  0  0
 64 66  1  0  0  0  0
 64 75  1  0  0  0  0
 65 76  1  0  0  0  0
 67 68  1  0  0  0  0
M  CHG  1  76   1
M  ISO  4  38 100  63 101  71 100  84 101
M  END
> <Batch ID>
0157

> <Smiles>
CNC(C)C(=O)NC(C(=O)N1Cc2cc([101O:1][101CH2:1]c3cc(C)c(OC4CC[100N:0]([100C:0](=O)N5CCCC(n6nc(-c7ccc(Oc8ccc(F)cc8F)cc7)c(C(N)=O)c6N)C5)CC4)c(C)c3)ccc2CC1C(=O)NC1CCCc2ccccc21)C(C)(C)C

> <Shape>
0.271

> <Color>
0.079

> <Negative vol penalty>
0.000

$$$$

  -OEChem-04052321593D

 88 97  0     1  0  0  0  0  0999 V2000
  -16.3972  -29.9496   24.0108 C   0  0  0  0  0  0  0  0  0  0  0  0
  -17.0845  -28.7564   24.2090 C   0  0  0  0  0  0  0  0  0  0  0  0
  -25.5364  -17.0505   21.5421 C   0  0  0  0  0  0  0  0  0  0  0  0
  -27.2034  -15.9922   22.9342 C   0  0  0  0  0  0  0  0  0  0  0  0
  -16.8831  -30.8902   23.1036 C   0  0  0  0  0  0  0  0  0  0  0  0
  -18.2576  -28.5026   23.4993 C   0  0  0  0  0  0  0  0  0  0  0  0
  -24.5803  -25.2011   24.1621 C   0  0  0  0  0  0  0  0  0  0  0  0
  -25.6428  -18.2161   22.3007 C   0  0  0  0  0  0  0  0  0  0  0  0
  -27.3099  -17.1579   23.6928 C   0  0  0  0  0  0  0  0  0  0  0  0
  -25.3828  -24.2691   23.5054 C   0  0  0  0  0  0  0  0  0  0  0  0
  -25.5782  -18.6932   26.1575 C   0  0  0  0  0  0  0  0  0  0  0  0
  -25.6000  -18.5630   27.5461 C   0  0  0  0  0  0  0  0  0  0  0  0
  -26.1706  -26.0013   22.0228 C   0  0  0  0  0  0  0  0  0  0  0  0
  -27.7800  -19.6027   27.6094 C   0  0  0  0  0  0  0  0  0  0  0  0
  -26.3166  -15.9384   21.8589 C   0  0  0  0  0  0  0  0  0  0  0  0
  -25.0553  -13.9469   20.8839 C   0  0  0  0  0  0  0  0  0  0  0  0
  -18.0680  -30.6520   22.3894 C   0  0  0  0  0  0  0  0  0  0  0  0
  -24.5586  -26.5401   23.7465 C   0  0  0  0  0  0  0  0  0  0  0  0
  -18.7591  -29.4403   22.5806 C   0  0  0  0  0  0  0  0  0  0  0  0
  -25.3689  -26.9488   22.6775 C   0  0  0  0  0  0  0  0  0  0  0  0
  -28.4107  -20.4121   19.4175 C   0  0  0  0  0  0  0  0  0  0  0  0
  -29.9688  -20.4023   21.2640 C   0  0  0  0  0  0  0  0  0  0  0  0
  -27.5291  -21.1922   20.1656 C   0  0  0  0  0  0  0  0  0  0  0  0
  -29.0872  -21.1825   22.0120 C   0  0  0  0  0  0  0  0  0  0  0  0
  -29.6306  -20.0170   19.9667 C   0  0  0  0  0  0  0  0  0  0  0  0
  -27.8673  -21.5775   21.4628 C   0  0  0  0  0  0  0  0  0  0  0  0
  -26.5296  -18.2699   23.3760 C   0  0  0  0  0  0  0  0  0  0  0  0
  -26.1759  -24.6686   22.4338 C   0  0  0  0  0  0  0  0  0  0  0  0
  -26.6574  -19.2780   25.4948 C   0  0  0  0  0  0  0  0  0  0  0  0
  -26.7008  -19.0178   28.2721 C   0  0  0  0  0  0  0  0  0  0  0  0
  -27.7582  -19.7328   26.2208 C   0  0  0  0  0  0  0  0  0  0  0  0
  -26.2067  -14.7338   21.0760 C   0  0  0  0  0  0  0  0  0  0  0  0
  -25.4712  -12.9234   20.0678 C   0  0  0  0  0  0  0  0  0  0  0  0
  -23.7285  -14.1253   21.3971 C   0  0  0  0  0  0  0  0  0  0  0  0
  -22.3316  -28.4972   22.6000 C   0  0  0  0  0  0  0  0  0  0  0  0
  -24.6901  -30.7079   22.8689 C   0  0  0  0  0  0  0  0  0  0  0  0
  -28.0341  -31.3738   23.0139 C   0  0  0  0  0  0  0  0  0  0  0  0
  -30.6590  -14.5959   19.2027 C   0  0  0  0  0  0  0  0  0  0  0  0
  -18.5287  -31.6781   21.3847 C   0  0  0  0  0  0  0  0  0  0  0  0
  -23.7077  -27.5386   24.4824 C   0  0  0  0  0  0  0  0  0  0  0  0
  -25.3970  -28.3787   22.2052 C   0  0  0  0  0  0  0  0  0  0  0  0
  -19.9802  -31.4949   20.9489 C   0  0  0  0  0  0  0  0  0  0  0  0
  -29.5149  -11.5255   20.6276 C   0  0  0  0  0  0  0  0  0  0  0  0
  -31.4683  -16.1365   16.0212 C   0  0  0  0  0  0  0  0  0  0  0  0
  -20.2578  -30.0318   20.6185 C   0  0  0  0  0  0  0  0  0  0  0  0
  -28.3109  -11.1267   19.7815 C   0  0  0  0  0  0  0  0  0  0  0  0
  -31.2024  -17.3954   16.8345 C   0  0  0  0  0  0  0  0  0  0  0  0
  -30.5763  -12.1943   19.7679 C   0  0  0  0  0  0  0  0  0  0  0  0
  -30.5886  -15.1043   16.7095 C   0  0  0  0  0  0  0  0  0  0  0  0
  -28.8373  -13.0987   18.2368 C   0  0  0  0  0  0  0  0  0  0  0  0
  -20.0485  -29.1393   21.8478 C   0  0  1  0  0  0  0  0  0  0  0  0
  -23.3744  -28.7706   23.6467 C   0  0  1  0  0  0  0  0  0  0  0  0
  -27.7372  -12.3063   18.9801 C   0  0  2  0  0  0  0  0  0  0  0  0
  -31.0841  -16.8696   18.2677 C   0  0  1  0  0  0  0  0  0  0  0  0
  -28.0482  -19.9989   18.0258 C   0  0  0  0  0  0  0  0  0  0  0  0
  -31.2775  -19.9791   21.8535 C   0  0  0  0  0  0  0  0  0  0  0  0
  -26.2205  -21.6158   19.5761 C   0  0  0  0  0  0  0  0  0  0  0  0
  -29.4501  -21.5976   23.4032 C   0  0  0  0  0  0  0  0  0  0  0  0
  -29.6572  -33.2790   23.1962 C   0  0  0  0  0  0  0  0  0  0  0  0
  -24.2079  -31.3962   19.9357 C   0  0  0  0  0  0  0  0  0  0  0  0
  -26.4189  -32.5708   19.9200 C   0  0  0  0  0  0  0  0  0  0  0  0
  -24.5941  -33.3710   21.4208 C   0  0  0  0  0  0  0  0  0  0  0  0
  -29.1285  -30.3495   25.5658 C   0  0  0  0  0  0  0  0  0  0  0  0
  -30.5842  -19.1744   19.1579 C   0  0  0  0  0  0  0  0  0  0  0  0
  -26.9225  -22.4170   22.2639 C   0  0  0  0  0  0  0  0  0  1  0  0
  -30.1339  -17.7139   19.1071 C   0  0  0  0  0  0  0  0  0  0  0  0
  -25.7909  -31.2120   21.9670 C   0  0  1  0  0  0  0  0  0  0  0  0
  -28.8487  -32.2401   23.9576 C   0  0  2  0  0  0  0  0  0  0  0  0
  -25.2512  -32.1101   20.8183 C   0  0  0  0  0  0  0  0  0  0  0  0
  -27.2739  -14.2515   20.4338 N   0  0  0  0  0  0  0  0  0  0  0  0
  -26.7949  -13.1504   19.8303 N   0  0  0  0  0  0  0  0  0  0  0  0
  -24.5429  -29.3161   22.9530 N   0  0  0  0  0  0  0  0  0  0  0  0
  -30.0443  -13.3457   19.0388 N   0  0  0  0  0  0  0  0  0  0  0  0
  -30.6280  -15.4818   18.1232 N   0  0  0  0  0  0  0  0  0  0  0  0
  -24.8300  -11.8603   19.5376 N   0  0  0  0  0  0  0  0  0  0  0  0
  -23.4033  -13.5376   22.6272 N   0  0  0  0  0  0  0  0  0  0  0  0
  -21.1781  -29.2438   22.7464 N   0  0  0  0  0  0  0  0  0  0  0  0
  -26.7604  -31.8709   22.8354 N   0  0  0  0  0  0  0  0  0  0  0  0
  -29.7906  -31.3994   24.7495 N   0  3  0  0  0  0  0  0  0  0  0  0
  -22.8522  -14.7725   20.7752 O   0  0  0  0  0  0  0  0  0  0  0  0
  -22.5575  -27.6711   21.7234 O   0  0  0  0  0  0  0  0  0  0  0  0
  -23.9915  -31.5190   23.4818 O   0  0  0  0  0  0  0  0  0  0  0  0
  -28.4840  -30.3598   22.4848 O   0  0  0  0  0  0  0  0  0  0  0  0
  -31.2198  -14.9038   20.2628 O   0  0  0  0  0  0  0  0  0  0  0  0
  -26.6339  -19.4072   24.1163 O   0  0  0  0  0  0  0  0  0  0  0  0
  -26.9655  -23.7541   21.7858 O   0  0  0  0  0  0  0  0  0  1  0  0
  -26.7209  -18.8941   29.6057 F   0  0  0  0  0  0  0  0  0  0  0  0
  -28.7974  -20.2966   25.5898 F   0  0  0  0  0  0  0  0  0  0  0  0
  1  2  1  0  0  0  0
  1  5  2  0  0  0  0
  2  6  2  0  0  0  0
  3  8  2  0  0  0  0
  3 15  1  0  0  0  0
  4  9  1  0  0  0  0
  4 15  2  0  0  0  0
  5 17  1  0  0  0  0
  6 19  1  0  0  0  0
  7 10  2  0  0  0  0
  7 18  1  0  0  0  0
  8 27  1  0  0  0  0
  9 27  2  0  0  0  0
 10 28  1  0  0  0  0
 11 12  2  0  0  0  0
 11 29  1  0  0  0  0
 12 30  1  0  0  0  0
 13 20  1  0  0  0  0
 13 28  2  0  0  0  0
 14 30  2  0  0  0  0
 14 31  1  0  0  0  0
 15 32  1  0  0  0  0
 16 32  1  0  0  0  0
 16 33  2  0  0  0  0
 16 34  1  0  0  0  0
 17 19  2  0  0  0  0
 17 39  1  0  0  0  0
 18 20  2  0  0  0  0
 18 40  1  0  0  0  0
 19 51  1  0  0  0  0
 20 41  1  0  0  0  0
 21 23  2  0  0  0  0
 21 25  1  0  0  0  0
 21 55  1  0  0  0  0
 22 24  1  0  0  0  0
 22 25  2  0  0  0  0
 22 56  1  0  0  0  0
 23 26  1  0  0  0  0
 23 57  1  0  0  0  0
 24 26  2  0  0  0  0
 24 58  1  0  0  0  0
 25 64  1  0  0  0  0
 26 65  1  0  0  0  0
 27 85  1  0  0  0  0
 28 86  1  0  0  0  0
 29 31  2  0  0  0  0
 29 85  1  0  0  0  0
 30 87  1  0  0  0  0
 31 88  1  0  0  0  0
 32 70  2  0  0  0  0
 33 71  1  0  0  0  0
 33 75  1  0  0  0  0
 34 76  1  0  0  0  0
 34 80  2  0  0  0  0
 35 52  1  0  0  0  0
 35 77  1  0  0  0  0
 35 81  2  0  0  0  0
 36 67  1  0  0  0  0
 36 72  1  0  0  0  0
 36 82  2  0  0  0  0
 37 68  1  0  0  0  0
 37 78  1  0  0  0  0
 37 83  2  0  0  0  0
 38 73  1  0  0  0  0
 38 74  1  0  0  0  0
 38 84  2  0  0  0  0
 39 42  1  0  0  0  0
 40 52  1  0  0  0  0
 41 72  1  0  0  0  0
 42 45  1  0  0  0  0
 43 46  1  0  0  0  0
 43 48  1  0  0  0  0
 44 47  1  0  0  0  0
 44 49  1  0  0  0  0
 45 51  1  0  0  0  0
 46 53  1  0  0  0  0
 47 54  1  0  0  0  0
 48 73  1  0  0  0  0
 49 74  1  0  0  0  0
 50 53  1  0  0  0  0
 50 73  1  0  0  0  0
 51 77  1  0  0  0  0
 52 72  1  0  0  0  0
 53 71  1  0  0  0  0
 54 66  1  0  0  0  0
 54 74  1  0  0  0  0
 59 68  1  0  0  0  0
 60 69  1  0  0  0  0
 61 69  1  0  0  0  0
 62 69  1  0  0  0  0
 63 79  1  0  0  0  0
 64 66  1  0  0  0  0
 65 86  1  0  0  0  0
 67 69  1  0  0  0  0
 67 78  1  0  0  0  0
 68 79  1  0  0  0  0
 70 71  1  0  0  0  0
M  CHG  1  79   1
M  ISO  4  38 100  65 101  74 100  86 101
M  END
> <Batch ID>
0157

> <Smiles>
CNC(C)C(=O)NC(C(=O)N1Cc2cc([101O:1][101CH2:1]c3c(C)c(C)c(CCC4CCC[100N:0]4[100C:0](=O)N4CCCC(n5nc(-c6ccc(Oc7ccc(F)cc7F)cc6)c(C(N)=O)c5N)C4)c(C)c3C)ccc2CC1C(=O)NC1CCCc2ccccc21)C(C)(C)C

> <Shape>
0.227

> <Color>
0.094

> <Negative vol penalty>
0.000

$$$$

  -OEChem-04052321593D

 87 96  0     1  0  0  0  0  0999 V2000
  -29.5797  -34.5287   24.8363 C   0  0  0  0  0  0  0  0  0  0  0  0
  -29.4465  -33.2065   24.4247 C   0  0  0  0  0  0  0  0  0  0  0  0
  -24.7705  -10.1740   23.1693 C   0  0  0  0  0  0  0  0  0  0  0  0
  -24.3089   -8.8461   21.2045 C   0  0  0  0  0  0  0  0  0  0  0  0
  -28.4513  -35.2597   25.2052 C   0  0  0  0  0  0  0  0  0  0  0  0
  -28.1848  -32.6142   24.3829 C   0  0  0  0  0  0  0  0  0  0  0  0
  -27.4233  -29.9622   20.1365 C   0  0  0  0  0  0  0  0  0  0  0  0
  -23.6950   -9.5762   23.8261 C   0  0  0  0  0  0  0  0  0  0  0  0
  -23.2334   -8.2482   21.8613 C   0  0  0  0  0  0  0  0  0  0  0  0
  -28.0104  -28.7000   20.0601 C   0  0  0  0  0  0  0  0  0  0  0  0
  -22.7608   -5.8187   24.1624 C   0  0  0  0  0  0  0  0  0  0  0  0
  -22.6267   -4.4345   24.0557 C   0  0  0  0  0  0  0  0  0  0  0  0
  -25.8962  -27.6887   20.6315 C   0  0  0  0  0  0  0  0  0  0  0  0
  -29.4793  -22.6294   18.8855 C   0  0  0  0  0  0  0  0  0  0  0  0
  -30.6615  -24.4115   20.6769 C   0  0  0  0  0  0  0  0  0  0  0  0
  -20.4547   -4.7235   23.0378 C   0  0  0  0  0  0  0  0  0  0  0  0
  -25.0775   -9.8090   21.8585 C   0  0  0  0  0  0  0  0  0  0  0  0
  -27.5252   -9.9867   21.1623 C   0  0  0  0  0  0  0  0  0  0  0  0
  -27.1740  -34.6791   25.1587 C   0  0  0  0  0  0  0  0  0  0  0  0
  -26.0685  -30.0979   20.4722 C   0  0  0  0  0  0  0  0  0  0  0  0
  -27.0384  -33.3377   24.7529 C   0  0  0  0  0  0  0  0  0  0  0  0
  -25.2936  -28.9536   20.7089 C   0  0  0  0  0  0  0  0  0  0  0  0
  -29.0526  -23.9565   18.9329 C   0  0  0  0  0  0  0  0  0  0  0  0
  -29.6437  -24.8476   19.8285 C   0  0  0  0  0  0  0  0  0  0  0  0
  -30.4970  -22.1932   19.7339 C   0  0  0  0  0  0  0  0  0  0  0  0
  -22.9264   -8.6133   23.1721 C   0  0  0  0  0  0  0  0  0  0  0  0
  -27.2476  -27.5631   20.3105 C   0  0  0  0  0  0  0  0  0  0  0  0
  -21.7419   -6.6554   23.7068 C   0  0  0  0  0  0  0  0  0  0  0  0
  -31.0882  -23.0843   20.6295 C   0  0  0  0  0  0  0  0  0  0  0  0
  -21.4736   -3.8868   23.4934 C   0  0  0  0  0  0  0  0  0  0  0  0
  -20.5888   -6.1078   23.1445 C   0  0  0  0  0  0  0  0  0  0  0  0
  -26.1881  -10.4266   21.1793 C   0  0  0  0  0  0  0  0  0  0  0  0
  -28.1803  -10.9093   20.3838 C   0  0  0  0  0  0  0  0  0  0  0  0
  -28.1218   -8.8460   21.7937 C   0  0  0  0  0  0  0  0  0  0  0  0
  -24.4743  -31.4768   22.8515 C   0  0  0  0  0  0  0  0  0  0  0  0
  -21.8871  -30.6533   21.0765 C   0  0  0  0  0  0  0  0  0  0  0  0
  -20.5340  -28.6084   18.7028 C   0  0  0  0  0  0  0  0  0  0  0  0
  -29.3134  -15.9268   18.8520 C   0  0  0  0  0  0  0  0  0  0  0  0
  -25.9890  -35.4944   25.6123 C   0  0  0  0  0  0  0  0  0  0  0  0
  -25.4437  -31.4652   20.5242 C   0  0  0  0  0  0  0  0  0  0  0  0
  -23.8302  -29.0441   21.0533 C   0  0  0  0  0  0  0  0  0  0  0  0
  -24.6464  -34.9091   25.1820 C   0  0  0  0  0  0  0  0  0  0  0  0
  -26.3993  -14.5914   17.4191 C   0  0  0  0  0  0  0  0  0  0  0  0
  -24.6023  -33.4107   25.4641 C   0  0  0  0  0  0  0  0  0  0  0  0
  -26.1862  -13.3420   18.2733 C   0  0  0  0  0  0  0  0  0  0  0  0
  -29.0072  -19.4005   19.3293 C   0  0  0  0  0  0  0  0  0  0  0  0
  -31.3246  -18.7355   18.5844 C   0  0  0  0  0  0  0  0  0  0  0  0
  -26.8538  -15.7879   18.2569 C   0  0  0  0  0  0  0  0  0  0  0  0
  -28.4266  -18.2713   18.4730 C   0  0  0  0  0  0  0  0  0  0  0  0
  -30.6985  -17.6416   17.7240 C   0  0  0  0  0  0  0  0  0  0  0  0
  -27.8335  -14.2685   19.9452 C   0  0  0  0  0  0  0  0  0  0  0  0
  -25.6839  -32.6678   24.6706 C   0  0  1  0  0  0  0  0  0  0  0  0
  -24.1805  -31.5127   21.3783 C   0  0  1  0  0  0  0  0  0  0  0  0
  -27.4325  -13.0343   19.1224 C   0  0  1  0  0  0  0  0  0  0  0  0
  -30.3447  -19.8962   18.7745 C   0  0  0  0  0  0  0  0  0  0  0  0
  -27.9601  -24.4006   18.0163 C   0  0  0  0  0  0  0  0  0  0  0  0
  -18.3860  -28.1523   17.4880 C   0  0  0  0  0  0  0  0  0  0  0  0
  -20.7768  -29.2752   23.5621 C   0  0  0  0  0  0  0  0  0  0  0  0
  -19.1589  -28.0653   22.0834 C   0  0  0  0  0  0  0  0  0  0  0  0
  -19.0861  -30.5541   22.2353 C   0  0  0  0  0  0  0  0  0  0  0  0
  -21.7565  -29.2116   16.0760 C   0  0  0  0  0  0  0  0  0  0  0  0
  -31.6945  -22.1753   22.7418 C   0  0  0  0  0  0  0  0  0  0  0  0
  -29.2024  -26.2727   19.8991 C   0  0  0  0  0  0  0  0  0  1  0  0
  -20.9882  -29.4432   20.9944 C   0  0  1  0  0  0  0  0  0  0  0  0
  -19.7045  -28.9099   17.4677 C   0  0  2  0  0  0  0  0  0  0  0  0
  -20.0305  -29.3325   22.2142 C   0  0  0  0  0  0  0  0  0  0  0  0
  -26.0031  -11.5420   20.4682 N   0  0  0  0  0  0  0  0  0  0  0  0
  -27.2327  -11.8108   19.9972 N   0  0  0  0  0  0  0  0  0  0  0  0
  -23.2666  -30.4035   21.0981 N   0  0  0  0  0  0  0  0  0  0  0  0
  -28.0195  -15.4346   19.0791 N   0  0  0  0  0  0  0  0  0  0  0  0
  -29.4175  -17.2030   18.2788 N   0  0  0  0  0  0  0  0  0  0  0  0
  -29.4688  -11.0293   19.9991 N   0  0  0  0  0  0  0  0  0  0  0  0
  -27.3045   -8.0015   22.5574 N   0  0  0  0  0  0  0  0  0  0  0  0
  -30.9113  -20.8744   19.6768 N   0  0  0  0  0  0  0  0  0  0  0  0
  -25.2796  -32.5106   23.2899 N   0  0  0  0  0  0  0  0  0  0  0  0
  -20.3081  -29.5266   19.7064 N   0  0  0  0  0  0  0  0  0  0  0  0
  -20.4497  -28.5235   16.2363 N   0  3  0  0  0  0  0  0  0  0  0  0
  -29.3465   -8.5925   21.6974 O   0  0  0  0  0  0  0  0  0  0  0  0
  -24.0040  -30.5785   23.5396 O   0  0  0  0  0  0  0  0  0  0  0  0
  -21.3840  -31.7790   21.1128 O   0  0  0  0  0  0  0  0  0  0  0  0
  -21.3024  -27.6517   18.7719 O   0  0  0  0  0  0  0  0  0  0  0  0
  -30.3172  -15.2650   19.1444 O   0  0  0  0  0  0  0  0  0  0  0  0
  -21.8769   -8.0295   23.8127 O   0  0  0  0  0  0  0  0  0  0  0  0
  -32.0849  -22.6783   21.4659 O   0  0  0  0  0  0  0  0  0  0  0  0
  -27.8224  -26.3211   20.2368 O   0  0  0  0  0  0  0  0  0  1  0  0
  -21.3456   -2.5575   23.3896 F   0  0  0  0  0  0  0  0  0  0  0  0
  -19.6071   -6.9065   22.7040 F   0  0  0  0  0  0  0  0  0  0  0  0
  1  2  1  0  0  0  0
  1  5  2  0  0  0  0
  2  6  2  0  0  0  0
  3  8  2  0  0  0  0
  3 17  1  0  0  0  0
  4  9  1  0  0  0  0
  4 17  2  0  0  0  0
  5 19  1  0  0  0  0
  6 21  1  0  0  0  0
  7 10  2  0  0  0  0
  7 20  1  0  0  0  0
  8 26  1  0  0  0  0
  9 26  2  0  0  0  0
 10 27  1  0  0  0  0
 11 12  2  0  0  0  0
 11 28  1  0  0  0  0
 12 30  1  0  0  0  0
 13 22  1  0  0  0  0
 13 27  2  0  0  0  0
 14 23  1  0  0  0  0
 14 25  2  0  0  0  0
 15 24  1  0  0  0  0
 15 29  2  0  0  0  0
 16 30  2  0  0  0  0
 16 31  1  0  0  0  0
 17 32  1  0  0  0  0
 18 32  1  0  0  0  0
 18 33  2  0  0  0  0
 18 34  1  0  0  0  0
 19 21  2  0  0  0  0
 19 39  1  0  0  0  0
 20 22  2  0  0  0  0
 20 40  1  0  0  0  0
 21 52  1  0  0  0  0
 22 41  1  0  0  0  0
 23 24  2  0  0  0  0
 23 56  1  0  0  0  0
 24 63  1  0  0  0  0
 25 29  1  0  0  0  0
 25 74  1  0  0  0  0
 26 83  1  0  0  0  0
 27 85  1  0  0  0  0
 28 31  2  0  0  0  0
 28 83  1  0  0  0  0
 29 84  1  0  0  0  0
 30 86  1  0  0  0  0
 31 87  1  0  0  0  0
 32 67  2  0  0  0  0
 33 68  1  0  0  0  0
 33 72  1  0  0  0  0
 34 73  1  0  0  0  0
 34 78  2  0  0  0  0
 35 53  1  0  0  0  0
 35 75  1  0  0  0  0
 35 79  2  0  0  0  0
 36 64  1  0  0  0  0
 36 69  1  0  0  0  0
 36 80  2  0  0  0  0
 37 65  1  0  0  0  0
 37 76  1  0  0  0  0
 37 81  2  0  0  0  0
 38 70  1  0  0  0  0
 38 71  1  0  0  0  0
 38 82  2  0  0  0  0
 39 42  1  0  0  0  0
 40 53  1  0  0  0  0
 41 69  1  0  0  0  0
 42 44  1  0  0  0  0
 43 45  1  0  0  0  0
 43 48  1  0  0  0  0
 44 52  1  0  0  0  0
 45 54  1  0  0  0  0
 46 49  1  0  0  0  0
 46 55  1  0  0  0  0
 47 50  1  0  0  0  0
 47 55  1  0  0  0  0
 48 70  1  0  0  0  0
 49 71  1  0  0  0  0
 50 71  1  0  0  0  0
 51 54  1  0  0  0  0
 51 70  1  0  0  0  0
 52 75  1  0  0  0  0
 53 69  1  0  0  0  0
 54 68  1  0  0  0  0
 55 74  1  0  0  0  0
 57 65  1  0  0  0  0
 58 66  1  0  0  0  0
 59 66  1  0  0  0  0
 60 66  1  0  0  0  0
 61 77  1  0  0  0  0
 62 84  1  0  0  0  0
 63 85  1  0  0  0  0
 64 66  1  0  0  0  0
 64 76  1  0  0  0  0
 65 77  1  0  0  0  0
 67 68  1  0  0  0  0
M  CHG  1  77   1
M  ISO  4  38 100  63 101  71 100  85 101
M  END
> <Batch ID>
0157

> <Smiles>
CNC(C)C(=O)NC(C(=O)N1Cc2cc([101O:1][101CH2:1]c3cc(OC)c(NC4CC[100N:0]([100C:0](=O)N5CCCC(n6nc(-c7ccc(Oc8ccc(F)cc8F)cc7)c(C(N)=O)c6N)C5)CC4)cc3C)ccc2CC1C(=O)NC1CCCc2ccccc21)C(C)(C)C

> <Shape>
0.301

> <Color>
0.082

> <Negative vol penalty>
0.000

$$$$

  -OEChem-04052321593D

 82 90  0     1  0  0  0  0  0999 V2000
  -32.1399  -22.6817   21.5463 C   0  0  0  0  0  0  0  0  0  0  0  0
  -30.8504  -22.9585   21.1035 C   0  0  0  0  0  0  0  0  0  0  0  0
  -25.1145  -29.1076   19.5842 C   0  0  0  0  0  0  0  0  0  0  0  0
  -25.5394  -26.9203   20.5180 C   0  0  0  0  0  0  0  0  0  0  0  0
  -32.6977  -21.4237   21.3220 C   0  0  0  0  0  0  0  0  0  0  0  0
  -30.1183  -21.9778   20.4352 C   0  0  0  0  0  0  0  0  0  0  0  0
  -24.0698  -21.0623   20.7230 C   0  0  0  0  0  0  0  0  0  0  0  0
  -26.4714  -29.4144   19.6855 C   0  0  0  0  0  0  0  0  0  0  0  0
  -26.8963  -27.2271   20.6193 C   0  0  0  0  0  0  0  0  0  0  0  0
  -23.0230  -21.4394   19.8828 C   0  0  0  0  0  0  0  0  0  0  0  0
  -29.5774  -27.3637   18.5666 C   0  0  0  0  0  0  0  0  0  0  0  0
  -30.4918  -26.3976   18.1469 C   0  0  0  0  0  0  0  0  0  0  0  0
  -23.1152  -19.2812   18.8091 C   0  0  0  0  0  0  0  0  0  0  0  0
  -31.4423  -26.3329   20.3672 C   0  0  0  0  0  0  0  0  0  0  0  0
  -24.6485  -27.8605   20.0005 C   0  0  0  0  0  0  0  0  0  0  0  0
  -22.5886  -26.9485   18.8036 C   0  0  0  0  0  0  0  0  0  0  0  0
  -31.9685  -20.4240   20.6591 C   0  0  0  0  0  0  0  0  0  0  0  0
  -24.6554  -19.7936   20.6050 C   0  0  0  0  0  0  0  0  0  0  0  0
  -30.6674  -20.7057   20.2006 C   0  0  0  0  0  0  0  0  0  0  0  0
  -24.1676  -18.8895   19.6507 C   0  0  0  0  0  0  0  0  0  0  0  0
  -27.3623  -28.4742   20.2030 C   0  0  0  0  0  0  0  0  0  0  0  0
  -22.5475  -20.5499   18.9238 C   0  0  0  0  0  0  0  0  0  0  0  0
  -29.5955  -27.8145   19.8865 C   0  0  0  0  0  0  0  0  0  0  0  0
  -31.4242  -25.8822   19.0472 C   0  0  0  0  0  0  0  0  0  0  0  0
  -30.5279  -27.2991   20.7868 C   0  0  0  0  0  0  0  0  0  0  0  0
  -23.2468  -27.5432   19.8966 C   0  0  0  0  0  0  0  0  0  0  0  0
  -21.2762  -26.8615   19.1990 C   0  0  0  0  0  0  0  0  0  0  0  0
  -23.1163  -26.5135   17.5434 C   0  0  0  0  0  0  0  0  0  0  0  0
  -27.5642  -18.7223   19.9017 C   0  0  0  0  0  0  0  0  0  0  0  0
  -26.2605  -15.8465   20.6448 C   0  0  0  0  0  0  0  0  0  0  0  0
  -23.4545  -13.9260   20.9366 C   0  0  0  0  0  0  0  0  0  0  0  0
  -17.3745  -25.7854   22.8855 C   0  0  0  0  0  0  0  0  0  0  0  0
  -32.6311  -19.0945   20.3979 C   0  0  0  0  0  0  0  0  0  0  0  0
  -25.7659  -19.3923   21.5367 C   0  0  0  0  0  0  0  0  0  0  0  0
  -24.7484  -17.5083   19.4971 C   0  0  0  0  0  0  0  0  0  0  0  0
  -31.6500  -17.9902   20.0129 C   0  0  0  0  0  0  0  0  0  0  0  0
  -18.8745  -28.8890   23.1538 C   0  0  0  0  0  0  0  0  0  0  0  0
  -30.6688  -18.4917   18.9581 C   0  0  0  0  0  0  0  0  0  0  0  0
  -20.0963  -28.7815   22.2416 C   0  0  0  0  0  0  0  0  0  0  0  0
  -16.4639  -23.7847   19.9031 C   0  0  0  0  0  0  0  0  0  0  0  0
  -18.6694  -22.9591   20.7992 C   0  0  0  0  0  0  0  0  0  0  0  0
  -18.6736  -27.6050   23.9507 C   0  0  0  0  0  0  0  0  0  0  0  0
  -16.1483  -24.3742   21.2750 C   0  0  0  0  0  0  0  0  0  0  0  0
  -18.3102  -23.5589   22.1547 C   0  0  0  0  0  0  0  0  0  0  0  0
  -19.7637  -26.2606   22.1844 C   0  0  0  0  0  0  0  0  0  0  0  0
  -29.8325  -19.6601   19.4937 C   0  0  1  0  0  0  0  0  0  0  0  0
  -26.6299  -18.2625   20.9849 C   0  0  1  0  0  0  0  0  0  0  0  0
  -17.4107  -22.5820   20.0064 C   0  0  0  0  0  0  0  0  0  0  0  0
  -20.0099  -27.5319   21.3472 C   0  0  2  0  0  0  0  0  0  0  0  0
  -22.7094  -11.6038   21.5278 C   0  0  0  0  0  0  0  0  0  0  0  0
  -16.5699  -21.5223   17.8747 C   0  0  0  0  0  0  0  0  0  0  0  0
  -27.2241  -14.8481   17.9273 C   0  0  0  0  0  0  0  0  0  0  0  0
  -25.6691  -12.9008   18.1693 C   0  0  0  0  0  0  0  0  0  0  0  0
  -27.5264  -13.2220   19.8032 C   0  0  0  0  0  0  0  0  0  0  0  0
  -21.8306  -14.9011   23.2106 C   0  0  0  0  0  0  0  0  0  0  0  0
  -18.2513  -19.8498   19.6690 C   0  0  0  0  0  0  0  0  0  0  0  0
  -19.2573  -20.4221   17.4642 C   0  0  0  0  0  0  0  0  0  0  0  0
  -20.6627  -19.8808   17.6371 C   0  0  0  0  0  0  0  0  0  1  0  0
  -25.5306  -14.7725   19.8748 C   0  0  1  0  0  0  0  0  0  0  0  0
  -22.9723  -13.0091   22.0462 C   0  0  2  0  0  0  0  0  0  0  0  0
  -17.7784  -22.0584   18.6201 C   0  0  2  0  0  0  0  0  0  0  0  0
  -26.4777  -13.9625   18.9450 C   0  0  0  0  0  0  0  0  0  0  0  0
  -22.4207  -27.8150   20.9104 N   0  0  0  0  0  0  0  0  0  0  0  0
  -21.2298  -27.3891   20.4559 N   0  0  0  0  0  0  0  0  0  0  0  0
  -25.8368  -17.1652   20.4273 N   0  0  0  0  0  0  0  0  0  0  0  0
  -18.6012  -26.4419   23.0665 N   0  0  0  0  0  0  0  0  0  0  0  0
  -17.3689  -24.6787   22.0204 N   0  0  0  0  0  0  0  0  0  0  0  0
  -20.1688  -26.3859   18.5908 N   0  0  0  0  0  0  0  0  0  0  0  0
  -24.4870  -26.6770   17.3008 N   0  0  0  0  0  0  0  0  0  0  0  0
  -28.7850  -19.1737   20.3659 N   0  0  0  0  0  0  0  0  0  0  0  0
  -24.8310  -13.9630   20.8666 N   0  0  0  0  0  0  0  0  0  0  0  0
  -21.7107  -13.5344   22.6407 N   0  3  0  0  0  0  0  0  0  0  0  0
  -18.7644  -20.9584   18.7847 N   0  3  1  0  0  0  0  0  0  0  0  0
  -22.3909  -26.0102   16.6524 O   0  0  0  0  0  0  0  0  0  0  0  0
  -27.2048  -18.6699   18.7313 O   0  0  0  0  0  0  0  0  0  0  0  0
  -27.1681  -15.5265   21.4164 O   0  0  0  0  0  0  0  0  0  0  0  0
  -22.6867  -14.5445   20.2027 O   0  0  0  0  0  0  0  0  0  0  0  0
  -16.3448  -26.1653   23.4568 O   0  0  0  0  0  0  0  0  0  0  0  0
  -28.6865  -28.7732   20.3018 O   0  0  0  0  0  0  0  0  0  0  0  0
  -21.5190  -20.9183   18.0962 O   0  0  0  0  0  0  0  0  0  1  0  0
  -32.3012  -24.9533   18.6445 F   0  0  0  0  0  0  0  0  0  0  0  0
  -30.5494  -27.7274   22.0564 F   0  0  0  0  0  0  0  0  0  0  0  0
  1  2  1  0  0  0  0
  1  5  2  0  0  0  0
  2  6  2  0  0  0  0
  3  8  2  0  0  0  0
  3 15  1  0  0  0  0
  4  9  1  0  0  0  0
  4 15  2  0  0  0  0
  5 17  1  0  0  0  0
  6 19  1  0  0  0  0
  7 10  2  0  0  0  0
  7 18  1  0  0  0  0
  8 21  1  0  0  0  0
  9 21  2  0  0  0  0
 10 22  1  0  0  0  0
 11 12  2  0  0  0  0
 11 23  1  0  0  0  0
 12 24  1  0  0  0  0
 13 20  1  0  0  0  0
 13 22  2  0  0  0  0
 14 24  2  0  0  0  0
 14 25  1  0  0  0  0
 15 26  1  0  0  0  0
 16 26  1  0  0  0  0
 16 27  2  0  0  0  0
 16 28  1  0  0  0  0
 17 19  2  0  0  0  0
 17 33  1  0  0  0  0
 18 20  2  0  0  0  0
 18 34  1  0  0  0  0
 19 46  1  0  0  0  0
 20 35  1  0  0  0  0
 21 79  1  0  0  0  0
 22 80  1  0  0  0  0
 23 25  2  0  0  0  0
 23 79  1  0  0  0  0
 24 81  1  0  0  0  0
 25 82  1  0  0  0  0
 26 63  2  0  0  0  0
 27 64  1  0  0  0  0
 27 68  1  0  0  0  0
 28 69  1  0  0  0  0
 28 74  2  0  0  0  0
 29 47  1  0  0  0  0
 29 70  1  0  0  0  0
 29 75  2  0  0  0  0
 30 59  1  0  0  0  0
 30 65  1  0  0  0  0
 30 76  2  0  0  0  0
 31 60  1  0  0  0  0
 31 71  1  0  0  0  0
 31 77  2  0  0  0  0
 32 66  1  0  0  0  0
 32 67  1  0  0  0  0
 32 78  2  0  0  0  0
 33 36  1  0  0  0  0
 34 47  1  0  0  0  0
 35 65  1  0  0  0  0
 36 38  1  0  0  0  0
 37 39  1  0  0  0  0
 37 42  1  0  0  0  0
 38 46  1  0  0  0  0
 39 49  1  0  0  0  0
 40 43  1  0  0  0  0
 40 48  1  0  0  0  0
 41 44  1  0  0  0  0
 41 48  1  0  0  0  0
 42 66  1  0  0  0  0
 43 67  1  0  0  0  0
 44 67  1  0  0  0  0
 45 49  1  0  0  0  0
 45 66  1  0  0  0  0
 46 70  1  0  0  0  0
 47 65  1  0  0  0  0
 48 61  1  0  0  0  0
 49 64  1  0  0  0  0
 50 60  1  0  0  0  0
 51 61  1  0  0  0  0
 52 62  1  0  0  0  0
 53 62  1  0  0  0  0
 54 62  1  0  0  0  0
 55 72  1  0  0  0  0
 56 73  1  0  0  0  0
 57 58  1  0  0  0  0
 57 73  1  0  0  0  0
 58 80  1  0  0  0  0
 59 62  1  0  0  0  0
 59 71  1  0  0  0  0
 60 72  1  0  0  0  0
 61 73  1  0  0  0  0
 63 64  1  0  0  0  0
M  CHG  2  72   1  73   1
M  ISO  4  32 100  58 101  67 100  80 101
M  END
> <Batch ID>
0157

> <Smiles>
CNC(C)C(=O)NC(C(=O)N1Cc2cc([101O:1][101CH2:1]CN(C)C(C)C3CC[100N:0]([100C:0](=O)N4CCCC(n5nc(-c6ccc(Oc7ccc(F)cc7F)cc6)c(C(N)=O)c5N)C4)CC3)ccc2CC1C(=O)NC1CCCc2ccccc21)C(C)(C)C

> <Shape>
0.207

> <Color>
0.062

> <Negative vol penalty>
0.000

$$$$

  -OEChem-04052321593D

 83 92  0     1  0  0  0  0  0999 V2000
  -26.0824  -35.6916   21.2610 C   0  0  0  0  0  0  0  0  0  0  0  0
  -26.5754  -34.3936   21.3475 C   0  0  0  0  0  0  0  0  0  0  0  0
  -23.0230   -9.8771   19.9877 C   0  0  0  0  0  0  0  0  0  0  0  0
  -23.8539   -9.9068   22.2561 C   0  0  0  0  0  0  0  0  0  0  0  0
  -24.8363  -36.0005   21.8050 C   0  0  0  0  0  0  0  0  0  0  0  0
  -25.8230  -33.4038   21.9790 C   0  0  0  0  0  0  0  0  0  0  0  0
  -25.5291  -27.4763   20.4679 C   0  0  0  0  0  0  0  0  0  0  0  0
  -22.2871   -8.7269   20.2722 C   0  0  0  0  0  0  0  0  0  0  0  0
  -23.1181   -8.7565   22.5407 C   0  0  0  0  0  0  0  0  0  0  0  0
  -26.1686  -26.3461   20.9754 C   0  0  0  0  0  0  0  0  0  0  0  0
  -23.3911   -5.4290   22.0079 C   0  0  0  0  0  0  0  0  0  0  0  0
  -24.0286   -4.4107   22.7166 C   0  0  0  0  0  0  0  0  0  0  0  0
  -24.2539  -25.8977   22.3727 C   0  0  0  0  0  0  0  0  0  0  0  0
  -22.3812   -4.6021   24.4735 C   0  0  0  0  0  0  0  0  0  0  0  0
  -23.8064  -10.4671   20.9796 C   0  0  0  0  0  0  0  0  0  0  0  0
  -24.1446  -12.9908   20.8237 C   0  0  0  0  0  0  0  0  0  0  0  0
  -24.0640  -35.0118   22.4349 C   0  0  0  0  0  0  0  0  0  0  0  0
  -24.2495  -27.8323   20.9177 C   0  0  0  0  0  0  0  0  0  0  0  0
  -24.5660  -33.7001   22.5331 C   0  0  0  0  0  0  0  0  0  0  0  0
  -23.5994  -27.0314   21.8674 C   0  0  0  0  0  0  0  0  0  0  0  0
  -22.3346   -8.1666   21.5487 C   0  0  0  0  0  0  0  0  0  0  0  0
  -25.5322  -25.5582   21.9300 C   0  0  0  0  0  0  0  0  0  0  0  0
  -22.2487   -6.0339   22.5320 C   0  0  0  0  0  0  0  0  0  0  0  0
  -23.5236   -3.9972   23.9494 C   0  0  0  0  0  0  0  0  0  0  0  0
  -21.7438   -5.6205   23.7648 C   0  0  0  0  0  0  0  0  0  0  0  0
  -24.5672  -11.6550   20.6861 C   0  0  0  0  0  0  0  0  0  0  0  0
  -25.2250  -13.7361   20.4190 C   0  0  0  0  0  0  0  0  0  0  0  0
  -22.8878  -13.5113   21.2768 C   0  0  0  0  0  0  0  0  0  0  0  0
  -23.0217  -30.3449   22.4287 C   0  0  0  0  0  0  0  0  0  0  0  0
  -20.2155  -28.8140   21.8772 C   0  0  0  0  0  0  0  0  0  0  0  0
  -18.5893  -25.8771   21.2633 C   0  0  0  0  0  0  0  0  0  0  0  0
  -30.8524  -14.4333   20.8726 C   0  0  0  0  0  0  0  0  0  0  0  0
  -22.7438  -35.4041   23.0496 C   0  0  0  0  0  0  0  0  0  0  0  0
  -23.5624  -29.0395   20.3407 C   0  0  0  0  0  0  0  0  0  0  0  0
  -22.2173  -27.3590   22.3684 C   0  0  0  0  0  0  0  0  0  0  0  0
  -21.8444  -34.2135   23.3720 C   0  0  0  0  0  0  0  0  0  0  0  0
  -29.4978  -12.3839   18.0966 C   0  0  0  0  0  0  0  0  0  0  0  0
  -22.6386  -33.1209   24.0807 C   0  0  0  0  0  0  0  0  0  0  0  0
  -27.5310  -22.0317   23.3768 C   0  0  0  0  0  0  0  0  0  0  0  0
  -28.0850  -12.0641   18.5815 C   0  0  0  0  0  0  0  0  0  0  0  0
  -28.4864  -20.8357   23.3150 C   0  0  0  0  0  0  0  0  0  0  0  0
  -31.0691  -17.7085   21.9964 C   0  0  0  0  0  0  0  0  0  0  0  0
  -28.6930  -17.1809   21.3195 C   0  0  0  0  0  0  0  0  0  0  0  0
  -28.0425  -21.4842   21.0615 C   0  0  0  0  0  0  0  0  0  0  0  0
  -30.4592  -12.6069   19.2598 C   0  0  0  0  0  0  0  0  0  0  0  0
  -31.2118  -16.2721   22.4927 C   0  0  0  0  0  0  0  0  0  0  0  0
  -28.8923  -15.7426   21.8066 C   0  0  0  0  0  0  0  0  0  0  0  0
  -28.5887  -13.3254   20.7115 C   0  0  0  0  0  0  0  0  0  0  0  0
  -23.7687  -32.5934   23.1885 C   0  0  1  0  0  0  0  0  0  0  0  0
  -22.4700  -29.5961   21.2486 C   0  0  1  0  0  0  0  0  0  0  0  0
  -27.0819  -22.2998   21.9299 C   0  0  2  0  0  0  0  0  0  0  0  0
  -27.5864  -13.1391   19.5625 C   0  0  2  0  0  0  0  0  0  0  0  0
  -28.2808  -20.2585   21.9246 C   0  0  1  0  0  0  0  0  0  0  0  0
  -29.6079  -18.1474   22.0685 C   0  0  0  0  0  0  0  0  0  0  0  0
  -16.2917  -24.9369   20.8968 C   0  0  0  0  0  0  0  0  0  0  0  0
  -19.6483  -29.0410   24.8667 C   0  0  0  0  0  0  0  0  0  0  0  0
  -17.8700  -27.3004   24.5906 C   0  0  0  0  0  0  0  0  0  0  0  0
  -17.6752  -29.4806   23.3941 C   0  0  0  0  0  0  0  0  0  0  0  0
  -19.2886  -24.9167   18.5527 C   0  0  0  0  0  0  0  0  0  0  0  0
  -27.0659  -23.7764   21.5710 C   0  0  0  0  0  0  0  0  0  1  0  0
  -19.3910  -27.7919   22.6218 C   0  0  1  0  0  0  0  0  0  0  0  0
  -17.5375  -25.5041   20.2342 C   0  0  2  0  0  0  0  0  0  0  0  0
  -18.6730  -28.3981   23.8605 C   0  0  0  0  0  0  0  0  0  0  0  0
  -25.8184  -11.5545   20.2296 N   0  0  0  0  0  0  0  0  0  0  0  0
  -26.1913  -12.8365   20.0767 N   0  0  0  0  0  0  0  0  0  0  0  0
  -21.5895  -28.5529   21.7785 N   0  0  0  0  0  0  0  0  0  0  0  0
  -29.9421  -13.5980   20.2037 N   0  0  0  0  0  0  0  0  0  0  0  0
  -30.3145  -15.3711   21.7669 N   0  0  0  0  0  0  0  0  0  0  0  0
  -25.4331  -15.0667   20.3262 N   0  0  0  0  0  0  0  0  0  0  0  0
  -21.8868  -12.6060   21.6545 N   0  0  0  0  0  0  0  0  0  0  0  0
  -23.2430  -31.6878   22.1895 N   0  0  0  0  0  0  0  0  0  0  0  0
  -18.4898  -27.2001   21.6390 N   0  0  0  0  0  0  0  0  0  0  0  0
  -29.4779  -19.5014   21.4706 N   0  3  0  0  0  0  0  0  0  0  0  0
  -18.0748  -24.4828   19.2912 N   0  3  0  0  0  0  0  0  0  0  0  0
  -22.6536  -14.7425   21.3291 O   0  0  0  0  0  0  0  0  0  0  0  0
  -23.2297  -29.7488   23.4790 O   0  0  0  0  0  0  0  0  0  0  0  0
  -19.6598  -29.8039   21.3947 O   0  0  0  0  0  0  0  0  0  0  0  0
  -19.4142  -25.0742   21.6939 O   0  0  0  0  0  0  0  0  0  0  0  0
  -32.0716  -14.3467   20.6795 O   0  0  0  0  0  0  0  0  0  0  0  0
  -21.6166   -7.0443   21.8268 O   0  0  0  0  0  0  0  0  0  0  0  0
  -26.1596  -24.4456   22.4317 O   0  0  0  0  0  0  0  0  0  1  0  0
  -24.1350   -3.0182   24.6291 F   0  0  0  0  0  0  0  0  0  0  0  0
  -20.6459   -6.1970   24.2728 F   0  0  0  0  0  0  0  0  0  0  0  0
  1  2  1  0  0  0  0
  1  5  2  0  0  0  0
  2  6  2  0  0  0  0
  3  8  2  0  0  0  0
  3 15  1  0  0  0  0
  4  9  1  0  0  0  0
  4 15  2  0  0  0  0
  5 17  1  0  0  0  0
  6 19  1  0  0  0  0
  7 10  2  0  0  0  0
  7 18  1  0  0  0  0
  8 21  1  0  0  0  0
  9 21  2  0  0  0  0
 10 22  1  0  0  0  0
 11 12  2  0  0  0  0
 11 23  1  0  0  0  0
 12 24  1  0  0  0  0
 13 20  1  0  0  0  0
 13 22  2  0  0  0  0
 14 24  2  0  0  0  0
 14 25  1  0  0  0  0
 15 26  1  0  0  0  0
 16 26  1  0  0  0  0
 16 27  2  0  0  0  0
 16 28  1  0  0  0  0
 17 19  2  0  0  0  0
 17 33  1  0  0  0  0
 18 20  2  0  0  0  0
 18 34  1  0  0  0  0
 19 49  1  0  0  0  0
 20 35  1  0  0  0  0
 21 80  1  0  0  0  0
 22 81  1  0  0  0  0
 23 25  2  0  0  0  0
 23 80  1  0  0  0  0
 24 82  1  0  0  0  0
 25 83  1  0  0  0  0
 26 64  2  0  0  0  0
 27 65  1  0  0  0  0
 27 69  1  0  0  0  0
 28 70  1  0  0  0  0
 28 75  2  0  0  0  0
 29 50  1  0  0  0  0
 29 71  1  0  0  0  0
 29 76  2  0  0  0  0
 30 61  1  0  0  0  0
 30 66  1  0  0  0  0
 30 77  2  0  0  0  0
 31 62  1  0  0  0  0
 31 72  1  0  0  0  0
 31 78  2  0  0  0  0
 32 67  1  0  0  0  0
 32 68  1  0  0  0  0
 32 79  2  0  0  0  0
 33 36  1  0  0  0  0
 34 50  1  0  0  0  0
 35 66  1  0  0  0  0
 36 38  1  0  0  0  0
 37 40  1  0  0  0  0
 37 45  1  0  0  0  0
 38 49  1  0  0  0  0
 39 41  1  0  0  0  0
 39 51  1  0  0  0  0
 40 52  1  0  0  0  0
 41 53  1  0  0  0  0
 42 46  1  0  0  0  0
 42 54  1  0  0  0  0
 43 47  1  0  0  0  0
 43 54  1  0  0  0  0
 44 51  1  0  0  0  0
 44 53  1  0  0  0  0
 45 67  1  0  0  0  0
 46 68  1  0  0  0  0
 47 68  1  0  0  0  0
 48 52  1  0  0  0  0
 48 67  1  0  0  0  0
 49 71  1  0  0  0  0
 50 66  1  0  0  0  0
 51 60  1  0  0  0  0
 52 65  1  0  0  0  0
 53 73  1  0  0  0  0
 54 73  1  0  0  0  0
 55 62  1  0  0  0  0
 56 63  1  0  0  0  0
 57 63  1  0  0  0  0
 58 63  1  0  0  0  0
 59 74  1  0  0  0  0
 60 81  1  0  0  0  0
 61 63  1  0  0  0  0
 61 72  1  0  0  0  0
 62 74  1  0  0  0  0
 64 65  1  0  0  0  0
M  CHG  2  73   1  74   1
M  ISO  4  32 100  60 101  68 100  81 101
M  END
> <Batch ID>
0157

> <Smiles>
CNC(C)C(=O)NC(C(=O)N1Cc2cc([101O:1][101CH2:1]C3CCC(NC4CC[100N:0]([100C:0](=O)N5CCCC(n6nc(-c7ccc(Oc8ccc(F)cc8F)cc7)c(C(N)=O)c6N)C5)CC4)C3)ccc2CC1C(=O)NC1CCCc2ccccc21)C(C)(C)C

> <Shape>
0.346

> <Color>
0.193

> <Negative vol penalty>
0.000

$$$$

  -OEChem-04052321593D

 85 94  0     1  0  0  0  0  0999 V2000
  -21.2040  -26.2481   23.9042 C   0  0  0  0  0  0  0  0  0  0  0  0
  -21.4528  -24.8852   23.7770 C   0  0  0  0  0  0  0  0  0  0  0  0
  -28.5896  -25.9633   18.9116 C   0  0  0  0  0  0  0  0  0  0  0  0
  -28.8289  -24.6515   20.9264 C   0  0  0  0  0  0  0  0  0  0  0  0
  -20.3293  -26.8811   23.0220 C   0  0  0  0  0  0  0  0  0  0  0  0
  -20.8262  -24.1543   22.7683 C   0  0  0  0  0  0  0  0  0  0  0  0
  -26.6498  -11.4298   19.8748 C   0  0  0  0  0  0  0  0  0  0  0  0
  -24.0086  -21.0293   20.3701 C   0  0  0  0  0  0  0  0  0  0  0  0
  -25.3342  -11.8232   20.1111 C   0  0  0  0  0  0  0  0  0  0  0  0
  -28.1089  -27.0337   19.6656 C   0  0  0  0  0  0  0  0  0  0  0  0
  -28.3481  -25.7220   21.6804 C   0  0  0  0  0  0  0  0  0  0  0  0
  -24.3403  -19.8393   21.0164 C   0  0  0  0  0  0  0  0  0  0  0  0
  -25.2026  -27.9384   21.1352 C   0  0  0  0  0  0  0  0  0  0  0  0
  -24.0769  -28.6110   20.6600 C   0  0  0  0  0  0  0  0  0  0  0  0
  -22.7391  -18.6590   19.6517 C   0  0  0  0  0  0  0  0  0  0  0  0
  -25.3505  -30.6608   20.5443 C   0  0  0  0  0  0  0  0  0  0  0  0
  -28.9496  -24.7721   19.5420 C   0  0  0  0  0  0  0  0  0  0  0  0
  -30.5901  -23.6485   17.9439 C   0  0  0  0  0  0  0  0  0  0  0  0
  -19.6991  -26.1595   21.9959 C   0  0  0  0  0  0  0  0  0  0  0  0
  -27.6802  -12.3810   19.7963 C   0  0  0  0  0  0  0  0  0  0  0  0
  -23.0303  -21.0450   19.3656 C   0  0  0  0  0  0  0  0  0  0  0  0
  -19.9412  -24.7780   21.8724 C   0  0  0  0  0  0  0  0  0  0  0  0
  -22.3987  -19.8501   18.9924 C   0  0  0  0  0  0  0  0  0  0  0  0
  -27.3761  -13.7518   19.9218 C   0  0  0  0  0  0  0  0  0  0  0  0
  -25.0336  -13.1710   20.2720 C   0  0  0  0  0  0  0  0  0  0  0  0
  -27.9882  -26.9131   21.0500 C   0  0  0  0  0  0  0  0  0  0  0  0
  -23.7034  -18.6544   20.6592 C   0  0  0  0  0  0  0  0  0  0  0  0
  -26.4023  -28.6270   21.3150 C   0  0  0  0  0  0  0  0  0  0  0  0
  -26.0462  -14.1270   20.1842 C   0  0  0  0  0  0  0  0  0  0  0  0
  -24.1508  -29.9722   20.3645 C   0  0  0  0  0  0  0  0  0  0  0  0
  -26.4762  -29.9881   21.0195 C   0  0  0  0  0  0  0  0  0  0  0  0
  -29.4457  -23.6657   18.7636 C   0  0  0  0  0  0  0  0  0  0  0  0
  -30.6248  -22.3755   17.4294 C   0  0  0  0  0  0  0  0  0  0  0  0
  -31.5372  -24.6900   17.6720 C   0  0  0  0  0  0  0  0  0  0  0  0
  -20.2091  -22.4642   19.0041 C   0  0  0  0  0  0  0  0  0  0  0  0
  -20.3850  -21.1861   16.0279 C   0  0  0  0  0  0  0  0  0  0  0  0
  -21.6734  -18.7793   13.9799 C   0  0  0  0  0  0  0  0  0  0  0  0
  -28.5010  -17.2539   19.4578 C   0  0  0  0  0  0  0  0  0  0  0  0
  -18.7251  -26.8778   21.0959 C   0  0  0  0  0  0  0  0  0  0  0  0
  -29.0852  -11.9006   19.5309 C   0  0  0  0  0  0  0  0  0  0  0  0
  -22.7031  -22.3323   18.6596 C   0  0  0  0  0  0  0  0  0  0  0  0
  -21.3561  -19.8098   17.9063 C   0  0  0  0  0  0  0  0  0  0  0  0
  -18.3908  -26.1066   19.8216 C   0  0  0  0  0  0  0  0  0  0  0  0
  -30.1460  -12.9369   19.8880 C   0  0  0  0  0  0  0  0  0  0  0  0
  -27.7513  -18.7365   16.2426 C   0  0  0  0  0  0  0  0  0  0  0  0
  -18.0849  -24.6477   20.1453 C   0  0  0  0  0  0  0  0  0  0  0  0
  -29.7851  -14.2837   19.2766 C   0  0  0  0  0  0  0  0  0  0  0  0
  -28.2164  -20.1781   16.4566 C   0  0  0  0  0  0  0  0  0  0  0  0
  -27.1081  -18.1701   17.5050 C   0  0  0  0  0  0  0  0  0  0  0  0
  -28.4365  -19.6755   18.9342 C   0  0  0  0  0  0  0  0  0  0  0  0
  -19.2997  -23.9560   20.7756 C   0  0  1  0  0  0  0  0  0  0  0  0
  -28.4665  -14.8059   19.8613 C   0  0  1  0  0  0  0  0  0  0  0  0
  -21.3242  -22.3220   18.0070 C   0  0  1  0  0  0  0  0  0  0  0  0
  -29.1161  -20.2978   17.7009 C   0  0  2  0  0  0  0  0  0  0  0  0
  -23.6207  -13.5718   20.5449 C   0  0  0  0  0  0  0  0  0  0  0  0
  -21.6036  -17.9686   11.6060 C   0  0  0  0  0  0  0  0  0  0  0  0
  -17.6448  -19.9436   16.5354 C   0  0  0  0  0  0  0  0  0  0  0  0
  -18.0523  -18.4209   14.5903 C   0  0  0  0  0  0  0  0  0  0  0  0
  -17.9528  -20.8888   14.2406 C   0  0  0  0  0  0  0  0  0  0  0  0
  -24.5712  -19.2542   13.6103 C   0  0  0  0  0  0  0  0  0  0  0  0
  -25.3601  -17.3641   21.7756 C   0  0  0  0  0  0  0  0  0  1  0  0
  -25.7624  -15.9024   21.7408 C   0  0  0  0  0  0  0  0  0  0  0  0
  -19.9619  -19.8809   15.3982 C   0  0  1  0  0  0  0  0  0  0  0  0
  -22.3171  -18.8633   12.6077 C   0  0  2  0  0  0  0  0  0  0  0  0
  -18.4212  -19.7843   15.2129 C   0  0  0  0  0  0  0  0  0  0  0  0
  -28.7999  -22.4966   18.7721 N   0  0  0  0  0  0  0  0  0  0  0  0
  -29.5410  -21.7328   17.9515 N   0  0  0  0  0  0  0  0  0  0  0  0
  -21.0662  -21.0954   17.2500 N   0  0  0  0  0  0  0  0  0  0  0  0
  -28.0231  -18.2977   18.6481 N   0  0  0  0  0  0  0  0  0  0  0  0
  -31.4762  -21.7545   16.5857 N   0  0  0  0  0  0  0  0  0  0  0  0
  -32.6593  -24.8065   18.5037 N   0  0  0  0  0  0  0  0  0  0  0  0
  -20.2736  -23.6196   19.7593 N   0  0  0  0  0  0  0  0  0  0  0  0
  -20.7215  -19.7607   14.1584 N   0  0  0  0  0  0  0  0  0  0  0  0
  -28.0565  -15.9804   19.1242 N   0  0  0  0  0  0  0  0  0  0  0  0
  -23.7453  -18.4434   12.6789 N   0  3  0  0  0  0  0  0  0  0  0  0
  -31.3843  -25.5039   16.7298 O   0  0  0  0  0  0  0  0  0  0  0  0
  -19.3528  -21.5910   19.0815 O   0  0  0  0  0  0  0  0  0  0  0  0
  -20.1271  -22.2465   15.4530 O   0  0  0  0  0  0  0  0  0  0  0  0
  -21.9815  -17.9260   14.8091 O   0  0  0  0  0  0  0  0  0  0  0  0
  -29.2717  -17.4423   20.4052 O   0  0  0  0  0  0  0  0  0  0  0  0
  -27.5193  -27.9576   21.7861 O   0  0  0  0  0  0  0  0  0  0  0  0
  -24.0248  -17.4916   21.2889 O   0  0  0  0  0  0  0  0  0  1  0  0
  -25.7144  -15.4392   20.3968 O   0  0  0  0  0  0  0  0  0  0  0  0
  -23.0701  -30.6176   19.9067 F   0  0  0  0  0  0  0  0  0  0  0  0
  -27.6263  -30.6548   21.1891 F   0  0  0  0  0  0  0  0  0  0  0  0
  1  2  1  0  0  0  0
  1  5  2  0  0  0  0
  2  6  2  0  0  0  0
  3 10  2  0  0  0  0
  3 17  1  0  0  0  0
  4 11  1  0  0  0  0
  4 17  2  0  0  0  0
  5 19  1  0  0  0  0
  6 22  1  0  0  0  0
  7  9  1  0  0  0  0
  7 20  2  0  0  0  0
  8 12  2  0  0  0  0
  8 21  1  0  0  0  0
  9 25  2  0  0  0  0
 10 26  1  0  0  0  0
 11 26  2  0  0  0  0
 12 27  1  0  0  0  0
 13 14  2  0  0  0  0
 13 28  1  0  0  0  0
 14 30  1  0  0  0  0
 15 23  1  0  0  0  0
 15 27  2  0  0  0  0
 16 30  2  0  0  0  0
 16 31  1  0  0  0  0
 17 32  1  0  0  0  0
 18 32  1  0  0  0  0
 18 33  2  0  0  0  0
 18 34  1  0  0  0  0
 19 22  2  0  0  0  0
 19 39  1  0  0  0  0
 20 24  1  0  0  0  0
 20 40  1  0  0  0  0
 21 23  2  0  0  0  0
 21 41  1  0  0  0  0
 22 51  1  0  0  0  0
 23 42  1  0  0  0  0
 24 29  2  0  0  0  0
 24 52  1  0  0  0  0
 25 29  1  0  0  0  0
 25 55  1  0  0  0  0
 26 81  1  0  0  0  0
 27 82  1  0  0  0  0
 28 31  2  0  0  0  0
 28 81  1  0  0  0  0
 29 83  1  0  0  0  0
 30 84  1  0  0  0  0
 31 85  1  0  0  0  0
 32 66  2  0  0  0  0
 33 67  1  0  0  0  0
 33 70  1  0  0  0  0
 34 71  1  0  0  0  0
 34 76  2  0  0  0  0
 35 53  1  0  0  0  0
 35 72  1  0  0  0  0
 35 77  2  0  0  0  0
 36 63  1  0  0  0  0
 36 68  1  0  0  0  0
 36 78  2  0  0  0  0
 37 64  1  0  0  0  0
 37 73  1  0  0  0  0
 37 79  2  0  0  0  0
 38 69  1  0  0  0  0
 38 74  1  0  0  0  0
 38 80  2  0  0  0  0
 39 43  1  0  0  0  0
 40 44  1  0  0  0  0
 41 53  1  0  0  0  0
 42 68  1  0  0  0  0
 43 46  1  0  0  0  0
 44 47  1  0  0  0  0
 45 48  1  0  0  0  0
 45 49  1  0  0  0  0
 46 51  1  0  0  0  0
 47 52  1  0  0  0  0
 48 54  1  0  0  0  0
 49 69  1  0  0  0  0
 50 54  1  0  0  0  0
 50 69  1  0  0  0  0
 51 72  1  0  0  0  0
 52 74  1  0  0  0  0
 53 68  1  0  0  0  0
 54 67  1  0  0  0  0
 56 64  1  0  0  0  0
 57 65  1  0  0  0  0
 58 65  1  0  0  0  0
 59 65  1  0  0  0  0
 60 75  1  0  0  0  0
 61 62  1  0  0  0  0
 61 82  1  0  0  0  0
 62 83  1  0  0  0  0
 63 65  1  0  0  0  0
 63 73  1  0  0  0  0
 64 75  1  0  0  0  0
 66 67  1  0  0  0  0
M  CHG  1  75   1
M  ISO  4  38 100  61 101  74 100  82 101
M  END
> <Batch ID>
0157

> <Smiles>
CNC(C)C(=O)NC(C(=O)N1Cc2cc([101O:1][101CH2:1]COc3c(C)ccc4c3C([100NH:0][100C:0](=O)N3CCCC(n5nc(-c6ccc(Oc7ccc(F)cc7F)cc6)c(C(N)=O)c5N)C3)CCC4)ccc2CC1C(=O)NC1CCCc2ccccc21)C(C)(C)C

> <Shape>
0.215

> <Color>
0.060

> <Negative vol penalty>
0.000

$$$$

  -OEChem-04052321593D

 85 94  0     1  0  0  0  0  0999 V2000
  -26.8829  -30.7203   22.7209 C   0  0  0  0  0  0  0  0  0  0  0  0
  -26.5978  -29.6491   23.5616 C   0  0  0  0  0  0  0  0  0  0  0  0
  -23.1496  -10.1496   21.6083 C   0  0  0  0  0  0  0  0  0  0  0  0
  -24.7234  -10.4462   23.4172 C   0  0  0  0  0  0  0  0  0  0  0  0
  -26.8771  -30.5406   21.3383 C   0  0  0  0  0  0  0  0  0  0  0  0
  -26.3056  -28.3978   23.0200 C   0  0  0  0  0  0  0  0  0  0  0  0
  -30.2758  -22.6204   24.6785 C   0  0  0  0  0  0  0  0  0  0  0  0
  -22.5621   -9.0863   22.2937 C   0  0  0  0  0  0  0  0  0  0  0  0
  -24.1359   -9.3829   24.1027 C   0  0  0  0  0  0  0  0  0  0  0  0
  -30.8575  -21.4282   25.1103 C   0  0  0  0  0  0  0  0  0  0  0  0
  -22.8209   -6.9779   26.4912 C   0  0  0  0  0  0  0  0  0  0  0  0
  -22.5663   -7.1444   27.8525 C   0  0  0  0  0  0  0  0  0  0  0  0
  -29.4838  -20.1831   23.5577 C   0  0  0  0  0  0  0  0  0  0  0  0
  -33.2206  -16.3782   24.8021 C   0  0  0  0  0  0  0  0  0  0  0  0
  -31.1520  -15.2508   24.3184 C   0  0  0  0  0  0  0  0  0  0  0  0
  -21.1274   -9.0201   27.3539 C   0  0  0  0  0  0  0  0  0  0  0  0
  -24.2302  -10.8296   22.1700 C   0  0  0  0  0  0  0  0  0  0  0  0
  -24.2178  -13.1246   21.0564 C   0  0  0  0  0  0  0  0  0  0  0  0
  -26.5941  -29.2841   20.7798 C   0  0  0  0  0  0  0  0  0  0  0  0
  -29.3057  -22.5998   23.6725 C   0  0  0  0  0  0  0  0  0  0  0  0
  -26.2946  -28.2015   21.6286 C   0  0  0  0  0  0  0  0  0  0  0  0
  -28.9065  -21.3752   23.1123 C   0  0  0  0  0  0  0  0  0  0  0  0
  -31.9469  -15.9818   25.1942 C   0  0  0  0  0  0  0  0  0  0  0  0
  -23.0552   -8.7029   23.5409 C   0  0  0  0  0  0  0  0  0  0  0  0
  -30.4623  -20.2126   24.5514 C   0  0  0  0  0  0  0  0  0  0  0  0
  -22.2289   -7.8326   25.5613 C   0  0  0  0  0  0  0  0  0  0  0  0
  -21.7195   -8.1655   28.2838 C   0  0  0  0  0  0  0  0  0  0  0  0
  -21.3821   -8.8536   25.9926 C   0  0  0  0  0  0  0  0  0  0  0  0
  -24.8379  -11.9277   21.4622 C   0  0  0  0  0  0  0  0  0  0  0  0
  -33.6494  -16.0212   23.5339 C   0  0  0  0  0  0  0  0  0  0  0  0
  -31.6733  -14.9443   23.0717 C   0  0  0  0  0  0  0  0  0  0  0  0
  -25.2140  -13.8316   20.4284 C   0  0  0  0  0  0  0  0  0  0  0  0
  -22.8626  -13.5586   21.2315 C   0  0  0  0  0  0  0  0  0  0  0  0
  -26.9704  -24.5712   21.4963 C   0  0  0  0  0  0  0  0  0  0  0  0
  -28.1860  -22.3724   19.7362 C   0  0  0  0  0  0  0  0  0  0  0  0
  -29.4227  -20.4969   17.1691 C   0  0  0  0  0  0  0  0  0  0  0  0
  -31.1710  -13.7821   20.8938 C   0  0  0  0  0  0  0  0  0  0  0  0
  -26.5533  -29.1498   19.2781 C   0  0  0  0  0  0  0  0  0  0  0  0
  -28.6079  -23.8536   23.2197 C   0  0  0  0  0  0  0  0  0  0  0  0
  -27.8345  -21.3980   22.0573 C   0  0  0  0  0  0  0  0  0  0  0  0
  -26.6014  -27.7027   18.7945 C   0  0  0  0  0  0  0  0  0  0  0  0
  -29.2605  -13.2002   17.9462 C   0  0  0  0  0  0  0  0  0  0  0  0
  -25.6275  -26.8408   19.5916 C   0  0  0  0  0  0  0  0  0  0  0  0
  -27.8518  -12.9228   18.4760 C   0  0  0  0  0  0  0  0  0  0  0  0
  -32.2849  -18.6057   26.9832 C   0  0  0  0  0  0  0  0  0  0  0  0
  -32.3816  -17.1645   27.4860 C   0  0  0  0  0  0  0  0  0  0  0  0
  -30.2389  -17.3527   26.5125 C   0  0  0  0  0  0  0  0  0  0  0  0
  -30.3358  -12.6193   18.8627 C   0  0  0  0  0  0  0  0  0  0  0  0
  -28.8218  -12.7387   20.8025 C   0  0  0  0  0  0  0  0  0  0  0  0
  -25.9972  -26.8229   21.0798 C   0  0  1  0  0  0  0  0  0  0  0  0
  -28.2641  -23.8446   21.7194 C   0  0  1  0  0  0  0  0  0  0  0  0
  -27.7064  -13.3609   19.9466 C   0  0  2  0  0  0  0  0  0  0  0  0
  -30.8972  -18.7265   26.3521 C   0  0  2  0  0  0  0  0  0  1  0  0
  -31.4196  -16.3503   26.5898 C   0  0  1  0  0  0  0  0  0  0  0  0
  -35.0106  -16.4303   23.0790 C   0  0  0  0  0  0  0  0  0  0  0  0
  -32.1596  -14.1236   27.4715 C   0  0  0  0  0  0  0  0  0  0  0  0
  -28.8112  -19.6168   14.8999 C   0  0  0  0  0  0  0  0  0  0  0  0
  -26.4066  -20.2643   21.0374 C   0  0  0  0  0  0  0  0  0  0  0  0
  -26.6067  -18.9055   18.9441 C   0  0  0  0  0  0  0  0  0  0  0  0
  -25.5455  -21.1618   18.8678 C   0  0  0  0  0  0  0  0  0  0  0  0
  -31.6528  -21.9509   15.8763 C   0  0  0  0  0  0  0  0  0  0  0  0
  -31.0073  -15.0596   27.3186 C   0  0  0  0  0  0  0  0  0  0  0  0
  -28.0481  -20.9789   19.1771 C   0  0  1  0  0  0  0  0  0  0  0  0
  -29.4741  -20.7465   15.6726 C   0  0  2  0  0  0  0  0  0  0  0  0
  -26.6749  -20.3357   19.5209 C   0  0  0  0  0  0  0  0  0  0  0  0
  -26.1280  -11.8737   21.1206 N   0  0  0  0  0  0  0  0  0  0  0  0
  -32.9059  -15.3119   22.6554 N   0  0  0  0  0  0  0  0  0  0  0  0
  -26.3267  -13.0456   20.4934 N   0  0  0  0  0  0  0  0  0  0  0  0
  -28.0711  -22.5111   21.1247 N   0  0  0  0  0  0  0  0  0  0  0  0
  -30.1368  -13.0809   20.2382 N   0  0  0  0  0  0  0  0  0  0  0  0
  -25.2378  -15.0426   19.8323 N   0  0  0  0  0  0  0  0  0  0  0  0
  -21.9700  -12.7092   21.8994 N   0  0  0  0  0  0  0  0  0  0  0  0
  -30.8553  -14.1995   22.1863 N   0  0  0  0  0  0  0  0  0  0  0  0
  -27.1146  -25.9331   21.3123 N   0  0  0  0  0  0  0  0  0  0  0  0
  -28.3173  -21.0843   17.7472 N   0  0  0  0  0  0  0  0  0  0  0  0
  -30.8877  -20.8626   15.2151 N   0  3  0  0  0  0  0  0  0  0  0  0
  -22.4511  -14.6598   20.7937 O   0  0  0  0  0  0  0  0  0  0  0  0
  -25.9181  -23.9433   21.4897 O   0  0  0  0  0  0  0  0  0  0  0  0
  -28.3846  -23.3149   18.9645 O   0  0  0  0  0  0  0  0  0  0  0  0
  -30.2757  -19.8428   17.7649 O   0  0  0  0  0  0  0  0  0  0  0  0
  -32.2468  -14.0201   20.3389 O   0  0  0  0  0  0  0  0  0  0  0  0
  -22.4821   -7.6655   24.2101 O   0  0  0  0  0  0  0  0  0  0  0  0
  -31.0376  -19.0529   24.9745 O   0  0  0  0  0  0  0  0  0  1  0  0
  -21.4738   -8.3243   29.5910 F   0  0  0  0  0  0  0  0  0  0  0  0
  -20.8096   -9.6771   25.1038 F   0  0  0  0  0  0  0  0  0  0  0  0
  1  2  1  0  0  0  0
  1  5  2  0  0  0  0
  2  6  2  0  0  0  0
  3  8  2  0  0  0  0
  3 17  1  0  0  0  0
  4  9  1  0  0  0  0
  4 17  2  0  0  0  0
  5 19  1  0  0  0  0
  6 21  1  0  0  0  0
  7 10  2  0  0  0  0
  7 20  1  0  0  0  0
  8 24  1  0  0  0  0
  9 24  2  0  0  0  0
 10 25  1  0  0  0  0
 11 12  2  0  0  0  0
 11 26  1  0  0  0  0
 12 27  1  0  0  0  0
 13 22  1  0  0  0  0
 13 25  2  0  0  0  0
 14 23  1  0  0  0  0
 14 30  2  0  0  0  0
 15 23  2  0  0  0  0
 15 31  1  0  0  0  0
 16 27  2  0  0  0  0
 16 28  1  0  0  0  0
 17 29  1  0  0  0  0
 18 29  1  0  0  0  0
 18 32  2  0  0  0  0
 18 33  1  0  0  0  0
 19 21  2  0  0  0  0
 19 38  1  0  0  0  0
 20 22  2  0  0  0  0
 20 39  1  0  0  0  0
 21 50  1  0  0  0  0
 22 40  1  0  0  0  0
 23 54  1  0  0  0  0
 24 82  1  0  0  0  0
 25 83  1  0  0  0  0
 26 28  2  0  0  0  0
 26 82  1  0  0  0  0
 27 84  1  0  0  0  0
 28 85  1  0  0  0  0
 29 66  2  0  0  0  0
 30 55  1  0  0  0  0
 30 67  1  0  0  0  0
 31 67  2  0  0  0  0
 31 73  1  0  0  0  0
 32 68  1  0  0  0  0
 32 71  1  0  0  0  0
 33 72  1  0  0  0  0
 33 77  2  0  0  0  0
 34 51  1  0  0  0  0
 34 74  1  0  0  0  0
 34 78  2  0  0  0  0
 35 63  1  0  0  0  0
 35 69  1  0  0  0  0
 35 79  2  0  0  0  0
 36 64  1  0  0  0  0
 36 75  1  0  0  0  0
 36 80  2  0  0  0  0
 37 70  1  0  0  0  0
 37 73  1  0  0  0  0
 37 81  2  0  0  0  0
 38 41  1  0  0  0  0
 39 51  1  0  0  0  0
 40 69  1  0  0  0  0
 41 43  1  0  0  0  0
 42 44  1  0  0  0  0
 42 48  1  0  0  0  0
 43 50  1  0  0  0  0
 44 52  1  0  0  0  0
 45 46  1  0  0  0  0
 45 53  1  0  0  0  0
 46 54  1  0  0  0  0
 47 53  1  0  0  0  0
 47 54  1  0  0  0  0
 48 70  1  0  0  0  0
 49 52  1  0  0  0  0
 49 70  1  0  0  0  0
 50 74  1  0  0  0  0
 51 69  1  0  0  0  0
 52 68  1  0  0  0  0
 53 83  1  0  0  0  0
 54 62  1  0  0  0  0
 56 62  1  0  0  0  0
 57 64  1  0  0  0  0
 58 65  1  0  0  0  0
 59 65  1  0  0  0  0
 60 65  1  0  0  0  0
 61 76  1  0  0  0  0
 63 65  1  0  0  0  0
 63 75  1  0  0  0  0
 64 76  1  0  0  0  0
 66 68  1  0  0  0  0
M  CHG  1  76   1
M  ISO  4  37 100  53 101  73 100  83 101
M  END
> <Batch ID>
0157

> <Smiles>
CCC1(c2cc(C)nc([100NH:0][100C:0](=O)N3CCCC(n4nc(-c5ccc(Oc6ccc(F)cc6F)cc5)c(C(N)=O)c4N)C3)c2)CC[101CH:1]([101O:1]c2ccc3c(c2)CN(C(=O)C(NC(=O)C(C)NC)C(C)(C)C)C(C(=O)NC2CCCc4ccccc42)C3)C1

> <Shape>
0.194

> <Color>
0.160

> <Negative vol penalty>
0.000

$$$$

  -OEChem-04052321593D

 86 95  0     1  0  0  0  0  0999 V2000
  -16.8375  -29.1655   24.4711 C   0  0  0  0  0  0  0  0  0  0  0  0
  -17.2306  -28.1208   23.6408 C   0  0  0  0  0  0  0  0  0  0  0  0
  -28.4302  -11.9207   21.5743 C   0  0  0  0  0  0  0  0  0  0  0  0
  -26.7322  -13.0830   20.3082 C   0  0  0  0  0  0  0  0  0  0  0  0
  -17.5040  -30.3888   24.4136 C   0  0  0  0  0  0  0  0  0  0  0  0
  -18.2899  -28.2992   22.7516 C   0  0  0  0  0  0  0  0  0  0  0  0
  -22.4129  -24.1034   21.0482 C   0  0  0  0  0  0  0  0  0  0  0  0
  -27.6940  -10.7399   21.4777 C   0  0  0  0  0  0  0  0  0  0  0  0
  -25.9960  -11.9022   20.2116 C   0  0  0  0  0  0  0  0  0  0  0  0
  -22.5099  -23.2866   19.9225 C   0  0  0  0  0  0  0  0  0  0  0  0
  -23.9263  -10.0889   22.1761 C   0  0  0  0  0  0  0  0  0  0  0  0
  -22.5541  -10.1591   22.4166 C   0  0  0  0  0  0  0  0  0  0  0  0
  -23.9869  -24.8918   18.8925 C   0  0  0  0  0  0  0  0  0  0  0  0
  -28.2025  -22.4822   19.2047 C   0  0  0  0  0  0  0  0  0  0  0  0
  -22.1210   -9.3484   20.1822 C   0  0  0  0  0  0  0  0  0  0  0  0
  -27.9493  -13.0923   20.9896 C   0  0  0  0  0  0  0  0  0  0  0  0
  -29.6928  -14.7769   20.1961 C   0  0  0  0  0  0  0  0  0  0  0  0
  -18.5782  -30.5792   23.5301 C   0  0  0  0  0  0  0  0  0  0  0  0
  -23.0947  -25.3277   21.1001 C   0  0  0  0  0  0  0  0  0  0  0  0
  -18.9705  -29.5266   22.6813 C   0  0  0  0  0  0  0  0  0  0  0  0
  -23.8990  -25.7211   20.0210 C   0  0  0  0  0  0  0  0  0  0  0  0
  -29.3622  -22.7648   19.9095 C   0  0  0  0  0  0  0  0  0  0  0  0
  -30.4161  -23.4635   19.3049 C   0  0  0  0  0  0  0  0  0  0  0  0
  -30.3346  -23.8861   17.9885 C   0  0  0  0  0  0  0  0  0  0  0  0
  -29.1757  -23.5895   17.2687 C   0  0  0  0  0  0  0  0  0  0  0  0
  -26.4769  -10.7306   20.7963 C   0  0  0  0  0  0  0  0  0  0  0  0
  -23.2946  -23.6821   18.8432 C   0  0  0  0  0  0  0  0  0  0  0  0
  -24.3958   -9.6485   20.9386 C   0  0  0  0  0  0  0  0  0  0  0  0
  -28.1172  -22.8932   17.8725 C   0  0  0  0  0  0  0  0  0  0  0  0
  -21.6515   -9.7889   21.4197 C   0  0  0  0  0  0  0  0  0  0  0  0
  -23.4932   -9.2782   19.9417 C   0  0  0  0  0  0  0  0  0  0  0  0
  -28.7090  -14.3125   21.0895 C   0  0  0  0  0  0  0  0  0  0  0  0
  -30.1083  -15.9708   20.7333 C   0  0  0  0  0  0  0  0  0  0  0  0
  -30.1868  -14.1824   18.9886 C   0  0  0  0  0  0  0  0  0  0  0  0
  -22.2202  -28.3731   21.3540 C   0  0  0  0  0  0  0  0  0  0  0  0
  -25.4184  -28.8677   21.5762 C   0  0  0  0  0  0  0  0  0  0  0  0
  -28.5752  -27.7581   20.9051 C   0  0  0  0  0  0  0  0  0  0  0  0
  -28.9816  -20.8879   23.1203 C   0  0  0  0  0  0  0  0  0  0  0  0
  -19.2374  -31.9343   23.4702 C   0  0  0  0  0  0  0  0  0  0  0  0
  -23.0010  -26.1848   22.3326 C   0  0  0  0  0  0  0  0  0  0  0  0
  -31.5302  -23.6992   20.2766 C   0  0  0  0  0  0  0  0  0  0  0  0
  -24.6671  -27.0165   20.0354 C   0  0  0  0  0  0  0  0  0  0  0  0
  -20.5918  -31.9222   22.7660 C   0  0  0  0  0  0  0  0  0  0  0  0
  -31.2118  -22.6500   21.3531 C   0  0  0  0  0  0  0  0  0  0  0  0
  -29.1874  -18.0450   25.2539 C   0  0  0  0  0  0  0  0  0  0  0  0
  -20.5079  -31.1369   21.4610 C   0  0  0  0  0  0  0  0  0  0  0  0
  -29.1561  -16.8595   24.2877 C   0  0  0  0  0  0  0  0  0  0  0  0
  -28.2877  -19.1839   24.7791 C   0  0  0  0  0  0  0  0  0  0  0  0
  -28.5134  -18.4573   22.4350 C   0  0  0  0  0  0  0  0  0  0  0  0
  -20.1309  -29.6734   21.7210 C   0  0  1  0  0  0  0  0  0  0  0  0
  -29.6823  -22.4760   21.3466 C   0  0  2  0  0  0  0  0  0  0  0  0
  -23.3283  -27.6510   22.0670 C   0  0  1  0  0  0  0  0  0  0  0  0
  -29.4486  -17.3060   22.8426 C   0  0  2  0  0  0  0  0  0  0  0  0
  -31.4581  -24.6430   17.3646 C   0  0  0  0  0  0  0  0  0  0  0  0
  -29.0508  -24.0221   15.8413 C   0  0  0  0  0  0  0  0  0  0  0  0
  -31.0837  -27.7059   20.9503 C   0  0  0  0  0  0  0  0  0  0  0  0
  -24.4779  -22.0126   15.8111 C   0  0  0  0  0  0  0  0  0  0  0  0
  -25.1397  -30.8768   19.2968 C   0  0  0  0  0  0  0  0  0  0  0  0
  -27.6207  -30.7593   18.9827 C   0  0  0  0  0  0  0  0  0  0  0  0
  -26.6759  -31.5922   21.1360 C   0  0  0  0  0  0  0  0  0  0  0  0
  -28.6128  -26.1757   23.4058 C   0  0  0  0  0  0  0  0  0  0  0  0
  -25.7657  -22.5394   17.9081 C   0  0  0  0  0  0  0  0  0  0  0  0
  -26.5310  -29.1279   20.5897 C   0  0  1  0  0  0  0  0  0  0  0  0
  -29.8106  -27.6457   21.7801 C   0  0  2  0  0  0  0  0  0  0  0  0
  -24.6093  -22.9461   17.0031 C   0  0  2  0  0  0  0  0  0  1  0  0
  -26.4760  -30.5655   19.9999 C   0  0  0  0  0  0  0  0  0  0  0  0
  -28.5114  -15.1434   22.1164 N   0  0  0  0  0  0  0  0  0  0  0  0
  -29.3769  -16.1420   21.8716 N   0  0  0  0  0  0  0  0  0  0  0  0
  -24.5383  -27.8229   21.2604 N   0  0  0  0  0  0  0  0  0  0  0  0
  -28.6177  -19.5609   23.4025 N   0  0  0  0  0  0  0  0  0  0  0  0
  -31.0244  -16.8803   20.3382 N   0  0  0  0  0  0  0  0  0  0  0  0
  -29.6505  -12.9534   18.5809 N   0  0  0  0  0  0  0  0  0  0  0  0
  -21.2793  -28.9326   22.1972 N   0  0  0  0  0  0  0  0  0  0  0  0
  -27.7747  -28.8146   21.2850 N   0  0  0  0  0  0  0  0  0  0  0  0
  -29.2848  -21.1589   21.7917 N   0  0  0  0  0  0  0  0  0  0  0  0
  -29.7988  -26.3579   22.5300 N   0  3  0  0  0  0  0  0  0  0  0  0
  -31.0891  -14.7170   18.3003 O   0  0  0  0  0  0  0  0  0  0  0  0
  -22.2197  -28.4205   20.1294 O   0  0  0  0  0  0  0  0  0  0  0  0
  -25.3375  -29.5610   22.5932 O   0  0  0  0  0  0  0  0  0  0  0  0
  -28.3452  -26.9882   19.9752 O   0  0  0  0  0  0  0  0  0  0  0  0
  -29.0377  -21.7648   23.9891 O   0  0  0  0  0  0  0  0  0  0  0  0
  -25.7584   -9.5785   20.7016 O   0  0  0  0  0  0  0  0  0  0  0  0
  -26.9781  -22.6123   17.1658 O   0  0  0  0  0  0  0  0  0  0  0  0
  -23.3905  -22.8870   17.7430 O   0  0  0  0  0  0  0  0  0  1  0  0
  -20.3339   -9.8549   21.6514 F   0  0  0  0  0  0  0  0  0  0  0  0
  -23.9383   -8.8532   18.7513 F   0  0  0  0  0  0  0  0  0  0  0  0
  1  2  1  0  0  0  0
  1  5  2  0  0  0  0
  2  6  2  0  0  0  0
  3  8  2  0  0  0  0
  3 16  1  0  0  0  0
  4  9  1  0  0  0  0
  4 16  2  0  0  0  0
  5 18  1  0  0  0  0
  6 20  1  0  0  0  0
  7 10  2  0  0  0  0
  7 19  1  0  0  0  0
  8 26  1  0  0  0  0
  9 26  2  0  0  0  0
 10 27  1  0  0  0  0
 11 12  2  0  0  0  0
 11 28  1  0  0  0  0
 12 30  1  0  0  0  0
 13 21  1  0  0  0  0
 13 27  2  0  0  0  0
 14 22  2  0  0  0  0
 14 29  1  0  0  0  0
 15 30  2  0  0  0  0
 15 31  1  0  0  0  0
 16 32  1  0  0  0  0
 17 32  1  0  0  0  0
 17 33  2  0  0  0  0
 17 34  1  0  0  0  0
 18 20  2  0  0  0  0
 18 39  1  0  0  0  0
 19 21  2  0  0  0  0
 19 40  1  0  0  0  0
 20 50  1  0  0  0  0
 21 42  1  0  0  0  0
 22 23  1  0  0  0  0
 22 51  1  0  0  0  0
 23 24  2  0  0  0  0
 23 41  1  0  0  0  0
 24 25  1  0  0  0  0
 24 54  1  0  0  0  0
 25 29  2  0  0  0  0
 25 55  1  0  0  0  0
 26 82  1  0  0  0  0
 27 84  1  0  0  0  0
 28 31  2  0  0  0  0
 28 82  1  0  0  0  0
 29 83  1  0  0  0  0
 30 85  1  0  0  0  0
 31 86  1  0  0  0  0
 32 67  2  0  0  0  0
 33 68  1  0  0  0  0
 33 71  1  0  0  0  0
 34 72  1  0  0  0  0
 34 77  2  0  0  0  0
 35 52  1  0  0  0  0
 35 73  1  0  0  0  0
 35 78  2  0  0  0  0
 36 63  1  0  0  0  0
 36 69  1  0  0  0  0
 36 79  2  0  0  0  0
 37 64  1  0  0  0  0
 37 74  1  0  0  0  0
 37 80  2  0  0  0  0
 38 70  1  0  0  0  0
 38 75  1  0  0  0  0
 38 81  2  0  0  0  0
 39 43  1  0  0  0  0
 40 52  1  0  0  0  0
 41 44  1  0  0  0  0
 42 69  1  0  0  0  0
 43 46  1  0  0  0  0
 44 51  1  0  0  0  0
 45 47  1  0  0  0  0
 45 48  1  0  0  0  0
 46 50  1  0  0  0  0
 47 53  1  0  0  0  0
 48 70  1  0  0  0  0
 49 53  1  0  0  0  0
 49 70  1  0  0  0  0
 50 73  1  0  0  0  0
 51 75  1  0  0  0  0
 52 69  1  0  0  0  0
 53 68  1  0  0  0  0
 56 64  1  0  0  0  0
 57 65  1  0  0  0  0
 58 66  1  0  0  0  0
 59 66  1  0  0  0  0
 60 66  1  0  0  0  0
 61 76  1  0  0  0  0
 62 65  1  0  0  0  0
 62 83  1  0  0  0  0
 63 66  1  0  0  0  0
 63 74  1  0  0  0  0
 64 76  1  0  0  0  0
 65 84  1  0  0  0  0
 67 68  1  0  0  0  0
M  CHG  1  76   1
M  ISO  4  38 100  65 101  75 100  84 101
M  END
> <Batch ID>
0157

> <Smiles>
CNC(C)C(=O)NC(C(=O)N1Cc2cc([101O:1][101CH:1](C)COc3cc4c(c(C)c3C)CCC4[100NH:0][100C:0](=O)N3CCCC(n4nc(-c5ccc(Oc6ccc(F)cc6F)cc5)c(C(N)=O)c4N)C3)ccc2CC1C(=O)NC1CCCc2ccccc21)C(C)(C)C

> <Shape>
0.266

> <Color>
0.074

> <Negative vol penalty>
0.000

$$$$

  -OEChem-04052321593D

 85 94  0     1  0  0  0  0  0999 V2000
  -26.0933  -31.7182   23.8634 C   0  0  0  0  0  0  0  0  0  0  0  0
  -26.5147  -30.4099   24.0783 C   0  0  0  0  0  0  0  0  0  0  0  0
  -22.9826  -10.0302   19.9231 C   0  0  0  0  0  0  0  0  0  0  0  0
  -23.8240   -9.8752   22.1825 C   0  0  0  0  0  0  0  0  0  0  0  0
  -25.2928  -32.0195   22.7623 C   0  0  0  0  0  0  0  0  0  0  0  0
  -26.1348  -29.4019   23.1928 C   0  0  0  0  0  0  0  0  0  0  0  0
  -29.9804  -26.3450   21.9636 C   0  0  0  0  0  0  0  0  0  0  0  0
  -22.2009   -8.8948   20.1362 C   0  0  0  0  0  0  0  0  0  0  0  0
  -23.0422   -8.7398   22.3957 C   0  0  0  0  0  0  0  0  0  0  0  0
  -30.3476  -25.3766   22.8970 C   0  0  0  0  0  0  0  0  0  0  0  0
  -19.8075   -8.0365   23.0755 C   0  0  0  0  0  0  0  0  0  0  0  0
  -19.0920   -7.9591   24.2704 C   0  0  0  0  0  0  0  0  0  0  0  0
  -29.1161  -23.7178   21.6517 C   0  0  0  0  0  0  0  0  0  0  0  0
  -30.0754  -17.4311   22.8814 C   0  0  0  0  0  0  0  0  0  0  0  0
  -20.2776   -5.9351   24.8491 C   0  0  0  0  0  0  0  0  0  0  0  0
  -23.7942  -10.5204   20.9462 C   0  0  0  0  0  0  0  0  0  0  0  0
  -24.2360  -13.0328   20.9549 C   0  0  0  0  0  0  0  0  0  0  0  0
  -24.9109  -31.0164   21.8576 C   0  0  0  0  0  0  0  0  0  0  0  0
  -29.1680  -26.0087   20.8712 C   0  0  0  0  0  0  0  0  0  0  0  0
  -25.3273  -29.6898   22.0794 C   0  0  0  0  0  0  0  0  0  0  0  0
  -28.7421  -24.6832   20.7044 C   0  0  0  0  0  0  0  0  0  0  0  0
  -30.6048  -18.6300   23.3688 C   0  0  0  0  0  0  0  0  0  0  0  0
  -31.8879  -19.0217   22.9646 C   0  0  0  0  0  0  0  0  0  0  0  0
  -22.2307   -8.2496   21.3725 C   0  0  0  0  0  0  0  0  0  0  0  0
  -29.9130  -24.0635   22.7428 C   0  0  0  0  0  0  0  0  0  0  0  0
  -20.7579   -7.0632   22.7673 C   0  0  0  0  0  0  0  0  0  0  0  0
  -19.3271   -6.9085   25.1572 C   0  0  0  0  0  0  0  0  0  0  0  0
  -20.9930   -6.0125   23.6541 C   0  0  0  0  0  0  0  0  0  0  0  0
  -24.6023  -11.6929   20.7264 C   0  0  0  0  0  0  0  0  0  0  0  0
  -30.8335  -16.6857   21.9932 C   0  0  0  0  0  0  0  0  0  0  0  0
  -32.5559  -18.1991   22.0601 C   0  0  0  0  0  0  0  0  0  0  0  0
  -25.3446  -13.7583   20.5928 C   0  0  0  0  0  0  0  0  0  0  0  0
  -23.0039  -13.5734   21.4503 C   0  0  0  0  0  0  0  0  0  0  0  0
  -26.2871  -26.8947   19.8616 C   0  0  0  0  0  0  0  0  0  0  0  0
  -27.0526  -25.0655   17.2944 C   0  0  0  0  0  0  0  0  0  0  0  0
  -28.9028  -22.4998   16.0134 C   0  0  0  0  0  0  0  0  0  0  0  0
  -30.8523  -14.5758   20.6168 C   0  0  0  0  0  0  0  0  0  0  0  0
  -24.0056  -31.3820   20.7080 C   0  0  0  0  0  0  0  0  0  0  0  0
  -28.8029  -27.0592   19.8586 C   0  0  0  0  0  0  0  0  0  0  0  0
  -29.8066  -19.4363   24.3624 C   0  0  0  0  0  0  0  0  0  0  0  0
  -32.5201  -20.3078   23.4211 C   0  0  0  0  0  0  0  0  0  0  0  0
  -27.8852  -24.2664   19.5380 C   0  0  0  0  0  0  0  0  0  0  0  0
  -23.9571  -30.3225   19.6102 C   0  0  0  0  0  0  0  0  0  0  0  0
  -29.5542  -12.3481   18.1613 C   0  0  0  0  0  0  0  0  0  0  0  0
  -23.7776  -28.9340   20.2158 C   0  0  0  0  0  0  0  0  0  0  0  0
  -28.1201  -12.0893   18.6285 C   0  0  0  0  0  0  0  0  0  0  0  0
  -30.5206  -12.4711   19.3380 C   0  0  0  0  0  0  0  0  0  0  0  0
  -28.6962  -13.1895   20.8295 C   0  0  0  0  0  0  0  0  0  0  0  0
  -24.9566  -28.5732   21.1276 C   0  0  1  0  0  0  0  0  0  0  0  0
  -27.5475  -26.7126   19.0641 C   0  0  1  0  0  0  0  0  0  0  0  0
  -30.3099  -20.8782   24.5517 C   0  0  1  0  0  0  0  0  0  0  0  0
  -31.8498  -20.9293   24.6587 C   0  0  1  0  0  0  0  0  0  0  0  0
  -27.6754  -13.1228   19.6819 C   0  0  2  0  0  0  0  0  0  0  0  0
  -32.3508  -20.2605   25.9463 C   0  0  0  0  0  0  0  0  0  0  0  0
  -29.2828  -21.2121   13.8933 C   0  0  0  0  0  0  0  0  0  0  0  0
  -24.4302  -23.5695   17.7359 C   0  0  0  0  0  0  0  0  0  0  0  0
  -25.2974  -21.7519   16.2485 C   0  0  0  0  0  0  0  0  0  0  0  0
  -24.9658  -24.0517   15.3411 C   0  0  0  0  0  0  0  0  0  0  0  0
  -31.7484  -23.3049   15.8976 C   0  0  0  0  0  0  0  0  0  0  0  0
  -34.4222  -17.6677   20.6852 C   0  0  0  0  0  0  0  0  0  0  0  0
  -29.7886  -21.7910   23.4330 C   0  0  0  0  0  0  0  0  0  1  0  0
  -26.8826  -23.6105   16.9296 C   0  0  1  0  0  0  0  0  0  0  0  0
  -29.7301  -22.3897   14.7454 C   0  0  2  0  0  0  0  0  0  0  0  0
  -25.4085  -23.2538   16.5869 C   0  0  0  0  0  0  0  0  0  0  0  0
  -25.8462  -11.5715   20.2554 N   0  0  0  0  0  0  0  0  0  0  0  0
  -32.0627  -17.0415   21.5665 N   0  0  0  0  0  0  0  0  0  0  0  0
  -26.2713  -12.8445   20.1849 N   0  0  0  0  0  0  0  0  0  0  0  0
  -27.5495  -25.3312   18.5783 N   0  0  0  0  0  0  0  0  0  0  0  0
  -30.0368  -13.4710   20.2925 N   0  0  0  0  0  0  0  0  0  0  0  0
  -25.6074  -15.0825   20.5865 N   0  0  0  0  0  0  0  0  0  0  0  0
  -21.9679  -12.6869   21.7745 N   0  0  0  0  0  0  0  0  0  0  0  0
  -30.2737  -15.4770   21.5099 N   0  0  0  0  0  0  0  0  0  0  0  0
  -26.1036  -28.1786   20.3383 N   0  0  0  0  0  0  0  0  0  0  0  0
  -27.8276  -23.3473   15.8497 N   0  0  0  0  0  0  0  0  0  0  0  0
  -31.1706  -22.2067   15.0810 N   0  3  0  0  0  0  0  0  0  0  0  0
  -22.8212  -14.8070   21.5855 O   0  0  0  0  0  0  0  0  0  0  0  0
  -25.5360  -25.9413   20.0305 O   0  0  0  0  0  0  0  0  0  0  0  0
  -26.7622  -25.9341   16.4681 O   0  0  0  0  0  0  0  0  0  0  0  0
  -29.1804  -21.8917   17.0448 O   0  0  0  0  0  0  0  0  0  0  0  0
  -31.9699  -14.7265   20.1166 O   0  0  0  0  0  0  0  0  0  0  0  0
  -21.4679   -7.1418   21.5810 O   0  0  0  0  0  0  0  0  0  0  0  0
  -30.2693  -23.1165   23.6528 O   0  0  0  0  0  0  0  0  0  1  0  0
  -33.8005  -18.5549   21.6063 O   0  0  0  0  0  0  0  0  0  0  0  0
  -18.6411   -6.8351   26.3053 F   0  0  0  0  0  0  0  0  0  0  0  0
  -21.9056   -5.0751   23.3641 F   0  0  0  0  0  0  0  0  0  0  0  0
  1  2  1  0  0  0  0
  1  5  2  0  0  0  0
  2  6  2  0  0  0  0
  3  8  2  0  0  0  0
  3 16  1  0  0  0  0
  4  9  1  0  0  0  0
  4 16  2  0  0  0  0
  5 18  1  0  0  0  0
  6 20  1  0  0  0  0
  7 10  2  0  0  0  0
  7 19  1  0  0  0  0
  8 24  1  0  0  0  0
  9 24  2  0  0  0  0
 10 25  1  0  0  0  0
 11 12  2  0  0  0  0
 11 26  1  0  0  0  0
 12 27  1  0  0  0  0
 13 21  1  0  0  0  0
 13 25  2  0  0  0  0
 14 22  1  0  0  0  0
 14 30  2  0  0  0  0
 15 27  2  0  0  0  0
 15 28  1  0  0  0  0
 16 29  1  0  0  0  0
 17 29  1  0  0  0  0
 17 32  2  0  0  0  0
 17 33  1  0  0  0  0
 18 20  2  0  0  0  0
 18 38  1  0  0  0  0
 19 21  2  0  0  0  0
 19 39  1  0  0  0  0
 20 49  1  0  0  0  0
 21 42  1  0  0  0  0
 22 23  2  0  0  0  0
 22 40  1  0  0  0  0
 23 31  1  0  0  0  0
 23 41  1  0  0  0  0
 24 81  1  0  0  0  0
 25 82  1  0  0  0  0
 26 28  2  0  0  0  0
 26 81  1  0  0  0  0
 27 84  1  0  0  0  0
 28 85  1  0  0  0  0
 29 65  2  0  0  0  0
 30 66  1  0  0  0  0
 30 72  1  0  0  0  0
 31 66  2  0  0  0  0
 31 83  1  0  0  0  0
 32 67  1  0  0  0  0
 32 70  1  0  0  0  0
 33 71  1  0  0  0  0
 33 76  2  0  0  0  0
 34 50  1  0  0  0  0
 34 73  1  0  0  0  0
 34 77  2  0  0  0  0
 35 62  1  0  0  0  0
 35 68  1  0  0  0  0
 35 78  2  0  0  0  0
 36 63  1  0  0  0  0
 36 74  1  0  0  0  0
 36 79  2  0  0  0  0
 37 69  1  0  0  0  0
 37 72  1  0  0  0  0
 37 80  2  0  0  0  0
 38 43  1  0  0  0  0
 39 50  1  0  0  0  0
 40 51  1  0  0  0  0
 41 52  1  0  0  0  0
 42 68  1  0  0  0  0
 43 45  1  0  0  0  0
 44 46  1  0  0  0  0
 44 47  1  0  0  0  0
 45 49  1  0  0  0  0
 46 53  1  0  0  0  0
 47 69  1  0  0  0  0
 48 53  1  0  0  0  0
 48 69  1  0  0  0  0
 49 73  1  0  0  0  0
 50 68  1  0  0  0  0
 51 52  1  0  0  0  0
 51 61  1  0  0  0  0
 52 54  1  0  0  0  0
 53 67  1  0  0  0  0
 55 63  1  0  0  0  0
 56 64  1  0  0  0  0
 57 64  1  0  0  0  0
 58 64  1  0  0  0  0
 59 75  1  0  0  0  0
 60 83  1  0  0  0  0
 61 82  1  0  0  0  0
 62 64  1  0  0  0  0
 62 74  1  0  0  0  0
 63 75  1  0  0  0  0
 65 67  1  0  0  0  0
M  CHG  1  75   1
M  ISO  4  37 100  61 101  72 100  82 101
M  END
> <Batch ID>
0157

> <Smiles>
CNC(C)C(=O)NC(C(=O)N1Cc2cc([101O:1][101CH2:1]C3Cc4cc([100NH:0][100C:0](=O)N5CCCC(n6nc(-c7ccc(Oc8ccc(F)cc8F)cc7)c(C(N)=O)c6N)C5)nc(OC)c4CC3C)ccc2CC1C(=O)NC1CCCc2ccccc21)C(C)(C)C

> <Shape>
0.291

> <Color>
0.205

> <Negative vol penalty>
0.000

$$$$

  -OEChem-04052321593D

 89 98  0     1  0  0  0  0  0999 V2000
  -16.3416  -29.0553   22.9442 C   0  0  0  0  0  0  0  0  0  0  0  0
  -17.1366  -29.0304   21.8028 C   0  0  0  0  0  0  0  0  0  0  0  0
  -26.5832  -12.7083   21.8164 C   0  0  0  0  0  0  0  0  0  0  0  0
  -25.9532  -14.0738   19.9254 C   0  0  0  0  0  0  0  0  0  0  0  0
  -16.8557  -29.5560   24.1396 C   0  0  0  0  0  0  0  0  0  0  0  0
  -18.4458  -29.5074   21.8558 C   0  0  0  0  0  0  0  0  0  0  0  0
  -23.2762  -27.3544   18.7674 C   0  0  0  0  0  0  0  0  0  0  0  0
  -25.2925  -12.1818   21.8662 C   0  0  0  0  0  0  0  0  0  0  0  0
  -24.6625  -13.5472   19.9752 C   0  0  0  0  0  0  0  0  0  0  0  0
  -23.9025  -27.7739   17.5946 C   0  0  0  0  0  0  0  0  0  0  0  0
  -21.3018  -12.2956   19.3777 C   0  0  0  0  0  0  0  0  0  0  0  0
  -20.7132  -11.9047   18.1751 C   0  0  0  0  0  0  0  0  0  0  0  0
  -31.0942  -23.3264   18.7687 C   0  0  0  0  0  0  0  0  0  0  0  0
  -28.6802  -23.3597   18.8600 C   0  0  0  0  0  0  0  0  0  0  0  0
  -25.5155  -29.0016   18.9023 C   0  0  0  0  0  0  0  0  0  0  0  0
  -22.5010  -10.3199   17.8154 C   0  0  0  0  0  0  0  0  0  0  0  0
  -26.9136  -13.6544   20.8460 C   0  0  0  0  0  0  0  0  0  0  0  0
  -29.3423  -13.6973   20.0668 C   0  0  0  0  0  0  0  0  0  0  0  0
  -18.1751  -30.0304   24.2096 C   0  0  0  0  0  0  0  0  0  0  0  0
  -23.7591  -27.7649   20.0183 C   0  0  0  0  0  0  0  0  0  0  0  0
  -18.9776  -30.0162   23.0529 C   0  0  0  0  0  0  0  0  0  0  0  0
  -29.8802  -23.9178   18.4194 C   0  0  0  0  0  0  0  0  0  0  0  0
  -24.8950  -28.5838   20.0896 C   0  0  0  0  0  0  0  0  0  0  0  0
  -31.1082  -22.1768   19.5586 C   0  0  0  0  0  0  0  0  0  0  0  0
  -28.6942  -22.2101   19.6499 C   0  0  0  0  0  0  0  0  0  0  0  0
  -29.9082  -21.6186   19.9992 C   0  0  0  0  0  0  0  0  0  0  0  0
  -24.3322  -12.6012   20.9456 C   0  0  0  0  0  0  0  0  0  0  0  0
  -25.0206  -28.6000   17.6618 C   0  0  0  0  0  0  0  0  0  0  0  0
  -22.4900  -11.6988   19.7991 C   0  0  0  0  0  0  0  0  0  0  0  0
  -21.3128  -10.9168   17.3939 C   0  0  0  0  0  0  0  0  0  0  0  0
  -23.0896  -10.7109   19.0180 C   0  0  0  0  0  0  0  0  0  0  0  0
  -28.2465  -14.1990   20.7944 C   0  0  0  0  0  0  0  0  0  0  0  0
  -30.3688  -14.5648   20.3502 C   0  0  0  0  0  0  0  0  0  0  0  0
  -29.4249  -12.5497   19.2112 C   0  0  0  0  0  0  0  0  0  0  0  0
  -22.5777  -29.4630   22.4317 C   0  0  0  0  0  0  0  0  0  0  0  0
  -25.3412  -28.5887   23.8882 C   0  0  0  0  0  0  0  0  0  0  0  0
  -28.5835  -27.5699   23.5775 C   0  0  0  0  0  0  0  0  0  0  0  0
  -30.5222  -20.2911   22.0503 C   0  0  0  0  0  0  0  0  0  0  0  0
  -18.6713  -30.6061   25.5124 C   0  0  0  0  0  0  0  0  0  0  0  0
  -23.0881  -27.2819   21.2748 C   0  0  0  0  0  0  0  0  0  0  0  0
  -25.4651  -29.0361   21.4083 C   0  0  0  0  0  0  0  0  0  0  0  0
  -20.1900  -30.7461   25.5772 C   0  0  0  0  0  0  0  0  0  0  0  0
  -31.9372  -17.5182   23.7783 C   0  0  0  0  0  0  0  0  0  0  0  0
  -20.7230  -31.3784   24.2954 C   0  0  0  0  0  0  0  0  0  0  0  0
  -31.2555  -16.3064   23.1388 C   0  0  0  0  0  0  0  0  0  0  0  0
  -29.1159  -24.8817   16.2574 C   0  0  0  0  0  0  0  0  0  0  0  0
  -29.2141  -26.3130   18.3379 C   0  0  0  0  0  0  0  0  0  0  0  0
  -30.9825  -18.7039   23.9061 C   0  0  0  0  0  0  0  0  0  0  0  0
  -29.6240  -17.8811   22.0228 C   0  0  0  0  0  0  0  0  0  0  0  0
  -29.0110  -26.1414   15.4074 C   0  0  0  0  0  0  0  0  0  0  0  0
  -29.1088  -27.5618   17.4720 C   0  0  0  0  0  0  0  0  0  0  0  0
  -29.8652  -25.1495   17.5727 C   0  0  0  0  0  0  0  0  0  0  0  0
  -20.4107  -30.5017   23.0766 C   0  0  1  0  0  0  0  0  0  0  0  0
  -23.3573  -28.1794   22.4788 C   0  0  1  0  0  0  0  0  0  0  0  0
  -30.5642  -16.6828   21.8137 C   0  0  2  0  0  0  0  0  0  0  0  0
  -32.4247  -21.5658   19.9159 C   0  0  0  0  0  0  0  0  0  0  0  0
  -27.3923  -21.6356   20.1071 C   0  0  0  0  0  0  0  0  0  0  0  0
  -30.6002  -26.9719   24.9459 C   0  0  0  0  0  0  0  0  0  0  0  0
  -25.8371  -31.5472   24.4457 C   0  0  0  0  0  0  0  0  0  0  0  0
  -28.2274  -30.9833   24.9322 C   0  0  0  0  0  0  0  0  0  0  0  0
  -26.4086  -30.0185   26.3406 C   0  0  0  0  0  0  0  0  0  0  0  0
  -28.6470  -24.8170   22.4928 C   0  0  0  0  0  0  0  0  0  0  0  0
  -28.1036  -28.4632   15.3762 C   0  0  0  0  0  0  0  0  0  0  0  0
  -25.5681  -28.1344   15.3948 C   0  0  0  0  0  0  0  0  0  1  0  0
  -26.7312  -29.1702   23.9809 C   0  0  1  0  0  0  0  0  0  0  0  0
  -29.3552  -26.4474   24.2475 C   0  0  2  0  0  0  0  0  0  0  0  0
  -26.8265  -28.3196   14.5530 C   0  0  1  0  0  0  0  0  0  0  0  0
  -26.7894  -30.4230   24.8998 C   0  0  0  0  0  0  0  0  0  0  0  0
  -28.5486  -15.2998   21.4880 N   0  0  0  0  0  0  0  0  0  0  0  0
  -29.8459  -15.4969   21.1975 N   0  0  0  0  0  0  0  0  0  0  0  0
  -24.7700  -28.5423   22.6085 N   0  0  0  0  0  0  0  0  0  0  0  0
  -30.3683  -19.0057   22.6113 N   0  0  0  0  0  0  0  0  0  0  0  0
  -31.6586  -14.6135   19.9548 N   0  0  0  0  0  0  0  0  0  0  0  0
  -28.2762  -11.7674   19.0300 N   0  0  0  0  0  0  0  0  0  0  0  0
  -29.9222  -20.4509   20.8017 N   0  0  0  0  0  0  0  0  0  0  0  0
  -21.3259  -29.3825   23.0112 N   0  0  0  0  0  0  0  0  0  0  0  0
  -27.6029  -28.0789   24.4025 N   0  0  0  0  0  0  0  0  0  0  0  0
  -28.3443  -27.2513   16.1985 N   0  3  0  0  0  0  0  0  0  0  0  0
  -29.7741  -25.4331   23.2393 N   0  3  0  0  0  0  0  0  0  0  0  0
  -30.4902  -12.2183   18.6379 O   0  0  0  0  0  0  0  0  0  0  0  0
  -23.0757  -30.4535   21.9096 O   0  0  0  0  0  0  0  0  0  0  0  0
  -24.7855  -28.1837   24.9123 O   0  0  0  0  0  0  0  0  0  0  0  0
  -28.8285  -27.9589   22.4377 O   0  0  0  0  0  0  0  0  0  0  0  0
  -31.1639  -21.1761   22.6221 O   0  0  0  0  0  0  0  0  0  0  0  0
  -26.6551  -29.4761   13.7322 O   0  0  0  0  0  0  0  0  0  0  0  0
  -23.0727  -12.0875   20.9937 O   0  0  0  0  0  0  0  0  0  0  0  0
  -25.6335  -29.0114   16.5186 O   0  0  0  0  0  0  0  0  0  1  0  0
  -20.7467  -10.5403   16.2398 F   0  0  0  0  0  0  0  0  0  0  0  0
  -24.2305  -10.1331   19.4183 F   0  0  0  0  0  0  0  0  0  0  0  0
  1  2  1  0  0  0  0
  1  5  2  0  0  0  0
  2  6  2  0  0  0  0
  3  8  2  0  0  0  0
  3 17  1  0  0  0  0
  4  9  1  0  0  0  0
  4 17  2  0  0  0  0
  5 19  1  0  0  0  0
  6 21  1  0  0  0  0
  7 10  2  0  0  0  0
  7 20  1  0  0  0  0
  8 27  1  0  0  0  0
  9 27  2  0  0  0  0
 10 28  1  0  0  0  0
 11 12  2  0  0  0  0
 11 29  1  0  0  0  0
 12 30  1  0  0  0  0
 13 22  1  0  0  0  0
 13 24  2  0  0  0  0
 14 22  2  0  0  0  0
 14 25  1  0  0  0  0
 15 23  1  0  0  0  0
 15 28  2  0  0  0  0
 16 30  2  0  0  0  0
 16 31  1  0  0  0  0
 17 32  1  0  0  0  0
 18 32  1  0  0  0  0
 18 33  2  0  0  0  0
 18 34  1  0  0  0  0
 19 21  2  0  0  0  0
 19 39  1  0  0  0  0
 20 23  2  0  0  0  0
 20 40  1  0  0  0  0
 21 53  1  0  0  0  0
 22 52  1  0  0  0  0
 23 41  1  0  0  0  0
 24 26  1  0  0  0  0
 24 56  1  0  0  0  0
 25 26  2  0  0  0  0
 25 57  1  0  0  0  0
 26 75  1  0  0  0  0
 27 86  1  0  0  0  0
 28 87  1  0  0  0  0
 29 31  2  0  0  0  0
 29 86  1  0  0  0  0
 30 88  1  0  0  0  0
 31 89  1  0  0  0  0
 32 69  2  0  0  0  0
 33 70  1  0  0  0  0
 33 73  1  0  0  0  0
 34 74  1  0  0  0  0
 34 80  2  0  0  0  0
 35 54  1  0  0  0  0
 35 76  1  0  0  0  0
 35 81  2  0  0  0  0
 36 65  1  0  0  0  0
 36 71  1  0  0  0  0
 36 82  2  0  0  0  0
 37 66  1  0  0  0  0
 37 77  1  0  0  0  0
 37 83  2  0  0  0  0
 38 72  1  0  0  0  0
 38 75  1  0  0  0  0
 38 84  2  0  0  0  0
 39 42  1  0  0  0  0
 40 54  1  0  0  0  0
 41 71  1  0  0  0  0
 42 44  1  0  0  0  0
 43 45  1  0  0  0  0
 43 48  1  0  0  0  0
 44 53  1  0  0  0  0
 45 55  1  0  0  0  0
 46 50  1  0  0  0  0
 46 52  1  0  0  0  0
 47 51  1  0  0  0  0
 47 52  1  0  0  0  0
 48 72  1  0  0  0  0
 49 55  1  0  0  0  0
 49 72  1  0  0  0  0
 50 78  1  0  0  0  0
 51 78  1  0  0  0  0
 53 76  1  0  0  0  0
 54 71  1  0  0  0  0
 55 70  1  0  0  0  0
 58 66  1  0  0  0  0
 59 68  1  0  0  0  0
 60 68  1  0  0  0  0
 61 68  1  0  0  0  0
 62 79  1  0  0  0  0
 63 67  1  0  0  0  0
 63 78  1  0  0  0  0
 64 67  1  0  0  0  0
 64 87  1  0  0  0  0
 65 68  1  0  0  0  0
 65 77  1  0  0  0  0
 66 79  1  0  0  0  0
 67 85  1  0  0  0  0
 69 70  1  0  0  0  0
M  CHG  2  78   1  79   1
M  ISO  4  38 100  64 101  75 100  87 101
M  END
> <Batch ID>
0157

> <Smiles>
CNC(C)C(=O)NC(C(=O)N1Cc2cc([101O:1][101CH2:1]C(O)CN3CCC(c4cc(C)c([100NH:0][100C:0](=O)N5CCCC(n6nc(-c7ccc(Oc8ccc(F)cc8F)cc7)c(C(N)=O)c6N)C5)c(C)c4)CC3)ccc2CC1C(=O)NC1CCCc2ccccc21)C(C)(C)C

> <Shape>
0.290

> <Color>
0.067

> <Negative vol penalty>
0.000

$$$$

  -OEChem-04052321593D

 90100  0     1  0  0  0  0  0999 V2000
  -33.4060   -9.8816   20.8689 C   0  0  0  0  0  0  0  0  0  0  0  0
  -32.7162  -10.8911   20.2053 C   0  0  0  0  0  0  0  0  0  0  0  0
  -21.7085  -32.3695   23.0810 C   0  0  0  0  0  0  0  0  0  0  0  0
  -22.4838  -32.0048   25.3399 C   0  0  0  0  0  0  0  0  0  0  0  0
  -32.7308   -8.7353   21.2859 C   0  0  0  0  0  0  0  0  0  0  0  0
  -31.3509  -10.7544   19.9573 C   0  0  0  0  0  0  0  0  0  0  0  0
  -28.7540  -14.9738   21.0051 C   0  0  0  0  0  0  0  0  0  0  0  0
  -20.4393  -31.9187   23.4438 C   0  0  0  0  0  0  0  0  0  0  0  0
  -21.2146  -31.5541   25.7028 C   0  0  0  0  0  0  0  0  0  0  0  0
  -28.8130  -16.0065   20.0703 C   0  0  0  0  0  0  0  0  0  0  0  0
  -17.0899  -30.5240   23.6890 C   0  0  0  0  0  0  0  0  0  0  0  0
  -16.4474  -29.6312   22.8312 C   0  0  0  0  0  0  0  0  0  0  0  0
  -26.6618  -15.3392   19.2063 C   0  0  0  0  0  0  0  0  0  0  0  0
  -30.5723  -24.2917   20.0678 C   0  0  0  0  0  0  0  0  0  0  0  0
  -18.2603  -28.0587   23.1099 C   0  0  0  0  0  0  0  0  0  0  0  0
  -22.7307  -32.4125   24.0290 C   0  0  0  0  0  0  0  0  0  0  0  0
  -24.3808  -34.1445   23.1432 C   0  0  0  0  0  0  0  0  0  0  0  0
  -31.3545   -8.5887   21.0514 C   0  0  0  0  0  0  0  0  0  0  0  0
  -27.6515  -14.1079   21.0405 C   0  0  0  0  0  0  0  0  0  0  0  0
  -30.6568   -9.6045   20.3703 C   0  0  0  0  0  0  0  0  0  0  0  0
  -26.5901  -14.2979   20.1442 C   0  0  0  0  0  0  0  0  0  0  0  0
  -30.4939  -22.8978   19.8270 C   0  0  0  0  0  0  0  0  0  0  0  0
  -20.1924  -31.5110   24.7547 C   0  0  0  0  0  0  0  0  0  0  0  0
  -27.7682  -16.1875   19.1689 C   0  0  0  0  0  0  0  0  0  0  0  0
  -18.3177  -30.1842   24.2571 C   0  0  0  0  0  0  0  0  0  0  0  0
  -17.0326  -28.3986   22.5417 C   0  0  0  0  0  0  0  0  0  0  0  0
  -18.9029  -28.9516   23.9677 C   0  0  0  0  0  0  0  0  0  0  0  0
  -24.0421  -32.8775   23.6547 C   0  0  0  0  0  0  0  0  0  0  0  0
  -29.3197  -24.8190   19.8439 C   0  0  0  0  0  0  0  0  0  0  0  0
  -29.1956  -22.6157   19.4631 C   0  0  0  0  0  0  0  0  0  0  0  0
  -25.7396  -34.0853   22.9512 C   0  0  0  0  0  0  0  0  0  0  0  0
  -23.5423  -35.2741   22.8663 C   0  0  0  0  0  0  0  0  0  0  0  0
  -27.2383  -10.9842   20.6210 C   0  0  0  0  0  0  0  0  0  0  0  0
  -24.2015  -11.6575   21.5411 C   0  0  0  0  0  0  0  0  0  0  0  0
  -21.7072  -13.9686   21.8315 C   0  0  0  0  0  0  0  0  0  0  0  0
  -29.5745  -29.7561   21.9539 C   0  0  0  0  0  0  0  0  0  0  0  0
  -30.6773   -7.3107   21.4790 C   0  0  0  0  0  0  0  0  0  0  0  0
  -27.5908  -13.0153   22.0724 C   0  0  0  0  0  0  0  0  0  0  0  0
  -25.3748  -13.4082   20.1541 C   0  0  0  0  0  0  0  0  0  0  0  0
  -29.1543   -7.4090   21.5092 C   0  0  0  0  0  0  0  0  0  0  0  0
  -29.6765  -31.9547   24.6192 C   0  0  0  0  0  0  0  0  0  0  0  0
  -28.6368   -8.0724   20.2368 C   0  0  0  0  0  0  0  0  0  0  0  0
  -28.5792  -20.2944   20.2647 C   0  0  0  0  0  0  0  0  0  0  0  0
  -29.1779  -20.6818   17.8294 C   0  0  0  0  0  0  0  0  0  0  0  0
  -28.2789  -32.5735   24.6334 C   0  0  0  0  0  0  0  0  0  0  0  0
  -27.9193  -18.9712   19.8853 C   0  0  0  0  0  0  0  0  0  0  0  0
  -28.5145  -19.3569   17.4627 C   0  0  0  0  0  0  0  0  0  0  0  0
  -28.2560  -26.5609   21.3459 C   0  0  0  0  0  0  0  0  0  0  0  0
  -29.9360  -27.2638   19.5871 C   0  0  0  0  0  0  0  0  0  0  0  0
  -29.6085  -30.4601   24.3275 C   0  0  0  0  0  0  0  0  0  0  0  0
  -27.7983  -28.0178   21.4595 C   0  0  0  0  0  0  0  0  0  0  0  0
  -29.4226  -28.6944   19.7227 C   0  0  0  0  0  0  0  0  0  0  0  0
  -27.5091  -30.7380   23.0495 C   0  0  0  0  0  0  0  0  0  0  0  0
  -29.1704   -9.5039   20.1047 C   0  0  1  0  0  0  0  0  0  0  0  0
  -28.8347  -26.2523   19.9533 C   0  0  0  0  0  0  0  0  0  0  0  0
  -28.5489  -21.2931   19.0941 C   0  0  0  0  0  0  0  0  0  0  0  0
  -26.6555  -11.8752   21.6813 C   0  0  1  0  0  0  0  0  0  0  0  0
  -27.5193  -32.2538   23.3337 C   0  0  1  0  0  0  0  0  0  0  0  0
  -28.5431  -18.3698   18.6272 C   0  0  0  0  0  0  0  0  0  1  0  0
  -31.6040  -21.9318   19.9471 C   0  0  0  0  0  0  0  0  0  0  0  0
  -26.8349  -23.8833   17.6551 C   0  0  0  0  0  0  0  0  0  0  0  0
  -19.3260  -14.2129   22.5849 C   0  0  0  0  0  0  0  0  0  0  0  0
  -23.2554  -10.2734   18.9917 C   0  0  0  0  0  0  0  0  0  0  0  0
  -21.0230  -11.3602   19.3132 C   0  0  0  0  0  0  0  0  0  0  0  0
  -21.8891   -9.7644   21.0237 C   0  0  0  0  0  0  0  0  0  0  0  0
  -22.4436  -15.9519   23.9010 C   0  0  0  0  0  0  0  0  0  0  0  0
  -27.0864  -23.9269   19.1526 C   0  0  0  0  0  0  0  0  0  0  0  0
  -22.9326  -12.0590   20.8284 C   0  0  1  0  0  0  0  0  0  0  0  0
  -20.7885  -14.3192   22.9880 C   0  0  2  0  0  0  0  0  0  0  0  0
  -22.2987  -10.8800   20.0375 C   0  0  0  0  0  0  0  0  0  0  0  0
  -25.1003  -32.0721   23.7797 N   0  0  0  0  0  0  0  0  0  0  0  0
  -28.4910  -23.7910   19.4765 N   0  0  0  0  0  0  0  0  0  0  0  0
  -26.1173  -32.8349   23.3438 N   0  0  0  0  0  0  0  0  0  0  0  0
  -25.3651  -12.3502   21.1779 N   0  0  0  0  0  0  0  0  0  0  0  0
  -28.8769  -30.1977   23.0883 N   0  0  0  0  0  0  0  0  0  0  0  0
  -28.8756  -28.9331   21.0580 N   0  0  0  0  0  0  0  0  0  0  0  0
  -26.6361  -34.9812   22.4865 N   0  0  0  0  0  0  0  0  0  0  0  0
  -23.3316  -36.2150   23.8834 N   0  0  0  0  0  0  0  0  0  0  0  0
  -28.4386  -10.3985   20.9757 N   0  0  0  0  0  0  0  0  0  0  0  0
  -22.0586  -12.6353   21.8445 N   0  0  0  0  0  0  0  0  0  0  0  0
  -21.0481  -15.7114   23.4520 N   0  3  0  0  0  0  0  0  0  0  0  0
  -22.9828  -35.4354   21.7553 O   0  0  0  0  0  0  0  0  0  0  0  0
  -26.6424  -10.8378   19.5603 O   0  0  0  0  0  0  0  0  0  0  0  0
  -24.1603  -10.7672   22.3938 O   0  0  0  0  0  0  0  0  0  0  0  0
  -22.0732  -14.7940   20.9977 O   0  0  0  0  0  0  0  0  0  0  0  0
  -30.7521  -30.0782   21.7523 O   0  0  0  0  0  0  0  0  0  0  0  0
  -18.9540  -31.0713   25.1091 O   0  0  0  0  0  0  0  0  0  0  0  0
  -27.8240  -17.2009   18.2490 O   0  0  0  0  0  0  0  0  0  1  0  0
  -16.4147  -27.5407   21.7193 F   0  0  0  0  0  0  0  0  0  0  0  0
  -20.0817  -28.6190   24.5114 F   0  0  0  0  0  0  0  0  0  0  0  0
  1  2  1  0  0  0  0
  1  5  2  0  0  0  0
  2  6  2  0  0  0  0
  3  8  2  0  0  0  0
  3 16  1  0  0  0  0
  4  9  1  0  0  0  0
  4 16  2  0  0  0  0
  5 18  1  0  0  0  0
  6 20  1  0  0  0  0
  7 10  2  0  0  0  0
  7 19  1  0  0  0  0
  8 23  1  0  0  0  0
  9 23  2  0  0  0  0
 10 24  1  0  0  0  0
 11 12  2  0  0  0  0
 11 25  1  0  0  0  0
 12 26  1  0  0  0  0
 13 21  1  0  0  0  0
 13 24  2  0  0  0  0
 14 22  1  0  0  0  0
 14 29  2  0  0  0  0
 15 26  2  0  0  0  0
 15 27  1  0  0  0  0
 16 28  1  0  0  0  0
 17 28  1  0  0  0  0
 17 31  2  0  0  0  0
 17 32  1  0  0  0  0
 18 20  2  0  0  0  0
 18 37  1  0  0  0  0
 19 21  2  0  0  0  0
 19 38  1  0  0  0  0
 20 54  1  0  0  0  0
 21 39  1  0  0  0  0
 22 30  2  0  0  0  0
 22 60  1  0  0  0  0
 23 87  1  0  0  0  0
 24 88  1  0  0  0  0
 25 27  2  0  0  0  0
 25 87  1  0  0  0  0
 26 89  1  0  0  0  0
 27 90  1  0  0  0  0
 28 71  2  0  0  0  0
 29 55  1  0  0  0  0
 29 72  1  0  0  0  0
 30 56  1  0  0  0  0
 30 72  1  0  0  0  0
 31 73  1  0  0  0  0
 31 77  1  0  0  0  0
 32 78  1  0  0  0  0
 32 82  2  0  0  0  0
 33 57  1  0  0  0  0
 33 79  1  0  0  0  0
 33 83  2  0  0  0  0
 34 68  1  0  0  0  0
 34 74  1  0  0  0  0
 34 84  2  0  0  0  0
 35 69  1  0  0  0  0
 35 80  1  0  0  0  0
 35 85  2  0  0  0  0
 36 75  1  0  0  0  0
 36 76  1  0  0  0  0
 36 86  2  0  0  0  0
 37 40  1  0  0  0  0
 38 57  1  0  0  0  0
 39 74  1  0  0  0  0
 40 42  1  0  0  0  0
 41 45  1  0  0  0  0
 41 50  1  0  0  0  0
 42 54  1  0  0  0  0
 43 46  1  0  0  0  0
 43 56  1  0  0  0  0
 44 47  1  0  0  0  0
 44 56  1  0  0  0  0
 45 58  1  0  0  0  0
 46 59  1  0  0  0  0
 47 59  1  0  0  0  0
 48 51  1  0  0  0  0
 48 55  1  0  0  0  0
 49 52  1  0  0  0  0
 49 55  1  0  0  0  0
 50 75  1  0  0  0  0
 51 76  1  0  0  0  0
 52 76  1  0  0  0  0
 53 58  1  0  0  0  0
 53 75  1  0  0  0  0
 54 79  1  0  0  0  0
 57 74  1  0  0  0  0
 58 73  1  0  0  0  0
 59 88  1  0  0  0  0
 61 67  1  0  0  0  0
 62 69  1  0  0  0  0
 63 70  1  0  0  0  0
 64 70  1  0  0  0  0
 65 70  1  0  0  0  0
 66 81  1  0  0  0  0
 67 72  1  0  0  0  0
 68 70  1  0  0  0  0
 68 80  1  0  0  0  0
 69 81  1  0  0  0  0
 71 73  1  0  0  0  0
M  CHG  1  81   1
M  ISO  4  36 100  59 101  76 100  88 101
M  END
> <Batch ID>
0157

> <Smiles>
CCn1c(C2CC[100N:0]([100C:0](=O)N3CCCC(n4nc(-c5ccc(Oc6ccc(F)cc6F)cc5)c(C(N)=O)c4N)C3)CC2)cc(C)c1C1CC[101CH:1]([101O:1]c2ccc3c(c2)CN(C(=O)C(NC(=O)C(C)NC)C(C)(C)C)C(C(=O)NC2CCCc4ccccc42)C3)CC1

> <Shape>
0.281

> <Color>
0.078

> <Negative vol penalty>
0.000

$$$$

  -OEChem-04052321593D

 88 97  0     1  0  0  0  0  0999 V2000
  -28.2225  -36.3355   24.2017 C   0  0  0  0  0  0  0  0  0  0  0  0
  -28.5467  -35.0060   23.9512 C   0  0  0  0  0  0  0  0  0  0  0  0
  -23.5259  -10.2090   22.0672 C   0  0  0  0  0  0  0  0  0  0  0  0
  -24.7993   -8.3411   21.2147 C   0  0  0  0  0  0  0  0  0  0  0  0
  -26.8926  -36.7010   24.4060 C   0  0  0  0  0  0  0  0  0  0  0  0
  -27.5412  -34.0410   23.9060 C   0  0  0  0  0  0  0  0  0  0  0  0
  -27.3472  -29.0925   20.3031 C   0  0  0  0  0  0  0  0  0  0  0  0
  -22.3574   -9.4524   21.9794 C   0  0  0  0  0  0  0  0  0  0  0  0
  -23.6307   -7.5845   21.1270 C   0  0  0  0  0  0  0  0  0  0  0  0
  -27.6683  -27.7547   20.5288 C   0  0  0  0  0  0  0  0  0  0  0  0
  -21.0351   -5.0411   21.0185 C   0  0  0  0  0  0  0  0  0  0  0  0
  -21.0762   -3.7267   21.4836 C   0  0  0  0  0  0  0  0  0  0  0  0
  -28.8228  -21.4601   20.3569 C   0  0  0  0  0  0  0  0  0  0  0  0
  -28.5603  -21.8296   22.7299 C   0  0  0  0  0  0  0  0  0  0  0  0
  -25.3488  -27.2828   20.9940 C   0  0  0  0  0  0  0  0  0  0  0  0
  -21.6704   -4.5243   23.6854 C   0  0  0  0  0  0  0  0  0  0  0  0
  -24.7469   -9.6534   21.6847 C   0  0  0  0  0  0  0  0  0  0  0  0
  -26.8270  -10.5270   22.8753 C   0  0  0  0  0  0  0  0  0  0  0  0
  -25.8693  -35.7415   24.3537 C   0  0  0  0  0  0  0  0  0  0  0  0
  -26.0240  -29.5384   20.4320 C   0  0  0  0  0  0  0  0  0  0  0  0
  -26.1965  -34.3937   24.1111 C   0  0  0  0  0  0  0  0  0  0  0  0
  -28.7582  -20.9600   21.6574 C   0  0  0  0  0  0  0  0  0  0  0  0
  -25.0132  -28.6262   20.7669 C   0  0  0  0  0  0  0  0  0  0  0  0
  -28.4917  -23.6993   21.2013 C   0  0  0  0  0  0  0  0  0  0  0  0
  -22.4098   -8.1402   21.5094 C   0  0  0  0  0  0  0  0  0  0  0  0
  -26.6696  -26.8502   20.8772 C   0  0  0  0  0  0  0  0  0  0  0  0
  -21.3117   -6.0971   21.8869 C   0  0  0  0  0  0  0  0  0  0  0  0
  -28.6896  -22.8298   20.1288 C   0  0  0  0  0  0  0  0  0  0  0  0
  -28.4270  -23.1993   22.5019 C   0  0  0  0  0  0  0  0  0  0  0  0
  -21.3938   -3.4683   22.8170 C   0  0  0  0  0  0  0  0  0  0  0  0
  -21.6294   -5.8387   23.2203 C   0  0  0  0  0  0  0  0  0  0  0  0
  -25.9543  -10.4346   21.7746 C   0  0  0  0  0  0  0  0  0  0  0  0
  -27.8134  -11.3879   22.4600 C   0  0  0  0  0  0  0  0  0  0  0  0
  -26.7528   -9.8914   24.1584 C   0  0  0  0  0  0  0  0  0  0  0  0
  -24.5350  -31.6331   22.3025 C   0  0  0  0  0  0  0  0  0  0  0  0
  -22.0072  -30.9599   20.3844 C   0  0  0  0  0  0  0  0  0  0  0  0
  -20.4870  -28.7653   18.2584 C   0  0  0  0  0  0  0  0  0  0  0  0
  -29.5584  -15.9297   19.9405 C   0  0  0  0  0  0  0  0  0  0  0  0
  -24.4515  -36.1767   24.6277 C   0  0  0  0  0  0  0  0  0  0  0  0
  -25.6898  -30.9793   20.1590 C   0  0  0  0  0  0  0  0  0  0  0  0
  -23.5740  -29.0503   20.8982 C   0  0  0  0  0  0  0  0  0  0  0  0
  -23.4054  -35.1539   24.1918 C   0  0  0  0  0  0  0  0  0  0  0  0
  -28.8659  -13.2414   17.8809 C   0  0  0  0  0  0  0  0  0  0  0  0
  -23.8003  -33.7555   24.6558 C   0  0  0  0  0  0  0  0  0  0  0  0
  -28.1175  -12.2688   18.7922 C   0  0  0  0  0  0  0  0  0  0  0  0
  -27.7770  -18.6618   21.2364 C   0  0  0  0  0  0  0  0  0  0  0  0
  -30.2822  -18.9439   21.4683 C   0  0  0  0  0  0  0  0  0  0  0  0
  -28.4208  -14.6773   18.1327 C   0  0  0  0  0  0  0  0  0  0  0  0
  -27.9475  -17.1570   21.4635 C   0  0  0  0  0  0  0  0  0  0  0  0
  -30.3905  -17.4420   21.7151 C   0  0  0  0  0  0  0  0  0  0  0  0
  -27.8302  -14.1531   20.4767 C   0  0  0  0  0  0  0  0  0  0  0  0
  -28.9032  -19.4704   21.9053 C   0  0  0  0  0  0  0  0  0  0  0  0
  -25.1313  -33.3219   24.0297 C   0  0  1  0  0  0  0  0  0  0  0  0
  -24.3905  -31.4272   20.8212 C   0  0  1  0  0  0  0  0  0  0  0  0
  -28.2476  -12.6831   20.2686 C   0  0  1  0  0  0  0  0  0  0  0  0
  -26.6253  -25.1259   24.9583 C   0  0  0  0  0  0  0  0  0  0  0  0
  -18.4113  -28.4771   16.8779 C   0  0  0  0  0  0  0  0  0  0  0  0
  -20.4163  -30.3334   22.9115 C   0  0  0  0  0  0  0  0  0  0  0  0
  -18.7271  -29.1698   21.4759 C   0  0  0  0  0  0  0  0  0  0  0  0
  -19.1512  -31.6092   21.1719 C   0  0  0  0  0  0  0  0  0  0  0  0
  -22.0417  -28.5971   15.7457 C   0  0  0  0  0  0  0  0  0  0  0  0
  -27.5291  -23.3829   18.1281 C   0  0  0  0  0  0  0  0  0  0  0  0
  -28.3480  -25.1673   20.9574 C   0  0  0  0  0  0  0  0  0  1  0  0
  -27.0732  -23.8096   24.3595 C   0  0  0  0  0  0  0  0  0  0  0  0
  -20.8912  -29.9434   20.4039 C   0  0  1  0  0  0  0  0  0  0  0  0
  -19.8531  -28.9608   16.8930 C   0  0  2  0  0  0  0  0  0  0  0  0
  -19.8238  -30.2560   21.4903 C   0  0  0  0  0  0  0  0  0  0  0  0
  -26.3511  -11.1775   20.7380 N   0  0  0  0  0  0  0  0  0  0  0  0
  -27.4841  -11.7451   21.1856 N   0  0  0  0  0  0  0  0  0  0  0  0
  -23.2986  -30.4710   20.6275 N   0  0  0  0  0  0  0  0  0  0  0  0
  -28.5559  -15.0310   19.5456 N   0  0  0  0  0  0  0  0  0  0  0  0
  -29.2942  -16.7217   21.0680 N   0  0  0  0  0  0  0  0  0  0  0  0
  -28.9216  -11.8666   23.0643 N   0  0  0  0  0  0  0  0  0  0  0  0
  -25.6729   -9.0371   24.4193 N   0  0  0  0  0  0  0  0  0  0  0  0
  -24.9331  -32.9079   22.6572 N   0  0  0  0  0  0  0  0  0  0  0  0
  -20.3630  -29.8910   19.0449 N   0  0  0  0  0  0  0  0  0  0  0  0
  -20.6128  -28.2063   15.8563 N   0  3  0  0  0  0  0  0  0  0  0  0
  -27.6098  -10.0885   25.0529 O   0  0  0  0  0  0  0  0  0  0  0  0
  -24.3010  -30.7045   23.0672 O   0  0  0  0  0  0  0  0  0  0  0  0
  -21.7437  -32.1429   20.1546 O   0  0  0  0  0  0  0  0  0  0  0  0
  -21.0340  -27.7174   18.5950 O   0  0  0  0  0  0  0  0  0  0  0  0
  -30.6271  -16.0191   19.3231 O   0  0  0  0  0  0  0  0  0  0  0  0
  -21.2697   -7.4016   21.4239 O   0  0  0  0  0  0  0  0  0  0  0  0
  -28.7551  -23.3009   18.8520 O   0  0  0  0  0  0  0  0  0  0  0  0
  -26.9826  -25.5345   21.1003 O   0  0  0  0  0  0  0  0  0  1  0  0
  -28.2342  -24.0333   23.5621 O   0  0  0  0  0  0  0  0  0  0  0  0
  -21.4317   -2.2061   23.2638 F   0  0  0  0  0  0  0  0  0  0  0  0
  -21.8949   -6.8492   24.0595 F   0  0  0  0  0  0  0  0  0  0  0  0
  1  2  1  0  0  0  0
  1  5  2  0  0  0  0
  2  6  2  0  0  0  0
  3  8  2  0  0  0  0
  3 17  1  0  0  0  0
  4  9  1  0  0  0  0
  4 17  2  0  0  0  0
  5 19  1  0  0  0  0
  6 21  1  0  0  0  0
  7 10  2  0  0  0  0
  7 20  1  0  0  0  0
  8 25  1  0  0  0  0
  9 25  2  0  0  0  0
 10 26  1  0  0  0  0
 11 12  2  0  0  0  0
 11 27  1  0  0  0  0
 12 30  1  0  0  0  0
 13 22  1  0  0  0  0
 13 28  2  0  0  0  0
 14 22  2  0  0  0  0
 14 29  1  0  0  0  0
 15 23  1  0  0  0  0
 15 26  2  0  0  0  0
 16 30  2  0  0  0  0
 16 31  1  0  0  0  0
 17 32  1  0  0  0  0
 18 32  1  0  0  0  0
 18 33  2  0  0  0  0
 18 34  1  0  0  0  0
 19 21  2  0  0  0  0
 19 39  1  0  0  0  0
 20 23  2  0  0  0  0
 20 40  1  0  0  0  0
 21 53  1  0  0  0  0
 22 52  1  0  0  0  0
 23 41  1  0  0  0  0
 24 28  1  0  0  0  0
 24 29  2  0  0  0  0
 24 63  1  0  0  0  0
 25 83  1  0  0  0  0
 26 85  1  0  0  0  0
 27 31  2  0  0  0  0
 27 83  1  0  0  0  0
 28 84  1  0  0  0  0
 29 86  1  0  0  0  0
 30 87  1  0  0  0  0
 31 88  1  0  0  0  0
 32 68  2  0  0  0  0
 33 69  1  0  0  0  0
 33 73  1  0  0  0  0
 34 74  1  0  0  0  0
 34 78  2  0  0  0  0
 35 54  1  0  0  0  0
 35 75  1  0  0  0  0
 35 79  2  0  0  0  0
 36 65  1  0  0  0  0
 36 70  1  0  0  0  0
 36 80  2  0  0  0  0
 37 66  1  0  0  0  0
 37 76  1  0  0  0  0
 37 81  2  0  0  0  0
 38 71  1  0  0  0  0
 38 72  1  0  0  0  0
 38 82  2  0  0  0  0
 39 42  1  0  0  0  0
 40 54  1  0  0  0  0
 41 70  1  0  0  0  0
 42 44  1  0  0  0  0
 43 45  1  0  0  0  0
 43 48  1  0  0  0  0
 44 53  1  0  0  0  0
 45 55  1  0  0  0  0
 46 49  1  0  0  0  0
 46 52  1  0  0  0  0
 47 50  1  0  0  0  0
 47 52  1  0  0  0  0
 48 71  1  0  0  0  0
 49 72  1  0  0  0  0
 50 72  1  0  0  0  0
 51 55  1  0  0  0  0
 51 71  1  0  0  0  0
 53 75  1  0  0  0  0
 54 70  1  0  0  0  0
 55 69  1  0  0  0  0
 56 64  1  0  0  0  0
 57 66  1  0  0  0  0
 58 67  1  0  0  0  0
 59 67  1  0  0  0  0
 60 67  1  0  0  0  0
 61 77  1  0  0  0  0
 62 84  1  0  0  0  0
 63 85  1  0  0  0  0
 64 86  1  0  0  0  0
 65 67  1  0  0  0  0
 65 76  1  0  0  0  0
 66 77  1  0  0  0  0
 68 69  1  0  0  0  0
M  CHG  1  77   1
M  ISO  4  38 100  63 101  72 100  85 101
M  END
> <Batch ID>
0157

> <Smiles>
CCOc1cc(C2CC[100N:0]([100C:0](=O)N3CCCC(n4nc(-c5ccc(Oc6ccc(F)cc6F)cc5)c(C(N)=O)c4N)C3)CC2)cc(OC)c1[101CH2:1][101O:1]c1ccc2c(c1)CN(C(=O)C(NC(=O)C(C)NC)C(C)(C)C)C(C(=O)NC1CCCc3ccccc31)C2

> <Shape>
0.309

> <Color>
0.096

> <Negative vol penalty>
0.000

$$$$

  -OEChem-04052321593D

 88 97  0     1  0  0  0  0  0999 V2000
  -17.3658  -29.1730   19.7134 C   0  0  0  0  0  0  0  0  0  0  0  0
  -18.3854  -30.1135   19.8208 C   0  0  0  0  0  0  0  0  0  0  0  0
  -26.6576  -12.0339   19.5799 C   0  0  0  0  0  0  0  0  0  0  0  0
  -26.8497  -11.9825   21.9877 C   0  0  0  0  0  0  0  0  0  0  0  0
  -17.3506  -28.0637   20.5579 C   0  0  0  0  0  0  0  0  0  0  0  0
  -19.3897  -29.9457   20.7735 C   0  0  0  0  0  0  0  0  0  0  0  0
  -27.1427  -29.6368   19.8668 C   0  0  0  0  0  0  0  0  0  0  0  0
  -25.5557  -11.1816   19.6496 C   0  0  0  0  0  0  0  0  0  0  0  0
  -25.7477  -11.1302   22.0574 C   0  0  0  0  0  0  0  0  0  0  0  0
  -28.5179  -29.4084   19.8144 C   0  0  0  0  0  0  0  0  0  0  0  0
  -22.3830  -11.3927   21.8842 C   0  0  0  0  0  0  0  0  0  0  0  0
  -21.4099  -11.6711   22.8440 C   0  0  0  0  0  0  0  0  0  0  0  0
  -30.0335  -22.4650   19.0079 C   0  0  0  0  0  0  0  0  0  0  0  0
  -28.3876  -28.0942   21.8402 C   0  0  0  0  0  0  0  0  0  0  0  0
  -30.6480  -21.0468   16.6855 C   0  0  0  0  0  0  0  0  0  0  0  0
  -21.7890   -9.5099   23.8552 C   0  0  0  0  0  0  0  0  0  0  0  0
  -27.3047  -12.4343   20.7490 C   0  0  0  0  0  0  0  0  0  0  0  0
  -29.6614  -13.0762   20.0130 C   0  0  0  0  0  0  0  0  0  0  0  0
  -18.3605  -27.8773   21.5150 C   0  0  0  0  0  0  0  0  0  0  0  0
  -26.3813  -29.0814   20.8989 C   0  0  0  0  0  0  0  0  0  0  0  0
  -19.3871  -28.8336   21.6325 C   0  0  0  0  0  0  0  0  0  0  0  0
  -31.1317  -22.8379   18.2331 C   0  0  0  0  0  0  0  0  0  0  0  0
  -27.0078  -28.3093   21.8910 C   0  0  0  0  0  0  0  0  0  0  0  0
  -29.2425  -21.3830   18.6216 C   0  0  0  0  0  0  0  0  0  0  0  0
  -29.5497  -20.6739   17.4603 C   0  0  0  0  0  0  0  0  0  0  0  0
  -25.1007  -10.7297   20.8883 C   0  0  0  0  0  0  0  0  0  0  0  0
  -29.1388  -28.6392   20.7988 C   0  0  0  0  0  0  0  0  0  0  0  0
  -23.0590  -10.1728   21.9098 C   0  0  0  0  0  0  0  0  0  0  0  0
  -31.4390  -22.1288   17.0719 C   0  0  0  0  0  0  0  0  0  0  0  0
  -21.1130  -10.7298   23.8295 C   0  0  0  0  0  0  0  0  0  0  0  0
  -22.7620   -9.2315   22.8953 C   0  0  0  0  0  0  0  0  0  0  0  0
  -28.4434  -13.3143   20.6776 C   0  0  0  0  0  0  0  0  0  0  0  0
  -30.4053  -14.2075   20.2438 C   0  0  0  0  0  0  0  0  0  0  0  0
  -30.0826  -11.9346   19.2547 C   0  0  0  0  0  0  0  0  0  0  0  0
  -22.9881  -28.6494   22.4400 C   0  0  0  0  0  0  0  0  0  0  0  0
  -24.4140  -25.9415   22.6513 C   0  0  0  0  0  0  0  0  0  0  0  0
  -25.2140  -22.6305   22.8365 C   0  0  0  0  0  0  0  0  0  0  0  0
  -28.9287  -19.8713   21.5059 C   0  0  0  0  0  0  0  0  0  0  0  0
  -18.2757  -26.6870   22.4374 C   0  0  0  0  0  0  0  0  0  0  0  0
  -24.9071  -29.3522   21.0293 C   0  0  0  0  0  0  0  0  0  0  0  0
  -26.1543  -27.7605   23.0016 C   0  0  0  0  0  0  0  0  0  0  0  0
  -19.5822  -26.3886   23.1684 C   0  0  0  0  0  0  0  0  0  0  0  0
  -30.9929  -17.7140   23.4454 C   0  0  0  0  0  0  0  0  0  0  0  0
  -20.1748  -27.6696   23.7468 C   0  0  0  0  0  0  0  0  0  0  0  0
  -30.6835  -16.3203   22.8960 C   0  0  0  0  0  0  0  0  0  0  0  0
  -32.6166  -23.8563   20.0427 C   0  0  0  0  0  0  0  0  0  0  0  0
  -29.7499  -18.6007   23.4675 C   0  0  0  0  0  0  0  0  0  0  0  0
  -28.7326  -17.3134   21.6285 C   0  0  0  0  0  0  0  0  0  0  0  0
  -33.0664  -25.2681   20.3553 C   0  0  0  0  0  0  0  0  0  0  0  0
  -31.2095  -25.3338   18.7629 C   0  0  0  0  0  0  0  0  0  0  0  0
  -31.9753  -24.0121   18.6654 C   0  0  2  0  0  0  0  0  0  0  0  0
  -20.5079  -28.6738   22.6368 C   0  0  1  0  0  0  0  0  0  0  0  0
  -24.1206  -28.1536   21.5897 C   0  0  1  0  0  0  0  0  0  0  0  0
  -29.9672  -16.4006   21.5345 C   0  0  2  0  0  0  0  0  0  0  0  0
  -28.7181  -19.5110   17.0285 C   0  0  0  0  0  0  0  0  0  0  0  0
  -24.7107  -20.5530   24.1511 C   0  0  0  0  0  0  0  0  0  0  0  0
  -26.1551  -26.9693   24.9351 C   0  0  0  0  0  0  0  0  0  0  0  0
  -26.3974  -24.6044   25.7204 C   0  0  0  0  0  0  0  0  0  0  0  0
  -24.1436  -25.6716   25.6590 C   0  0  0  0  0  0  0  0  0  0  0  0
  -24.1676  -21.2323   20.4471 C   0  0  0  0  0  0  0  0  0  0  0  0
  -32.7496  -21.7002   15.1342 C   0  0  0  0  0  0  0  0  0  0  0  0
  -28.0731  -21.0013   19.4687 C   0  0  0  0  0  0  0  0  0  0  0  0
  -32.3099  -27.5029   19.4729 C   0  0  0  0  0  0  0  0  0  0  0  0
  -31.0758  -28.3827   19.4423 C   0  0  0  0  0  0  0  0  0  1  0  0
  -25.2675  -25.0233   23.4891 C   0  0  1  0  0  0  0  0  0  0  0  0
  -24.3467  -21.3883   22.9335 C   0  0  2  0  0  0  0  0  0  0  0  0
  -25.4984  -25.5745   24.9244 C   0  0  0  0  0  0  0  0  0  0  0  0
  -28.4114  -14.5033   21.2852 N   0  0  0  0  0  0  0  0  0  0  0  0
  -29.6185  -15.0225   21.0034 N   0  0  0  0  0  0  0  0  0  0  0  0
  -24.8899  -27.2436   22.4551 N   0  0  0  0  0  0  0  0  0  0  0  0
  -29.1188  -18.6355   22.1459 N   0  0  0  0  0  0  0  0  0  0  0  0
  -31.6492  -14.5747   19.8692 N   0  0  0  0  0  0  0  0  0  0  0  0
  -30.7375  -10.8922   19.9246 N   0  0  0  0  0  0  0  0  0  0  0  0
  -21.7366  -28.3004   21.9695 N   0  0  0  0  0  0  0  0  0  0  0  0
  -24.6222  -23.7155   23.4478 N   0  0  0  0  0  0  0  0  0  0  0  0
  -28.3294  -19.8142   20.2536 N   0  0  0  0  0  0  0  0  0  0  0  0
  -31.9162  -26.1140   19.8595 N   0  3  2  0  0  0  0  0  0  0  0  0
  -24.5138  -20.5437   21.7171 N   0  3  0  0  0  0  0  0  0  0  0  0
  -29.8987  -11.8490   18.0168 O   0  0  0  0  0  0  0  0  0  0  0  0
  -23.2306  -29.2996   23.4500 O   0  0  0  0  0  0  0  0  0  0  0  0
  -23.3509  -25.5201   22.1870 O   0  0  0  0  0  0  0  0  0  0  0  0
  -26.3087  -22.6366   22.2778 O   0  0  0  0  0  0  0  0  0  0  0  0
  -29.2729  -20.9454   22.0106 O   0  0  0  0  0  0  0  0  0  0  0  0
  -24.0253   -9.8982   20.9567 O   0  0  0  0  0  0  0  0  0  0  0  0
  -32.5085  -22.4794   16.3041 O   0  0  0  0  0  0  0  0  0  0  0  0
  -30.4810  -28.4163   20.7391 O   0  0  0  0  0  0  0  0  0  1  0  0
  -20.1796  -10.9979   24.7521 F   0  0  0  0  0  0  0  0  0  0  0  0
  -23.4090   -8.0583   22.9258 F   0  0  0  0  0  0  0  0  0  0  0  0
  1  2  1  0  0  0  0
  1  5  2  0  0  0  0
  2  6  2  0  0  0  0
  3  8  2  0  0  0  0
  3 17  1  0  0  0  0
  4  9  1  0  0  0  0
  4 17  2  0  0  0  0
  5 19  1  0  0  0  0
  6 21  1  0  0  0  0
  7 10  2  0  0  0  0
  7 20  1  0  0  0  0
  8 26  1  0  0  0  0
  9 26  2  0  0  0  0
 10 27  1  0  0  0  0
 11 12  2  0  0  0  0
 11 28  1  0  0  0  0
 12 30  1  0  0  0  0
 13 22  1  0  0  0  0
 13 24  2  0  0  0  0
 14 23  1  0  0  0  0
 14 27  2  0  0  0  0
 15 25  2  0  0  0  0
 15 29  1  0  0  0  0
 16 30  2  0  0  0  0
 16 31  1  0  0  0  0
 17 32  1  0  0  0  0
 18 32  1  0  0  0  0
 18 33  2  0  0  0  0
 18 34  1  0  0  0  0
 19 21  2  0  0  0  0
 19 39  1  0  0  0  0
 20 23  2  0  0  0  0
 20 40  1  0  0  0  0
 21 52  1  0  0  0  0
 22 29  2  0  0  0  0
 22 51  1  0  0  0  0
 23 41  1  0  0  0  0
 24 25  1  0  0  0  0
 24 62  1  0  0  0  0
 25 55  1  0  0  0  0
 26 84  1  0  0  0  0
 27 86  1  0  0  0  0
 28 31  2  0  0  0  0
 28 84  1  0  0  0  0
 29 85  1  0  0  0  0
 30 87  1  0  0  0  0
 31 88  1  0  0  0  0
 32 68  2  0  0  0  0
 33 69  1  0  0  0  0
 33 72  1  0  0  0  0
 34 73  1  0  0  0  0
 34 79  2  0  0  0  0
 35 53  1  0  0  0  0
 35 74  1  0  0  0  0
 35 80  2  0  0  0  0
 36 65  1  0  0  0  0
 36 70  1  0  0  0  0
 36 81  2  0  0  0  0
 37 66  1  0  0  0  0
 37 75  1  0  0  0  0
 37 82  2  0  0  0  0
 38 71  1  0  0  0  0
 38 76  1  0  0  0  0
 38 83  2  0  0  0  0
 39 42  1  0  0  0  0
 40 53  1  0  0  0  0
 41 70  1  0  0  0  0
 42 44  1  0  0  0  0
 43 45  1  0  0  0  0
 43 47  1  0  0  0  0
 44 52  1  0  0  0  0
 45 54  1  0  0  0  0
 46 49  1  0  0  0  0
 46 51  1  0  0  0  0
 47 71  1  0  0  0  0
 48 54  1  0  0  0  0
 48 71  1  0  0  0  0
 49 77  1  0  0  0  0
 50 51  1  0  0  0  0
 50 77  1  0  0  0  0
 52 74  1  0  0  0  0
 53 70  1  0  0  0  0
 54 69  1  0  0  0  0
 56 66  1  0  0  0  0
 57 67  1  0  0  0  0
 58 67  1  0  0  0  0
 59 67  1  0  0  0  0
 60 78  1  0  0  0  0
 61 85  1  0  0  0  0
 62 76  1  0  0  0  0
 63 64  1  0  0  0  0
 63 77  1  0  0  0  0
 64 86  1  0  0  0  0
 65 67  1  0  0  0  0
 65 75  1  0  0  0  0
 66 78  1  0  0  0  0
 68 69  1  0  0  0  0
M  CHG  2  77   1  78   1
M  ISO  4  38 100  64 101  76 100  86 101
M  END
> <Batch ID>
0157

> <Smiles>
CNC(C)C(=O)NC(C(=O)N1Cc2cc([101O:1][101CH2:1]CN3CCC(c4cc(C[100NH:0][100C:0](=O)N5CCCC(n6nc(-c7ccc(Oc8ccc(F)cc8F)cc7)c(C(N)=O)c6N)C5)c(C)cc4OC)C3)ccc2CC1C(=O)NC1CCCc2ccccc21)C(C)(C)C

> <Shape>
0.259

> <Color>
0.059

> <Negative vol penalty>
0.000

$$$$

  -OEChem-04052321593D

 87 96  0     1  0  0  0  0  0999 V2000
  -29.2692  -31.6473   26.1112 C   0  0  0  0  0  0  0  0  0  0  0  0
  -29.0225  -30.4886   25.3818 C   0  0  0  0  0  0  0  0  0  0  0  0
  -23.0703  -10.2392   22.2047 C   0  0  0  0  0  0  0  0  0  0  0  0
  -23.7885   -9.6729   19.9685 C   0  0  0  0  0  0  0  0  0  0  0  0
  -28.2053  -32.4420   26.5359 C   0  0  0  0  0  0  0  0  0  0  0  0
  -27.7116  -30.1234   25.0776 C   0  0  0  0  0  0  0  0  0  0  0  0
  -27.1738  -28.6461   20.2638 C   0  0  0  0  0  0  0  0  0  0  0  0
  -22.3678   -9.0368   22.2837 C   0  0  0  0  0  0  0  0  0  0  0  0
  -23.0860   -8.4704   20.0475 C   0  0  0  0  0  0  0  0  0  0  0  0
  -27.5997  -27.3582   19.9416 C   0  0  0  0  0  0  0  0  0  0  0  0
  -23.0653   -5.7769   22.8492 C   0  0  0  0  0  0  0  0  0  0  0  0
  -23.1894   -5.0294   24.0202 C   0  0  0  0  0  0  0  0  0  0  0  0
  -25.3175  -26.5838   20.0467 C   0  0  0  0  0  0  0  0  0  0  0  0
  -27.1950  -22.4975   17.8147 C   0  0  0  0  0  0  0  0  0  0  0  0
  -26.8771  -21.7764   20.0985 C   0  0  0  0  0  0  0  0  0  0  0  0
  -20.8071   -5.2027   24.3832 C   0  0  0  0  0  0  0  0  0  0  0  0
  -23.7806  -10.5573   21.0471 C   0  0  0  0  0  0  0  0  0  0  0  0
  -25.8444  -12.0287   21.3363 C   0  0  0  0  0  0  0  0  0  0  0  0
  -26.8812  -32.0915   26.2285 C   0  0  0  0  0  0  0  0  0  0  0  0
  -25.8155  -28.9106   20.4909 C   0  0  0  0  0  0  0  0  0  0  0  0
  -26.6289  -30.9135   25.4997 C   0  0  0  0  0  0  0  0  0  0  0  0
  -24.8766  -27.8764   20.3691 C   0  0  0  0  0  0  0  0  0  0  0  0
  -27.9452  -20.3072   18.5055 C   0  0  0  0  0  0  0  0  0  0  0  0
  -26.7330  -22.7468   19.1070 C   0  0  0  0  0  0  0  0  0  0  0  0
  -27.8010  -21.2776   17.5139 C   0  0  0  0  0  0  0  0  0  0  0  0
  -27.4832  -20.5566   19.7978 C   0  0  0  0  0  0  0  0  0  0  0  0
  -22.3757   -8.1523   21.2051 C   0  0  0  0  0  0  0  0  0  0  0  0
  -26.6718  -26.3262   19.8358 C   0  0  0  0  0  0  0  0  0  0  0  0
  -21.8122   -6.2374   22.4451 C   0  0  0  0  0  0  0  0  0  0  0  0
  -22.0603   -4.7422   24.7872 C   0  0  0  0  0  0  0  0  0  0  0  0
  -20.6830   -5.9503   23.2121 C   0  0  0  0  0  0  0  0  0  0  0  0
  -24.5060  -11.7995   20.9648 C   0  0  0  0  0  0  0  0  0  0  0  0
  -26.0529  -13.3589   21.0655 C   0  0  0  0  0  0  0  0  0  0  0  0
  -26.8125  -11.1202   21.8778 C   0  0  0  0  0  0  0  0  0  0  0  0
  -24.1161  -29.9480   22.9687 C   0  0  0  0  0  0  0  0  0  0  0  0
  -21.6966  -29.9556   20.8079 C   0  0  0  0  0  0  0  0  0  0  0  0
  -20.4121  -28.7322   17.8925 C   0  0  0  0  0  0  0  0  0  0  0  0
  -25.5111  -17.7858   17.7107 C   0  0  0  0  0  0  0  0  0  0  0  0
  -25.7614  -32.9570   26.7497 C   0  0  0  0  0  0  0  0  0  0  0  0
  -25.3691  -30.3108   20.8113 C   0  0  0  0  0  0  0  0  0  0  0  0
  -23.4046  -28.1123   20.5832 C   0  0  0  0  0  0  0  0  0  0  0  0
  -24.4221  -32.6985   26.0643 C   0  0  0  0  0  0  0  0  0  0  0  0
  -22.7824  -17.0272   19.8682 C   0  0  0  0  0  0  0  0  0  0  0  0
  -30.0657  -19.1077   17.6955 C   0  0  0  0  0  0  0  0  0  0  0  0
  -24.1507  -31.2004   25.9707 C   0  0  0  0  0  0  0  0  0  0  0  0
  -30.1080  -18.4649   16.3115 C   0  0  0  0  0  0  0  0  0  0  0  0
  -23.0948  -15.6168   20.3712 C   0  0  0  0  0  0  0  0  0  0  0  0
  -23.2054  -17.2141   18.4128 C   0  0  0  0  0  0  0  0  0  0  0  0
  -24.9237  -15.4609   18.6306 C   0  0  0  0  0  0  0  0  0  0  0  0
  -28.6031  -18.9842   18.1791 C   0  0  2  0  0  0  0  0  0  0  0  0
  -25.2221  -30.4971   25.1288 C   0  0  1  0  0  0  0  0  0  0  0  0
  -24.0225  -30.3597   21.5266 C   0  0  1  0  0  0  0  0  0  0  0  0
  -28.9810  -17.4356   16.3509 C   0  0  1  0  0  0  0  0  0  0  0  0
  -24.5661  -15.2417   20.1105 C   0  0  2  0  0  0  0  0  0  0  0  0
  -27.8684  -18.2121   17.0621 C   0  0  1  0  0  0  0  0  0  0  0  0
  -28.2882  -21.0360   16.1226 C   0  0  0  0  0  0  0  0  0  0  0  0
  -27.6256  -19.5340   20.8776 C   0  0  0  0  0  0  0  0  0  0  0  0
  -18.3991  -28.8992   16.4034 C   0  0  0  0  0  0  0  0  0  0  0  0
  -20.1068  -28.2421   22.7692 C   0  0  0  0  0  0  0  0  0  0  0  0
  -18.5528  -27.6615   20.8941 C   0  0  0  0  0  0  0  0  0  0  0  0
  -18.7797  -30.0327   21.6347 C   0  0  0  0  0  0  0  0  0  0  0  0
  -22.0316  -29.7147   15.6184 C   0  0  0  0  0  0  0  0  0  0  0  0
  -26.0804  -24.0587   19.4303 C   0  0  0  0  0  0  0  0  0  1  0  0
  -28.5913  -16.9370   14.9683 C   0  0  0  0  0  0  0  0  0  0  0  0
  -20.6687  -28.9492   20.3504 C   0  0  1  0  0  0  0  0  0  0  0  0
  -19.7950  -29.4286   16.6930 C   0  0  2  0  0  0  0  0  0  0  0  0
  -19.5549  -28.7162   21.4099 C   0  0  0  0  0  0  0  0  0  0  0  0
  -23.9065  -12.8964   20.4940 N   0  0  0  0  0  0  0  0  0  0  0  0
  -24.8727  -13.8276   20.5679 N   0  0  0  0  0  0  0  0  0  0  0  0
  -23.0184  -29.4971   20.9006 N   0  0  0  0  0  0  0  0  0  0  0  0
  -24.6110  -16.8427   18.2335 N   0  0  0  0  0  0  0  0  0  0  0  0
  -27.1289  -14.1619   21.2069 N   0  0  0  0  0  0  0  0  0  0  0  0
  -26.4319   -9.7887   22.0935 N   0  0  0  0  0  0  0  0  0  0  0  0
  -24.9832  -30.7192   23.7188 N   0  0  0  0  0  0  0  0  0  0  0  0
  -20.1774  -29.4245   19.0616 N   0  0  0  0  0  0  0  0  0  0  0  0
  -26.8254  -17.3544   17.5791 N   0  0  0  0  0  0  0  0  0  0  0  0
  -20.6378  -29.2188   15.4820 N   0  3  0  0  0  0  0  0  0  0  0  0
  -27.9755  -11.4825   22.1771 O   0  0  0  0  0  0  0  0  0  0  0  0
  -23.4496  -29.0018   23.3713 O   0  0  0  0  0  0  0  0  0  0  0  0
  -21.3412  -31.1082   21.0665 O   0  0  0  0  0  0  0  0  0  0  0  0
  -21.0365  -27.6775   17.8018 O   0  0  0  0  0  0  0  0  0  0  0  0
  -25.1699  -18.9294   17.3901 O   0  0  0  0  0  0  0  0  0  0  0  0
  -29.7257  -16.3413   14.3621 O   0  0  0  0  0  0  0  0  0  0  0  0
  -21.6905   -6.9788   21.2819 O   0  0  0  0  0  0  0  0  0  0  0  0
  -27.0849  -25.0681   19.5222 O   0  0  0  0  0  0  0  0  0  1  0  0
  -22.1793   -4.0230   25.9109 F   0  0  0  0  0  0  0  0  0  0  0  0
  -19.4763   -6.3889   22.8285 F   0  0  0  0  0  0  0  0  0  0  0  0
  1  2  1  0  0  0  0
  1  5  2  0  0  0  0
  2  6  2  0  0  0  0
  3  8  2  0  0  0  0
  3 17  1  0  0  0  0
  4  9  1  0  0  0  0
  4 17  2  0  0  0  0
  5 19  1  0  0  0  0
  6 21  1  0  0  0  0
  7 10  2  0  0  0  0
  7 20  1  0  0  0  0
  8 27  1  0  0  0  0
  9 27  2  0  0  0  0
 10 28  1  0  0  0  0
 11 12  2  0  0  0  0
 11 29  1  0  0  0  0
 12 30  1  0  0  0  0
 13 22  1  0  0  0  0
 13 28  2  0  0  0  0
 14 24  1  0  0  0  0
 14 25  2  0  0  0  0
 15 24  2  0  0  0  0
 15 26  1  0  0  0  0
 16 30  2  0  0  0  0
 16 31  1  0  0  0  0
 17 32  1  0  0  0  0
 18 32  1  0  0  0  0
 18 33  2  0  0  0  0
 18 34  1  0  0  0  0
 19 21  2  0  0  0  0
 19 39  1  0  0  0  0
 20 22  2  0  0  0  0
 20 40  1  0  0  0  0
 21 51  1  0  0  0  0
 22 41  1  0  0  0  0
 23 25  1  0  0  0  0
 23 26  2  0  0  0  0
 23 50  1  0  0  0  0
 24 63  1  0  0  0  0
 25 56  1  0  0  0  0
 26 57  1  0  0  0  0
 27 84  1  0  0  0  0
 28 85  1  0  0  0  0
 29 31  2  0  0  0  0
 29 84  1  0  0  0  0
 30 86  1  0  0  0  0
 31 87  1  0  0  0  0
 32 68  2  0  0  0  0
 33 69  1  0  0  0  0
 33 72  1  0  0  0  0
 34 73  1  0  0  0  0
 34 78  2  0  0  0  0
 35 52  1  0  0  0  0
 35 74  1  0  0  0  0
 35 79  2  0  0  0  0
 36 65  1  0  0  0  0
 36 70  1  0  0  0  0
 36 80  2  0  0  0  0
 37 66  1  0  0  0  0
 37 75  1  0  0  0  0
 37 81  2  0  0  0  0
 38 71  1  0  0  0  0
 38 76  1  0  0  0  0
 38 82  2  0  0  0  0
 39 42  1  0  0  0  0
 40 52  1  0  0  0  0
 41 70  1  0  0  0  0
 42 45  1  0  0  0  0
 43 47  1  0  0  0  0
 43 48  1  0  0  0  0
 44 46  1  0  0  0  0
 44 50  1  0  0  0  0
 45 51  1  0  0  0  0
 46 53  1  0  0  0  0
 47 54  1  0  0  0  0
 48 71  1  0  0  0  0
 49 54  1  0  0  0  0
 49 71  1  0  0  0  0
 50 55  1  0  0  0  0
 51 74  1  0  0  0  0
 52 70  1  0  0  0  0
 53 55  1  0  0  0  0
 53 64  1  0  0  0  0
 54 69  1  0  0  0  0
 55 76  1  0  0  0  0
 58 66  1  0  0  0  0
 59 67  1  0  0  0  0
 60 67  1  0  0  0  0
 61 67  1  0  0  0  0
 62 77  1  0  0  0  0
 63 85  1  0  0  0  0
 64 83  1  0  0  0  0
 65 67  1  0  0  0  0
 65 75  1  0  0  0  0
 66 77  1  0  0  0  0
 68 69  1  0  0  0  0
M  CHG  1  77   1
M  ISO  4  38 100  63 101  76 100  85 101
M  END
> <Batch ID>
0157

> <Smiles>
CNC(C)C(=O)NC(C(=O)N1Cc2cc([101O:1][101CH2:1]c3cc(C)c(C4CCC(CO)C4[100NH:0][100C:0](=O)N4CCCC(n5nc(-c6ccc(Oc7ccc(F)cc7F)cc6)c(C(N)=O)c5N)C4)c(C)c3)ccc2CC1C(=O)NC1CCCc2ccccc21)C(C)(C)C

> <Shape>
0.277

> <Color>
0.111

> <Negative vol penalty>
0.000

$$$$

  -OEChem-04052321593D

 86 95  0     1  0  0  0  0  0999 V2000
  -16.8262  -28.6233   24.2983 C   0  0  0  0  0  0  0  0  0  0  0  0
  -17.8795  -27.7238   24.4279 C   0  0  0  0  0  0  0  0  0  0  0  0
  -22.9862  -10.0110   19.9594 C   0  0  0  0  0  0  0  0  0  0  0  0
  -23.8044   -9.9341   22.2313 C   0  0  0  0  0  0  0  0  0  0  0  0
  -16.8577  -29.5923   23.2963 C   0  0  0  0  0  0  0  0  0  0  0  0
  -18.9646  -27.7921   23.5548 C   0  0  0  0  0  0  0  0  0  0  0  0
  -24.8262  -26.5979   24.8667 C   0  0  0  0  0  0  0  0  0  0  0  0
  -22.2149   -8.8737   20.1986 C   0  0  0  0  0  0  0  0  0  0  0  0
  -23.0330   -8.7969   22.4706 C   0  0  0  0  0  0  0  0  0  0  0  0
  -25.6207  -25.4694   24.6685 C   0  0  0  0  0  0  0  0  0  0  0  0
  -19.7990   -8.0775   23.1369 C   0  0  0  0  0  0  0  0  0  0  0  0
  -19.0713   -8.0282   24.3259 C   0  0  0  0  0  0  0  0  0  0  0  0
  -30.8686  -21.7697   22.0420 C   0  0  0  0  0  0  0  0  0  0  0  0
  -26.4635  -26.4295   22.6223 C   0  0  0  0  0  0  0  0  0  0  0  0
  -20.2728   -6.0363   24.9785 C   0  0  0  0  0  0  0  0  0  0  0  0
  -23.7810  -10.5412   20.9757 C   0  0  0  0  0  0  0  0  0  0  0  0
  -24.1948  -13.0576   20.9128 C   0  0  0  0  0  0  0  0  0  0  0  0
  -17.9483  -29.6787   22.4166 C   0  0  0  0  0  0  0  0  0  0  0  0
  -24.8363  -27.6476   23.9369 C   0  0  0  0  0  0  0  0  0  0  0  0
  -19.0102  -28.7623   22.5392 C   0  0  0  0  0  0  0  0  0  0  0  0
  -30.1859  -20.5444   21.9854 C   0  0  0  0  0  0  0  0  0  0  0  0
  -25.6702  -27.5713   22.8123 C   0  0  0  0  0  0  0  0  0  0  0  0
  -28.7804  -20.5368   22.0169 C   0  0  0  0  0  0  0  0  0  0  0  0
  -30.1673  -22.9733   22.1034 C   0  0  0  0  0  0  0  0  0  0  0  0
  -28.0861  -21.7555   22.0695 C   0  0  0  0  0  0  0  0  0  0  0  0
  -28.7761  -22.9663   22.1151 C   0  0  0  0  0  0  0  0  0  0  0  0
  -22.2383   -8.2667   21.4542 C   0  0  0  0  0  0  0  0  0  0  0  0
  -26.4373  -25.3838   23.5447 C   0  0  0  0  0  0  0  0  0  0  0  0
  -20.7635   -7.1062   22.8687 C   0  0  0  0  0  0  0  0  0  0  0  0
  -19.3083   -7.0076   25.2467 C   0  0  0  0  0  0  0  0  0  0  0  0
  -21.0004   -6.0856   23.7895 C   0  0  0  0  0  0  0  0  0  0  0  0
  -24.5784  -11.7157   20.7290 C   0  0  0  0  0  0  0  0  0  0  0  0
  -25.2992  -13.7845   20.5406 C   0  0  0  0  0  0  0  0  0  0  0  0
  -22.9514  -13.5988   21.3783 C   0  0  0  0  0  0  0  0  0  0  0  0
  -22.6645  -28.9845   22.0397 C   0  0  0  0  0  0  0  0  0  0  0  0
  -25.0603  -31.0837   21.4269 C   0  0  0  0  0  0  0  0  0  0  0  0
  -28.4138  -31.7130   21.3574 C   0  0  0  0  0  0  0  0  0  0  0  0
  -30.8139  -14.6378   20.6110 C   0  0  0  0  0  0  0  0  0  0  0  0
  -17.9157  -30.7129   21.3193 C   0  0  0  0  0  0  0  0  0  0  0  0
  -23.9936  -28.8698   24.1789 C   0  0  0  0  0  0  0  0  0  0  0  0
  -30.9875  -19.2644   21.9565 C   0  0  0  0  0  0  0  0  0  0  0  0
  -27.9939  -19.2545   21.9328 C   0  0  0  0  0  0  0  0  0  0  0  0
  -25.7327  -28.6800   21.7947 C   0  0  0  0  0  0  0  0  0  0  0  0
  -19.2763  -30.9569   20.6716 C   0  0  0  0  0  0  0  0  0  0  0  0
  -28.8285  -18.0080   22.2267 C   0  0  0  0  0  0  0  0  0  0  0  0
  -29.5451  -12.3526   18.1935 C   0  0  0  0  0  0  0  0  0  0  0  0
  -19.9603  -29.6316   20.3512 C   0  0  0  0  0  0  0  0  0  0  0  0
  -28.1110  -12.0893   18.6563 C   0  0  0  0  0  0  0  0  0  0  0  0
  -30.4988  -12.5142   19.3752 C   0  0  0  0  0  0  0  0  0  0  0  0
  -28.6558  -13.2628   20.8300 C   0  0  0  0  0  0  0  0  0  0  0  0
  -20.2163  -28.8203   21.6271 C   0  0  1  0  0  0  0  0  0  0  0  0
  -23.6964  -29.6526   22.9037 C   0  0  1  0  0  0  0  0  0  0  0  0
  -27.6470  -13.1484   19.6743 C   0  0  2  0  0  0  0  0  0  0  0  0
  -30.1919  -18.0173   21.5064 C   0  0  1  0  0  0  0  0  0  0  0  0
  -30.9338  -24.2544   22.1551 C   0  0  0  0  0  0  0  0  0  0  0  0
  -26.5873  -21.7764   22.0887 C   0  0  0  0  0  0  0  0  0  0  0  0
  -30.0166  -18.0105   19.9751 C   0  0  0  0  0  0  0  0  0  0  0  0
  -30.0700  -33.5063   20.7754 C   0  0  0  0  0  0  0  0  0  0  0  0
  -24.6356  -30.5099   18.4603 C   0  0  0  0  0  0  0  0  0  0  0  0
  -26.8685  -31.5493   18.0109 C   0  0  0  0  0  0  0  0  0  0  0  0
  -25.0368  -32.9163   19.0104 C   0  0  0  0  0  0  0  0  0  0  0  0
  -29.4500  -31.8169   24.1277 C   0  0  0  0  0  0  0  0  0  0  0  0
  -28.0258  -24.2594   22.1779 C   0  0  0  0  0  0  0  0  0  1  0  0
  -30.9755  -16.7515   21.9015 C   0  0  0  0  0  0  0  0  0  0  0  0
  -26.1839  -31.1599   20.4215 C   0  0  1  0  0  0  0  0  0  0  0  0
  -29.2305  -32.8816   21.8789 C   0  0  2  0  0  0  0  0  0  0  0  0
  -25.6788  -31.5120   18.9938 C   0  0  0  0  0  0  0  0  0  0  0  0
  -25.8288  -11.5943   20.2752 N   0  0  0  0  0  0  0  0  0  0  0  0
  -26.2404  -12.8693   20.1706 N   0  0  0  0  0  0  0  0  0  0  0  0
  -24.8854  -29.8515   22.0725 N   0  0  0  0  0  0  0  0  0  0  0  0
  -30.0020  -13.5341   20.3019 N   0  0  0  0  0  0  0  0  0  0  0  0
  -25.5473  -15.1107   20.4968 N   0  0  0  0  0  0  0  0  0  0  0  0
  -21.9218  -12.7108   21.7183 N   0  0  0  0  0  0  0  0  0  0  0  0
  -21.3637  -29.3436   22.3371 N   0  0  0  0  0  0  0  0  0  0  0  0
  -27.1527  -32.1068   20.9630 N   0  0  0  0  0  0  0  0  0  0  0  0
  -30.2645  -15.5608   21.4925 N   0  0  0  0  0  0  0  0  0  0  0  0
  -30.1442  -32.4306   22.9664 N   0  3  0  0  0  0  0  0  0  0  0  0
  -22.7535  -14.8338   21.4740 O   0  0  0  0  0  0  0  0  0  0  0  0
  -23.0221  -28.2023   21.1667 O   0  0  0  0  0  0  0  0  0  0  0  0
  -24.3681  -32.0829   21.6370 O   0  0  0  0  0  0  0  0  0  0  0  0
  -28.8523  -30.5662   21.3017 O   0  0  0  0  0  0  0  0  0  0  0  0
  -31.9427  -14.7923   20.1323 O   0  0  0  0  0  0  0  0  0  0  0  0
  -21.4856   -7.1570   21.6881 O   0  0  0  0  0  0  0  0  0  0  0  0
  -27.2190  -24.2751   23.3471 O   0  0  0  0  0  0  0  0  0  1  0  0
  -18.6105   -6.9613   26.3892 F   0  0  0  0  0  0  0  0  0  0  0  0
  -21.9266   -5.1504   23.5379 F   0  0  0  0  0  0  0  0  0  0  0  0
  1  2  1  0  0  0  0
  1  5  2  0  0  0  0
  2  6  2  0  0  0  0
  3  8  2  0  0  0  0
  3 16  1  0  0  0  0
  4  9  1  0  0  0  0
  4 16  2  0  0  0  0
  5 18  1  0  0  0  0
  6 20  1  0  0  0  0
  7 10  2  0  0  0  0
  7 19  1  0  0  0  0
  8 27  1  0  0  0  0
  9 27  2  0  0  0  0
 10 28  1  0  0  0  0
 11 12  2  0  0  0  0
 11 29  1  0  0  0  0
 12 30  1  0  0  0  0
 13 21  1  0  0  0  0
 13 24  2  0  0  0  0
 14 22  1  0  0  0  0
 14 28  2  0  0  0  0
 15 30  2  0  0  0  0
 15 31  1  0  0  0  0
 16 32  1  0  0  0  0
 17 32  1  0  0  0  0
 17 33  2  0  0  0  0
 17 34  1  0  0  0  0
 18 20  2  0  0  0  0
 18 39  1  0  0  0  0
 19 22  2  0  0  0  0
 19 40  1  0  0  0  0
 20 51  1  0  0  0  0
 21 23  2  0  0  0  0
 21 41  1  0  0  0  0
 22 43  1  0  0  0  0
 23 25  1  0  0  0  0
 23 42  1  0  0  0  0
 24 26  1  0  0  0  0
 24 55  1  0  0  0  0
 25 26  2  0  0  0  0
 25 56  1  0  0  0  0
 26 63  1  0  0  0  0
 27 83  1  0  0  0  0
 28 84  1  0  0  0  0
 29 31  2  0  0  0  0
 29 83  1  0  0  0  0
 30 85  1  0  0  0  0
 31 86  1  0  0  0  0
 32 68  2  0  0  0  0
 33 69  1  0  0  0  0
 33 72  1  0  0  0  0
 34 73  1  0  0  0  0
 34 78  2  0  0  0  0
 35 52  1  0  0  0  0
 35 74  1  0  0  0  0
 35 79  2  0  0  0  0
 36 65  1  0  0  0  0
 36 70  1  0  0  0  0
 36 80  2  0  0  0  0
 37 66  1  0  0  0  0
 37 75  1  0  0  0  0
 37 81  2  0  0  0  0
 38 71  1  0  0  0  0
 38 76  1  0  0  0  0
 38 82  2  0  0  0  0
 39 44  1  0  0  0  0
 40 52  1  0  0  0  0
 41 54  1  0  0  0  0
 42 45  1  0  0  0  0
 43 70  1  0  0  0  0
 44 47  1  0  0  0  0
 45 54  1  0  0  0  0
 46 48  1  0  0  0  0
 46 49  1  0  0  0  0
 47 51  1  0  0  0  0
 48 53  1  0  0  0  0
 49 71  1  0  0  0  0
 50 53  1  0  0  0  0
 50 71  1  0  0  0  0
 51 74  1  0  0  0  0
 52 70  1  0  0  0  0
 53 69  1  0  0  0  0
 54 57  1  0  0  0  0
 54 64  1  0  0  0  0
 58 66  1  0  0  0  0
 59 67  1  0  0  0  0
 60 67  1  0  0  0  0
 61 67  1  0  0  0  0
 62 77  1  0  0  0  0
 63 84  1  0  0  0  0
 64 76  1  0  0  0  0
 65 67  1  0  0  0  0
 65 75  1  0  0  0  0
 66 77  1  0  0  0  0
 68 69  1  0  0  0  0
M  CHG  1  77   1
M  ISO  4  38 100  63 101  76 100  84 101
M  END
> <Batch ID>
0157

> <Smiles>
CNC(C)C(=O)NC(C(=O)N1Cc2cc([101O:1][101CH2:1]c3c(C)cc4c(c3C)CCC(C)(C[100NH:0][100C:0](=O)N3CCCC(n5nc(-c6ccc(Oc7ccc(F)cc7F)cc6)c(C(N)=O)c5N)C3)C4)ccc2CC1C(=O)NC1CCCc2ccccc21)C(C)(C)C

> <Shape>
0.306

> <Color>
0.236

> <Negative vol penalty>
0.000

$$$$

  -OEChem-04052321593D

 85 94  0     1  0  0  0  0  0999 V2000
  -22.7118  -16.7574   25.9656 C   0  0  0  0  0  0  0  0  0  0  0  0
  -23.9585  -17.3636   25.8481 C   0  0  0  0  0  0  0  0  0  0  0  0
  -22.6898  -10.2029   20.1457 C   0  0  0  0  0  0  0  0  0  0  0  0
  -24.2969   -9.4230   21.7723 C   0  0  0  0  0  0  0  0  0  0  0  0
  -21.5526  -17.5052   25.7633 C   0  0  0  0  0  0  0  0  0  0  0  0
  -24.0466  -18.7177   25.5272 C   0  0  0  0  0  0  0  0  0  0  0  0
  -27.4162  -21.1790   28.3965 C   0  0  0  0  0  0  0  0  0  0  0  0
  -21.9426   -9.0389   20.3258 C   0  0  0  0  0  0  0  0  0  0  0  0
  -23.5497   -8.2590   21.9525 C   0  0  0  0  0  0  0  0  0  0  0  0
  -28.7632  -21.0221   28.0730 C   0  0  0  0  0  0  0  0  0  0  0  0
  -20.7537   -7.3270   23.6061 C   0  0  0  0  0  0  0  0  0  0  0  0
  -20.5333   -6.8962   24.9143 C   0  0  0  0  0  0  0  0  0  0  0  0
  -31.5835  -19.9188   23.6744 C   0  0  0  0  0  0  0  0  0  0  0  0
  -28.7317  -23.1492   26.9357 C   0  0  0  0  0  0  0  0  0  0  0  0
  -32.2055  -19.2712   25.9362 C   0  0  0  0  0  0  0  0  0  0  0  0
  -21.6553   -4.8149   24.4178 C   0  0  0  0  0  0  0  0  0  0  0  0
  -23.8670  -10.3949   20.8689 C   0  0  0  0  0  0  0  0  0  0  0  0
  -24.2171  -12.9216   20.9024 C   0  0  0  0  0  0  0  0  0  0  0  0
  -21.6263  -18.8714   25.4492 C   0  0  0  0  0  0  0  0  0  0  0  0
  -26.7127  -22.3191   27.9819 C   0  0  0  0  0  0  0  0  0  0  0  0
  -22.8873  -19.4841   25.3192 C   0  0  0  0  0  0  0  0  0  0  0  0
  -31.2917  -18.5907   23.4128 C   0  0  0  0  0  0  0  0  0  0  0  0
  -27.3764  -23.3194   27.2574 C   0  0  0  0  0  0  0  0  0  0  0  0
  -31.4469  -17.6092   24.3994 C   0  0  0  0  0  0  0  0  0  0  0  0
  -32.0500  -20.2553   24.9469 C   0  0  0  0  0  0  0  0  0  0  0  0
  -22.3725   -8.0670   21.2292 C   0  0  0  0  0  0  0  0  0  0  0  0
  -29.4204  -22.0059   27.3400 C   0  0  0  0  0  0  0  0  0  0  0  0
  -21.4248   -6.5017   22.7037 C   0  0  0  0  0  0  0  0  0  0  0  0
  -31.8968  -17.9359   25.6675 C   0  0  0  0  0  0  0  0  0  0  0  0
  -20.9841   -5.6402   25.3202 C   0  0  0  0  0  0  0  0  0  0  0  0
  -21.8756   -5.2457   23.1096 C   0  0  0  0  0  0  0  0  0  0  0  0
  -24.6396  -11.5968   20.6828 C   0  0  0  0  0  0  0  0  0  0  0  0
  -25.3111  -13.6883   20.5835 C   0  0  0  0  0  0  0  0  0  0  0  0
  -22.9490  -13.4150   21.3545 C   0  0  0  0  0  0  0  0  0  0  0  0
  -24.2019  -22.8466   26.1056 C   0  0  0  0  0  0  0  0  0  0  0  0
  -24.5529  -25.8972   27.1511 C   0  0  0  0  0  0  0  0  0  0  0  0
  -26.6042  -28.2986   28.4443 C   0  0  0  0  0  0  0  0  0  0  0  0
  -30.7039  -14.7446   20.6842 C   0  0  0  0  0  0  0  0  0  0  0  0
  -20.3467  -19.6275   25.1930 C   0  0  0  0  0  0  0  0  0  0  0  0
  -25.2670  -22.4858   28.3619 C   0  0  0  0  0  0  0  0  0  0  0  0
  -30.7470  -17.9983   22.1497 C   0  0  0  0  0  0  0  0  0  0  0  0
  -31.0214  -16.2666   23.8900 C   0  0  0  0  0  0  0  0  0  0  0  0
  -26.6717  -24.5716   26.8060 C   0  0  0  0  0  0  0  0  0  0  0  0
  -20.5186  -21.1440   25.2245 C   0  0  0  0  0  0  0  0  0  0  0  0
  -29.6419  -12.4719   18.2898 C   0  0  0  0  0  0  0  0  0  0  0  0
  -21.7407  -21.5597   24.4118 C   0  0  0  0  0  0  0  0  0  0  0  0
  -28.2104  -12.1393   18.7083 C   0  0  0  0  0  0  0  0  0  0  0  0
  -30.5550  -12.5730   19.5059 C   0  0  0  0  0  0  0  0  0  0  0  0
  -28.6653  -13.2550   20.9499 C   0  0  0  0  0  0  0  0  0  0  0  0
  -23.0235  -20.9564   24.9968 C   0  0  1  0  0  0  0  0  0  0  0  0
  -24.5157  -23.4475   27.4465 C   0  0  1  0  0  0  0  0  0  0  0  0
  -27.6954  -13.1417   19.7559 C   0  0  2  0  0  0  0  0  0  0  0  0
  -31.0627  -16.5072   22.3701 C   0  0  1  0  0  0  0  0  0  0  0  0
  -26.6156  -30.7049   29.1563 C   0  0  0  0  0  0  0  0  0  0  0  0
  -24.6173  -26.7601   24.2252 C   0  0  0  0  0  0  0  0  0  0  0  0
  -25.5635  -28.9565   24.9661 C   0  0  0  0  0  0  0  0  0  0  0  0
  -23.2922  -28.2588   25.7259 C   0  0  0  0  0  0  0  0  0  0  0  0
  -28.8066  -15.5306   22.1632 C   0  0  0  0  0  0  0  0  0  0  0  0
  -27.3075  -27.5914   31.2307 C   0  0  0  0  0  0  0  0  0  0  0  0
  -32.5059  -17.4262   27.9091 C   0  0  0  0  0  0  0  0  0  0  0  0
  -32.3838  -21.6925   25.2653 C   0  0  0  0  0  0  0  0  0  0  0  0
  -31.1839  -22.4595   25.8102 C   0  0  0  0  0  0  0  0  0  1  0  0
  -25.3280  -27.1052   26.6832 C   0  0  1  0  0  0  0  0  0  0  0  0
  -26.4205  -29.2639   29.6014 C   0  0  2  0  0  0  0  0  0  0  0  0
  -24.7133  -27.7458   25.4068 C   0  0  0  0  0  0  0  0  0  0  0  0
  -25.9035  -11.5226   20.2570 N   0  0  0  0  0  0  0  0  0  0  0  0
  -26.2844  -12.8104   20.2065 N   0  0  0  0  0  0  0  0  0  0  0  0
  -25.2568  -24.6855   27.1968 N   0  0  0  0  0  0  0  0  0  0  0  0
  -30.0327  -13.5296   20.4822 N   0  0  0  0  0  0  0  0  0  0  0  0
  -25.5258  -15.0210   20.5914 N   0  0  0  0  0  0  0  0  0  0  0  0
  -22.7471  -13.5755   22.7321 N   0  0  0  0  0  0  0  0  0  0  0  0
  -23.4404  -21.6953   26.1693 N   0  0  0  0  0  0  0  0  0  0  0  0
  -25.4062  -28.0080   27.8265 N   0  0  0  0  0  0  0  0  0  0  0  0
  -30.1673  -15.6232   21.6375 N   0  0  0  0  0  0  0  0  0  0  0  0
  -27.4025  -28.9690   30.6829 N   0  3  0  0  0  0  0  0  0  0  0  0
  -22.0168  -13.6894   20.5613 O   0  0  0  0  0  0  0  0  0  0  0  0
  -24.6184  -23.3883   25.0883 O   0  0  0  0  0  0  0  0  0  0  0  0
  -23.3686  -26.0254   27.4714 O   0  0  0  0  0  0  0  0  0  0  0  0
  -27.7012  -27.8504   28.1185 O   0  0  0  0  0  0  0  0  0  0  0  0
  -31.7310  -15.0270   20.0537 O   0  0  0  0  0  0  0  0  0  0  0  0
  -21.6435   -6.9312   21.4055 O   0  0  0  0  0  0  0  0  0  0  0  0
  -32.0349  -16.9914   26.6326 O   0  0  0  0  0  0  0  0  0  0  0  0
  -30.7350  -21.8549   27.0224 O   0  0  0  0  0  0  0  0  0  1  0  0
  -20.7738   -5.2272   26.5769 F   0  0  0  0  0  0  0  0  0  0  0  0
  -22.5220   -4.4489   22.2475 F   0  0  0  0  0  0  0  0  0  0  0  0
  1  2  1  0  0  0  0
  1  5  2  0  0  0  0
  2  6  2  0  0  0  0
  3  8  2  0  0  0  0
  3 17  1  0  0  0  0
  4  9  1  0  0  0  0
  4 17  2  0  0  0  0
  5 19  1  0  0  0  0
  6 21  1  0  0  0  0
  7 10  2  0  0  0  0
  7 20  1  0  0  0  0
  8 26  1  0  0  0  0
  9 26  2  0  0  0  0
 10 27  1  0  0  0  0
 11 12  2  0  0  0  0
 11 28  1  0  0  0  0
 12 30  1  0  0  0  0
 13 22  2  0  0  0  0
 13 25  1  0  0  0  0
 14 23  1  0  0  0  0
 14 27  2  0  0  0  0
 15 25  2  0  0  0  0
 15 29  1  0  0  0  0
 16 30  2  0  0  0  0
 16 31  1  0  0  0  0
 17 32  1  0  0  0  0
 18 32  1  0  0  0  0
 18 33  2  0  0  0  0
 18 34  1  0  0  0  0
 19 21  2  0  0  0  0
 19 39  1  0  0  0  0
 20 23  2  0  0  0  0
 20 40  1  0  0  0  0
 21 50  1  0  0  0  0
 22 24  1  0  0  0  0
 22 41  1  0  0  0  0
 23 43  1  0  0  0  0
 24 29  2  0  0  0  0
 24 42  1  0  0  0  0
 25 61  1  0  0  0  0
 26 81  1  0  0  0  0
 27 83  1  0  0  0  0
 28 31  2  0  0  0  0
 28 81  1  0  0  0  0
 29 82  1  0  0  0  0
 30 84  1  0  0  0  0
 31 85  1  0  0  0  0
 32 66  2  0  0  0  0
 33 67  1  0  0  0  0
 33 70  1  0  0  0  0
 34 71  1  0  0  0  0
 34 76  2  0  0  0  0
 35 51  1  0  0  0  0
 35 72  1  0  0  0  0
 35 77  2  0  0  0  0
 36 63  1  0  0  0  0
 36 68  1  0  0  0  0
 36 78  2  0  0  0  0
 37 64  1  0  0  0  0
 37 73  1  0  0  0  0
 37 79  2  0  0  0  0
 38 69  1  0  0  0  0
 38 74  1  0  0  0  0
 38 80  2  0  0  0  0
 39 44  1  0  0  0  0
 40 51  1  0  0  0  0
 41 53  1  0  0  0  0
 42 53  1  0  0  0  0
 43 68  1  0  0  0  0
 44 46  1  0  0  0  0
 45 47  1  0  0  0  0
 45 48  1  0  0  0  0
 46 50  1  0  0  0  0
 47 52  1  0  0  0  0
 48 69  1  0  0  0  0
 49 52  1  0  0  0  0
 49 69  1  0  0  0  0
 50 72  1  0  0  0  0
 51 68  1  0  0  0  0
 52 67  1  0  0  0  0
 53 74  1  0  0  0  0
 54 64  1  0  0  0  0
 55 65  1  0  0  0  0
 56 65  1  0  0  0  0
 57 65  1  0  0  0  0
 58 74  1  0  0  0  0
 59 75  1  0  0  0  0
 60 82  1  0  0  0  0
 61 62  1  0  0  0  0
 62 83  1  0  0  0  0
 63 65  1  0  0  0  0
 63 73  1  0  0  0  0
 64 75  1  0  0  0  0
 66 67  1  0  0  0  0
M  CHG  1  75   1
M  ISO  4  38 100  62 101  74 100  83 101
M  END
> <Batch ID>
0157

> <Smiles>
CNC(C)C(=O)NC(C(=O)N1Cc2cc([101O:1][101CH2:1]Cc3cc4c(c(OC)c3)CC([100N:0](C)[100C:0](=O)N3CCCC(n5nc(-c6ccc(Oc7ccc(F)cc7F)cc6)c(C(N)=O)c5N)C3)C4)ccc2CC1C(=O)NC1CCCc2ccccc21)C(C)(C)C

> <Shape>
0.189

> <Color>
0.182

> <Negative vol penalty>
0.000

$$$$

  -OEChem-04052321593D

 87 96  0     1  0  0  0  0  0999 V2000
  -28.2961  -36.5515   18.7272 C   0  0  0  0  0  0  0  0  0  0  0  0
  -28.7670  -35.3161   18.2943 C   0  0  0  0  0  0  0  0  0  0  0  0
  -22.8960  -10.1807   19.9518 C   0  0  0  0  0  0  0  0  0  0  0  0
  -23.9752   -9.6037   22.0349 C   0  0  0  0  0  0  0  0  0  0  0  0
  -27.6181  -36.6512   19.9414 C   0  0  0  0  0  0  0  0  0  0  0  0
  -28.5612  -34.1798   19.0759 C   0  0  0  0  0  0  0  0  0  0  0  0
  -27.4101  -27.1338   18.4893 C   0  0  0  0  0  0  0  0  0  0  0  0
  -22.1161   -9.0273   20.0363 C   0  0  0  0  0  0  0  0  0  0  0  0
  -23.1953   -8.4503   22.1195 C   0  0  0  0  0  0  0  0  0  0  0  0
  -27.9080  -25.9184   18.9571 C   0  0  0  0  0  0  0  0  0  0  0  0
  -20.0387   -7.6400   23.0136 C   0  0  0  0  0  0  0  0  0  0  0  0
  -19.4564   -7.3422   24.2456 C   0  0  0  0  0  0  0  0  0  0  0  0
  -26.6542  -26.1975   20.9990 C   0  0  0  0  0  0  0  0  0  0  0  0
  -31.9472  -18.0842   20.7308 C   0  0  0  0  0  0  0  0  0  0  0  0
  -20.6508   -5.2428   24.3025 C   0  0  0  0  0  0  0  0  0  0  0  0
  -23.8256  -10.4689   20.9510 C   0  0  0  0  0  0  0  0  0  0  0  0
  -24.3240  -12.9342   21.3767 C   0  0  0  0  0  0  0  0  0  0  0  0
  -27.3954  -35.5140   20.7337 C   0  0  0  0  0  0  0  0  0  0  0  0
  -26.5375  -27.8966   19.2787 C   0  0  0  0  0  0  0  0  0  0  0  0
  -27.8807  -34.2647   20.3025 C   0  0  0  0  0  0  0  0  0  0  0  0
  -26.1446  -27.4209   20.5378 C   0  0  0  0  0  0  0  0  0  0  0  0
  -29.6127  -19.5177   21.3232 C   0  0  0  0  0  0  0  0  0  0  0  0
  -30.5432  -20.0441   20.4074 C   0  0  0  0  0  0  0  0  0  0  0  0
  -31.0267  -17.5680   21.6382 C   0  0  0  0  0  0  0  0  0  0  0  0
  -29.8671  -18.2822   21.9363 C   0  0  0  0  0  0  0  0  0  0  0  0
  -31.7081  -19.3144   20.1190 C   0  0  0  0  0  0  0  0  0  0  0  0
  -22.2658   -8.1621   21.1202 C   0  0  0  0  0  0  0  0  0  0  0  0
  -27.5324  -25.4515   20.2133 C   0  0  0  0  0  0  0  0  0  0  0  0
  -20.9269   -6.7392   22.4260 C   0  0  0  0  0  0  0  0  0  0  0  0
  -19.7625   -6.1436   24.8901 C   0  0  0  0  0  0  0  0  0  0  0  0
  -21.2330   -5.5406   23.0704 C   0  0  0  0  0  0  0  0  0  0  0  0
  -24.6319  -11.6598   20.8640 C   0  0  0  0  0  0  0  0  0  0  0  0
  -25.4029  -13.7120   21.0341 C   0  0  0  0  0  0  0  0  0  0  0  0
  -23.1662  -13.3755   22.0982 C   0  0  0  0  0  0  0  0  0  0  0  0
  -26.6446  -30.7938   20.5819 C   0  0  0  0  0  0  0  0  0  0  0  0
  -23.5718  -30.1239   21.3767 C   0  0  0  0  0  0  0  0  0  0  0  0
  -21.1857  -27.7608   21.9842 C   0  0  0  0  0  0  0  0  0  0  0  0
  -30.9151  -14.4678   20.5987 C   0  0  0  0  0  0  0  0  0  0  0  0
  -26.6988  -35.6792   22.0612 C   0  0  0  0  0  0  0  0  0  0  0  0
  -25.9882  -29.1926   18.7486 C   0  0  0  0  0  0  0  0  0  0  0  0
  -25.1944  -28.1923   21.4158 C   0  0  0  0  0  0  0  0  0  0  0  0
  -28.3771  -20.2820   21.7063 C   0  0  0  0  0  0  0  0  0  0  0  0
  -26.1939  -34.3652   22.6517 C   0  0  0  0  0  0  0  0  0  0  0  0
  -29.2819  -12.7757   17.9255 C   0  0  0  0  0  0  0  0  0  0  0  0
  -27.2747  -33.2920   22.5679 C   0  0  0  0  0  0  0  0  0  0  0  0
  -27.9042  -12.4344   18.4961 C   0  0  0  0  0  0  0  0  0  0  0  0
  -30.3749  -12.6664   18.9864 C   0  0  0  0  0  0  0  0  0  0  0  0
  -28.7479  -13.1023   20.7854 C   0  0  0  0  0  0  0  0  0  0  0  0
  -30.2922  -21.3708   19.7044 C   0  0  2  0  0  0  0  0  0  0  0  0
  -27.6554  -33.0051   21.1105 C   0  0  1  0  0  0  0  0  0  0  0  0
  -25.5104  -30.1340   19.8498 C   0  0  1  0  0  0  0  0  0  0  0  0
  -27.6051  -13.2527   19.7666 C   0  0  2  0  0  0  0  0  0  0  0  0
  -29.3291  -22.2623   20.5205 C   0  0  1  0  0  0  0  0  0  0  0  0
  -28.9003  -17.7152   22.9304 C   0  0  0  0  0  0  0  0  0  0  0  0
  -29.8308  -21.1048   18.2639 C   0  0  0  0  0  0  0  0  0  0  0  0
  -18.7781  -27.5178   22.6491 C   0  0  0  0  0  0  0  0  0  0  0  0
  -24.3033  -30.7954   24.2619 C   0  0  0  0  0  0  0  0  0  0  0  0
  -22.2012  -29.6461   24.9889 C   0  0  0  0  0  0  0  0  0  0  0  0
  -22.0763  -31.6599   23.5220 C   0  0  0  0  0  0  0  0  0  0  0  0
  -33.5164  -18.9437   18.4403 C   0  0  0  0  0  0  0  0  0  0  0  0
  -20.5064  -26.3801   19.4561 C   0  0  0  0  0  0  0  0  0  0  0  0
  -31.3091  -16.2494   22.2810 C   0  0  0  0  0  0  0  0  0  0  0  0
  -28.9047  -23.5487   19.8237 C   0  0  0  0  0  0  0  0  0  1  0  0
  -22.8904  -29.4704   22.5547 C   0  0  1  0  0  0  0  0  0  0  0  0
  -19.7572  -27.6215   21.4899 C   0  0  2  0  0  0  0  0  0  0  0  0
  -22.8872  -30.3791   23.8164 C   0  0  0  0  0  0  0  0  0  0  0  0
  -25.8138  -11.6257   20.2427 N   0  0  0  0  0  0  0  0  0  0  0  0
  -26.2580  -12.8884   20.3628 N   0  0  0  0  0  0  0  0  0  0  0  0
  -24.6895  -29.4567   20.8557 N   0  0  0  0  0  0  0  0  0  0  0  0
  -30.0309  -13.4666   20.1642 N   0  0  0  0  0  0  0  0  0  0  0  0
  -25.6941  -15.0133   21.2445 N   0  0  0  0  0  0  0  0  0  0  0  0
  -22.1515  -12.4465   22.3658 N   0  0  0  0  0  0  0  0  0  0  0  0
  -32.6830  -19.8037   19.2172 N   0  0  0  0  0  0  0  0  0  0  0  0
  -26.6534  -32.1719   20.4810 N   0  0  0  0  0  0  0  0  0  0  0  0
  -21.5615  -29.0829   22.0941 N   0  0  0  0  0  0  0  0  0  0  0  0
  -30.5099  -15.1837   21.7185 N   0  0  0  0  0  0  0  0  0  0  0  0
  -28.0947  -21.4708   20.8413 N   0  3  0  0  0  0  0  0  0  0  0  0
  -19.6176  -26.4009   20.6463 N   0  3  0  0  0  0  0  0  0  0  0  0
  -23.0280  -14.5625   22.4796 O   0  0  0  0  0  0  0  0  0  0  0  0
  -27.4511  -30.1038   21.1943 O   0  0  0  0  0  0  0  0  0  0  0  0
  -23.1245  -31.1834   20.9307 O   0  0  0  0  0  0  0  0  0  0  0  0
  -21.8959  -26.7936   22.2500 O   0  0  0  0  0  0  0  0  0  0  0  0
  -31.9839  -14.7097   20.0275 O   0  0  0  0  0  0  0  0  0  0  0  0
  -21.5048   -7.0367   21.2032 O   0  0  0  0  0  0  0  0  0  0  0  0
  -28.0218  -24.2555   20.6766 O   0  0  0  0  0  0  0  0  0  1  0  0
  -19.2044   -5.8584   26.0739 F   0  0  0  0  0  0  0  0  0  0  0  0
  -22.0865   -4.6718   22.5114 F   0  0  0  0  0  0  0  0  0  0  0  0
  1  2  1  0  0  0  0
  1  5  2  0  0  0  0
  2  6  2  0  0  0  0
  3  8  2  0  0  0  0
  3 16  1  0  0  0  0
  4  9  1  0  0  0  0
  4 16  2  0  0  0  0
  5 18  1  0  0  0  0
  6 20  1  0  0  0  0
  7 10  2  0  0  0  0
  7 19  1  0  0  0  0
  8 27  1  0  0  0  0
  9 27  2  0  0  0  0
 10 28  1  0  0  0  0
 11 12  2  0  0  0  0
 11 29  1  0  0  0  0
 12 30  1  0  0  0  0
 13 21  1  0  0  0  0
 13 28  2  0  0  0  0
 14 24  2  0  0  0  0
 14 26  1  0  0  0  0
 15 30  2  0  0  0  0
 15 31  1  0  0  0  0
 16 32  1  0  0  0  0
 17 32  1  0  0  0  0
 17 33  2  0  0  0  0
 17 34  1  0  0  0  0
 18 20  2  0  0  0  0
 18 39  1  0  0  0  0
 19 21  2  0  0  0  0
 19 40  1  0  0  0  0
 20 50  1  0  0  0  0
 21 41  1  0  0  0  0
 22 23  1  0  0  0  0
 22 25  2  0  0  0  0
 22 42  1  0  0  0  0
 23 26  2  0  0  0  0
 23 49  1  0  0  0  0
 24 25  1  0  0  0  0
 24 62  1  0  0  0  0
 25 54  1  0  0  0  0
 26 73  1  0  0  0  0
 27 84  1  0  0  0  0
 28 85  1  0  0  0  0
 29 31  2  0  0  0  0
 29 84  1  0  0  0  0
 30 86  1  0  0  0  0
 31 87  1  0  0  0  0
 32 67  2  0  0  0  0
 33 68  1  0  0  0  0
 33 71  1  0  0  0  0
 34 72  1  0  0  0  0
 34 79  2  0  0  0  0
 35 51  1  0  0  0  0
 35 74  1  0  0  0  0
 35 80  2  0  0  0  0
 36 64  1  0  0  0  0
 36 69  1  0  0  0  0
 36 81  2  0  0  0  0
 37 65  1  0  0  0  0
 37 75  1  0  0  0  0
 37 82  2  0  0  0  0
 38 70  1  0  0  0  0
 38 76  1  0  0  0  0
 38 83  2  0  0  0  0
 39 43  1  0  0  0  0
 40 51  1  0  0  0  0
 41 69  1  0  0  0  0
 42 77  1  0  0  0  0
 43 45  1  0  0  0  0
 44 46  1  0  0  0  0
 44 47  1  0  0  0  0
 45 50  1  0  0  0  0
 46 52  1  0  0  0  0
 47 70  1  0  0  0  0
 48 52  1  0  0  0  0
 48 70  1  0  0  0  0
 49 53  1  0  0  0  0
 49 55  1  0  0  0  0
 50 74  1  0  0  0  0
 51 69  1  0  0  0  0
 52 68  1  0  0  0  0
 53 63  1  0  0  0  0
 53 77  1  0  0  0  0
 56 65  1  0  0  0  0
 57 66  1  0  0  0  0
 58 66  1  0  0  0  0
 59 66  1  0  0  0  0
 60 73  1  0  0  0  0
 61 78  1  0  0  0  0
 62 76  1  0  0  0  0
 63 85  1  0  0  0  0
 64 66  1  0  0  0  0
 64 75  1  0  0  0  0
 65 78  1  0  0  0  0
 67 68  1  0  0  0  0
M  CHG  2  77   1  78   1
M  ISO  4  38 100  63 101  76 100  85 101
M  END
> <Batch ID>
0157

> <Smiles>
CNc1cc(C[100NH:0][100C:0](=O)N2CCCC(n3nc(-c4ccc(Oc5ccc(F)cc5F)cc4)c(C(N)=O)c3N)C2)c(C)c2c1C(C)C([101CH2:1][101O:1]c1ccc3c(c1)CN(C(=O)C(NC(=O)C(C)NC)C(C)(C)C)C(C(=O)NC1CCCc4ccccc41)C3)NC2

> <Shape>
0.373

> <Color>
0.181

> <Negative vol penalty>
0.000

$$$$

  -OEChem-04052321593D

 86 95  0     1  0  0  0  0  0999 V2000
  -22.9622  -31.1214   25.8524 C   0  0  0  0  0  0  0  0  0  0  0  0
  -23.1813  -30.0027   25.0549 C   0  0  0  0  0  0  0  0  0  0  0  0
  -23.0151   -9.9012   19.9985 C   0  0  0  0  0  0  0  0  0  0  0  0
  -23.8449   -9.9341   22.2672 C   0  0  0  0  0  0  0  0  0  0  0  0
  -24.0455  -31.8312   26.3686 C   0  0  0  0  0  0  0  0  0  0  0  0
  -24.4841  -29.5939   24.7722 C   0  0  0  0  0  0  0  0  0  0  0  0
  -26.5036  -18.2555   23.3035 C   0  0  0  0  0  0  0  0  0  0  0  0
  -25.0953  -24.5891   25.2450 C   0  0  0  0  0  0  0  0  0  0  0  0
  -25.3760  -19.0447   23.0770 C   0  0  0  0  0  0  0  0  0  0  0  0
  -22.2796   -8.7510   20.2841 C   0  0  0  0  0  0  0  0  0  0  0  0
  -23.1093   -8.7839   22.5529 C   0  0  0  0  0  0  0  0  0  0  0  0
  -24.6261  -23.7892   24.2040 C   0  0  0  0  0  0  0  0  0  0  0  0
  -23.3840   -5.4558   22.0245 C   0  0  0  0  0  0  0  0  0  0  0  0
  -24.0216   -4.4386   22.7348 C   0  0  0  0  0  0  0  0  0  0  0  0
  -27.2077  -18.6059   21.0191 C   0  0  0  0  0  0  0  0  0  0  0  0
  -26.8707  -23.6088   23.3389 C   0  0  0  0  0  0  0  0  0  0  0  0
  -22.3732   -4.6316   24.4906 C   0  0  0  0  0  0  0  0  0  0  0  0
  -23.7978  -10.4927   20.9900 C   0  0  0  0  0  0  0  0  0  0  0  0
  -24.1350  -13.0163   20.8310 C   0  0  0  0  0  0  0  0  0  0  0  0
  -27.4195  -18.0361   22.2745 C   0  0  0  0  0  0  0  0  0  0  0  0
  -25.3622  -31.4251   26.1000 C   0  0  0  0  0  0  0  0  0  0  0  0
  -26.4564  -24.9144   25.3348 C   0  0  0  0  0  0  0  0  0  0  0  0
  -25.5862  -30.2997   25.2842 C   0  0  0  0  0  0  0  0  0  0  0  0
  -27.3551  -24.4108   24.3835 C   0  0  0  0  0  0  0  0  0  0  0  0
  -25.1642  -19.6145   21.8215 C   0  0  0  0  0  0  0  0  0  0  0  0
  -22.3267   -8.1923   21.5613 C   0  0  0  0  0  0  0  0  0  0  0  0
  -25.5133  -23.3013   23.2491 C   0  0  0  0  0  0  0  0  0  0  0  0
  -22.2411   -6.0609   22.5473 C   0  0  0  0  0  0  0  0  0  0  0  0
  -26.0801  -19.3951   20.7925 C   0  0  0  0  0  0  0  0  0  0  0  0
  -23.5161   -4.0265   23.9679 C   0  0  0  0  0  0  0  0  0  0  0  0
  -21.7357   -5.6488   23.7803 C   0  0  0  0  0  0  0  0  0  0  0  0
  -24.5583  -11.6806   20.6954 C   0  0  0  0  0  0  0  0  0  0  0  0
  -25.2153  -13.7616   20.4260 C   0  0  0  0  0  0  0  0  0  0  0  0
  -22.8778  -13.5369   21.2828 C   0  0  0  0  0  0  0  0  0  0  0  0
  -28.1271  -27.6172   25.2503 C   0  0  0  0  0  0  0  0  0  0  0  0
  -30.6042  -25.6521   25.9742 C   0  0  0  0  0  0  0  0  0  0  0  0
  -31.9185  -22.5032   25.9111 C   0  0  0  0  0  0  0  0  0  0  0  0
  -30.7548  -14.6137   20.7747 C   0  0  0  0  0  0  0  0  0  0  0  0
  -26.5015  -32.2519   26.6413 C   0  0  0  0  0  0  0  0  0  0  0  0
  -26.9508  -25.7563   26.4789 C   0  0  0  0  0  0  0  0  0  0  0  0
  -28.8290  -24.7142   24.4464 C   0  0  0  0  0  0  0  0  0  0  0  0
  -27.8477  -31.5332   26.6028 C   0  0  0  0  0  0  0  0  0  0  0  0
  -29.5099  -12.3991   18.1211 C   0  0  0  0  0  0  0  0  0  0  0  0
  -28.0599  -30.8695   25.2458 C   0  0  0  0  0  0  0  0  0  0  0  0
  -28.0882  -12.0870   18.5955 C   0  0  0  0  0  0  0  0  0  0  0  0
  -30.0095  -17.8368   22.2797 C   0  0  0  0  0  0  0  0  0  0  0  0
  -30.4601  -12.6625   19.2879 C   0  0  0  0  0  0  0  0  0  0  0  0
  -30.9553  -16.6506   22.1799 C   0  0  0  0  0  0  0  0  0  0  0  0
  -28.7352  -15.9294   21.6315 C   0  0  0  0  0  0  0  0  0  0  0  0
  -28.5773  -13.3491   20.7200 C   0  0  0  0  0  0  0  0  0  0  0  0
  -28.6430  -17.1805   22.5210 C   0  0  2  0  0  0  0  0  0  0  0  0
  -26.9845  -29.8104   24.9754 C   0  0  1  0  0  0  0  0  0  0  0  0
  -28.2777  -26.4481   26.1820 C   0  0  1  0  0  0  0  0  0  0  0  0
  -27.5764  -13.1642   19.5718 C   0  0  2  0  0  0  0  0  0  0  0  0
  -22.6486  -19.6507   21.7768 C   0  0  0  0  0  0  0  0  0  0  0  0
  -33.9775  -21.2149   26.5421 C   0  0  0  0  0  0  0  0  0  0  0  0
  -32.0668  -26.8125   23.5609 C   0  0  0  0  0  0  0  0  0  0  0  0
  -33.6476  -24.8743   23.6747 C   0  0  0  0  0  0  0  0  0  0  0  0
  -33.4977  -26.4730   25.5838 C   0  0  0  0  0  0  0  0  0  0  0  0
  -30.4050  -20.7710   27.7734 C   0  0  0  0  0  0  0  0  0  0  0  0
  -26.8749  -19.6688   18.5678 C   0  0  0  0  0  0  0  0  0  0  0  0
  -23.9133  -21.7106   22.4971 C   0  0  0  0  0  0  0  0  0  1  0  0
  -23.9511  -20.4551   21.5968 C   0  0  1  0  0  0  0  0  0  0  0  0
  -31.6024  -24.8507   25.1739 C   0  0  1  0  0  0  0  0  0  0  0  0
  -32.5970  -21.6731   26.9859 C   0  0  2  0  0  0  0  0  0  0  0  0
  -32.6756  -25.7483   24.4958 C   0  0  0  0  0  0  0  0  0  0  0  0
  -25.8097  -11.5800   20.2396 N   0  0  0  0  0  0  0  0  0  0  0  0
  -26.1821  -12.8620   20.0853 N   0  0  0  0  0  0  0  0  0  0  0  0
  -29.2627  -25.5469   25.5805 N   0  0  0  0  0  0  0  0  0  0  0  0
  -29.9053  -13.6697   20.1897 N   0  0  0  0  0  0  0  0  0  0  0  0
  -30.1595  -15.5889   21.5788 N   0  0  0  0  0  0  0  0  0  0  0  0
  -25.4230  -15.0922   20.3315 N   0  0  0  0  0  0  0  0  0  0  0  0
  -21.8770  -12.6317   21.6612 N   0  0  0  0  0  0  0  0  0  0  0  0
  -27.2716  -28.5988   25.7131 N   0  0  0  0  0  0  0  0  0  0  0  0
  -32.1486  -23.8514   26.0857 N   0  0  0  0  0  0  0  0  0  0  0  0
  -31.7805  -20.4670   27.3015 N   0  3  0  0  0  0  0  0  0  0  0  0
  -22.6431  -14.7681   21.3335 O   0  0  0  0  0  0  0  0  0  0  0  0
  -28.7425  -27.6286   24.1907 O   0  0  0  0  0  0  0  0  0  0  0  0
  -30.9994  -26.3402   26.9187 O   0  0  0  0  0  0  0  0  0  0  0  0
  -31.2541  -22.0050   25.0050 O   0  0  0  0  0  0  0  0  0  0  0  0
  -31.9704  -14.6141   20.5442 O   0  0  0  0  0  0  0  0  0  0  0  0
  -21.6089   -7.0701   21.8405 O   0  0  0  0  0  0  0  0  0  0  0  0
  -25.8890  -19.9450   19.5607 O   0  0  0  0  0  0  0  0  0  0  0  0
  -25.0549  -22.5157   22.2248 O   0  0  0  0  0  0  0  0  0  1  0  0
  -24.1276   -3.0487   24.6491 F   0  0  0  0  0  0  0  0  0  0  0  0
  -20.6374   -6.2256   24.2871 F   0  0  0  0  0  0  0  0  0  0  0  0
  1  2  1  0  0  0  0
  1  5  2  0  0  0  0
  2  6  2  0  0  0  0
  3 10  2  0  0  0  0
  3 18  1  0  0  0  0
  4 11  1  0  0  0  0
  4 18  2  0  0  0  0
  5 21  1  0  0  0  0
  6 23  1  0  0  0  0
  7  9  2  0  0  0  0
  7 20  1  0  0  0  0
  8 12  2  0  0  0  0
  8 22  1  0  0  0  0
  9 25  1  0  0  0  0
 10 26  1  0  0  0  0
 11 26  2  0  0  0  0
 12 27  1  0  0  0  0
 13 14  2  0  0  0  0
 13 28  1  0  0  0  0
 14 30  1  0  0  0  0
 15 20  2  0  0  0  0
 15 29  1  0  0  0  0
 16 24  1  0  0  0  0
 16 27  2  0  0  0  0
 17 30  2  0  0  0  0
 17 31  1  0  0  0  0
 18 32  1  0  0  0  0
 19 32  1  0  0  0  0
 19 33  2  0  0  0  0
 19 34  1  0  0  0  0
 20 51  1  0  0  0  0
 21 23  2  0  0  0  0
 21 39  1  0  0  0  0
 22 24  2  0  0  0  0
 22 40  1  0  0  0  0
 23 52  1  0  0  0  0
 24 41  1  0  0  0  0
 25 29  2  0  0  0  0
 25 63  1  0  0  0  0
 26 82  1  0  0  0  0
 27 84  1  0  0  0  0
 28 31  2  0  0  0  0
 28 82  1  0  0  0  0
 29 83  1  0  0  0  0
 30 85  1  0  0  0  0
 31 86  1  0  0  0  0
 32 67  2  0  0  0  0
 33 68  1  0  0  0  0
 33 72  1  0  0  0  0
 34 73  1  0  0  0  0
 34 77  2  0  0  0  0
 35 53  1  0  0  0  0
 35 74  1  0  0  0  0
 35 78  2  0  0  0  0
 36 64  1  0  0  0  0
 36 69  1  0  0  0  0
 36 79  2  0  0  0  0
 37 65  1  0  0  0  0
 37 75  1  0  0  0  0
 37 80  2  0  0  0  0
 38 70  1  0  0  0  0
 38 71  1  0  0  0  0
 38 81  2  0  0  0  0
 39 42  1  0  0  0  0
 40 53  1  0  0  0  0
 41 69  1  0  0  0  0
 42 44  1  0  0  0  0
 43 45  1  0  0  0  0
 43 47  1  0  0  0  0
 44 52  1  0  0  0  0
 45 54  1  0  0  0  0
 46 48  1  0  0  0  0
 46 51  1  0  0  0  0
 47 70  1  0  0  0  0
 48 71  1  0  0  0  0
 49 51  1  0  0  0  0
 49 71  1  0  0  0  0
 50 54  1  0  0  0  0
 50 70  1  0  0  0  0
 52 74  1  0  0  0  0
 53 69  1  0  0  0  0
 54 68  1  0  0  0  0
 55 63  1  0  0  0  0
 56 65  1  0  0  0  0
 57 66  1  0  0  0  0
 58 66  1  0  0  0  0
 59 66  1  0  0  0  0
 60 76  1  0  0  0  0
 61 83  1  0  0  0  0
 62 63  1  0  0  0  0
 62 84  1  0  0  0  0
 64 66  1  0  0  0  0
 64 75  1  0  0  0  0
 65 76  1  0  0  0  0
 67 68  1  0  0  0  0
M  CHG  1  76   1
M  ISO  4  38 100  62 101  71 100  84 101
M  END
> <Batch ID>
0157

> <Smiles>
CNC(C)C(=O)NC(C(=O)N1Cc2cc([101O:1][101CH2:1]C(C)c3ccc(C4CC[100N:0]([100C:0](=O)N5CCCC(n6nc(-c7ccc(Oc8ccc(F)cc8F)cc7)c(C(N)=O)c6N)C5)C4)cc3OC)ccc2CC1C(=O)NC1CCCc2ccccc21)C(C)(C)C

> <Shape>
0.232

> <Color>
0.189

> <Negative vol penalty>
0.000

$$$$

  -OEChem-04052321593D

 92101  0     1  0  0  0  0  0999 V2000
  -30.7368  -34.5674   18.6434 C   0  0  0  0  0  0  0  0  0  0  0  0
  -30.1438  -33.3789   18.2296 C   0  0  0  0  0  0  0  0  0  0  0  0
  -23.8386   -9.7425   22.1566 C   0  0  0  0  0  0  0  0  0  0  0  0
  -22.4566  -10.1285   20.2129 C   0  0  0  0  0  0  0  0  0  0  0  0
  -30.7032  -34.9302   19.9892 C   0  0  0  0  0  0  0  0  0  0  0  0
  -29.5178  -32.5519   19.1616 C   0  0  0  0  0  0  0  0  0  0  0  0
  -24.5329  -29.1088   18.2665 C   0  0  0  0  0  0  0  0  0  0  0  0
  -23.5056   -8.3883   22.1244 C   0  0  0  0  0  0  0  0  0  0  0  0
  -22.1236   -8.7744   20.1807 C   0  0  0  0  0  0  0  0  0  0  0  0
  -24.3674  -27.7542   17.9813 C   0  0  0  0  0  0  0  0  0  0  0  0
  -20.8969   -6.4430   23.0379 C   0  0  0  0  0  0  0  0  0  0  0  0
  -20.5555   -5.8315   24.2442 C   0  0  0  0  0  0  0  0  0  0  0  0
  -24.0323  -27.3071   20.3280 C   0  0  0  0  0  0  0  0  0  0  0  0
  -19.5513  -19.7087   17.3801 C   0  0  0  0  0  0  0  0  0  0  0  0
  -22.3907   -4.2827   23.9783 C   0  0  0  0  0  0  0  0  0  0  0  0
  -23.3140  -10.6126   21.2008 C   0  0  0  0  0  0  0  0  0  0  0  0
  -24.7404  -12.6367   20.5875 C   0  0  0  0  0  0  0  0  0  0  0  0
  -30.0681  -34.1120   20.9367 C   0  0  0  0  0  0  0  0  0  0  0  0
  -24.4600  -29.5720   19.5881 C   0  0  0  0  0  0  0  0  0  0  0  0
  -29.4769  -32.9035   20.5216 C   0  0  0  0  0  0  0  0  0  0  0  0
  -24.1947  -28.6685   20.6271 C   0  0  0  0  0  0  0  0  0  0  0  0
  -19.1297  -21.0337   17.2705 C   0  0  0  0  0  0  0  0  0  0  0  0
  -20.8303  -21.7054   18.8497 C   0  0  0  0  0  0  0  0  0  0  0  0
  -19.7692  -22.0321   18.0053 C   0  0  0  0  0  0  0  0  0  0  0  0
  -21.2519  -20.3803   18.9593 C   0  0  0  0  0  0  0  0  0  0  0  0
  -22.6481   -7.9043   21.1365 C   0  0  0  0  0  0  0  0  0  0  0  0
  -24.1200  -26.8527   19.0124 C   0  0  0  0  0  0  0  0  0  0  0  0
  -21.9851   -5.9743   22.3017 C   0  0  0  0  0  0  0  0  0  0  0  0
  -20.6124  -19.3819   18.2245 C   0  0  0  0  0  0  0  0  0  0  0  0
  -21.3024   -4.7514   24.7144 C   0  0  0  0  0  0  0  0  0  0  0  0
  -22.7320   -4.8942   22.7720 C   0  0  0  0  0  0  0  0  0  0  0  0
  -23.6572  -12.0116   21.2338 C   0  0  0  0  0  0  0  0  0  0  0  0
  -24.6267  -13.9618   20.9305 C   0  0  0  0  0  0  0  0  0  0  0  0
  -25.7584  -12.0702   19.7517 C   0  0  0  0  0  0  0  0  0  0  0  0
  -26.4787  -31.0172   21.5730 C   0  0  0  0  0  0  0  0  0  0  0  0
  -23.8644  -31.1878   23.4858 C   0  0  0  0  0  0  0  0  0  0  0  0
  -20.8067  -29.9305   24.3321 C   0  0  0  0  0  0  0  0  0  0  0  0
  -21.5363  -18.5497   21.6694 C   0  0  0  0  0  0  0  0  0  0  0  0
  -30.0987  -34.5230   22.3875 C   0  0  0  0  0  0  0  0  0  0  0  0
  -24.6142  -31.0402   19.8762 C   0  0  0  0  0  0  0  0  0  0  0  0
  -24.0868  -29.1179   22.0606 C   0  0  0  0  0  0  0  0  0  0  0  0
  -29.0891  -33.7744   23.2540 C   0  0  0  0  0  0  0  0  0  0  0  0
  -21.6918  -16.2325   24.3681 C   0  0  0  0  0  0  0  0  0  0  0  0
  -29.1378  -32.2786   22.9588 C   0  0  0  0  0  0  0  0  0  0  0  0
  -22.3002  -14.9781   23.7385 C   0  0  0  0  0  0  0  0  0  0  0  0
  -24.8993  -19.6827   20.0588 C   0  0  0  0  0  0  0  0  0  0  0  0
  -20.7592  -16.9550   23.3984 C   0  0  0  0  0  0  0  0  0  0  0  0
  -21.9659  -16.0261   21.4607 C   0  0  0  0  0  0  0  0  0  0  0  0
  -26.0245  -19.4523   19.0690 C   0  0  0  0  0  0  0  0  0  0  0  0
  -23.8546  -19.1196   18.0021 C   0  0  0  0  0  0  0  0  0  0  0  0
  -28.7667  -31.9920   21.4988 C   0  0  1  0  0  0  0  0  0  0  0  0
  -25.0309  -31.3261   21.3157 C   0  0  1  0  0  0  0  0  0  0  0  0
  -23.7360  -20.0919   19.1654 C   0  0  1  0  0  0  0  0  0  0  0  0
  -22.9572  -15.2941   22.3814 C   0  0  2  0  0  0  0  0  0  0  0  0
  -17.9903  -21.3562   16.3600 C   0  0  0  0  0  0  0  0  0  0  0  0
  -18.9256  -30.2547   25.9611 C   0  0  0  0  0  0  0  0  0  0  0  0
  -25.5310  -29.8614   25.6705 C   0  0  0  0  0  0  0  0  0  0  0  0
  -23.4034  -29.3552   26.8893 C   0  0  0  0  0  0  0  0  0  0  0  0
  -24.0623  -31.7234   26.4645 C   0  0  0  0  0  0  0  0  0  0  0  0
  -18.8751  -30.5068   22.1651 C   0  0  0  0  0  0  0  0  0  0  0  0
  -20.2995  -17.1286   17.5313 C   0  0  0  0  0  0  0  0  0  0  0  0
  -19.3591  -25.3362   16.4805 C   0  0  0  0  0  0  0  0  0  0  0  0
  -21.5222  -22.7841   19.6442 C   0  0  0  0  0  0  0  0  0  0  0  0
  -19.3151  -23.4526   17.8851 C   0  0  0  0  0  0  0  0  0  0  0  0
  -22.4772  -23.6442   18.8136 C   0  0  0  0  0  0  0  0  0  0  0  0
  -23.1063  -24.7846   19.6054 C   0  0  0  0  0  0  0  0  0  1  0  0
  -22.3889  -20.0221   19.8627 C   0  0  2  0  0  0  0  0  0  0  0  0
  -23.2512  -30.2982   24.5401 C   0  0  1  0  0  0  0  0  0  0  0  0
  -19.4737  -30.6103   24.5878 C   0  0  2  0  0  0  0  0  0  0  0  0
  -24.0659  -30.3005   25.8644 C   0  0  0  0  0  0  0  0  0  0  0  0
  -22.9104  -12.8691   21.9345 N   0  0  0  0  0  0  0  0  0  0  0  0
  -23.5254  -14.0465   21.7306 N   0  0  0  0  0  0  0  0  0  0  0  0
  -24.2513  -30.5625   22.2920 N   0  0  0  0  0  0  0  0  0  0  0  0
  -21.4435  -17.2267   22.1320 N   0  0  0  0  0  0  0  0  0  0  0  0
  -25.3623  -15.0511   20.6229 N   0  0  0  0  0  0  0  0  0  0  0  0
  -25.7267  -10.6915   19.5014 N   0  0  0  0  0  0  0  0  0  0  0  0
  -27.3333  -32.0724   21.3165 N   0  0  0  0  0  0  0  0  0  0  0  0
  -21.8675  -30.7357   24.6891 N   0  0  0  0  0  0  0  0  0  0  0  0
  -22.2064  -18.7199   20.4641 N   0  0  0  0  0  0  0  0  0  0  0  0
  -25.3361  -18.9269   17.8418 N   0  3  0  0  0  0  0  0  0  0  0  0
  -18.4755  -30.1959   23.5617 N   0  3  0  0  0  0  0  0  0  0  0  0
  -26.6786  -12.7633   19.2554 O   0  0  0  0  0  0  0  0  0  0  0  0
  -26.7967  -29.9045   21.9761 O   0  0  0  0  0  0  0  0  0  0  0  0
  -23.9888  -32.3944   23.7103 O   0  0  0  0  0  0  0  0  0  0  0  0
  -20.8977  -28.7969   23.8659 O   0  0  0  0  0  0  0  0  0  0  0  0
  -21.0621  -19.5088   22.2876 O   0  0  0  0  0  0  0  0  0  0  0  0
  -22.3231   -6.5829   21.1047 O   0  0  0  0  0  0  0  0  0  0  0  0
  -21.0102  -18.0821   18.3184 O   0  0  0  0  0  0  0  0  0  0  0  0
  -23.9587  -25.5298   18.7368 O   0  0  0  0  0  0  0  0  0  1  0  0
  -19.7646  -23.9840   16.6465 O   0  0  0  0  0  0  0  0  0  0  0  0
  -20.9755   -4.1652   25.8736 F   0  0  0  0  0  0  0  0  0  0  0  0
  -23.7792   -4.4402   22.0697 F   0  0  0  0  0  0  0  0  0  0  0  0
  1  2  1  0  0  0  0
  1  5  2  0  0  0  0
  2  6  2  0  0  0  0
  3  8  2  0  0  0  0
  3 16  1  0  0  0  0
  4  9  1  0  0  0  0
  4 16  2  0  0  0  0
  5 18  1  0  0  0  0
  6 20  1  0  0  0  0
  7 10  2  0  0  0  0
  7 19  1  0  0  0  0
  8 26  1  0  0  0  0
  9 26  2  0  0  0  0
 10 27  1  0  0  0  0
 11 12  2  0  0  0  0
 11 28  1  0  0  0  0
 12 30  1  0  0  0  0
 13 21  1  0  0  0  0
 13 27  2  0  0  0  0
 14 22  1  0  0  0  0
 14 29  2  0  0  0  0
 15 30  2  0  0  0  0
 15 31  1  0  0  0  0
 16 32  1  0  0  0  0
 17 32  1  0  0  0  0
 17 33  2  0  0  0  0
 17 34  1  0  0  0  0
 18 20  2  0  0  0  0
 18 39  1  0  0  0  0
 19 21  2  0  0  0  0
 19 40  1  0  0  0  0
 20 51  1  0  0  0  0
 21 41  1  0  0  0  0
 22 24  2  0  0  0  0
 22 55  1  0  0  0  0
 23 24  1  0  0  0  0
 23 25  2  0  0  0  0
 23 63  1  0  0  0  0
 24 64  1  0  0  0  0
 25 29  1  0  0  0  0
 25 67  1  0  0  0  0
 26 87  1  0  0  0  0
 27 89  1  0  0  0  0
 28 31  2  0  0  0  0
 28 87  1  0  0  0  0
 29 88  1  0  0  0  0
 30 91  1  0  0  0  0
 31 92  1  0  0  0  0
 32 71  2  0  0  0  0
 33 72  1  0  0  0  0
 33 75  1  0  0  0  0
 34 76  1  0  0  0  0
 34 82  2  0  0  0  0
 35 52  1  0  0  0  0
 35 77  1  0  0  0  0
 35 83  2  0  0  0  0
 36 68  1  0  0  0  0
 36 73  1  0  0  0  0
 36 84  2  0  0  0  0
 37 69  1  0  0  0  0
 37 78  1  0  0  0  0
 37 85  2  0  0  0  0
 38 74  1  0  0  0  0
 38 79  1  0  0  0  0
 38 86  2  0  0  0  0
 39 42  1  0  0  0  0
 40 52  1  0  0  0  0
 41 73  1  0  0  0  0
 42 44  1  0  0  0  0
 43 45  1  0  0  0  0
 43 47  1  0  0  0  0
 44 51  1  0  0  0  0
 45 54  1  0  0  0  0
 46 49  1  0  0  0  0
 46 53  1  0  0  0  0
 47 74  1  0  0  0  0
 48 54  1  0  0  0  0
 48 74  1  0  0  0  0
 49 80  1  0  0  0  0
 50 53  1  0  0  0  0
 50 80  1  0  0  0  0
 51 77  1  0  0  0  0
 52 73  1  0  0  0  0
 53 67  1  0  0  0  0
 54 72  1  0  0  0  0
 56 69  1  0  0  0  0
 57 70  1  0  0  0  0
 58 70  1  0  0  0  0
 59 70  1  0  0  0  0
 60 81  1  0  0  0  0
 61 88  1  0  0  0  0
 62 90  1  0  0  0  0
 63 65  1  0  0  0  0
 64 90  1  0  0  0  0
 65 66  1  0  0  0  0
 66 89  1  0  0  0  0
 67 79  1  0  0  0  0
 68 70  1  0  0  0  0
 68 78  1  0  0  0  0
 69 81  1  0  0  0  0
 71 72  1  0  0  0  0
M  CHG  2  80   1  81   1
M  ISO  4  38 100  66 101  79 100  89 101
M  END
> <Batch ID>
0157

> <Smiles>
CNC(C)C(=O)NC(C(=O)N1Cc2cc([101O:1][101CH2:1]CCc3c(COC)c(C)cc(OC)c3C([100NH:0][100C:0](=O)N3CCCC(n4nc(-c5ccc(Oc6ccc(F)cc6F)cc5)c(C(N)=O)c4N)C3)C3CCNC3)ccc2CC1C(=O)NC1CCCc2ccccc21)C(C)(C)C

> <Shape>
0.212

> <Color>
0.116

> <Negative vol penalty>
0.000

$$$$

  -OEChem-04052321593D

 85 94  0     1  0  0  0  0  0999 V2000
  -22.6805  -37.3105   17.9181 C   0  0  0  0  0  0  0  0  0  0  0  0
  -23.0650  -36.0966   17.3576 C   0  0  0  0  0  0  0  0  0  0  0  0
  -24.2776   -9.5890   21.9919 C   0  0  0  0  0  0  0  0  0  0  0  0
  -24.2325   -8.7028   19.7448 C   0  0  0  0  0  0  0  0  0  0  0  0
  -23.1454  -37.6720   19.1818 C   0  0  0  0  0  0  0  0  0  0  0  0
  -23.9157  -35.2440   18.0603 C   0  0  0  0  0  0  0  0  0  0  0  0
  -25.2651  -28.2792   19.0538 C   0  0  0  0  0  0  0  0  0  0  0  0
  -23.1446   -8.8402   22.3100 C   0  0  0  0  0  0  0  0  0  0  0  0
  -23.0995   -7.9539   20.0628 C   0  0  0  0  0  0  0  0  0  0  0  0
  -26.3212  -27.3700   19.0117 C   0  0  0  0  0  0  0  0  0  0  0  0
  -22.4201   -5.6350   23.1068 C   0  0  0  0  0  0  0  0  0  0  0  0
  -22.4199   -4.9421   24.3173 C   0  0  0  0  0  0  0  0  0  0  0  0
  -26.9982  -28.0634   21.2207 C   0  0  0  0  0  0  0  0  0  0  0  0
  -29.2708  -23.3004   19.2632 C   0  0  0  0  0  0  0  0  0  0  0  0
  -20.4775   -6.1891   25.0308 C   0  0  0  0  0  0  0  0  0  0  0  0
  -31.6236  -22.9537   19.2900 C   0  0  0  0  0  0  0  0  0  0  0  0
  -24.8215   -9.5204   20.7093 C   0  0  0  0  0  0  0  0  0  0  0  0
  -27.3364   -9.8984   20.5088 C   0  0  0  0  0  0  0  0  0  0  0  0
  -23.9945  -36.8189   19.9044 C   0  0  0  0  0  0  0  0  0  0  0  0
  -25.0738  -29.0964   20.1772 C   0  0  0  0  0  0  0  0  0  0  0  0
  -24.3935  -35.5949   19.3344 C   0  0  0  0  0  0  0  0  0  0  0  0
  -25.9374  -28.9803   21.2757 C   0  0  0  0  0  0  0  0  0  0  0  0
  -29.5031  -24.6500   19.0225 C   0  0  0  0  0  0  0  0  0  0  0  0
  -22.5556   -8.0226   21.3455 C   0  0  0  0  0  0  0  0  0  0  0  0
  -27.1897  -27.2640   20.0941 C   0  0  0  0  0  0  0  0  0  0  0  0
  -21.4491   -6.6051   22.8582 C   0  0  0  0  0  0  0  0  0  0  0  0
  -30.3458  -22.4294   19.4007 C   0  0  0  0  0  0  0  0  0  0  0  0
  -21.4486   -5.2191   25.2793 C   0  0  0  0  0  0  0  0  0  0  0  0
  -20.4777   -6.8821   23.8202 C   0  0  0  0  0  0  0  0  0  0  0  0
  -25.9916  -10.2941   20.3800 C   0  0  0  0  0  0  0  0  0  0  0  0
  -30.8185  -25.0749   18.9290 C   0  0  0  0  0  0  0  0  0  0  0  0
  -28.0567  -10.9810   20.0665 C   0  0  0  0  0  0  0  0  0  0  0  0
  -27.8854   -8.6627   20.9855 C   0  0  0  0  0  0  0  0  0  0  0  0
  -25.0877  -32.2319   20.6986 C   0  0  0  0  0  0  0  0  0  0  0  0
  -24.1202  -31.3491   23.6662 C   0  0  0  0  0  0  0  0  0  0  0  0
  -24.0025  -28.9363   26.0769 C   0  0  0  0  0  0  0  0  0  0  0  0
  -29.1291  -16.2351   19.8272 C   0  0  0  0  0  0  0  0  0  0  0  0
  -24.5092  -37.2739   21.2471 C   0  0  0  0  0  0  0  0  0  0  0  0
  -23.9139  -30.0531   20.2179 C   0  0  0  0  0  0  0  0  0  0  0  0
  -25.7633  -29.8203   22.5136 C   0  0  0  0  0  0  0  0  0  0  0  0
  -25.1072  -36.1462   22.0842 C   0  0  0  0  0  0  0  0  0  0  0  0
  -26.5820  -15.1699   17.6593 C   0  0  0  0  0  0  0  0  0  0  0  0
  -26.0466  -35.2933   21.2375 C   0  0  0  0  0  0  0  0  0  0  0  0
  -26.3042  -13.7622   18.1861 C   0  0  0  0  0  0  0  0  0  0  0  0
  -30.2844  -19.2732   18.0431 C   0  0  0  0  0  0  0  0  0  0  0  0
  -28.1310  -19.8031   19.2644 C   0  0  0  0  0  0  0  0  0  0  0  0
  -26.8171  -16.1698   18.7927 C   0  0  0  0  0  0  0  0  0  0  0  0
  -30.5105  -18.1038   19.0002 C   0  0  0  0  0  0  0  0  0  0  0  0
  -28.4081  -18.6248   20.1951 C   0  0  0  0  0  0  0  0  0  0  0  0
  -27.5881  -14.3487   20.2778 C   0  0  0  0  0  0  0  0  0  0  0  0
  -25.2951  -34.6319   20.0759 C   0  0  1  0  0  0  0  0  0  0  0  0
  -24.1194  -31.1997   21.2031 C   0  0  1  0  0  0  0  0  0  0  0  0
  -27.4060  -13.3095   19.1607 C   0  0  1  0  0  0  0  0  0  0  0  0
  -29.4113  -20.3719   18.6502 C   0  0  0  0  0  0  0  0  0  0  0  0
  -31.1280  -26.5135   18.6720 C   0  0  0  0  0  0  0  0  0  0  0  0
  -23.1774  -28.5216   28.4103 C   0  0  0  0  0  0  0  0  0  0  0  0
  -26.4349  -32.9990   24.7754 C   0  0  0  0  0  0  0  0  0  0  0  0
  -26.1481  -31.8058   26.9577 C   0  0  0  0  0  0  0  0  0  0  0  0
  -24.2959  -33.2111   26.0537 C   0  0  0  0  0  0  0  0  0  0  0  0
  -22.2274  -26.7431   25.1838 C   0  0  0  0  0  0  0  0  0  0  0  0
  -28.3556  -25.5881   18.8742 C   0  0  0  0  0  0  0  0  0  1  0  0
  -24.8183  -30.9940   24.9568 C   0  0  1  0  0  0  0  0  0  0  0  0
  -22.8572  -28.4171   26.9273 C   0  0  2  0  0  0  0  0  0  0  0  0
  -25.4290  -32.2379   25.6619 C   0  0  0  0  0  0  0  0  0  0  0  0
  -31.8886  -24.2586   19.0569 N   0  0  0  0  0  0  0  0  0  0  0  0
  -25.8625  -11.5316   19.8941 N   0  0  0  0  0  0  0  0  0  0  0  0
  -27.1355  -11.9228   19.7137 N   0  0  0  0  0  0  0  0  0  0  0  0
  -24.6181  -30.7455   22.5028 N   0  0  0  0  0  0  0  0  0  0  0  0
  -27.8469  -15.6764   19.7168 N   0  0  0  0  0  0  0  0  0  0  0  0
  -29.2497  -17.6075   19.5507 N   0  0  0  0  0  0  0  0  0  0  0  0
  -29.3820  -11.2097   19.9490 N   0  0  0  0  0  0  0  0  0  0  0  0
  -27.0033   -7.6559   21.4011 N   0  0  0  0  0  0  0  0  0  0  0  0
  -24.5393  -33.4912   20.5472 N   0  0  0  0  0  0  0  0  0  0  0  0
  -23.8420  -30.2694   25.7630 N   0  0  0  0  0  0  0  0  0  0  0  0
  -22.5797  -26.9885   26.6059 N   0  3  0  0  0  0  0  0  0  0  0  0
  -29.1218   -8.4635   21.0568 O   0  0  0  0  0  0  0  0  0  0  0  0
  -26.2469  -31.9100   20.4654 O   0  0  0  0  0  0  0  0  0  0  0  0
  -23.1637  -32.1276   23.6905 O   0  0  0  0  0  0  0  0  0  0  0  0
  -24.9470  -28.2310   25.7292 O   0  0  0  0  0  0  0  0  0  0  0  0
  -30.1086  -15.5512   20.1493 O   0  0  0  0  0  0  0  0  0  0  0  0
  -21.4502   -7.2916   21.6556 O   0  0  0  0  0  0  0  0  0  0  0  0
  -30.1476  -21.0941   19.6348 O   0  0  0  0  0  0  0  0  0  0  0  0
  -28.2286  -26.3719   20.0550 O   0  0  0  0  0  0  0  0  0  1  0  0
  -21.4475   -4.5525   26.4411 F   0  0  0  0  0  0  0  0  0  0  0  0
  -19.5416   -7.8121   23.5866 F   0  0  0  0  0  0  0  0  0  0  0  0
  1  2  1  0  0  0  0
  1  5  2  0  0  0  0
  2  6  2  0  0  0  0
  3  8  2  0  0  0  0
  3 17  1  0  0  0  0
  4  9  1  0  0  0  0
  4 17  2  0  0  0  0
  5 19  1  0  0  0  0
  6 21  1  0  0  0  0
  7 10  2  0  0  0  0
  7 20  1  0  0  0  0
  8 24  1  0  0  0  0
  9 24  2  0  0  0  0
 10 25  1  0  0  0  0
 11 12  2  0  0  0  0
 11 26  1  0  0  0  0
 12 28  1  0  0  0  0
 13 22  1  0  0  0  0
 13 25  2  0  0  0  0
 14 23  1  0  0  0  0
 14 27  2  0  0  0  0
 15 28  2  0  0  0  0
 15 29  1  0  0  0  0
 16 27  1  0  0  0  0
 16 65  2  0  0  0  0
 17 30  1  0  0  0  0
 18 30  1  0  0  0  0
 18 32  2  0  0  0  0
 18 33  1  0  0  0  0
 19 21  2  0  0  0  0
 19 38  1  0  0  0  0
 20 22  2  0  0  0  0
 20 39  1  0  0  0  0
 21 51  1  0  0  0  0
 22 40  1  0  0  0  0
 23 31  2  0  0  0  0
 23 61  1  0  0  0  0
 24 81  1  0  0  0  0
 25 83  1  0  0  0  0
 26 29  2  0  0  0  0
 26 81  1  0  0  0  0
 27 82  1  0  0  0  0
 28 84  1  0  0  0  0
 29 85  1  0  0  0  0
 30 66  2  0  0  0  0
 31 55  1  0  0  0  0
 31 65  1  0  0  0  0
 32 67  1  0  0  0  0
 32 71  1  0  0  0  0
 33 72  1  0  0  0  0
 33 76  2  0  0  0  0
 34 52  1  0  0  0  0
 34 73  1  0  0  0  0
 34 77  2  0  0  0  0
 35 62  1  0  0  0  0
 35 68  1  0  0  0  0
 35 78  2  0  0  0  0
 36 63  1  0  0  0  0
 36 74  1  0  0  0  0
 36 79  2  0  0  0  0
 37 69  1  0  0  0  0
 37 70  1  0  0  0  0
 37 80  2  0  0  0  0
 38 41  1  0  0  0  0
 39 52  1  0  0  0  0
 40 68  1  0  0  0  0
 41 43  1  0  0  0  0
 42 44  1  0  0  0  0
 42 47  1  0  0  0  0
 43 51  1  0  0  0  0
 44 53  1  0  0  0  0
 45 48  1  0  0  0  0
 45 54  1  0  0  0  0
 46 49  1  0  0  0  0
 46 54  1  0  0  0  0
 47 69  1  0  0  0  0
 48 70  1  0  0  0  0
 49 70  1  0  0  0  0
 50 53  1  0  0  0  0
 50 69  1  0  0  0  0
 51 73  1  0  0  0  0
 52 68  1  0  0  0  0
 53 67  1  0  0  0  0
 54 82  1  0  0  0  0
 56 63  1  0  0  0  0
 57 64  1  0  0  0  0
 58 64  1  0  0  0  0
 59 64  1  0  0  0  0
 60 75  1  0  0  0  0
 61 83  1  0  0  0  0
 62 64  1  0  0  0  0
 62 74  1  0  0  0  0
 63 75  1  0  0  0  0
 66 67  1  0  0  0  0
M  CHG  1  75   1
M  ISO  4  37 100  61 101  70 100  83 101
M  END
> <Batch ID>
0157

> <Smiles>
CNC(C)C(=O)NC(C(=O)N1Cc2cc([101O:1][101CH2:1]c3cc(OC4CC[100N:0]([100C:0](=O)N5CCCC(n6nc(-c7ccc(Oc8ccc(F)cc8F)cc7)c(C(N)=O)c6N)C5)CC4)cnc3C)ccc2CC1C(=O)NC1CCCc2ccccc21)C(C)(C)C

> <Shape>
0.296

> <Color>
0.133

> <Negative vol penalty>
0.000

$$$$

  -OEChem-04052321593D

 89 98  0     1  0  0  0  0  0999 V2000
  -21.7578  -34.4197   20.2032 C   0  0  0  0  0  0  0  0  0  0  0  0
  -22.9229  -33.6679   20.3154 C   0  0  0  0  0  0  0  0  0  0  0  0
  -21.5619  -10.2374   20.5881 C   0  0  0  0  0  0  0  0  0  0  0  0
  -23.0758   -9.9733   22.4523 C   0  0  0  0  0  0  0  0  0  0  0  0
  -20.6378  -34.0853   20.9632 C   0  0  0  0  0  0  0  0  0  0  0  0
  -22.9691  -32.5818   21.1887 C   0  0  0  0  0  0  0  0  0  0  0  0
  -25.1360  -28.5056   19.1067 C   0  0  0  0  0  0  0  0  0  0  0  0
  -21.4330   -8.8516   20.4964 C   0  0  0  0  0  0  0  0  0  0  0  0
  -22.9470   -8.5875   22.3607 C   0  0  0  0  0  0  0  0  0  0  0  0
  -26.5280  -28.4938   19.0300 C   0  0  0  0  0  0  0  0  0  0  0  0
  -20.7030   -6.2305   23.2716 C   0  0  0  0  0  0  0  0  0  0  0  0
  -20.5137   -5.5190   24.4563 C   0  0  0  0  0  0  0  0  0  0  0  0
  -26.6179  -27.0848   20.9859 C   0  0  0  0  0  0  0  0  0  0  0  0
  -29.2418  -19.9984   20.6193 C   0  0  0  0  0  0  0  0  0  0  0  0
  -22.5445   -4.2794   24.0362 C   0  0  0  0  0  0  0  0  0  0  0  0
  -22.3833  -10.7983   21.5661 C   0  0  0  0  0  0  0  0  0  0  0  0
  -21.7279  -13.1086   22.4267 C   0  0  0  0  0  0  0  0  0  0  0  0
  -20.6671  -32.9887   21.8391 C   0  0  0  0  0  0  0  0  0  0  0  0
  -24.4738  -27.8149   20.1318 C   0  0  0  0  0  0  0  0  0  0  0  0
  -21.8489  -32.2332   21.9622 C   0  0  0  0  0  0  0  0  0  0  0  0
  -25.2173  -27.0873   21.0720 C   0  0  0  0  0  0  0  0  0  0  0  0
  -30.5152  -21.4944   19.2319 C   0  0  0  0  0  0  0  0  0  0  0  0
  -22.1256   -8.0266   21.3827 C   0  0  0  0  0  0  0  0  0  0  0  0
  -27.2693  -27.7857   19.9713 C   0  0  0  0  0  0  0  0  0  0  0  0
  -21.8130   -5.9664   22.4692 C   0  0  0  0  0  0  0  0  0  0  0  0
  -29.5385  -21.2905   20.2003 C   0  0  0  0  0  0  0  0  0  0  0  0
  -21.4345   -4.5435   24.8386 C   0  0  0  0  0  0  0  0  0  0  0  0
  -22.7337   -4.9909   22.8515 C   0  0  0  0  0  0  0  0  0  0  0  0
  -22.5172  -12.2298   21.6609 C   0  0  0  0  0  0  0  0  0  0  0  0
  -29.9447  -18.9524   20.0434 C   0  0  0  0  0  0  0  0  0  0  0  0
  -31.1612  -20.3814   18.7183 C   0  0  0  0  0  0  0  0  0  0  0  0
  -22.2554  -14.3515   22.1754 C   0  0  0  0  0  0  0  0  0  0  0  0
  -20.6171  -12.8265   23.2883 C   0  0  0  0  0  0  0  0  0  0  0  0
  -22.5599  -28.6517   22.5278 C   0  0  0  0  0  0  0  0  0  0  0  0
  -22.3077  -25.4430   22.9318 C   0  0  0  0  0  0  0  0  0  0  0  0
  -23.6694  -22.3485   22.4666 C   0  0  0  0  0  0  0  0  0  0  0  0
  -27.6616  -16.0731   20.5429 C   0  0  0  0  0  0  0  0  0  0  0  0
  -19.4468  -32.6945   22.6751 C   0  0  0  0  0  0  0  0  0  0  0  0
  -22.9706  -27.8156   20.1851 C   0  0  0  0  0  0  0  0  0  0  0  0
  -24.5536  -26.3127   22.1801 C   0  0  0  0  0  0  0  0  0  0  0  0
  -19.4574  -31.3015   23.2993 C   0  0  0  0  0  0  0  0  0  0  0  0
  -24.5804  -16.8197   18.7975 C   0  0  0  0  0  0  0  0  0  0  0  0
  -20.8145  -31.0104   23.9321 C   0  0  0  0  0  0  0  0  0  0  0  0
  -23.6246  -15.7988   19.4175 C   0  0  0  0  0  0  0  0  0  0  0  0
  -29.6159  -23.5332   18.1267 C   0  0  0  0  0  0  0  0  0  0  0  0
  -31.3701  -23.7215   19.9362 C   0  0  0  0  0  0  0  0  0  0  0  0
  -25.9754  -16.2299   18.6129 C   0  0  0  0  0  0  0  0  0  0  0  0
  -25.6276  -14.6584   20.4792 C   0  0  0  0  0  0  0  0  0  0  0  0
  -29.9012  -24.9715   17.7139 C   0  0  0  0  0  0  0  0  0  0  0  0
  -31.6423  -25.1583   19.5092 C   0  0  0  0  0  0  0  0  0  0  0  0
  -30.8497  -22.8740   18.7640 C   0  0  0  0  0  0  0  0  0  0  0  0
  -21.9300  -31.0328   22.8802 C   0  0  1  0  0  0  0  0  0  0  0  0
  -22.4217  -27.4997   21.5730 C   0  0  1  0  0  0  0  0  0  0  0  0
  -24.2060  -15.2012   20.7125 C   0  0  2  0  0  0  0  0  0  0  0  0
  -32.2202  -20.5386   17.6763 C   0  0  0  0  0  0  0  0  0  0  0  0
  -23.2491  -19.9200   22.9393 C   0  0  0  0  0  0  0  0  0  0  0  0
  -23.1169  -25.8719   25.8424 C   0  0  0  0  0  0  0  0  0  0  0  0
  -23.6003  -23.4202   25.9965 C   0  0  0  0  0  0  0  0  0  0  0  0
  -21.2840  -24.2044   25.5040 C   0  0  0  0  0  0  0  0  0  0  0  0
  -23.6176  -21.6771   19.5847 C   0  0  0  0  0  0  0  0  0  0  0  0
  -27.8805  -22.0372   21.7331 C   0  0  0  0  0  0  0  0  0  0  0  0
  -29.6524  -17.5524   20.4691 C   0  0  0  0  0  0  0  0  0  0  0  0
  -30.5645  -27.2094   18.5894 C   0  0  0  0  0  0  0  0  0  0  0  0
  -29.2107  -27.8914   18.6018 C   0  0  0  0  0  0  0  0  0  1  0  0
  -23.0650  -24.4020   23.7204 C   0  0  1  0  0  0  0  0  0  0  0  0
  -23.0740  -21.0545   21.9418 C   0  0  2  0  0  0  0  0  0  0  0  0
  -22.7794  -24.4907   25.2462 C   0  0  0  0  0  0  0  0  0  0  0  0
  -23.4734  -12.8610   20.9744 N   0  0  0  0  0  0  0  0  0  0  0  0
  -30.9002  -19.1112   19.1003 N   0  0  0  0  0  0  0  0  0  0  0  0
  -23.2883  -14.1496   21.3079 N   0  0  0  0  0  0  0  0  0  0  0  0
  -23.0819  -26.3493   22.1935 N   0  0  0  0  0  0  0  0  0  0  0  0
  -26.4787  -15.6953   19.8861 N   0  0  0  0  0  0  0  0  0  0  0  0
  -21.9319  -15.5866   22.6140 N   0  0  0  0  0  0  0  0  0  0  0  0
  -20.2052  -11.4947   23.4332 N   0  0  0  0  0  0  0  0  0  0  0  0
  -21.9249  -29.8064   22.1119 N   0  0  0  0  0  0  0  0  0  0  0  0
  -22.7293  -23.1138   23.1237 N   0  0  0  0  0  0  0  0  0  0  0  0
  -28.4139  -17.0562   19.9117 N   0  0  0  0  0  0  0  0  0  0  0  0
  -30.3909  -25.7697   18.9075 N   0  3  0  0  0  0  0  0  0  0  0  0
  -23.7324  -20.6623   20.6636 N   0  3  0  0  0  0  0  0  0  0  0  0
  -19.9974  -13.7306   23.8984 O   0  0  0  0  0  0  0  0  0  0  0  0
  -23.1942  -28.5034   23.5657 O   0  0  0  0  0  0  0  0  0  0  0  0
  -21.0746  -25.4473   22.9639 O   0  0  0  0  0  0  0  0  0  0  0  0
  -24.8513  -22.6485   22.3127 O   0  0  0  0  0  0  0  0  0  0  0  0
  -28.0186  -15.5750   21.6160 O   0  0  0  0  0  0  0  0  0  0  0  0
  -21.9999   -6.6742   21.2937 O   0  0  0  0  0  0  0  0  0  0  0  0
  -28.8653  -22.3406   20.7467 O   0  0  0  0  0  0  0  0  0  0  0  0
  -28.6281  -27.7731   19.8991 O   0  0  0  0  0  0  0  0  0  1  0  0
  -21.2534   -3.8614   25.9771 F   0  0  0  0  0  0  0  0  0  0  0  0
  -23.8026   -4.7336   22.0853 F   0  0  0  0  0  0  0  0  0  0  0  0
  1  2  1  0  0  0  0
  1  5  2  0  0  0  0
  2  6  2  0  0  0  0
  3  8  2  0  0  0  0
  3 16  1  0  0  0  0
  4  9  1  0  0  0  0
  4 16  2  0  0  0  0
  5 18  1  0  0  0  0
  6 20  1  0  0  0  0
  7 10  2  0  0  0  0
  7 19  1  0  0  0  0
  8 23  1  0  0  0  0
  9 23  2  0  0  0  0
 10 24  1  0  0  0  0
 11 12  2  0  0  0  0
 11 25  1  0  0  0  0
 12 27  1  0  0  0  0
 13 21  1  0  0  0  0
 13 24  2  0  0  0  0
 14 26  2  0  0  0  0
 14 30  1  0  0  0  0
 15 27  2  0  0  0  0
 15 28  1  0  0  0  0
 16 29  1  0  0  0  0
 17 29  1  0  0  0  0
 17 32  2  0  0  0  0
 17 33  1  0  0  0  0
 18 20  2  0  0  0  0
 18 38  1  0  0  0  0
 19 21  2  0  0  0  0
 19 39  1  0  0  0  0
 20 52  1  0  0  0  0
 21 40  1  0  0  0  0
 22 26  1  0  0  0  0
 22 31  2  0  0  0  0
 22 51  1  0  0  0  0
 23 85  1  0  0  0  0
 24 87  1  0  0  0  0
 25 28  2  0  0  0  0
 25 85  1  0  0  0  0
 26 86  1  0  0  0  0
 27 88  1  0  0  0  0
 28 89  1  0  0  0  0
 29 68  2  0  0  0  0
 30 62  1  0  0  0  0
 30 69  2  0  0  0  0
 31 55  1  0  0  0  0
 31 69  1  0  0  0  0
 32 70  1  0  0  0  0
 32 73  1  0  0  0  0
 33 74  1  0  0  0  0
 33 80  2  0  0  0  0
 34 53  1  0  0  0  0
 34 75  1  0  0  0  0
 34 81  2  0  0  0  0
 35 65  1  0  0  0  0
 35 71  1  0  0  0  0
 35 82  2  0  0  0  0
 36 66  1  0  0  0  0
 36 76  1  0  0  0  0
 36 83  2  0  0  0  0
 37 72  1  0  0  0  0
 37 77  1  0  0  0  0
 37 84  2  0  0  0  0
 38 41  1  0  0  0  0
 39 53  1  0  0  0  0
 40 71  1  0  0  0  0
 41 43  1  0  0  0  0
 42 44  1  0  0  0  0
 42 47  1  0  0  0  0
 43 52  1  0  0  0  0
 44 54  1  0  0  0  0
 45 49  1  0  0  0  0
 45 51  1  0  0  0  0
 46 50  1  0  0  0  0
 46 51  1  0  0  0  0
 47 72  1  0  0  0  0
 48 54  1  0  0  0  0
 48 72  1  0  0  0  0
 49 78  1  0  0  0  0
 50 78  1  0  0  0  0
 52 75  1  0  0  0  0
 53 71  1  0  0  0  0
 54 70  1  0  0  0  0
 56 66  1  0  0  0  0
 57 67  1  0  0  0  0
 58 67  1  0  0  0  0
 59 67  1  0  0  0  0
 60 79  1  0  0  0  0
 61 86  1  0  0  0  0
 62 77  1  0  0  0  0
 63 64  1  0  0  0  0
 63 78  1  0  0  0  0
 64 87  1  0  0  0  0
 65 67  1  0  0  0  0
 65 76  1  0  0  0  0
 66 79  1  0  0  0  0
 68 70  1  0  0  0  0
M  CHG  2  78   1  79   1
M  ISO  4  37 100  64 101  77 100  87 101
M  END
> <Batch ID>
0157

> <Smiles>
CNC(C)C(=O)NC(C(=O)N1Cc2cc([101O:1][101CH2:1]CN3CCC(c4c(OC)cc(C[100NH:0][100C:0](=O)N5CCCC(n6nc(-c7ccc(Oc8ccc(F)cc8F)cc7)c(C(N)=O)c6N)C5)nc4C)CC3)ccc2CC1C(=O)NC1CCCc2ccccc21)C(C)(C)C

> <Shape>
0.260

> <Color>
0.089

> <Negative vol penalty>
0.000

$$$$

  -OEChem-04052321593D

 91100  0     1  0  0  0  0  0999 V2000
  -32.6289  -13.7856   20.8974 C   0  0  0  0  0  0  0  0  0  0  0  0
  -31.8982  -14.9413   21.1538 C   0  0  0  0  0  0  0  0  0  0  0  0
  -31.0568  -23.2386   17.5033 C   0  0  0  0  0  0  0  0  0  0  0  0
  -30.7763  -24.4329   19.5847 C   0  0  0  0  0  0  0  0  0  0  0  0
  -32.0235  -12.7082   20.2520 C   0  0  0  0  0  0  0  0  0  0  0  0
  -30.5617  -15.0207   20.7639 C   0  0  0  0  0  0  0  0  0  0  0  0
  -26.0385  -17.9296   23.6937 C   0  0  0  0  0  0  0  0  0  0  0  0
  -32.3345  -23.7807   17.3644 C   0  0  0  0  0  0  0  0  0  0  0  0
  -32.0540  -24.9750   19.4458 C   0  0  0  0  0  0  0  0  0  0  0  0
  -25.4508  -19.1798   23.5057 C   0  0  0  0  0  0  0  0  0  0  0  0
  -35.1010  -26.9562   19.4598 C   0  0  0  0  0  0  0  0  0  0  0  0
  -35.2585  -28.3185   19.7147 C   0  0  0  0  0  0  0  0  0  0  0  0
  -23.7005  -18.1541   22.2005 C   0  0  0  0  0  0  0  0  0  0  0  0
  -18.1495  -27.2454   22.2422 C   0  0  0  0  0  0  0  0  0  0  0  0
  -19.6354  -28.8195   23.3149 C   0  0  0  0  0  0  0  0  0  0  0  0
  -33.6854  -28.8298   17.9537 C   0  0  0  0  0  0  0  0  0  0  0  0
  -30.2777  -23.5647   18.6134 C   0  0  0  0  0  0  0  0  0  0  0  0
  -28.6092  -21.8028   19.4006 C   0  0  0  0  0  0  0  0  0  0  0  0
  -30.6763  -12.7708   19.8626 C   0  0  0  0  0  0  0  0  0  0  0  0
  -25.4666  -16.7818   23.1264 C   0  0  0  0  0  0  0  0  0  0  0  0
  -29.9381  -13.9436   20.1114 C   0  0  0  0  0  0  0  0  0  0  0  0
  -24.2814  -16.8902   22.3849 C   0  0  0  0  0  0  0  0  0  0  0  0
  -18.3426  -28.3894   23.0164 C   0  0  0  0  0  0  0  0  0  0  0  0
  -19.2493  -26.5313   21.7664 C   0  0  0  0  0  0  0  0  0  0  0  0
  -20.7353  -28.1056   22.8391 C   0  0  0  0  0  0  0  0  0  0  0  0
  -20.5422  -26.9615   22.0649 C   0  0  0  0  0  0  0  0  0  0  0  0
  -32.8331  -24.6489   18.3357 C   0  0  0  0  0  0  0  0  0  0  0  0
  -24.2832  -19.2926   22.7566 C   0  0  0  0  0  0  0  0  0  0  0  0
  -34.2358  -26.5307   18.4519 C   0  0  0  0  0  0  0  0  0  0  0  0
  -34.5507  -29.2553   18.9617 C   0  0  0  0  0  0  0  0  0  0  0  0
  -33.5279  -27.4675   17.6989 C   0  0  0  0  0  0  0  0  0  0  0  0
  -28.9575  -23.0055   18.7572 C   0  0  0  0  0  0  0  0  0  0  0  0
  -27.2449  -21.7228   19.2636 C   0  0  0  0  0  0  0  0  0  0  0  0
  -29.4442  -20.8438   20.0629 C   0  0  0  0  0  0  0  0  0  0  0  0
  -26.4153  -14.6214   20.9965 C   0  0  0  0  0  0  0  0  0  0  0  0
  -23.6363  -13.1633   21.8171 C   0  0  0  0  0  0  0  0  0  0  0  0
  -20.4818  -13.4455   23.0883 C   0  0  0  0  0  0  0  0  0  0  0  0
  -22.9778  -25.8473   18.4694 C   0  0  0  0  0  0  0  0  0  0  0  0
  -30.0785  -11.5986   19.1254 C   0  0  0  0  0  0  0  0  0  0  0  0
  -26.0981  -15.4369   23.3609 C   0  0  0  0  0  0  0  0  0  0  0  0
  -23.6166  -15.6858   21.7718 C   0  0  0  0  0  0  0  0  0  0  0  0
  -28.5528  -11.6216   19.0798 C   0  0  0  0  0  0  0  0  0  0  0  0
  -23.6878  -23.0680   16.3604 C   0  0  0  0  0  0  0  0  0  0  0  0
  -28.0512  -13.0092   18.6929 C   0  0  0  0  0  0  0  0  0  0  0  0
  -25.0875  -22.6283   16.7936 C   0  0  0  0  0  0  0  0  0  0  0  0
  -23.5325  -24.5863   16.4106 C   0  0  0  0  0  0  0  0  0  0  0  0
  -25.2820  -24.7626   18.1374 C   0  0  0  0  0  0  0  0  0  0  0  0
  -22.4191  -23.2120   22.3279 C   0  0  0  0  0  0  0  0  0  0  0  0
  -28.4792  -14.0585   19.7260 C   0  0  1  0  0  0  0  0  0  0  0  0
  -25.7126  -14.4038   22.3066 C   0  0  1  0  0  0  0  0  0  0  0  0
  -22.6833  -22.4030   23.6165 C   0  0  2  0  0  0  0  0  0  0  0  0
  -25.4693  -23.2358   18.1568 C   0  0  2  0  0  0  0  0  0  0  0  0
  -22.8726  -23.7875   24.2900 C   0  0  2  0  0  0  0  0  0  0  0  0
  -17.1667  -29.1523   23.5256 C   0  0  0  0  0  0  0  0  0  0  0  0
  -19.0154  -25.3101   20.9384 C   0  0  0  0  0  0  0  0  0  0  0  0
  -22.1096  -28.5872   23.1727 C   0  0  0  0  0  0  0  0  0  0  0  0
  -18.4352  -12.0864   23.6000 C   0  0  0  0  0  0  0  0  0  0  0  0
  -23.0662  -23.3231   26.7498 C   0  0  0  0  0  0  0  0  0  0  0  0
  -22.0276  -25.4661   25.9547 C   0  0  0  0  0  0  0  0  0  0  0  0
  -22.9354  -13.1054   18.8481 C   0  0  0  0  0  0  0  0  0  0  0  0
  -20.5608  -12.6376   19.4891 C   0  0  0  0  0  0  0  0  0  0  0  0
  -22.3574  -11.0174   20.0972 C   0  0  0  0  0  0  0  0  0  0  0  0
  -20.6405  -14.0797   25.9748 C   0  0  0  0  0  0  0  0  0  0  0  0
  -23.8848  -21.4779   23.6063 C   0  0  0  0  0  0  0  0  0  1  0  0
  -22.5674  -27.0660   20.5920 C   0  0  0  0  0  0  0  0  0  0  0  0
  -22.6194  -25.6271   22.6804 C   0  0  0  0  0  0  0  0  0  0  0  0
  -21.7421  -26.1825   21.5452 C   0  0  1  0  0  0  0  0  0  0  0  0
  -22.2110  -13.2235   21.3234 C   0  0  1  0  0  0  0  0  0  0  0  0
  -19.7444  -12.6388   24.1419 C   0  0  2  0  0  0  0  0  0  0  0  0
  -22.2289  -23.9796   25.6489 C   0  0  0  0  0  0  0  0  0  0  0  0
  -22.0295  -12.5191   19.9492 C   0  0  0  0  0  0  0  0  0  0  0  0
  -27.8998  -23.6436   18.2491 N   0  0  0  0  0  0  0  0  0  0  0  0
  -26.8735  -22.8388   18.5731 N   0  0  0  0  0  0  0  0  0  0  0  0
  -24.2758  -14.3937   22.0241 N   0  0  0  0  0  0  0  0  0  0  0  0
  -23.9087  -25.0990   17.7303 N   0  0  0  0  0  0  0  0  0  0  0  0
  -26.3388  -20.8073   19.6676 N   0  0  0  0  0  0  0  0  0  0  0  0
  -30.8247  -21.0808   20.1121 N   0  0  0  0  0  0  0  0  0  0  0  0
  -27.6374  -13.9837   20.9008 N   0  0  0  0  0  0  0  0  0  0  0  0
  -21.3852  -12.6711   22.3917 N   0  0  0  0  0  0  0  0  0  0  0  0
  -23.4130  -26.2899   19.7126 N   0  0  0  0  0  0  0  0  0  0  0  0
  -22.0552  -24.3570   23.1892 N   0  3  1  0  0  0  0  0  0  0  0  0
  -19.4408  -13.4896   25.3272 N   0  3  0  0  0  0  0  0  0  0  0  0
  -28.9819  -19.7991   20.5810 O   0  0  0  0  0  0  0  0  0  0  0  0
  -25.8871  -15.3153   20.1355 O   0  0  0  0  0  0  0  0  0  0  0  0
  -24.1605  -12.0650   22.0188 O   0  0  0  0  0  0  0  0  0  0  0  0
  -20.2742  -14.6421   22.8995 O   0  0  0  0  0  0  0  0  0  0  0  0
  -21.8410  -26.0976   18.0546 O   0  0  0  0  0  0  0  0  0  0  0  0
  -34.0799  -25.1778   18.2006 O   0  0  0  0  0  0  0  0  0  0  0  0
  -23.7078  -20.5118   22.5710 O   0  0  0  0  0  0  0  0  0  1  0  0
  -34.7009  -30.5634   19.2076 F   0  0  0  0  0  0  0  0  0  0  0  0
  -32.6943  -27.0647   16.7300 F   0  0  0  0  0  0  0  0  0  0  0  0
  1  2  1  0  0  0  0
  1  5  2  0  0  0  0
  2  6  2  0  0  0  0
  3  8  2  0  0  0  0
  3 17  1  0  0  0  0
  4  9  1  0  0  0  0
  4 17  2  0  0  0  0
  5 19  1  0  0  0  0
  6 21  1  0  0  0  0
  7 10  2  0  0  0  0
  7 20  1  0  0  0  0
  8 27  1  0  0  0  0
  9 27  2  0  0  0  0
 10 28  1  0  0  0  0
 11 12  2  0  0  0  0
 11 29  1  0  0  0  0
 12 30  1  0  0  0  0
 13 22  1  0  0  0  0
 13 28  2  0  0  0  0
 14 23  1  0  0  0  0
 14 24  2  0  0  0  0
 15 23  2  0  0  0  0
 15 25  1  0  0  0  0
 16 30  2  0  0  0  0
 16 31  1  0  0  0  0
 17 32  1  0  0  0  0
 18 32  1  0  0  0  0
 18 33  2  0  0  0  0
 18 34  1  0  0  0  0
 19 21  2  0  0  0  0
 19 39  1  0  0  0  0
 20 22  2  0  0  0  0
 20 40  1  0  0  0  0
 21 49  1  0  0  0  0
 22 41  1  0  0  0  0
 23 54  1  0  0  0  0
 24 26  1  0  0  0  0
 24 55  1  0  0  0  0
 25 26  2  0  0  0  0
 25 56  1  0  0  0  0
 26 67  1  0  0  0  0
 27 88  1  0  0  0  0
 28 89  1  0  0  0  0
 29 31  2  0  0  0  0
 29 88  1  0  0  0  0
 30 90  1  0  0  0  0
 31 91  1  0  0  0  0
 32 72  2  0  0  0  0
 33 73  1  0  0  0  0
 33 76  1  0  0  0  0
 34 77  1  0  0  0  0
 34 83  2  0  0  0  0
 35 50  1  0  0  0  0
 35 78  1  0  0  0  0
 35 84  2  0  0  0  0
 36 68  1  0  0  0  0
 36 74  1  0  0  0  0
 36 85  2  0  0  0  0
 37 69  1  0  0  0  0
 37 79  1  0  0  0  0
 37 86  2  0  0  0  0
 38 75  1  0  0  0  0
 38 80  1  0  0  0  0
 38 87  2  0  0  0  0
 39 42  1  0  0  0  0
 40 50  1  0  0  0  0
 41 74  1  0  0  0  0
 42 44  1  0  0  0  0
 43 45  1  0  0  0  0
 43 46  1  0  0  0  0
 44 49  1  0  0  0  0
 45 52  1  0  0  0  0
 46 75  1  0  0  0  0
 47 52  1  0  0  0  0
 47 75  1  0  0  0  0
 48 51  1  0  0  0  0
 48 81  1  0  0  0  0
 49 78  1  0  0  0  0
 50 74  1  0  0  0  0
 51 53  1  0  0  0  0
 51 64  1  0  0  0  0
 52 73  1  0  0  0  0
 53 70  1  0  0  0  0
 53 81  1  0  0  0  0
 57 69  1  0  0  0  0
 58 70  1  0  0  0  0
 59 70  1  0  0  0  0
 60 71  1  0  0  0  0
 61 71  1  0  0  0  0
 62 71  1  0  0  0  0
 63 82  1  0  0  0  0
 64 89  1  0  0  0  0
 65 67  1  0  0  0  0
 65 80  1  0  0  0  0
 66 67  1  0  0  0  0
 66 81  1  0  0  0  0
 68 71  1  0  0  0  0
 68 79  1  0  0  0  0
 69 82  1  0  0  0  0
 72 73  1  0  0  0  0
M  CHG  2  81   1  82   1
M  ISO  4  38 100  64 101  80 100  89 101
M  END
> <Batch ID>
0157

> <Smiles>
CNC(C)C(=O)NC(C(=O)N1Cc2cc([101O:1][101CH2:1]C3CN(CC(C[100NH:0][100C:0](=O)N4CCCC(n5nc(-c6ccc(Oc7ccc(F)cc7F)cc6)c(C(N)=O)c5N)C4)c4c(C)cc(C)cc4C)C3C(C)C)ccc2CC1C(=O)NC1CCCc2ccccc21)C(C)(C)C

> <Shape>
0.205

> <Color>
0.068

> <Negative vol penalty>
0.000

$$$$

  -OEChem-04052321593D

 85 93  0     1  0  0  0  0  0999 V2000
  -33.3738  -32.5909   17.9475 C   0  0  0  0  0  0  0  0  0  0  0  0
  -32.9096  -31.3242   17.6078 C   0  0  0  0  0  0  0  0  0  0  0  0
  -25.3884   -9.0027   20.7895 C   0  0  0  0  0  0  0  0  0  0  0  0
  -25.5791   -9.9740   22.9934 C   0  0  0  0  0  0  0  0  0  0  0  0
  -33.1485  -33.0944   19.2280 C   0  0  0  0  0  0  0  0  0  0  0  0
  -32.2208  -30.5597   18.5488 C   0  0  0  0  0  0  0  0  0  0  0  0
  -26.9748  -25.7063   19.0386 C   0  0  0  0  0  0  0  0  0  0  0  0
  -25.5475   -7.7296   21.3367 C   0  0  0  0  0  0  0  0  0  0  0  0
  -25.7382   -8.7009   23.5407 C   0  0  0  0  0  0  0  0  0  0  0  0
  -26.7213  -24.4448   19.5752 C   0  0  0  0  0  0  0  0  0  0  0  0
  -25.5425   -4.1975   22.1963 C   0  0  0  0  0  0  0  0  0  0  0  0
  -24.6838   -3.1904   21.7559 C   0  0  0  0  0  0  0  0  0  0  0  0
  -26.3214  -25.4492   21.7317 C   0  0  0  0  0  0  0  0  0  0  0  0
  -24.3882  -21.1834   23.7480 C   0  0  0  0  0  0  0  0  0  0  0  0
  -26.6536  -20.6724   23.0818 C   0  0  0  0  0  0  0  0  0  0  0  0
  -22.7873   -4.4627   22.5444 C   0  0  0  0  0  0  0  0  0  0  0  0
  -25.4043  -10.1249   21.6178 C   0  0  0  0  0  0  0  0  0  0  0  0
  -24.0326  -12.1348   20.8517 C   0  0  0  0  0  0  0  0  0  0  0  0
  -32.4482  -32.3396   20.1822 C   0  0  0  0  0  0  0  0  0  0  0  0
  -26.9141  -26.8496   19.8483 C   0  0  0  0  0  0  0  0  0  0  0  0
  -31.9872  -31.0530   19.8437 C   0  0  0  0  0  0  0  0  0  0  0  0
  -26.5721  -26.7243   21.2024 C   0  0  0  0  0  0  0  0  0  0  0  0
  -25.6170  -21.5937   23.2310 C   0  0  0  0  0  0  0  0  0  0  0  0
  -24.1960  -19.8517   24.1160 C   0  0  0  0  0  0  0  0  0  0  0  0
  -25.2326  -18.9303   23.9669 C   0  0  0  0  0  0  0  0  0  0  0  0
  -26.4614  -19.3407   23.4498 C   0  0  0  0  0  0  0  0  0  0  0  0
  -25.7224   -7.5787   22.7123 C   0  0  0  0  0  0  0  0  0  0  0  0
  -26.3974  -24.3158   20.9226 C   0  0  0  0  0  0  0  0  0  0  0  0
  -25.0236   -5.3372   22.8107 C   0  0  0  0  0  0  0  0  0  0  0  0
  -23.3062   -3.3230   21.9299 C   0  0  0  0  0  0  0  0  0  0  0  0
  -23.6460   -5.4698   22.9848 C   0  0  0  0  0  0  0  0  0  0  0  0
  -25.2405  -11.4404   21.0530 C   0  0  0  0  0  0  0  0  0  0  0  0
  -24.4129  -13.3304   20.2929 C   0  0  0  0  0  0  0  0  0  0  0  0
  -22.6871  -11.7348   21.1439 C   0  0  0  0  0  0  0  0  0  0  0  0
  -28.9972  -29.0774   20.7436 C   0  0  0  0  0  0  0  0  0  0  0  0
  -26.3725  -30.4432   22.0733 C   0  0  0  0  0  0  0  0  0  0  0  0
  -23.2237  -30.0504   23.3291 C   0  0  0  0  0  0  0  0  0  0  0  0
  -29.4955  -16.4895   20.4892 C   0  0  0  0  0  0  0  0  0  0  0  0
  -32.2702  -32.9068   21.5683 C   0  0  0  0  0  0  0  0  0  0  0  0
  -27.1641  -28.2060   19.2481 C   0  0  0  0  0  0  0  0  0  0  0  0
  -26.4739  -27.9226   22.1096 C   0  0  0  0  0  0  0  0  0  0  0  0
  -31.2053  -32.1848   22.3898 C   0  0  0  0  0  0  0  0  0  0  0  0
  -27.8418  -15.2732   17.5801 C   0  0  0  0  0  0  0  0  0  0  0  0
  -31.3796  -30.6734   22.2794 C   0  0  0  0  0  0  0  0  0  0  0  0
  -26.8786  -14.2156   18.1222 C   0  0  0  0  0  0  0  0  0  0  0  0
  -29.1599  -15.2842   18.3512 C   0  0  0  0  0  0  0  0  0  0  0  0
  -28.0580  -14.3653   20.3550 C   0  0  0  0  0  0  0  0  0  0  0  0
  -31.2143  -30.2035   20.8291 C   0  0  1  0  0  0  0  0  0  0  0  0
  -27.5779  -29.2494   20.2812 C   0  0  1  0  0  0  0  0  0  0  0  0
  -26.6933  -14.3540   19.6452 C   0  0  2  0  0  0  0  0  0  0  0  0
  -22.8707  -19.4384   24.6672 C   0  0  0  0  0  0  0  0  0  0  0  0
  -21.3451  -31.3432   24.3765 C   0  0  0  0  0  0  0  0  0  0  0  0
  -27.9118  -30.5422   24.7059 C   0  0  0  0  0  0  0  0  0  0  0  0
  -25.7366  -30.9328   25.8825 C   0  0  0  0  0  0  0  0  0  0  0  0
  -26.5622  -32.5882   24.2090 C   0  0  0  0  0  0  0  0  0  0  0  0
  -24.5828  -15.1755   23.5705 C   0  0  0  0  0  0  0  0  0  0  0  0
  -21.3685  -29.3624   21.1282 C   0  0  0  0  0  0  0  0  0  0  0  0
  -25.0224  -17.5028   24.3637 C   0  0  0  0  0  0  0  0  0  0  0  0
  -25.8240  -23.0267   22.8372 C   0  0  0  0  0  0  0  0  0  1  0  0
  -28.7979  -18.7966   22.7640 C   0  0  0  0  0  0  0  0  0  0  0  0
  -29.7260  -17.5931   22.7001 C   0  0  0  0  0  0  0  0  0  0  0  0
  -25.6843  -30.3546   23.4140 C   0  0  1  0  0  0  0  0  0  0  0  0
  -21.9366  -30.8155   23.0787 C   0  0  2  0  0  0  0  0  0  0  0  0
  -26.4774  -31.0815   24.5365 C   0  0  0  0  0  0  0  0  0  0  0  0
  -26.3083  -12.1368   20.6543 N   0  0  0  0  0  0  0  0  0  0  0  0
  -25.7725  -13.2812   20.1968 N   0  0  0  0  0  0  0  0  0  0  0  0
  -26.7334  -29.2265   21.4773 N   0  0  0  0  0  0  0  0  0  0  0  0
  -28.9142  -15.4196   19.7890 N   0  0  0  0  0  0  0  0  0  0  0  0
  -23.7136  -14.4084   19.8791 N   0  0  0  0  0  0  0  0  0  0  0  0
  -22.4745  -10.4737   21.7172 N   0  0  0  0  0  0  0  0  0  0  0  0
  -27.5228  -18.4227   23.2901 N   0  0  0  0  0  0  0  0  0  0  0  0
  -29.8132  -30.1582   20.4692 N   0  0  0  0  0  0  0  0  0  0  0  0
  -24.3317  -30.8628   23.2128 N   0  0  0  0  0  0  0  0  0  0  0  0
  -29.2066  -16.5475   21.8471 N   0  0  0  0  0  0  0  0  0  0  0  0
  -24.8502  -16.5910   23.2017 N   0  3  0  0  0  0  0  0  0  0  0  0
  -20.9279  -29.9330   22.4271 N   0  3  0  0  0  0  0  0  0  0  0  0
  -21.7013  -12.4672   20.8885 O   0  0  0  0  0  0  0  0  0  0  0  0
  -29.3271  -28.0414   21.3089 O   0  0  0  0  0  0  0  0  0  0  0  0
  -26.5758  -31.5509   21.5699 O   0  0  0  0  0  0  0  0  0  0  0  0
  -23.2438  -28.8527   23.6043 O   0  0  0  0  0  0  0  0  0  0  0  0
  -30.2141  -17.3338   19.9436 O   0  0  0  0  0  0  0  0  0  0  0  0
  -25.8774   -6.3365   23.2467 O   0  0  0  0  0  0  0  0  0  0  0  0
  -26.1501  -23.0855   21.4492 O   0  0  0  0  0  0  0  0  0  1  0  0
  -22.4816   -2.3564   21.5056 F   0  0  0  0  0  0  0  0  0  0  0  0
  -23.1416   -6.5629   23.5733 F   0  0  0  0  0  0  0  0  0  0  0  0
  1  2  1  0  0  0  0
  1  5  2  0  0  0  0
  2  6  2  0  0  0  0
  3  8  2  0  0  0  0
  3 17  1  0  0  0  0
  4  9  1  0  0  0  0
  4 17  2  0  0  0  0
  5 19  1  0  0  0  0
  6 21  1  0  0  0  0
  7 10  2  0  0  0  0
  7 20  1  0  0  0  0
  8 27  1  0  0  0  0
  9 27  2  0  0  0  0
 10 28  1  0  0  0  0
 11 12  2  0  0  0  0
 11 29  1  0  0  0  0
 12 30  1  0  0  0  0
 13 22  1  0  0  0  0
 13 28  2  0  0  0  0
 14 23  1  0  0  0  0
 14 24  2  0  0  0  0
 15 23  2  0  0  0  0
 15 26  1  0  0  0  0
 16 30  2  0  0  0  0
 16 31  1  0  0  0  0
 17 32  1  0  0  0  0
 18 32  1  0  0  0  0
 18 33  2  0  0  0  0
 18 34  1  0  0  0  0
 19 21  2  0  0  0  0
 19 39  1  0  0  0  0
 20 22  2  0  0  0  0
 20 40  1  0  0  0  0
 21 48  1  0  0  0  0
 22 41  1  0  0  0  0
 23 59  1  0  0  0  0
 24 25  1  0  0  0  0
 24 51  1  0  0  0  0
 25 26  2  0  0  0  0
 25 58  1  0  0  0  0
 26 71  1  0  0  0  0
 27 82  1  0  0  0  0
 28 83  1  0  0  0  0
 29 31  2  0  0  0  0
 29 82  1  0  0  0  0
 30 84  1  0  0  0  0
 31 85  1  0  0  0  0
 32 65  2  0  0  0  0
 33 66  1  0  0  0  0
 33 69  1  0  0  0  0
 34 70  1  0  0  0  0
 34 77  2  0  0  0  0
 35 49  1  0  0  0  0
 35 72  1  0  0  0  0
 35 78  2  0  0  0  0
 36 62  1  0  0  0  0
 36 67  1  0  0  0  0
 36 79  2  0  0  0  0
 37 63  1  0  0  0  0
 37 73  1  0  0  0  0
 37 80  2  0  0  0  0
 38 68  1  0  0  0  0
 38 74  1  0  0  0  0
 38 81  2  0  0  0  0
 39 42  1  0  0  0  0
 40 49  1  0  0  0  0
 41 67  1  0  0  0  0
 42 44  1  0  0  0  0
 43 45  1  0  0  0  0
 43 46  1  0  0  0  0
 44 48  1  0  0  0  0
 45 50  1  0  0  0  0
 46 68  1  0  0  0  0
 47 50  1  0  0  0  0
 47 68  1  0  0  0  0
 48 72  1  0  0  0  0
 49 67  1  0  0  0  0
 50 66  1  0  0  0  0
 52 63  1  0  0  0  0
 53 64  1  0  0  0  0
 54 64  1  0  0  0  0
 55 64  1  0  0  0  0
 56 75  1  0  0  0  0
 57 76  1  0  0  0  0
 58 75  1  0  0  0  0
 59 83  1  0  0  0  0
 60 61  1  0  0  0  0
 60 71  1  0  0  0  0
 61 74  1  0  0  0  0
 62 64  1  0  0  0  0
 62 73  1  0  0  0  0
 63 76  1  0  0  0  0
 65 66  1  0  0  0  0
M  CHG  2  75   1  76   1
M  ISO  4  38 100  59 101  74 100  83 101
M  END
> <Batch ID>
0157

> <Smiles>
CNCc1c(C)cc([101CH2:1][101O:1]c2ccc3c(c2)CN(C(=O)C(NC(=O)C(C)NC)C(C)(C)C)C(C(=O)NC2CCCc4ccccc42)C3)cc1NCC[100NH:0][100C:0](=O)N1CCCC(n2nc(-c3ccc(Oc4ccc(F)cc4F)cc3)c(C(N)=O)c2N)C1

> <Shape>
0.208

> <Color>
0.100

> <Negative vol penalty>
0.000

$$$$

  -OEChem-04052321593D

 87 96  0     1  0  0  0  0  0999 V2000
  -30.4157  -35.9734   20.2194 C   0  0  0  0  0  0  0  0  0  0  0  0
  -30.3884  -34.6129   19.9299 C   0  0  0  0  0  0  0  0  0  0  0  0
  -24.2180   -9.5228   21.5135 C   0  0  0  0  0  0  0  0  0  0  0  0
  -24.7492  -10.6837   23.5647 C   0  0  0  0  0  0  0  0  0  0  0  0
  -29.7809  -36.4543   21.3638 C   0  0  0  0  0  0  0  0  0  0  0  0
  -29.7270  -33.7324   20.7853 C   0  0  0  0  0  0  0  0  0  0  0  0
  -26.6516  -28.6775   19.2054 C   0  0  0  0  0  0  0  0  0  0  0  0
  -23.8601   -8.3914   22.2466 C   0  0  0  0  0  0  0  0  0  0  0  0
  -24.3911   -9.5523   24.2978 C   0  0  0  0  0  0  0  0  0  0  0  0
  -27.0014  -27.3279   19.2065 C   0  0  0  0  0  0  0  0  0  0  0  0
  -21.2090   -7.3337   24.0594 C   0  0  0  0  0  0  0  0  0  0  0  0
  -20.0276   -6.6807   23.7080 C   0  0  0  0  0  0  0  0  0  0  0  0
  -29.6502  -20.6872   19.3903 C   0  0  0  0  0  0  0  0  0  0  0  0
  -31.7349  -20.0836   21.1304 C   0  0  0  0  0  0  0  0  0  0  0  0
  -25.9609  -27.0662   21.3671 C   0  0  0  0  0  0  0  0  0  0  0  0
  -21.2785   -4.6658   23.2468 C   0  0  0  0  0  0  0  0  0  0  0  0
  -24.6626  -10.6689   22.1726 C   0  0  0  0  0  0  0  0  0  0  0  0
  -24.1957  -12.9018   21.0307 C   0  0  0  0  0  0  0  0  0  0  0  0
  -29.1032  -35.5805   22.2285 C   0  0  0  0  0  0  0  0  0  0  0  0
  -25.9622  -29.2350   20.2919 C   0  0  0  0  0  0  0  0  0  0  0  0
  -29.0837  -34.2019   21.9430 C   0  0  0  0  0  0  0  0  0  0  0  0
  -30.4207  -21.7334   19.9265 C   0  0  0  0  0  0  0  0  0  0  0  0
  -31.4720  -21.4257   20.8113 C   0  0  0  0  0  0  0  0  0  0  0  0
  -25.6013  -28.4226   21.3762 C   0  0  0  0  0  0  0  0  0  0  0  0
  -29.9167  -19.3594   19.7228 C   0  0  0  0  0  0  0  0  0  0  0  0
  -23.9466   -8.4061   23.6387 C   0  0  0  0  0  0  0  0  0  0  0  0
  -26.6586  -26.5227   20.2888 C   0  0  0  0  0  0  0  0  0  0  0  0
  -22.4252   -6.6528   24.0044 C   0  0  0  0  0  0  0  0  0  0  0  0
  -30.9587  -19.0578   20.5932 C   0  0  0  0  0  0  0  0  0  0  0  0
  -20.0624   -5.3468   23.3018 C   0  0  0  0  0  0  0  0  0  0  0  0
  -22.4599   -5.3189   23.5982 C   0  0  0  0  0  0  0  0  0  0  0  0
  -25.0331  -11.8378   21.4159 C   0  0  0  0  0  0  0  0  0  0  0  0
  -25.0198  -13.7534   20.3364 C   0  0  0  0  0  0  0  0  0  0  0  0
  -22.7978  -13.1025   21.2786 C   0  0  0  0  0  0  0  0  0  0  0  0
  -26.5892  -31.5170   22.4139 C   0  0  0  0  0  0  0  0  0  0  0  0
  -23.5212  -30.9775   23.3190 C   0  0  0  0  0  0  0  0  0  0  0  0
  -20.8697  -28.8322   23.4358 C   0  0  0  0  0  0  0  0  0  0  0  0
  -30.9308  -14.7010   20.4487 C   0  0  0  0  0  0  0  0  0  0  0  0
  -28.4721  -36.1407   23.4785 C   0  0  0  0  0  0  0  0  0  0  0  0
  -25.5687  -30.6865   20.2634 C   0  0  0  0  0  0  0  0  0  0  0  0
  -32.3763  -22.4920   21.3765 C   0  0  0  0  0  0  0  0  0  0  0  0
  -24.8433  -28.9679   22.5580 C   0  0  0  0  0  0  0  0  0  0  0  0
  -27.4741  -35.1906   24.1354 C   0  0  0  0  0  0  0  0  0  0  0  0
  -31.8091  -23.9034   21.2568 C   0  0  0  0  0  0  0  0  0  0  0  0
  -28.9654  -13.7678   17.6303 C   0  0  0  0  0  0  0  0  0  0  0  0
  -31.2399  -24.1327   19.8619 C   0  0  0  0  0  0  0  0  0  0  0  0
  -28.0571  -33.7840   24.2272 C   0  0  0  0  0  0  0  0  0  0  0  0
  -27.6592  -13.2634   18.2462 C   0  0  0  0  0  0  0  0  0  0  0  0
  -30.1740  -13.3935   18.4854 C   0  0  0  0  0  0  0  0  0  0  0  0
  -28.7782  -13.3016   20.5145 C   0  0  0  0  0  0  0  0  0  0  0  0
  -30.0839  -23.1661   19.5561 C   0  0  2  0  0  0  0  0  0  0  0  0
  -28.3555  -33.2185   22.8334 C   0  0  1  0  0  0  0  0  0  0  0  0
  -25.3185  -31.2651   21.6526 C   0  0  1  0  0  0  0  0  0  0  0  0
  -27.5259  -13.7033   19.7166 C   0  0  2  0  0  0  0  0  0  0  0  0
  -29.0751  -18.2761   19.1341 C   0  0  0  0  0  0  0  0  0  0  0  0
  -18.5102  -28.6604   24.2728 C   0  0  0  0  0  0  0  0  0  0  0  0
  -24.5605  -30.5840   26.1606 C   0  0  0  0  0  0  0  0  0  0  0  0
  -22.3750  -29.5066   26.7362 C   0  0  0  0  0  0  0  0  0  0  0  0
  -22.4333  -31.8891   25.9992 C   0  0  0  0  0  0  0  0  0  0  0  0
  -19.8058  -28.4378   20.7024 C   0  0  0  0  0  0  0  0  0  0  0  0
  -28.7908  -23.6107   20.2515 C   0  0  0  0  0  0  0  0  0  0  0  0
  -31.5504  -15.9680   22.4907 C   0  0  0  0  0  0  0  0  0  0  0  0
  -28.1858  -24.8392   19.5893 C   0  0  0  0  0  0  0  0  0  1  0  0
  -31.1599  -17.4240   22.3096 C   0  0  0  0  0  0  0  0  0  0  0  0
  -22.8437  -30.0574   24.3055 C   0  0  1  0  0  0  0  0  0  0  0  0
  -19.4026  -29.0246   23.0965 C   0  0  2  0  0  0  0  0  0  0  0  0
  -23.0691  -30.4991   25.7791 C   0  0  0  0  0  0  0  0  0  0  0  0
  -26.2926  -11.9965   21.0005 N   0  0  0  0  0  0  0  0  0  0  0  0
  -26.2526  -13.1702   20.3471 N   0  0  0  0  0  0  0  0  0  0  0  0
  -24.4868  -30.3945   22.4861 N   0  0  0  0  0  0  0  0  0  0  0  0
  -29.9849  -13.8403   19.8677 N   0  0  0  0  0  0  0  0  0  0  0  0
  -24.8028  -14.9366   19.7237 N   0  0  0  0  0  0  0  0  0  0  0  0
  -22.1022  -12.1292   22.0087 N   0  0  0  0  0  0  0  0  0  0  0  0
  -27.1353  -32.7680   22.1989 N   0  0  0  0  0  0  0  0  0  0  0  0
  -21.4413  -29.9946   23.9084 N   0  0  0  0  0  0  0  0  0  0  0  0
  -30.6726  -15.0813   21.7599 N   0  0  0  0  0  0  0  0  0  0  0  0
  -19.0229  -28.1700   21.9362 N   0  3  0  0  0  0  0  0  0  0  0  0
  -22.1802  -14.1070   20.8507 O   0  0  0  0  0  0  0  0  0  0  0  0
  -27.0399  -30.6418   23.1436 O   0  0  0  0  0  0  0  0  0  0  0  0
  -23.2003  -32.1680   23.2835 O   0  0  0  0  0  0  0  0  0  0  0  0
  -21.4495  -27.7572   23.2990 O   0  0  0  0  0  0  0  0  0  0  0  0
  -31.9286  -15.1050   19.8419 O   0  0  0  0  0  0  0  0  0  0  0  0
  -23.5971   -7.3023   24.3543 O   0  0  0  0  0  0  0  0  0  0  0  0
  -26.9994  -25.2053   20.2927 O   0  0  0  0  0  0  0  0  0  1  0  0
  -31.2373  -17.7668   20.9274 O   0  0  0  0  0  0  0  0  0  0  0  0
  -18.9276   -4.7193   22.9658 F   0  0  0  0  0  0  0  0  0  0  0  0
  -23.6252   -4.6592   23.5445 F   0  0  0  0  0  0  0  0  0  0  0  0
  1  2  1  0  0  0  0
  1  5  2  0  0  0  0
  2  6  2  0  0  0  0
  3  8  2  0  0  0  0
  3 17  1  0  0  0  0
  4  9  1  0  0  0  0
  4 17  2  0  0  0  0
  5 19  1  0  0  0  0
  6 21  1  0  0  0  0
  7 10  2  0  0  0  0
  7 20  1  0  0  0  0
  8 26  1  0  0  0  0
  9 26  2  0  0  0  0
 10 27  1  0  0  0  0
 11 12  2  0  0  0  0
 11 28  1  0  0  0  0
 12 30  1  0  0  0  0
 13 22  1  0  0  0  0
 13 25  2  0  0  0  0
 14 23  1  0  0  0  0
 14 29  2  0  0  0  0
 15 24  1  0  0  0  0
 15 27  2  0  0  0  0
 16 30  2  0  0  0  0
 16 31  1  0  0  0  0
 17 32  1  0  0  0  0
 18 32  1  0  0  0  0
 18 33  2  0  0  0  0
 18 34  1  0  0  0  0
 19 21  2  0  0  0  0
 19 39  1  0  0  0  0
 20 24  2  0  0  0  0
 20 40  1  0  0  0  0
 21 52  1  0  0  0  0
 22 23  2  0  0  0  0
 22 51  1  0  0  0  0
 23 41  1  0  0  0  0
 24 42  1  0  0  0  0
 25 29  1  0  0  0  0
 25 55  1  0  0  0  0
 26 83  1  0  0  0  0
 27 84  1  0  0  0  0
 28 31  2  0  0  0  0
 28 83  1  0  0  0  0
 29 85  1  0  0  0  0
 30 86  1  0  0  0  0
 31 87  1  0  0  0  0
 32 68  2  0  0  0  0
 33 69  1  0  0  0  0
 33 72  1  0  0  0  0
 34 73  1  0  0  0  0
 34 78  2  0  0  0  0
 35 53  1  0  0  0  0
 35 74  1  0  0  0  0
 35 79  2  0  0  0  0
 36 65  1  0  0  0  0
 36 70  1  0  0  0  0
 36 80  2  0  0  0  0
 37 66  1  0  0  0  0
 37 75  1  0  0  0  0
 37 81  2  0  0  0  0
 38 71  1  0  0  0  0
 38 76  1  0  0  0  0
 38 82  2  0  0  0  0
 39 43  1  0  0  0  0
 40 53  1  0  0  0  0
 41 44  1  0  0  0  0
 42 70  1  0  0  0  0
 43 47  1  0  0  0  0
 44 46  1  0  0  0  0
 45 48  1  0  0  0  0
 45 49  1  0  0  0  0
 46 51  1  0  0  0  0
 47 52  1  0  0  0  0
 48 54  1  0  0  0  0
 49 71  1  0  0  0  0
 50 54  1  0  0  0  0
 50 71  1  0  0  0  0
 51 61  1  0  0  0  0
 52 74  1  0  0  0  0
 53 70  1  0  0  0  0
 54 69  1  0  0  0  0
 56 66  1  0  0  0  0
 57 67  1  0  0  0  0
 58 67  1  0  0  0  0
 59 67  1  0  0  0  0
 60 77  1  0  0  0  0
 61 63  1  0  0  0  0
 62 64  1  0  0  0  0
 62 76  1  0  0  0  0
 63 84  1  0  0  0  0
 64 85  1  0  0  0  0
 65 67  1  0  0  0  0
 65 75  1  0  0  0  0
 66 77  1  0  0  0  0
 68 69  1  0  0  0  0
M  CHG  1  77   1
M  ISO  4  38 100  63 101  76 100  84 101
M  END
> <Batch ID>
0157

> <Smiles>
CNC(C)C(=O)NC(C(=O)N1Cc2cc([101O:1][101CH2:1]CC3CCCc4cc(OCC[100NH:0][100C:0](=O)N5CCCC(n6nc(-c7ccc(Oc8ccc(F)cc8F)cc7)c(C(N)=O)c6N)C5)c(C)cc43)ccc2CC1C(=O)NC1CCCc2ccccc21)C(C)(C)C

> <Shape>
0.337

> <Color>
0.161

> <Negative vol penalty>
0.000

$$$$

  -OEChem-04052321593D

 88 97  0     1  0  0  0  0  0999 V2000
  -22.3149  -33.3090   20.6980 C   0  0  0  0  0  0  0  0  0  0  0  0
  -23.4744  -32.7649   21.2412 C   0  0  0  0  0  0  0  0  0  0  0  0
  -23.0761   -9.8725   19.9392 C   0  0  0  0  0  0  0  0  0  0  0  0
  -23.8393   -9.8739   22.2315 C   0  0  0  0  0  0  0  0  0  0  0  0
  -21.1383  -32.5613   20.6781 C   0  0  0  0  0  0  0  0  0  0  0  0
  -23.4575  -31.4731   21.7659 C   0  0  0  0  0  0  0  0  0  0  0  0
  -28.0069  -27.3762   21.6091 C   0  0  0  0  0  0  0  0  0  0  0  0
  -22.3341   -8.7177   20.1869 C   0  0  0  0  0  0  0  0  0  0  0  0
  -23.0972   -8.7191   22.4792 C   0  0  0  0  0  0  0  0  0  0  0  0
  -28.9668  -27.0040   22.5492 C   0  0  0  0  0  0  0  0  0  0  0  0
  -19.8710   -7.9154   23.0841 C   0  0  0  0  0  0  0  0  0  0  0  0
  -19.1158   -7.8712   24.2560 C   0  0  0  0  0  0  0  0  0  0  0  0
  -30.2075  -19.2239   22.6463 C   0  0  0  0  0  0  0  0  0  0  0  0
  -32.4505  -18.3285   22.5852 C   0  0  0  0  0  0  0  0  0  0  0  0
  -27.5723  -25.1585   23.2336 C   0  0  0  0  0  0  0  0  0  0  0  0
  -20.3607   -5.9332   24.9851 C   0  0  0  0  0  0  0  0  0  0  0  0
  -23.8288  -10.4506   20.9615 C   0  0  0  0  0  0  0  0  0  0  0  0
  -24.1672  -12.9765   20.8482 C   0  0  0  0  0  0  0  0  0  0  0  0
  -21.1095  -31.2561   21.1941 C   0  0  0  0  0  0  0  0  0  0  0  0
  -26.8156  -26.6476   21.4815 C   0  0  0  0  0  0  0  0  0  0  0  0
  -22.2791  -30.7077   21.7542 C   0  0  0  0  0  0  0  0  0  0  0  0
  -31.5789  -19.3867   22.8419 C   0  0  0  0  0  0  0  0  0  0  0  0
  -26.6000  -25.5220   22.2893 C   0  0  0  0  0  0  0  0  0  0  0  0
  -29.7076  -18.0027   22.1940 C   0  0  0  0  0  0  0  0  0  0  0  0
  -30.5793  -16.9444   21.9372 C   0  0  0  0  0  0  0  0  0  0  0  0
  -22.3446   -8.1410   21.4569 C   0  0  0  0  0  0  0  0  0  0  0  0
  -28.7483  -25.8967   23.3636 C   0  0  0  0  0  0  0  0  0  0  0  0
  -20.8710   -6.9685   22.8627 C   0  0  0  0  0  0  0  0  0  0  0  0
  -31.9507  -17.1072   22.1328 C   0  0  0  0  0  0  0  0  0  0  0  0
  -19.3607   -6.8801   25.2065 C   0  0  0  0  0  0  0  0  0  0  0  0
  -21.1159   -5.9775   23.8132 C   0  0  0  0  0  0  0  0  0  0  0  0
  -24.5960  -11.6432   20.7060 C   0  0  0  0  0  0  0  0  0  0  0  0
  -25.2579  -13.7284   20.4855 C   0  0  0  0  0  0  0  0  0  0  0  0
  -22.8967  -13.4895   21.2704 C   0  0  0  0  0  0  0  0  0  0  0  0
  -23.7295  -27.3108   21.8551 C   0  0  0  0  0  0  0  0  0  0  0  0
  -23.3432  -24.3066   20.6941 C   0  0  0  0  0  0  0  0  0  0  0  0
  -24.6607  -21.1958   20.2104 C   0  0  0  0  0  0  0  0  0  0  0  0
  -30.7230  -14.7805   20.6553 C   0  0  0  0  0  0  0  0  0  0  0  0
  -19.8022  -30.5040   21.1934 C   0  0  0  0  0  0  0  0  0  0  0  0
  -25.8020  -27.0462   20.4441 C   0  0  0  0  0  0  0  0  0  0  0  0
  -25.3467  -24.6942   22.1778 C   0  0  0  0  0  0  0  0  0  0  0  0
  -19.9621  -29.0044   21.4299 C   0  0  0  0  0  0  0  0  0  0  0  0
  -29.6083  -12.3721   18.2817 C   0  0  0  0  0  0  0  0  0  0  0  0
  -20.9067  -28.7461   22.5994 C   0  0  0  0  0  0  0  0  0  0  0  0
  -28.1696  -12.0774   18.7125 C   0  0  0  0  0  0  0  0  0  0  0  0
  -31.7847  -21.8110   22.3245 C   0  0  0  0  0  0  0  0  0  0  0  0
  -31.5370  -21.0247   24.7134 C   0  0  0  0  0  0  0  0  0  0  0  0
  -30.5248  -12.5986   19.4827 C   0  0  0  0  0  0  0  0  0  0  0  0
  -28.6189  -13.3167   20.8688 C   0  0  0  0  0  0  0  0  0  0  0  0
  -32.2460  -23.1718   22.8304 C   0  0  0  0  0  0  0  0  0  0  0  0
  -32.0005  -22.3914   25.2011 C   0  0  0  0  0  0  0  0  0  0  0  0
  -32.1154  -20.6945   23.3280 C   0  0  0  0  0  0  0  0  0  0  0  0
  -22.3069  -29.3007   22.3106 C   0  0  1  0  0  0  0  0  0  0  0  0
  -24.3978  -26.5368   20.7542 C   0  0  1  0  0  0  0  0  0  0  0  0
  -27.6446  -13.1455   19.6919 C   0  0  2  0  0  0  0  0  0  0  0  0
  -28.2336  -17.8580   21.9948 C   0  0  0  0  0  0  0  0  0  0  0  0
  -24.0928  -18.9408   19.2672 C   0  0  0  0  0  0  0  0  0  0  0  0
  -21.6386  -23.7100   23.1534 C   0  0  0  0  0  0  0  0  0  0  0  0
  -21.8988  -21.2701   22.6558 C   0  0  0  0  0  0  0  0  0  0  0  0
  -20.7538  -22.7606   21.0156 C   0  0  0  0  0  0  0  0  0  0  0  0
  -26.8402  -21.3531   18.2144 C   0  0  0  0  0  0  0  0  0  0  0  0
  -34.2039  -16.3463   22.1181 C   0  0  0  0  0  0  0  0  0  0  0  0
  -31.9494  -24.8268   24.6710 C   0  0  0  0  0  0  0  0  0  0  0  0
  -31.0455  -25.8251   23.9749 C   0  0  0  0  0  0  0  0  0  1  0  0
  -23.2601  -22.9277   21.3029 C   0  0  1  0  0  0  0  0  0  0  0  0
  -24.7093  -20.3019   18.9844 C   0  0  2  0  0  0  0  0  0  0  0  0
  -21.9107  -22.6836   22.0356 C   0  0  0  0  0  0  0  0  0  0  0  0
  -25.8604  -11.5502   20.2856 N   0  0  0  0  0  0  0  0  0  0  0  0
  -26.2354  -12.8346   20.1604 N   0  0  0  0  0  0  0  0  0  0  0  0
  -24.3828  -25.1279   21.1529 N   0  0  0  0  0  0  0  0  0  0  0  0
  -29.9658  -13.6262   20.3638 N   0  0  0  0  0  0  0  0  0  0  0  0
  -25.4665  -15.0604   20.4160 N   0  0  0  0  0  0  0  0  0  0  0  0
  -21.8864  -12.5781   21.6065 N   0  0  0  0  0  0  0  0  0  0  0  0
  -30.0756  -15.7024   21.4773 N   0  0  0  0  0  0  0  0  0  0  0  0
  -23.0263  -28.4172   21.4182 N   0  0  0  0  0  0  0  0  0  0  0  0
  -23.5315  -21.9869   20.2213 N   0  0  0  0  0  0  0  0  0  0  0  0
  -31.6326  -23.4591   24.1879 N   0  3  0  0  0  0  0  0  0  0  0  0
  -26.1195  -20.0976   18.5479 N   0  3  0  0  0  0  0  0  0  0  0  0
  -22.6590  -14.7197   21.3316 O   0  0  0  0  0  0  0  0  0  0  0  0
  -23.8422  -26.9315   23.0148 O   0  0  0  0  0  0  0  0  0  0  0  0
  -22.5204  -24.6401   19.8377 O   0  0  0  0  0  0  0  0  0  0  0  0
  -25.5352  -21.1900   21.0741 O   0  0  0  0  0  0  0  0  0  0  0  0
  -31.8512  -14.9520   20.1865 O   0  0  0  0  0  0  0  0  0  0  0  0
  -21.6205   -7.0143   21.6991 O   0  0  0  0  0  0  0  0  0  0  0  0
  -32.8207  -16.0863   21.8895 O   0  0  0  0  0  0  0  0  0  0  0  0
  -29.6833  -25.5317   24.2825 O   0  0  0  0  0  0  0  0  0  1  0  0
  -18.6364   -6.8387   26.3325 F   0  0  0  0  0  0  0  0  0  0  0  0
  -22.0761   -5.0658   23.6066 F   0  0  0  0  0  0  0  0  0  0  0  0
  1  2  1  0  0  0  0
  1  5  2  0  0  0  0
  2  6  2  0  0  0  0
  3  8  2  0  0  0  0
  3 17  1  0  0  0  0
  4  9  1  0  0  0  0
  4 17  2  0  0  0  0
  5 19  1  0  0  0  0
  6 21  1  0  0  0  0
  7 10  2  0  0  0  0
  7 20  1  0  0  0  0
  8 26  1  0  0  0  0
  9 26  2  0  0  0  0
 10 27  1  0  0  0  0
 11 12  2  0  0  0  0
 11 28  1  0  0  0  0
 12 30  1  0  0  0  0
 13 22  1  0  0  0  0
 13 24  2  0  0  0  0
 14 22  2  0  0  0  0
 14 29  1  0  0  0  0
 15 23  1  0  0  0  0
 15 27  2  0  0  0  0
 16 30  2  0  0  0  0
 16 31  1  0  0  0  0
 17 32  1  0  0  0  0
 18 32  1  0  0  0  0
 18 33  2  0  0  0  0
 18 34  1  0  0  0  0
 19 21  2  0  0  0  0
 19 39  1  0  0  0  0
 20 23  2  0  0  0  0
 20 40  1  0  0  0  0
 21 53  1  0  0  0  0
 22 52  1  0  0  0  0
 23 41  1  0  0  0  0
 24 25  1  0  0  0  0
 24 56  1  0  0  0  0
 25 29  2  0  0  0  0
 25 74  1  0  0  0  0
 26 84  1  0  0  0  0
 27 86  1  0  0  0  0
 28 31  2  0  0  0  0
 28 84  1  0  0  0  0
 29 85  1  0  0  0  0
 30 87  1  0  0  0  0
 31 88  1  0  0  0  0
 32 68  2  0  0  0  0
 33 69  1  0  0  0  0
 33 72  1  0  0  0  0
 34 73  1  0  0  0  0
 34 79  2  0  0  0  0
 35 54  1  0  0  0  0
 35 75  1  0  0  0  0
 35 80  2  0  0  0  0
 36 65  1  0  0  0  0
 36 70  1  0  0  0  0
 36 81  2  0  0  0  0
 37 66  1  0  0  0  0
 37 76  1  0  0  0  0
 37 82  2  0  0  0  0
 38 71  1  0  0  0  0
 38 74  1  0  0  0  0
 38 83  2  0  0  0  0
 39 42  1  0  0  0  0
 40 54  1  0  0  0  0
 41 70  1  0  0  0  0
 42 44  1  0  0  0  0
 43 45  1  0  0  0  0
 43 48  1  0  0  0  0
 44 53  1  0  0  0  0
 45 55  1  0  0  0  0
 46 50  1  0  0  0  0
 46 52  1  0  0  0  0
 47 51  1  0  0  0  0
 47 52  1  0  0  0  0
 48 71  1  0  0  0  0
 49 55  1  0  0  0  0
 49 71  1  0  0  0  0
 50 77  1  0  0  0  0
 51 77  1  0  0  0  0
 53 75  1  0  0  0  0
 54 70  1  0  0  0  0
 55 69  1  0  0  0  0
 57 66  1  0  0  0  0
 58 67  1  0  0  0  0
 59 67  1  0  0  0  0
 60 67  1  0  0  0  0
 61 78  1  0  0  0  0
 62 85  1  0  0  0  0
 63 64  1  0  0  0  0
 63 77  1  0  0  0  0
 64 86  1  0  0  0  0
 65 67  1  0  0  0  0
 65 76  1  0  0  0  0
 66 78  1  0  0  0  0
 68 69  1  0  0  0  0
M  CHG  2  77   1  78   1
M  ISO  4  38 100  64 101  74 100  86 101
M  END
> <Batch ID>
0157

> <Smiles>
CNC(C)C(=O)NC(C(=O)N1Cc2cc([101O:1][101CH2:1]CN3CCC(c4cc(C)c([100NH:0][100C:0](=O)N5CCCC(n6nc(-c7ccc(Oc8ccc(F)cc8F)cc7)c(C(N)=O)c6N)C5)c(OC)c4)CC3)ccc2CC1C(=O)NC1CCCc2ccccc21)C(C)(C)C

> <Shape>
0.238

> <Color>
0.185

> <Negative vol penalty>
0.000

$$$$

  -OEChem-04052321593D

 86 95  0     1  0  0  0  0  0999 V2000
  -27.5937  -37.8368   18.7630 C   0  0  0  0  0  0  0  0  0  0  0  0
  -28.0896  -36.5393   18.6862 C   0  0  0  0  0  0  0  0  0  0  0  0
  -24.7070   -8.2013   20.5831 C   0  0  0  0  0  0  0  0  0  0  0  0
  -23.0662   -9.9470   20.2710 C   0  0  0  0  0  0  0  0  0  0  0  0
  -26.7003  -38.1816   19.7764 C   0  0  0  0  0  0  0  0  0  0  0  0
  -27.6931  -35.5859   19.6234 C   0  0  0  0  0  0  0  0  0  0  0  0
  -26.8396  -29.6000   18.6507 C   0  0  0  0  0  0  0  0  0  0  0  0
  -23.7302   -7.3851   21.1535 C   0  0  0  0  0  0  0  0  0  0  0  0
  -22.0894   -9.1308   20.8414 C   0  0  0  0  0  0  0  0  0  0  0  0
  -27.6472  -28.4875   18.8829 C   0  0  0  0  0  0  0  0  0  0  0  0
  -21.1885   -5.4258   20.0888 C   0  0  0  0  0  0  0  0  0  0  0  0
  -21.1342   -4.0945   19.6762 C   0  0  0  0  0  0  0  0  0  0  0  0
  -27.7384  -20.8631   22.6935 C   0  0  0  0  0  0  0  0  0  0  0  0
  -28.3418  -21.7565   20.5314 C   0  0  0  0  0  0  0  0  0  0  0  0
  -26.5259  -28.1202   20.9869 C   0  0  0  0  0  0  0  0  0  0  0  0
  -21.5331   -3.3743   21.9476 C   0  0  0  0  0  0  0  0  0  0  0  0
  -24.3750   -9.4822   20.1419 C   0  0  0  0  0  0  0  0  0  0  0  0
  -25.7325  -10.4108   18.1918 C   0  0  0  0  0  0  0  0  0  0  0  0
  -26.2851  -37.2295   20.7207 C   0  0  0  0  0  0  0  0  0  0  0  0
  -25.8749  -29.9880   19.5916 C   0  0  0  0  0  0  0  0  0  0  0  0
  -26.7943  -35.9186   20.6511 C   0  0  0  0  0  0  0  0  0  0  0  0
  -28.3731  -20.7162   21.4601 C   0  0  0  0  0  0  0  0  0  0  0  0
  -25.7056  -29.2365   20.7632 C   0  0  0  0  0  0  0  0  0  0  0  0
  -27.0410  -23.0905   22.0695 C   0  0  0  0  0  0  0  0  0  0  0  0
  -22.4214   -7.8499   21.2827 C   0  0  0  0  0  0  0  0  0  0  0  0
  -27.4924  -27.7491   20.0524 C   0  0  0  0  0  0  0  0  0  0  0  0
  -21.4151   -5.7314   21.4308 C   0  0  0  0  0  0  0  0  0  0  0  0
  -27.0723  -22.0502   22.9982 C   0  0  0  0  0  0  0  0  0  0  0  0
  -27.6758  -22.9437   20.8361 C   0  0  0  0  0  0  0  0  0  0  0  0
  -21.3065   -3.0688   20.6056 C   0  0  0  0  0  0  0  0  0  0  0  0
  -21.5875   -4.7057   22.3602 C   0  0  0  0  0  0  0  0  0  0  0  0
  -25.3837  -10.3260   19.5531 C   0  0  0  0  0  0  0  0  0  0  0  0
  -26.7358  -11.3479   18.1522 C   0  0  0  0  0  0  0  0  0  0  0  0
  -25.1973   -9.7055   17.0640 C   0  0  0  0  0  0  0  0  0  0  0  0
  -25.3911  -32.5771   21.3710 C   0  0  0  0  0  0  0  0  0  0  0  0
  -22.6374  -31.0501   22.1506 C   0  0  0  0  0  0  0  0  0  0  0  0
  -20.9365  -28.1045   22.4279 C   0  0  0  0  0  0  0  0  0  0  0  0
  -28.5945  -16.3107   19.6287 C   0  0  0  0  0  0  0  0  0  0  0  0
  -25.3543  -37.6613   21.8261 C   0  0  0  0  0  0  0  0  0  0  0  0
  -24.9935  -31.1748   19.3139 C   0  0  0  0  0  0  0  0  0  0  0  0
  -24.6707  -29.5993   21.7955 C   0  0  0  0  0  0  0  0  0  0  0  0
  -24.6941  -36.4950   22.5568 C   0  0  0  0  0  0  0  0  0  0  0  0
  -29.4172  -13.4875   21.8350 C   0  0  0  0  0  0  0  0  0  0  0  0
  -25.7276  -35.4275   22.9021 C   0  0  0  0  0  0  0  0  0  0  0  0
  -28.4086  -12.4454   21.3647 C   0  0  0  0  0  0  0  0  0  0  0  0
  -28.8743  -14.9132   21.7329 C   0  0  0  0  0  0  0  0  0  0  0  0
  -28.5232  -18.0243   21.5801 C   0  0  0  0  0  0  0  0  0  0  0  0
  -29.0515  -18.8086   19.6774 C   0  0  0  0  0  0  0  0  0  0  0  0
  -27.3401  -14.2009   19.9103 C   0  0  0  0  0  0  0  0  0  0  0  0
  -29.1316  -19.3674   21.1131 C   0  0  0  0  0  0  0  0  0  0  0  0
  -26.3687  -34.8499   21.6344 C   0  0  1  0  0  0  0  0  0  0  0  0
  -24.3928  -31.7818   20.5781 C   0  0  1  0  0  0  0  0  0  0  0  0
  -27.9154  -12.7788   19.9492 C   0  0  2  0  0  0  0  0  0  0  0  0
  -26.3272  -24.3629   22.3958 C   0  0  0  0  0  0  0  0  0  0  0  0
  -18.7151  -27.1709   23.1288 C   0  0  0  0  0  0  0  0  0  0  0  0
  -23.4107  -31.4155   25.0794 C   0  0  0  0  0  0  0  0  0  0  0  0
  -21.7054  -29.6814   25.6737 C   0  0  0  0  0  0  0  0  0  0  0  0
  -20.9913  -31.8079   24.5825 C   0  0  0  0  0  0  0  0  0  0  0  0
  -20.4101  -27.0175   19.7260 C   0  0  0  0  0  0  0  0  0  0  0  0
  -27.2371  -22.7090   25.2773 C   0  0  0  0  0  0  0  0  0  0  0  0
  -28.7388  -25.9406   19.1403 C   0  0  0  0  0  0  0  0  0  1  0  0
  -28.9130  -24.4796   19.5072 C   0  0  0  0  0  0  0  0  0  0  0  0
  -22.2248  -30.0701   23.2222 C   0  0  1  0  0  0  0  0  0  0  0  0
  -19.5480  -27.6961   21.9699 C   0  0  2  0  0  0  0  0  0  0  0  0
  -22.1039  -30.7378   24.6211 C   0  0  0  0  0  0  0  0  0  0  0  0
  -26.1068  -11.1439   20.3226 N   0  0  0  0  0  0  0  0  0  0  0  0
  -26.9201  -11.7515   19.4419 N   0  0  0  0  0  0  0  0  0  0  0  0
  -23.8375  -30.7717   21.4813 N   0  0  0  0  0  0  0  0  0  0  0  0
  -28.2952  -15.1931   20.4150 N   0  0  0  0  0  0  0  0  0  0  0  0
  -28.9078  -17.4866   20.2806 N   0  0  0  0  0  0  0  0  0  0  0  0
  -27.4697  -11.8578   17.1403 N   0  0  0  0  0  0  0  0  0  0  0  0
  -24.1698   -8.7777   17.2824 N   0  0  0  0  0  0  0  0  0  0  0  0
  -25.4736  -33.9058   21.0005 N   0  0  0  0  0  0  0  0  0  0  0  0
  -20.9944  -29.4437   22.7507 N   0  0  0  0  0  0  0  0  0  0  0  0
  -19.6374  -26.6286   20.9337 N   0  3  0  0  0  0  0  0  0  0  0  0
  -25.6291   -9.8806   15.8994 O   0  0  0  0  0  0  0  0  0  0  0  0
  -26.0375  -32.0264   22.2546 O   0  0  0  0  0  0  0  0  0  0  0  0
  -21.9175  -32.0228   21.9111 O   0  0  0  0  0  0  0  0  0  0  0  0
  -21.8748  -27.3136   22.4963 O   0  0  0  0  0  0  0  0  0  0  0  0
  -28.5522  -16.2746   18.3923 O   0  0  0  0  0  0  0  0  0  0  0  0
  -21.4680   -7.0536   21.8390 O   0  0  0  0  0  0  0  0  0  0  0  0
  -26.4584  -22.1761   24.2082 O   0  0  0  0  0  0  0  0  0  0  0  0
  -28.2851  -26.6557   20.2833 O   0  0  0  0  0  0  0  0  0  1  0  0
  -27.6542  -23.9487   19.9162 O   0  0  0  0  0  0  0  0  0  0  0  0
  -21.2529   -1.7903   20.2095 F   0  0  0  0  0  0  0  0  0  0  0  0
  -21.8043   -4.9930   23.6510 F   0  0  0  0  0  0  0  0  0  0  0  0
  1  2  1  0  0  0  0
  1  5  2  0  0  0  0
  2  6  2  0  0  0  0
  3  8  2  0  0  0  0
  3 17  1  0  0  0  0
  4  9  1  0  0  0  0
  4 17  2  0  0  0  0
  5 19  1  0  0  0  0
  6 21  1  0  0  0  0
  7 10  2  0  0  0  0
  7 20  1  0  0  0  0
  8 25  1  0  0  0  0
  9 25  2  0  0  0  0
 10 26  1  0  0  0  0
 11 12  2  0  0  0  0
 11 27  1  0  0  0  0
 12 30  1  0  0  0  0
 13 22  1  0  0  0  0
 13 28  2  0  0  0  0
 14 22  2  0  0  0  0
 14 29  1  0  0  0  0
 15 23  1  0  0  0  0
 15 26  2  0  0  0  0
 16 30  2  0  0  0  0
 16 31  1  0  0  0  0
 17 32  1  0  0  0  0
 18 32  1  0  0  0  0
 18 33  2  0  0  0  0
 18 34  1  0  0  0  0
 19 21  2  0  0  0  0
 19 39  1  0  0  0  0
 20 23  2  0  0  0  0
 20 40  1  0  0  0  0
 21 51  1  0  0  0  0
 22 50  1  0  0  0  0
 23 41  1  0  0  0  0
 24 28  1  0  0  0  0
 24 29  2  0  0  0  0
 24 54  1  0  0  0  0
 25 81  1  0  0  0  0
 26 83  1  0  0  0  0
 27 31  2  0  0  0  0
 27 81  1  0  0  0  0
 28 82  1  0  0  0  0
 29 84  1  0  0  0  0
 30 85  1  0  0  0  0
 31 86  1  0  0  0  0
 32 66  2  0  0  0  0
 33 67  1  0  0  0  0
 33 71  1  0  0  0  0
 34 72  1  0  0  0  0
 34 76  2  0  0  0  0
 35 52  1  0  0  0  0
 35 73  1  0  0  0  0
 35 77  2  0  0  0  0
 36 63  1  0  0  0  0
 36 68  1  0  0  0  0
 36 78  2  0  0  0  0
 37 64  1  0  0  0  0
 37 74  1  0  0  0  0
 37 79  2  0  0  0  0
 38 69  1  0  0  0  0
 38 70  1  0  0  0  0
 38 80  2  0  0  0  0
 39 42  1  0  0  0  0
 40 52  1  0  0  0  0
 41 68  1  0  0  0  0
 42 44  1  0  0  0  0
 43 45  1  0  0  0  0
 43 46  1  0  0  0  0
 44 51  1  0  0  0  0
 45 53  1  0  0  0  0
 46 69  1  0  0  0  0
 47 50  1  0  0  0  0
 47 70  1  0  0  0  0
 48 50  1  0  0  0  0
 48 70  1  0  0  0  0
 49 53  1  0  0  0  0
 49 69  1  0  0  0  0
 51 73  1  0  0  0  0
 52 68  1  0  0  0  0
 53 67  1  0  0  0  0
 55 64  1  0  0  0  0
 56 65  1  0  0  0  0
 57 65  1  0  0  0  0
 58 65  1  0  0  0  0
 59 75  1  0  0  0  0
 60 82  1  0  0  0  0
 61 62  1  0  0  0  0
 61 83  1  0  0  0  0
 62 84  1  0  0  0  0
 63 65  1  0  0  0  0
 63 74  1  0  0  0  0
 64 75  1  0  0  0  0
 66 67  1  0  0  0  0
M  CHG  1  75   1
M  ISO  4  38 100  61 101  70 100  83 101
M  END
> <Batch ID>
0157

> <Smiles>
CNC(C)C(=O)NC(C(=O)N1Cc2cc([101O:1][101CH2:1]COc3cc(C4C[100N:0]([100C:0](=O)N5CCCC(n6nc(-c7ccc(Oc8ccc(F)cc8F)cc7)c(C(N)=O)c6N)C5)C4)cc(OC)c3C)ccc2CC1C(=O)NC1CCCc2ccccc21)C(C)(C)C

> <Shape>
0.284

> <Color>
0.096

> <Negative vol penalty>
0.000

$$$$

  -OEChem-04052321593D

 87 96  0     1  0  0  0  0  0999 V2000
  -29.3251  -37.0427   22.9027 C   0  0  0  0  0  0  0  0  0  0  0  0
  -29.4664  -36.0617   21.9265 C   0  0  0  0  0  0  0  0  0  0  0  0
  -23.7661   -8.1421   16.9221 C   0  0  0  0  0  0  0  0  0  0  0  0
  -25.4242   -6.7908   18.0453 C   0  0  0  0  0  0  0  0  0  0  0  0
  -28.8016  -36.7113   24.1517 C   0  0  0  0  0  0  0  0  0  0  0  0
  -29.0853  -34.7484   22.1991 C   0  0  0  0  0  0  0  0  0  0  0  0
  -26.3416  -28.9538   19.0034 C   0  0  0  0  0  0  0  0  0  0  0  0
  -23.8973   -7.3533   15.7793 C   0  0  0  0  0  0  0  0  0  0  0  0
  -25.5554   -6.0019   16.9024 C   0  0  0  0  0  0  0  0  0  0  0  0
  -26.5968  -27.5934   18.8368 C   0  0  0  0  0  0  0  0  0  0  0  0
  -27.0995   -6.2016   13.9013 C   0  0  0  0  0  0  0  0  0  0  0  0
  -28.3898   -5.8774   13.4824 C   0  0  0  0  0  0  0  0  0  0  0  0
  -25.6310  -27.1530   21.0030 C   0  0  0  0  0  0  0  0  0  0  0  0
  -26.4211  -22.7143   17.6491 C   0  0  0  0  0  0  0  0  0  0  0  0
  -27.8832   -3.5291   13.7395 C   0  0  0  0  0  0  0  0  0  0  0  0
  -24.5295   -7.8609   18.0551 C   0  0  0  0  0  0  0  0  0  0  0  0
  -23.5059   -8.4768   20.3092 C   0  0  0  0  0  0  0  0  0  0  0  0
  -28.4048  -35.3952   24.4365 C   0  0  0  0  0  0  0  0  0  0  0  0
  -25.7381  -29.4262   20.1778 C   0  0  0  0  0  0  0  0  0  0  0  0
  -28.5572  -34.3988   23.4535 C   0  0  0  0  0  0  0  0  0  0  0  0
  -25.3669  -28.5197   21.1810 C   0  0  0  0  0  0  0  0  0  0  0  0
  -27.2753  -23.4761   18.4463 C   0  0  0  0  0  0  0  0  0  0  0  0
  -26.5494  -21.3256   17.6183 C   0  0  0  0  0  0  0  0  0  0  0  0
  -28.2579  -22.8494   19.2127 C   0  0  0  0  0  0  0  0  0  0  0  0
  -28.3863  -21.4607   19.1819 C   0  0  0  0  0  0  0  0  0  0  0  0
  -27.5321  -20.6989   18.3847 C   0  0  0  0  0  0  0  0  0  0  0  0
  -24.7920   -6.2832   15.7694 C   0  0  0  0  0  0  0  0  0  0  0  0
  -26.2441  -26.6931   19.8379 C   0  0  0  0  0  0  0  0  0  0  0  0
  -26.2010   -5.1896   14.2394 C   0  0  0  0  0  0  0  0  0  0  0  0
  -28.7817   -4.5411   13.4014 C   0  0  0  0  0  0  0  0  0  0  0  0
  -26.5929   -3.8534   14.1585 C   0  0  0  0  0  0  0  0  0  0  0  0
  -24.3948   -8.6757   19.2358 C   0  0  0  0  0  0  0  0  0  0  0  0
  -23.7694   -9.5141   21.1700 C   0  0  0  0  0  0  0  0  0  0  0  0
  -22.5294   -7.4464   20.5101 C   0  0  0  0  0  0  0  0  0  0  0  0
  -26.6089  -31.4049   22.5080 C   0  0  0  0  0  0  0  0  0  0  0  0
  -23.5510  -30.9632   23.4962 C   0  0  0  0  0  0  0  0  0  0  0  0
  -20.7642  -28.9932   23.5025 C   0  0  0  0  0  0  0  0  0  0  0  0
  -25.8054  -14.8779   20.4818 C   0  0  0  0  0  0  0  0  0  0  0  0
  -27.8883  -35.0753   25.8169 C   0  0  0  0  0  0  0  0  0  0  0  0
  -25.4452  -30.8936   20.3307 C   0  0  0  0  0  0  0  0  0  0  0  0
  -24.6981  -28.9735   22.4519 C   0  0  0  0  0  0  0  0  0  0  0  0
  -27.1597  -33.7364   25.8995 C   0  0  0  0  0  0  0  0  0  0  0  0
  -27.2816  -12.4501   22.5447 C   0  0  0  0  0  0  0  0  0  0  0  0
  -27.9612  -32.6479   25.1928 C   0  0  0  0  0  0  0  0  0  0  0  0
  -26.6176  -11.1723   22.0324 C   0  0  0  0  0  0  0  0  0  0  0  0
  -28.2158  -17.1379   19.2691 C   0  0  0  0  0  0  0  0  0  0  0  0
  -26.0368  -18.2751   19.8408 C   0  0  0  0  0  0  0  0  0  0  0  0
  -27.6477  -13.4024   21.4048 C   0  0  0  0  0  0  0  0  0  0  0  0
  -27.9906  -16.1620   20.4277 C   0  0  0  0  0  0  0  0  0  0  0  0
  -25.8694  -17.2981   21.0013 C   0  0  0  0  0  0  0  0  0  0  0  0
  -25.8521  -12.4496   19.9954 C   0  0  0  0  0  0  0  0  0  0  0  0
  -28.1320  -32.9680   23.7029 C   0  0  1  0  0  0  0  0  0  0  0  0
  -25.2934  -31.3240   21.7864 C   0  0  1  0  0  0  0  0  0  0  0  0
  -25.4200  -11.4987   21.1224 C   0  0  1  0  0  0  0  0  0  0  0  0
  -27.5198  -18.4779   19.5192 C   0  0  0  0  0  0  0  0  0  0  0  0
  -25.6197  -20.5362   16.7549 C   0  0  0  0  0  0  0  0  0  0  0  0
  -29.1726  -23.6696   20.0664 C   0  0  0  0  0  0  0  0  0  0  0  0
  -29.4423  -20.7920   20.0055 C   0  0  0  0  0  0  0  0  0  0  0  0
  -18.4351  -28.8784   24.4296 C   0  0  0  0  0  0  0  0  0  0  0  0
  -24.6771  -30.1807   26.2219 C   0  0  0  0  0  0  0  0  0  0  0  0
  -22.4479  -29.1869   26.7799 C   0  0  0  0  0  0  0  0  0  0  0  0
  -22.6406  -31.6295   26.3114 C   0  0  0  0  0  0  0  0  0  0  0  0
  -19.5634  -28.9839   20.7976 C   0  0  0  0  0  0  0  0  0  0  0  0
  -27.1170  -24.9614   18.4612 C   0  0  0  0  0  0  0  0  0  1  0  0
  -22.8527  -29.9815   24.4059 C   0  0  1  0  0  0  0  0  0  0  0  0
  -19.3012  -29.3170   23.2591 C   0  0  2  0  0  0  0  0  0  0  0  0
  -23.1689  -30.2360   25.9068 C   0  0  0  0  0  0  0  0  0  0  0  0
  -25.1653   -9.7547   19.3977 N   0  0  0  0  0  0  0  0  0  0  0  0
  -24.7612  -10.2431   20.5827 N   0  0  0  0  0  0  0  0  0  0  0  0
  -24.4386  -30.4188   22.5572 N   0  0  0  0  0  0  0  0  0  0  0  0
  -26.4849  -13.6520   20.5416 N   0  0  0  0  0  0  0  0  0  0  0  0
  -26.5578  -16.0355   20.7308 N   0  0  0  0  0  0  0  0  0  0  0  0
  -23.2470   -9.8646   22.3644 N   0  0  0  0  0  0  0  0  0  0  0  0
  -22.3890   -6.4579   19.5264 N   0  0  0  0  0  0  0  0  0  0  0  0
  -27.6582  -19.3214   18.3525 N   0  0  0  0  0  0  0  0  0  0  0  0
  -26.9156  -32.6674   22.9787 N   0  0  0  0  0  0  0  0  0  0  0  0
  -21.4341  -30.0547   24.0734 N   0  0  0  0  0  0  0  0  0  0  0  0
  -18.8155  -28.6271   22.0306 N   0  3  0  0  0  0  0  0  0  0  0  0
  -21.7915   -7.4128   21.5239 O   0  0  0  0  0  0  0  0  0  0  0  0
  -27.2941  -30.3963   22.6300 O   0  0  0  0  0  0  0  0  0  0  0  0
  -23.3121  -32.1681   23.6096 O   0  0  0  0  0  0  0  0  0  0  0  0
  -21.2621  -27.9061   23.2184 O   0  0  0  0  0  0  0  0  0  0  0  0
  -24.5972  -14.9351   20.2211 O   0  0  0  0  0  0  0  0  0  0  0  0
  -24.9201   -5.5131   14.6545 O   0  0  0  0  0  0  0  0  0  0  0  0
  -26.4945  -25.3552   19.6770 O   0  0  0  0  0  0  0  0  0  1  0  0
  -30.0203   -4.2298   12.9976 F   0  0  0  0  0  0  0  0  0  0  0  0
  -25.7338   -2.8768   14.4809 F   0  0  0  0  0  0  0  0  0  0  0  0
  1  2  1  0  0  0  0
  1  5  2  0  0  0  0
  2  6  2  0  0  0  0
  3  8  2  0  0  0  0
  3 16  1  0  0  0  0
  4  9  1  0  0  0  0
  4 16  2  0  0  0  0
  5 18  1  0  0  0  0
  6 20  1  0  0  0  0
  7 10  2  0  0  0  0
  7 19  1  0  0  0  0
  8 27  1  0  0  0  0
  9 27  2  0  0  0  0
 10 28  1  0  0  0  0
 11 12  2  0  0  0  0
 11 29  1  0  0  0  0
 12 30  1  0  0  0  0
 13 21  1  0  0  0  0
 13 28  2  0  0  0  0
 14 22  1  0  0  0  0
 14 23  2  0  0  0  0
 15 30  2  0  0  0  0
 15 31  1  0  0  0  0
 16 32  1  0  0  0  0
 17 32  1  0  0  0  0
 17 33  2  0  0  0  0
 17 34  1  0  0  0  0
 18 20  2  0  0  0  0
 18 39  1  0  0  0  0
 19 21  2  0  0  0  0
 19 40  1  0  0  0  0
 20 52  1  0  0  0  0
 21 41  1  0  0  0  0
 22 24  2  0  0  0  0
 22 64  1  0  0  0  0
 23 26  1  0  0  0  0
 23 56  1  0  0  0  0
 24 25  1  0  0  0  0
 24 57  1  0  0  0  0
 25 26  2  0  0  0  0
 25 58  1  0  0  0  0
 26 75  1  0  0  0  0
 27 84  1  0  0  0  0
 28 85  1  0  0  0  0
 29 31  2  0  0  0  0
 29 84  1  0  0  0  0
 30 86  1  0  0  0  0
 31 87  1  0  0  0  0
 32 68  2  0  0  0  0
 33 69  1  0  0  0  0
 33 73  1  0  0  0  0
 34 74  1  0  0  0  0
 34 79  2  0  0  0  0
 35 53  1  0  0  0  0
 35 76  1  0  0  0  0
 35 80  2  0  0  0  0
 36 65  1  0  0  0  0
 36 70  1  0  0  0  0
 36 81  2  0  0  0  0
 37 66  1  0  0  0  0
 37 77  1  0  0  0  0
 37 82  2  0  0  0  0
 38 71  1  0  0  0  0
 38 72  1  0  0  0  0
 38 83  2  0  0  0  0
 39 42  1  0  0  0  0
 40 53  1  0  0  0  0
 41 70  1  0  0  0  0
 42 44  1  0  0  0  0
 43 45  1  0  0  0  0
 43 48  1  0  0  0  0
 44 52  1  0  0  0  0
 45 54  1  0  0  0  0
 46 49  1  0  0  0  0
 46 55  1  0  0  0  0
 47 50  1  0  0  0  0
 47 55  1  0  0  0  0
 48 71  1  0  0  0  0
 49 72  1  0  0  0  0
 50 72  1  0  0  0  0
 51 54  1  0  0  0  0
 51 71  1  0  0  0  0
 52 76  1  0  0  0  0
 53 70  1  0  0  0  0
 54 69  1  0  0  0  0
 55 75  1  0  0  0  0
 59 66  1  0  0  0  0
 60 67  1  0  0  0  0
 61 67  1  0  0  0  0
 62 67  1  0  0  0  0
 63 78  1  0  0  0  0
 64 85  1  0  0  0  0
 65 67  1  0  0  0  0
 65 77  1  0  0  0  0
 66 78  1  0  0  0  0
 68 69  1  0  0  0  0
M  CHG  1  78   1
M  ISO  4  38 100  64 101  72 100  85 101
M  END
> <Batch ID>
0157

> <Smiles>
CNC(C)C(=O)NC(C(=O)N1Cc2cc([101O:1][101CH2:1]c3cc(C)c(NC4CC[100N:0]([100C:0](=O)N5CCCC(n6nc(-c7ccc(Oc8ccc(F)cc8F)cc7)c(C(N)=O)c6N)C5)CC4)c(C)c3C)ccc2CC1C(=O)NC1CCCc2ccccc21)C(C)(C)C

> <Shape>
0.237

> <Color>
0.079

> <Negative vol penalty>
0.000

$$$$

  -OEChem-04052321593D

 87 96  0     1  0  0  0  0  0999 V2000
  -27.2198  -37.7844   20.7418 C   0  0  0  0  0  0  0  0  0  0  0  0
  -27.6949  -36.6650   20.0661 C   0  0  0  0  0  0  0  0  0  0  0  0
  -24.6862   -9.2399   22.0679 C   0  0  0  0  0  0  0  0  0  0  0  0
  -23.7581   -9.5412   19.8577 C   0  0  0  0  0  0  0  0  0  0  0  0
  -26.6119  -37.6391   21.9881 C   0  0  0  0  0  0  0  0  0  0  0  0
  -27.5632  -35.3996   20.6368 C   0  0  0  0  0  0  0  0  0  0  0  0
  -26.5535  -28.5402   18.8351 C   0  0  0  0  0  0  0  0  0  0  0  0
  -23.5137   -8.6023   22.4734 C   0  0  0  0  0  0  0  0  0  0  0  0
  -22.5856   -8.9035   20.2632 C   0  0  0  0  0  0  0  0  0  0  0  0
  -27.1077  -27.2784   19.0460 C   0  0  0  0  0  0  0  0  0  0  0  0
  -20.9045   -6.5743   23.9881 C   0  0  0  0  0  0  0  0  0  0  0  0
  -21.0283   -5.4009   24.7318 C   0  0  0  0  0  0  0  0  0  0  0  0
  -25.9692  -27.1395   21.1681 C   0  0  0  0  0  0  0  0  0  0  0  0
  -30.0979  -22.0402   21.1342 C   0  0  0  0  0  0  0  0  0  0  0  0
  -22.2283   -4.3701   22.9057 C   0  0  0  0  0  0  0  0  0  0  0  0
  -24.8083   -9.7094   20.7601 C   0  0  0  0  0  0  0  0  0  0  0  0
  -27.1623   -9.7697   19.7789 C   0  0  0  0  0  0  0  0  0  0  0  0
  -26.4640  -36.3702   22.5700 C   0  0  0  0  0  0  0  0  0  0  0  0
  -25.7102  -29.1167   19.7958 C   0  0  0  0  0  0  0  0  0  0  0  0
  -26.9539  -35.2372   21.8927 C   0  0  0  0  0  0  0  0  0  0  0  0
  -25.4034  -28.4076   20.9659 C   0  0  0  0  0  0  0  0  0  0  0  0
  -29.6595  -23.3143   20.7736 C   0  0  0  0  0  0  0  0  0  0  0  0
  -28.1392  -22.3372   19.1701 C   0  0  0  0  0  0  0  0  0  0  0  0
  -28.6801  -23.4628   19.7916 C   0  0  0  0  0  0  0  0  0  0  0  0
  -28.5777  -21.0631   19.5307 C   0  0  0  0  0  0  0  0  0  0  0  0
  -29.5571  -20.9146   20.5128 C   0  0  0  0  0  0  0  0  0  0  0  0
  -22.4635   -8.4340   21.5710 C   0  0  0  0  0  0  0  0  0  0  0  0
  -26.8179  -26.5791   20.2139 C   0  0  0  0  0  0  0  0  0  0  0  0
  -21.4425   -6.6457   22.7031 C   0  0  0  0  0  0  0  0  0  0  0  0
  -21.6903   -4.2988   24.1907 C   0  0  0  0  0  0  0  0  0  0  0  0
  -22.1044   -5.5436   22.1619 C   0  0  0  0  0  0  0  0  0  0  0  0
  -26.0190  -10.3687   20.3409 C   0  0  0  0  0  0  0  0  0  0  0  0
  -28.0247  -10.8156   19.5584 C   0  0  0  0  0  0  0  0  0  0  0  0
  -27.4216   -8.3910   19.4826 C   0  0  0  0  0  0  0  0  0  0  0  0
  -25.8220  -31.7322   21.5987 C   0  0  0  0  0  0  0  0  0  0  0  0
  -22.8186  -30.8228   22.4199 C   0  0  0  0  0  0  0  0  0  0  0  0
  -20.5310  -28.3070   22.7114 C   0  0  0  0  0  0  0  0  0  0  0  0
  -30.1898  -15.6137   20.9166 C   0  0  0  0  0  0  0  0  0  0  0  0
  -25.8426  -36.2680   23.9404 C   0  0  0  0  0  0  0  0  0  0  0  0
  -25.0990  -30.4673   19.5412 C   0  0  0  0  0  0  0  0  0  0  0  0
  -24.4877  -28.9737   22.0192 C   0  0  0  0  0  0  0  0  0  0  0  0
  -25.4056  -34.8520   24.3070 C   0  0  0  0  0  0  0  0  0  0  0  0
  -26.4860  -15.2427   20.9903 C   0  0  0  0  0  0  0  0  0  0  0  0
  -26.5057  -33.8501   23.9713 C   0  0  0  0  0  0  0  0  0  0  0  0
  -26.7661  -14.4076   19.7410 C   0  0  0  0  0  0  0  0  0  0  0  0
  -27.7545  -15.9239   21.5174 C   0  0  0  0  0  0  0  0  0  0  0  0
  -29.3094  -18.9583   21.9864 C   0  0  0  0  0  0  0  0  0  0  0  0
  -30.0235  -17.6778   22.4040 C   0  0  0  0  0  0  0  0  0  0  0  0
  -28.7110  -13.6630   21.2271 C   0  0  0  0  0  0  0  0  0  0  0  0
  -31.3728  -19.2074   20.5598 C   0  0  0  0  0  0  0  0  0  0  0  0
  -26.8073  -33.8452   22.4678 C   0  0  1  0  0  0  0  0  0  0  0  0
  -24.6635  -31.1766   20.8197 C   0  0  1  0  0  0  0  0  0  0  0  0
  -27.8849  -13.3631   19.9637 C   0  0  1  0  0  0  0  0  0  0  0  0
  -31.4893  -17.6713   20.4272 C   0  0  1  0  0  0  0  0  0  0  0  0
  -30.2540  -24.5032   21.4551 C   0  0  0  0  0  0  0  0  0  0  0  0
  -27.0889  -22.4972   18.1163 C   0  0  0  0  0  0  0  0  0  0  0  0
  -27.9943  -19.8559   18.8655 C   0  0  0  0  0  0  0  0  0  0  0  0
  -32.9189  -17.2394   20.7770 C   0  0  0  0  0  0  0  0  0  0  0  0
  -18.1732  -27.8640   23.4476 C   0  0  0  0  0  0  0  0  0  0  0  0
  -23.7010  -30.9861   25.3361 C   0  0  0  0  0  0  0  0  0  0  0  0
  -21.6740  -29.6517   25.9516 C   0  0  0  0  0  0  0  0  0  0  0  0
  -21.4139  -31.8921   24.8860 C   0  0  0  0  0  0  0  0  0  0  0  0
  -19.7389  -27.3839   20.0134 C   0  0  0  0  0  0  0  0  0  0  0  0
  -28.2127  -24.8306   19.4056 C   0  0  0  0  0  0  0  0  0  1  0  0
  -22.2236  -29.9436   23.4932 C   0  0  1  0  0  0  0  0  0  0  0  0
  -19.0798  -28.2098   22.2766 C   0  0  2  0  0  0  0  0  0  0  0  0
  -22.2720  -30.6082   24.8980 C   0  0  0  0  0  0  0  0  0  0  0  0
  -26.1410  -11.6925   20.4696 N   0  0  0  0  0  0  0  0  0  0  0  0
  -27.3712  -11.9340   19.9854 N   0  0  0  0  0  0  0  0  0  0  0  0
  -30.0107  -19.6431   20.8889 N   0  0  2  0  0  0  0  0  0  0  0  0
  -23.9199  -30.3003   21.7271 N   0  0  0  0  0  0  0  0  0  0  0  0
  -28.9576  -15.0985   21.3481 N   0  0  0  0  0  0  0  0  0  0  0  0
  -30.4878  -16.9512   21.2262 N   0  0  0  0  0  0  0  0  0  0  0  0
  -29.2708  -10.8787   19.0430 N   0  0  0  0  0  0  0  0  0  0  0  0
  -26.4271   -7.4469   19.7723 N   0  0  0  0  0  0  0  0  0  0  0  0
  -25.7910  -33.1053   21.7508 N   0  0  0  0  0  0  0  0  0  0  0  0
  -20.8799  -29.5997   23.0408 N   0  0  0  0  0  0  0  0  0  0  0  0
  -18.9211  -27.1579   21.2329 N   0  3  0  0  0  0  0  0  0  0  0  0
  -28.5094   -8.0056   18.9911 O   0  0  0  0  0  0  0  0  0  0  0  0
  -26.6798  -30.9713   22.0311 O   0  0  0  0  0  0  0  0  0  0  0  0
  -22.3199  -31.9292   22.1993 O   0  0  0  0  0  0  0  0  0  0  0  0
  -21.2791  -27.3330   22.7580 O   0  0  0  0  0  0  0  0  0  0  0  0
  -30.9795  -14.9073   20.2756 O   0  0  0  0  0  0  0  0  0  0  0  0
  -21.3193   -7.8117   21.9662 O   0  0  0  0  0  0  0  0  0  0  0  0
  -27.3621  -25.3385   20.4240 O   0  0  0  0  0  0  0  0  0  1  0  0
  -21.8105   -3.1725   24.9057 F   0  0  0  0  0  0  0  0  0  0  0  0
  -22.6243   -5.6065   20.9284 F   0  0  0  0  0  0  0  0  0  0  0  0
  1  2  1  0  0  0  0
  1  5  2  0  0  0  0
  2  6  2  0  0  0  0
  3  8  2  0  0  0  0
  3 16  1  0  0  0  0
  4  9  1  0  0  0  0
  4 16  2  0  0  0  0
  5 18  1  0  0  0  0
  6 20  1  0  0  0  0
  7 10  2  0  0  0  0
  7 19  1  0  0  0  0
  8 27  1  0  0  0  0
  9 27  2  0  0  0  0
 10 28  1  0  0  0  0
 11 12  2  0  0  0  0
 11 29  1  0  0  0  0
 12 30  1  0  0  0  0
 13 21  1  0  0  0  0
 13 28  2  0  0  0  0
 14 22  2  0  0  0  0
 14 26  1  0  0  0  0
 15 30  2  0  0  0  0
 15 31  1  0  0  0  0
 16 32  1  0  0  0  0
 17 32  1  0  0  0  0
 17 33  2  0  0  0  0
 17 34  1  0  0  0  0
 18 20  2  0  0  0  0
 18 39  1  0  0  0  0
 19 21  2  0  0  0  0
 19 40  1  0  0  0  0
 20 51  1  0  0  0  0
 21 41  1  0  0  0  0
 22 24  1  0  0  0  0
 22 55  1  0  0  0  0
 23 24  2  0  0  0  0
 23 25  1  0  0  0  0
 23 56  1  0  0  0  0
 24 64  1  0  0  0  0
 25 26  2  0  0  0  0
 25 57  1  0  0  0  0
 26 70  1  0  0  0  0
 27 84  1  0  0  0  0
 28 85  1  0  0  0  0
 29 31  2  0  0  0  0
 29 84  1  0  0  0  0
 30 86  1  0  0  0  0
 31 87  1  0  0  0  0
 32 68  2  0  0  0  0
 33 69  1  0  0  0  0
 33 74  1  0  0  0  0
 34 75  1  0  0  0  0
 34 79  2  0  0  0  0
 35 52  1  0  0  0  0
 35 76  1  0  0  0  0
 35 80  2  0  0  0  0
 36 65  1  0  0  0  0
 36 71  1  0  0  0  0
 36 81  2  0  0  0  0
 37 66  1  0  0  0  0
 37 77  1  0  0  0  0
 37 82  2  0  0  0  0
 38 72  1  0  0  0  0
 38 73  1  0  0  0  0
 38 83  2  0  0  0  0
 39 42  1  0  0  0  0
 40 52  1  0  0  0  0
 41 71  1  0  0  0  0
 42 44  1  0  0  0  0
 43 45  1  0  0  0  0
 43 46  1  0  0  0  0
 44 51  1  0  0  0  0
 45 53  1  0  0  0  0
 46 72  1  0  0  0  0
 47 48  1  0  0  0  0
 47 70  1  0  0  0  0
 48 73  1  0  0  0  0
 49 53  1  0  0  0  0
 49 72  1  0  0  0  0
 50 54  1  0  0  0  0
 50 70  1  0  0  0  0
 51 76  1  0  0  0  0
 52 71  1  0  0  0  0
 53 69  1  0  0  0  0
 54 58  1  0  0  0  0
 54 73  1  0  0  0  0
 59 66  1  0  0  0  0
 60 67  1  0  0  0  0
 61 67  1  0  0  0  0
 62 67  1  0  0  0  0
 63 78  1  0  0  0  0
 64 85  1  0  0  0  0
 65 67  1  0  0  0  0
 65 77  1  0  0  0  0
 66 78  1  0  0  0  0
 68 69  1  0  0  0  0
M  CHG  1  78   1
M  ISO  4  38 100  64 101  73 100  85 101
M  END
> <Batch ID>
0157

> <Smiles>
CNC(C)C(=O)NC(C(=O)N1Cc2cc([101O:1][101CH2:1]c3c(C)cc(N4CC[100N:0]([100C:0](=O)N5CCCC(n6nc(-c7ccc(Oc8ccc(F)cc8F)cc7)c(C(N)=O)c6N)C5)C(C)C4)c(C)c3C)ccc2CC1C(=O)NC1CCCc2ccccc21)C(C)(C)C

> <Shape>
0.371

> <Color>
0.114

> <Negative vol penalty>
0.000

$$$$

  -OEChem-04052321593D

 88 97  0     1  0  0  0  0  0999 V2000
  -17.2013  -27.5920   19.7715 C   0  0  0  0  0  0  0  0  0  0  0  0
  -18.5036  -27.1831   19.5031 C   0  0  0  0  0  0  0  0  0  0  0  0
  -23.4026   -9.9429   21.9294 C   0  0  0  0  0  0  0  0  0  0  0  0
  -24.7595   -8.2004   20.9499 C   0  0  0  0  0  0  0  0  0  0  0  0
  -16.9168  -28.9472   19.9337 C   0  0  0  0  0  0  0  0  0  0  0  0
  -19.5222  -28.1294   19.3957 C   0  0  0  0  0  0  0  0  0  0  0  0
  -25.3628  -27.4626   21.1128 C   0  0  0  0  0  0  0  0  0  0  0  0
  -22.3068   -9.0801   21.9464 C   0  0  0  0  0  0  0  0  0  0  0  0
  -23.6637   -7.3375   20.9670 C   0  0  0  0  0  0  0  0  0  0  0  0
  -26.5198  -27.1488   20.4010 C   0  0  0  0  0  0  0  0  0  0  0  0
  -21.3182   -4.5621   21.0853 C   0  0  0  0  0  0  0  0  0  0  0  0
  -21.5253   -3.2584   21.5361 C   0  0  0  0  0  0  0  0  0  0  0  0
  -27.0335  -29.4982   20.2120 C   0  0  0  0  0  0  0  0  0  0  0  0
  -22.2459   -4.1135   23.6778 C   0  0  0  0  0  0  0  0  0  0  0  0
  -24.6290   -9.5031   21.4311 C   0  0  0  0  0  0  0  0  0  0  0  0
  -26.7207  -10.5705   22.4277 C   0  0  0  0  0  0  0  0  0  0  0  0
  -17.9341  -29.9098   19.8378 C   0  0  0  0  0  0  0  0  0  0  0  0
  -25.0262  -28.7993   21.3706 C   0  0  0  0  0  0  0  0  0  0  0  0
  -19.2508  -29.4989   19.5554 C   0  0  0  0  0  0  0  0  0  0  0  0
  -25.8730  -29.8262   20.9296 C   0  0  0  0  0  0  0  0  0  0  0  0
  -29.8029  -24.4669   19.7027 C   0  0  0  0  0  0  0  0  0  0  0  0
  -28.5564  -24.5679   17.6357 C   0  0  0  0  0  0  0  0  0  0  0  0
  -29.3162  -23.8433   18.5539 C   0  0  0  0  0  0  0  0  0  0  0  0
  -29.5297  -25.8151   19.9334 C   0  0  0  0  0  0  0  0  0  0  0  0
  -28.2831  -25.9161   17.8663 C   0  0  0  0  0  0  0  0  0  0  0  0
  -22.4373   -7.7774   21.4652 C   0  0  0  0  0  0  0  0  0  0  0  0
  -27.3538  -28.1668   19.9480 C   0  0  0  0  0  0  0  0  0  0  0  0
  -21.5751   -5.6415   21.9307 C   0  0  0  0  0  0  0  0  0  0  0  0
  -28.7698  -26.5397   19.0152 C   0  0  0  0  0  0  0  0  0  1  0  0
  -21.9891   -3.0341   22.8323 C   0  0  0  0  0  0  0  0  0  0  0  0
  -22.0389   -5.4172   23.2269 C   0  0  0  0  0  0  0  0  0  0  0  0
  -25.7612  -10.3941   21.4128 C   0  0  0  0  0  0  0  0  0  0  0  0
  -27.5791  -11.5189   21.9275 C   0  0  0  0  0  0  0  0  0  0  0  0
  -26.8266   -9.9339   23.7080 C   0  0  0  0  0  0  0  0  0  0  0  0
  -22.5910  -30.6890   20.5946 C   0  0  0  0  0  0  0  0  0  0  0  0
  -24.0821  -32.7739   22.5825 C   0  0  0  0  0  0  0  0  0  0  0  0
  -26.9780  -33.7819   24.0806 C   0  0  0  0  0  0  0  0  0  0  0  0
  -28.6566  -16.1552   19.4447 C   0  0  0  0  0  0  0  0  0  0  0  0
  -17.5698  -31.3670   19.9738 C   0  0  0  0  0  0  0  0  0  0  0  0
  -23.7886  -29.1200   22.1630 C   0  0  0  0  0  0  0  0  0  0  0  0
  -25.5671  -31.2764   21.1978 C   0  0  0  0  0  0  0  0  0  0  0  0
  -18.7724  -32.2755   20.2160 C   0  0  0  0  0  0  0  0  0  0  0  0
  -28.0161  -13.4595   17.2844 C   0  0  0  0  0  0  0  0  0  0  0  0
  -19.9027  -31.9336   19.2505 C   0  0  0  0  0  0  0  0  0  0  0  0
  -27.4433  -12.4248   18.2523 C   0  0  0  0  0  0  0  0  0  0  0  0
  -27.5076  -14.8704   17.5861 C   0  0  0  0  0  0  0  0  0  0  0  0
  -27.9833  -17.7822   17.6215 C   0  0  0  0  0  0  0  0  0  0  0  0
  -30.1202  -18.0533   18.8249 C   0  0  0  0  0  0  0  0  0  0  0  0
  -27.1440  -14.2616   19.9560 C   0  0  0  0  0  0  0  0  0  0  0  0
  -27.5644  -19.1913   18.0284 C   0  0  0  0  0  0  0  0  0  0  0  0
  -29.7250  -19.4520   19.2698 C   0  0  0  0  0  0  0  0  0  0  0  0
  -20.3872  -30.4933   19.4561 C   0  0  1  0  0  0  0  0  0  0  0  0
  -23.2760  -30.5367   21.9232 C   0  0  1  0  0  0  0  0  0  0  0  0
  -27.6831  -12.8434   19.7138 C   0  0  1  0  0  0  0  0  0  0  0  0
  -30.6176  -23.6896   20.6883 C   0  0  0  0  0  0  0  0  0  0  0  0
  -28.0346  -23.9000   16.4025 C   0  0  0  0  0  0  0  0  0  0  0  0
  -30.0483  -26.4898   21.1633 C   0  0  0  0  0  0  0  0  0  0  0  0
  -27.4684  -26.6987   16.8856 C   0  0  0  0  0  0  0  0  0  0  0  0
  -27.8905  -35.5401   25.6213 C   0  0  0  0  0  0  0  0  0  0  0  0
  -24.0079  -34.8039   20.3058 C   0  0  0  0  0  0  0  0  0  0  0  0
  -25.7261  -36.1445   21.5381 C   0  0  0  0  0  0  0  0  0  0  0  0
  -23.4864  -35.7476   22.5623 C   0  0  0  0  0  0  0  0  0  0  0  0
  -27.7995  -31.7648   26.0844 C   0  0  0  0  0  0  0  0  0  0  0  0
  -29.6119  -22.3925   18.3053 C   0  0  0  0  0  0  0  0  0  0  0  0
  -28.4290  -21.4674   18.5731 C   0  0  0  0  0  0  0  0  0  0  0  0
  -25.1386  -33.8395   22.4170 C   0  0  1  0  0  0  0  0  0  0  0  0
  -27.2939  -34.1449   25.5204 C   0  0  2  0  0  0  0  0  0  0  0  0
  -24.5948  -35.1068   21.6989 C   0  0  0  0  0  0  0  0  0  0  0  0
  -25.9881  -11.1684   20.3484 N   0  0  0  0  0  0  0  0  0  0  0  0
  -27.1000  -11.8406   20.6917 N   0  0  0  0  0  0  0  0  0  0  0  0
  -24.3423  -31.5393   21.9712 N   0  0  0  0  0  0  0  0  0  0  0  0
  -27.7207  -15.2093   19.0001 N   0  0  0  0  0  0  0  0  0  0  0  0
  -28.9432  -17.2224   18.5807 N   0  0  0  0  0  0  0  0  0  0  0  0
  -28.6893  -12.1007   22.4287 N   0  0  0  0  0  0  0  0  0  0  0  0
  -25.8603   -8.9828   24.0632 N   0  0  0  0  0  0  0  0  0  0  0  0
  -21.2383  -30.4081   20.6236 N   0  0  0  0  0  0  0  0  0  0  0  0
  -25.6759  -34.0920   23.7497 N   0  0  0  0  0  0  0  0  0  0  0  0
  -28.7903  -20.0464   18.2422 N   0  3  0  0  0  0  0  0  0  0  0  0
  -28.2670  -33.1748   26.0976 N   0  3  0  0  0  0  0  0  0  0  0  0
  -27.7413  -10.2125   24.5198 O   0  0  0  0  0  0  0  0  0  0  0  0
  -23.2412  -31.0371   19.6159 O   0  0  0  0  0  0  0  0  0  0  0  0
  -23.0668  -33.0254   23.2364 O   0  0  0  0  0  0  0  0  0  0  0  0
  -27.8049  -33.2774   23.3241 O   0  0  0  0  0  0  0  0  0  0  0  0
  -29.2038  -16.0524   20.5499 O   0  0  0  0  0  0  0  0  0  0  0  0
  -21.3683   -6.9351   21.4819 O   0  0  0  0  0  0  0  0  0  0  0  0
  -28.5020  -27.8583   19.2409 O   0  0  0  0  0  0  0  0  0  1  0  0
  -22.1864   -1.7821   23.2656 F   0  0  0  0  0  0  0  0  0  0  0  0
  -22.2863   -6.4501   24.0441 F   0  0  0  0  0  0  0  0  0  0  0  0
  1  2  1  0  0  0  0
  1  5  2  0  0  0  0
  2  6  2  0  0  0  0
  3  8  2  0  0  0  0
  3 15  1  0  0  0  0
  4  9  1  0  0  0  0
  4 15  2  0  0  0  0
  5 17  1  0  0  0  0
  6 19  1  0  0  0  0
  7 10  2  0  0  0  0
  7 18  1  0  0  0  0
  8 26  1  0  0  0  0
  9 26  2  0  0  0  0
 10 27  1  0  0  0  0
 11 12  2  0  0  0  0
 11 28  1  0  0  0  0
 12 30  1  0  0  0  0
 13 20  1  0  0  0  0
 13 27  2  0  0  0  0
 14 30  2  0  0  0  0
 14 31  1  0  0  0  0
 15 32  1  0  0  0  0
 16 32  1  0  0  0  0
 16 33  2  0  0  0  0
 16 34  1  0  0  0  0
 17 19  2  0  0  0  0
 17 39  1  0  0  0  0
 18 20  2  0  0  0  0
 18 40  1  0  0  0  0
 19 52  1  0  0  0  0
 20 41  1  0  0  0  0
 21 23  1  0  0  0  0
 21 24  2  0  0  0  0
 21 55  1  0  0  0  0
 22 23  2  0  0  0  0
 22 25  1  0  0  0  0
 22 56  1  0  0  0  0
 23 64  1  0  0  0  0
 24 29  1  0  0  0  0
 24 57  1  0  0  0  0
 25 29  2  0  0  0  0
 25 58  1  0  0  0  0
 26 85  1  0  0  0  0
 27 86  1  0  0  0  0
 28 31  2  0  0  0  0
 28 85  1  0  0  0  0
 29 86  1  0  0  0  0
 30 87  1  0  0  0  0
 31 88  1  0  0  0  0
 32 69  2  0  0  0  0
 33 70  1  0  0  0  0
 33 74  1  0  0  0  0
 34 75  1  0  0  0  0
 34 80  2  0  0  0  0
 35 53  1  0  0  0  0
 35 76  1  0  0  0  0
 35 81  2  0  0  0  0
 36 66  1  0  0  0  0
 36 71  1  0  0  0  0
 36 82  2  0  0  0  0
 37 67  1  0  0  0  0
 37 77  1  0  0  0  0
 37 83  2  0  0  0  0
 38 72  1  0  0  0  0
 38 73  1  0  0  0  0
 38 84  2  0  0  0  0
 39 42  1  0  0  0  0
 40 53  1  0  0  0  0
 41 71  1  0  0  0  0
 42 44  1  0  0  0  0
 43 45  1  0  0  0  0
 43 46  1  0  0  0  0
 44 52  1  0  0  0  0
 45 54  1  0  0  0  0
 46 72  1  0  0  0  0
 47 50  1  0  0  0  0
 47 73  1  0  0  0  0
 48 51  1  0  0  0  0
 48 73  1  0  0  0  0
 49 54  1  0  0  0  0
 49 72  1  0  0  0  0
 50 78  1  0  0  0  0
 51 78  1  0  0  0  0
 52 76  1  0  0  0  0
 53 71  1  0  0  0  0
 54 70  1  0  0  0  0
 59 67  1  0  0  0  0
 60 68  1  0  0  0  0
 61 68  1  0  0  0  0
 62 68  1  0  0  0  0
 63 79  1  0  0  0  0
 64 65  1  0  0  0  0
 65 78  1  0  0  0  0
 66 68  1  0  0  0  0
 66 77  1  0  0  0  0
 67 79  1  0  0  0  0
 69 70  1  0  0  0  0
M  CHG  2  78   1  79   1
M  ISO  4  29 101  38 100  73 100  86 101
M  END
> <Batch ID>
0157

> <Smiles>
CNC(C)C(=O)NC(C(=O)N1Cc2cc([101O:1][101c:1]3c(C)c(C)c(CCN4CC[100N:0]([100C:0](=O)N5CCCC(n6nc(-c7ccc(Oc8ccc(F)cc8F)cc7)c(C(N)=O)c6N)C5)CC4)c(C)c3C)ccc2CC1C(=O)NC1CCCc2ccccc21)C(C)(C)C

> <Shape>
0.306

> <Color>
0.097

> <Negative vol penalty>
0.000

$$$$

  -OEChem-04052321593D

 89 98  0     1  0  0  0  0  0999 V2000
  -16.3647  -23.0321   11.6606 C   0  0  0  0  0  0  0  0  0  0  0  0
  -17.1010  -22.0298   12.2841 C   0  0  0  0  0  0  0  0  0  0  0  0
  -23.0717   -9.8708   19.9420 C   0  0  0  0  0  0  0  0  0  0  0  0
  -23.8311   -9.8797   22.2355 C   0  0  0  0  0  0  0  0  0  0  0  0
  -16.5218  -24.3597   12.0565 C   0  0  0  0  0  0  0  0  0  0  0  0
  -17.9957  -22.3546   13.3031 C   0  0  0  0  0  0  0  0  0  0  0  0
  -20.7070  -19.7391   19.3960 C   0  0  0  0  0  0  0  0  0  0  0  0
  -26.9452  -21.2976   21.7915 C   0  0  0  0  0  0  0  0  0  0  0  0
  -22.3268   -8.7186   20.1930 C   0  0  0  0  0  0  0  0  0  0  0  0
  -23.0861   -8.7274   22.4866 C   0  0  0  0  0  0  0  0  0  0  0  0
  -21.9339  -19.4928   20.0107 C   0  0  0  0  0  0  0  0  0  0  0  0
  -28.1756  -20.8875   22.3047 C   0  0  0  0  0  0  0  0  0  0  0  0
  -19.9392   -5.9804   20.3239 C   0  0  0  0  0  0  0  0  0  0  0  0
  -18.6336   -5.9330   19.8353 C   0  0  0  0  0  0  0  0  0  0  0  0
  -22.0643  -21.8110   20.6653 C   0  0  0  0  0  0  0  0  0  0  0  0
  -29.7552  -17.7116   22.7153 C   0  0  0  0  0  0  0  0  0  0  0  0
  -18.0698   -7.8778   21.1532 C   0  0  0  0  0  0  0  0  0  0  0  0
  -23.8239  -10.4513   20.9632 C   0  0  0  0  0  0  0  0  0  0  0  0
  -24.1680  -12.9761   20.8405 C   0  0  0  0  0  0  0  0  0  0  0  0
  -17.4118  -24.6999   13.0874 C   0  0  0  0  0  0  0  0  0  0  0  0
  -20.1538  -21.0276   19.4020 C   0  0  0  0  0  0  0  0  0  0  0  0
  -18.1659  -23.6882   13.7122 C   0  0  0  0  0  0  0  0  0  0  0  0
  -20.8290  -22.0704   20.0522 C   0  0  0  0  0  0  0  0  0  0  0  0
  -25.7644  -20.9457   22.4456 C   0  0  0  0  0  0  0  0  0  0  0  0
  -25.8142  -20.1837   23.6128 C   0  0  0  0  0  0  0  0  0  0  0  0
  -27.0446  -19.7735   24.1260 C   0  0  0  0  0  0  0  0  0  0  0  0
  -31.4944  -19.3725   22.7490 C   0  0  0  0  0  0  0  0  0  0  0  0
  -22.3340   -8.1469   21.4653 C   0  0  0  0  0  0  0  0  0  0  0  0
  -22.6142  -20.5295   20.6429 C   0  0  0  0  0  0  0  0  0  0  0  0
  -28.2254  -20.1254   23.4720 C   0  0  0  0  0  0  0  0  0  0  0  0
  -20.3102   -6.9765   21.2272 C   0  0  0  0  0  0  0  0  0  0  0  0
  -30.2312  -18.9459   23.1434 C   0  0  0  0  0  0  0  0  0  0  0  0
  -17.6989   -6.8817   20.2500 C   0  0  0  0  0  0  0  0  0  0  0  0
  -19.3755   -7.9252   21.6418 C   0  0  0  0  0  0  0  0  0  0  0  0
  -24.5941  -11.6413   20.7043 C   0  0  0  0  0  0  0  0  0  0  0  0
  -32.2364  -18.5343   21.9326 C   0  0  0  0  0  0  0  0  0  0  0  0
  -30.5749  -16.9479   21.9002 C   0  0  0  0  0  0  0  0  0  0  0  0
  -25.2609  -13.7242   20.4766 C   0  0  0  0  0  0  0  0  0  0  0  0
  -22.8978  -13.4934   21.2585 C   0  0  0  0  0  0  0  0  0  0  0  0
  -19.3708  -23.1430   17.1623 C   0  0  0  0  0  0  0  0  0  0  0  0
  -18.1553  -24.7805   19.6849 C   0  0  0  0  0  0  0  0  0  0  0  0
  -18.1938  -25.3704   23.0461 C   0  0  0  0  0  0  0  0  0  0  0  0
  -30.7279  -14.7653   20.6515 C   0  0  0  0  0  0  0  0  0  0  0  0
  -17.5826  -26.1542   13.4486 C   0  0  0  0  0  0  0  0  0  0  0  0
  -18.8167  -21.2711   18.7576 C   0  0  0  0  0  0  0  0  0  0  0  0
  -20.2684  -23.4673   20.1044 C   0  0  0  0  0  0  0  0  0  0  0  0
  -18.2751  -26.3711   14.7916 C   0  0  0  0  0  0  0  0  0  0  0  0
  -29.6120  -12.3498   18.2856 C   0  0  0  0  0  0  0  0  0  0  0  0
  -19.5092  -25.4818   14.9056 C   0  0  0  0  0  0  0  0  0  0  0  0
  -28.1720  -12.0599   18.7152 C   0  0  0  0  0  0  0  0  0  0  0  0
  -30.5270  -12.5791   19.4872 C   0  0  0  0  0  0  0  0  0  0  0  0
  -28.6203  -13.3068   20.8672 C   0  0  0  0  0  0  0  0  0  0  0  0
  -19.1281  -23.9980   14.8384 C   0  0  1  0  0  0  0  0  0  0  0  0
  -18.5924  -22.7321   18.3801 C   0  0  1  0  0  0  0  0  0  0  0  0
  -27.6476  -13.1331   19.6894 C   0  0  2  0  0  0  0  0  0  0  0  0
  -24.5466  -19.8080   24.3130 C   0  0  0  0  0  0  0  0  0  0  0  0
  -27.1061  -18.9560   25.3770 C   0  0  0  0  0  0  0  0  0  0  0  0
  -32.0262  -20.6927   23.1945 C   0  0  0  0  0  0  0  0  0  0  0  0
  -33.6010  -18.9385   21.4784 C   0  0  0  0  0  0  0  0  0  0  0  0
  -17.1128  -26.7919   24.8091 C   0  0  0  0  0  0  0  0  0  0  0  0
  -19.8216  -27.1697   18.7766 C   0  0  0  0  0  0  0  0  0  0  0  0
  -19.4588  -28.1919   21.0331 C   0  0  0  0  0  0  0  0  0  0  0  0
  -17.5103  -27.7405   19.5424 C   0  0  0  0  0  0  0  0  0  0  0  0
  -17.1333  -23.0024   24.4698 C   0  0  0  0  0  0  0  0  0  0  0  0
  -24.4545  -21.4002   21.8722 C   0  0  0  0  0  0  0  0  0  1  0  0
  -18.6944  -25.8036   20.6552 C   0  0  1  0  0  0  0  0  0  0  0  0
  -17.0724  -25.4663   24.0648 C   0  0  2  0  0  0  0  0  0  0  0  0
  -18.8830  -27.2007   19.9993 C   0  0  0  0  0  0  0  0  0  0  0  0
  -25.8590  -11.5439   20.2865 N   0  0  0  0  0  0  0  0  0  0  0  0
  -31.8077  -17.3286   21.4964 N   0  0  0  0  0  0  0  0  0  0  0  0
  -26.2370  -12.8270   20.1568 N   0  0  0  0  0  0  0  0  0  0  0  0
  -18.9610  -23.6564   19.4544 N   0  0  0  0  0  0  0  0  0  0  0  0
  -29.9687  -13.6114   20.3633 N   0  0  0  0  0  0  0  0  0  0  0  0
  -25.4724  -15.0554   20.4022 N   0  0  0  0  0  0  0  0  0  0  0  0
  -21.8850  -12.5855   21.5966 N   0  0  0  0  0  0  0  0  0  0  0  0
  -30.0811  -15.6918   21.4687 N   0  0  0  0  0  0  0  0  0  0  0  0
  -18.5838  -23.5581   16.1051 N   0  0  0  0  0  0  0  0  0  0  0  0
  -17.7890  -25.7980   21.7992 N   0  0  0  0  0  0  0  0  0  0  0  0
  -17.1826  -24.3641   25.0617 N   0  3  0  0  0  0  0  0  0  0  0  0
  -22.6626  -14.7243   21.3145 O   0  0  0  0  0  0  0  0  0  0  0  0
  -20.5949  -23.0889   17.1811 O   0  0  0  0  0  0  0  0  0  0  0  0
  -17.0565  -24.9681   19.1566 O   0  0  0  0  0  0  0  0  0  0  0  0
  -19.3175  -24.9608   23.3290 O   0  0  0  0  0  0  0  0  0  0  0  0
  -31.8573  -14.9325   20.1840 O   0  0  0  0  0  0  0  0  0  0  0  0
  -21.6070   -7.0227   21.7107 O   0  0  0  0  0  0  0  0  0  0  0  0
  -29.4366  -19.7340   23.9579 O   0  0  0  0  0  0  0  0  0  0  0  0
  -23.8122  -20.2920   21.2431 O   0  0  0  0  0  0  0  0  0  1  0  0
  -16.4456   -6.8370   19.7795 F   0  0  0  0  0  0  0  0  0  0  0  0
  -19.7262   -8.8852   22.5085 F   0  0  0  0  0  0  0  0  0  0  0  0
  1  2  1  0  0  0  0
  1  5  2  0  0  0  0
  2  6  2  0  0  0  0
  3  9  2  0  0  0  0
  3 18  1  0  0  0  0
  4 10  1  0  0  0  0
  4 18  2  0  0  0  0
  5 20  1  0  0  0  0
  6 22  1  0  0  0  0
  7 11  2  0  0  0  0
  7 21  1  0  0  0  0
  8 12  2  0  0  0  0
  8 24  1  0  0  0  0
  9 28  1  0  0  0  0
 10 28  2  0  0  0  0
 11 29  1  0  0  0  0
 12 30  1  0  0  0  0
 13 14  2  0  0  0  0
 13 31  1  0  0  0  0
 14 33  1  0  0  0  0
 15 23  1  0  0  0  0
 15 29  2  0  0  0  0
 16 32  1  0  0  0  0
 16 37  2  0  0  0  0
 17 33  2  0  0  0  0
 17 34  1  0  0  0  0
 18 35  1  0  0  0  0
 19 35  1  0  0  0  0
 19 38  2  0  0  0  0
 19 39  1  0  0  0  0
 20 22  2  0  0  0  0
 20 44  1  0  0  0  0
 21 23  2  0  0  0  0
 21 45  1  0  0  0  0
 22 53  1  0  0  0  0
 23 46  1  0  0  0  0
 24 25  2  0  0  0  0
 24 65  1  0  0  0  0
 25 26  1  0  0  0  0
 25 56  1  0  0  0  0
 26 30  2  0  0  0  0
 26 57  1  0  0  0  0
 27 32  2  0  0  0  0
 27 36  1  0  0  0  0
 27 58  1  0  0  0  0
 28 85  1  0  0  0  0
 29 87  1  0  0  0  0
 30 86  1  0  0  0  0
 31 34  2  0  0  0  0
 31 85  1  0  0  0  0
 32 86  1  0  0  0  0
 33 88  1  0  0  0  0
 34 89  1  0  0  0  0
 35 69  2  0  0  0  0
 36 59  1  0  0  0  0
 36 70  2  0  0  0  0
 37 70  1  0  0  0  0
 37 76  1  0  0  0  0
 38 71  1  0  0  0  0
 38 74  1  0  0  0  0
 39 75  1  0  0  0  0
 39 80  2  0  0  0  0
 40 54  1  0  0  0  0
 40 77  1  0  0  0  0
 40 81  2  0  0  0  0
 41 66  1  0  0  0  0
 41 72  1  0  0  0  0
 41 82  2  0  0  0  0
 42 67  1  0  0  0  0
 42 78  1  0  0  0  0
 42 83  2  0  0  0  0
 43 73  1  0  0  0  0
 43 76  1  0  0  0  0
 43 84  2  0  0  0  0
 44 47  1  0  0  0  0
 45 54  1  0  0  0  0
 46 72  1  0  0  0  0
 47 49  1  0  0  0  0
 48 50  1  0  0  0  0
 48 51  1  0  0  0  0
 49 53  1  0  0  0  0
 50 55  1  0  0  0  0
 51 73  1  0  0  0  0
 52 55  1  0  0  0  0
 52 73  1  0  0  0  0
 53 77  1  0  0  0  0
 54 72  1  0  0  0  0
 55 71  1  0  0  0  0
 60 67  1  0  0  0  0
 61 68  1  0  0  0  0
 62 68  1  0  0  0  0
 63 68  1  0  0  0  0
 64 79  1  0  0  0  0
 65 87  1  0  0  0  0
 66 68  1  0  0  0  0
 66 78  1  0  0  0  0
 67 79  1  0  0  0  0
 69 71  1  0  0  0  0
M  CHG  1  79   1
M  ISO  4  43 100  65 101  76 100  87 101
M  END
> <Batch ID>
0157

> <Smiles>
CNC(C)C(=O)NC(C(=O)N1Cc2cc([101O:1][101CH2:1]c3ccc(Oc4cc([100NH:0][100C:0](=O)N5CCCC(n6nc(-c7ccc(Oc8ccc(F)cc8F)cc7)c(C(N)=O)c6N)C5)nc(C)c4C)c(C)c3C)ccc2CC1C(=O)NC1CCCc2ccccc21)C(C)(C)C

> <Shape>
0.177

> <Color>
0.188

> <Negative vol penalty>
0.000

$$$$

  -OEChem-04052321593D

 89 99  0     1  0  0  0  0  0999 V2000
  -29.4107  -32.7832   25.4533 C   0  0  0  0  0  0  0  0  0  0  0  0
  -29.2918  -31.6800   24.6140 C   0  0  0  0  0  0  0  0  0  0  0  0
  -23.7358   -9.9115   22.1101 C   0  0  0  0  0  0  0  0  0  0  0  0
  -25.0135   -7.8865   21.7877 C   0  0  0  0  0  0  0  0  0  0  0  0
  -28.3228  -33.1920   26.2236 C   0  0  0  0  0  0  0  0  0  0  0  0
  -28.0853  -30.9843   24.5455 C   0  0  0  0  0  0  0  0  0  0  0  0
  -26.7386  -29.8948   19.7869 C   0  0  0  0  0  0  0  0  0  0  0  0
  -22.5547   -9.1995   21.9013 C   0  0  0  0  0  0  0  0  0  0  0  0
  -23.8324   -7.1744   21.5790 C   0  0  0  0  0  0  0  0  0  0  0  0
  -27.3836  -28.8224   19.1723 C   0  0  0  0  0  0  0  0  0  0  0  0
  -21.3605   -5.8466   23.4623 C   0  0  0  0  0  0  0  0  0  0  0  0
  -21.2247   -4.6166   24.1059 C   0  0  0  0  0  0  0  0  0  0  0  0
  -30.0254  -20.5543   19.9320 C   0  0  0  0  0  0  0  0  0  0  0  0
  -29.3509  -21.2824   22.1347 C   0  0  0  0  0  0  0  0  0  0  0  0
  -25.4800  -27.4168   19.6407 C   0  0  0  0  0  0  0  0  0  0  0  0
  -20.9979   -3.5212   21.9644 C   0  0  0  0  0  0  0  0  0  0  0  0
  -24.9653   -9.2550   22.0532 C   0  0  0  0  0  0  0  0  0  0  0  0
  -26.8418  -10.2085   23.4944 C   0  0  0  0  0  0  0  0  0  0  0  0
  -27.0994  -32.5067   26.1572 C   0  0  0  0  0  0  0  0  0  0  0  0
  -25.4618  -29.7331   20.3436 C   0  0  0  0  0  0  0  0  0  0  0  0
  -26.9805  -31.3835   25.3167 C   0  0  0  0  0  0  0  0  0  0  0  0
  -29.6845  -20.2558   21.2512 C   0  0  0  0  0  0  0  0  0  0  0  0
  -24.8199  -28.4894   20.2596 C   0  0  0  0  0  0  0  0  0  0  0  0
  -29.6993  -22.9060   20.3798 C   0  0  0  0  0  0  0  0  0  0  0  0
  -30.0329  -21.8794   19.4963 C   0  0  0  0  0  0  0  0  0  0  0  0
  -22.6030   -7.8310   21.6358 C   0  0  0  0  0  0  0  0  0  0  0  0
  -26.7555  -27.5825   19.1017 C   0  0  0  0  0  0  0  0  0  0  0  0
  -21.3149   -5.9140   22.0698 C   0  0  0  0  0  0  0  0  0  0  0  0
  -29.3583  -22.6075   21.6990 C   0  0  0  0  0  0  0  0  0  0  0  0
  -21.0435   -3.4539   23.3570 C   0  0  0  0  0  0  0  0  0  0  0  0
  -21.1337   -4.7513   21.3209 C   0  0  0  0  0  0  0  0  0  0  0  0
  -26.1857   -9.9901   22.2682 C   0  0  0  0  0  0  0  0  0  0  0  0
  -27.9456  -10.9565   23.1648 C   0  0  0  0  0  0  0  0  0  0  0  0
  -26.4853   -9.7742   24.8135 C   0  0  0  0  0  0  0  0  0  0  0  0
  -24.2408  -29.9883   23.2673 C   0  0  0  0  0  0  0  0  0  0  0  0
  -21.4332  -29.5105   21.7143 C   0  0  0  0  0  0  0  0  0  0  0  0
  -19.8075  -28.2613   18.9861 C   0  0  0  0  0  0  0  0  0  0  0  0
  -30.4410  -14.9975   20.4327 C   0  0  0  0  0  0  0  0  0  0  0  0
  -25.9660  -32.9573   27.0443 C   0  0  0  0  0  0  0  0  0  0  0  0
  -24.7685  -30.9068   20.9795 C   0  0  0  0  0  0  0  0  0  0  0  0
  -23.4409  -28.2689   20.8238 C   0  0  0  0  0  0  0  0  0  0  0  0
  -24.6088  -32.3925   26.6327 C   0  0  0  0  0  0  0  0  0  0  0  0
  -29.9609  -12.0644   18.6679 C   0  0  0  0  0  0  0  0  0  0  0  0
  -24.7153  -30.8964   26.3547 C   0  0  0  0  0  0  0  0  0  0  0  0
  -28.9899  -11.2698   19.5409 C   0  0  0  0  0  0  0  0  0  0  0  0
  -28.6424  -17.9634   20.9677 C   0  0  0  0  0  0  0  0  0  0  0  0
  -31.0736  -18.1725   21.6422 C   0  0  0  0  0  0  0  0  0  0  0  0
  -29.1910  -24.7424   18.4595 C   0  0  0  0  0  0  0  0  0  0  0  0
  -28.5967  -25.3764   20.3989 C   0  0  0  0  0  0  0  0  0  0  0  0
  -29.5771  -13.5390   18.6279 C   0  0  0  0  0  0  0  0  0  0  0  0
  -28.6628  -16.5032   21.4286 C   0  0  0  0  0  0  0  0  0  0  0  0
  -31.0296  -16.7206   22.1099 C   0  0  0  0  0  0  0  0  0  0  0  0
  -28.5241  -13.3936   20.8612 C   0  0  0  0  0  0  0  0  0  0  0  0
  -29.6770  -18.8148   21.7254 C   0  0  0  0  0  0  0  0  0  0  0  0
  -29.7065  -24.4123   19.8897 C   0  0  0  0  0  0  0  0  0  0  0  0
  -25.6807  -30.6179   25.1962 C   0  0  1  0  0  0  0  0  0  0  0  0
  -23.6818  -30.4950   21.9679 C   0  0  1  0  0  0  0  0  0  0  0  0
  -28.8702  -11.8929   20.9430 C   0  0  1  0  0  0  0  0  0  0  0  0
  -28.6506  -26.0752   19.0229 C   0  0  0  0  0  0  0  0  0  1  0  0
  -30.4006  -22.1761   18.0796 C   0  0  0  0  0  0  0  0  0  0  0  0
  -17.5088  -27.9865   18.0175 C   0  0  0  0  0  0  0  0  0  0  0  0
  -20.8873  -27.2277   23.6638 C   0  0  0  0  0  0  0  0  0  0  0  0
  -19.1100  -26.4109   22.1010 C   0  0  0  0  0  0  0  0  0  0  0  0
  -18.9029  -28.6622   23.1552 C   0  0  0  0  0  0  0  0  0  0  0  0
  -20.4886  -29.8871   16.6087 C   0  0  0  0  0  0  0  0  0  0  0  0
  -28.6949  -23.2046   23.9033 C   0  0  0  0  0  0  0  0  0  0  0  0
  -20.6158  -28.3005   21.3311 C   0  0  1  0  0  0  0  0  0  0  0  0
  -18.7489  -28.8646   18.0806 C   0  0  2  0  0  0  0  0  0  0  0  0
  -19.9058  -27.6536   22.5538 C   0  0  0  0  0  0  0  0  0  0  0  0
  -26.8198  -10.5538   21.2366 N   0  0  0  0  0  0  0  0  0  0  0  0
  -27.8857  -11.1340   21.8139 N   0  0  0  0  0  0  0  0  0  0  0  0
  -22.8069  -29.4455   21.4412 N   0  0  0  0  0  0  0  0  0  0  0  0
  -29.4701  -14.0926   19.9776 N   0  0  0  0  0  0  0  0  0  0  0  0
  -30.0263  -15.9584   21.3670 N   0  0  0  0  0  0  0  0  0  0  0  0
  -28.9518  -11.4732   23.9017 N   0  0  0  0  0  0  0  0  0  0  0  0
  -25.3191   -9.0136   24.9741 N   0  0  0  0  0  0  0  0  0  0  0  0
  -25.0428  -30.8991   23.9280 N   0  0  0  0  0  0  0  0  0  0  0  0
  -19.7084  -28.7383   20.2760 N   0  0  0  0  0  0  0  0  0  0  0  0
  -19.2809  -29.0265   16.6980 N   0  3  0  0  0  0  0  0  0  0  0  0
  -27.1716  -10.0661   25.8221 O   0  0  0  0  0  0  0  0  0  0  0  0
  -23.9637  -28.8554   23.6433 O   0  0  0  0  0  0  0  0  0  0  0  0
  -20.8723  -30.4806   22.2301 O   0  0  0  0  0  0  0  0  0  0  0  0
  -20.6368  -27.4454   18.5896 O   0  0  0  0  0  0  0  0  0  0  0  0
  -31.6097  -14.9498   20.0291 O   0  0  0  0  0  0  0  0  0  0  0  0
  -21.4506   -7.1358   21.4323 O   0  0  0  0  0  0  0  0  0  0  0  0
  -27.3904  -26.5217   18.4960 O   0  0  0  0  0  0  0  0  0  1  0  0
  -29.0305  -23.5984   22.5742 O   0  0  0  0  0  0  0  0  0  0  0  0
  -20.9147   -2.2726   23.9751 F   0  0  0  0  0  0  0  0  0  0  0  0
  -21.0902   -4.8095   19.9828 F   0  0  0  0  0  0  0  0  0  0  0  0
  1  2  1  0  0  0  0
  1  5  2  0  0  0  0
  2  6  2  0  0  0  0
  3  8  2  0  0  0  0
  3 17  1  0  0  0  0
  4  9  1  0  0  0  0
  4 17  2  0  0  0  0
  5 19  1  0  0  0  0
  6 21  1  0  0  0  0
  7 10  2  0  0  0  0
  7 20  1  0  0  0  0
  8 26  1  0  0  0  0
  9 26  2  0  0  0  0
 10 27  1  0  0  0  0
 11 12  2  0  0  0  0
 11 28  1  0  0  0  0
 12 30  1  0  0  0  0
 13 22  1  0  0  0  0
 13 25  2  0  0  0  0
 14 22  2  0  0  0  0
 14 29  1  0  0  0  0
 15 23  1  0  0  0  0
 15 27  2  0  0  0  0
 16 30  2  0  0  0  0
 16 31  1  0  0  0  0
 17 32  1  0  0  0  0
 18 32  1  0  0  0  0
 18 33  2  0  0  0  0
 18 34  1  0  0  0  0
 19 21  2  0  0  0  0
 19 39  1  0  0  0  0
 20 23  2  0  0  0  0
 20 40  1  0  0  0  0
 21 56  1  0  0  0  0
 22 54  1  0  0  0  0
 23 41  1  0  0  0  0
 24 25  1  0  0  0  0
 24 29  2  0  0  0  0
 24 55  1  0  0  0  0
 25 60  1  0  0  0  0
 26 85  1  0  0  0  0
 27 86  1  0  0  0  0
 28 31  2  0  0  0  0
 28 85  1  0  0  0  0
 29 87  1  0  0  0  0
 30 88  1  0  0  0  0
 31 89  1  0  0  0  0
 32 70  2  0  0  0  0
 33 71  1  0  0  0  0
 33 75  1  0  0  0  0
 34 76  1  0  0  0  0
 34 80  2  0  0  0  0
 35 57  1  0  0  0  0
 35 77  1  0  0  0  0
 35 81  2  0  0  0  0
 36 67  1  0  0  0  0
 36 72  1  0  0  0  0
 36 82  2  0  0  0  0
 37 68  1  0  0  0  0
 37 78  1  0  0  0  0
 37 83  2  0  0  0  0
 38 73  1  0  0  0  0
 38 74  1  0  0  0  0
 38 84  2  0  0  0  0
 39 42  1  0  0  0  0
 40 57  1  0  0  0  0
 41 72  1  0  0  0  0
 42 44  1  0  0  0  0
 43 45  1  0  0  0  0
 43 50  1  0  0  0  0
 44 56  1  0  0  0  0
 45 58  1  0  0  0  0
 46 51  1  0  0  0  0
 46 54  1  0  0  0  0
 47 52  1  0  0  0  0
 47 54  1  0  0  0  0
 48 55  1  0  0  0  0
 48 59  1  0  0  0  0
 49 55  1  0  0  0  0
 49 59  1  0  0  0  0
 50 73  1  0  0  0  0
 51 74  1  0  0  0  0
 52 74  1  0  0  0  0
 53 58  1  0  0  0  0
 53 73  1  0  0  0  0
 56 77  1  0  0  0  0
 57 72  1  0  0  0  0
 58 71  1  0  0  0  0
 59 86  1  0  0  0  0
 61 68  1  0  0  0  0
 62 69  1  0  0  0  0
 63 69  1  0  0  0  0
 64 69  1  0  0  0  0
 65 79  1  0  0  0  0
 66 87  1  0  0  0  0
 67 69  1  0  0  0  0
 67 78  1  0  0  0  0
 68 79  1  0  0  0  0
 70 71  1  0  0  0  0
M  CHG  1  79   1
M  ISO  4  38 100  59 101  74 100  86 101
M  END
> <Batch ID>
0157

> <Smiles>
CNC(C)C(=O)NC(C(=O)N1Cc2cc([101O:1][101CH:1]3CC(c4c(C)cc(C5CC[100N:0]([100C:0](=O)N6CCCC(n7nc(-c8ccc(Oc9ccc(F)cc9F)cc8)c(C(N)=O)c7N)C6)CC5)cc4OC)C3)ccc2CC1C(=O)NC1CCCc2ccccc21)C(C)(C)C

> <Shape>
0.368

> <Color>
0.105

> <Negative vol penalty>
0.000

$$$$

  -OEChem-04052321593D

 89 98  0     1  0  0  0  0  0999 V2000
  -28.2664  -37.1656   22.3712 C   0  0  0  0  0  0  0  0  0  0  0  0
  -28.5389  -35.8818   21.9094 C   0  0  0  0  0  0  0  0  0  0  0  0
  -22.5306  -11.5940   21.7002 C   0  0  0  0  0  0  0  0  0  0  0  0
  -23.1694  -13.9131   21.4748 C   0  0  0  0  0  0  0  0  0  0  0  0
  -27.4016  -37.3483   23.4494 C   0  0  0  0  0  0  0  0  0  0  0  0
  -27.9475  -34.7800   22.5263 C   0  0  0  0  0  0  0  0  0  0  0  0
  -26.1409  -31.4241   19.1918 C   0  0  0  0  0  0  0  0  0  0  0  0
  -21.4747  -11.9657   22.5323 C   0  0  0  0  0  0  0  0  0  0  0  0
  -22.1134  -14.2849   22.3069 C   0  0  0  0  0  0  0  0  0  0  0  0
  -27.0625  -30.5768   18.5783 C   0  0  0  0  0  0  0  0  0  0  0  0
  -18.7717  -14.7157   22.0462 C   0  0  0  0  0  0  0  0  0  0  0  0
  -17.9906  -15.8025   21.6533 C   0  0  0  0  0  0  0  0  0  0  0  0
  -26.4597  -28.8180   20.1154 C   0  0  0  0  0  0  0  0  0  0  0  0
  -18.5859  -16.9652   23.6857 C   0  0  0  0  0  0  0  0  0  0  0  0
  -23.3780  -12.5677   21.1715 C   0  0  0  0  0  0  0  0  0  0  0  0
  -24.3848  -11.5039   19.0828 C   0  0  0  0  0  0  0  0  0  0  0  0
  -26.7917  -36.2488   24.0737 C   0  0  0  0  0  0  0  0  0  0  0  0
  -25.3783  -30.9774   20.2806 C   0  0  0  0  0  0  0  0  0  0  0  0
  -27.0747  -34.9482   23.6148 C   0  0  0  0  0  0  0  0  0  0  0  0
  -25.5273  -29.6608   20.7393 C   0  0  0  0  0  0  0  0  0  0  0  0
  -21.2660  -13.3111   22.8356 C   0  0  0  0  0  0  0  0  0  0  0  0
  -27.2241  -29.2745   19.0419 C   0  0  0  0  0  0  0  0  0  0  0  0
  -19.4599  -14.7537   23.2590 C   0  0  0  0  0  0  0  0  0  0  0  0
  -17.8977  -16.9272   22.4730 C   0  0  0  0  0  0  0  0  0  0  0  0
  -19.3670  -15.8784   24.0787 C   0  0  0  0  0  0  0  0  0  0  0  0
  -24.4694  -12.1843   20.3123 C   0  0  0  0  0  0  0  0  0  0  0  0
  -25.6883  -11.3811   18.6680 C   0  0  0  0  0  0  0  0  0  0  0  0
  -23.2310  -11.0257   18.3787 C   0  0  0  0  0  0  0  0  0  0  0  0
  -25.0981  -31.8396   23.3272 C   0  0  0  0  0  0  0  0  0  0  0  0
  -22.7066  -29.6480   23.3224 C   0  0  0  0  0  0  0  0  0  0  0  0
  -20.5604  -27.0566   22.7523 C   0  0  0  0  0  0  0  0  0  0  0  0
  -30.6497  -14.5261   19.8274 C   0  0  0  0  0  0  0  0  0  0  0  0
  -25.9009  -36.4930   25.2660 C   0  0  0  0  0  0  0  0  0  0  0  0
  -24.3692  -31.8953   20.9144 C   0  0  0  0  0  0  0  0  0  0  0  0
  -24.7183  -29.1263   21.8919 C   0  0  0  0  0  0  0  0  0  0  0  0
  -25.0226  -35.2973   25.6252 C   0  0  0  0  0  0  0  0  0  0  0  0
  -30.1452  -11.0444   20.3750 C   0  0  0  0  0  0  0  0  0  0  0  0
  -25.8453  -34.0128   25.6296 C   0  0  0  0  0  0  0  0  0  0  0  0
  -28.8520  -24.7610   18.3368 C   0  0  0  0  0  0  0  0  0  0  0  0
  -29.5395  -25.6882   20.5870 C   0  0  0  0  0  0  0  0  0  0  0  0
  -28.6257  -10.8803   20.3101 C   0  0  0  0  0  0  0  0  0  0  0  0
  -30.8396  -17.7613   19.6695 C   0  0  0  0  0  0  0  0  0  0  0  0
  -31.8316  -18.8325   19.2177 C   0  0  0  0  0  0  0  0  0  0  0  0
  -30.0779  -19.6730   17.4901 C   0  0  0  0  0  0  0  0  0  0  0  0
  -28.6051  -26.1795   17.8320 C   0  0  0  0  0  0  0  0  0  0  0  0
  -29.2902  -27.1041   20.0762 C   0  0  0  0  0  0  0  0  0  0  0  0
  -30.2932  -18.4025   16.6742 C   0  0  0  0  0  0  0  0  0  0  0  0
  -30.5427  -12.3642   21.0322 C   0  0  0  0  0  0  0  0  0  0  0  0
  -28.4064  -13.3996   20.3706 C   0  0  0  0  0  0  0  0  0  0  0  0
  -26.4332  -33.7294   24.2419 C   0  0  1  0  0  0  0  0  0  0  0  0
  -24.0146  -31.4976   22.3439 C   0  0  1  0  0  0  0  0  0  0  0  0
  -29.9133  -24.7325   19.4454 C   0  0  0  0  0  0  0  0  0  0  0  0
  -27.9561  -12.1088   19.6654 C   0  0  2  0  0  0  0  0  0  0  0  0
  -30.5974  -16.6882   18.5998 C   0  0  2  0  0  0  0  0  0  0  0  0
  -31.2243  -20.0017   18.4441 C   0  0  1  0  0  0  0  0  0  0  0  0
  -28.2371  -27.1274   18.9703 C   0  0  0  0  0  0  0  0  0  1  0  0
  -29.7823  -17.1423   17.3793 C   0  0  2  0  0  0  0  0  0  0  0  0
  -18.8451  -25.6301   23.9014 C   0  0  0  0  0  0  0  0  0  0  0  0
  -24.9336  -28.1046   24.7253 C   0  0  0  0  0  0  0  0  0  0  0  0
  -23.3260  -26.2119   25.0439 C   0  0  0  0  0  0  0  0  0  0  0  0
  -22.8656  -28.4272   26.0941 C   0  0  0  0  0  0  0  0  0  0  0  0
  -18.4203  -27.9424   20.9100 C   0  0  0  0  0  0  0  0  0  0  0  0
  -28.6769  -16.1672   15.5491 C   0  0  0  0  0  0  0  0  0  0  0  0
  -30.1045  -23.3116   19.9725 C   0  0  0  0  0  0  0  0  0  0  0  0
  -30.5940  -22.3865   18.8733 C   0  0  0  0  0  0  0  0  0  0  0  0
  -22.6145  -28.1655   23.5920 C   0  0  1  0  0  0  0  0  0  0  0  0
  -19.0865  -26.8807   23.0704 C   0  0  2  0  0  0  0  0  0  0  0  0
  -23.4404  -27.7374   24.8378 C   0  0  0  0  0  0  0  0  0  0  0  0
  -25.7272  -12.4734   20.6562 N   0  0  0  0  0  0  0  0  0  0  0  0
  -26.4450  -11.9721   19.6366 N   0  0  0  0  0  0  0  0  0  0  0  0
  -23.7492  -30.0643   22.4824 N   0  0  0  0  0  0  0  0  0  0  0  0
  -29.8750  -13.4892   20.3731 N   0  0  0  0  0  0  0  0  0  0  0  0
  -26.2496  -10.8262   17.5728 N   0  0  0  0  0  0  0  0  0  0  0  0
  -22.6070  -11.8806   17.4600 N   0  0  0  0  0  0  0  0  0  0  0  0
  -25.4195  -33.1830   23.3655 N   0  0  0  0  0  0  0  0  0  0  0  0
  -21.1920  -27.8547   23.6825 N   0  0  0  0  0  0  0  0  0  0  0  0
  -29.9381  -15.5505   19.2151 N   0  0  0  0  0  0  0  0  0  0  0  0
  -30.7178  -21.0146   19.4215 N   0  3  0  0  0  0  0  0  0  0  0  0
  -18.2948  -26.7693   21.8128 N   0  3  0  0  0  0  0  0  0  0  0  0
  -22.7573   -9.8801   18.5709 O   0  0  0  0  0  0  0  0  0  0  0  0
  -25.6039  -30.9508   24.0023 O   0  0  0  0  0  0  0  0  0  0  0  0
  -21.8794  -30.4080   23.8323 O   0  0  0  0  0  0  0  0  0  0  0  0
  -21.0984  -26.5349   21.7782 O   0  0  0  0  0  0  0  0  0  0  0  0
  -31.8844  -14.5353   19.8772 O   0  0  0  0  0  0  0  0  0  0  0  0
  -20.2356  -13.6743   23.6473 O   0  0  0  0  0  0  0  0  0  0  0  0
  -28.1234  -28.4455   18.4452 O   0  0  0  0  0  0  0  0  0  1  0  0
  -29.8058  -16.0944   16.4023 O   0  0  0  0  0  0  0  0  0  0  0  0
  -17.1488  -17.9714   22.0948 F   0  0  0  0  0  0  0  0  0  0  0  0
  -20.0268  -15.9212   25.2443 F   0  0  0  0  0  0  0  0  0  0  0  0
  1  2  1  0  0  0  0
  1  5  2  0  0  0  0
  2  6  2  0  0  0  0
  3  8  2  0  0  0  0
  3 15  1  0  0  0  0
  4  9  1  0  0  0  0
  4 15  2  0  0  0  0
  5 17  1  0  0  0  0
  6 19  1  0  0  0  0
  7 10  2  0  0  0  0
  7 18  1  0  0  0  0
  8 21  1  0  0  0  0
  9 21  2  0  0  0  0
 10 22  1  0  0  0  0
 11 12  2  0  0  0  0
 11 23  1  0  0  0  0
 12 24  1  0  0  0  0
 13 20  1  0  0  0  0
 13 22  2  0  0  0  0
 14 24  2  0  0  0  0
 14 25  1  0  0  0  0
 15 26  1  0  0  0  0
 16 26  1  0  0  0  0
 16 27  2  0  0  0  0
 16 28  1  0  0  0  0
 17 19  2  0  0  0  0
 17 33  1  0  0  0  0
 18 20  2  0  0  0  0
 18 34  1  0  0  0  0
 19 50  1  0  0  0  0
 20 35  1  0  0  0  0
 21 85  1  0  0  0  0
 22 86  1  0  0  0  0
 23 25  2  0  0  0  0
 23 85  1  0  0  0  0
 24 88  1  0  0  0  0
 25 89  1  0  0  0  0
 26 69  2  0  0  0  0
 27 70  1  0  0  0  0
 27 73  1  0  0  0  0
 28 74  1  0  0  0  0
 28 80  2  0  0  0  0
 29 51  1  0  0  0  0
 29 75  1  0  0  0  0
 29 81  2  0  0  0  0
 30 66  1  0  0  0  0
 30 71  1  0  0  0  0
 30 82  2  0  0  0  0
 31 67  1  0  0  0  0
 31 76  1  0  0  0  0
 31 83  2  0  0  0  0
 32 72  1  0  0  0  0
 32 77  1  0  0  0  0
 32 84  2  0  0  0  0
 33 36  1  0  0  0  0
 34 51  1  0  0  0  0
 35 71  1  0  0  0  0
 36 38  1  0  0  0  0
 37 41  1  0  0  0  0
 37 48  1  0  0  0  0
 38 50  1  0  0  0  0
 39 45  1  0  0  0  0
 39 52  1  0  0  0  0
 40 46  1  0  0  0  0
 40 52  1  0  0  0  0
 41 53  1  0  0  0  0
 42 43  1  0  0  0  0
 42 54  1  0  0  0  0
 43 55  1  0  0  0  0
 44 47  1  0  0  0  0
 44 55  1  0  0  0  0
 45 56  1  0  0  0  0
 46 56  1  0  0  0  0
 47 57  1  0  0  0  0
 48 72  1  0  0  0  0
 49 53  1  0  0  0  0
 49 72  1  0  0  0  0
 50 75  1  0  0  0  0
 51 71  1  0  0  0  0
 52 64  1  0  0  0  0
 53 70  1  0  0  0  0
 54 57  1  0  0  0  0
 54 77  1  0  0  0  0
 55 78  1  0  0  0  0
 56 86  1  0  0  0  0
 57 87  1  0  0  0  0
 58 67  1  0  0  0  0
 59 68  1  0  0  0  0
 60 68  1  0  0  0  0
 61 68  1  0  0  0  0
 62 79  1  0  0  0  0
 63 87  1  0  0  0  0
 64 65  1  0  0  0  0
 65 78  1  0  0  0  0
 66 68  1  0  0  0  0
 66 76  1  0  0  0  0
 67 79  1  0  0  0  0
 69 70  1  0  0  0  0
M  CHG  2  78   1  79   1
M  ISO  4  32 100  56 101  77 100  86 101
M  END
> <Batch ID>
0157

> <Smiles>
CNC(C)C(=O)NC(C(=O)N1Cc2cc([101O:1][101CH:1]3CCC(CCNC4CCC([100NH:0][100C:0](=O)N5CCCC(n6nc(-c7ccc(Oc8ccc(F)cc8F)cc7)c(C(N)=O)c6N)C5)C(OC)CC4)CC3)ccc2CC1C(=O)NC1CCCc2ccccc21)C(C)(C)C

> <Shape>
0.293

> <Color>
0.056

> <Negative vol penalty>
0.000

$$$$

  -OEChem-04052321593D

 90 98  0     1  0  0  0  0  0999 V2000
  -37.1623  -27.1429   17.6390 C   0  0  0  0  0  0  0  0  0  0  0  0
  -37.1124  -25.8280   18.0907 C   0  0  0  0  0  0  0  0  0  0  0  0
  -23.0066  -10.0345   19.8667 C   0  0  0  0  0  0  0  0  0  0  0  0
  -23.8579   -9.7819   22.1137 C   0  0  0  0  0  0  0  0  0  0  0  0
  -36.0647  -27.9833   17.8206 C   0  0  0  0  0  0  0  0  0  0  0  0
  -35.9651  -25.3531   18.7253 C   0  0  0  0  0  0  0  0  0  0  0  0
  -34.5913  -20.7660   17.0772 C   0  0  0  0  0  0  0  0  0  0  0  0
  -22.2368   -8.8827   20.0289 C   0  0  0  0  0  0  0  0  0  0  0  0
  -23.0880   -8.6301   22.2759 C   0  0  0  0  0  0  0  0  0  0  0  0
  -35.3056  -19.6733   17.5665 C   0  0  0  0  0  0  0  0  0  0  0  0
  -19.7721   -6.2111   19.9783 C   0  0  0  0  0  0  0  0  0  0  0  0
  -18.4470   -6.2503   19.5446 C   0  0  0  0  0  0  0  0  0  0  0  0
  -33.5352  -19.2300   19.1440 C   0  0  0  0  0  0  0  0  0  0  0  0
  -32.6914  -18.6298   23.8156 C   0  0  0  0  0  0  0  0  0  0  0  0
  -34.3313  -16.8622   23.6644 C   0  0  0  0  0  0  0  0  0  0  0  0
  -17.9979   -8.0604   21.0806 C   0  0  0  0  0  0  0  0  0  0  0  0
  -23.8172  -10.4841   20.9091 C   0  0  0  0  0  0  0  0  0  0  0  0
  -24.2348  -12.9976   21.0344 C   0  0  0  0  0  0  0  0  0  0  0  0
  -34.8998  -27.5156   18.4491 C   0  0  0  0  0  0  0  0  0  0  0  0
  -33.3464  -21.1060   17.6258 C   0  0  0  0  0  0  0  0  0  0  0  0
  -34.8514  -26.1884   18.9166 C   0  0  0  0  0  0  0  0  0  0  0  0
  -32.8059  -20.3260   18.6580 C   0  0  0  0  0  0  0  0  0  0  0  0
  -33.0009  -17.2808   23.6427 C   0  0  0  0  0  0  0  0  0  0  0  0
  -33.7122  -19.5603   24.0103 C   0  0  0  0  0  0  0  0  0  0  0  0
  -35.3522  -17.7926   23.8591 C   0  0  0  0  0  0  0  0  0  0  0  0
  -22.2775   -8.1805   21.2334 C   0  0  0  0  0  0  0  0  0  0  0  0
  -34.7790  -18.9068   18.6020 C   0  0  0  0  0  0  0  0  0  0  0  0
  -20.2101   -7.0964   20.9632 C   0  0  0  0  0  0  0  0  0  0  0  0
  -35.0426  -19.1416   24.0321 C   0  0  0  0  0  0  0  0  0  0  0  0
  -17.5599   -7.1750   20.0957 C   0  0  0  0  0  0  0  0  0  0  0  0
  -19.3231   -8.0211   21.5143 C   0  0  0  0  0  0  0  0  0  0  0  0
  -24.6131  -11.6735   20.7420 C   0  0  0  0  0  0  0  0  0  0  0  0
  -25.3349  -13.7502   20.7031 C   0  0  0  0  0  0  0  0  0  0  0  0
  -22.9994  -13.5021   21.5586 C   0  0  0  0  0  0  0  0  0  0  0  0
  -32.1832  -23.6427   19.1476 C   0  0  0  0  0  0  0  0  0  0  0  0
  -29.3854  -22.0194   18.9039 C   0  0  0  0  0  0  0  0  0  0  0  0
  -27.7980  -19.0198   18.5443 C   0  0  0  0  0  0  0  0  0  0  0  0
  -30.8517  -14.5916   20.7576 C   0  0  0  0  0  0  0  0  0  0  0  0
  -33.7563  -28.4749   18.6651 C   0  0  0  0  0  0  0  0  0  0  0  0
  -32.5762  -22.2717   17.0687 C   0  0  0  0  0  0  0  0  0  0  0  0
  -31.4642  -20.6369   19.2677 C   0  0  0  0  0  0  0  0  0  0  0  0
  -32.4396  -27.7849   19.0122 C   0  0  0  0  0  0  0  0  0  0  0  0
  -29.5432  -12.5006   18.1900 C   0  0  0  0  0  0  0  0  0  0  0  0
  -32.6604  -26.7215   20.0833 C   0  0  0  0  0  0  0  0  0  0  0  0
  -28.1156  -12.2035   18.6523 C   0  0  0  0  0  0  0  0  0  0  0  0
  -30.5145  -12.5699   19.3664 C   0  0  0  0  0  0  0  0  0  0  0  0
  -28.6944  -13.2053   20.9018 C   0  0  0  0  0  0  0  0  0  0  0  0
  -33.6156  -25.6291   19.5875 C   0  0  1  0  0  0  0  0  0  0  0  0
  -31.5520  -22.8346   18.0492 C   0  0  1  0  0  0  0  0  0  0  0  0
  -27.6686  -13.1812   19.7557 C   0  0  2  0  0  0  0  0  0  0  0  0
  -33.3609  -21.0000   24.1938 C   0  0  0  0  0  0  0  0  0  0  0  0
  -37.0420  -16.3631   25.0570 C   0  0  0  0  0  0  0  0  0  0  0  0
  -25.8944  -17.4165   18.2233 C   0  0  0  0  0  0  0  0  0  0  0  0
  -39.0450  -17.1054   20.0769 C   0  0  0  0  0  0  0  0  0  0  0  0
  -29.0767  -22.3476   21.9217 C   0  0  0  0  0  0  0  0  0  0  0  0
  -27.3327  -20.5521   21.8683 C   0  0  0  0  0  0  0  0  0  0  0  0
  -26.9699  -22.6784   20.6154 C   0  0  0  0  0  0  0  0  0  0  0  0
  -31.6940  -15.7283   25.8591 C   0  0  0  0  0  0  0  0  0  0  0  0
  -27.9824  -19.2102   15.5966 C   0  0  0  0  0  0  0  0  0  0  0  0
  -31.0361  -16.5993   22.2048 C   0  0  0  0  0  0  0  0  0  0  0  0
  -37.2272  -16.6532   22.5640 C   0  0  0  0  0  0  0  0  0  0  0  0
  -36.8981  -17.9092   19.0141 C   0  0  0  0  0  0  0  0  0  1  0  0
  -36.7995  -17.3155   23.8802 C   0  0  1  0  0  0  0  0  0  0  0  0
  -31.9097  -16.2860   23.4340 C   0  0  2  0  0  0  0  0  0  0  0  0
  -28.6597  -21.0060   19.7555 C   0  0  1  0  0  0  0  0  0  0  0  0
  -26.6712  -18.5800   17.6270 C   0  0  2  0  0  0  0  0  0  0  0  0
  -37.5260  -17.0672   20.1190 C   0  0  2  0  0  0  0  0  0  0  0  0
  -28.0359  -21.6410   21.0303 C   0  0  0  0  0  0  0  0  0  0  0  0
  -25.8565  -11.5866   20.2617 N   0  0  0  0  0  0  0  0  0  0  0  0
  -26.2689  -12.8656   20.2497 N   0  0  0  0  0  0  0  0  0  0  0  0
  -30.7524  -21.7904   18.6929 N   0  0  0  0  0  0  0  0  0  0  0  0
  -30.0332  -13.5156   20.3763 N   0  0  0  0  0  0  0  0  0  0  0  0
  -25.5848  -15.0757   20.7581 N   0  0  0  0  0  0  0  0  0  0  0  0
  -21.9732  -12.5912   21.8442 N   0  0  0  0  0  0  0  0  0  0  0  0
  -32.9249  -24.7189   18.6992 N   0  0  0  0  0  0  0  0  0  0  0  0
  -27.6932  -20.3533   18.8789 N   0  0  0  0  0  0  0  0  0  0  0  0
  -30.3169  -15.4441   21.7157 N   0  0  0  0  0  0  0  0  0  0  0  0
  -30.9981  -16.1549   24.6253 N   0  3  0  0  0  0  0  0  0  0  0  0
  -27.2146  -18.1546   16.3062 N   0  3  0  0  0  0  0  0  0  0  0  0
  -37.0835  -17.6089   21.4365 N   0  3  0  0  0  0  0  0  0  0  0  0
  -22.8052  -14.7262   21.7522 O   0  0  0  0  0  0  0  0  0  0  0  0
  -32.0089  -23.3150   20.3154 O   0  0  0  0  0  0  0  0  0  0  0  0
  -28.7607  -22.9752   18.4370 O   0  0  0  0  0  0  0  0  0  0  0  0
  -28.6806  -18.2558   18.9287 O   0  0  0  0  0  0  0  0  0  0  0  0
  -31.9735  -14.7817   20.2757 O   0  0  0  0  0  0  0  0  0  0  0  0
  -36.0407  -20.0514   24.2233 O   0  0  0  0  0  0  0  0  0  0  0  0
  -21.5262   -7.0567   21.3921 O   0  0  0  0  0  0  0  0  0  0  0  0
  -35.4744  -17.8401   19.0820 O   0  0  0  0  0  0  0  0  0  1  0  0
  -16.2878   -7.2136   19.6781 F   0  0  0  0  0  0  0  0  0  0  0  0
  -19.7384   -8.8749   22.4599 F   0  0  0  0  0  0  0  0  0  0  0  0
  1  2  1  0  0  0  0
  1  5  2  0  0  0  0
  2  6  2  0  0  0  0
  3  8  2  0  0  0  0
  3 17  1  0  0  0  0
  4  9  1  0  0  0  0
  4 17  2  0  0  0  0
  5 19  1  0  0  0  0
  6 21  1  0  0  0  0
  7 10  2  0  0  0  0
  7 20  1  0  0  0  0
  8 26  1  0  0  0  0
  9 26  2  0  0  0  0
 10 27  1  0  0  0  0
 11 12  2  0  0  0  0
 11 28  1  0  0  0  0
 12 30  1  0  0  0  0
 13 22  1  0  0  0  0
 13 27  2  0  0  0  0
 14 23  1  0  0  0  0
 14 24  2  0  0  0  0
 15 23  2  0  0  0  0
 15 25  1  0  0  0  0
 16 30  2  0  0  0  0
 16 31  1  0  0  0  0
 17 32  1  0  0  0  0
 18 32  1  0  0  0  0
 18 33  2  0  0  0  0
 18 34  1  0  0  0  0
 19 21  2  0  0  0  0
 19 39  1  0  0  0  0
 20 22  2  0  0  0  0
 20 40  1  0  0  0  0
 21 48  1  0  0  0  0
 22 41  1  0  0  0  0
 23 64  1  0  0  0  0
 24 29  1  0  0  0  0
 24 51  1  0  0  0  0
 25 29  2  0  0  0  0
 25 63  1  0  0  0  0
 26 87  1  0  0  0  0
 27 88  1  0  0  0  0
 28 31  2  0  0  0  0
 28 87  1  0  0  0  0
 29 86  1  0  0  0  0
 30 89  1  0  0  0  0
 31 90  1  0  0  0  0
 32 69  2  0  0  0  0
 33 70  1  0  0  0  0
 33 73  1  0  0  0  0
 34 74  1  0  0  0  0
 34 81  2  0  0  0  0
 35 49  1  0  0  0  0
 35 75  1  0  0  0  0
 35 82  2  0  0  0  0
 36 65  1  0  0  0  0
 36 71  1  0  0  0  0
 36 83  2  0  0  0  0
 37 66  1  0  0  0  0
 37 76  1  0  0  0  0
 37 84  2  0  0  0  0
 38 72  1  0  0  0  0
 38 77  1  0  0  0  0
 38 85  2  0  0  0  0
 39 42  1  0  0  0  0
 40 49  1  0  0  0  0
 41 71  1  0  0  0  0
 42 44  1  0  0  0  0
 43 45  1  0  0  0  0
 43 46  1  0  0  0  0
 44 48  1  0  0  0  0
 45 50  1  0  0  0  0
 46 72  1  0  0  0  0
 47 50  1  0  0  0  0
 47 72  1  0  0  0  0
 48 75  1  0  0  0  0
 49 71  1  0  0  0  0
 50 70  1  0  0  0  0
 52 63  1  0  0  0  0
 53 66  1  0  0  0  0
 54 67  1  0  0  0  0
 55 68  1  0  0  0  0
 56 68  1  0  0  0  0
 57 68  1  0  0  0  0
 58 78  1  0  0  0  0
 59 79  1  0  0  0  0
 60 64  1  0  0  0  0
 60 77  1  0  0  0  0
 61 63  1  0  0  0  0
 61 80  1  0  0  0  0
 62 67  1  0  0  0  0
 62 88  1  0  0  0  0
 64 78  1  0  0  0  0
 65 68  1  0  0  0  0
 65 76  1  0  0  0  0
 66 79  1  0  0  0  0
 67 80  1  0  0  0  0
 69 70  1  0  0  0  0
M  CHG  3  78   1  79   1  80   1
M  ISO  4  38 100  62 101  77 100  88 101
M  END
> <Batch ID>
0157

> <Smiles>
CNC(C)C(=O)NC(C(=O)N1Cc2cc([101O:1][101CH2:1]C(C)NCC(C)c3cc(C(C[100NH:0][100C:0](=O)N4CCCC(n5nc(-c6ccc(Oc7ccc(F)cc7F)cc6)c(C(N)=O)c5N)C4)NC)cc(C)c3O)ccc2CC1C(=O)NC1CCCc2ccccc21)C(C)(C)C

> <Shape>
0.201

> <Color>
0.182

> <Negative vol penalty>
0.000

$$$$

  -OEChem-04052321593D

 87 96  0     1  0  0  0  0  0999 V2000
  -20.0780  -14.1926   19.2092 C   0  0  0  0  0  0  0  0  0  0  0  0
  -20.6143  -15.4761   19.2275 C   0  0  0  0  0  0  0  0  0  0  0  0
  -26.6955  -27.9422   22.2754 C   0  0  0  0  0  0  0  0  0  0  0  0
  -25.5011  -28.5416   20.2626 C   0  0  0  0  0  0  0  0  0  0  0  0
  -20.7219  -13.1595   19.8888 C   0  0  0  0  0  0  0  0  0  0  0  0
  -21.7944  -15.7274   19.9266 C   0  0  0  0  0  0  0  0  0  0  0  0
  -27.6559  -19.8388   19.6896 C   0  0  0  0  0  0  0  0  0  0  0  0
  -27.5793  -27.1705   21.5211 C   0  0  0  0  0  0  0  0  0  0  0  0
  -26.3850  -27.7699   19.5083 C   0  0  0  0  0  0  0  0  0  0  0  0
  -28.3896  -20.7155   20.4877 C   0  0  0  0  0  0  0  0  0  0  0  0
  -30.2704  -27.6866   19.5401 C   0  0  0  0  0  0  0  0  0  0  0  0
  -31.6327  -27.8073   19.8141 C   0  0  0  0  0  0  0  0  0  0  0  0
  -29.4573  -18.8365   21.5594 C   0  0  0  0  0  0  0  0  0  0  0  0
  -31.7321  -25.4551   20.3566 C   0  0  0  0  0  0  0  0  0  0  0  0
  -26.5121  -23.3151   24.4327 C   0  0  0  0  0  0  0  0  0  0  0  0
  -25.6563  -28.6277   21.6461 C   0  0  0  0  0  0  0  0  0  0  0  0
  -24.8712  -30.7872   22.7541 C   0  0  0  0  0  0  0  0  0  0  0  0
  -21.9156  -13.3962   20.5885 C   0  0  0  0  0  0  0  0  0  0  0  0
  -27.8096  -18.4519   19.8282 C   0  0  0  0  0  0  0  0  0  0  0  0
  -22.4542  -14.6968   20.6173 C   0  0  0  0  0  0  0  0  0  0  0  0
  -28.7262  -17.9444   20.7601 C   0  0  0  0  0  0  0  0  0  0  0  0
  -25.9119  -21.0161   24.5373 C   0  0  0  0  0  0  0  0  0  0  0  0
  -24.6224  -21.3666   24.1532 C   0  0  0  0  0  0  0  0  0  0  0  0
  -27.4241  -27.0844   20.1376 C   0  0  0  0  0  0  0  0  0  0  0  0
  -29.2883  -20.2143   21.4248 C   0  0  0  0  0  0  0  0  0  0  0  0
  -29.6389  -26.4501   19.6744 C   0  0  0  0  0  0  0  0  0  0  0  0
  -26.8807  -22.0029   24.6819 C   0  0  0  0  0  0  0  0  0  0  0  0
  -32.3636  -26.6916   20.2223 C   0  0  0  0  0  0  0  0  0  0  0  0
  -30.3698  -25.3344   20.0826 C   0  0  0  0  0  0  0  0  0  0  0  0
  -24.7427  -29.4245   22.4248 C   0  0  0  0  0  0  0  0  0  0  0  0
  -24.3549  -22.7073   23.9278 C   0  0  0  0  0  0  0  0  0  0  0  0
  -23.7525  -31.0671   23.5003 C   0  0  0  0  0  0  0  0  0  0  0  0
  -25.9089  -31.7169   22.4157 C   0  0  0  0  0  0  0  0  0  0  0  0
  -25.8912  -16.0530   20.6457 C   0  0  0  0  0  0  0  0  0  0  0  0
  -28.4593  -14.2406   19.8444 C   0  0  0  0  0  0  0  0  0  0  0  0
  -31.8408  -14.0274   19.4356 C   0  0  0  0  0  0  0  0  0  0  0  0
  -21.0065  -26.2926   22.8509 C   0  0  0  0  0  0  0  0  0  0  0  0
  -22.5503  -12.2578   21.3474 C   0  0  0  0  0  0  0  0  0  0  0  0
  -27.0304  -17.5201   18.9411 C   0  0  0  0  0  0  0  0  0  0  0  0
  -28.9431  -16.4642   20.9339 C   0  0  0  0  0  0  0  0  0  0  0  0
  -23.9970  -12.5277   21.7529 C   0  0  0  0  0  0  0  0  0  0  0  0
  -21.0451  -28.1592   26.2122 C   0  0  0  0  0  0  0  0  0  0  0  0
  -24.1303  -13.9210   22.3593 C   0  0  0  0  0  0  0  0  0  0  0  0
  -21.9224  -29.3240   25.7731 C   0  0  0  0  0  0  0  0  0  0  0  0
  -22.7482  -23.1969   22.0000 C   0  0  0  0  0  0  0  0  0  0  0  0
  -21.2739  -26.9514   25.3080 C   0  0  0  0  0  0  0  0  0  0  0  0
  -21.5236  -24.0879   21.8768 C   0  0  0  0  0  0  0  0  0  0  0  0
  -22.5924  -24.5649   23.9657 C   0  0  0  0  0  0  0  0  0  0  0  0
  -20.8421  -28.6462   23.5381 C   0  0  0  0  0  0  0  0  0  0  0  0
  -23.7458  -15.0037   21.3437 C   0  0  1  0  0  0  0  0  0  0  0  0
  -22.9744  -23.1492   23.5111 C   0  0  2  0  0  0  0  0  0  0  0  0
  -26.8896  -16.1177   19.5248 C   0  0  1  0  0  0  0  0  0  0  0  0
  -21.7272  -29.6642   24.2836 C   0  0  2  0  0  0  0  0  0  0  0  0
  -26.2631  -19.5864   24.7961 C   0  0  0  0  0  0  0  0  0  0  0  0
  -23.5617  -20.3306   23.9883 C   0  0  0  0  0  0  0  0  0  0  0  0
  -33.6510  -12.4061   18.8096 C   0  0  0  0  0  0  0  0  0  0  0  0
  -28.2430  -12.9404   22.5963 C   0  0  0  0  0  0  0  0  0  0  0  0
  -30.5675  -12.0631   22.2876 C   0  0  0  0  0  0  0  0  0  0  0  0
  -28.7519  -11.3548   20.7304 C   0  0  0  0  0  0  0  0  0  0  0  0
  -32.6510  -15.6547   17.1001 C   0  0  0  0  0  0  0  0  0  0  0  0
  -30.4910  -21.7849   24.4613 C   0  0  0  0  0  0  0  0  0  0  0  0
  -30.3722  -20.6089   23.5046 C   0  0  0  0  0  0  0  0  0  1  0  0
  -29.1893  -22.5632   24.5706 C   0  0  0  0  0  0  0  0  0  0  0  0
  -29.6640  -13.7081   20.5820 C   0  0  1  0  0  0  0  0  0  0  0  0
  -32.6854  -13.4673   18.3054 C   0  0  2  0  0  0  0  0  0  0  0  0
  -29.3013  -12.5445   21.5474 C   0  0  0  0  0  0  0  0  0  0  0  0
  -25.2697  -23.6941   24.0580 N   0  0  0  0  0  0  0  0  0  0  0  0
  -23.6302  -28.8768   22.9212 N   0  0  0  0  0  0  0  0  0  0  0  0
  -23.0495  -29.9004   23.5701 N   0  0  0  0  0  0  0  0  0  0  0  0
  -28.1531  -15.5936   20.0476 N   0  0  0  0  0  0  0  0  0  0  0  0
  -21.1239  -27.2439   23.8777 N   0  0  0  0  0  0  0  0  0  0  0  0
  -21.6367  -25.0548   22.9688 N   0  0  0  0  0  0  0  0  0  0  0  0
  -23.3115  -32.1948   24.0970 N   0  0  0  0  0  0  0  0  0  0  0  0
  -26.9861  -31.2633   21.6423 N   0  0  0  0  0  0  0  0  0  0  0  0
  -24.8210  -15.2146   20.3983 N   0  0  0  0  0  0  0  0  0  0  0  0
  -30.6441  -13.3539   19.5610 N   0  0  0  0  0  0  0  0  0  0  0  0
  -33.4760  -14.5543   17.6618 N   0  3  0  0  0  0  0  0  0  0  0  0
  -25.8898  -32.9102   22.8020 O   0  0  0  0  0  0  0  0  0  0  0  0
  -26.0786  -16.7136   21.6607 O   0  0  0  0  0  0  0  0  0  0  0  0
  -27.8179  -13.4857   19.1093 O   0  0  0  0  0  0  0  0  0  0  0  0
  -32.2076  -14.9659   20.1393 O   0  0  0  0  0  0  0  0  0  0  0  0
  -20.3600  -26.5570   21.8246 O   0  0  0  0  0  0  0  0  0  0  0  0
  -28.2865  -26.3316   19.4012 O   0  0  0  0  0  0  0  0  0  0  0  0
  -30.0105  -21.0739   22.2112 O   0  0  0  0  0  0  0  0  0  1  0  0
  -28.1523  -21.7082   25.0544 O   0  0  0  0  0  0  0  0  0  0  0  0
  -33.6722  -26.8074   20.4839 F   0  0  0  0  0  0  0  0  0  0  0  0
  -29.7689  -24.1436   20.2123 F   0  0  0  0  0  0  0  0  0  0  0  0
  1  2  1  0  0  0  0
  1  5  2  0  0  0  0
  2  6  2  0  0  0  0
  3  8  2  0  0  0  0
  3 16  1  0  0  0  0
  4  9  1  0  0  0  0
  4 16  2  0  0  0  0
  5 18  1  0  0  0  0
  6 20  1  0  0  0  0
  7 10  2  0  0  0  0
  7 19  1  0  0  0  0
  8 24  1  0  0  0  0
  9 24  2  0  0  0  0
 10 25  1  0  0  0  0
 11 12  2  0  0  0  0
 11 26  1  0  0  0  0
 12 28  1  0  0  0  0
 13 21  1  0  0  0  0
 13 25  2  0  0  0  0
 14 28  2  0  0  0  0
 14 29  1  0  0  0  0
 15 27  1  0  0  0  0
 15 67  2  0  0  0  0
 16 30  1  0  0  0  0
 17 30  1  0  0  0  0
 17 32  2  0  0  0  0
 17 33  1  0  0  0  0
 18 20  2  0  0  0  0
 18 38  1  0  0  0  0
 19 21  2  0  0  0  0
 19 39  1  0  0  0  0
 20 50  1  0  0  0  0
 21 40  1  0  0  0  0
 22 23  1  0  0  0  0
 22 27  2  0  0  0  0
 22 54  1  0  0  0  0
 23 31  2  0  0  0  0
 23 55  1  0  0  0  0
 24 83  1  0  0  0  0
 25 84  1  0  0  0  0
 26 29  2  0  0  0  0
 26 83  1  0  0  0  0
 27 85  1  0  0  0  0
 28 86  1  0  0  0  0
 29 87  1  0  0  0  0
 30 68  2  0  0  0  0
 31 51  1  0  0  0  0
 31 67  1  0  0  0  0
 32 69  1  0  0  0  0
 32 73  1  0  0  0  0
 33 74  1  0  0  0  0
 33 78  2  0  0  0  0
 34 52  1  0  0  0  0
 34 75  1  0  0  0  0
 34 79  2  0  0  0  0
 35 64  1  0  0  0  0
 35 70  1  0  0  0  0
 35 80  2  0  0  0  0
 36 65  1  0  0  0  0
 36 76  1  0  0  0  0
 36 81  2  0  0  0  0
 37 71  1  0  0  0  0
 37 72  1  0  0  0  0
 37 82  2  0  0  0  0
 38 41  1  0  0  0  0
 39 52  1  0  0  0  0
 40 70  1  0  0  0  0
 41 43  1  0  0  0  0
 42 44  1  0  0  0  0
 42 46  1  0  0  0  0
 43 50  1  0  0  0  0
 44 53  1  0  0  0  0
 45 47  1  0  0  0  0
 45 51  1  0  0  0  0
 46 71  1  0  0  0  0
 47 72  1  0  0  0  0
 48 51  1  0  0  0  0
 48 72  1  0  0  0  0
 49 53  1  0  0  0  0
 49 71  1  0  0  0  0
 50 75  1  0  0  0  0
 52 70  1  0  0  0  0
 53 69  1  0  0  0  0
 56 65  1  0  0  0  0
 57 66  1  0  0  0  0
 58 66  1  0  0  0  0
 59 66  1  0  0  0  0
 60 77  1  0  0  0  0
 61 62  1  0  0  0  0
 61 63  1  0  0  0  0
 62 84  1  0  0  0  0
 63 85  1  0  0  0  0
 64 66  1  0  0  0  0
 64 76  1  0  0  0  0
 65 77  1  0  0  0  0
 68 69  1  0  0  0  0
M  CHG  1  77   1
M  ISO  4  37 100  62 101  72 100  84 101
M  END
> <Batch ID>
0157

> <Smiles>
CNC(C)C(=O)NC(C(=O)N1Cc2cc([101O:1][101CH2:1]CCOc3cnc(C4CC[100N:0]([100C:0](=O)N5CCCC(n6nc(-c7ccc(Oc8ccc(F)cc8F)cc7)c(C(N)=O)c6N)C5)C4)c(C)c3C)ccc2CC1C(=O)NC1CCCc2ccccc21)C(C)(C)C

> <Shape>
0.254

> <Color>
0.080

> <Negative vol penalty>
0.000

$$$$

  -OEChem-04052321593D

 88 97  0     1  0  0  0  0  0999 V2000
  -18.1925  -26.4396   25.9520 C   0  0  0  0  0  0  0  0  0  0  0  0
  -19.5146  -26.5098   25.5247 C   0  0  0  0  0  0  0  0  0  0  0  0
  -24.4056   -9.1781   22.5317 C   0  0  0  0  0  0  0  0  0  0  0  0
  -24.1802   -9.1623   20.1263 C   0  0  0  0  0  0  0  0  0  0  0  0
  -17.2456  -27.3216   25.4330 C   0  0  0  0  0  0  0  0  0  0  0  0
  -19.8903  -27.4614   24.5772 C   0  0  0  0  0  0  0  0  0  0  0  0
  -24.2087  -29.8116   25.7910 C   0  0  0  0  0  0  0  0  0  0  0  0
  -23.2374   -8.4245   22.6461 C   0  0  0  0  0  0  0  0  0  0  0  0
  -23.0121   -8.4087   20.2407 C   0  0  0  0  0  0  0  0  0  0  0  0
  -25.3969  -29.1207   25.5577 C   0  0  0  0  0  0  0  0  0  0  0  0
  -22.3168   -5.1891   22.3036 C   0  0  0  0  0  0  0  0  0  0  0  0
  -22.3263   -4.1084   23.1854 C   0  0  0  0  0  0  0  0  0  0  0  0
  -25.7190  -30.3742   23.5219 C   0  0  0  0  0  0  0  0  0  0  0  0
  -29.4136  -23.1098   24.1075 C   0  0  0  0  0  0  0  0  0  0  0  0
  -20.5213   -5.1142   24.4374 C   0  0  0  0  0  0  0  0  0  0  0  0
  -24.8769   -9.5471   21.2718 C   0  0  0  0  0  0  0  0  0  0  0  0
  -27.3711   -9.9720   21.5980 C   0  0  0  0  0  0  0  0  0  0  0  0
  -17.6118  -28.2908   24.4859 C   0  0  0  0  0  0  0  0  0  0  0  0
  -23.7603  -30.7830   24.8844 C   0  0  0  0  0  0  0  0  0  0  0  0
  -18.9471  -28.3564   24.0441 C   0  0  0  0  0  0  0  0  0  0  0  0
  -24.5260  -31.0779   23.7474 C   0  0  0  0  0  0  0  0  0  0  0  0
  -28.8643  -24.3853   24.1766 C   0  0  0  0  0  0  0  0  0  0  0  0
  -22.5407   -8.0397   21.5006 C   0  0  0  0  0  0  0  0  0  0  0  0
  -26.1508  -29.3999   24.4215 C   0  0  0  0  0  0  0  0  0  0  0  0
  -21.4096   -6.2323   22.4886 C   0  0  0  0  0  0  0  0  0  0  0  0
  -28.1924  -24.9073   23.0769 C   0  0  0  0  0  0  0  0  0  0  0  0
  -21.4285   -4.0709   24.2523 C   0  0  0  0  0  0  0  0  0  0  0  0
  -20.5118   -6.1949   23.5555 C   0  0  0  0  0  0  0  0  0  0  0  0
  -26.0833  -10.3260   21.1530 C   0  0  0  0  0  0  0  0  0  0  0  0
  -28.0981  -24.1199   21.9407 C   0  0  0  0  0  0  0  0  0  0  0  0
  -29.2645  -22.4028   22.9252 C   0  0  0  0  0  0  0  0  0  0  0  0
  -28.1604  -11.0409   21.2503 C   0  0  0  0  0  0  0  0  0  0  0  0
  -27.8142   -8.7831   22.2658 C   0  0  0  0  0  0  0  0  0  0  0  0
  -21.1891  -31.1186   23.0459 C   0  0  0  0  0  0  0  0  0  0  0  0
  -22.4776  -34.0347   22.4475 C   0  0  0  0  0  0  0  0  0  0  0  0
  -25.2609  -36.0071   22.3473 C   0  0  0  0  0  0  0  0  0  0  0  0
  -29.2088  -16.2928   20.8976 C   0  0  0  0  0  0  0  0  0  0  0  0
  -16.5434  -29.1915   23.9185 C   0  0  0  0  0  0  0  0  0  0  0  0
  -22.4900  -31.5383   25.1643 C   0  0  0  0  0  0  0  0  0  0  0  0
  -24.0988  -32.1259   22.7536 C   0  0  0  0  0  0  0  0  0  0  0  0
  -17.0995  -30.4159   23.1961 C   0  0  0  0  0  0  0  0  0  0  0  0
  -27.2080  -15.0312   18.3025 C   0  0  0  0  0  0  0  0  0  0  0  0
  -18.2329  -30.0133   22.2579 C   0  0  0  0  0  0  0  0  0  0  0  0
  -26.8346  -13.6538   18.8496 C   0  0  0  0  0  0  0  0  0  0  0  0
  -28.3574  -19.6261   21.6408 C   0  0  0  0  0  0  0  0  0  0  0  0
  -30.8446  -19.2201   21.7695 C   0  0  0  0  0  0  0  0  0  0  0  0
  -27.1800  -16.1067   19.3901 C   0  0  0  0  0  0  0  0  0  0  0  0
  -28.2685  -18.6126   20.4961 C   0  0  0  0  0  0  0  0  0  0  0  0
  -30.7114  -18.2394   20.6077 C   0  0  0  0  0  0  0  0  0  0  0  0
  -27.6254  -14.4018   21.1260 C   0  0  0  0  0  0  0  0  0  0  0  0
  -19.3985  -29.3911   23.0362 C   0  0  1  0  0  0  0  0  0  0  0  0
  -21.8664  -32.1439   23.9106 C   0  0  1  0  0  0  0  0  0  0  0  0
  -27.7014  -13.2899   20.0682 C   0  0  1  0  0  0  0  0  0  0  0  0
  -29.7402  -20.2785   21.7083 C   0  0  0  0  0  0  0  0  0  0  0  0
  -29.0051  -25.1765   25.4344 C   0  0  0  0  0  0  0  0  0  0  0  0
  -27.3871  -24.6325   20.7312 C   0  0  0  0  0  0  0  0  0  0  0  0
  -26.0055  -38.3362   21.7828 C   0  0  0  0  0  0  0  0  0  0  0  0
  -22.2681  -33.3787   19.4750 C   0  0  0  0  0  0  0  0  0  0  0  0
  -23.8540  -35.2615   19.0189 C   0  0  0  0  0  0  0  0  0  0  0  0
  -21.6408  -35.7248   20.0723 C   0  0  0  0  0  0  0  0  0  0  0  0
  -26.2178  -36.4942   25.1052 C   0  0  0  0  0  0  0  0  0  0  0  0
  -27.6893  -28.5317   22.8293 C   0  0  0  0  0  0  0  0  0  1  0  0
  -28.4733  -27.2395   22.7059 C   0  0  0  0  0  0  0  0  0  0  0  0
  -23.4455  -34.5873   21.4292 C   0  0  1  0  0  0  0  0  0  0  0  0
  -25.5266  -37.4023   22.8834 C   0  0  2  0  0  0  0  0  0  0  0  0
  -22.8094  -34.7169   20.0164 C   0  0  0  0  0  0  0  0  0  0  0  0
  -26.0518  -11.5261   20.5675 N   0  0  0  0  0  0  0  0  0  0  0  0
  -28.6187  -22.8767   21.8361 N   0  0  0  0  0  0  0  0  0  0  0  0
  -27.3297  -11.9355   20.6423 N   0  0  0  0  0  0  0  0  0  0  0  0
  -22.8462  -32.8328   23.0682 N   0  0  0  0  0  0  0  0  0  0  0  0
  -27.9877  -15.6974   20.5475 N   0  0  0  0  0  0  0  0  0  0  0  0
  -29.3741  -17.6466   20.5691 N   0  0  0  0  0  0  0  0  0  0  0  0
  -29.4770  -11.2935   21.4086 N   0  0  0  0  0  0  0  0  0  0  0  0
  -28.2528   -7.7035   21.4871 N   0  0  0  0  0  0  0  0  0  0  0  0
  -29.8161  -21.1351   22.8712 N   0  0  0  0  0  0  0  0  0  0  0  0
  -20.1809  -30.4218   23.6842 N   0  0  0  0  0  0  0  0  0  0  0  0
  -23.9423  -35.8443   21.9784 N   0  0  0  0  0  0  0  0  0  0  0  0
  -26.5679  -37.3583   23.9486 N   0  3  0  0  0  0  0  0  0  0  0  0
  -27.8056   -8.6753   23.5155 O   0  0  0  0  0  0  0  0  0  0  0  0
  -21.5533  -30.9716   21.8851 O   0  0  0  0  0  0  0  0  0  0  0  0
  -21.4364  -34.6506   22.6886 O   0  0  0  0  0  0  0  0  0  0  0  0
  -26.1363  -35.1489   22.2607 O   0  0  0  0  0  0  0  0  0  0  0  0
  -30.0993  -15.6525   21.4704 O   0  0  0  0  0  0  0  0  0  0  0  0
  -21.4009   -7.3042   21.6118 O   0  0  0  0  0  0  0  0  0  0  0  0
  -27.3186  -28.7220   24.1895 O   0  0  0  0  0  0  0  0  0  1  0  0
  -27.6463  -26.1510   23.1178 O   0  0  0  0  0  0  0  0  0  0  0  0
  -21.4367   -3.0323   25.0981 F   0  0  0  0  0  0  0  0  0  0  0  0
  -19.6371   -7.1936   23.7378 F   0  0  0  0  0  0  0  0  0  0  0  0
  1  2  1  0  0  0  0
  1  5  2  0  0  0  0
  2  6  2  0  0  0  0
  3  8  2  0  0  0  0
  3 16  1  0  0  0  0
  4  9  1  0  0  0  0
  4 16  2  0  0  0  0
  5 18  1  0  0  0  0
  6 20  1  0  0  0  0
  7 10  2  0  0  0  0
  7 19  1  0  0  0  0
  8 23  1  0  0  0  0
  9 23  2  0  0  0  0
 10 24  1  0  0  0  0
 11 12  2  0  0  0  0
 11 25  1  0  0  0  0
 12 27  1  0  0  0  0
 13 21  1  0  0  0  0
 13 24  2  0  0  0  0
 14 22  2  0  0  0  0
 14 31  1  0  0  0  0
 15 27  2  0  0  0  0
 15 28  1  0  0  0  0
 16 29  1  0  0  0  0
 17 29  1  0  0  0  0
 17 32  2  0  0  0  0
 17 33  1  0  0  0  0
 18 20  2  0  0  0  0
 18 38  1  0  0  0  0
 19 21  2  0  0  0  0
 19 39  1  0  0  0  0
 20 51  1  0  0  0  0
 21 40  1  0  0  0  0
 22 26  1  0  0  0  0
 22 55  1  0  0  0  0
 23 84  1  0  0  0  0
 24 85  1  0  0  0  0
 25 28  2  0  0  0  0
 25 84  1  0  0  0  0
 26 30  2  0  0  0  0
 26 86  1  0  0  0  0
 27 87  1  0  0  0  0
 28 88  1  0  0  0  0
 29 67  2  0  0  0  0
 30 56  1  0  0  0  0
 30 68  1  0  0  0  0
 31 68  2  0  0  0  0
 31 75  1  0  0  0  0
 32 69  1  0  0  0  0
 32 73  1  0  0  0  0
 33 74  1  0  0  0  0
 33 79  2  0  0  0  0
 34 52  1  0  0  0  0
 34 76  1  0  0  0  0
 34 80  2  0  0  0  0
 35 64  1  0  0  0  0
 35 70  1  0  0  0  0
 35 81  2  0  0  0  0
 36 65  1  0  0  0  0
 36 77  1  0  0  0  0
 36 82  2  0  0  0  0
 37 71  1  0  0  0  0
 37 72  1  0  0  0  0
 37 83  2  0  0  0  0
 38 41  1  0  0  0  0
 39 52  1  0  0  0  0
 40 70  1  0  0  0  0
 41 43  1  0  0  0  0
 42 44  1  0  0  0  0
 42 47  1  0  0  0  0
 43 51  1  0  0  0  0
 44 53  1  0  0  0  0
 45 48  1  0  0  0  0
 45 54  1  0  0  0  0
 46 49  1  0  0  0  0
 46 54  1  0  0  0  0
 47 71  1  0  0  0  0
 48 72  1  0  0  0  0
 49 72  1  0  0  0  0
 50 53  1  0  0  0  0
 50 71  1  0  0  0  0
 51 76  1  0  0  0  0
 52 70  1  0  0  0  0
 53 69  1  0  0  0  0
 54 75  1  0  0  0  0
 57 65  1  0  0  0  0
 58 66  1  0  0  0  0
 59 66  1  0  0  0  0
 60 66  1  0  0  0  0
 61 78  1  0  0  0  0
 62 63  1  0  0  0  0
 62 85  1  0  0  0  0
 63 86  1  0  0  0  0
 64 66  1  0  0  0  0
 64 77  1  0  0  0  0
 65 78  1  0  0  0  0
 67 69  1  0  0  0  0
M  CHG  1  78   1
M  ISO  4  37 100  62 101  72 100  85 101
M  END
> <Batch ID>
0157

> <Smiles>
CNC(C)C(=O)NC(C(=O)N1Cc2cc([101O:1][101CH2:1]COc3c(C)cc(NC4CC[100N:0]([100C:0](=O)N5CCCC(n6nc(-c7ccc(Oc8ccc(F)cc8F)cc7)c(C(N)=O)c6N)C5)CC4)nc3C)ccc2CC1C(=O)NC1CCCc2ccccc21)C(C)(C)C

> <Shape>
0.253

> <Color>
0.139

> <Negative vol penalty>
0.000

$$$$

  -OEChem-04052321593D

 82 91  0     1  0  0  0  0  0999 V2000
  -18.0904  -32.2328   24.9783 C   0  0  0  0  0  0  0  0  0  0  0  0
  -19.4367  -32.4426   24.6975 C   0  0  0  0  0  0  0  0  0  0  0  0
  -24.2562  -13.8870   19.6982 C   0  0  0  0  0  0  0  0  0  0  0  0
  -26.4818  -13.9965   20.6320 C   0  0  0  0  0  0  0  0  0  0  0  0
  -17.5560  -30.9473   24.9033 C   0  0  0  0  0  0  0  0  0  0  0  0
  -20.2496  -31.3668   24.3425 C   0  0  0  0  0  0  0  0  0  0  0  0
  -25.8979  -29.7514   20.2432 C   0  0  0  0  0  0  0  0  0  0  0  0
  -24.2879  -12.4953   19.7858 C   0  0  0  0  0  0  0  0  0  0  0  0
  -26.5135  -12.6047   20.7197 C   0  0  0  0  0  0  0  0  0  0  0  0
  -27.1489  -29.1416   20.3251 C   0  0  0  0  0  0  0  0  0  0  0  0
  -23.8861  -10.1403   22.1787 C   0  0  0  0  0  0  0  0  0  0  0  0
  -22.7579   -9.4970   22.6874 C   0  0  0  0  0  0  0  0  0  0  0  0
  -26.0985  -26.9770   20.1506 C   0  0  0  0  0  0  0  0  0  0  0  0
  -22.5112   -8.2873   20.6107 C   0  0  0  0  0  0  0  0  0  0  0  0
  -25.3532  -14.6376   20.1212 C   0  0  0  0  0  0  0  0  0  0  0  0
  -24.4080  -16.9464   20.6539 C   0  0  0  0  0  0  0  0  0  0  0  0
  -18.3606  -29.8565   24.5378 C   0  0  0  0  0  0  0  0  0  0  0  0
  -24.7349  -28.9769   20.1252 C   0  0  0  0  0  0  0  0  0  0  0  0
  -19.7258  -30.0652   24.2639 C   0  0  0  0  0  0  0  0  0  0  0  0
  -24.8341  -27.5795   20.0648 C   0  0  0  0  0  0  0  0  0  0  0  0
  -25.4165  -11.8541   20.2966 C   0  0  0  0  0  0  0  0  0  0  0  0
  -27.2492  -27.7541   20.2818 C   0  0  0  0  0  0  0  0  0  0  0  0
  -24.3269   -9.8572   20.8859 C   0  0  0  0  0  0  0  0  0  0  0  0
  -22.0705   -8.5705   21.9035 C   0  0  0  0  0  0  0  0  0  0  0  0
  -23.6395   -8.9306   20.1019 C   0  0  0  0  0  0  0  0  0  0  0  0
  -25.3213  -16.0753   20.0304 C   0  0  0  0  0  0  0  0  0  0  0  0
  -24.8021  -18.2001   20.2547 C   0  0  0  0  0  0  0  0  0  0  0  0
  -30.8177  -24.9319   23.5487 C   0  0  0  0  0  0  0  0  0  0  0  0
  -23.3024  -16.6489   21.5169 C   0  0  0  0  0  0  0  0  0  0  0  0
  -22.1298  -28.5573   21.8975 C   0  0  0  0  0  0  0  0  0  0  0  0
  -21.1595  -26.7897   19.3565 C   0  0  0  0  0  0  0  0  0  0  0  0
  -22.0133  -24.9459   16.6145 C   0  0  0  0  0  0  0  0  0  0  0  0
  -28.8043  -21.9731   19.3102 C   0  0  0  0  0  0  0  0  0  0  0  0
  -17.7487  -28.4782   24.5162 C   0  0  0  0  0  0  0  0  0  0  0  0
  -23.3951  -29.6510   20.0110 C   0  0  0  0  0  0  0  0  0  0  0  0
  -23.6176  -26.7037   19.9184 C   0  0  0  0  0  0  0  0  0  0  0  0
  -18.5923  -27.4490   23.7683 C   0  0  0  0  0  0  0  0  0  0  0  0
  -28.1147  -19.6378   16.7126 C   0  0  0  0  0  0  0  0  0  0  0  0
  -20.0547  -27.5488   24.1907 C   0  0  0  0  0  0  0  0  0  0  0  0
  -27.2569  -18.5722   17.3971 C   0  0  0  0  0  0  0  0  0  0  0  0
  -30.7118  -27.2738   21.2079 C   0  0  0  0  0  0  0  0  0  0  0  0
  -30.9329  -25.7652   21.1594 C   0  0  0  0  0  0  0  0  0  0  0  0
  -28.9801  -26.2975   22.5662 C   0  0  0  0  0  0  0  0  0  0  0  0
  -29.1944  -20.1791   17.6472 C   0  0  0  0  0  0  0  0  0  0  0  0
  -27.8402  -19.6138   19.6272 C   0  0  0  0  0  0  0  0  0  0  0  0
  -29.2883  -23.2373   23.3534 C   0  0  0  0  0  0  0  0  0  0  0  0
  -20.6341  -28.9273   23.8512 C   0  0  1  0  0  0  0  0  0  0  0  0
  -22.2344  -28.7450   20.4104 C   0  0  1  0  0  0  0  0  0  0  0  0
  -29.5248  -23.7969   21.9676 C   0  0  2  0  0  0  0  0  0  0  0  0
  -26.7018  -19.0780   18.7422 C   0  0  2  0  0  0  0  0  0  0  0  0
  -29.2335  -27.3996   21.5379 C   0  0  2  0  0  0  0  0  0  1  0  0
  -30.0357  -25.2065   22.2731 C   0  0  2  0  0  0  0  0  0  0  0  0
  -21.0030  -23.5955   14.7562 C   0  0  0  0  0  0  0  0  0  0  0  0
  -20.6347  -24.5027   21.3069 C   0  0  0  0  0  0  0  0  0  0  0  0
  -20.5547  -22.9440   19.3493 C   0  0  0  0  0  0  0  0  0  0  0  0
  -18.8872  -24.7894   19.5410 C   0  0  0  0  0  0  0  0  0  0  0  0
  -23.1453  -26.7327   14.5446 C   0  0  0  0  0  0  0  0  0  0  0  0
  -28.3150  -23.6675   21.0563 C   0  0  0  0  0  0  0  0  0  0  0  0
  -21.2835  -25.3404   18.9525 C   0  0  1  0  0  0  0  0  0  0  0  0
  -21.4991  -24.9673   15.1864 C   0  0  2  0  0  0  0  0  0  0  0  0
  -20.3630  -24.4103   19.7921 C   0  0  0  0  0  0  0  0  0  0  0  0
  -26.2272  -16.7209   19.2911 N   0  0  0  0  0  0  0  0  0  0  0  0
  -25.8850  -18.0111   19.4474 N   0  0  0  0  0  0  0  0  0  0  0  0
  -22.3297  -27.4097   19.8171 N   0  0  0  0  0  0  0  0  0  0  0  0
  -28.6018  -20.6439   18.9037 N   0  0  0  0  0  0  0  0  0  0  0  0
  -24.3243  -19.4348   20.5188 N   0  0  0  0  0  0  0  0  0  0  0  0
  -23.5305  -16.5886   22.8984 N   0  0  0  0  0  0  0  0  0  0  0  0
  -20.9430  -29.0121   22.4398 N   0  0  0  0  0  0  0  0  0  0  0  0
  -21.0301  -25.2938   17.5165 N   0  0  0  0  0  0  0  0  0  0  0  0
  -28.2028  -22.3335   20.5099 N   0  0  0  0  0  0  0  0  0  0  0  0
  -22.5810  -25.3899   14.2526 N   0  3  0  0  0  0  0  0  0  0  0  0
  -31.7096  -25.6264   24.0124 O   0  0  0  0  0  0  0  0  0  0  0  0
  -22.1498  -16.4265   21.0747 O   0  0  0  0  0  0  0  0  0  0  0  0
  -23.0565  -28.0368   22.5075 O   0  0  0  0  0  0  0  0  0  0  0  0
  -20.0663  -27.3530   19.2600 O   0  0  0  0  0  0  0  0  0  0  0  0
  -23.1702  -24.6466   16.9015 O   0  0  0  0  0  0  0  0  0  0  0  0
  -29.4672  -22.7805   18.6502 O   0  0  0  0  0  0  0  0  0  0  0  0
  -30.3460  -23.7910   24.1437 O   0  0  0  0  0  0  0  0  0  0  0  0
  -25.4476  -10.4961   20.3825 O   0  0  0  0  0  0  0  0  0  0  0  0
  -28.4690  -27.1562   20.3622 O   0  0  0  0  0  0  0  0  0  1  0  0
  -20.9880   -7.9516   22.3928 F   0  0  0  0  0  0  0  0  0  0  0  0
  -24.0588   -8.6536   18.8597 F   0  0  0  0  0  0  0  0  0  0  0  0
  1  2  1  0  0  0  0
  1  5  2  0  0  0  0
  2  6  2  0  0  0  0
  3  8  2  0  0  0  0
  3 15  1  0  0  0  0
  4  9  1  0  0  0  0
  4 15  2  0  0  0  0
  5 17  1  0  0  0  0
  6 19  1  0  0  0  0
  7 10  2  0  0  0  0
  7 18  1  0  0  0  0
  8 21  1  0  0  0  0
  9 21  2  0  0  0  0
 10 22  1  0  0  0  0
 11 12  2  0  0  0  0
 11 23  1  0  0  0  0
 12 24  1  0  0  0  0
 13 20  1  0  0  0  0
 13 22  2  0  0  0  0
 14 24  2  0  0  0  0
 14 25  1  0  0  0  0
 15 26  1  0  0  0  0
 16 26  1  0  0  0  0
 16 27  2  0  0  0  0
 16 29  1  0  0  0  0
 17 19  2  0  0  0  0
 17 34  1  0  0  0  0
 18 20  2  0  0  0  0
 18 35  1  0  0  0  0
 19 47  1  0  0  0  0
 20 36  1  0  0  0  0
 21 79  1  0  0  0  0
 22 80  1  0  0  0  0
 23 25  2  0  0  0  0
 23 79  1  0  0  0  0
 24 81  1  0  0  0  0
 25 82  1  0  0  0  0
 26 62  2  0  0  0  0
 27 63  1  0  0  0  0
 27 66  1  0  0  0  0
 28 52  1  0  0  0  0
 28 72  2  0  0  0  0
 28 78  1  0  0  0  0
 29 67  1  0  0  0  0
 29 73  2  0  0  0  0
 30 48  1  0  0  0  0
 30 68  1  0  0  0  0
 30 74  2  0  0  0  0
 31 59  1  0  0  0  0
 31 64  1  0  0  0  0
 31 75  2  0  0  0  0
 32 60  1  0  0  0  0
 32 69  1  0  0  0  0
 32 76  2  0  0  0  0
 33 65  1  0  0  0  0
 33 70  1  0  0  0  0
 33 77  2  0  0  0  0
 34 37  1  0  0  0  0
 35 48  1  0  0  0  0
 36 64  1  0  0  0  0
 37 39  1  0  0  0  0
 38 40  1  0  0  0  0
 38 44  1  0  0  0  0
 39 47  1  0  0  0  0
 40 50  1  0  0  0  0
 41 42  1  0  0  0  0
 41 51  1  0  0  0  0
 42 52  1  0  0  0  0
 43 51  1  0  0  0  0
 43 52  1  0  0  0  0
 44 65  1  0  0  0  0
 45 50  1  0  0  0  0
 45 65  1  0  0  0  0
 46 49  1  0  0  0  0
 46 78  1  0  0  0  0
 47 68  1  0  0  0  0
 48 64  1  0  0  0  0
 49 52  1  0  0  0  0
 49 58  1  0  0  0  0
 50 63  1  0  0  0  0
 51 80  1  0  0  0  0
 53 60  1  0  0  0  0
 54 61  1  0  0  0  0
 55 61  1  0  0  0  0
 56 61  1  0  0  0  0
 57 71  1  0  0  0  0
 58 70  1  0  0  0  0
 59 61  1  0  0  0  0
 59 69  1  0  0  0  0
 60 71  1  0  0  0  0
 62 63  1  0  0  0  0
M  CHG  1  71   1
M  ISO  4  33 100  51 101  70 100  80 101
M  END
> <Batch ID>
0157

> <Smiles>
CNC(C)C(=O)NC(C(=O)N1Cc2cc([101O:1][101CH:1]3CCC4(C3)C(=O)OCC4C[100NH:0][100C:0](=O)N3CCCC(n4nc(-c5ccc(Oc6ccc(F)cc6F)cc5)c(C(N)=O)c4N)C3)ccc2CC1C(=O)NC1CCCc2ccccc21)C(C)(C)C

> <Shape>
0.232

> <Color>
0.103

> <Negative vol penalty>
0.000

$$$$

  -OEChem-04052321593D

 88 98  0     1  0  0  0  0  0999 V2000
  -21.7355  -31.5815   15.1776 C   0  0  0  0  0  0  0  0  0  0  0  0
  -22.8379  -30.7330   15.1909 C   0  0  0  0  0  0  0  0  0  0  0  0
  -24.5082   -9.0468   22.4217 C   0  0  0  0  0  0  0  0  0  0  0  0
  -24.0116   -9.5730   20.1166 C   0  0  0  0  0  0  0  0  0  0  0  0
  -21.5172  -32.4556   16.2417 C   0  0  0  0  0  0  0  0  0  0  0  0
  -23.7232  -30.7587   16.2679 C   0  0  0  0  0  0  0  0  0  0  0  0
  -26.7656  -26.0059   18.6471 C   0  0  0  0  0  0  0  0  0  0  0  0
  -23.3276   -8.3091   22.5077 C   0  0  0  0  0  0  0  0  0  0  0  0
  -22.8310   -8.8352   20.2025 C   0  0  0  0  0  0  0  0  0  0  0  0
  -28.0706  -25.5464   18.4749 C   0  0  0  0  0  0  0  0  0  0  0  0
  -22.2284   -5.2501   21.5767 C   0  0  0  0  0  0  0  0  0  0  0  0
  -22.2886   -3.9998   22.1921 C   0  0  0  0  0  0  0  0  0  0  0  0
  -30.5951  -20.5516   19.0308 C   0  0  0  0  0  0  0  0  0  0  0  0
  -28.5441  -21.7286   18.5363 C   0  0  0  0  0  0  0  0  0  0  0  0
  -28.7461  -26.7391   20.4599 C   0  0  0  0  0  0  0  0  0  0  0  0
  -20.6844   -4.7347   23.8424 C   0  0  0  0  0  0  0  0  0  0  0  0
  -24.8503   -9.6788   21.2261 C   0  0  0  0  0  0  0  0  0  0  0  0
  -27.3404   -9.9712   20.7555 C   0  0  0  0  0  0  0  0  0  0  0  0
  -22.3950  -32.4852   17.3368 C   0  0  0  0  0  0  0  0  0  0  0  0
  -26.4429  -26.8458   19.7227 C   0  0  0  0  0  0  0  0  0  0  0  0
  -23.5171  -31.6349   17.3471 C   0  0  0  0  0  0  0  0  0  0  0  0
  -29.8553  -21.7339   19.0120 C   0  0  0  0  0  0  0  0  0  0  0  0
  -27.4358  -27.2058   20.6450 C   0  0  0  0  0  0  0  0  0  0  0  0
  -28.7126  -19.3586   18.0981 C   0  0  0  0  0  0  0  0  0  0  0  0
  -30.0238  -19.3639   18.5738 C   0  0  0  0  0  0  0  0  0  0  0  0
  -22.4890   -8.2033   21.3981 C   0  0  0  0  0  0  0  0  0  0  0  0
  -29.0617  -25.9153   19.3797 C   0  0  0  0  0  0  0  0  0  0  0  0
  -21.3962   -6.2428   22.0942 C   0  0  0  0  0  0  0  0  0  0  0  0
  -27.9727  -20.5409   18.0793 C   0  0  0  0  0  0  0  0  0  0  0  0
  -21.5166   -3.7421   23.3249 C   0  0  0  0  0  0  0  0  0  0  0  0
  -20.6242   -5.9851   23.2270 C   0  0  0  0  0  0  0  0  0  0  0  0
  -26.0695  -10.4415   21.1368 C   0  0  0  0  0  0  0  0  0  0  0  0
  -28.1525  -11.0762   20.8318 C   0  0  0  0  0  0  0  0  0  0  0  0
  -27.7501   -8.6534   20.3669 C   0  0  0  0  0  0  0  0  0  0  0  0
  -25.3335  -29.8117   19.9984 C   0  0  0  0  0  0  0  0  0  0  0  0
  -25.2217  -29.0606   23.1521 C   0  0  0  0  0  0  0  0  0  0  0  0
  -26.3885  -27.1314   25.7140 C   0  0  0  0  0  0  0  0  0  0  0  0
  -27.0825  -16.9560   20.4652 C   0  0  0  0  0  0  0  0  0  0  0  0
  -22.1437  -33.4805   18.4418 C   0  0  0  0  0  0  0  0  0  0  0  0
  -25.0248  -27.3112   19.9096 C   0  0  0  0  0  0  0  0  0  0  0  0
  -27.1367  -28.0889   21.8279 C   0  0  0  0  0  0  0  0  0  0  0  0
  -22.9227  -33.1810   19.7200 C   0  0  0  0  0  0  0  0  0  0  0  0
  -28.6210  -15.2245   23.1692 C   0  0  0  0  0  0  0  0  0  0  0  0
  -27.4047  -18.0016   16.1619 C   0  0  0  0  0  0  0  0  0  0  0  0
  -24.3787  -32.8625   19.3956 C   0  0  0  0  0  0  0  0  0  0  0  0
  -28.2562  -13.7599   22.9205 C   0  0  0  0  0  0  0  0  0  0  0  0
  -26.3812  -16.9906   16.7111 C   0  0  0  0  0  0  0  0  0  0  0  0
  -31.7692  -23.4665   18.9068 C   0  0  0  0  0  0  0  0  0  0  0  0
  -27.4824  -16.1640   22.7780 C   0  0  0  0  0  0  0  0  0  0  0  0
  -26.6166  -14.5258   21.1531 C   0  0  0  0  0  0  0  0  0  0  0  0
  -30.4618  -22.9955   19.4998 C   0  0  1  0  0  0  0  0  0  0  0  0
  -28.0569  -18.0104   17.5780 C   0  0  2  0  0  0  0  0  0  0  0  0
  -24.4864  -31.6159   18.5091 C   0  0  1  0  0  0  0  0  0  0  0  0
  -24.9181  -28.5793   20.7509 C   0  0  1  0  0  0  0  0  0  0  0  0
  -27.7546  -13.5438   21.4801 C   0  0  2  0  0  0  0  0  0  0  0  0
  -26.6455  -17.5955   18.1074 C   0  0  2  0  0  0  0  0  0  0  0  0
  -30.5029  -24.1990   18.5838 C   0  0  1  0  0  0  0  0  0  1  0  0
  -30.8339  -18.1101   18.6012 C   0  0  0  0  0  0  0  0  0  0  0  0
  -24.3945  -20.9675   18.1513 C   0  0  0  0  0  0  0  0  0  0  0  0
  -26.1349  -26.7748   28.1851 C   0  0  0  0  0  0  0  0  0  0  0  0
  -26.8653  -31.5762   23.6813 C   0  0  0  0  0  0  0  0  0  0  0  0
  -27.3785  -30.6772   25.9609 C   0  0  0  0  0  0  0  0  0  0  0  0
  -25.0193  -31.1725   25.3195 C   0  0  0  0  0  0  0  0  0  0  0  0
  -25.4764  -24.3415   25.3352 C   0  0  0  0  0  0  0  0  0  0  0  0
  -25.8056  -21.5145   18.1874 C   0  0  0  0  0  0  0  0  0  0  0  0
  -26.1829  -29.1672   24.3112 C   0  0  1  0  0  0  0  0  0  0  0  0
  -25.6660  -26.3554   26.8005 C   0  0  2  0  0  0  0  0  0  0  0  0
  -26.3679  -30.6332   24.7950 C   0  0  0  0  0  0  0  0  0  0  0  0
  -26.0692  -11.7438   21.4336 N   0  0  0  0  0  0  0  0  0  0  0  0
  -27.3500  -12.1012   21.2388 N   0  0  0  0  0  0  0  0  0  0  0  0
  -25.7366  -28.5234   21.9638 N   0  0  0  0  0  0  0  0  0  0  0  0
  -27.0544  -15.9085   21.4005 N   0  0  0  0  0  0  0  0  0  0  0  0
  -29.4677  -11.2614   20.5900 N   0  0  0  0  0  0  0  0  0  0  0  0
  -26.7880   -7.6345   20.3424 N   0  0  0  0  0  0  0  0  0  0  0  0
  -24.3067  -30.4168   19.2991 N   0  0  0  0  0  0  0  0  0  0  0  0
  -25.6868  -28.2573   25.3380 N   0  0  0  0  0  0  0  0  0  0  0  0
  -26.6666  -16.6270   19.1808 N   0  0  0  0  0  0  0  0  0  0  0  0
  -25.9118  -24.8939   26.6438 N   0  3  0  0  0  0  0  0  0  0  0  0
  -28.9378   -8.3836   20.0665 O   0  0  0  0  0  0  0  0  0  0  0  0
  -26.4990  -30.1868   20.0497 O   0  0  0  0  0  0  0  0  0  0  0  0
  -24.0549  -29.4335   23.2979 O   0  0  0  0  0  0  0  0  0  0  0  0
  -27.4691  -26.7765   25.2484 O   0  0  0  0  0  0  0  0  0  0  0  0
  -27.4560  -18.0985   20.7520 O   0  0  0  0  0  0  0  0  0  0  0  0
  -21.3369   -7.4833   21.4816 O   0  0  0  0  0  0  0  0  0  0  0  0
  -30.3364  -25.4687   19.2135 O   0  0  0  0  0  0  0  0  0  1  0  0
  -26.6913  -20.5528   17.6173 O   0  0  0  0  0  0  0  0  0  0  0  0
  -21.5734   -2.5409   23.9149 F   0  0  0  0  0  0  0  0  0  0  0  0
  -19.8219   -6.9344   23.7280 F   0  0  0  0  0  0  0  0  0  0  0  0
  1  2  1  0  0  0  0
  1  5  2  0  0  0  0
  2  6  2  0  0  0  0
  3  8  2  0  0  0  0
  3 17  1  0  0  0  0
  4  9  1  0  0  0  0
  4 17  2  0  0  0  0
  5 19  1  0  0  0  0
  6 21  1  0  0  0  0
  7 10  2  0  0  0  0
  7 20  1  0  0  0  0
  8 26  1  0  0  0  0
  9 26  2  0  0  0  0
 10 27  1  0  0  0  0
 11 12  2  0  0  0  0
 11 28  1  0  0  0  0
 12 30  1  0  0  0  0
 13 22  1  0  0  0  0
 13 25  2  0  0  0  0
 14 22  2  0  0  0  0
 14 29  1  0  0  0  0
 15 23  1  0  0  0  0
 15 27  2  0  0  0  0
 16 30  2  0  0  0  0
 16 31  1  0  0  0  0
 17 32  1  0  0  0  0
 18 32  1  0  0  0  0
 18 33  2  0  0  0  0
 18 34  1  0  0  0  0
 19 21  2  0  0  0  0
 19 39  1  0  0  0  0
 20 23  2  0  0  0  0
 20 40  1  0  0  0  0
 21 53  1  0  0  0  0
 22 51  1  0  0  0  0
 23 41  1  0  0  0  0
 24 25  1  0  0  0  0
 24 29  2  0  0  0  0
 24 52  1  0  0  0  0
 25 58  1  0  0  0  0
 26 84  1  0  0  0  0
 27 85  1  0  0  0  0
 28 31  2  0  0  0  0
 28 84  1  0  0  0  0
 29 86  1  0  0  0  0
 30 87  1  0  0  0  0
 31 88  1  0  0  0  0
 32 69  2  0  0  0  0
 33 70  1  0  0  0  0
 33 73  1  0  0  0  0
 34 74  1  0  0  0  0
 34 79  2  0  0  0  0
 35 54  1  0  0  0  0
 35 75  1  0  0  0  0
 35 80  2  0  0  0  0
 36 66  1  0  0  0  0
 36 71  1  0  0  0  0
 36 81  2  0  0  0  0
 37 67  1  0  0  0  0
 37 76  1  0  0  0  0
 37 82  2  0  0  0  0
 38 72  1  0  0  0  0
 38 77  1  0  0  0  0
 38 83  2  0  0  0  0
 39 42  1  0  0  0  0
 40 54  1  0  0  0  0
 41 71  1  0  0  0  0
 42 45  1  0  0  0  0
 43 46  1  0  0  0  0
 43 49  1  0  0  0  0
 44 47  1  0  0  0  0
 44 52  1  0  0  0  0
 45 53  1  0  0  0  0
 46 55  1  0  0  0  0
 47 56  1  0  0  0  0
 48 51  1  0  0  0  0
 48 57  1  0  0  0  0
 49 72  1  0  0  0  0
 50 55  1  0  0  0  0
 50 72  1  0  0  0  0
 51 57  1  0  0  0  0
 52 56  1  0  0  0  0
 53 75  1  0  0  0  0
 54 71  1  0  0  0  0
 55 70  1  0  0  0  0
 56 77  1  0  0  0  0
 57 85  1  0  0  0  0
 59 65  1  0  0  0  0
 60 67  1  0  0  0  0
 61 68  1  0  0  0  0
 62 68  1  0  0  0  0
 63 68  1  0  0  0  0
 64 78  1  0  0  0  0
 65 86  1  0  0  0  0
 66 68  1  0  0  0  0
 66 76  1  0  0  0  0
 67 78  1  0  0  0  0
 69 70  1  0  0  0  0
M  CHG  1  78   1
M  ISO  4  38 100  57 101  77 100  85 101
M  END
> <Batch ID>
0157

> <Smiles>
CCOc1cc(C2C[101CH:1]2[101O:1]c2ccc3c(c2)CN(C(=O)C(NC(=O)C(C)NC)C(C)(C)C)C(C(=O)NC2CCCc4ccccc42)C3)cc(C)c1C1CCC1[100NH:0][100C:0](=O)N1CCCC(n2nc(-c3ccc(Oc4ccc(F)cc4F)cc3)c(C(N)=O)c2N)C1

> <Shape>
0.243

> <Color>
0.090

> <Negative vol penalty>
0.000

$$$$

  -OEChem-04052321593D

 90100  0     1  0  0  0  0  0999 V2000
  -17.2389  -28.3695   24.8695 C   0  0  0  0  0  0  0  0  0  0  0  0
  -18.0722  -27.3988   24.3230 C   0  0  0  0  0  0  0  0  0  0  0  0
  -22.6154  -10.4683   20.1843 C   0  0  0  0  0  0  0  0  0  0  0  0
  -24.1812   -9.5584   21.7835 C   0  0  0  0  0  0  0  0  0  0  0  0
  -17.2438  -29.6635   24.3503 C   0  0  0  0  0  0  0  0  0  0  0  0
  -18.9102  -27.7213   23.2561 C   0  0  0  0  0  0  0  0  0  0  0  0
  -24.5131  -25.4986   22.1731 C   0  0  0  0  0  0  0  0  0  0  0  0
  -21.7976   -9.3504   20.3490 C   0  0  0  0  0  0  0  0  0  0  0  0
  -23.3634   -8.4405   21.9482 C   0  0  0  0  0  0  0  0  0  0  0  0
  -24.9744  -24.4871   21.3318 C   0  0  0  0  0  0  0  0  0  0  0  0
  -20.5256   -7.6549   23.6065 C   0  0  0  0  0  0  0  0  0  0  0  0
  -20.2874   -7.2141   24.9083 C   0  0  0  0  0  0  0  0  0  0  0  0
  -30.8353  -19.3927   20.4707 C   0  0  0  0  0  0  0  0  0  0  0  0
  -28.8379  -18.8035   21.6954 C   0  0  0  0  0  0  0  0  0  0  0  0
  -25.5008  -26.1343   19.6499 C   0  0  0  0  0  0  0  0  0  0  0  0
  -21.2728   -5.0762   24.3647 C   0  0  0  0  0  0  0  0  0  0  0  0
  -23.8072  -10.5723   20.9016 C   0  0  0  0  0  0  0  0  0  0  0  0
  -24.3158  -13.0709   20.9789 C   0  0  0  0  0  0  0  0  0  0  0  0
  -18.0892  -30.0045   23.2828 C   0  0  0  0  0  0  0  0  0  0  0  0
  -24.5320  -26.8367   21.7542 C   0  0  0  0  0  0  0  0  0  0  0  0
  -18.9254  -29.0207   22.7212 C   0  0  0  0  0  0  0  0  0  0  0  0
  -29.5091  -19.6528   20.8158 C   0  0  0  0  0  0  0  0  0  0  0  0
  -25.0415  -27.1611   20.4887 C   0  0  0  0  0  0  0  0  0  0  0  0
  -30.8191  -17.4339   21.8848 C   0  0  0  0  0  0  0  0  0  0  0  0
  -31.4903  -18.2832   21.0052 C   0  0  0  0  0  0  0  0  0  0  0  0
  -22.1716   -8.3365   21.2309 C   0  0  0  0  0  0  0  0  0  0  0  0
  -25.4657  -24.8045   20.0689 C   0  0  0  0  0  0  0  0  0  0  0  0
  -21.1373   -6.8063   22.6838 C   0  0  0  0  0  0  0  0  0  0  0  0
  -29.4929  -17.6940   22.2299 C   0  0  0  0  0  0  0  0  0  0  0  0
  -20.6610   -5.9248   25.2874 C   0  0  0  0  0  0  0  0  0  0  0  0
  -21.5109   -5.5170   23.0629 C   0  0  0  0  0  0  0  0  0  0  0  0
  -24.6527  -11.7266   20.7315 C   0  0  0  0  0  0  0  0  0  0  0  0
  -25.4537  -13.7733   20.6654 C   0  0  0  0  0  0  0  0  0  0  0  0
  -23.0844  -13.6343   21.4500 C   0  0  0  0  0  0  0  0  0  0  0  0
  -22.3187  -29.0639   21.2597 C   0  0  0  0  0  0  0  0  0  0  0  0
  -24.9004  -30.9713   20.7912 C   0  0  0  0  0  0  0  0  0  0  0  0
  -28.1981  -31.2287   19.9511 C   0  0  0  0  0  0  0  0  0  0  0  0
  -30.9324  -14.4484   20.8173 C   0  0  0  0  0  0  0  0  0  0  0  0
  -18.0250  -31.4040   22.7244 C   0  0  0  0  0  0  0  0  0  0  0  0
  -24.0555  -27.9188   22.6838 C   0  0  0  0  0  0  0  0  0  0  0  0
  -25.1023  -28.5843   19.9994 C   0  0  0  0  0  0  0  0  0  0  0  0
  -19.2150  -31.7611   21.8375 C   0  0  0  0  0  0  0  0  0  0  0  0
  -31.5534  -14.7763   24.3749 C   0  0  0  0  0  0  0  0  0  0  0  0
  -29.6851  -12.3454   18.3171 C   0  0  0  0  0  0  0  0  0  0  0  0
  -28.3772  -21.8598   21.3250 C   0  0  0  0  0  0  0  0  0  0  0  0
  -27.5917  -20.4493   19.3672 C   0  0  0  0  0  0  0  0  0  0  0  0
  -31.5530  -16.2534   24.0018 C   0  0  0  0  0  0  0  0  0  0  0  0
  -19.5004  -30.6355   20.8484 C   0  0  0  0  0  0  0  0  0  0  0  0
  -28.2411  -12.0831   18.7401 C   0  0  0  0  0  0  0  0  0  0  0  0
  -27.6686  -23.0726   20.7272 C   0  0  0  0  0  0  0  0  0  0  0  0
  -26.8877  -21.6696   18.7795 C   0  0  0  0  0  0  0  0  0  0  0  0
  -30.6104  -12.3628   19.5274 C   0  0  0  0  0  0  0  0  0  0  0  0
  -30.6331  -14.1642   23.3303 C   0  0  0  0  0  0  0  0  0  0  0  0
  -28.7725  -13.1284   21.0001 C   0  0  0  0  0  0  0  0  0  0  0  0
  -28.7963  -20.8594   20.2329 C   0  0  0  0  0  0  0  0  0  0  0  0
  -31.5245  -16.2304   22.4678 C   0  0  1  0  0  0  0  0  0  0  0  0
  -19.8665  -29.3382   21.5795 C   0  0  1  0  0  0  0  0  0  0  0  0
  -23.6443  -29.1944   21.9550 C   0  0  1  0  0  0  0  0  0  0  0  0
  -27.7931  -13.0937   19.8090 C   0  0  2  0  0  0  0  0  0  0  0  0
  -26.4765  -22.6614   19.8649 C   0  0  0  0  0  0  0  0  0  1  0  0
  -32.9101  -18.0258   20.6189 C   0  0  0  0  0  0  0  0  0  0  0  0
  -30.0197  -32.9222   19.6182 C   0  0  0  0  0  0  0  0  0  0  0  0
  -23.6768  -31.7566   18.1086 C   0  0  0  0  0  0  0  0  0  0  0  0
  -25.9125  -32.6573   17.4315 C   0  0  0  0  0  0  0  0  0  0  0  0
  -24.7083  -33.6481   19.3785 C   0  0  0  0  0  0  0  0  0  0  0  0
  -29.8530  -30.0421   22.0987 C   0  0  0  0  0  0  0  0  0  0  0  0
  -27.4692  -17.2182   23.3850 C   0  0  0  0  0  0  0  0  0  0  0  0
  -25.7454  -31.3531   19.5999 C   0  0  1  0  0  0  0  0  0  0  0  0
  -29.3478  -31.9766   20.6016 C   0  0  2  0  0  0  0  0  0  0  0  0
  -25.0079  -32.3267   18.6378 C   0  0  0  0  0  0  0  0  0  0  0  0
  -25.9064  -11.5812   20.2944 N   0  0  0  0  0  0  0  0  0  0  0  0
  -26.3673  -12.8432   20.2646 N   0  0  0  0  0  0  0  0  0  0  0  0
  -24.6188  -29.6061   20.9426 N   0  0  0  0  0  0  0  0  0  0  0  0
  -30.1537  -13.3185   20.5371 N   0  0  0  0  0  0  0  0  0  0  0  0
  -30.8885  -14.9499   22.1215 N   0  0  0  0  0  0  0  0  0  0  0  0
  -25.7520  -15.0895   20.6961 N   0  0  0  0  0  0  0  0  0  0  0  0
  -22.9024  -13.7812   22.8319 N   0  0  0  0  0  0  0  0  0  0  0  0
  -21.2340  -29.3921   22.0503 N   0  0  0  0  0  0  0  0  0  0  0  0
  -26.9959  -31.8777   20.1378 N   0  0  0  0  0  0  0  0  0  0  0  0
  -30.3711  -31.0171   21.1048 N   0  3  0  0  0  0  0  0  0  0  0  0
  -22.1660  -13.9817   20.6694 O   0  0  0  0  0  0  0  0  0  0  0  0
  -22.2829  -28.6944   20.0918 O   0  0  0  0  0  0  0  0  0  0  0  0
  -24.5106  -31.8510   21.5630 O   0  0  0  0  0  0  0  0  0  0  0  0
  -28.3516  -30.1761   19.3355 O   0  0  0  0  0  0  0  0  0  0  0  0
  -31.6479  -14.9710   19.9531 O   0  0  0  0  0  0  0  0  0  0  0  0
  -21.3738   -7.2456   21.3920 O   0  0  0  0  0  0  0  0  0  0  0  0
  -25.9190  -23.8127   19.2402 O   0  0  0  0  0  0  0  0  0  1  0  0
  -28.8216  -16.8762   23.0884 O   0  0  0  0  0  0  0  0  0  0  0  0
  -20.4337   -5.5022   26.5379 F   0  0  0  0  0  0  0  0  0  0  0  0
  -22.1000   -4.6976   22.1812 F   0  0  0  0  0  0  0  0  0  0  0  0
  1  2  1  0  0  0  0
  1  5  2  0  0  0  0
  2  6  2  0  0  0  0
  3  8  2  0  0  0  0
  3 17  1  0  0  0  0
  4  9  1  0  0  0  0
  4 17  2  0  0  0  0
  5 19  1  0  0  0  0
  6 21  1  0  0  0  0
  7 10  2  0  0  0  0
  7 20  1  0  0  0  0
  8 26  1  0  0  0  0
  9 26  2  0  0  0  0
 10 27  1  0  0  0  0
 11 12  2  0  0  0  0
 11 28  1  0  0  0  0
 12 30  1  0  0  0  0
 13 22  1  0  0  0  0
 13 25  2  0  0  0  0
 14 22  2  0  0  0  0
 14 29  1  0  0  0  0
 15 23  1  0  0  0  0
 15 27  2  0  0  0  0
 16 30  2  0  0  0  0
 16 31  1  0  0  0  0
 17 32  1  0  0  0  0
 18 32  1  0  0  0  0
 18 33  2  0  0  0  0
 18 34  1  0  0  0  0
 19 21  2  0  0  0  0
 19 39  1  0  0  0  0
 20 23  2  0  0  0  0
 20 40  1  0  0  0  0
 21 57  1  0  0  0  0
 22 55  1  0  0  0  0
 23 41  1  0  0  0  0
 24 25  1  0  0  0  0
 24 29  2  0  0  0  0
 24 56  1  0  0  0  0
 25 61  1  0  0  0  0
 26 86  1  0  0  0  0
 27 87  1  0  0  0  0
 28 31  2  0  0  0  0
 28 86  1  0  0  0  0
 29 88  1  0  0  0  0
 30 89  1  0  0  0  0
 31 90  1  0  0  0  0
 32 71  2  0  0  0  0
 33 72  1  0  0  0  0
 33 76  1  0  0  0  0
 34 77  1  0  0  0  0
 34 81  2  0  0  0  0
 35 58  1  0  0  0  0
 35 78  1  0  0  0  0
 35 82  2  0  0  0  0
 36 68  1  0  0  0  0
 36 73  1  0  0  0  0
 36 83  2  0  0  0  0
 37 69  1  0  0  0  0
 37 79  1  0  0  0  0
 37 84  2  0  0  0  0
 38 74  1  0  0  0  0
 38 75  1  0  0  0  0
 38 85  2  0  0  0  0
 39 42  1  0  0  0  0
 40 58  1  0  0  0  0
 41 73  1  0  0  0  0
 42 48  1  0  0  0  0
 43 47  1  0  0  0  0
 43 53  1  0  0  0  0
 44 49  1  0  0  0  0
 44 52  1  0  0  0  0
 45 50  1  0  0  0  0
 45 55  1  0  0  0  0
 46 51  1  0  0  0  0
 46 55  1  0  0  0  0
 47 56  1  0  0  0  0
 48 57  1  0  0  0  0
 49 59  1  0  0  0  0
 50 60  1  0  0  0  0
 51 60  1  0  0  0  0
 52 74  1  0  0  0  0
 53 75  1  0  0  0  0
 54 59  1  0  0  0  0
 54 74  1  0  0  0  0
 56 75  1  0  0  0  0
 57 78  1  0  0  0  0
 58 73  1  0  0  0  0
 59 72  1  0  0  0  0
 60 87  1  0  0  0  0
 62 69  1  0  0  0  0
 63 70  1  0  0  0  0
 64 70  1  0  0  0  0
 65 70  1  0  0  0  0
 66 80  1  0  0  0  0
 67 88  1  0  0  0  0
 68 70  1  0  0  0  0
 68 79  1  0  0  0  0
 69 80  1  0  0  0  0
 71 72  1  0  0  0  0
M  CHG  1  80   1
M  ISO  4  38 100  60 101  75 100  87 101
M  END
> <Batch ID>
0157

> <Smiles>
CNC(C)C(=O)NC(C(=O)N1Cc2cc([101O:1][101CH:1]3CCC(c4cc(C)c(C5CCC[100N:0]5[100C:0](=O)N5CCCC(n6nc(-c7ccc(Oc8ccc(F)cc8F)cc7)c(C(N)=O)c6N)C5)c(OC)c4)CC3)ccc2CC1C(=O)NC1CCCc2ccccc21)C(C)(C)C

> <Shape>
0.342

> <Color>
0.203

> <Negative vol penalty>
0.000

$$$$

  -OEChem-04052321593D

 85 94  0     1  0  0  0  0  0999 V2000
  -34.9317  -33.6712   17.9734 C   0  0  0  0  0  0  0  0  0  0  0  0
  -34.2249  -32.5566   18.4132 C   0  0  0  0  0  0  0  0  0  0  0  0
  -24.7035   -8.9043   21.8875 C   0  0  0  0  0  0  0  0  0  0  0  0
  -24.3867   -8.3160   19.5657 C   0  0  0  0  0  0  0  0  0  0  0  0
  -34.7976  -34.8881   18.6404 C   0  0  0  0  0  0  0  0  0  0  0  0
  -33.3843  -32.6580   19.5212 C   0  0  0  0  0  0  0  0  0  0  0  0
  -28.9142  -30.3961   18.7821 C   0  0  0  0  0  0  0  0  0  0  0  0
  -29.8035  -24.0155   19.3096 C   0  0  0  0  0  0  0  0  0  0  0  0
  -23.5114   -8.2579   22.2139 C   0  0  0  0  0  0  0  0  0  0  0  0
  -23.1946   -7.6696   19.8922 C   0  0  0  0  0  0  0  0  0  0  0  0
  -28.8780  -29.0066   18.8909 C   0  0  0  0  0  0  0  0  0  0  0  0
  -29.6661  -22.6527   19.5731 C   0  0  0  0  0  0  0  0  0  0  0  0
  -22.4500   -5.0840   22.6967 C   0  0  0  0  0  0  0  0  0  0  0  0
  -22.4498   -4.2505   23.8151 C   0  0  0  0  0  0  0  0  0  0  0  0
  -27.9881  -29.2107   21.1238 C   0  0  0  0  0  0  0  0  0  0  0  0
  -27.4248  -24.3135   19.6096 C   0  0  0  0  0  0  0  0  0  0  0  0
  -20.7351   -5.6154   24.8320 C   0  0  0  0  0  0  0  0  0  0  0  0
  -25.1412   -8.9334   20.5633 C   0  0  0  0  0  0  0  0  0  0  0  0
  -27.6627   -9.0398   20.1914 C   0  0  0  0  0  0  0  0  0  0  0  0
  -33.9476  -35.0069   19.7513 C   0  0  0  0  0  0  0  0  0  0  0  0
  -28.4972  -31.2047   19.8492 C   0  0  0  0  0  0  0  0  0  0  0  0
  -33.2398  -33.8774   20.2046 C   0  0  0  0  0  0  0  0  0  0  0  0
  -28.0176  -30.6101   21.0251 C   0  0  0  0  0  0  0  0  0  0  0  0
  -28.6829  -24.8460   19.3279 C   0  0  0  0  0  0  0  0  0  0  0  0
  -27.2873  -22.9506   19.8731 C   0  0  0  0  0  0  0  0  0  0  0  0
  -22.7569   -7.6405   21.2163 C   0  0  0  0  0  0  0  0  0  0  0  0
  -28.4176  -28.4137   20.0630 C   0  0  0  0  0  0  0  0  0  0  0  0
  -28.4080  -22.1203   19.8548 C   0  0  0  0  0  0  0  0  0  0  0  0
  -21.5929   -6.1833   22.6459 C   0  0  0  0  0  0  0  0  0  0  0  0
  -21.5923   -4.5162   24.8827 C   0  0  0  0  0  0  0  0  0  0  0  0
  -20.7354   -6.4490   23.7135 C   0  0  0  0  0  0  0  0  0  0  0  0
  -26.3723   -9.6015   20.2254 C   0  0  0  0  0  0  0  0  0  0  0  0
  -28.4794  -10.0783   19.8160 C   0  0  0  0  0  0  0  0  0  0  0  0
  -28.0853   -7.6992   20.4739 C   0  0  0  0  0  0  0  0  0  0  0  0
  -29.9012  -33.3703   21.7046 C   0  0  0  0  0  0  0  0  0  0  0  0
  -26.8891  -33.7850   22.8349 C   0  0  0  0  0  0  0  0  0  0  0  0
  -23.7687  -32.4873   23.3100 C   0  0  0  0  0  0  0  0  0  0  0  0
  -28.1950  -15.8202   20.3977 C   0  0  0  0  0  0  0  0  0  0  0  0
  -33.8714  -36.3314   20.4687 C   0  0  0  0  0  0  0  0  0  0  0  0
  -28.5173  -32.7019   19.7061 C   0  0  0  0  0  0  0  0  0  0  0  0
  -27.5395  -31.4335   22.1921 C   0  0  0  0  0  0  0  0  0  0  0  0
  -32.6726  -36.4480   21.4065 C   0  0  0  0  0  0  0  0  0  0  0  0
  -28.4612  -14.1534   17.3199 C   0  0  0  0  0  0  0  0  0  0  0  0
  -32.5388  -35.1914   22.2607 C   0  0  0  0  0  0  0  0  0  0  0  0
  -28.0782  -12.7269   17.7132 C   0  0  0  0  0  0  0  0  0  0  0  0
  -29.8654  -19.0223   19.5591 C   0  0  0  0  0  0  0  0  0  0  0  0
  -27.5196  -19.0421   18.6071 C   0  0  0  0  0  0  0  0  0  0  0  0
  -27.5860  -15.1951   18.0190 C   0  0  0  0  0  0  0  0  0  0  0  0
  -29.4249  -17.9524   20.5569 C   0  0  0  0  0  0  0  0  0  0  0  0
  -27.1321  -17.9752   19.6284 C   0  0  0  0  0  0  0  0  0  0  0  0
  -27.1617  -13.6281   19.8848 C   0  0  0  0  0  0  0  0  0  0  0  0
  -32.2991  -33.9537   21.3876 C   0  0  1  0  0  0  0  0  0  0  0  0
  -28.5518  -33.4298   21.0464 C   0  0  1  0  0  0  0  0  0  0  0  0
  -28.0622  -12.5610   19.2432 C   0  0  1  0  0  0  0  0  0  0  0  0
  -28.7038  -19.8903   19.0739 C   0  0  0  0  0  0  0  0  0  0  0  0
  -25.9333  -22.3977   20.1741 C   0  0  0  0  0  0  0  0  0  0  0  0
  -21.5307  -33.0493   24.2962 C   0  0  0  0  0  0  0  0  0  0  0  0
  -28.0114  -33.3288   25.6353 C   0  0  0  0  0  0  0  0  0  0  0  0
  -25.6692  -32.9561   26.4376 C   0  0  0  0  0  0  0  0  0  0  0  0
  -26.3197  -35.1638   25.4755 C   0  0  0  0  0  0  0  0  0  0  0  0
  -22.4150  -32.2047   20.6934 C   0  0  0  0  0  0  0  0  0  0  0  0
  -28.8307  -26.3032   19.0476 C   0  0  0  0  0  0  0  0  0  1  0  0
  -26.0686  -33.1692   23.9423 C   0  0  1  0  0  0  0  0  0  0  0  0
  -22.3884  -33.0587   23.0404 C   0  0  2  0  0  0  0  0  0  0  0  0
  -26.5280  -33.6387   25.3516 C   0  0  0  0  0  0  0  0  0  0  0  0
  -26.3647  -10.8963   19.8978 N   0  0  0  0  0  0  0  0  0  0  0  0
  -27.6605  -11.1570   19.6545 N   0  0  0  0  0  0  0  0  0  0  0  0
  -27.5846  -32.8933   22.0060 N   0  0  0  0  0  0  0  0  0  0  0  0
  -27.5707  -14.9719   19.4709 N   0  0  0  0  0  0  0  0  0  0  0  0
  -28.2919  -17.1784   20.0507 N   0  0  0  0  0  0  0  0  0  0  0  0
  -29.8110  -10.1650   19.6116 N   0  0  0  0  0  0  0  0  0  0  0  0
  -27.1161   -6.7574   20.8455 N   0  0  0  0  0  0  0  0  0  0  0  0
  -30.9224  -33.9071   20.9440 N   0  0  0  0  0  0  0  0  0  0  0  0
  -24.6752  -33.4739   23.6358 N   0  0  0  0  0  0  0  0  0  0  0  0
  -21.6935  -32.2610   21.9908 N   0  3  0  0  0  0  0  0  0  0  0  0
  -29.2889   -7.3509   20.4149 O   0  0  0  0  0  0  0  0  0  0  0  0
  -30.0078  -32.8755   22.8206 O   0  0  0  0  0  0  0  0  0  0  0  0
  -26.9064  -35.0116   22.7054 O   0  0  0  0  0  0  0  0  0  0  0  0
  -24.0170  -31.2855   23.2422 O   0  0  0  0  0  0  0  0  0  0  0  0
  -28.6426  -15.3923   21.4690 O   0  0  0  0  0  0  0  0  0  0  0  0
  -21.5937   -7.0094   21.5345 O   0  0  0  0  0  0  0  0  0  0  0  0
  -28.2911  -20.7792   20.1097 O   0  0  0  0  0  0  0  0  0  0  0  0
  -28.3816  -27.0484   20.1728 O   0  0  0  0  0  0  0  0  0  1  0  0
  -21.5911   -3.7148   25.9560 F   0  0  0  0  0  0  0  0  0  0  0  0
  -19.9088   -7.5029   23.6700 F   0  0  0  0  0  0  0  0  0  0  0  0
  1  2  1  0  0  0  0
  1  5  2  0  0  0  0
  2  6  2  0  0  0  0
  3  9  2  0  0  0  0
  3 18  1  0  0  0  0
  4 10  1  0  0  0  0
  4 18  2  0  0  0  0
  5 20  1  0  0  0  0
  6 22  1  0  0  0  0
  7 11  2  0  0  0  0
  7 21  1  0  0  0  0
  8 12  2  0  0  0  0
  8 24  1  0  0  0  0
  9 26  1  0  0  0  0
 10 26  2  0  0  0  0
 11 27  1  0  0  0  0
 12 28  1  0  0  0  0
 13 14  2  0  0  0  0
 13 29  1  0  0  0  0
 14 30  1  0  0  0  0
 15 23  1  0  0  0  0
 15 27  2  0  0  0  0
 16 24  2  0  0  0  0
 16 25  1  0  0  0  0
 17 30  2  0  0  0  0
 17 31  1  0  0  0  0
 18 32  1  0  0  0  0
 19 32  1  0  0  0  0
 19 33  2  0  0  0  0
 19 34  1  0  0  0  0
 20 22  2  0  0  0  0
 20 39  1  0  0  0  0
 21 23  2  0  0  0  0
 21 40  1  0  0  0  0
 22 52  1  0  0  0  0
 23 41  1  0  0  0  0
 24 62  1  0  0  0  0
 25 28  2  0  0  0  0
 25 56  1  0  0  0  0
 26 81  1  0  0  0  0
 27 83  1  0  0  0  0
 28 82  1  0  0  0  0
 29 31  2  0  0  0  0
 29 81  1  0  0  0  0
 30 84  1  0  0  0  0
 31 85  1  0  0  0  0
 32 66  2  0  0  0  0
 33 67  1  0  0  0  0
 33 71  1  0  0  0  0
 34 72  1  0  0  0  0
 34 76  2  0  0  0  0
 35 53  1  0  0  0  0
 35 73  1  0  0  0  0
 35 77  2  0  0  0  0
 36 63  1  0  0  0  0
 36 68  1  0  0  0  0
 36 78  2  0  0  0  0
 37 64  1  0  0  0  0
 37 74  1  0  0  0  0
 37 79  2  0  0  0  0
 38 69  1  0  0  0  0
 38 70  1  0  0  0  0
 38 80  2  0  0  0  0
 39 42  1  0  0  0  0
 40 53  1  0  0  0  0
 41 68  1  0  0  0  0
 42 44  1  0  0  0  0
 43 45  1  0  0  0  0
 43 48  1  0  0  0  0
 44 52  1  0  0  0  0
 45 54  1  0  0  0  0
 46 49  1  0  0  0  0
 46 55  1  0  0  0  0
 47 50  1  0  0  0  0
 47 55  1  0  0  0  0
 48 69  1  0  0  0  0
 49 70  1  0  0  0  0
 50 70  1  0  0  0  0
 51 54  1  0  0  0  0
 51 69  1  0  0  0  0
 52 73  1  0  0  0  0
 53 68  1  0  0  0  0
 54 67  1  0  0  0  0
 55 82  1  0  0  0  0
 57 64  1  0  0  0  0
 58 65  1  0  0  0  0
 59 65  1  0  0  0  0
 60 65  1  0  0  0  0
 61 75  1  0  0  0  0
 62 83  1  0  0  0  0
 63 65  1  0  0  0  0
 63 74  1  0  0  0  0
 64 75  1  0  0  0  0
 66 67  1  0  0  0  0
M  CHG  1  75   1
M  ISO  4  38 100  62 101  70 100  83 101
M  END
> <Batch ID>
0157

> <Smiles>
CNC(C)C(=O)NC(C(=O)N1Cc2cc([101O:1][101CH2:1]c3ccc(OC4CC[100N:0]([100C:0](=O)N5CCCC(n6nc(-c7ccc(Oc8ccc(F)cc8F)cc7)c(C(N)=O)c6N)C5)CC4)c(C)c3)ccc2CC1C(=O)NC1CCCc2ccccc21)C(C)(C)C

> <Shape>
0.243

> <Color>
0.100

> <Negative vol penalty>
0.000

$$$$

  -OEChem-04052321593D

 87 96  0     1  0  0  0  0  0999 V2000
  -16.3978  -29.9171   23.9755 C   0  0  0  0  0  0  0  0  0  0  0  0
  -17.0879  -28.7260   24.1765 C   0  0  0  0  0  0  0  0  0  0  0  0
  -25.5928  -17.0823   21.5966 C   0  0  0  0  0  0  0  0  0  0  0  0
  -27.2647  -16.0009   22.9650 C   0  0  0  0  0  0  0  0  0  0  0  0
  -16.8872  -30.8614   23.0740 C   0  0  0  0  0  0  0  0  0  0  0  0
  -18.2674  -28.4780   23.4752 C   0  0  0  0  0  0  0  0  0  0  0  0
  -24.5969  -25.1981   24.1794 C   0  0  0  0  0  0  0  0  0  0  0  0
  -25.7134  -18.2404   22.3645 C   0  0  0  0  0  0  0  0  0  0  0  0
  -27.3854  -17.1591   23.7328 C   0  0  0  0  0  0  0  0  0  0  0  0
  -25.4078  -24.2705   23.5269 C   0  0  0  0  0  0  0  0  0  0  0  0
  -27.8742  -19.7087   26.2765 C   0  0  0  0  0  0  0  0  0  0  0  0
  -27.9107  -19.5662   27.6635 C   0  0  0  0  0  0  0  0  0  0  0  0
  -26.2005  -26.0087   22.0540 C   0  0  0  0  0  0  0  0  0  0  0  0
  -28.4767  -20.4312   19.4549 C   0  0  0  0  0  0  0  0  0  0  0  0
  -25.7236  -18.5407   27.6157 C   0  0  0  0  0  0  0  0  0  0  0  0
  -26.3684  -15.9624   21.8969 C   0  0  0  0  0  0  0  0  0  0  0  0
  -25.0856  -13.9879   20.9154 C   0  0  0  0  0  0  0  0  0  0  0  0
  -18.0784  -30.6290   22.3685 C   0  0  0  0  0  0  0  0  0  0  0  0
  -24.5735  -26.5380   23.7664 C   0  0  0  0  0  0  0  0  0  0  0  0
  -18.7725  -29.4195   22.5624 C   0  0  0  0  0  0  0  0  0  0  0  0
  -25.3904  -26.9518   22.7046 C   0  0  0  0  0  0  0  0  0  0  0  0
  -27.5891  -21.2093   20.1980 C   0  0  0  0  0  0  0  0  0  0  0  0
  -29.6928  -20.0359   20.0122 C   0  0  0  0  0  0  0  0  0  0  0  0
  -30.0213  -20.4188   21.3126 C   0  0  0  0  0  0  0  0  0  0  0  0
  -29.1337  -21.1969   22.0558 C   0  0  0  0  0  0  0  0  0  0  0  0
  -27.9176  -21.5922   21.4985 C   0  0  0  0  0  0  0  0  0  0  0  0
  -26.6097  -18.2789   23.4326 C   0  0  0  0  0  0  0  0  0  0  0  0
  -26.2076  -24.6751   22.4622 C   0  0  0  0  0  0  0  0  0  0  0  0
  -26.7623  -19.2674   25.5590 C   0  0  0  0  0  0  0  0  0  0  0  0
  -26.8354  -18.9821   28.3332 C   0  0  0  0  0  0  0  0  0  0  0  0
  -25.6871  -18.6834   26.2286 C   0  0  0  0  0  0  0  0  0  0  0  0
  -26.2438  -14.7655   21.1044 C   0  0  0  0  0  0  0  0  0  0  0  0
  -25.4877  -12.9689   20.0868 C   0  0  0  0  0  0  0  0  0  0  0  0
  -23.7645  -14.1704   21.4416 C   0  0  0  0  0  0  0  0  0  0  0  0
  -22.3482  -28.4893   22.6071 C   0  0  0  0  0  0  0  0  0  0  0  0
  -24.6964  -30.7080   22.8986 C   0  0  0  0  0  0  0  0  0  0  0  0
  -28.0368  -31.3858   23.0706 C   0  0  0  0  0  0  0  0  0  0  0  0
  -30.6789  -14.6152   19.1916 C   0  0  0  0  0  0  0  0  0  0  0  0
  -18.5430  -31.6589   21.3694 C   0  0  0  0  0  0  0  0  0  0  0  0
  -23.7133  -27.5317   24.4979 C   0  0  0  0  0  0  0  0  0  0  0  0
  -25.4169  -28.3828   22.2355 C   0  0  0  0  0  0  0  0  0  0  0  0
  -19.9984  -31.4820   20.9444 C   0  0  0  0  0  0  0  0  0  0  0  0
  -29.5268  -11.5398   20.5994 C   0  0  0  0  0  0  0  0  0  0  0  0
  -31.4710  -16.1785   16.0170 C   0  0  0  0  0  0  0  0  0  0  0  0
  -20.2839  -30.0206   20.6131 C   0  0  0  0  0  0  0  0  0  0  0  0
  -28.3130  -11.1564   19.7602 C   0  0  0  0  0  0  0  0  0  0  0  0
  -31.2204  -17.4319   16.8436 C   0  0  0  0  0  0  0  0  0  0  0  0
  -30.5852  -12.2092   19.7364 C   0  0  0  0  0  0  0  0  0  0  0  0
  -30.5904  -15.1460   16.7038 C   0  0  0  0  0  0  0  0  0  0  0  0
  -28.8391  -13.1384   18.2284 C   0  0  0  0  0  0  0  0  0  0  0  0
  -20.0685  -29.1247   21.8388 C   0  0  1  0  0  0  0  0  0  0  0  0
  -23.3819  -28.7643   23.6623 C   0  0  1  0  0  0  0  0  0  0  0  0
  -27.7402  -12.3467   18.9742 C   0  0  2  0  0  0  0  0  0  0  0  0
  -31.1109  -16.8942   18.2731 C   0  0  1  0  0  0  0  0  0  0  0  0
  -26.2937  -21.6197   19.5776 C   0  0  0  0  0  0  0  0  0  0  0  0
  -31.3265  -19.9940   21.9075 C   0  0  0  0  0  0  0  0  0  0  0  0
  -29.4857  -21.6071   23.4510 C   0  0  0  0  0  0  0  0  0  0  0  0
  -29.6514  -33.2965   23.2693 C   0  0  0  0  0  0  0  0  0  0  0  0
  -24.2341  -31.4008   19.9633 C   0  0  0  0  0  0  0  0  0  0  0  0
  -26.4409  -32.5835   19.9670 C   0  0  0  0  0  0  0  0  0  0  0  0
  -24.6017  -33.3739   21.4554 C   0  0  0  0  0  0  0  0  0  0  0  0
  -29.1154  -30.3601   25.6286 C   0  0  0  0  0  0  0  0  0  0  0  0
  -30.6339  -19.1943   19.1877 C   0  0  0  0  0  0  0  0  0  0  0  0
  -26.9636  -22.4266   22.2934 C   0  0  0  0  0  0  0  0  0  1  0  0
  -30.1735  -17.7373   19.1280 C   0  0  0  0  0  0  0  0  0  0  0  0
  -25.8022  -31.2180   22.0063 C   0  0  1  0  0  0  0  0  0  0  0  0
  -28.8409  -32.2530   24.0223 C   0  0  2  0  0  0  0  0  0  0  0  0
  -25.2680  -32.1166   20.8553 C   0  0  0  0  0  0  0  0  0  0  0  0
  -27.3023  -14.2819   20.4489 N   0  0  0  0  0  0  0  0  0  0  0  0
  -26.8108  -13.1894   19.8399 N   0  0  0  0  0  0  0  0  0  0  0  0
  -24.5536  -29.3156   22.9787 N   0  0  0  0  0  0  0  0  0  0  0  0
  -30.0545  -13.3705   19.0220 N   0  0  0  0  0  0  0  0  0  0  0  0
  -30.6445  -15.5108   18.1203 N   0  0  0  0  0  0  0  0  0  0  0  0
  -24.8351  -11.9148   19.5528 N   0  0  0  0  0  0  0  0  0  0  0  0
  -23.4460  -13.5739   22.6692 N   0  0  0  0  0  0  0  0  0  0  0  0
  -21.1908  -29.2314   22.7463 N   0  0  0  0  0  0  0  0  0  0  0  0
  -26.7627  -31.8786   22.8835 N   0  0  0  0  0  0  0  0  0  0  0  0
  -29.7798  -31.4141   24.8196 N   0  3  0  0  0  0  0  0  0  0  0  0
  -22.8871  -14.8287   20.8330 O   0  0  0  0  0  0  0  0  0  0  0  0
  -22.5837  -27.6659   21.7305 O   0  0  0  0  0  0  0  0  0  0  0  0
  -23.9902  -31.5153   23.5079 O   0  0  0  0  0  0  0  0  0  0  0  0
  -28.4944  -30.3746   22.5429 O   0  0  0  0  0  0  0  0  0  0  0  0
  -31.2507  -14.9100   20.2495 O   0  0  0  0  0  0  0  0  0  0  0  0
  -26.7279  -19.4090   24.1819 O   0  0  0  0  0  0  0  0  0  0  0  0
  -27.0054  -23.7650   21.8184 O   0  0  0  0  0  0  0  0  0  1  0  0
  -26.8713  -18.8439   29.6650 F   0  0  0  0  0  0  0  0  0  0  0  0
  -24.6167  -18.2564   25.5447 F   0  0  0  0  0  0  0  0  0  0  0  0
  1  2  1  0  0  0  0
  1  5  2  0  0  0  0
  2  6  2  0  0  0  0
  3  8  2  0  0  0  0
  3 16  1  0  0  0  0
  4  9  1  0  0  0  0
  4 16  2  0  0  0  0
  5 18  1  0  0  0  0
  6 20  1  0  0  0  0
  7 10  2  0  0  0  0
  7 19  1  0  0  0  0
  8 27  1  0  0  0  0
  9 27  2  0  0  0  0
 10 28  1  0  0  0  0
 11 12  2  0  0  0  0
 11 29  1  0  0  0  0
 12 30  1  0  0  0  0
 13 21  1  0  0  0  0
 13 28  2  0  0  0  0
 14 22  2  0  0  0  0
 14 23  1  0  0  0  0
 15 30  2  0  0  0  0
 15 31  1  0  0  0  0
 16 32  1  0  0  0  0
 17 32  1  0  0  0  0
 17 33  2  0  0  0  0
 17 34  1  0  0  0  0
 18 20  2  0  0  0  0
 18 39  1  0  0  0  0
 19 21  2  0  0  0  0
 19 40  1  0  0  0  0
 20 51  1  0  0  0  0
 21 41  1  0  0  0  0
 22 26  1  0  0  0  0
 22 55  1  0  0  0  0
 23 24  2  0  0  0  0
 23 63  1  0  0  0  0
 24 25  1  0  0  0  0
 24 56  1  0  0  0  0
 25 26  2  0  0  0  0
 25 57  1  0  0  0  0
 26 64  1  0  0  0  0
 27 84  1  0  0  0  0
 28 85  1  0  0  0  0
 29 31  2  0  0  0  0
 29 84  1  0  0  0  0
 30 86  1  0  0  0  0
 31 87  1  0  0  0  0
 32 69  2  0  0  0  0
 33 70  1  0  0  0  0
 33 74  1  0  0  0  0
 34 75  1  0  0  0  0
 34 79  2  0  0  0  0
 35 52  1  0  0  0  0
 35 76  1  0  0  0  0
 35 80  2  0  0  0  0
 36 66  1  0  0  0  0
 36 71  1  0  0  0  0
 36 81  2  0  0  0  0
 37 67  1  0  0  0  0
 37 77  1  0  0  0  0
 37 82  2  0  0  0  0
 38 72  1  0  0  0  0
 38 73  1  0  0  0  0
 38 83  2  0  0  0  0
 39 42  1  0  0  0  0
 40 52  1  0  0  0  0
 41 71  1  0  0  0  0
 42 45  1  0  0  0  0
 43 46  1  0  0  0  0
 43 48  1  0  0  0  0
 44 47  1  0  0  0  0
 44 49  1  0  0  0  0
 45 51  1  0  0  0  0
 46 53  1  0  0  0  0
 47 54  1  0  0  0  0
 48 72  1  0  0  0  0
 49 73  1  0  0  0  0
 50 53  1  0  0  0  0
 50 72  1  0  0  0  0
 51 76  1  0  0  0  0
 52 71  1  0  0  0  0
 53 70  1  0  0  0  0
 54 65  1  0  0  0  0
 54 73  1  0  0  0  0
 58 67  1  0  0  0  0
 59 68  1  0  0  0  0
 60 68  1  0  0  0  0
 61 68  1  0  0  0  0
 62 78  1  0  0  0  0
 63 65  1  0  0  0  0
 64 85  1  0  0  0  0
 66 68  1  0  0  0  0
 66 77  1  0  0  0  0
 67 78  1  0  0  0  0
 69 70  1  0  0  0  0
M  CHG  1  78   1
M  ISO  4  38 100  64 101  73 100  85 101
M  END
> <Batch ID>
0157

> <Smiles>
CNC(C)C(=O)NC(C(=O)N1Cc2cc([101O:1][101CH2:1]c3c(C)cc(CCC4CCC[100N:0]4[100C:0](=O)N4CCCC(n5nc(-c6ccc(Oc7ccc(F)cc7F)cc6)c(C(N)=O)c5N)C4)c(C)c3C)ccc2CC1C(=O)NC1CCCc2ccccc21)C(C)(C)C

> <Shape>
0.224

> <Color>
0.093

> <Negative vol penalty>
0.000

$$$$

  -OEChem-04052321593D

 88 97  0     1  0  0  0  0  0999 V2000
  -36.4570  -12.3264   23.9800 C   0  0  0  0  0  0  0  0  0  0  0  0
  -36.1403  -13.6226   23.5865 C   0  0  0  0  0  0  0  0  0  0  0  0
  -24.1120  -26.6754   22.4477 C   0  0  0  0  0  0  0  0  0  0  0  0
  -23.2852  -28.7643   21.5589 C   0  0  0  0  0  0  0  0  0  0  0  0
  -35.7649  -11.2452   23.4360 C   0  0  0  0  0  0  0  0  0  0  0  0
  -35.1320  -13.8384   22.6478 C   0  0  0  0  0  0  0  0  0  0  0  0
  -31.2235  -18.5495   22.4599 C   0  0  0  0  0  0  0  0  0  0  0  0
  -22.9702  -26.5609   23.2407 C   0  0  0  0  0  0  0  0  0  0  0  0
  -22.1434  -28.6498   22.3519 C   0  0  0  0  0  0  0  0  0  0  0  0
  -31.2143  -19.7317   21.7210 C   0  0  0  0  0  0  0  0  0  0  0  0
  -19.2241  -26.9488   22.2812 C   0  0  0  0  0  0  0  0  0  0  0  0
  -17.9925  -27.2173   21.6839 C   0  0  0  0  0  0  0  0  0  0  0  0
  -30.5073  -26.7874   22.2143 C   0  0  0  0  0  0  0  0  0  0  0  0
  -29.7621  -18.6976   20.0959 C   0  0  0  0  0  0  0  0  0  0  0  0
  -17.6091  -28.9956   23.2738 C   0  0  0  0  0  0  0  0  0  0  0  0
  -24.2695  -27.7771   21.6069 C   0  0  0  0  0  0  0  0  0  0  0  0
  -25.8892  -26.9998   19.7958 C   0  0  0  0  0  0  0  0  0  0  0  0
  -34.7411  -11.4484   22.4973 C   0  0  0  0  0  0  0  0  0  0  0  0
  -30.5097  -17.4271   22.0160 C   0  0  0  0  0  0  0  0  0  0  0  0
  -34.4265  -12.7588   22.0896 C   0  0  0  0  0  0  0  0  0  0  0  0
  -30.9667  -26.5443   20.9199 C   0  0  0  0  0  0  0  0  0  0  0  0
  -29.7618  -17.5031   20.8324 C   0  0  0  0  0  0  0  0  0  0  0  0
  -30.6414  -28.0576   22.7749 C   0  0  0  0  0  0  0  0  0  0  0  0
  -31.5603  -27.5713   20.1861 C   0  0  0  0  0  0  0  0  0  0  0  0
  -31.6945  -28.8415   20.7467 C   0  0  0  0  0  0  0  0  0  0  0  0
  -31.2350  -29.0847   22.0411 C   0  0  0  0  0  0  0  0  0  0  0  0
  -21.9859  -27.5480   23.1928 C   0  0  0  0  0  0  0  0  0  0  0  0
  -30.4859  -19.8050   20.5373 C   0  0  0  0  0  0  0  0  0  0  0  0
  -19.6482  -27.7037   23.3748 C   0  0  0  0  0  0  0  0  0  0  0  0
  -17.1851  -28.2407   22.1802 C   0  0  0  0  0  0  0  0  0  0  0  0
  -18.8407  -28.7271   23.8711 C   0  0  0  0  0  0  0  0  0  0  0  0
  -25.4490  -27.8963   20.7879 C   0  0  0  0  0  0  0  0  0  0  0  0
  -27.0472  -27.5608   19.3154 C   0  0  0  0  0  0  0  0  0  0  0  0
  -25.3036  -25.7699   19.3484 C   0  0  0  0  0  0  0  0  0  0  0  0
  -31.2915  -14.4716   21.1456 C   0  0  0  0  0  0  0  0  0  0  0  0
  -28.0745  -14.0758   21.0179 C   0  0  0  0  0  0  0  0  0  0  0  0
  -24.9920  -15.4981   20.6689 C   0  0  0  0  0  0  0  0  0  0  0  0
  -30.7869  -31.5524   22.0642 C   0  0  0  0  0  0  0  0  0  0  0  0
  -34.0531  -10.2456   21.9017 C   0  0  0  0  0  0  0  0  0  0  0  0
  -30.5082  -16.1677   22.8384 C   0  0  0  0  0  0  0  0  0  0  0  0
  -28.9622  -16.3328   20.3230 C   0  0  0  0  0  0  0  0  0  0  0  0
  -32.7440  -10.5819   21.1922 C   0  0  0  0  0  0  0  0  0  0  0  0
  -29.2276  -31.7719   18.7155 C   0  0  0  0  0  0  0  0  0  0  0  0
  -29.5350  -24.4571   20.8488 C   0  0  0  0  0  0  0  0  0  0  0  0
  -32.0520  -24.2827   20.5784 C   0  0  0  0  0  0  0  0  0  0  0  0
  -32.9253  -11.7939   20.2838 C   0  0  0  0  0  0  0  0  0  0  0  0
  -28.0662  -30.7848   18.8167 C   0  0  0  0  0  0  0  0  0  0  0  0
  -29.3802  -23.0630   20.2466 C   0  0  0  0  0  0  0  0  0  0  0  0
  -31.8840  -22.8898   19.9771 C   0  0  0  0  0  0  0  0  0  0  0  0
  -29.5753  -32.3783   20.0717 C   0  0  0  0  0  0  0  0  0  0  0  0
  -28.6997  -30.3680   21.2264 C   0  0  0  0  0  0  0  0  0  0  0  0
  -30.8069  -25.1536   20.3332 C   0  0  0  0  0  0  0  0  0  0  0  0
  -33.3223  -13.0349   21.0924 C   0  0  1  0  0  0  0  0  0  0  0  0
  -30.1611  -14.9240   22.0260 C   0  0  1  0  0  0  0  0  0  0  0  0
  -28.3566  -29.7129   19.8801 C   0  0  1  0  0  0  0  0  0  0  0  0
  -30.6196  -22.2031   20.4878 C   0  0  0  0  0  0  0  0  0  1  0  0
  -30.1382  -28.2873   24.1633 C   0  0  0  0  0  0  0  0  0  0  0  0
  -32.0520  -27.3071   18.7982 C   0  0  0  0  0  0  0  0  0  0  0  0
  -32.3325  -29.9402   19.9550 C   0  0  0  0  0  0  0  0  0  0  0  0
  -33.7626  -30.7006   23.1221 C   0  0  0  0  0  0  0  0  0  0  0  0
  -22.5533  -14.9149   20.5681 C   0  0  0  0  0  0  0  0  0  0  0  0
  -28.4390  -13.0553   18.1656 C   0  0  0  0  0  0  0  0  0  0  0  0
  -25.9848  -13.3944   17.8049 C   0  0  0  0  0  0  0  0  0  0  0  0
  -26.7782  -11.7742   19.5277 C   0  0  0  0  0  0  0  0  0  0  0  0
  -24.3850  -17.1244   23.0659 C   0  0  0  0  0  0  0  0  0  0  0  0
  -32.3592  -30.5804   23.6811 C   0  0  0  0  0  0  0  0  0  0  0  0
  -27.0167  -14.2545   19.9558 C   0  0  1  0  0  0  0  0  0  0  0  0
  -23.7097  -15.3310   21.4640 C   0  0  2  0  0  0  0  0  0  0  0  0
  -27.0712  -13.1412   18.8718 C   0  0  0  0  0  0  0  0  0  0  0  0
  -26.2613  -28.9469   20.9305 N   0  0  0  0  0  0  0  0  0  0  0  0
  -27.2236  -28.7141   20.0217 N   0  0  0  0  0  0  0  0  0  0  0  0
  -28.9976  -15.1216   21.1592 N   0  0  0  0  0  0  0  0  0  0  0  0
  -29.7900  -31.3473   21.0883 N   0  0  0  0  0  0  0  0  0  0  0  0
  -27.9217  -27.1750   18.3621 N   0  0  0  0  0  0  0  0  0  0  0  0
  -25.6804  -24.5798   19.9857 N   0  0  0  0  0  0  0  0  0  0  0  0
  -32.1662  -13.5950   21.7588 N   0  0  0  0  0  0  0  0  0  0  0  0
  -25.7418  -14.3410   20.6599 N   0  0  0  0  0  0  0  0  0  0  0  0
  -31.3694  -30.3983   22.6218 N   0  0  0  0  0  0  0  0  0  0  0  0
  -23.3465  -16.6105   22.1362 N   0  3  0  0  0  0  0  0  0  0  0  0
  -24.4834  -25.7256   18.4004 O   0  0  0  0  0  0  0  0  0  0  0  0
  -31.3640  -14.8860   19.9946 O   0  0  0  0  0  0  0  0  0  0  0  0
  -28.0773  -13.0493   21.7020 O   0  0  0  0  0  0  0  0  0  0  0  0
  -25.2962  -16.5489   20.1085 O   0  0  0  0  0  0  0  0  0  0  0  0
  -31.0983  -32.6847   22.4536 O   0  0  0  0  0  0  0  0  0  0  0  0
  -20.8715  -27.4365   23.9662 O   0  0  0  0  0  0  0  0  0  0  0  0
  -30.4757  -20.9575   19.8138 O   0  0  0  0  0  0  0  0  0  1  0  0
  -16.0031  -28.4994   21.6055 F   0  0  0  0  0  0  0  0  0  0  0  0
  -19.2433  -29.4566   24.9207 F   0  0  0  0  0  0  0  0  0  0  0  0
  1  2  1  0  0  0  0
  1  5  2  0  0  0  0
  2  6  2  0  0  0  0
  3  8  2  0  0  0  0
  3 16  1  0  0  0  0
  4  9  1  0  0  0  0
  4 16  2  0  0  0  0
  5 18  1  0  0  0  0
  6 20  1  0  0  0  0
  7 10  2  0  0  0  0
  7 19  1  0  0  0  0
  8 27  1  0  0  0  0
  9 27  2  0  0  0  0
 10 28  1  0  0  0  0
 11 12  2  0  0  0  0
 11 29  1  0  0  0  0
 12 30  1  0  0  0  0
 13 21  1  0  0  0  0
 13 23  2  0  0  0  0
 14 22  1  0  0  0  0
 14 28  2  0  0  0  0
 15 30  2  0  0  0  0
 15 31  1  0  0  0  0
 16 32  1  0  0  0  0
 17 32  1  0  0  0  0
 17 33  2  0  0  0  0
 17 34  1  0  0  0  0
 18 20  2  0  0  0  0
 18 39  1  0  0  0  0
 19 22  2  0  0  0  0
 19 40  1  0  0  0  0
 20 53  1  0  0  0  0
 21 24  2  0  0  0  0
 21 52  1  0  0  0  0
 22 41  1  0  0  0  0
 23 26  1  0  0  0  0
 23 57  1  0  0  0  0
 24 25  1  0  0  0  0
 24 58  1  0  0  0  0
 25 26  2  0  0  0  0
 25 59  1  0  0  0  0
 26 78  1  0  0  0  0
 27 85  1  0  0  0  0
 28 86  1  0  0  0  0
 29 31  2  0  0  0  0
 29 85  1  0  0  0  0
 30 87  1  0  0  0  0
 31 88  1  0  0  0  0
 32 70  2  0  0  0  0
 33 71  1  0  0  0  0
 33 74  1  0  0  0  0
 34 75  1  0  0  0  0
 34 80  2  0  0  0  0
 35 54  1  0  0  0  0
 35 76  1  0  0  0  0
 35 81  2  0  0  0  0
 36 67  1  0  0  0  0
 36 72  1  0  0  0  0
 36 82  2  0  0  0  0
 37 68  1  0  0  0  0
 37 77  1  0  0  0  0
 37 83  2  0  0  0  0
 38 73  1  0  0  0  0
 38 78  1  0  0  0  0
 38 84  2  0  0  0  0
 39 42  1  0  0  0  0
 40 54  1  0  0  0  0
 41 72  1  0  0  0  0
 42 46  1  0  0  0  0
 43 47  1  0  0  0  0
 43 50  1  0  0  0  0
 44 48  1  0  0  0  0
 44 52  1  0  0  0  0
 45 49  1  0  0  0  0
 45 52  1  0  0  0  0
 46 53  1  0  0  0  0
 47 55  1  0  0  0  0
 48 56  1  0  0  0  0
 49 56  1  0  0  0  0
 50 73  1  0  0  0  0
 51 55  1  0  0  0  0
 51 73  1  0  0  0  0
 53 76  1  0  0  0  0
 54 72  1  0  0  0  0
 55 71  1  0  0  0  0
 56 86  1  0  0  0  0
 60 66  1  0  0  0  0
 61 68  1  0  0  0  0
 62 69  1  0  0  0  0
 63 69  1  0  0  0  0
 64 69  1  0  0  0  0
 65 79  1  0  0  0  0
 66 78  1  0  0  0  0
 67 69  1  0  0  0  0
 67 77  1  0  0  0  0
 68 79  1  0  0  0  0
 70 71  1  0  0  0  0
M  CHG  1  79   1
M  ISO  4  38 100  56 101  78 100  86 101
M  END
> <Batch ID>
0157

> <Smiles>
CC[100N:0](c1c(C)cc(C2CC[101CH:1]([101O:1]c3ccc4c(c3)CN(C(=O)C(NC(=O)C(C)NC)C(C)(C)C)C(C(=O)NC3CCCc5ccccc53)C4)CC2)c(C)c1C)[100C:0](=O)N1CCCC(n2nc(-c3ccc(Oc4ccc(F)cc4F)cc3)c(C(N)=O)c2N)C1

> <Shape>
0.245

> <Color>
0.056

> <Negative vol penalty>
0.000

$$$$

  -OEChem-04052321593D

 84 93  0     1  0  0  0  0  0999 V2000
  -28.0524  -33.8148   25.6441 C   0  0  0  0  0  0  0  0  0  0  0  0
  -28.1864  -32.5444   25.0931 C   0  0  0  0  0  0  0  0  0  0  0  0
  -28.4029  -11.6353   22.2154 C   0  0  0  0  0  0  0  0  0  0  0  0
  -27.2678  -12.0348   20.1204 C   0  0  0  0  0  0  0  0  0  0  0  0
  -26.7851  -34.3139   25.9422 C   0  0  0  0  0  0  0  0  0  0  0  0
  -27.0533  -31.7719   24.8409 C   0  0  0  0  0  0  0  0  0  0  0  0
  -27.1940  -29.5421   20.2963 C   0  0  0  0  0  0  0  0  0  0  0  0
  -27.6181  -10.5013   22.4244 C   0  0  0  0  0  0  0  0  0  0  0  0
  -26.4830  -10.9008   20.3294 C   0  0  0  0  0  0  0  0  0  0  0  0
  -27.9892  -28.4040   20.1699 C   0  0  0  0  0  0  0  0  0  0  0  0
  -23.9334   -8.3151   20.4823 C   0  0  0  0  0  0  0  0  0  0  0  0
  -22.5646   -8.4193   20.2351 C   0  0  0  0  0  0  0  0  0  0  0  0
  -29.1977  -22.3282   16.0418 C   0  0  0  0  0  0  0  0  0  0  0  0
  -27.7311  -22.4614   17.9570 C   0  0  0  0  0  0  0  0  0  0  0  0
  -26.0266  -27.0169   20.3791 C   0  0  0  0  0  0  0  0  0  0  0  0
  -22.3953  -10.1567   21.9055 C   0  0  0  0  0  0  0  0  0  0  0  0
  -28.2278  -12.4021   21.0634 C   0  0  0  0  0  0  0  0  0  0  0  0
  -30.2793  -13.6393   20.1868 C   0  0  0  0  0  0  0  0  0  0  0  0
  -25.6353  -33.5509   25.6846 C   0  0  0  0  0  0  0  0  0  0  0  0
  -25.8081  -29.4258   20.4763 C   0  0  0  0  0  0  0  0  0  0  0  0
  -25.7695  -32.2607   25.1372 C   0  0  0  0  0  0  0  0  0  0  0  0
  -28.6689  -23.0523   17.1103 C   0  0  0  0  0  0  0  0  0  0  0  0
  -25.2157  -28.1552   20.5050 C   0  0  0  0  0  0  0  0  0  0  0  0
  -28.7886  -21.0132   15.8200 C   0  0  0  0  0  0  0  0  0  0  0  0
  -27.3221  -21.1463   17.7353 C   0  0  0  0  0  0  0  0  0  0  0  0
  -27.8509  -20.4223   16.6668 C   0  0  0  0  0  0  0  0  0  0  0  0
  -26.6582  -10.1340   21.4814 C   0  0  0  0  0  0  0  0  0  0  0  0
  -27.4059  -27.1411   20.2142 C   0  0  0  0  0  0  0  0  0  0  0  0
  -24.5332   -9.1315   21.4412 C   0  0  0  0  0  0  0  0  0  0  0  0
  -21.7956   -9.3401   20.9467 C   0  0  0  0  0  0  0  0  0  0  0  0
  -23.7642  -10.0523   22.1527 C   0  0  0  0  0  0  0  0  0  0  0  0
  -29.0378  -13.5740   20.8473 C   0  0  0  0  0  0  0  0  0  0  0  0
  -30.6314  -14.9654   20.2480 C   0  0  0  0  0  0  0  0  0  0  0  0
  -31.0456  -12.5945   19.5729 C   0  0  0  0  0  0  0  0  0  0  0  0
  -23.7662  -30.2558   22.7666 C   0  0  0  0  0  0  0  0  0  0  0  0
  -21.5529  -29.2504   20.6187 C   0  0  0  0  0  0  0  0  0  0  0  0
  -20.8167  -27.3079   17.9111 C   0  0  0  0  0  0  0  0  0  0  0  0
  -27.4498  -20.0077   20.7997 C   0  0  0  0  0  0  0  0  0  0  0  0
  -24.2896  -34.1141   26.0677 C   0  0  0  0  0  0  0  0  0  0  0  0
  -24.9609  -30.6639   20.5844 C   0  0  0  0  0  0  0  0  0  0  0  0
  -23.7300  -27.9767   20.6760 C   0  0  0  0  0  0  0  0  0  0  0  0
  -23.1164  -33.3807   25.4226 C   0  0  0  0  0  0  0  0  0  0  0  0
  -30.0525  -18.8727   22.9478 C   0  0  0  0  0  0  0  0  0  0  0  0
  -23.2950  -31.8713   25.5505 C   0  0  0  0  0  0  0  0  0  0  0  0
  -30.1996  -17.3919   22.5935 C   0  0  0  0  0  0  0  0  0  0  0  0
  -30.5791  -24.7532   17.4880 C   0  0  0  0  0  0  0  0  0  0  0  0
  -28.5953  -19.3254   22.8875 C   0  0  0  0  0  0  0  0  0  0  0  0
  -28.0561  -17.5548   21.2603 C   0  0  0  0  0  0  0  0  0  0  0  0
  -29.1031  -24.4503   17.3455 C   0  0  2  0  0  0  0  0  0  0  0  0
  -24.5626  -31.4023   24.8262 C   0  0  1  0  0  0  0  0  0  0  0  0
  -23.6256  -30.4155   21.2791 C   0  0  1  0  0  0  0  0  0  0  0  0
  -29.6872  -24.8261   18.6915 C   0  0  2  0  0  0  0  0  0  0  0  0
  -29.5144  -17.0654   21.2529 C   0  0  2  0  0  0  0  0  0  0  0  0
  -29.3703  -20.2596   14.6690 C   0  0  0  0  0  0  0  0  0  0  0  0
  -27.4126  -19.0120   16.4292 C   0  0  0  0  0  0  0  0  0  0  0  0
  -18.9142  -26.6666   16.4056 C   0  0  0  0  0  0  0  0  0  0  0  0
  -20.4366  -27.4387   22.8054 C   0  0  0  0  0  0  0  0  0  0  0  0
  -19.2075  -26.1709   21.0305 C   0  0  0  0  0  0  0  0  0  0  0  0
  -18.7029  -28.5837   21.4132 C   0  0  0  0  0  0  0  0  0  0  0  0
  -22.1878  -28.3932   15.5233 C   0  0  0  0  0  0  0  0  0  0  0  0
  -26.3163  -20.5369   18.6563 C   0  0  0  0  0  0  0  0  0  0  0  0
  -29.3649  -26.1450   19.3052 C   0  0  0  0  0  0  0  0  0  1  0  0
  -20.8832  -27.9330   20.3109 C   0  0  1  0  0  0  0  0  0  0  0  0
  -20.0817  -27.6173   16.6193 C   0  0  2  0  0  0  0  0  0  0  0  0
  -19.8358  -27.5345   21.3887 C   0  0  0  0  0  0  0  0  0  0  0  0
  -28.6288  -14.7640   21.2952 N   0  0  0  0  0  0  0  0  0  0  0  0
  -29.6190  -15.5895   20.9156 N   0  0  0  0  0  0  0  0  0  0  0  0
  -22.9449  -29.2175   20.7835 N   0  0  0  0  0  0  0  0  0  0  0  0
  -28.0047  -18.9877   21.5902 N   0  0  0  0  0  0  0  0  0  0  0  0
  -31.7052  -15.6469   19.7953 N   0  0  0  0  0  0  0  0  0  0  0  0
  -30.5373  -11.2887   19.6001 N   0  0  0  0  0  0  0  0  0  0  0  0
  -24.3365  -31.3447   23.3979 N   0  0  0  0  0  0  0  0  0  0  0  0
  -20.3367  -28.0577   18.9640 N   0  0  0  0  0  0  0  0  0  0  0  0
  -26.9168  -19.6026   19.5822 N   0  0  0  0  0  0  0  0  0  0  0  0
  -21.0054  -27.4963   15.4561 N   0  3  0  0  0  0  0  0  0  0  0  0
  -32.1563  -12.8098   19.0310 O   0  0  0  0  0  0  0  0  0  0  0  0
  -23.3840  -29.2219   23.3020 O   0  0  0  0  0  0  0  0  0  0  0  0
  -20.8672  -30.2724   20.7025 O   0  0  0  0  0  0  0  0  0  0  0  0
  -21.7233  -26.4809   17.9800 O   0  0  0  0  0  0  0  0  0  0  0  0
  -27.4357  -21.1925   21.1506 O   0  0  0  0  0  0  0  0  0  0  0  0
  -25.8924   -9.0274   21.6849 O   0  0  0  0  0  0  0  0  0  0  0  0
  -28.1798  -26.0285   20.0917 O   0  0  0  0  0  0  0  0  0  1  0  0
  -20.4814   -9.4413   20.7081 F   0  0  0  0  0  0  0  0  0  0  0  0
  -24.3349  -10.8402   23.0743 F   0  0  0  0  0  0  0  0  0  0  0  0
  1  2  1  0  0  0  0
  1  5  2  0  0  0  0
  2  6  2  0  0  0  0
  3  8  2  0  0  0  0
  3 17  1  0  0  0  0
  4  9  1  0  0  0  0
  4 17  2  0  0  0  0
  5 19  1  0  0  0  0
  6 21  1  0  0  0  0
  7 10  2  0  0  0  0
  7 20  1  0  0  0  0
  8 27  1  0  0  0  0
  9 27  2  0  0  0  0
 10 28  1  0  0  0  0
 11 12  2  0  0  0  0
 11 29  1  0  0  0  0
 12 30  1  0  0  0  0
 13 22  1  0  0  0  0
 13 24  2  0  0  0  0
 14 22  2  0  0  0  0
 14 25  1  0  0  0  0
 15 23  1  0  0  0  0
 15 28  2  0  0  0  0
 16 30  2  0  0  0  0
 16 31  1  0  0  0  0
 17 32  1  0  0  0  0
 18 32  1  0  0  0  0
 18 33  2  0  0  0  0
 18 34  1  0  0  0  0
 19 21  2  0  0  0  0
 19 39  1  0  0  0  0
 20 23  2  0  0  0  0
 20 40  1  0  0  0  0
 21 50  1  0  0  0  0
 22 49  1  0  0  0  0
 23 41  1  0  0  0  0
 24 26  1  0  0  0  0
 24 54  1  0  0  0  0
 25 26  2  0  0  0  0
 25 61  1  0  0  0  0
 26 55  1  0  0  0  0
 27 81  1  0  0  0  0
 28 82  1  0  0  0  0
 29 31  2  0  0  0  0
 29 81  1  0  0  0  0
 30 83  1  0  0  0  0
 31 84  1  0  0  0  0
 32 66  2  0  0  0  0
 33 67  1  0  0  0  0
 33 70  1  0  0  0  0
 34 71  1  0  0  0  0
 34 76  2  0  0  0  0
 35 51  1  0  0  0  0
 35 72  1  0  0  0  0
 35 77  2  0  0  0  0
 36 63  1  0  0  0  0
 36 68  1  0  0  0  0
 36 78  2  0  0  0  0
 37 64  1  0  0  0  0
 37 73  1  0  0  0  0
 37 79  2  0  0  0  0
 38 69  1  0  0  0  0
 38 74  1  0  0  0  0
 38 80  2  0  0  0  0
 39 42  1  0  0  0  0
 40 51  1  0  0  0  0
 41 68  1  0  0  0  0
 42 44  1  0  0  0  0
 43 45  1  0  0  0  0
 43 47  1  0  0  0  0
 44 50  1  0  0  0  0
 45 53  1  0  0  0  0
 46 49  1  0  0  0  0
 46 52  1  0  0  0  0
 47 69  1  0  0  0  0
 48 53  1  0  0  0  0
 48 69  1  0  0  0  0
 49 52  1  0  0  0  0
 50 72  1  0  0  0  0
 51 68  1  0  0  0  0
 52 62  1  0  0  0  0
 53 67  1  0  0  0  0
 56 64  1  0  0  0  0
 57 65  1  0  0  0  0
 58 65  1  0  0  0  0
 59 65  1  0  0  0  0
 60 75  1  0  0  0  0
 61 74  1  0  0  0  0
 62 82  1  0  0  0  0
 63 65  1  0  0  0  0
 63 73  1  0  0  0  0
 64 75  1  0  0  0  0
 66 67  1  0  0  0  0
M  CHG  1  75   1
M  ISO  4  38 100  62 101  74 100  82 101
M  END
> <Batch ID>
0157

> <Smiles>
CNC(C)C(=O)NC(C(=O)N1Cc2cc([101O:1][101CH2:1]C3CC3c3cc(C)c(C)c(C[100NH:0][100C:0](=O)N4CCCC(n5nc(-c6ccc(Oc7ccc(F)cc7F)cc6)c(C(N)=O)c5N)C4)c3)ccc2CC1C(=O)NC1CCCc2ccccc21)C(C)(C)C

> <Shape>
0.316

> <Color>
0.079

> <Negative vol penalty>
0.000

$$$$

  -OEChem-04052321593D

 88 97  0     1  0  0  0  0  0999 V2000
  -28.6581  -35.0325   24.7528 C   0  0  0  0  0  0  0  0  0  0  0  0
  -28.7512  -33.7013   24.3594 C   0  0  0  0  0  0  0  0  0  0  0  0
  -24.2322   -9.5796   22.1735 C   0  0  0  0  0  0  0  0  0  0  0  0
  -23.7940   -9.3958   19.8047 C   0  0  0  0  0  0  0  0  0  0  0  0
  -27.4175  -35.5745   25.0864 C   0  0  0  0  0  0  0  0  0  0  0  0
  -27.6038  -32.9110   24.3004 C   0  0  0  0  0  0  0  0  0  0  0  0
  -27.3827  -30.1193   20.0811 C   0  0  0  0  0  0  0  0  0  0  0  0
  -23.1997   -8.6788   22.4344 C   0  0  0  0  0  0  0  0  0  0  0  0
  -22.7615   -8.4950   20.0656 C   0  0  0  0  0  0  0  0  0  0  0  0
  -28.1688  -28.9687   20.0370 C   0  0  0  0  0  0  0  0  0  0  0  0
  -22.7260   -5.3327   22.3246 C   0  0  0  0  0  0  0  0  0  0  0  0
  -22.9707   -4.3158   23.2474 C   0  0  0  0  0  0  0  0  0  0  0  0
  -30.3700  -22.7776   21.9619 C   0  0  0  0  0  0  0  0  0  0  0  0
  -26.2343  -27.6336   20.5795 C   0  0  0  0  0  0  0  0  0  0  0  0
  -21.1611   -5.1308   24.6253 C   0  0  0  0  0  0  0  0  0  0  0  0
  -24.5294   -9.9382   20.8587 C   0  0  0  0  0  0  0  0  0  0  0  0
  -29.4025  -20.5531   21.7234 C   0  0  0  0  0  0  0  0  0  0  0  0
  -26.9513  -10.5660   20.3610 C   0  0  0  0  0  0  0  0  0  0  0  0
  -26.2531  -34.7931   25.0221 C   0  0  0  0  0  0  0  0  0  0  0  0
  -26.0165  -30.0367   20.3860 C   0  0  0  0  0  0  0  0  0  0  0  0
  -26.3467  -33.4427   24.6347 C   0  0  0  0  0  0  0  0  0  0  0  0
  -30.1535  -21.4877   22.4629 C   0  0  0  0  0  0  0  0  0  0  0  0
  -25.4325  -28.7844   20.6244 C   0  0  0  0  0  0  0  0  0  0  0  0
  -28.9100  -20.9308   20.4666 C   0  0  0  0  0  0  0  0  0  0  0  0
  -22.4643   -8.1365   21.3805 C   0  0  0  0  0  0  0  0  0  0  0  0
  -27.5952  -27.7259   20.2891 C   0  0  0  0  0  0  0  0  0  0  0  0
  -21.6990   -6.2488   22.5522 C   0  0  0  0  0  0  0  0  0  0  0  0
  -29.8676  -23.1372   20.7139 C   0  0  0  0  0  0  0  0  0  0  0  0
  -29.1421  -22.2140   19.9661 C   0  0  0  0  0  0  0  0  0  0  0  0
  -22.1882   -4.2148   24.3977 C   0  0  0  0  0  0  0  0  0  0  0  0
  -20.9165   -6.1478   23.7025 C   0  0  0  0  0  0  0  0  0  0  0  0
  -25.5955  -10.8690   20.5886 C   0  0  0  0  0  0  0  0  0  0  0  0
  -27.5461  -11.7869   20.1555 C   0  0  0  0  0  0  0  0  0  0  0  0
  -29.1768  -19.2118   22.3008 C   0  0  0  0  0  0  0  0  0  0  0  0
  -27.6138   -9.2947   20.3376 C   0  0  0  0  0  0  0  0  0  0  0  0
  -24.1643  -31.1662   22.7092 C   0  0  0  0  0  0  0  0  0  0  0  0
  -21.7875  -29.9110   20.8933 C   0  0  0  0  0  0  0  0  0  0  0  0
  -20.8404  -27.6445   18.5241 C   0  0  0  0  0  0  0  0  0  0  0  0
  -28.2580  -16.9865   21.8578 C   0  0  0  0  0  0  0  0  0  0  0  0
  -24.9411  -35.4100   25.4377 C   0  0  0  0  0  0  0  0  0  0  0  0
  -25.1767  -31.2844   20.4033 C   0  0  0  0  0  0  0  0  0  0  0  0
  -30.6709  -21.1008   23.8241 C   0  0  0  0  0  0  0  0  0  0  0  0
  -23.9662  -28.6396   20.9363 C   0  0  0  0  0  0  0  0  0  0  0  0
  -23.7219  -34.6087   24.9885 C   0  0  0  0  0  0  0  0  0  0  0  0
  -25.5555  -16.3533   19.4107 C   0  0  0  0  0  0  0  0  0  0  0  0
  -23.9152  -33.1266   25.2932 C   0  0  0  0  0  0  0  0  0  0  0  0
  -25.3991  -14.8418   19.5407 C   0  0  0  0  0  0  0  0  0  0  0  0
  -25.9654  -17.0057   20.7304 C   0  0  0  0  0  0  0  0  0  0  0  0
  -27.0357  -14.8886   21.4606 C   0  0  0  0  0  0  0  0  0  0  0  0
  -25.1215  -32.5602   24.5344 C   0  0  1  0  0  0  0  0  0  0  0  0
  -23.9030  -31.1360   21.2298 C   0  0  1  0  0  0  0  0  0  0  0  0
  -26.6733  -14.2171   20.1278 C   0  0  1  0  0  0  0  0  0  0  0  0
  -31.0348  -19.6169   23.8946 C   0  0  2  0  0  0  0  0  0  0  0  0
  -28.2007  -19.9816   19.5514 C   0  0  0  0  0  0  0  0  0  0  0  0
  -32.3286  -19.2725   23.1657 C   0  0  0  0  0  0  0  0  0  0  0  0
  -18.8241  -26.8301   17.2717 C   0  0  0  0  0  0  0  0  0  0  0  0
  -20.8582  -28.4007   23.3763 C   0  0  0  0  0  0  0  0  0  0  0  0
  -19.4933  -26.9258   21.8831 C   0  0  0  0  0  0  0  0  0  0  0  0
  -19.0135  -29.3712   21.9943 C   0  0  0  0  0  0  0  0  0  0  0  0
  -22.0096  -28.4069   15.9144 C   0  0  0  0  0  0  0  0  0  0  0  0
  -27.3671  -23.1461   18.6870 C   0  0  0  0  0  0  0  0  0  0  0  0
  -29.7372  -26.7392   20.5961 C   0  0  0  0  0  0  0  0  0  1  0  0
  -30.2281  -25.4373   21.1992 C   0  0  0  0  0  0  0  0  0  0  0  0
  -21.0993  -28.5699   20.8113 C   0  0  1  0  0  0  0  0  0  0  0  0
  -20.0020  -27.7920   17.2672 C   0  0  2  0  0  0  0  0  0  0  0  0
  -20.1441  -28.3195   22.0123 C   0  0  0  0  0  0  0  0  0  0  0  0
  -25.3436  -12.1796   20.5330 N   0  0  0  0  0  0  0  0  0  0  0  0
  -26.5493  -12.7109   20.2683 N   0  0  0  0  0  0  0  0  0  0  0  0
  -23.1883  -29.8895   20.9478 N   0  0  0  0  0  0  0  0  0  0  0  0
  -27.1347  -16.3462   21.3276 N   0  0  0  0  0  0  0  0  0  0  0  0
  -29.9431  -18.8078   23.3190 N   0  3  0  0  0  0  0  0  0  0  0  0
  -28.8194  -12.1493   19.8911 N   0  0  0  0  0  0  0  0  0  0  0  0
  -26.8530   -8.1405   20.5686 N   0  0  0  0  0  0  0  0  0  0  0  0
  -28.2208  -18.4266   21.8251 N   0  0  0  0  0  0  0  0  0  0  0  0
  -24.7804  -32.3226   23.1482 N   0  0  0  0  0  0  0  0  0  0  0  0
  -20.4450  -28.5258   19.5081 N   0  0  0  0  0  0  0  0  0  0  0  0
  -20.8286  -27.5172   16.0580 N   0  3  0  0  0  0  0  0  0  0  0  0
  -28.8469   -9.1868   20.1345 O   0  0  0  0  0  0  0  0  0  0  0  0
  -23.8302  -30.2118   23.4013 O   0  0  0  0  0  0  0  0  0  0  0  0
  -21.1074  -30.9402   20.9012 O   0  0  0  0  0  0  0  0  0  0  0  0
  -21.7523  -26.8266   18.6244 O   0  0  0  0  0  0  0  0  0  0  0  0
  -29.2316  -16.4301   22.3553 O   0  0  0  0  0  0  0  0  0  0  0  0
  -21.4569   -7.2573   21.6347 O   0  0  0  0  0  0  0  0  0  0  0  0
  -28.6708  -22.5733   18.7362 O   0  0  0  0  0  0  0  0  0  0  0  0
  -28.3604  -26.6013   20.2473 O   0  0  0  0  0  0  0  0  0  1  0  0
  -30.0974  -24.4000   20.2347 O   0  0  0  0  0  0  0  0  0  0  0  0
  -22.4222   -3.2372   25.2830 F   0  0  0  0  0  0  0  0  0  0  0  0
  -19.9277   -7.0241   23.9259 F   0  0  0  0  0  0  0  0  0  0  0  0
  1  2  1  0  0  0  0
  1  5  2  0  0  0  0
  2  6  2  0  0  0  0
  3  8  2  0  0  0  0
  3 16  1  0  0  0  0
  4  9  1  0  0  0  0
  4 16  2  0  0  0  0
  5 19  1  0  0  0  0
  6 21  1  0  0  0  0
  7 10  2  0  0  0  0
  7 20  1  0  0  0  0
  8 25  1  0  0  0  0
  9 25  2  0  0  0  0
 10 26  1  0  0  0  0
 11 12  2  0  0  0  0
 11 27  1  0  0  0  0
 12 30  1  0  0  0  0
 13 22  2  0  0  0  0
 13 28  1  0  0  0  0
 14 23  1  0  0  0  0
 14 26  2  0  0  0  0
 15 30  2  0  0  0  0
 15 31  1  0  0  0  0
 16 32  1  0  0  0  0
 17 22  1  0  0  0  0
 17 24  2  0  0  0  0
 17 34  1  0  0  0  0
 18 32  1  0  0  0  0
 18 33  2  0  0  0  0
 18 35  1  0  0  0  0
 19 21  2  0  0  0  0
 19 40  1  0  0  0  0
 20 23  2  0  0  0  0
 20 41  1  0  0  0  0
 21 50  1  0  0  0  0
 22 42  1  0  0  0  0
 23 43  1  0  0  0  0
 24 29  1  0  0  0  0
 24 54  1  0  0  0  0
 25 83  1  0  0  0  0
 26 85  1  0  0  0  0
 27 31  2  0  0  0  0
 27 83  1  0  0  0  0
 28 29  2  0  0  0  0
 28 86  1  0  0  0  0
 29 84  1  0  0  0  0
 30 87  1  0  0  0  0
 31 88  1  0  0  0  0
 32 67  2  0  0  0  0
 33 68  1  0  0  0  0
 33 72  1  0  0  0  0
 34 71  2  0  0  0  0
 34 74  1  0  0  0  0
 35 73  1  0  0  0  0
 35 78  2  0  0  0  0
 36 51  1  0  0  0  0
 36 75  1  0  0  0  0
 36 79  2  0  0  0  0
 37 64  1  0  0  0  0
 37 69  1  0  0  0  0
 37 80  2  0  0  0  0
 38 65  1  0  0  0  0
 38 76  1  0  0  0  0
 38 81  2  0  0  0  0
 39 70  1  0  0  0  0
 39 74  1  0  0  0  0
 39 82  2  0  0  0  0
 40 44  1  0  0  0  0
 41 51  1  0  0  0  0
 42 53  1  0  0  0  0
 43 69  1  0  0  0  0
 44 46  1  0  0  0  0
 45 47  1  0  0  0  0
 45 48  1  0  0  0  0
 46 50  1  0  0  0  0
 47 52  1  0  0  0  0
 48 70  1  0  0  0  0
 49 52  1  0  0  0  0
 49 70  1  0  0  0  0
 50 75  1  0  0  0  0
 51 69  1  0  0  0  0
 52 68  1  0  0  0  0
 53 55  1  0  0  0  0
 53 71  1  0  0  0  0
 56 65  1  0  0  0  0
 57 66  1  0  0  0  0
 58 66  1  0  0  0  0
 59 66  1  0  0  0  0
 60 77  1  0  0  0  0
 61 84  1  0  0  0  0
 62 63  1  0  0  0  0
 62 85  1  0  0  0  0
 63 86  1  0  0  0  0
 64 66  1  0  0  0  0
 64 76  1  0  0  0  0
 65 77  1  0  0  0  0
 67 68  1  0  0  0  0
M  CHG  2  71   1  77   1
M  ISO  4  39 100  62 101  74 100  85 101
M  END
> <Batch ID>
0157

> <Smiles>
CNC(C)C(=O)NC(C(=O)N1Cc2cc([101O:1][101CH2:1]COc3cc4c(c(C)c3OC)C(=[100N:0][100C:0](=O)N3CCCC(n5nc(-c6ccc(Oc7ccc(F)cc7F)cc6)c(C(N)=O)c5N)C3)NC(C)C4)ccc2CC1C(=O)NC1CCCc2ccccc21)C(C)(C)C

> <Shape>
0.347

> <Color>
0.125

> <Negative vol penalty>
0.000

$$$$

  -OEChem-04052321593D

 88 98  0     1  0  0  0  0  0999 V2000
  -16.6758  -29.6085   24.4587 C   0  0  0  0  0  0  0  0  0  0  0  0
  -17.4142  -28.4704   24.1506 C   0  0  0  0  0  0  0  0  0  0  0  0
  -27.4696  -17.3960   19.6714 C   0  0  0  0  0  0  0  0  0  0  0  0
  -27.7967  -17.2247   22.0590 C   0  0  0  0  0  0  0  0  0  0  0  0
  -16.9872  -30.8252   23.8532 C   0  0  0  0  0  0  0  0  0  0  0  0
  -18.4637  -28.5481   23.2358 C   0  0  0  0  0  0  0  0  0  0  0  0
  -22.6052  -26.1008   24.8182 C   0  0  0  0  0  0  0  0  0  0  0  0
  -27.2266  -18.7632   19.8027 C   0  0  0  0  0  0  0  0  0  0  0  0
  -27.5537  -18.5920   22.1903 C   0  0  0  0  0  0  0  0  0  0  0  0
  -22.6102  -24.7121   24.6950 C   0  0  0  0  0  0  0  0  0  0  0  0
  -29.0402  -21.5876   20.2101 C   0  0  0  0  0  0  0  0  0  0  0  0
  -29.6625  -22.4466   19.3043 C   0  0  0  0  0  0  0  0  0  0  0  0
  -22.9823  -20.1130   21.4871 C   0  0  0  0  0  0  0  0  0  0  0  0
  -23.9382  -24.9007   22.6900 C   0  0  0  0  0  0  0  0  0  0  0  0
  -24.4370  -18.5509   23.2833 C   0  0  0  0  0  0  0  0  0  0  0  0
  -27.5008  -23.2265   18.5588 C   0  0  0  0  0  0  0  0  0  0  0  0
  -27.7546  -16.6267   20.7996 C   0  0  0  0  0  0  0  0  0  0  0  0
  -29.2475  -14.5879   20.4497 C   0  0  0  0  0  0  0  0  0  0  0  0
  -18.0472  -30.9199   22.9378 C   0  0  0  0  0  0  0  0  0  0  0  0
  -23.2586  -26.9018   23.8706 C   0  0  0  0  0  0  0  0  0  0  0  0
  -18.7887  -29.7669   22.6164 C   0  0  0  0  0  0  0  0  0  0  0  0
  -22.8454  -18.7250   21.4740 C   0  0  0  0  0  0  0  0  0  0  0  0
  -23.9422  -26.2993   22.8049 C   0  0  0  0  0  0  0  0  0  0  0  0
  -23.8467  -20.7200   22.3983 C   0  0  0  0  0  0  0  0  0  0  0  0
  -24.5740  -19.9389   23.2963 C   0  0  0  0  0  0  0  0  0  0  0  0
  -27.2687  -19.3612   21.0621 C   0  0  0  0  0  0  0  0  0  0  0  0
  -23.2743  -24.1120   23.6292 C   0  0  0  0  0  0  0  0  0  0  0  0
  -27.6481  -21.5481   20.2903 C   0  0  0  0  0  0  0  0  0  0  0  0
  -23.5727  -17.9439   22.3721 C   0  0  0  0  0  0  0  0  0  0  0  0
  -28.8928  -23.2661   18.4787 C   0  0  0  0  0  0  0  0  0  0  0  0
  -26.8785  -22.3675   19.4646 C   0  0  0  0  0  0  0  0  0  0  0  0
  -28.0051  -15.2142   20.6646 C   0  0  0  0  0  0  0  0  0  0  0  0
  -28.9515  -13.2478   20.3950 C   0  0  0  0  0  0  0  0  0  0  0  0
  -30.5523  -15.1659   20.3119 C   0  0  0  0  0  0  0  0  0  0  0  0
  -22.3393  -29.1394   21.8086 C   0  0  0  0  0  0  0  0  0  0  0  0
  -25.5307  -29.4426   21.3134 C   0  0  0  0  0  0  0  0  0  0  0  0
  -28.3681  -28.2389   21.9539 C   0  0  0  0  0  0  0  0  0  0  0  0
  -23.5583  -13.5332   21.5314 C   0  0  0  0  0  0  0  0  0  0  0  0
  -18.3161  -32.2467   22.2731 C   0  0  0  0  0  0  0  0  0  0  0  0
  -23.2665  -28.3971   24.0325 C   0  0  0  0  0  0  0  0  0  0  0  0
  -24.6761  -27.1135   21.7720 C   0  0  0  0  0  0  0  0  0  0  0  0
  -19.6826  -32.3236   21.5972 C   0  0  0  0  0  0  0  0  0  0  0  0
  -25.1584  -12.1755   18.6395 C   0  0  0  0  0  0  0  0  0  0  0  0
  -22.4460  -12.6311   24.8629 C   0  0  0  0  0  0  0  0  0  0  0  0
  -20.4784  -18.5293   20.4576 C   0  0  0  0  0  0  0  0  0  0  0  0
  -20.8320  -17.1776   20.9943 C   0  0  0  0  0  0  0  0  0  0  0  0
  -19.9382  -31.0705   20.7658 C   0  0  0  0  0  0  0  0  0  0  0  0
  -26.3790  -11.4378   19.1784 C   0  0  0  0  0  0  0  0  0  0  0  0
  -22.5609  -14.1374   25.0500 C   0  0  0  0  0  0  0  0  0  0  0  0
  -23.9888  -12.0524   19.6037 C   0  0  0  0  0  0  0  0  0  0  0  0
  -23.4805  -12.3505   23.7840 C   0  0  0  0  0  0  0  0  0  0  0  0
  -25.5381  -11.9290   21.5455 C   0  0  0  0  0  0  0  0  0  0  0  0
  -21.9184  -18.0908   20.4913 C   0  0  0  0  0  0  0  0  0  0  0  0
  -19.9504  -29.8162   21.6478 C   0  0  1  0  0  0  0  0  0  0  0  0
  -23.5299  -29.1383   22.7253 C   0  0  1  0  0  0  0  0  0  0  0  0
  -26.7595  -11.8867   20.5983 C   0  0  2  0  0  0  0  0  0  0  0  0
  -22.7950  -14.6515   23.6269 C   0  0  1  0  0  0  0  0  0  0  0  0
  -25.5054  -20.5662   24.2808 C   0  0  0  0  0  0  0  0  0  0  0  0
  -29.7201  -30.1416   22.8755 C   0  0  0  0  0  0  0  0  0  0  0  0
  -24.9786  -29.0581   18.3372 C   0  0  0  0  0  0  0  0  0  0  0  0
  -27.4186  -28.5985   18.0152 C   0  0  0  0  0  0  0  0  0  0  0  0
  -26.6715  -30.8217   18.8649 C   0  0  0  0  0  0  0  0  0  0  0  0
  -30.8527  -27.2340   20.6986 C   0  0  0  0  0  0  0  0  0  0  0  0
  -23.9794  -22.2077   22.3912 C   0  0  0  0  0  0  0  0  0  1  0  0
  -23.6454  -15.9153   23.6111 C   0  0  0  0  0  0  0  0  0  0  0  0
  -26.5335  -28.8045   20.3827 C   0  0  1  0  0  0  0  0  0  0  0  0
  -29.7466  -28.7002   22.3914 C   0  0  2  0  0  0  0  0  0  0  0  0
  -26.3852  -29.3052   18.9182 C   0  0  0  0  0  0  0  0  0  0  0  0
  -26.9951  -14.3435   20.7411 N   0  0  0  0  0  0  0  0  0  0  0  0
  -27.6024  -13.1565   20.5732 N   0  0  0  0  0  0  0  0  0  0  0  0
  -24.6495  -28.5721   21.9702 N   0  0  0  0  0  0  0  0  0  0  0  0
  -24.3341  -12.5219   20.9457 N   0  0  0  0  0  0  0  0  0  0  0  0
  -23.4334  -13.5330   22.9226 N   0  0  0  0  0  0  0  0  0  0  0  0
  -29.7163  -12.1505   20.2123 N   0  0  0  0  0  0  0  0  0  0  0  0
  -30.6779  -16.5594   20.3939 N   0  0  0  0  0  0  0  0  0  0  0  0
  -21.2069  -29.7099   22.3579 N   0  0  0  0  0  0  0  0  0  0  0  0
  -27.8472  -29.0498   20.9679 N   0  0  0  0  0  0  0  0  0  0  0  0
  -30.7093  -28.6027   21.2579 N   0  3  0  0  0  0  0  0  0  0  0  0
  -31.5743  -14.4685   20.1054 O   0  0  0  0  0  0  0  0  0  0  0  0
  -22.4409  -28.6596   20.6856 O   0  0  0  0  0  0  0  0  0  0  0  0
  -25.5339  -30.6677   21.4578 O   0  0  0  0  0  0  0  0  0  0  0  0
  -27.8108  -27.2552   22.4359 O   0  0  0  0  0  0  0  0  0  0  0  0
  -22.9936  -14.3927   20.8418 O   0  0  0  0  0  0  0  0  0  0  0  0
  -27.0318  -20.6953   21.1906 O   0  0  0  0  0  0  0  0  0  0  0  0
  -23.2802  -22.7470   23.5054 O   0  0  0  0  0  0  0  0  0  1  0  0
  -23.4511  -16.5766   22.3734 O   0  0  0  0  0  0  0  0  0  0  0  0
  -29.4906  -24.0920   17.6099 F   0  0  0  0  0  0  0  0  0  0  0  0
  -25.5408  -22.3348   19.5379 F   0  0  0  0  0  0  0  0  0  0  0  0
  1  2  1  0  0  0  0
  1  5  2  0  0  0  0
  2  6  2  0  0  0  0
  3  8  2  0  0  0  0
  3 17  1  0  0  0  0
  4  9  1  0  0  0  0
  4 17  2  0  0  0  0
  5 19  1  0  0  0  0
  6 21  1  0  0  0  0
  7 10  2  0  0  0  0
  7 20  1  0  0  0  0
  8 26  1  0  0  0  0
  9 26  2  0  0  0  0
 10 27  1  0  0  0  0
 11 12  2  0  0  0  0
 11 28  1  0  0  0  0
 12 30  1  0  0  0  0
 13 22  2  0  0  0  0
 13 24  1  0  0  0  0
 14 23  1  0  0  0  0
 14 27  2  0  0  0  0
 15 25  1  0  0  0  0
 15 29  2  0  0  0  0
 16 30  2  0  0  0  0
 16 31  1  0  0  0  0
 17 32  1  0  0  0  0
 18 32  1  0  0  0  0
 18 33  2  0  0  0  0
 18 34  1  0  0  0  0
 19 21  2  0  0  0  0
 19 39  1  0  0  0  0
 20 23  2  0  0  0  0
 20 40  1  0  0  0  0
 21 54  1  0  0  0  0
 22 29  1  0  0  0  0
 22 53  1  0  0  0  0
 23 41  1  0  0  0  0
 24 25  2  0  0  0  0
 24 64  1  0  0  0  0
 25 58  1  0  0  0  0
 26 84  1  0  0  0  0
 27 85  1  0  0  0  0
 28 31  2  0  0  0  0
 28 84  1  0  0  0  0
 29 86  1  0  0  0  0
 30 87  1  0  0  0  0
 31 88  1  0  0  0  0
 32 69  2  0  0  0  0
 33 70  1  0  0  0  0
 33 74  1  0  0  0  0
 34 75  1  0  0  0  0
 34 79  2  0  0  0  0
 35 55  1  0  0  0  0
 35 76  1  0  0  0  0
 35 80  2  0  0  0  0
 36 66  1  0  0  0  0
 36 71  1  0  0  0  0
 36 81  2  0  0  0  0
 37 67  1  0  0  0  0
 37 77  1  0  0  0  0
 37 82  2  0  0  0  0
 38 72  1  0  0  0  0
 38 73  1  0  0  0  0
 38 83  2  0  0  0  0
 39 42  1  0  0  0  0
 40 55  1  0  0  0  0
 41 71  1  0  0  0  0
 42 47  1  0  0  0  0
 43 48  1  0  0  0  0
 43 50  1  0  0  0  0
 44 49  1  0  0  0  0
 44 51  1  0  0  0  0
 45 46  1  0  0  0  0
 45 53  1  0  0  0  0
 46 53  1  0  0  0  0
 47 54  1  0  0  0  0
 48 56  1  0  0  0  0
 49 57  1  0  0  0  0
 50 72  1  0  0  0  0
 51 73  1  0  0  0  0
 52 56  1  0  0  0  0
 52 72  1  0  0  0  0
 54 76  1  0  0  0  0
 55 71  1  0  0  0  0
 56 70  1  0  0  0  0
 57 65  1  0  0  0  0
 57 73  1  0  0  0  0
 59 67  1  0  0  0  0
 60 68  1  0  0  0  0
 61 68  1  0  0  0  0
 62 68  1  0  0  0  0
 63 78  1  0  0  0  0
 64 85  1  0  0  0  0
 65 86  1  0  0  0  0
 66 68  1  0  0  0  0
 66 77  1  0  0  0  0
 67 78  1  0  0  0  0
 69 70  1  0  0  0  0
M  CHG  1  78   1
M  ISO  4  38 100  64 101  73 100  85 101
M  END
> <Batch ID>
0157

> <Smiles>
CNC(C)C(=O)NC(C(=O)N1Cc2cc([101O:1][101CH2:1]c3cc(C4CC4)c(OCC4CCC[100N:0]4[100C:0](=O)N4CCCC(n5nc(-c6ccc(Oc7ccc(F)cc7F)cc6)c(C(N)=O)c5N)C4)cc3C)ccc2CC1C(=O)NC1CCCc2ccccc21)C(C)(C)C

> <Shape>
0.228

> <Color>
0.075

> <Negative vol penalty>
0.000

$$$$

  -OEChem-04052321593D

 91100  0     1  0  0  0  0  0999 V2000
  -25.2233  -37.9134   18.7942 C   0  0  0  0  0  0  0  0  0  0  0  0
  -25.8925  -36.7994   18.2973 C   0  0  0  0  0  0  0  0  0  0  0  0
  -24.0834  -11.5000   23.3434 C   0  0  0  0  0  0  0  0  0  0  0  0
  -23.1661  -10.4961   21.3465 C   0  0  0  0  0  0  0  0  0  0  0  0
  -24.7235  -37.9017   20.0957 C   0  0  0  0  0  0  0  0  0  0  0  0
  -26.0631  -35.6736   19.1022 C   0  0  0  0  0  0  0  0  0  0  0  0
  -26.4552  -28.5320   18.7015 C   0  0  0  0  0  0  0  0  0  0  0  0
  -23.3009  -10.6533   24.1285 C   0  0  0  0  0  0  0  0  0  0  0  0
  -22.3836   -9.6493   22.1315 C   0  0  0  0  0  0  0  0  0  0  0  0
  -27.2763  -27.4749   19.0913 C   0  0  0  0  0  0  0  0  0  0  0  0
  -20.4123   -6.9764   23.6106 C   0  0  0  0  0  0  0  0  0  0  0  0
  -20.3579   -5.6285   23.2560 C   0  0  0  0  0  0  0  0  0  0  0  0
  -26.3011  -27.5386   21.2968 C   0  0  0  0  0  0  0  0  0  0  0  0
  -22.7493   -5.4540   23.5522 C   0  0  0  0  0  0  0  0  0  0  0  0
  -24.0159  -11.4215   21.9524 C   0  0  0  0  0  0  0  0  0  0  0  0
  -26.1259  -12.0526   20.6649 C   0  0  0  0  0  0  0  0  0  0  0  0
  -24.8797  -36.7716   20.9136 C   0  0  0  0  0  0  0  0  0  0  0  0
  -25.5571  -29.1085   19.6111 C   0  0  0  0  0  0  0  0  0  0  0  0
  -25.5661  -35.6474   20.4163 C   0  0  0  0  0  0  0  0  0  0  0  0
  -25.4679  -28.6013   20.9153 C   0  0  0  0  0  0  0  0  0  0  0  0
  -29.5213  -22.0802   22.0717 C   0  0  0  0  0  0  0  0  0  0  0  0
  -28.6104  -23.1116   21.8432 C   0  0  0  0  0  0  0  0  0  0  0  0
  -30.6739  -22.3206   22.8197 C   0  0  0  0  0  0  0  0  0  0  0  0
  -30.0047  -24.6238   23.1106 C   0  0  0  0  0  0  0  0  0  0  0  0
  -28.8521  -24.3833   22.3626 C   0  0  0  0  0  0  0  0  0  0  0  0
  -30.9156  -23.5924   23.3391 C   0  0  0  0  0  0  0  0  0  0  0  0
  -22.4510   -9.7279   23.5226 C   0  0  0  0  0  0  0  0  0  0  0  0
  -27.2014  -26.9799   20.3899 C   0  0  0  0  0  0  0  0  0  0  0  0
  -21.6352   -7.5632   23.9358 C   0  0  0  0  0  0  0  0  0  0  0  0
  -21.5264   -4.8673   23.2269 C   0  0  0  0  0  0  0  0  0  0  0  0
  -22.8037   -6.8020   23.9067 C   0  0  0  0  0  0  0  0  0  0  0  0
  -24.8236  -12.2962   21.1409 C   0  0  0  0  0  0  0  0  0  0  0  0
  -26.4466  -13.1804   19.9496 C   0  0  0  0  0  0  0  0  0  0  0  0
  -26.9701  -10.9090   20.8526 C   0  0  0  0  0  0  0  0  0  0  0  0
  -25.1968  -32.0003   20.8806 C   0  0  0  0  0  0  0  0  0  0  0  0
  -22.5021  -30.6916   22.1249 C   0  0  0  0  0  0  0  0  0  0  0  0
  -20.8230  -27.8794   23.0836 C   0  0  0  0  0  0  0  0  0  0  0  0
  -26.5609  -18.6106   19.2274 C   0  0  0  0  0  0  0  0  0  0  0  0
  -24.3636  -36.8235   22.3298 C   0  0  0  0  0  0  0  0  0  0  0  0
  -24.6593  -30.2307   19.1673 C   0  0  0  0  0  0  0  0  0  0  0  0
  -24.5060  -29.1718   21.9241 C   0  0  0  0  0  0  0  0  0  0  0  0
  -24.2584  -35.4514   22.9905 C   0  0  0  0  0  0  0  0  0  0  0  0
  -23.5813  -17.0515   18.4277 C   0  0  0  0  0  0  0  0  0  0  0  0
  -25.5292  -34.6432   22.7479 C   0  0  0  0  0  0  0  0  0  0  0  0
  -23.7346  -15.6501   19.0183 C   0  0  0  0  0  0  0  0  0  0  0  0
  -27.9750  -20.0727   22.0875 C   0  0  0  0  0  0  0  0  0  0  0  0
  -29.2130  -20.6984   19.9697 C   0  0  0  0  0  0  0  0  0  0  0  0
  -24.1411  -18.1068   19.3745 C   0  0  0  0  0  0  0  0  0  0  0  0
  -27.6976  -18.6899   21.4907 C   0  0  0  0  0  0  0  0  0  0  0  0
  -28.9303  -19.2973   19.4353 C   0  0  0  0  0  0  0  0  0  0  0  0
  -25.7396  -16.4860   20.3419 C   0  0  0  0  0  0  0  0  0  0  0  0
  -29.2576  -20.6964   21.5085 C   0  0  0  0  0  0  0  0  0  0  0  0
  -25.7495  -34.3980   21.2503 C   0  0  1  0  0  0  0  0  0  0  0  0
  -24.1465  -31.0798   20.3264 C   0  0  1  0  0  0  0  0  0  0  0  0
  -25.1946  -15.3760   19.4202 C   0  0  1  0  0  0  0  0  0  0  0  0
  -27.3730  -22.8529   21.0425 C   0  0  0  0  0  0  0  0  0  0  0  0
  -30.2635  -25.9883   23.6676 C   0  0  0  0  0  0  0  0  0  0  0  0
  -33.4359  -23.6327   23.3243 C   0  0  0  0  0  0  0  0  0  0  0  0
  -32.1975  -23.0086   25.4295 C   0  0  0  0  0  0  0  0  0  0  0  0
  -18.6542  -27.1302   24.0998 C   0  0  0  0  0  0  0  0  0  0  0  0
  -23.4736  -31.6084   24.8682 C   0  0  0  0  0  0  0  0  0  0  0  0
  -21.8122  -30.0462   25.9014 C   0  0  0  0  0  0  0  0  0  0  0  0
  -21.0261  -31.9297   24.4672 C   0  0  0  0  0  0  0  0  0  0  0  0
  -20.1131  -26.2957   20.6864 C   0  0  0  0  0  0  0  0  0  0  0  0
  -33.0716  -19.6779   21.9963 C   0  0  0  0  0  0  0  0  0  0  0  0
  -31.6506  -21.2140   23.0658 C   0  0  0  0  0  0  0  0  0  0  0  0
  -27.8752  -25.4897   22.1166 C   0  0  0  0  0  0  0  0  0  1  0  0
  -32.1513  -23.8505   24.1426 C   0  0  0  0  0  0  0  0  0  0  0  0
  -22.1633  -29.9441   23.3920 C   0  0  1  0  0  0  0  0  0  0  0  0
  -19.4063  -27.4089   22.8077 C   0  0  2  0  0  0  0  0  0  0  0  0
  -22.1384  -30.8724   24.6390 C   0  0  0  0  0  0  0  0  0  0  0  0
  -24.3495  -13.4855   20.7602 N   0  0  0  0  0  0  0  0  0  0  0  0
  -25.3594  -13.9993   20.0375 N   0  0  0  0  0  0  0  0  0  0  0  0
  -23.6537  -30.2721   21.4440 N   0  0  0  0  0  0  0  0  0  0  0  0
  -25.5272  -17.8093   19.7352 N   0  0  0  0  0  0  0  0  0  0  0  0
  -27.7090  -18.7465   20.0223 N   0  0  0  0  0  0  0  0  0  0  0  0
  -27.5498  -13.5417   19.2605 N   0  0  0  0  0  0  0  0  0  0  0  0
  -26.4845   -9.8379   21.6150 N   0  0  0  0  0  0  0  0  0  0  0  0
  -24.8805  -33.3415   20.7779 N   0  0  0  0  0  0  0  0  0  0  0  0
  -20.9034  -29.2550   23.1348 N   0  0  0  0  0  0  0  0  0  0  0  0
  -19.4245  -26.1594   21.9957 N   0  3  0  0  0  0  0  0  0  0  0  0
  -28.1273  -10.8460   20.3725 O   0  0  0  0  0  0  0  0  0  0  0  0
  -26.2180  -31.5286   21.3669 O   0  0  0  0  0  0  0  0  0  0  0  0
  -21.7680  -31.6090   21.7492 O   0  0  0  0  0  0  0  0  0  0  0  0
  -21.7635  -27.1042   23.2418 O   0  0  0  0  0  0  0  0  0  0  0  0
  -26.4649  -19.1711   18.1284 O   0  0  0  0  0  0  0  0  0  0  0  0
  -21.6875   -8.9014   24.2884 O   0  0  0  0  0  0  0  0  0  0  0  0
  -28.0081  -25.9408   20.7760 O   0  0  0  0  0  0  0  0  0  1  0  0
  -32.1367  -20.7339   21.8202 O   0  0  0  0  0  0  0  0  0  0  0  0
  -21.4737   -3.5725   22.8880 F   0  0  0  0  0  0  0  0  0  0  0  0
  -23.9814   -7.3599   24.2194 F   0  0  0  0  0  0  0  0  0  0  0  0
  1  2  1  0  0  0  0
  1  5  2  0  0  0  0
  2  6  2  0  0  0  0
  3  8  2  0  0  0  0
  3 15  1  0  0  0  0
  4  9  1  0  0  0  0
  4 15  2  0  0  0  0
  5 17  1  0  0  0  0
  6 19  1  0  0  0  0
  7 10  2  0  0  0  0
  7 18  1  0  0  0  0
  8 27  1  0  0  0  0
  9 27  2  0  0  0  0
 10 28  1  0  0  0  0
 11 12  2  0  0  0  0
 11 29  1  0  0  0  0
 12 30  1  0  0  0  0
 13 20  1  0  0  0  0
 13 28  2  0  0  0  0
 14 30  2  0  0  0  0
 14 31  1  0  0  0  0
 15 32  1  0  0  0  0
 16 32  1  0  0  0  0
 16 33  2  0  0  0  0
 16 34  1  0  0  0  0
 17 19  2  0  0  0  0
 17 39  1  0  0  0  0
 18 20  2  0  0  0  0
 18 40  1  0  0  0  0
 19 53  1  0  0  0  0
 20 41  1  0  0  0  0
 21 22  1  0  0  0  0
 21 23  2  0  0  0  0
 21 52  1  0  0  0  0
 22 25  2  0  0  0  0
 22 56  1  0  0  0  0
 23 26  1  0  0  0  0
 23 66  1  0  0  0  0
 24 25  1  0  0  0  0
 24 26  2  0  0  0  0
 24 57  1  0  0  0  0
 25 67  1  0  0  0  0
 26 68  1  0  0  0  0
 27 87  1  0  0  0  0
 28 88  1  0  0  0  0
 29 31  2  0  0  0  0
 29 87  1  0  0  0  0
 30 90  1  0  0  0  0
 31 91  1  0  0  0  0
 32 72  2  0  0  0  0
 33 73  1  0  0  0  0
 33 77  1  0  0  0  0
 34 78  1  0  0  0  0
 34 82  2  0  0  0  0
 35 54  1  0  0  0  0
 35 79  1  0  0  0  0
 35 83  2  0  0  0  0
 36 69  1  0  0  0  0
 36 74  1  0  0  0  0
 36 84  2  0  0  0  0
 37 70  1  0  0  0  0
 37 80  1  0  0  0  0
 37 85  2  0  0  0  0
 38 75  1  0  0  0  0
 38 76  1  0  0  0  0
 38 86  2  0  0  0  0
 39 42  1  0  0  0  0
 40 54  1  0  0  0  0
 41 74  1  0  0  0  0
 42 44  1  0  0  0  0
 43 45  1  0  0  0  0
 43 48  1  0  0  0  0
 44 53  1  0  0  0  0
 45 55  1  0  0  0  0
 46 49  1  0  0  0  0
 46 52  1  0  0  0  0
 47 50  1  0  0  0  0
 47 52  1  0  0  0  0
 48 75  1  0  0  0  0
 49 76  1  0  0  0  0
 50 76  1  0  0  0  0
 51 55  1  0  0  0  0
 51 75  1  0  0  0  0
 53 79  1  0  0  0  0
 54 74  1  0  0  0  0
 55 73  1  0  0  0  0
 58 68  1  0  0  0  0
 59 68  1  0  0  0  0
 60 70  1  0  0  0  0
 61 71  1  0  0  0  0
 62 71  1  0  0  0  0
 63 71  1  0  0  0  0
 64 81  1  0  0  0  0
 65 89  1  0  0  0  0
 66 89  1  0  0  0  0
 67 88  1  0  0  0  0
 69 71  1  0  0  0  0
 69 80  1  0  0  0  0
 70 81  1  0  0  0  0
 72 73  1  0  0  0  0
M  CHG  1  81   1
M  ISO  4  38 100  67 101  76 100  88 101
M  END
> <Batch ID>
0157

> <Smiles>
CNC(C)C(=O)NC(C(=O)N1Cc2cc([101O:1][101CH2:1]c3c(C)c(C(C)C)c(COC)c(C4CC[100N:0]([100C:0](=O)N5CCCC(n6nc(-c7ccc(Oc8ccc(F)cc8F)cc7)c(C(N)=O)c6N)C5)CC4)c3C)ccc2CC1C(=O)NC1CCCc2ccccc21)C(C)(C)C

> <Shape>
0.268

> <Color>
0.066

> <Negative vol penalty>
0.000

$$$$

  -OEChem-04052321593D

 88 97  0     1  0  0  0  0  0999 V2000
  -29.3784  -36.3992   23.0131 C   0  0  0  0  0  0  0  0  0  0  0  0
  -29.5620  -35.0518   22.7196 C   0  0  0  0  0  0  0  0  0  0  0  0
  -27.4772   -7.3850   23.4970 C   0  0  0  0  0  0  0  0  0  0  0  0
  -26.4623   -6.7620   21.3949 C   0  0  0  0  0  0  0  0  0  0  0  0
  -28.1878  -36.8279   23.5985 C   0  0  0  0  0  0  0  0  0  0  0  0
  -28.5556  -34.1321   23.0123 C   0  0  0  0  0  0  0  0  0  0  0  0
  -27.0942  -29.1270   19.8000 C   0  0  0  0  0  0  0  0  0  0  0  0
  -26.5584   -6.5860   24.1774 C   0  0  0  0  0  0  0  0  0  0  0  0
  -25.5435   -5.9630   22.0753 C   0  0  0  0  0  0  0  0  0  0  0  0
  -27.4193  -27.7809   19.9613 C   0  0  0  0  0  0  0  0  0  0  0  0
  -22.6911   -6.3953   23.8382 C   0  0  0  0  0  0  0  0  0  0  0  0
  -21.3519   -6.4797   23.4574 C   0  0  0  0  0  0  0  0  0  0  0  0
  -29.3438  -23.2549   21.2325 C   0  0  0  0  0  0  0  0  0  0  0  0
  -25.3351  -27.4228   21.1220 C   0  0  0  0  0  0  0  0  0  0  0  0
  -27.5081  -21.4305   20.1911 C   0  0  0  0  0  0  0  0  0  0  0  0
  -21.3616   -4.1284   22.9022 C   0  0  0  0  0  0  0  0  0  0  0  0
  -27.4292   -7.4730   22.1057 C   0  0  0  0  0  0  0  0  0  0  0  0
  -29.5103  -21.8893   21.4631 C   0  0  0  0  0  0  0  0  0  0  0  0
  -29.6381   -7.9130   20.9079 C   0  0  0  0  0  0  0  0  0  0  0  0
  -27.1624  -35.9145   23.8897 C   0  0  0  0  0  0  0  0  0  0  0  0
  -25.8900  -29.6343   20.3089 C   0  0  0  0  0  0  0  0  0  0  0  0
  -27.3507  -34.5489   23.6034 C   0  0  0  0  0  0  0  0  0  0  0  0
  -24.9959  -28.7752   20.9636 C   0  0  0  0  0  0  0  0  0  0  0  0
  -28.2595  -23.7082   20.4812 C   0  0  0  0  0  0  0  0  0  0  0  0
  -27.3417  -22.7960   19.9605 C   0  0  0  0  0  0  0  0  0  0  0  0
  -25.5915   -5.8750   23.4666 C   0  0  0  0  0  0  0  0  0  0  0  0
  -26.5411  -26.9292   20.6249 C   0  0  0  0  0  0  0  0  0  0  0  0
  -23.3656   -5.1774   23.7510 C   0  0  0  0  0  0  0  0  0  0  0  0
  -28.5925  -20.9771   20.9424 C   0  0  0  0  0  0  0  0  0  0  0  0
  -20.6871   -5.3463   22.9894 C   0  0  0  0  0  0  0  0  0  0  0  0
  -22.7008   -4.0440   23.2830 C   0  0  0  0  0  0  0  0  0  0  0  0
  -28.3777   -8.2986   21.4024 C   0  0  0  0  0  0  0  0  0  0  0  0
  -30.1418   -9.0509   20.3266 C   0  0  0  0  0  0  0  0  0  0  0  0
  -30.6481  -21.4374   22.2518 C   0  0  0  0  0  0  0  0  0  0  0  0
  -30.2948   -6.6399   20.9686 C   0  0  0  0  0  0  0  0  0  0  0  0
  -25.1179  -31.8303   22.4734 C   0  0  0  0  0  0  0  0  0  0  0  0
  -22.1038  -31.2334   21.4336 C   0  0  0  0  0  0  0  0  0  0  0  0
  -19.9299  -29.0676   19.9401 C   0  0  0  0  0  0  0  0  0  0  0  0
  -29.3621  -14.7039   21.2343 C   0  0  0  0  0  0  0  0  0  0  0  0
  -25.9119  -36.4182   24.5659 C   0  0  0  0  0  0  0  0  0  0  0  0
  -25.5419  -31.0831   20.1032 C   0  0  0  0  0  0  0  0  0  0  0  0
  -23.6813  -29.2660   21.5107 C   0  0  0  0  0  0  0  0  0  0  0  0
  -24.7460  -35.4350   24.5007 C   0  0  0  0  0  0  0  0  0  0  0  0
  -28.7661  -13.0899   18.1746 C   0  0  0  0  0  0  0  0  0  0  0  0
  -25.2116  -34.0297   24.8684 C   0  0  0  0  0  0  0  0  0  0  0  0
  -28.7209  -11.6249   18.6081 C   0  0  0  0  0  0  0  0  0  0  0  0
  -30.2341  -18.0999   20.0285 C   0  0  0  0  0  0  0  0  0  0  0  0
  -27.7211  -17.8096   19.9283 C   0  0  0  0  0  0  0  0  0  0  0  0
  -28.0601  -14.0058   19.1758 C   0  0  0  0  0  0  0  0  0  0  0  0
  -30.2974  -16.9801   21.0660 C   0  0  0  0  0  0  0  0  0  0  0  0
  -27.8414  -16.6997   20.9702 C   0  0  0  0  0  0  0  0  0  0  0  0
  -28.4966  -12.3946   21.0007 C   0  0  0  0  0  0  0  0  0  0  0  0
  -26.2725  -33.5245   23.8832 C   0  0  1  0  0  0  0  0  0  0  0  0
  -24.5226  -31.6018   21.1129 C   0  0  1  0  0  0  0  0  0  0  0  0
  -29.2491  -11.4569   20.0439 C   0  0  1  0  0  0  0  0  0  0  0  0
  -28.8784  -18.8068   20.0055 C   0  0  0  0  0  0  0  0  0  0  0  0
  -26.1723  -23.2583   19.1549 C   0  0  0  0  0  0  0  0  0  0  0  0
  -17.5237  -28.8456   19.2630 C   0  0  0  0  0  0  0  0  0  0  0  0
  -21.3342  -30.7291   24.3428 C   0  0  0  0  0  0  0  0  0  0  0  0
  -19.2470  -29.6144   23.5246 C   0  0  0  0  0  0  0  0  0  0  0  0
  -19.6481  -32.0257   23.0274 C   0  0  0  0  0  0  0  0  0  0  0  0
  -20.6403  -28.7801   17.0815 C   0  0  0  0  0  0  0  0  0  0  0  0
  -28.1019  -25.1750   20.2474 C   0  0  0  0  0  0  0  0  0  1  0  0
  -21.0099  -30.2687   21.8231 C   0  0  1  0  0  0  0  0  0  0  0  0
  -18.9186  -29.2643   18.8252 C   0  0  2  0  0  0  0  0  0  0  0  0
  -20.3354  -30.6503   23.1710 C   0  0  0  0  0  0  0  0  0  0  0  0
  -28.0980   -9.5814   21.1567 N   0  0  0  0  0  0  0  0  0  0  0  0
  -29.1897  -10.0116   20.5017 N   0  0  0  0  0  0  0  0  0  0  0  0
  -23.3891  -30.6919   21.2900 N   0  0  0  0  0  0  0  0  0  0  0  0
  -28.5693  -13.7812   20.5353 N   0  0  0  0  0  0  0  0  0  0  0  0
  -29.1651  -16.0633   20.9379 N   0  0  0  0  0  0  0  0  0  0  0  0
  -31.3018   -9.3134   19.6879 N   0  0  0  0  0  0  0  0  0  0  0  0
  -30.4772  -21.3281   23.6279 N   0  0  0  0  0  0  0  0  0  0  0  0
  -29.6358   -5.5777   21.6024 N   0  0  0  0  0  0  0  0  0  0  0  0
  -25.6515  -33.0927   22.6493 N   0  0  0  0  0  0  0  0  0  0  0  0
  -20.0922  -30.2131   20.6903 N   0  0  0  0  0  0  0  0  0  0  0  0
  -19.2991  -28.4561   17.6323 N   0  3  0  0  0  0  0  0  0  0  0  0
  -31.7396  -21.1741   21.7196 O   0  0  0  0  0  0  0  0  0  0  0  0
  -31.4393   -6.4542   20.4898 O   0  0  0  0  0  0  0  0  0  0  0  0
  -25.0934  -30.9285   23.3028 O   0  0  0  0  0  0  0  0  0  0  0  0
  -21.8267  -32.4222   21.2561 O   0  0  0  0  0  0  0  0  0  0  0  0
  -20.5144  -28.0031   20.1292 O   0  0  0  0  0  0  0  0  0  0  0  0
  -30.1981  -14.3381   22.0700 O   0  0  0  0  0  0  0  0  0  0  0  0
  -24.6949   -5.0951   24.1302 O   0  0  0  0  0  0  0  0  0  0  0  0
  -28.7372  -19.6322   21.1597 O   0  0  0  0  0  0  0  0  0  0  0  0
  -26.8585  -25.6056   20.7853 O   0  0  0  0  0  0  0  0  0  1  0  0
  -19.4007   -5.4271   22.6252 F   0  0  0  0  0  0  0  0  0  0  0  0
  -23.3432   -2.8710   23.1981 F   0  0  0  0  0  0  0  0  0  0  0  0
  1  2  1  0  0  0  0
  1  5  2  0  0  0  0
  2  6  2  0  0  0  0
  3  8  2  0  0  0  0
  3 17  1  0  0  0  0
  4  9  1  0  0  0  0
  4 17  2  0  0  0  0
  5 20  1  0  0  0  0
  6 22  1  0  0  0  0
  7 10  2  0  0  0  0
  7 21  1  0  0  0  0
  8 26  1  0  0  0  0
  9 26  2  0  0  0  0
 10 27  1  0  0  0  0
 11 12  2  0  0  0  0
 11 28  1  0  0  0  0
 12 30  1  0  0  0  0
 13 18  2  0  0  0  0
 13 24  1  0  0  0  0
 14 23  1  0  0  0  0
 14 27  2  0  0  0  0
 15 25  1  0  0  0  0
 15 29  2  0  0  0  0
 16 30  2  0  0  0  0
 16 31  1  0  0  0  0
 17 32  1  0  0  0  0
 18 29  1  0  0  0  0
 18 34  1  0  0  0  0
 19 32  1  0  0  0  0
 19 33  2  0  0  0  0
 19 35  1  0  0  0  0
 20 22  2  0  0  0  0
 20 40  1  0  0  0  0
 21 23  2  0  0  0  0
 21 41  1  0  0  0  0
 22 53  1  0  0  0  0
 23 42  1  0  0  0  0
 24 25  2  0  0  0  0
 24 63  1  0  0  0  0
 25 57  1  0  0  0  0
 26 84  1  0  0  0  0
 27 86  1  0  0  0  0
 28 31  2  0  0  0  0
 28 84  1  0  0  0  0
 29 85  1  0  0  0  0
 30 87  1  0  0  0  0
 31 88  1  0  0  0  0
 32 67  2  0  0  0  0
 33 68  1  0  0  0  0
 33 72  1  0  0  0  0
 34 73  1  0  0  0  0
 34 78  2  0  0  0  0
 35 74  1  0  0  0  0
 35 79  2  0  0  0  0
 36 54  1  0  0  0  0
 36 75  1  0  0  0  0
 36 80  2  0  0  0  0
 37 64  1  0  0  0  0
 37 69  1  0  0  0  0
 37 81  2  0  0  0  0
 38 65  1  0  0  0  0
 38 76  1  0  0  0  0
 38 82  2  0  0  0  0
 39 70  1  0  0  0  0
 39 71  1  0  0  0  0
 39 83  2  0  0  0  0
 40 43  1  0  0  0  0
 41 54  1  0  0  0  0
 42 69  1  0  0  0  0
 43 45  1  0  0  0  0
 44 46  1  0  0  0  0
 44 49  1  0  0  0  0
 45 53  1  0  0  0  0
 46 55  1  0  0  0  0
 47 50  1  0  0  0  0
 47 56  1  0  0  0  0
 48 51  1  0  0  0  0
 48 56  1  0  0  0  0
 49 70  1  0  0  0  0
 50 71  1  0  0  0  0
 51 71  1  0  0  0  0
 52 55  1  0  0  0  0
 52 70  1  0  0  0  0
 53 75  1  0  0  0  0
 54 69  1  0  0  0  0
 55 68  1  0  0  0  0
 56 85  1  0  0  0  0
 58 65  1  0  0  0  0
 59 66  1  0  0  0  0
 60 66  1  0  0  0  0
 61 66  1  0  0  0  0
 62 77  1  0  0  0  0
 63 86  1  0  0  0  0
 64 66  1  0  0  0  0
 64 76  1  0  0  0  0
 65 77  1  0  0  0  0
 67 68  1  0  0  0  0
M  CHG  1  77   1
M  ISO  4  39 100  63 101  71 100  86 101
M  END
> <Batch ID>
0157

> <Smiles>
CNC(C)C(=O)NC(C(=O)N1Cc2cc([101O:1][101CH2:1]c3cc(C(N)=O)c(OC4CC[100N:0]([100C:0](=O)N5CCCC(n6nc(-c7ccc(Oc8ccc(F)cc8F)cc7)c(C(N)=O)c6N)C5)CC4)cc3C)ccc2CC1C(=O)NC1CCCc2ccccc21)C(C)(C)C

> <Shape>
0.271

> <Color>
0.069

> <Negative vol penalty>
0.000

$$$$

  -OEChem-04052321593D

 90 99  0     1  0  0  0  0  0999 V2000
  -31.4333  -28.6988   14.5922 C   0  0  0  0  0  0  0  0  0  0  0  0
  -31.2738  -28.0304   15.8018 C   0  0  0  0  0  0  0  0  0  0  0  0
  -23.1634   -9.8604   21.1994 C   0  0  0  0  0  0  0  0  0  0  0  0
  -23.9109  -10.6091   23.3714 C   0  0  0  0  0  0  0  0  0  0  0  0
  -30.8896  -29.9715   14.4233 C   0  0  0  0  0  0  0  0  0  0  0  0
  -30.5713  -28.6349   16.8437 C   0  0  0  0  0  0  0  0  0  0  0  0
  -27.3231  -25.4665   19.0920 C   0  0  0  0  0  0  0  0  0  0  0  0
  -22.4629   -8.8149   21.8008 C   0  0  0  0  0  0  0  0  0  0  0  0
  -23.2103   -9.5635   23.9729 C   0  0  0  0  0  0  0  0  0  0  0  0
  -27.8535  -24.5450   19.9938 C   0  0  0  0  0  0  0  0  0  0  0  0
  -20.7708   -5.7356   22.7379 C   0  0  0  0  0  0  0  0  0  0  0  0
  -20.8782   -4.4677   22.1665 C   0  0  0  0  0  0  0  0  0  0  0  0
  -27.1717  -25.9563   21.8276 C   0  0  0  0  0  0  0  0  0  0  0  0
  -23.2659   -4.5047   22.5330 C   0  0  0  0  0  0  0  0  0  0  0  0
  -23.8874  -10.7575   21.9847 C   0  0  0  0  0  0  0  0  0  0  0  0
  -24.1331  -13.1312   21.0830 C   0  0  0  0  0  0  0  0  0  0  0  0
  -30.1719  -30.5879   15.4603 C   0  0  0  0  0  0  0  0  0  0  0  0
  -26.7217  -26.6470   19.5516 C   0  0  0  0  0  0  0  0  0  0  0  0
  -30.0187  -29.9176   16.6890 C   0  0  0  0  0  0  0  0  0  0  0  0
  -26.6321  -26.8899   20.9296 C   0  0  0  0  0  0  0  0  0  0  0  0
  -27.6739  -19.7528   21.4675 C   0  0  0  0  0  0  0  0  0  0  0  0
  -28.5105  -18.7902   20.8772 C   0  0  0  0  0  0  0  0  0  0  0  0
  -30.1291  -19.1083   22.6206 C   0  0  0  0  0  0  0  0  0  0  0  0
  -29.7331  -18.4675   21.4547 C   0  0  0  0  0  0  0  0  0  0  0  0
  -29.3070  -20.0787   23.2020 C   0  0  0  0  0  0  0  0  0  0  0  0
  -28.0655  -20.4388   22.6392 C   0  0  0  0  0  0  0  0  0  0  0  0
  -22.4863   -8.6664   23.1875 C   0  0  0  0  0  0  0  0  0  0  0  0
  -27.7804  -24.7912   21.3617 C   0  0  0  0  0  0  0  0  0  0  0  0
  -21.9110   -6.3881   23.2069 C   0  0  0  0  0  0  0  0  0  0  0  0
  -22.1257   -3.8523   22.0640 C   0  0  0  0  0  0  0  0  0  0  0  0
  -23.1586   -5.7726   23.1044 C   0  0  0  0  0  0  0  0  0  0  0  0
  -24.6117  -11.8374   21.3640 C   0  0  0  0  0  0  0  0  0  0  0  0
  -25.1976  -13.7713   20.4970 C   0  0  0  0  0  0  0  0  0  0  0  0
  -22.8417  -13.7032   21.3298 C   0  0  0  0  0  0  0  0  0  0  0  0
  -27.3163  -29.7500   19.2034 C   0  0  0  0  0  0  0  0  0  0  0  0
  -24.5098  -30.0690   20.7984 C   0  0  0  0  0  0  0  0  0  0  0  0
  -22.2242  -28.7138   22.9400 C   0  0  0  0  0  0  0  0  0  0  0  0
  -30.6374  -15.0055   20.3203 C   0  0  0  0  0  0  0  0  0  0  0  0
  -29.6431  -31.9842   15.2471 C   0  0  0  0  0  0  0  0  0  0  0  0
  -26.1305  -27.6182   18.5669 C   0  0  0  0  0  0  0  0  0  0  0  0
  -26.3656  -20.0841   20.8028 C   0  0  0  0  0  0  0  0  0  0  0  0
  -25.9786  -28.1324   21.4750 C   0  0  0  0  0  0  0  0  0  0  0  0
  -28.5915  -32.4005   16.2724 C   0  0  0  0  0  0  0  0  0  0  0  0
  -25.3608  -20.5007   21.8618 C   0  0  0  0  0  0  0  0  0  0  0  0
  -29.6039  -11.9556   18.8014 C   0  0  0  0  0  0  0  0  0  0  0  0
  -29.0506  -32.0439   17.6827 C   0  0  0  0  0  0  0  0  0  0  0  0
  -28.1765  -11.7569   19.3144 C   0  0  0  0  0  0  0  0  0  0  0  0
  -30.5058  -12.5736   19.8676 C   0  0  0  0  0  0  0  0  0  0  0  0
  -28.5705  -13.6270   20.9715 C   0  0  0  0  0  0  0  0  0  0  0  0
  -29.2420  -30.5300   17.8344 C   0  0  1  0  0  0  0  0  0  0  0  0
  -25.9991  -29.0312   19.1268 C   0  0  1  0  0  0  0  0  0  0  0  0
  -27.6097  -13.0580   19.9135 C   0  0  2  0  0  0  0  0  0  0  0  0
  -25.8936  -21.6828   22.6829 C   0  0  1  0  0  0  0  0  0  0  0  0
  -28.0979  -18.0850   19.6210 C   0  0  0  0  0  0  0  0  0  0  0  0
  -29.8512  -20.6670   24.4705 C   0  0  0  0  0  0  0  0  0  0  0  0
  -24.9015  -21.9516   23.8217 C   0  0  0  0  0  0  0  0  0  0  0  0
  -31.3690  -17.4226   24.0012 C   0  0  0  0  0  0  0  0  0  0  0  0
  -31.0408  -17.8082   19.4012 C   0  0  0  0  0  0  0  0  0  0  0  0
  -20.0518  -29.2280   24.0860 C   0  0  0  0  0  0  0  0  0  0  0  0
  -25.9805  -31.8726   22.7718 C   0  0  0  0  0  0  0  0  0  0  0  0
  -24.0678  -31.5771   24.3601 C   0  0  0  0  0  0  0  0  0  0  0  0
  -23.6913  -32.6605   22.1448 C   0  0  0  0  0  0  0  0  0  0  0  0
  -20.8539  -26.4529   21.6098 C   0  0  0  0  0  0  0  0  0  0  0  0
  -31.4408  -18.7446   23.2469 C   0  0  0  0  0  0  0  0  0  0  0  0
  -27.8634  -22.4121   24.0898 C   0  0  0  0  0  0  0  0  0  0  0  0
  -27.6763  -23.8107   23.5259 C   0  0  0  0  0  0  0  0  0  1  0  0
  -30.6148  -17.4349   20.8266 C   0  0  2  0  0  0  0  0  0  0  0  0
  -24.1111  -30.1696   22.2510 C   0  0  1  0  0  0  0  0  0  0  0  0
  -20.7118  -28.6082   22.8641 C   0  0  2  0  0  0  0  0  0  0  0  0
  -24.4768  -31.5473   22.8719 C   0  0  0  0  0  0  0  0  0  0  0  0
  -25.8814  -11.6643   20.9873 N   0  0  0  0  0  0  0  0  0  0  0  0
  -26.2097  -12.8576   20.4635 N   0  0  0  0  0  0  0  0  0  0  0  0
  -27.2486  -21.4227   23.2074 N   0  0  2  0  0  0  0  0  0  0  0  0
  -25.4210  -29.0546   20.4719 N   0  0  0  0  0  0  0  0  0  0  0  0
  -29.9119  -13.8050   20.3937 N   0  0  0  0  0  0  0  0  0  0  0  0
  -25.3574  -15.0210   20.0121 N   0  0  0  0  0  0  0  0  0  0  0  0
  -21.8636  -12.9063   21.9402 N   0  0  0  0  0  0  0  0  0  0  0  0
  -27.9624  -29.8717   17.9879 N   0  0  0  0  0  0  0  0  0  0  0  0
  -22.6894  -29.8472   22.3073 N   0  0  0  0  0  0  0  0  0  0  0  0
  -29.9989  -16.1267   20.8360 N   0  0  0  0  0  0  0  0  0  0  0  0
  -20.2959  -27.1796   22.7793 N   0  3  0  0  0  0  0  0  0  0  0  0
  -22.5583  -14.8807   21.0033 O   0  0  0  0  0  0  0  0  0  0  0  0
  -27.7162  -30.1649   20.2849 O   0  0  0  0  0  0  0  0  0  0  0  0
  -24.0250  -30.8568   19.9824 O   0  0  0  0  0  0  0  0  0  0  0  0
  -22.9228  -27.8767   23.5072 O   0  0  0  0  0  0  0  0  0  0  0  0
  -31.7681  -15.0741   19.8266 O   0  0  0  0  0  0  0  0  0  0  0  0
  -21.8027   -7.6464   23.7747 O   0  0  0  0  0  0  0  0  0  0  0  0
  -28.2979  -23.8937   22.2441 O   0  0  0  0  0  0  0  0  0  1  0  0
  -22.2284   -2.6341   21.5166 F   0  0  0  0  0  0  0  0  0  0  0  0
  -24.2574   -6.3940   23.5543 F   0  0  0  0  0  0  0  0  0  0  0  0
  1  2  1  0  0  0  0
  1  5  2  0  0  0  0
  2  6  2  0  0  0  0
  3  8  2  0  0  0  0
  3 15  1  0  0  0  0
  4  9  1  0  0  0  0
  4 15  2  0  0  0  0
  5 17  1  0  0  0  0
  6 19  1  0  0  0  0
  7 10  2  0  0  0  0
  7 18  1  0  0  0  0
  8 27  1  0  0  0  0
  9 27  2  0  0  0  0
 10 28  1  0  0  0  0
 11 12  2  0  0  0  0
 11 29  1  0  0  0  0
 12 30  1  0  0  0  0
 13 20  1  0  0  0  0
 13 28  2  0  0  0  0
 14 30  2  0  0  0  0
 14 31  1  0  0  0  0
 15 32  1  0  0  0  0
 16 32  1  0  0  0  0
 16 33  2  0  0  0  0
 16 34  1  0  0  0  0
 17 19  2  0  0  0  0
 17 39  1  0  0  0  0
 18 20  2  0  0  0  0
 18 40  1  0  0  0  0
 19 50  1  0  0  0  0
 20 42  1  0  0  0  0
 21 22  2  0  0  0  0
 21 26  1  0  0  0  0
 21 41  1  0  0  0  0
 22 24  1  0  0  0  0
 22 54  1  0  0  0  0
 23 24  2  0  0  0  0
 23 25  1  0  0  0  0
 23 64  1  0  0  0  0
 24 67  1  0  0  0  0
 25 26  2  0  0  0  0
 25 55  1  0  0  0  0
 26 73  1  0  0  0  0
 27 87  1  0  0  0  0
 28 88  1  0  0  0  0
 29 31  2  0  0  0  0
 29 87  1  0  0  0  0
 30 89  1  0  0  0  0
 31 90  1  0  0  0  0
 32 71  2  0  0  0  0
 33 72  1  0  0  0  0
 33 76  1  0  0  0  0
 34 77  1  0  0  0  0
 34 82  2  0  0  0  0
 35 51  1  0  0  0  0
 35 78  1  0  0  0  0
 35 83  2  0  0  0  0
 36 68  1  0  0  0  0
 36 74  1  0  0  0  0
 36 84  2  0  0  0  0
 37 69  1  0  0  0  0
 37 79  1  0  0  0  0
 37 85  2  0  0  0  0
 38 75  1  0  0  0  0
 38 80  1  0  0  0  0
 38 86  2  0  0  0  0
 39 43  1  0  0  0  0
 40 51  1  0  0  0  0
 41 44  1  0  0  0  0
 42 74  1  0  0  0  0
 43 46  1  0  0  0  0
 44 53  1  0  0  0  0
 45 47  1  0  0  0  0
 45 48  1  0  0  0  0
 46 50  1  0  0  0  0
 47 52  1  0  0  0  0
 48 75  1  0  0  0  0
 49 52  1  0  0  0  0
 49 75  1  0  0  0  0
 50 78  1  0  0  0  0
 51 74  1  0  0  0  0
 52 72  1  0  0  0  0
 53 56  1  0  0  0  0
 53 73  1  0  0  0  0
 57 64  1  0  0  0  0
 58 67  1  0  0  0  0
 59 69  1  0  0  0  0
 60 70  1  0  0  0  0
 61 70  1  0  0  0  0
 62 70  1  0  0  0  0
 63 81  1  0  0  0  0
 65 66  1  0  0  0  0
 65 73  1  0  0  0  0
 66 88  1  0  0  0  0
 67 80  1  0  0  0  0
 68 70  1  0  0  0  0
 68 79  1  0  0  0  0
 69 81  1  0  0  0  0
 71 72  1  0  0  0  0
M  CHG  1  81   1
M  ISO  4  38 100  66 101  80 100  88 101
M  END
> <Batch ID>
0157

> <Smiles>
CCc1c(C)c2c(c(C)c1C(C)[100NH:0][100C:0](=O)N1CCCC(n3nc(-c4ccc(Oc5ccc(F)cc5F)cc4)c(C(N)=O)c3N)C1)CCC(C)N2C[101CH2:1][101O:1]c1ccc2c(c1)CN(C(=O)C(NC(=O)C(C)NC)C(C)(C)C)C(C(=O)NC1CCCc3ccccc31)C2

> <Shape>
0.310

> <Color>
0.183

> <Negative vol penalty>
0.000

$$$$

  -OEChem-04052321593D

 88 97  0     1  0  0  0  0  0999 V2000
  -19.1647  -22.9933   24.3243 C   0  0  0  0  0  0  0  0  0  0  0  0
  -20.4473  -22.4979   24.1129 C   0  0  0  0  0  0  0  0  0  0  0  0
  -26.9574  -12.7569   21.0234 C   0  0  0  0  0  0  0  0  0  0  0  0
  -26.9126  -13.1751   18.6443 C   0  0  0  0  0  0  0  0  0  0  0  0
  -18.7380  -24.1332   23.6441 C   0  0  0  0  0  0  0  0  0  0  0  0
  -21.3038  -23.1415   23.2204 C   0  0  0  0  0  0  0  0  0  0  0  0
  -28.2477  -24.5699   22.1918 C   0  0  0  0  0  0  0  0  0  0  0  0
  -26.3840  -11.5028   20.8138 C   0  0  0  0  0  0  0  0  0  0  0  0
  -26.3392  -11.9210   18.4347 C   0  0  0  0  0  0  0  0  0  0  0  0
  -29.2382  -24.4549   21.2173 C   0  0  0  0  0  0  0  0  0  0  0  0
  -23.3093  -10.2419   20.1966 C   0  0  0  0  0  0  0  0  0  0  0  0
  -22.2625   -9.8603   21.0357 C   0  0  0  0  0  0  0  0  0  0  0  0
  -28.4205  -26.4620   20.1580 C   0  0  0  0  0  0  0  0  0  0  0  0
  -29.8197  -20.8539   16.8039 C   0  0  0  0  0  0  0  0  0  0  0  0
  -29.1809  -23.1704   16.5789 C   0  0  0  0  0  0  0  0  0  0  0  0
  -23.5509   -7.9556   21.7767 C   0  0  0  0  0  0  0  0  0  0  0  0
  -27.2216  -13.5931   19.9387 C   0  0  0  0  0  0  0  0  0  0  0  0
  -29.1854  -15.2028   20.1838 C   0  0  0  0  0  0  0  0  0  0  0  0
  -19.5931  -24.7967   22.7500 C   0  0  0  0  0  0  0  0  0  0  0  0
  -27.3279  -25.6276   22.1504 C   0  0  0  0  0  0  0  0  0  0  0  0
  -20.8878  -24.2905   22.5266 C   0  0  0  0  0  0  0  0  0  0  0  0
  -27.4209  -26.5896   21.1346 C   0  0  0  0  0  0  0  0  0  0  0  0
  -31.1356  -21.2335   17.1018 C   0  0  0  0  0  0  0  0  0  0  0  0
  -31.4679  -22.5982   17.1600 C   0  0  0  0  0  0  0  0  0  0  0  0
  -30.4853  -23.5592   16.8831 C   0  0  0  0  0  0  0  0  0  0  0  0
  -26.0749  -11.0848   19.5194 C   0  0  0  0  0  0  0  0  0  0  0  0
  -29.3229  -25.3994   20.1986 C   0  0  0  0  0  0  0  0  0  0  0  0
  -24.4769   -9.4803   20.1474 C   0  0  0  0  0  0  0  0  0  0  0  0
  -28.8478  -21.8189   16.5416 C   0  0  0  0  0  0  0  0  0  0  0  0
  -22.3832   -8.7172   21.8257 C   0  0  0  0  0  0  0  0  0  0  0  0
  -24.5977   -8.3372   20.9375 C   0  0  0  0  0  0  0  0  0  0  0  0
  -27.8134  -14.8890   20.1547 C   0  0  0  0  0  0  0  0  0  0  0  0
  -29.2234  -16.5553   20.4200 C   0  0  0  0  0  0  0  0  0  0  0  0
  -30.3238  -14.3481   20.0126 C   0  0  0  0  0  0  0  0  0  0  0  0
  -24.1710  -25.8443   21.8491 C   0  0  0  0  0  0  0  0  0  0  0  0
  -24.7261  -28.9934   22.3948 C   0  0  0  0  0  0  0  0  0  0  0  0
  -26.9145  -31.6100   22.2909 C   0  0  0  0  0  0  0  0  0  0  0  0
  -25.3275  -20.9846   19.3932 C   0  0  0  0  0  0  0  0  0  0  0  0
  -19.0709  -25.9979   22.0023 C   0  0  0  0  0  0  0  0  0  0  0  0
  -26.2821  -25.7523   23.2242 C   0  0  0  0  0  0  0  0  0  0  0  0
  -32.8799  -23.0393   17.4506 C   0  0  0  0  0  0  0  0  0  0  0  0
  -26.4703  -27.7553   21.0568 C   0  0  0  0  0  0  0  0  0  0  0  0
  -32.1601  -20.1756   17.4089 C   0  0  0  0  0  0  0  0  0  0  0  0
  -20.1696  -26.8376   21.3556 C   0  0  0  0  0  0  0  0  0  0  0  0
  -26.7397  -20.0594   22.5279 C   0  0  0  0  0  0  0  0  0  0  0  0
  -21.1613  -25.9430   20.6187 C   0  0  0  0  0  0  0  0  0  0  0  0
  -27.2988  -18.6577   22.2778 C   0  0  0  0  0  0  0  0  0  0  0  0
  -25.4350  -20.2903   21.7687 C   0  0  0  0  0  0  0  0  0  0  0  0
  -26.0644  -18.6192   20.0702 C   0  0  0  0  0  0  0  0  0  0  0  0
  -33.7096  -21.9754   18.1608 C   0  0  0  0  0  0  0  0  0  0  0  0
  -21.8547  -24.9750   21.5850 C   0  0  1  0  0  0  0  0  0  0  0  0
  -25.0780  -26.5834   22.7919 C   0  0  1  0  0  0  0  0  0  0  0  0
  -27.4090  -18.3587   20.7706 C   0  0  2  0  0  0  0  0  0  0  0  0
  -30.5932  -25.6624   15.5060 C   0  0  0  0  0  0  0  0  0  0  0  0
  -27.0682  -34.0695   22.7651 C   0  0  0  0  0  0  0  0  0  0  0  0
  -23.1790  -29.5818   19.8316 C   0  0  0  0  0  0  0  0  0  0  0  0
  -24.1612  -31.8847   19.8500 C   0  0  0  0  0  0  0  0  0  0  0  0
  -22.6930  -31.1418   21.7249 C   0  0  0  0  0  0  0  0  0  0  0  0
  -34.5570  -19.6396   17.8829 C   0  0  0  0  0  0  0  0  0  0  0  0
  -29.0263  -31.2039   24.3241 C   0  0  0  0  0  0  0  0  0  0  0  0
  -25.2842  -21.5352   16.9737 C   0  0  0  0  0  0  0  0  0  0  0  0
  -26.5273  -22.3333   16.6234 C   0  0  0  0  0  0  0  0  0  0  0  0
  -29.9826  -25.8010   17.9493 C   0  0  0  0  0  0  0  0  0  1  0  0
  -30.8010  -25.0467   16.8925 C   0  0  1  0  0  0  0  0  0  0  0  0
  -25.0276  -30.1917   21.5276 C   0  0  1  0  0  0  0  0  0  0  0  0
  -27.2692  -32.6679   23.3201 C   0  0  2  0  0  0  0  0  0  0  0  0
  -23.7820  -30.6771   20.7336 C   0  0  0  0  0  0  0  0  0  0  0  0
  -27.0360  -15.9562   20.3564 N   0  0  0  0  0  0  0  0  0  0  0  0
  -27.9225  -16.9538   20.5147 N   0  0  0  0  0  0  0  0  0  0  0  0
  -25.4613  -27.8301   22.1263 N   0  0  0  0  0  0  0  0  0  0  0  0
  -25.6077  -19.9905   20.3452 N   0  0  0  0  0  0  0  0  0  0  0  0
  -30.2423  -17.4306   20.5540 N   0  0  0  0  0  0  0  0  0  0  0  0
  -30.1057  -12.9838   19.7776 N   0  0  0  0  0  0  0  0  0  0  0  0
  -22.8890  -25.6596   22.3306 N   0  0  0  0  0  0  0  0  0  0  0  0
  -25.6034  -31.2001   22.4108 N   0  0  0  0  0  0  0  0  0  0  0  0
  -25.5236  -20.6196   18.0669 N   0  0  0  0  0  0  0  0  0  0  0  0
  -33.5886  -20.6805   17.3980 N   0  3  1  0  0  0  0  0  0  0  0  0
  -28.6929  -32.5275   23.7377 N   0  3  0  0  0  0  0  0  0  0  0  0
  -31.5000  -14.7787   20.0827 O   0  0  0  0  0  0  0  0  0  0  0  0
  -24.6019  -25.4707   20.7645 O   0  0  0  0  0  0  0  0  0  0  0  0
  -23.8748  -29.0881   23.2825 O   0  0  0  0  0  0  0  0  0  0  0  0
  -27.7188  -31.1920   21.4609 O   0  0  0  0  0  0  0  0  0  0  0  0
  -24.9370  -22.1154   19.7026 O   0  0  0  0  0  0  0  0  0  0  0  0
  -25.5156   -9.8610   19.3144 O   0  0  0  0  0  0  0  0  0  0  0  0
  -30.2882  -25.2892   19.2458 O   0  0  0  0  0  0  0  0  0  1  0  0
  -27.5741  -21.4394   16.2479 O   0  0  0  0  0  0  0  0  0  0  0  0
  -21.3785   -8.3517   22.6327 F   0  0  0  0  0  0  0  0  0  0  0  0
  -25.7174   -7.6022   20.8955 F   0  0  0  0  0  0  0  0  0  0  0  0
  1  2  1  0  0  0  0
  1  5  2  0  0  0  0
  2  6  2  0  0  0  0
  3  8  2  0  0  0  0
  3 17  1  0  0  0  0
  4  9  1  0  0  0  0
  4 17  2  0  0  0  0
  5 19  1  0  0  0  0
  6 21  1  0  0  0  0
  7 10  2  0  0  0  0
  7 20  1  0  0  0  0
  8 26  1  0  0  0  0
  9 26  2  0  0  0  0
 10 27  1  0  0  0  0
 11 12  2  0  0  0  0
 11 28  1  0  0  0  0
 12 30  1  0  0  0  0
 13 22  1  0  0  0  0
 13 27  2  0  0  0  0
 14 23  2  0  0  0  0
 14 29  1  0  0  0  0
 15 25  1  0  0  0  0
 15 29  2  0  0  0  0
 16 30  2  0  0  0  0
 16 31  1  0  0  0  0
 17 32  1  0  0  0  0
 18 32  1  0  0  0  0
 18 33  2  0  0  0  0
 18 34  1  0  0  0  0
 19 21  2  0  0  0  0
 19 39  1  0  0  0  0
 20 22  2  0  0  0  0
 20 40  1  0  0  0  0
 21 51  1  0  0  0  0
 22 42  1  0  0  0  0
 23 24  1  0  0  0  0
 23 43  1  0  0  0  0
 24 25  2  0  0  0  0
 24 41  1  0  0  0  0
 25 64  1  0  0  0  0
 26 84  1  0  0  0  0
 27 85  1  0  0  0  0
 28 31  2  0  0  0  0
 28 84  1  0  0  0  0
 29 86  1  0  0  0  0
 30 87  1  0  0  0  0
 31 88  1  0  0  0  0
 32 68  2  0  0  0  0
 33 69  1  0  0  0  0
 33 72  1  0  0  0  0
 34 73  1  0  0  0  0
 34 79  2  0  0  0  0
 35 52  1  0  0  0  0
 35 74  1  0  0  0  0
 35 80  2  0  0  0  0
 36 65  1  0  0  0  0
 36 70  1  0  0  0  0
 36 81  2  0  0  0  0
 37 66  1  0  0  0  0
 37 75  1  0  0  0  0
 37 82  2  0  0  0  0
 38 71  1  0  0  0  0
 38 76  1  0  0  0  0
 38 83  2  0  0  0  0
 39 44  1  0  0  0  0
 40 52  1  0  0  0  0
 41 50  1  0  0  0  0
 42 70  1  0  0  0  0
 43 77  1  0  0  0  0
 44 46  1  0  0  0  0
 45 47  1  0  0  0  0
 45 48  1  0  0  0  0
 46 51  1  0  0  0  0
 47 53  1  0  0  0  0
 48 71  1  0  0  0  0
 49 53  1  0  0  0  0
 49 71  1  0  0  0  0
 50 77  1  0  0  0  0
 51 74  1  0  0  0  0
 52 70  1  0  0  0  0
 53 69  1  0  0  0  0
 54 64  1  0  0  0  0
 55 66  1  0  0  0  0
 56 67  1  0  0  0  0
 57 67  1  0  0  0  0
 58 67  1  0  0  0  0
 59 77  1  0  0  0  0
 60 78  1  0  0  0  0
 61 62  1  0  0  0  0
 61 76  1  0  0  0  0
 62 86  1  0  0  0  0
 63 64  1  0  0  0  0
 63 85  1  0  0  0  0
 65 67  1  0  0  0  0
 65 75  1  0  0  0  0
 66 78  1  0  0  0  0
 68 69  1  0  0  0  0
M  CHG  2  77   1  78   1
M  ISO  4  38 100  63 101  76 100  85 101
M  END
> <Batch ID>
0157

> <Smiles>
CNC(C)C(=O)NC(C(=O)N1Cc2cc([101O:1][101CH2:1]C(C)c3cc(OCC[100NH:0][100C:0](=O)N4CCCC(n5nc(-c6ccc(Oc7ccc(F)cc7F)cc6)c(C(N)=O)c5N)C4)cc4c3CCN(C)C4)ccc2CC1C(=O)NC1CCCc2ccccc21)C(C)(C)C

> <Shape>
0.229

> <Color>
0.074

> <Negative vol penalty>
0.000

$$$$

  -OEChem-04052321593D

 87 96  0     1  0  0  0  0  0999 V2000
  -18.4958  -24.7680   24.4383 C   0  0  0  0  0  0  0  0  0  0  0  0
  -19.7347  -24.5254   23.8536 C   0  0  0  0  0  0  0  0  0  0  0  0
  -24.5610   -9.1212   22.1737 C   0  0  0  0  0  0  0  0  0  0  0  0
  -23.7971   -9.4002   19.8986 C   0  0  0  0  0  0  0  0  0  0  0  0
  -17.8891  -26.0147   24.2915 C   0  0  0  0  0  0  0  0  0  0  0  0
  -20.3670  -25.5291   23.1207 C   0  0  0  0  0  0  0  0  0  0  0  0
  -26.3888  -26.5824   22.7544 C   0  0  0  0  0  0  0  0  0  0  0  0
  -23.3752   -8.4587   22.4906 C   0  0  0  0  0  0  0  0  0  0  0  0
  -22.6113   -8.7376   20.2155 C   0  0  0  0  0  0  0  0  0  0  0  0
  -27.3450  -26.2376   21.8001 C   0  0  0  0  0  0  0  0  0  0  0  0
  -20.7028   -6.3759   23.8081 C   0  0  0  0  0  0  0  0  0  0  0  0
  -20.7951   -5.2061   24.5621 C   0  0  0  0  0  0  0  0  0  0  0  0
  -27.0877  -28.4030   20.7687 C   0  0  0  0  0  0  0  0  0  0  0  0
  -28.4550  -24.1808   18.9264 C   0  0  0  0  0  0  0  0  0  0  0  0
  -29.2963  -22.1358   20.6272 C   0  0  0  0  0  0  0  0  0  0  0  0
  -22.1523   -4.1999   22.8350 C   0  0  0  0  0  0  0  0  0  0  0  0
  -24.7719   -9.5921   20.8777 C   0  0  0  0  0  0  0  0  0  0  0  0
  -27.1917   -9.7025   20.0778 C   0  0  0  0  0  0  0  0  0  0  0  0
  -18.5188  -27.0373   23.5645 C   0  0  0  0  0  0  0  0  0  0  0  0
  -25.7659  -27.8381   22.7164 C   0  0  0  0  0  0  0  0  0  0  0  0
  -19.7675  -26.7902   22.9629 C   0  0  0  0  0  0  0  0  0  0  0  0
  -26.1258  -28.7623   21.7252 C   0  0  0  0  0  0  0  0  0  0  0  0
  -28.0780  -22.8624   18.6714 C   0  0  0  0  0  0  0  0  0  0  0  0
  -29.2528  -24.4768   20.0317 C   0  0  0  0  0  0  0  0  0  0  0  0
  -28.4986  -21.8398   19.5218 C   0  0  0  0  0  0  0  0  0  0  0  0
  -22.4003   -8.2668   21.5115 C   0  0  0  0  0  0  0  0  0  0  0  0
  -27.6925  -27.1469   20.8054 C   0  0  0  0  0  0  0  0  0  0  0  0
  -21.3351   -6.4577   22.5674 C   0  0  0  0  0  0  0  0  0  0  0  0
  -29.6734  -23.4543   20.8821 C   0  0  0  0  0  0  0  0  0  0  0  0
  -21.5199   -4.1181   24.0756 C   0  0  0  0  0  0  0  0  0  0  0  0
  -22.0599   -5.3698   22.0809 C   0  0  0  0  0  0  0  0  0  0  0  0
  -25.9964  -10.2771   20.5498 C   0  0  0  0  0  0  0  0  0  0  0  0
  -28.0456  -10.7668   19.9207 C   0  0  0  0  0  0  0  0  0  0  0  0
  -27.5024   -8.3295   19.8056 C   0  0  0  0  0  0  0  0  0  0  0  0
  -22.7744  -28.8480   22.3491 C   0  0  0  0  0  0  0  0  0  0  0  0
  -24.0881  -31.7463   22.9788 C   0  0  0  0  0  0  0  0  0  0  0  0
  -26.8660  -33.7287   22.9840 C   0  0  0  0  0  0  0  0  0  0  0  0
  -27.2850  -16.3922   18.8234 C   0  0  0  0  0  0  0  0  0  0  0  0
  -17.8023  -28.3533   23.3934 C   0  0  0  0  0  0  0  0  0  0  0  0
  -24.7559  -28.2047   23.7690 C   0  0  0  0  0  0  0  0  0  0  0  0
  -25.5013  -30.1309   21.6526 C   0  0  0  0  0  0  0  0  0  0  0  0
  -18.7105  -29.4837   22.9163 C   0  0  0  0  0  0  0  0  0  0  0  0
  -28.9598  -15.1301   21.6415 C   0  0  0  0  0  0  0  0  0  0  0  0
  -19.5806  -29.0151   21.7544 C   0  0  0  0  0  0  0  0  0  0  0  0
  -28.5029  -13.6716   21.6385 C   0  0  0  0  0  0  0  0  0  0  0  0
  -27.8228  -16.0875   21.2807 C   0  0  0  0  0  0  0  0  0  0  0  0
  -28.9870  -19.6651   18.4448 C   0  0  0  0  0  0  0  0  0  0  0  0
  -27.3307  -19.8276   20.3092 C   0  0  0  0  0  0  0  0  0  0  0  0
  -28.2114  -18.4761   17.8839 C   0  0  0  0  0  0  0  0  0  0  0  0
  -26.5782  -18.6452   19.7089 C   0  0  0  0  0  0  0  0  0  0  0  0
  -26.6844  -14.2997   20.0056 C   0  0  0  0  0  0  0  0  0  0  0  0
  -20.4964  -27.8615   22.1812 C   0  0  1  0  0  0  0  0  0  0  0  0
  -23.8117  -29.3192   23.3287 C   0  0  1  0  0  0  0  0  0  0  0  0
  -27.8200  -13.3095   20.3076 C   0  0  2  0  0  0  0  0  0  0  0  0
  -27.2236  -22.5726   17.4803 C   0  0  0  0  0  0  0  0  0  0  0  0
  -30.9473  -26.2853   19.5834 C   0  0  0  0  0  0  0  0  0  0  0  0
  -27.6200  -36.0620   23.5175 C   0  0  0  0  0  0  0  0  0  0  0  0
  -22.8099  -32.7474   20.3954 C   0  0  0  0  0  0  0  0  0  0  0  0
  -24.3386  -34.7280   20.4885 C   0  0  0  0  0  0  0  0  0  0  0  0
  -22.6796  -34.3483   22.3124 C   0  0  0  0  0  0  0  0  0  0  0  0
  -28.7511  -32.7705   25.0545 C   0  0  0  0  0  0  0  0  0  0  0  0
  -30.8362  -22.6205   22.7817 C   0  0  0  0  0  0  0  0  0  0  0  0
  -29.6467  -25.8939   20.2887 C   0  0  1  0  0  0  0  0  0  1  0  0
  -24.7049  -32.8441   22.1462 C   0  0  1  0  0  0  0  0  0  0  0  0
  -27.4468  -34.6461   24.0448 C   0  0  2  0  0  0  0  0  0  0  0  0
  -23.6438  -33.6405   21.3356 C   0  0  0  0  0  0  0  0  0  0  0  0
  -26.0796  -11.6034   20.6840 N   0  0  0  0  0  0  0  0  0  0  0  0
  -27.3375  -11.8711   20.2940 N   0  0  0  0  0  0  0  0  0  0  0  0
  -28.1284  -20.5105   19.2814 N   0  0  0  0  0  0  0  0  0  0  0  0
  -24.5144  -30.4399   22.7005 N   0  0  0  0  0  0  0  0  0  0  0  0
  -27.1763  -15.6788   20.0265 N   0  0  0  0  0  0  0  0  0  0  0  0
  -27.4617  -17.7812   18.9233 N   0  0  0  0  0  0  0  0  0  0  0  0
  -29.3256  -10.8564   19.5012 N   0  0  0  0  0  0  0  0  0  0  0  0
  -26.5094   -7.3643   20.0214 N   0  0  0  0  0  0  0  0  0  0  0  0
  -21.6224  -28.3639   22.9389 N   0  0  0  0  0  0  0  0  0  0  0  0
  -25.4912  -33.6604   23.0649 N   0  0  0  0  0  0  0  0  0  0  0  0
  -28.7774  -34.1448   24.4911 N   0  3  0  0  0  0  0  0  0  0  0  0
  -28.6326   -7.9674   19.3990 O   0  0  0  0  0  0  0  0  0  0  0  0
  -23.0018  -28.9197   21.1471 O   0  0  0  0  0  0  0  0  0  0  0  0
  -23.2638  -32.0378   23.8490 O   0  0  0  0  0  0  0  0  0  0  0  0
  -27.5620  -33.1352   22.1630 O   0  0  0  0  0  0  0  0  0  0  0  0
  -27.2311  -15.8243   17.7255 O   0  0  0  0  0  0  0  0  0  0  0  0
  -21.2432   -7.6201   21.8204 O   0  0  0  0  0  0  0  0  0  0  0  0
  -30.4523  -23.7259   21.9665 O   0  0  0  0  0  0  0  0  0  0  0  0
  -28.6279  -26.8116   19.8695 O   0  0  0  0  0  0  0  0  0  1  0  0
  -21.6098   -2.9954   24.8005 F   0  0  0  0  0  0  0  0  0  0  0  0
  -22.6705   -5.4429   20.8903 F   0  0  0  0  0  0  0  0  0  0  0  0
  1  2  1  0  0  0  0
  1  5  2  0  0  0  0
  2  6  2  0  0  0  0
  3  8  2  0  0  0  0
  3 17  1  0  0  0  0
  4  9  1  0  0  0  0
  4 17  2  0  0  0  0
  5 19  1  0  0  0  0
  6 21  1  0  0  0  0
  7 10  2  0  0  0  0
  7 20  1  0  0  0  0
  8 26  1  0  0  0  0
  9 26  2  0  0  0  0
 10 27  1  0  0  0  0
 11 12  2  0  0  0  0
 11 28  1  0  0  0  0
 12 30  1  0  0  0  0
 13 22  1  0  0  0  0
 13 27  2  0  0  0  0
 14 23  2  0  0  0  0
 14 24  1  0  0  0  0
 15 25  2  0  0  0  0
 15 29  1  0  0  0  0
 16 30  2  0  0  0  0
 16 31  1  0  0  0  0
 17 32  1  0  0  0  0
 18 32  1  0  0  0  0
 18 33  2  0  0  0  0
 18 34  1  0  0  0  0
 19 21  2  0  0  0  0
 19 39  1  0  0  0  0
 20 22  2  0  0  0  0
 20 40  1  0  0  0  0
 21 52  1  0  0  0  0
 22 41  1  0  0  0  0
 23 25  1  0  0  0  0
 23 55  1  0  0  0  0
 24 29  2  0  0  0  0
 24 63  1  0  0  0  0
 25 69  1  0  0  0  0
 26 83  1  0  0  0  0
 27 85  1  0  0  0  0
 28 31  2  0  0  0  0
 28 83  1  0  0  0  0
 29 84  1  0  0  0  0
 30 86  1  0  0  0  0
 31 87  1  0  0  0  0
 32 67  2  0  0  0  0
 33 68  1  0  0  0  0
 33 73  1  0  0  0  0
 34 74  1  0  0  0  0
 34 78  2  0  0  0  0
 35 53  1  0  0  0  0
 35 75  1  0  0  0  0
 35 79  2  0  0  0  0
 36 64  1  0  0  0  0
 36 70  1  0  0  0  0
 36 80  2  0  0  0  0
 37 65  1  0  0  0  0
 37 76  1  0  0  0  0
 37 81  2  0  0  0  0
 38 71  1  0  0  0  0
 38 72  1  0  0  0  0
 38 82  2  0  0  0  0
 39 42  1  0  0  0  0
 40 53  1  0  0  0  0
 41 70  1  0  0  0  0
 42 44  1  0  0  0  0
 43 45  1  0  0  0  0
 43 46  1  0  0  0  0
 44 52  1  0  0  0  0
 45 54  1  0  0  0  0
 46 71  1  0  0  0  0
 47 49  1  0  0  0  0
 47 69  1  0  0  0  0
 48 50  1  0  0  0  0
 48 69  1  0  0  0  0
 49 72  1  0  0  0  0
 50 72  1  0  0  0  0
 51 54  1  0  0  0  0
 51 71  1  0  0  0  0
 52 75  1  0  0  0  0
 53 70  1  0  0  0  0
 54 68  1  0  0  0  0
 56 63  1  0  0  0  0
 57 65  1  0  0  0  0
 58 66  1  0  0  0  0
 59 66  1  0  0  0  0
 60 66  1  0  0  0  0
 61 77  1  0  0  0  0
 62 84  1  0  0  0  0
 63 85  1  0  0  0  0
 64 66  1  0  0  0  0
 64 76  1  0  0  0  0
 65 77  1  0  0  0  0
 67 68  1  0  0  0  0
M  CHG  1  77   1
M  ISO  4  38 100  63 101  72 100  85 101
M  END
> <Batch ID>
0157

> <Smiles>
CNC(C)C(=O)NC(C(=O)N1Cc2cc([101O:1][101CH:1](C)c3cc(C)c(N4CC[100N:0]([100C:0](=O)N5CCCC(n6nc(-c7ccc(Oc8ccc(F)cc8F)cc7)c(C(N)=O)c6N)C5)CC4)cc3OC)ccc2CC1C(=O)NC1CCCc2ccccc21)C(C)(C)C

> <Shape>
0.328

> <Color>
0.128

> <Negative vol penalty>
0.000

$$$$

  -OEChem-04052321593D

 86 95  0     1  0  0  0  0  0999 V2000
  -21.0421  -28.8680   22.2070 C   0  0  0  0  0  0  0  0  0  0  0  0
  -21.6943  -27.6412   22.2763 C   0  0  0  0  0  0  0  0  0  0  0  0
  -23.2120   -9.7651   19.9957 C   0  0  0  0  0  0  0  0  0  0  0  0
  -23.4434  -10.1765   22.3651 C   0  0  0  0  0  0  0  0  0  0  0  0
  -21.7597  -30.0208   21.8907 C   0  0  0  0  0  0  0  0  0  0  0  0
  -23.0645  -27.5663   22.0281 C   0  0  0  0  0  0  0  0  0  0  0  0
  -27.0916  -23.8118   24.7100 C   0  0  0  0  0  0  0  0  0  0  0  0
  -30.5005  -15.4091   21.5512 C   0  0  0  0  0  0  0  0  0  0  0  0
  -22.4167   -8.6517   20.2666 C   0  0  0  0  0  0  0  0  0  0  0  0
  -22.6480   -9.0631   22.6361 C   0  0  0  0  0  0  0  0  0  0  0  0
  -27.6524  -22.5990   24.3120 C   0  0  0  0  0  0  0  0  0  0  0  0
  -23.0133   -5.7032   22.7278 C   0  0  0  0  0  0  0  0  0  0  0  0
  -23.4409   -4.8290   23.7271 C   0  0  0  0  0  0  0  0  0  0  0  0
  -30.2041  -16.5102   20.7556 C   0  0  0  0  0  0  0  0  0  0  0  0
  -29.5838  -23.7748   23.4715 C   0  0  0  0  0  0  0  0  0  0  0  0
  -21.4052   -5.2434   24.9605 C   0  0  0  0  0  0  0  0  0  0  0  0
  -23.7255  -10.5275   21.0449 C   0  0  0  0  0  0  0  0  0  0  0  0
  -24.1174  -13.0045   20.5775 C   0  0  0  0  0  0  0  0  0  0  0  0
  -23.1411  -29.9615   21.6481 C   0  0  0  0  0  0  0  0  0  0  0  0
  -27.7689  -25.0182   24.4815 C   0  0  0  0  0  0  0  0  0  0  0  0
  -23.8010  -28.7191   21.7070 C   0  0  0  0  0  0  0  0  0  0  0  0
  -29.7127  -15.1288   22.6621 C   0  0  0  0  0  0  0  0  0  0  0  0
  -29.0306  -25.0013   23.8698 C   0  0  0  0  0  0  0  0  0  0  0  0
  -22.1346   -8.3008   21.5868 C   0  0  0  0  0  0  0  0  0  0  0  0
  -28.8973  -22.5806   23.6900 C   0  0  0  0  0  0  0  0  0  0  0  0
  -21.7817   -6.3476   22.8449 C   0  0  0  0  0  0  0  0  0  0  0  0
  -22.6368   -4.5991   24.8434 C   0  0  0  0  0  0  0  0  0  0  0  0
  -20.9777   -6.1176   23.9612 C   0  0  0  0  0  0  0  0  0  0  0  0
  -24.5476  -11.6773   20.7657 C   0  0  0  0  0  0  0  0  0  0  0  0
  -29.1178  -17.2934   21.1109 C   0  0  0  0  0  0  0  0  0  0  0  0
  -28.6485  -15.9740   22.9322 C   0  0  0  0  0  0  0  0  0  0  0  0
  -25.2724  -13.7098   20.3431 C   0  0  0  0  0  0  0  0  0  0  0  0
  -22.7922  -13.5508   20.6116 C   0  0  0  0  0  0  0  0  0  0  0  0
  -27.1638  -27.6468   22.7998 C   0  0  0  0  0  0  0  0  0  0  0  0
  -29.8734  -28.7148   24.2280 C   0  0  0  0  0  0  0  0  0  0  0  0
  -32.8384  -27.9660   25.7430 C   0  0  0  0  0  0  0  0  0  0  0  0
  -31.0518  -12.1595   21.8253 C   0  0  0  0  0  0  0  0  0  0  0  0
  -23.8656  -31.2271   21.2634 C   0  0  0  0  0  0  0  0  0  0  0  0
  -27.1624  -26.3157   24.9409 C   0  0  0  0  0  0  0  0  0  0  0  0
  -29.8077  -26.2671   23.6199 C   0  0  0  0  0  0  0  0  0  0  0  0
  -25.3837  -31.1200   21.3822 C   0  0  0  0  0  0  0  0  0  0  0  0
  -29.6608  -13.2406   18.5655 C   0  0  0  0  0  0  0  0  0  0  0  0
  -25.8783  -29.8223   20.7512 C   0  0  0  0  0  0  0  0  0  0  0  0
  -28.1666  -12.9809   18.7318 C   0  0  0  0  0  0  0  0  0  0  0  0
  -31.1498  -14.0743   24.6347 C   0  0  0  0  0  0  0  0  0  0  0  0
  -30.4937  -12.3085   19.4382 C   0  0  0  0  0  0  0  0  0  0  0  0
  -31.7947  -12.7707   24.1786 C   0  0  0  0  0  0  0  0  0  0  0  0
  -28.6382  -12.1163   21.0608 C   0  0  0  0  0  0  0  0  0  0  0  0
  -30.0491  -13.8718   23.5691 C   0  0  2  0  0  0  0  0  0  0  0  0
  -25.2907  -28.6010   21.4687 C   0  0  1  0  0  0  0  0  0  0  0  0
  -27.7099  -27.5285   24.1946 C   0  0  1  0  0  0  0  0  0  0  0  0
  -27.7678  -13.0586   20.2131 C   0  0  2  0  0  0  0  0  0  0  0  0
  -27.3501  -18.4258   19.7018 C   0  0  0  0  0  0  0  0  0  0  0  0
  -34.8554  -29.0506   26.7690 C   0  0  0  0  0  0  0  0  0  0  0  0
  -30.9308  -29.3771   21.4435 C   0  0  0  0  0  0  0  0  0  0  0  0
  -33.2254  -29.5451   22.4308 C   0  0  0  0  0  0  0  0  0  0  0  0
  -31.4277  -31.1013   23.1855 C   0  0  0  0  0  0  0  0  0  0  0  0
  -32.3083  -26.7268   28.3778 C   0  0  0  0  0  0  0  0  0  0  0  0
  -30.2815  -20.0771   21.4675 C   0  0  0  0  0  0  0  0  0  0  0  0
  -30.3064  -21.4240   22.1628 C   0  0  0  0  0  0  0  0  0  1  0  0
  -28.7702  -18.4826   20.2791 C   0  0  1  0  0  0  0  0  0  0  0  0
  -31.3450  -28.6756   23.8935 C   0  0  1  0  0  0  0  0  0  0  0  0
  -33.4712  -28.4754   27.0254 C   0  0  2  0  0  0  0  0  0  0  0  0
  -31.7170  -29.6510   22.7411 C   0  0  0  0  0  0  0  0  0  0  0  0
  -25.8725  -11.5448   20.6598 N   0  0  0  0  0  0  0  0  0  0  0  0
  -28.3295  -17.0528   22.1826 N   0  0  0  0  0  0  0  0  0  0  0  0
  -26.2847  -12.7978   20.4025 N   0  0  0  0  0  0  0  0  0  0  0  0
  -29.1697  -27.5110   24.0816 N   0  0  0  0  0  0  0  0  0  0  0  0
  -30.0728  -12.3443   20.8413 N   0  0  0  0  0  0  0  0  0  0  0  0
  -30.8928  -12.7977   23.0338 N   0  0  0  0  0  0  0  0  0  0  0  0
  -27.8444  -15.6900   24.0638 N   0  0  0  0  0  0  0  0  0  0  0  0
  -25.5106  -15.0151   20.0940 N   0  0  0  0  0  0  0  0  0  0  0  0
  -21.7192  -12.6857   20.8658 N   0  0  0  0  0  0  0  0  0  0  0  0
  -25.9860  -28.3646   22.7158 N   0  0  0  0  0  0  0  0  0  0  0  0
  -32.0545  -28.9287   25.1429 N   0  0  0  0  0  0  0  0  0  0  0  0
  -33.5981  -27.3687   28.0155 N   0  3  0  0  0  0  0  0  0  0  0  0
  -28.9018  -19.7852   21.0170 N   0  3  0  0  0  0  0  0  0  0  0  0
  -22.5647  -14.7671   20.4060 O   0  0  0  0  0  0  0  0  0  0  0  0
  -27.7672  -27.1268   21.8686 O   0  0  0  0  0  0  0  0  0  0  0  0
  -29.3685  -29.7727   24.6121 O   0  0  0  0  0  0  0  0  0  0  0  0
  -33.0241  -26.8292   25.3143 O   0  0  0  0  0  0  0  0  0  0  0  0
  -32.0563  -11.4645   21.6203 O   0  0  0  0  0  0  0  0  0  0  0  0
  -21.3583   -7.2145   21.8515 O   0  0  0  0  0  0  0  0  0  0  0  0
  -29.4506  -21.3898   23.2972 O   0  0  0  0  0  0  0  0  0  1  0  0
  -23.0469   -3.7584   25.8022 F   0  0  0  0  0  0  0  0  0  0  0  0
  -19.7930   -6.7328   24.0787 F   0  0  0  0  0  0  0  0  0  0  0  0
  1  2  1  0  0  0  0
  1  5  2  0  0  0  0
  2  6  2  0  0  0  0
  3  9  2  0  0  0  0
  3 17  1  0  0  0  0
  4 10  1  0  0  0  0
  4 17  2  0  0  0  0
  5 19  1  0  0  0  0
  6 21  1  0  0  0  0
  7 11  2  0  0  0  0
  7 20  1  0  0  0  0
  8 14  2  0  0  0  0
  8 22  1  0  0  0  0
  9 24  1  0  0  0  0
 10 24  2  0  0  0  0
 11 25  1  0  0  0  0
 12 13  2  0  0  0  0
 12 26  1  0  0  0  0
 13 27  1  0  0  0  0
 14 30  1  0  0  0  0
 15 23  1  0  0  0  0
 15 25  2  0  0  0  0
 16 27  2  0  0  0  0
 16 28  1  0  0  0  0
 17 29  1  0  0  0  0
 18 29  1  0  0  0  0
 18 32  2  0  0  0  0
 18 33  1  0  0  0  0
 19 21  2  0  0  0  0
 19 38  1  0  0  0  0
 20 23  2  0  0  0  0
 20 39  1  0  0  0  0
 21 50  1  0  0  0  0
 22 31  2  0  0  0  0
 22 49  1  0  0  0  0
 23 40  1  0  0  0  0
 24 83  1  0  0  0  0
 25 84  1  0  0  0  0
 26 28  2  0  0  0  0
 26 83  1  0  0  0  0
 27 85  1  0  0  0  0
 28 86  1  0  0  0  0
 29 65  2  0  0  0  0
 30 61  1  0  0  0  0
 30 66  2  0  0  0  0
 31 66  1  0  0  0  0
 31 71  1  0  0  0  0
 32 67  1  0  0  0  0
 32 72  1  0  0  0  0
 33 73  1  0  0  0  0
 33 78  2  0  0  0  0
 34 51  1  0  0  0  0
 34 74  1  0  0  0  0
 34 79  2  0  0  0  0
 35 62  1  0  0  0  0
 35 68  1  0  0  0  0
 35 80  2  0  0  0  0
 36 63  1  0  0  0  0
 36 75  1  0  0  0  0
 36 81  2  0  0  0  0
 37 69  1  0  0  0  0
 37 70  1  0  0  0  0
 37 82  2  0  0  0  0
 38 41  1  0  0  0  0
 39 51  1  0  0  0  0
 40 68  1  0  0  0  0
 41 43  1  0  0  0  0
 42 44  1  0  0  0  0
 42 46  1  0  0  0  0
 43 50  1  0  0  0  0
 44 52  1  0  0  0  0
 45 47  1  0  0  0  0
 45 49  1  0  0  0  0
 46 69  1  0  0  0  0
 47 70  1  0  0  0  0
 48 52  1  0  0  0  0
 48 69  1  0  0  0  0
 49 70  1  0  0  0  0
 50 74  1  0  0  0  0
 51 68  1  0  0  0  0
 52 67  1  0  0  0  0
 53 61  1  0  0  0  0
 54 63  1  0  0  0  0
 55 64  1  0  0  0  0
 56 64  1  0  0  0  0
 57 64  1  0  0  0  0
 58 76  1  0  0  0  0
 59 60  1  0  0  0  0
 59 77  1  0  0  0  0
 60 84  1  0  0  0  0
 61 77  1  0  0  0  0
 62 64  1  0  0  0  0
 62 75  1  0  0  0  0
 63 76  1  0  0  0  0
 65 67  1  0  0  0  0
M  CHG  2  76   1  77   1
M  ISO  4  37 100  60 101  70 100  84 101
M  END
> <Batch ID>
0157

> <Smiles>
CNC(C)C(=O)NC(C(=O)N1Cc2cc([101O:1][101CH2:1]CNC(C)c3ccc(C4CC[100N:0]4[100C:0](=O)N4CCCC(n5nc(-c6ccc(Oc7ccc(F)cc7F)cc6)c(C(N)=O)c5N)C4)c(N)n3)ccc2CC1C(=O)NC1CCCc2ccccc21)C(C)(C)C

> <Shape>
0.255

> <Color>
0.176

> <Negative vol penalty>
0.000

$$$$

  -OEChem-04052321593D

 91101  0     1  0  0  0  0  0999 V2000
  -31.2939  -35.2431   21.5192 C   0  0  0  0  0  0  0  0  0  0  0  0
  -30.8423  -34.3001   20.6014 C   0  0  0  0  0  0  0  0  0  0  0  0
  -22.8622  -10.2328   20.7467 C   0  0  0  0  0  0  0  0  0  0  0  0
  -24.5363   -9.0484   22.0241 C   0  0  0  0  0  0  0  0  0  0  0  0
  -30.9318  -35.1369   22.8614 C   0  0  0  0  0  0  0  0  0  0  0  0
  -30.0293  -33.2496   21.0255 C   0  0  0  0  0  0  0  0  0  0  0  0
  -25.4771  -30.6182   17.8857 C   0  0  0  0  0  0  0  0  0  0  0  0
  -22.0945   -9.0705   20.6750 C   0  0  0  0  0  0  0  0  0  0  0  0
  -23.7686   -7.8861   21.9525 C   0  0  0  0  0  0  0  0  0  0  0  0
  -25.4134  -29.4496   17.1279 C   0  0  0  0  0  0  0  0  0  0  0  0
  -22.0801   -4.6996   22.4148 C   0  0  0  0  0  0  0  0  0  0  0  0
  -21.9220   -3.9530   23.5823 C   0  0  0  0  0  0  0  0  0  0  0  0
  -24.5363  -28.2660   19.0382 C   0  0  0  0  0  0  0  0  0  0  0  0
  -26.9768  -21.2584   13.5248 C   0  0  0  0  0  0  0  0  0  0  0  0
  -20.8869   -5.8531   24.6573 C   0  0  0  0  0  0  0  0  0  0  0  0
  -24.0832  -10.2218   21.4212 C   0  0  0  0  0  0  0  0  0  0  0  0
  -24.8227  -12.4173   22.4893 C   0  0  0  0  0  0  0  0  0  0  0  0
  -30.1060  -34.0900   23.3005 C   0  0  0  0  0  0  0  0  0  0  0  0
  -25.0805  -30.6168   19.2307 C   0  0  0  0  0  0  0  0  0  0  0  0
  -29.6569  -33.1285   22.3751 C   0  0  0  0  0  0  0  0  0  0  0  0
  -24.5936  -29.4364   19.8101 C   0  0  0  0  0  0  0  0  0  0  0  0
  -25.2968  -21.6165   15.6966 C   0  0  0  0  0  0  0  0  0  0  0  0
  -25.2365  -22.4887   14.6018 C   0  0  0  0  0  0  0  0  0  0  0  0
  -26.1984  -20.5660   15.7242 C   0  0  0  0  0  0  0  0  0  0  0  0
  -26.0731  -22.3229   13.5105 C   0  0  0  0  0  0  0  0  0  0  0  0
  -22.5477   -7.8971   21.2779 C   0  0  0  0  0  0  0  0  0  0  0  0
  -24.9456  -28.2726   17.7050 C   0  0  0  0  0  0  0  0  0  0  0  0
  -21.6417   -6.0231   22.3685 C   0  0  0  0  0  0  0  0  0  0  0  0
  -27.0394  -20.3867   14.6237 C   0  0  0  0  0  0  0  0  0  0  0  0
  -21.3254   -4.5297   24.7035 C   0  0  0  0  0  0  0  0  0  0  0  0
  -21.0451   -6.5997   23.4897 C   0  0  0  0  0  0  0  0  0  0  0  0
  -24.8769  -11.4220   21.4951 C   0  0  0  0  0  0  0  0  0  0  0  0
  -25.7675  -13.3375   22.1059 C   0  0  0  0  0  0  0  0  0  0  0  0
  -23.9925  -12.5022   23.6552 C   0  0  0  0  0  0  0  0  0  0  0  0
  -26.5349  -31.1884   21.9987 C   0  0  0  0  0  0  0  0  0  0  0  0
  -23.5360  -30.8714   23.1940 C   0  0  0  0  0  0  0  0  0  0  0  0
  -20.3920  -29.5951   22.8299 C   0  0  0  0  0  0  0  0  0  0  0  0
  -28.3360  -16.3928   18.3524 C   0  0  0  0  0  0  0  0  0  0  0  0
  -29.7800  -33.9900   24.7696 C   0  0  0  0  0  0  0  0  0  0  0  0
  -25.1302  -31.8920   20.0269 C   0  0  0  0  0  0  0  0  0  0  0  0
  -24.3295  -22.0278   16.7625 C   0  0  0  0  0  0  0  0  0  0  0  0
  -24.1366  -29.3869   21.2443 C   0  0  0  0  0  0  0  0  0  0  0  0
  -28.6087  -33.0588   25.0716 C   0  0  0  0  0  0  0  0  0  0  0  0
  -23.3831  -22.9444   15.9680 C   0  0  0  0  0  0  0  0  0  0  0  0
  -29.3636  -13.0994   18.5671 C   0  0  0  0  0  0  0  0  0  0  0  0
  -28.7581  -31.7476   24.3067 C   0  0  0  0  0  0  0  0  0  0  0  0
  -28.2892  -12.4392   19.4309 C   0  0  0  0  0  0  0  0  0  0  0  0
  -25.9174  -18.1866   16.5496 C   0  0  0  0  0  0  0  0  0  0  0  0
  -27.6477  -19.6979   17.6134 C   0  0  0  0  0  0  0  0  0  0  0  0
  -28.7424  -14.0770   17.5761 C   0  0  0  0  0  0  0  0  0  0  0  0
  -26.0271  -17.2490   17.7554 C   0  0  0  0  0  0  0  0  0  0  0  0
  -27.6971  -18.7419   18.8017 C   0  0  0  0  0  0  0  0  0  0  0  0
  -26.8265  -14.4913   19.0847 C   0  0  0  0  0  0  0  0  0  0  0  0
  -26.2739  -19.6372   16.9214 C   0  0  0  0  0  0  0  0  0  0  0  0
  -28.7531  -31.9887   22.7923 C   0  0  1  0  0  0  0  0  0  0  0  0
  -24.2169  -23.5606   14.8303 C   0  0  1  0  0  0  0  0  0  0  0  0
  -25.1845  -31.6543   21.5329 C   0  0  1  0  0  0  0  0  0  0  0  0
  -27.4013  -13.4954   20.1124 C   0  0  1  0  0  0  0  0  0  0  0  0
  -26.0250  -23.2473   12.3439 C   0  0  0  0  0  0  0  0  0  0  0  0
  -18.1695  -29.4721   23.9887 C   0  0  0  0  0  0  0  0  0  0  0  0
  -24.6595  -28.7911   25.1227 C   0  0  0  0  0  0  0  0  0  0  0  0
  -22.3134  -28.0394   25.5688 C   0  0  0  0  0  0  0  0  0  0  0  0
  -23.0045  -30.3679   26.1372 C   0  0  0  0  0  0  0  0  0  0  0  0
  -19.0229  -30.9803   20.6015 C   0  0  0  0  0  0  0  0  0  0  0  0
  -28.7611  -19.2497   13.4411 C   0  0  0  0  0  0  0  0  0  0  0  0
  -23.9632  -26.0373   15.0289 C   0  0  0  0  0  0  0  0  0  0  0  0
  -24.6596  -27.2718   15.5666 C   0  0  0  0  0  0  0  0  0  1  0  0
  -22.7075  -29.7204   23.7113 C   0  0  1  0  0  0  0  0  0  0  0  0
  -19.0224  -30.2314   22.9843 C   0  0  2  0  0  0  0  0  0  0  0  0
  -23.1816  -29.2298   25.1085 C   0  0  0  0  0  0  0  0  0  0  0  0
  -25.7843  -11.6853   20.5510 N   0  0  0  0  0  0  0  0  0  0  0  0
  -26.3089  -12.8564   20.9502 N   0  0  0  0  0  0  0  0  0  0  0  0
  -24.2103  -30.6581   21.9833 N   0  0  0  0  0  0  0  0  0  0  0  0
  -27.9044  -15.0609   18.2613 N   0  0  0  0  0  0  0  0  0  0  0  0
  -27.3418  -17.3817   18.3982 N   0  0  0  0  0  0  0  0  0  0  0  0
  -26.1796  -14.5031   22.6479 N   0  0  0  0  0  0  0  0  0  0  0  0
  -23.0755  -11.4707   23.8991 N   0  0  0  0  0  0  0  0  0  0  0  0
  -27.4035  -32.2137   22.3208 N   0  0  0  0  0  0  0  0  0  0  0  0
  -21.3193  -30.1677   23.6745 N   0  0  0  0  0  0  0  0  0  0  0  0
  -24.8107  -24.8430   15.2890 N   0  3  0  0  0  0  0  0  0  0  0  0
  -18.3076  -30.2460   21.6767 N   0  3  0  0  0  0  0  0  0  0  0  0
  -24.0504  -13.4725   24.4481 O   0  0  0  0  0  0  0  0  0  0  0  0
  -26.7708  -29.9876   22.0627 O   0  0  0  0  0  0  0  0  0  0  0  0
  -23.5775  -31.9235   23.8366 O   0  0  0  0  0  0  0  0  0  0  0  0
  -20.6158  -28.6790   22.0417 O   0  0  0  0  0  0  0  0  0  0  0  0
  -29.5385  -16.6821   18.3913 O   0  0  0  0  0  0  0  0  0  0  0  0
  -21.7987   -6.7628   21.2084 O   0  0  0  0  0  0  0  0  0  0  0  0
  -27.9405  -19.3628   14.6010 O   0  0  0  0  0  0  0  0  0  0  0  0
  -24.8825  -27.1222   16.9625 O   0  0  0  0  0  0  0  0  0  1  0  0
  -21.1722   -3.8121   25.8241 F   0  0  0  0  0  0  0  0  0  0  0  0
  -20.6209   -7.8703   23.4509 F   0  0  0  0  0  0  0  0  0  0  0  0
  1  2  1  0  0  0  0
  1  5  2  0  0  0  0
  2  6  2  0  0  0  0
  3  8  2  0  0  0  0
  3 16  1  0  0  0  0
  4  9  1  0  0  0  0
  4 16  2  0  0  0  0
  5 18  1  0  0  0  0
  6 20  1  0  0  0  0
  7 10  2  0  0  0  0
  7 19  1  0  0  0  0
  8 26  1  0  0  0  0
  9 26  2  0  0  0  0
 10 27  1  0  0  0  0
 11 12  2  0  0  0  0
 11 28  1  0  0  0  0
 12 30  1  0  0  0  0
 13 21  1  0  0  0  0
 13 27  2  0  0  0  0
 14 25  2  0  0  0  0
 14 29  1  0  0  0  0
 15 30  2  0  0  0  0
 15 31  1  0  0  0  0
 16 32  1  0  0  0  0
 17 32  1  0  0  0  0
 17 33  2  0  0  0  0
 17 34  1  0  0  0  0
 18 20  2  0  0  0  0
 18 39  1  0  0  0  0
 19 21  2  0  0  0  0
 19 40  1  0  0  0  0
 20 55  1  0  0  0  0
 21 42  1  0  0  0  0
 22 23  2  0  0  0  0
 22 24  1  0  0  0  0
 22 41  1  0  0  0  0
 23 25  1  0  0  0  0
 23 56  1  0  0  0  0
 24 29  2  0  0  0  0
 24 54  1  0  0  0  0
 25 59  1  0  0  0  0
 26 87  1  0  0  0  0
 27 89  1  0  0  0  0
 28 31  2  0  0  0  0
 28 87  1  0  0  0  0
 29 88  1  0  0  0  0
 30 90  1  0  0  0  0
 31 91  1  0  0  0  0
 32 71  2  0  0  0  0
 33 72  1  0  0  0  0
 33 76  1  0  0  0  0
 34 77  1  0  0  0  0
 34 82  2  0  0  0  0
 35 57  1  0  0  0  0
 35 78  1  0  0  0  0
 35 83  2  0  0  0  0
 36 68  1  0  0  0  0
 36 73  1  0  0  0  0
 36 84  2  0  0  0  0
 37 69  1  0  0  0  0
 37 79  1  0  0  0  0
 37 85  2  0  0  0  0
 38 74  1  0  0  0  0
 38 75  1  0  0  0  0
 38 86  2  0  0  0  0
 39 43  1  0  0  0  0
 40 57  1  0  0  0  0
 41 44  1  0  0  0  0
 42 73  1  0  0  0  0
 43 46  1  0  0  0  0
 44 56  1  0  0  0  0
 45 47  1  0  0  0  0
 45 50  1  0  0  0  0
 46 55  1  0  0  0  0
 47 58  1  0  0  0  0
 48 51  1  0  0  0  0
 48 54  1  0  0  0  0
 49 52  1  0  0  0  0
 49 54  1  0  0  0  0
 50 74  1  0  0  0  0
 51 75  1  0  0  0  0
 52 75  1  0  0  0  0
 53 58  1  0  0  0  0
 53 74  1  0  0  0  0
 55 78  1  0  0  0  0
 56 80  1  0  0  0  0
 57 73  1  0  0  0  0
 58 72  1  0  0  0  0
 60 69  1  0  0  0  0
 61 70  1  0  0  0  0
 62 70  1  0  0  0  0
 63 70  1  0  0  0  0
 64 81  1  0  0  0  0
 65 88  1  0  0  0  0
 66 67  1  0  0  0  0
 66 80  1  0  0  0  0
 67 89  1  0  0  0  0
 68 70  1  0  0  0  0
 68 79  1  0  0  0  0
 69 81  1  0  0  0  0
 71 72  1  0  0  0  0
M  CHG  2  80   1  81   1
M  ISO  4  38 100  67 101  75 100  89 101
M  END
> <Batch ID>
0157

> <Smiles>
CNC(C)C(=O)NC(C(=O)N1Cc2cc([101O:1][101CH2:1]CNC3CCc4c(C5CC[100N:0]([100C:0](=O)N6CCCC(n7nc(-c8ccc(Oc9ccc(F)cc9F)cc8)c(C(N)=O)c7N)C6)CC5)c(OC)cc(C)c43)ccc2CC1C(=O)NC1CCCc2ccccc21)C(C)(C)C

> <Shape>
0.237

> <Color>
0.116

> <Negative vol penalty>
0.000

$$$$

  -OEChem-04052321593D

 88 97  0     1  0  0  0  0  0999 V2000
  -17.4101  -24.6544   23.2687 C   0  0  0  0  0  0  0  0  0  0  0  0
  -18.6148  -24.4181   23.9232 C   0  0  0  0  0  0  0  0  0  0  0  0
  -24.3581   -9.9400   21.1133 C   0  0  0  0  0  0  0  0  0  0  0  0
  -24.9057  -10.7853   23.3094 C   0  0  0  0  0  0  0  0  0  0  0  0
  -17.3358  -25.6347   22.2801 C   0  0  0  0  0  0  0  0  0  0  0  0
  -19.7462  -25.1613   23.5886 C   0  0  0  0  0  0  0  0  0  0  0  0
  -22.2929  -26.7630   27.6622 C   0  0  0  0  0  0  0  0  0  0  0  0
  -24.0621   -8.6943   21.6666 C   0  0  0  0  0  0  0  0  0  0  0  0
  -24.6097   -9.5396   23.8627 C   0  0  0  0  0  0  0  0  0  0  0  0
  -23.1042  -25.8338   28.3119 C   0  0  0  0  0  0  0  0  0  0  0  0
  -21.5037   -7.2604   23.3494 C   0  0  0  0  0  0  0  0  0  0  0  0
  -20.3370   -6.6239   22.9263 C   0  0  0  0  0  0  0  0  0  0  0  0
  -29.0443  -20.7641   23.2096 C   0  0  0  0  0  0  0  0  0  0  0  0
  -25.0374  -26.7532   27.1998 C   0  0  0  0  0  0  0  0  0  0  0  0
  -26.8669  -20.0375   22.4012 C   0  0  0  0  0  0  0  0  0  0  0  0
  -21.6457   -4.7578   22.1249 C   0  0  0  0  0  0  0  0  0  0  0  0
  -24.7799  -10.9855   21.9347 C   0  0  0  0  0  0  0  0  0  0  0  0
  -24.2006  -13.3493   21.1702 C   0  0  0  0  0  0  0  0  0  0  0  0
  -18.4645  -26.3969   21.9400 C   0  0  0  0  0  0  0  0  0  0  0  0
  -22.8472  -27.6888   26.7666 C   0  0  0  0  0  0  0  0  0  0  0  0
  -19.6873  -26.1518   22.5936 C   0  0  0  0  0  0  0  0  0  0  0  0
  -28.4131  -21.2961   24.3203 C   0  0  0  0  0  0  0  0  0  0  0  0
  -24.2312  -27.6948   26.5420 C   0  0  0  0  0  0  0  0  0  0  0  0
  -27.0265  -21.2012   24.4782 C   0  0  0  0  0  0  0  0  0  0  0  0
  -28.2588  -20.1328   22.2426 C   0  0  0  0  0  0  0  0  0  0  0  0
  -24.1879   -8.4940   23.0413 C   0  0  0  0  0  0  0  0  0  0  0  0
  -24.4763  -25.8269   28.0786 C   0  0  0  0  0  0  0  0  0  0  0  0
  -22.7415   -6.6457   23.1602 C   0  0  0  0  0  0  0  0  0  0  0  0
  -26.2402  -20.5720   23.5290 C   0  0  0  0  0  0  0  0  0  0  0  0
  -20.4080   -5.3726   22.3141 C   0  0  0  0  0  0  0  0  0  0  0  0
  -22.8125   -5.3944   22.5480 C   0  0  0  0  0  0  0  0  0  0  0  0
  -25.0864  -12.2724   21.3637 C   0  0  0  0  0  0  0  0  0  0  0  0
  -24.9733  -14.3314   20.6004 C   0  0  0  0  0  0  0  0  0  0  0  0
  -22.8041  -13.4527   21.4782 C   0  0  0  0  0  0  0  0  0  0  0  0
  -22.5008  -28.2938   23.6654 C   0  0  0  0  0  0  0  0  0  0  0  0
  -24.4251  -30.8164   24.3406 C   0  0  0  0  0  0  0  0  0  0  0  0
  -26.7922  -32.1907   26.3790 C   0  0  0  0  0  0  0  0  0  0  0  0
  -29.6998  -17.2907   20.3801 C   0  0  0  0  0  0  0  0  0  0  0  0
  -18.3472  -27.4131   20.8317 C   0  0  0  0  0  0  0  0  0  0  0  0
  -21.9619  -28.7020   26.0942 C   0  0  0  0  0  0  0  0  0  0  0  0
  -24.8783  -28.6810   25.6054 C   0  0  0  0  0  0  0  0  0  0  0  0
  -29.0280  -21.9918   25.4879 C   0  0  0  0  0  0  0  0  0  0  0  0
  -26.6006  -21.8259   25.7642 C   0  0  0  0  0  0  0  0  0  0  0  0
  -19.4995  -28.4139   20.7985 C   0  0  0  0  0  0  0  0  0  0  0  0
  -29.6599  -14.1488   18.7057 C   0  0  0  0  0  0  0  0  0  0  0  0
  -20.8368  -27.6930   20.9356 C   0  0  0  0  0  0  0  0  0  0  0  0
  -28.3974  -13.4674   19.2366 C   0  0  0  0  0  0  0  0  0  0  0  0
  -30.3521  -14.9757   19.7870 C   0  0  0  0  0  0  0  0  0  0  0  0
  -28.2243  -15.2797   20.9928 C   0  0  0  0  0  0  0  0  0  0  0  0
  -20.9304  -26.9543   22.2761 C   0  0  1  0  0  0  0  0  0  0  0  0
  -22.5652  -29.2643   24.8107 C   0  0  1  0  0  0  0  0  0  0  0  0
  -27.4609  -14.4793   19.9239 C   0  0  2  0  0  0  0  0  0  0  0  0
  -28.4012  -20.1825   19.7249 C   0  0  0  0  0  0  0  0  0  0  0  0
  -28.1998  -34.2499   26.6542 C   0  0  0  0  0  0  0  0  0  0  0  0
  -29.2753  -23.2782   28.1221 C   0  0  0  0  0  0  0  0  0  0  0  0
  -26.2498  -29.8675   22.0866 C   0  0  0  0  0  0  0  0  0  0  0  0
  -28.0471  -31.3429   23.0144 C   0  0  0  0  0  0  0  0  0  0  0  0
  -25.9174  -32.3441   22.1871 C   0  0  0  0  0  0  0  0  0  0  0  0
  -25.5839  -32.8059   29.0096 C   0  0  0  0  0  0  0  0  0  0  0  0
  -24.1688  -19.8035   22.6489 C   0  0  0  0  0  0  0  0  0  0  0  0
  -26.7799  -23.0735   28.4557 C   0  0  0  0  0  0  0  0  0  0  0  0
  -26.4476  -24.4976   28.0241 C   0  0  0  0  0  0  0  0  0  1  0  0
  -28.9049  -19.5501   21.0300 C   0  0  2  0  0  0  0  0  0  0  0  0
  -25.9167  -31.0486   24.3582 C   0  0  1  0  0  0  0  0  0  0  0  0
  -26.8944  -33.5619   27.0222 C   0  0  2  0  0  0  0  0  0  0  0  0
  -28.0182  -22.4948   27.7684 C   0  0  1  0  0  0  0  0  0  0  0  0
  -26.5206  -31.1308   22.9278 C   0  0  0  0  0  0  0  0  0  0  0  0
  -26.3269  -12.5445   20.9501 N   0  0  0  0  0  0  0  0  0  0  0  0
  -26.2262  -13.8035   20.4911 N   0  0  0  0  0  0  0  0  0  0  0  0
  -23.9698  -29.6476   24.9671 N   0  0  0  0  0  0  0  0  0  0  0  0
  -29.4098  -15.9164   20.3978 N   0  0  0  0  0  0  0  0  0  0  0  0
  -24.6966  -15.5864   20.1871 N   0  0  0  0  0  0  0  0  0  0  0  0
  -22.1651  -12.3499   22.0612 N   0  0  0  0  0  0  0  0  0  0  0  0
  -21.2202  -27.8842   23.3464 N   0  0  0  0  0  0  0  0  0  0  0  0
  -26.1344  -32.2423   25.1682 N   0  0  0  0  0  0  0  0  0  0  0  0
  -28.7511  -18.1134   20.9750 N   0  0  0  0  0  0  0  0  0  0  0  0
  -27.8463  -22.5458   26.2898 N   0  3  1  0  0  0  0  0  0  0  0  0
  -26.8274  -33.4441   28.5064 N   0  3  0  0  0  0  0  0  0  0  0  0
  -22.1388  -14.4863   21.2283 O   0  0  0  0  0  0  0  0  0  0  0  0
  -23.5361  -27.9438   23.1111 O   0  0  0  0  0  0  0  0  0  0  0  0
  -23.6905  -31.6452   23.7974 O   0  0  0  0  0  0  0  0  0  0  0  0
  -27.2533  -31.1759   26.8969 O   0  0  0  0  0  0  0  0  0  0  0  0
  -30.7255  -17.7509   19.8671 O   0  0  0  0  0  0  0  0  0  0  0  0
  -23.8989   -7.2787   23.5816 O   0  0  0  0  0  0  0  0  0  0  0  0
  -24.8955  -20.4706   23.6822 O   0  0  0  0  0  0  0  0  0  0  0  0
  -25.2704  -24.9206   28.7109 O   0  0  0  0  0  0  0  0  0  1  0  0
  -19.2873   -4.7607   21.9092 F   0  0  0  0  0  0  0  0  0  0  0  0
  -23.9986   -4.7984   22.3646 F   0  0  0  0  0  0  0  0  0  0  0  0
  1  2  1  0  0  0  0
  1  5  2  0  0  0  0
  2  6  2  0  0  0  0
  3  8  2  0  0  0  0
  3 17  1  0  0  0  0
  4  9  1  0  0  0  0
  4 17  2  0  0  0  0
  5 19  1  0  0  0  0
  6 21  1  0  0  0  0
  7 10  2  0  0  0  0
  7 20  1  0  0  0  0
  8 26  1  0  0  0  0
  9 26  2  0  0  0  0
 10 27  1  0  0  0  0
 11 12  2  0  0  0  0
 11 28  1  0  0  0  0
 12 30  1  0  0  0  0
 13 22  1  0  0  0  0
 13 25  2  0  0  0  0
 14 23  1  0  0  0  0
 14 27  2  0  0  0  0
 15 25  1  0  0  0  0
 15 29  2  0  0  0  0
 16 30  2  0  0  0  0
 16 31  1  0  0  0  0
 17 32  1  0  0  0  0
 18 32  1  0  0  0  0
 18 33  2  0  0  0  0
 18 34  1  0  0  0  0
 19 21  2  0  0  0  0
 19 39  1  0  0  0  0
 20 23  2  0  0  0  0
 20 40  1  0  0  0  0
 21 50  1  0  0  0  0
 22 24  2  0  0  0  0
 22 42  1  0  0  0  0
 23 41  1  0  0  0  0
 24 29  1  0  0  0  0
 24 43  1  0  0  0  0
 25 63  1  0  0  0  0
 26 84  1  0  0  0  0
 27 86  1  0  0  0  0
 28 31  2  0  0  0  0
 28 84  1  0  0  0  0
 29 85  1  0  0  0  0
 30 87  1  0  0  0  0
 31 88  1  0  0  0  0
 32 68  2  0  0  0  0
 33 69  1  0  0  0  0
 33 72  1  0  0  0  0
 34 73  1  0  0  0  0
 34 79  2  0  0  0  0
 35 51  1  0  0  0  0
 35 74  1  0  0  0  0
 35 80  2  0  0  0  0
 36 64  1  0  0  0  0
 36 70  1  0  0  0  0
 36 81  2  0  0  0  0
 37 65  1  0  0  0  0
 37 75  1  0  0  0  0
 37 82  2  0  0  0  0
 38 71  1  0  0  0  0
 38 76  1  0  0  0  0
 38 83  2  0  0  0  0
 39 44  1  0  0  0  0
 40 51  1  0  0  0  0
 41 70  1  0  0  0  0
 42 77  1  0  0  0  0
 43 77  1  0  0  0  0
 44 46  1  0  0  0  0
 45 47  1  0  0  0  0
 45 48  1  0  0  0  0
 46 50  1  0  0  0  0
 47 52  1  0  0  0  0
 48 71  1  0  0  0  0
 49 52  1  0  0  0  0
 49 71  1  0  0  0  0
 50 74  1  0  0  0  0
 51 70  1  0  0  0  0
 52 69  1  0  0  0  0
 53 63  1  0  0  0  0
 54 65  1  0  0  0  0
 55 66  1  0  0  0  0
 56 67  1  0  0  0  0
 57 67  1  0  0  0  0
 58 67  1  0  0  0  0
 59 78  1  0  0  0  0
 60 85  1  0  0  0  0
 61 62  1  0  0  0  0
 61 66  1  0  0  0  0
 62 86  1  0  0  0  0
 63 76  1  0  0  0  0
 64 67  1  0  0  0  0
 64 75  1  0  0  0  0
 65 78  1  0  0  0  0
 66 77  1  0  0  0  0
 68 69  1  0  0  0  0
M  CHG  2  77   1  78   1
M  ISO  4  38 100  62 101  76 100  86 101
M  END
> <Batch ID>
0157

> <Smiles>
CNC(C)C(=O)NC(C(=O)N1Cc2cc([101O:1][101CH2:1]CC(C)N3Cc4cc(C(C)[100NH:0][100C:0](=O)N5CCCC(n6nc(-c7ccc(Oc8ccc(F)cc8F)cc7)c(C(N)=O)c6N)C5)cc(OC)c4C3)ccc2CC1C(=O)NC1CCCc2ccccc21)C(C)(C)C

> <Shape>
0.266

> <Color>
0.118

> <Negative vol penalty>
0.000

$$$$

  -OEChem-04052321593D

 86 96  0     1  0  0  0  0  0999 V2000
  -21.0771  -31.8648   15.9751 C   0  0  0  0  0  0  0  0  0  0  0  0
  -22.3389  -31.4406   16.3792 C   0  0  0  0  0  0  0  0  0  0  0  0
  -24.3428   -9.0226   21.4491 C   0  0  0  0  0  0  0  0  0  0  0  0
  -24.4272  -10.5146   23.3475 C   0  0  0  0  0  0  0  0  0  0  0  0
  -20.2091  -32.4455   16.8989 C   0  0  0  0  0  0  0  0  0  0  0  0
  -22.7339  -31.5978   17.7072 C   0  0  0  0  0  0  0  0  0  0  0  0
  -24.9936  -27.4639   19.5645 C   0  0  0  0  0  0  0  0  0  0  0  0
  -24.0086   -7.9651   22.2951 C   0  0  0  0  0  0  0  0  0  0  0  0
  -24.0930   -9.4572   24.1935 C   0  0  0  0  0  0  0  0  0  0  0  0
  -26.3225  -27.2477   19.2024 C   0  0  0  0  0  0  0  0  0  0  0  0
  -22.7797   -4.9493   23.9105 C   0  0  0  0  0  0  0  0  0  0  0  0
  -21.7476   -4.1003   23.5109 C   0  0  0  0  0  0  0  0  0  0  0  0
  -27.7785  -23.3462   20.5670 C   0  0  0  0  0  0  0  0  0  0  0  0
  -30.1162  -22.7981   20.8343 C   0  0  0  0  0  0  0  0  0  0  0  0
  -27.0401  -28.1421   21.3247 C   0  0  0  0  0  0  0  0  0  0  0  0
  -20.2191   -5.9711   23.4843 C   0  0  0  0  0  0  0  0  0  0  0  0
  -24.5522  -10.2973   21.9753 C   0  0  0  0  0  0  0  0  0  0  0  0
  -24.0134  -12.2698   20.4500 C   0  0  0  0  0  0  0  0  0  0  0  0
  -20.5901  -32.6012   18.2410 C   0  0  0  0  0  0  0  0  0  0  0  0
  -24.6779  -28.0319   20.8071 C   0  0  0  0  0  0  0  0  0  0  0  0
  -21.8707  -32.1824   18.6496 C   0  0  0  0  0  0  0  0  0  0  0  0
  -29.1087  -23.7503   20.6799 C   0  0  0  0  0  0  0  0  0  0  0  0
  -25.7063  -28.3621   21.7012 C   0  0  0  0  0  0  0  0  0  0  0  0
  -28.4632  -21.0376   20.7631 C   0  0  0  0  0  0  0  0  0  0  0  0
  -27.4557  -21.9898   20.6087 C   0  0  0  0  0  0  0  0  0  0  0  0
  -29.7935  -21.4417   20.8759 C   0  0  0  0  0  0  0  0  0  0  0  0
  -23.8837   -8.1824   23.6673 C   0  0  0  0  0  0  0  0  0  0  0  0
  -27.3461  -27.5894   20.0813 C   0  0  0  0  0  0  0  0  0  0  0  0
  -22.5315   -6.3092   24.0971 C   0  0  0  0  0  0  0  0  0  0  0  0
  -20.4673   -4.6112   23.2978 C   0  0  0  0  0  0  0  0  0  0  0  0
  -21.2512   -6.8201   23.8839 C   0  0  0  0  0  0  0  0  0  0  0  0
  -24.8980  -11.3900   21.1020 C   0  0  0  0  0  0  0  0  0  0  0  0
  -24.8311  -13.1200   19.7465 C   0  0  0  0  0  0  0  0  0  0  0  0
  -22.5806  -12.3147   20.4779 C   0  0  0  0  0  0  0  0  0  0  0  0
  -23.2174  -30.6926   21.7512 C   0  0  0  0  0  0  0  0  0  0  0  0
  -23.5438  -29.3643   24.6925 C   0  0  0  0  0  0  0  0  0  0  0  0
  -25.2246  -27.1954   26.7216 C   0  0  0  0  0  0  0  0  0  0  0  0
  -29.3788  -16.3356   19.4715 C   0  0  0  0  0  0  0  0  0  0  0  0
  -19.6355  -33.2776   19.1928 C   0  0  0  0  0  0  0  0  0  0  0  0
  -23.2384  -28.2341   21.1936 C   0  0  0  0  0  0  0  0  0  0  0  0
  -25.4195  -28.9559   23.0554 C   0  0  0  0  0  0  0  0  0  0  0  0
  -19.9891  -33.0665   20.6627 C   0  0  0  0  0  0  0  0  0  0  0  0
  -29.7682  -12.8975   18.7573 C   0  0  0  0  0  0  0  0  0  0  0  0
  -21.4781  -33.3043   20.8930 C   0  0  0  0  0  0  0  0  0  0  0  0
  -28.4837  -12.2574   19.2766 C   0  0  0  0  0  0  0  0  0  0  0  0
  -28.5394  -18.7903   22.0646 C   0  0  0  0  0  0  0  0  0  0  0  0
  -30.4648  -25.6820   19.6284 C   0  0  0  0  0  0  0  0  0  0  0  0
  -30.2218  -14.0232   19.6770 C   0  0  0  0  0  0  0  0  0  0  0  0
  -28.4204  -17.3368   21.6264 C   0  0  0  0  0  0  0  0  0  0  0  0
  -28.7616  -18.7226   19.7015 C   0  0  0  0  0  0  0  0  0  0  0  0
  -27.8833  -14.4829   20.3626 C   0  0  0  0  0  0  0  0  0  0  0  0
  -29.4534  -25.1994   20.6360 C   0  0  1  0  0  0  0  0  0  0  0  0
  -28.1132  -19.5666   20.8079 C   0  0  2  0  0  0  0  0  0  0  0  0
  -22.3263  -32.3132   20.0867 C   0  0  1  0  0  0  0  0  0  0  0  0
  -23.0533  -29.2940   22.2751 C   0  0  1  0  0  0  0  0  0  0  0  0
  -27.3917  -13.3197   19.4765 C   0  0  2  0  0  0  0  0  0  0  0  0
  -29.0166  -26.0200   19.4471 C   0  0  1  0  0  0  0  0  0  1  0  0
  -26.0237  -21.5834   20.4855 C   0  0  0  0  0  0  0  0  0  0  0  0
  -30.8909  -20.4422   21.0425 C   0  0  0  0  0  0  0  0  0  0  0  0
  -25.2859  -26.3546   29.0853 C   0  0  0  0  0  0  0  0  0  0  0  0
  -24.8830  -31.9590   25.5782 C   0  0  0  0  0  0  0  0  0  0  0  0
  -25.7519  -30.7432   27.5870 C   0  0  0  0  0  0  0  0  0  0  0  0
  -23.2928  -30.9843   27.2442 C   0  0  0  0  0  0  0  0  0  0  0  0
  -24.6589  -24.4177   25.8710 C   0  0  0  0  0  0  0  0  0  0  0  0
  -24.6002  -29.3998   25.7703 C   0  0  1  0  0  0  0  0  0  0  0  0
  -24.7324  -26.1317   27.6864 C   0  0  2  0  0  0  0  0  0  0  0  0
  -24.6378  -30.7622   26.5187 C   0  0  0  0  0  0  0  0  0  0  0  0
  -26.1795  -11.6565   20.8362 N   0  0  0  0  0  0  0  0  0  0  0  0
  -26.1061  -12.7133   20.0093 N   0  0  0  0  0  0  0  0  0  0  0  0
  -23.9964  -29.1402   23.3846 N   0  0  0  0  0  0  0  0  0  0  0  0
  -29.1655  -15.0156   19.8838 N   0  0  0  0  0  0  0  0  0  0  0  0
  -28.7777  -17.3546   20.2094 N   0  0  0  0  0  0  0  0  0  0  0  0
  -24.5767  -14.1683   18.9348 N   0  0  0  0  0  0  0  0  0  0  0  0
  -21.8974  -11.3670   21.2522 N   0  0  0  0  0  0  0  0  0  0  0  0
  -22.3417  -31.0185   20.7331 N   0  0  0  0  0  0  0  0  0  0  0  0
  -24.3425  -28.2514   26.6324 N   0  0  0  0  0  0  0  0  0  0  0  0
  -25.1534  -24.7788   27.2245 N   0  3  0  0  0  0  0  0  0  0  0  0
  -21.9250  -13.1596   19.8222 O   0  0  0  0  0  0  0  0  0  0  0  0
  -24.0741  -31.4227   22.2357 O   0  0  0  0  0  0  0  0  0  0  0  0
  -22.3599  -29.5223   25.0007 O   0  0  0  0  0  0  0  0  0  0  0  0
  -26.2871  -27.1008   26.1113 O   0  0  0  0  0  0  0  0  0  0  0  0
  -30.1108  -16.5976   18.5074 O   0  0  0  0  0  0  0  0  0  0  0  0
  -23.5574   -7.1508   24.4930 O   0  0  0  0  0  0  0  0  0  0  0  0
  -28.6467  -27.3795   19.7294 O   0  0  0  0  0  0  0  0  0  1  0  0
  -19.4767   -3.7962   22.9125 F   0  0  0  0  0  0  0  0  0  0  0  0
  -21.0069   -8.1258   24.0604 F   0  0  0  0  0  0  0  0  0  0  0  0
  1  2  1  0  0  0  0
  1  5  2  0  0  0  0
  2  6  2  0  0  0  0
  3  8  2  0  0  0  0
  3 17  1  0  0  0  0
  4  9  1  0  0  0  0
  4 17  2  0  0  0  0
  5 19  1  0  0  0  0
  6 21  1  0  0  0  0
  7 10  2  0  0  0  0
  7 20  1  0  0  0  0
  8 27  1  0  0  0  0
  9 27  2  0  0  0  0
 10 28  1  0  0  0  0
 11 12  2  0  0  0  0
 11 29  1  0  0  0  0
 12 30  1  0  0  0  0
 13 22  1  0  0  0  0
 13 25  2  0  0  0  0
 14 22  2  0  0  0  0
 14 26  1  0  0  0  0
 15 23  1  0  0  0  0
 15 28  2  0  0  0  0
 16 30  2  0  0  0  0
 16 31  1  0  0  0  0
 17 32  1  0  0  0  0
 18 32  1  0  0  0  0
 18 33  2  0  0  0  0
 18 34  1  0  0  0  0
 19 21  2  0  0  0  0
 19 39  1  0  0  0  0
 20 23  2  0  0  0  0
 20 40  1  0  0  0  0
 21 54  1  0  0  0  0
 22 52  1  0  0  0  0
 23 41  1  0  0  0  0
 24 25  1  0  0  0  0
 24 26  2  0  0  0  0
 24 53  1  0  0  0  0
 25 58  1  0  0  0  0
 26 59  1  0  0  0  0
 27 83  1  0  0  0  0
 28 84  1  0  0  0  0
 29 31  2  0  0  0  0
 29 83  1  0  0  0  0
 30 85  1  0  0  0  0
 31 86  1  0  0  0  0
 32 68  2  0  0  0  0
 33 69  1  0  0  0  0
 33 73  1  0  0  0  0
 34 74  1  0  0  0  0
 34 78  2  0  0  0  0
 35 55  1  0  0  0  0
 35 75  1  0  0  0  0
 35 79  2  0  0  0  0
 36 65  1  0  0  0  0
 36 70  1  0  0  0  0
 36 80  2  0  0  0  0
 37 66  1  0  0  0  0
 37 76  1  0  0  0  0
 37 81  2  0  0  0  0
 38 71  1  0  0  0  0
 38 72  1  0  0  0  0
 38 82  2  0  0  0  0
 39 42  1  0  0  0  0
 40 55  1  0  0  0  0
 41 70  1  0  0  0  0
 42 44  1  0  0  0  0
 43 45  1  0  0  0  0
 43 48  1  0  0  0  0
 44 54  1  0  0  0  0
 45 56  1  0  0  0  0
 46 49  1  0  0  0  0
 46 53  1  0  0  0  0
 47 52  1  0  0  0  0
 47 57  1  0  0  0  0
 48 71  1  0  0  0  0
 49 72  1  0  0  0  0
 50 53  1  0  0  0  0
 50 72  1  0  0  0  0
 51 56  1  0  0  0  0
 51 71  1  0  0  0  0
 52 57  1  0  0  0  0
 54 75  1  0  0  0  0
 55 70  1  0  0  0  0
 56 69  1  0  0  0  0
 57 84  1  0  0  0  0
 60 66  1  0  0  0  0
 61 67  1  0  0  0  0
 62 67  1  0  0  0  0
 63 67  1  0  0  0  0
 64 77  1  0  0  0  0
 65 67  1  0  0  0  0
 65 76  1  0  0  0  0
 66 77  1  0  0  0  0
 68 69  1  0  0  0  0
M  CHG  1  77   1
M  ISO  4  38 100  57 101  72 100  84 101
M  END
> <Batch ID>
0157

> <Smiles>
CNC(C)C(=O)NC(C(=O)N1Cc2cc([101O:1][101CH:1]3CC3c3cc(C)c(C4CC[100N:0]([100C:0](=O)N5CCCC(n6nc(-c7ccc(Oc8ccc(F)cc8F)cc7)c(C(N)=O)c6N)C5)C4)c(C)c3)ccc2CC1C(=O)NC1CCCc2ccccc21)C(C)(C)C

> <Shape>
0.289

> <Color>
0.094

> <Negative vol penalty>
0.000

$$$$

  -OEChem-04052321593D

 86 95  0     1  0  0  0  0  0999 V2000
  -31.3916  -26.5124   16.9367 C   0  0  0  0  0  0  0  0  0  0  0  0
  -30.0388  -26.2180   17.0735 C   0  0  0  0  0  0  0  0  0  0  0  0
  -26.4944  -15.5767   21.0130 C   0  0  0  0  0  0  0  0  0  0  0  0
  -24.1550  -15.1298   21.4188 C   0  0  0  0  0  0  0  0  0  0  0  0
  -32.0828  -27.1136   17.9877 C   0  0  0  0  0  0  0  0  0  0  0  0
  -29.3767  -26.5238   18.2620 C   0  0  0  0  0  0  0  0  0  0  0  0
  -23.5597  -28.3389   18.8736 C   0  0  0  0  0  0  0  0  0  0  0  0
  -26.7071  -14.2236   20.7492 C   0  0  0  0  0  0  0  0  0  0  0  0
  -24.3677  -13.7767   21.1550 C   0  0  0  0  0  0  0  0  0  0  0  0
  -22.3929  -27.6522   19.2062 C   0  0  0  0  0  0  0  0  0  0  0  0
  -25.6242  -11.0897   22.7774 C   0  0  0  0  0  0  0  0  0  0  0  0
  -25.0517  -10.1620   23.6475 C   0  0  0  0  0  0  0  0  0  0  0  0
  -22.6559  -28.3314   21.5060 C   0  0  0  0  0  0  0  0  0  0  0  0
  -20.4618  -23.4465   23.0693 C   0  0  0  0  0  0  0  0  0  0  0  0
  -18.8889  -23.2673   25.3664 C   0  0  0  0  0  0  0  0  0  0  0  0
  -23.7929   -9.2189   21.8136 C   0  0  0  0  0  0  0  0  0  0  0  0
  -25.2183  -16.0298   21.3479 C   0  0  0  0  0  0  0  0  0  0  0  0
  -24.6462  -18.4290   20.6966 C   0  0  0  0  0  0  0  0  0  0  0  0
  -31.4266  -27.4357   19.1861 C   0  0  0  0  0  0  0  0  0  0  0  0
  -24.2906  -29.0191   19.8583 C   0  0  0  0  0  0  0  0  0  0  0  0
  -30.0601  -27.1287   19.3306 C   0  0  0  0  0  0  0  0  0  0  0  0
  -23.8303  -29.0281   21.1828 C   0  0  0  0  0  0  0  0  0  0  0  0
  -19.5704  -24.4716   23.3859 C   0  0  0  0  0  0  0  0  0  0  0  0
  -18.7839  -24.3820   24.5344 C   0  0  0  0  0  0  0  0  0  0  0  0
  -25.6438  -13.3236   20.8202 C   0  0  0  0  0  0  0  0  0  0  0  0
  -21.9424  -27.6459   20.5231 C   0  0  0  0  0  0  0  0  0  0  0  0
  -25.2810  -11.0821   21.4254 C   0  0  0  0  0  0  0  0  0  0  0  0
  -20.5667  -22.3318   23.9012 C   0  0  0  0  0  0  0  0  0  0  0  0
  -19.7802  -22.2422   25.0497 C   0  0  0  0  0  0  0  0  0  0  0  0
  -24.1360   -9.2266   23.1656 C   0  0  0  0  0  0  0  0  0  0  0  0
  -24.3654  -10.1467   20.9435 C   0  0  0  0  0  0  0  0  0  0  0  0
  -24.9981  -17.4273   21.6210 C   0  0  0  0  0  0  0  0  0  0  0  0
  -24.5570  -19.5746   21.4490 C   0  0  0  0  0  0  0  0  0  0  0  0
  -24.4200  -18.3325   19.2841 C   0  0  0  0  0  0  0  0  0  0  0  0
  -27.2276  -28.7665   21.0474 C   0  0  0  0  0  0  0  0  0  0  0  0
  -26.3918  -31.4621   22.6465 C   0  0  0  0  0  0  0  0  0  0  0  0
  -23.9042  -33.4319   23.9028 C   0  0  0  0  0  0  0  0  0  0  0  0
  -23.4633  -20.5668   27.2516 C   0  0  0  0  0  0  0  0  0  0  0  0
  -32.2267  -28.0419   20.3117 C   0  0  0  0  0  0  0  0  0  0  0  0
  -25.5328  -29.7774   19.4784 C   0  0  0  0  0  0  0  0  0  0  0  0
  -24.5674  -29.7598   22.2735 C   0  0  0  0  0  0  0  0  0  0  0  0
  -31.3639  -28.6752   21.4002 C   0  0  0  0  0  0  0  0  0  0  0  0
  -26.3253  -21.6034   25.4047 C   0  0  0  0  0  0  0  0  0  0  0  0
  -30.2237  -27.7396   21.7894 C   0  0  0  0  0  0  0  0  0  0  0  0
  -26.2779  -20.7410   24.1422 C   0  0  0  0  0  0  0  0  0  0  0  0
  -19.6697  -27.0324   23.0565 C   0  0  0  0  0  0  0  0  0  0  0  0
  -25.8473  -20.8323   26.6331 C   0  0  0  0  0  0  0  0  0  0  0  0
  -24.4718  -19.3440   25.2307 C   0  0  0  0  0  0  0  0  0  0  0  0
  -19.4741  -25.6466   22.4873 C   0  0  1  0  0  0  0  0  0  0  0  0
  -29.3011  -27.4677   20.5951 C   0  0  1  0  0  0  0  0  0  0  0  0
  -26.4760  -30.0071   20.6553 C   0  0  1  0  0  0  0  0  0  0  0  0
  -24.8917  -20.0954   23.9558 C   0  0  2  0  0  0  0  0  0  0  0  0
  -20.7228  -26.4401   22.1707 C   0  0  1  0  0  0  0  0  0  1  0  0
  -17.8241  -25.4671   24.8977 C   0  0  0  0  0  0  0  0  0  0  0  0
  -23.5319  -35.5521   25.1927 C   0  0  0  0  0  0  0  0  0  0  0  0
  -27.1962  -30.0346   25.2205 C   0  0  0  0  0  0  0  0  0  0  0  0
  -25.9409  -31.7825   26.4999 C   0  0  0  0  0  0  0  0  0  0  0  0
  -27.8968  -32.4321   25.0945 C   0  0  0  0  0  0  0  0  0  0  0  0
  -22.4066  -34.6655   21.6680 C   0  0  0  0  0  0  0  0  0  0  0  0
  -20.9483  -20.2791   22.7626 C   0  0  0  0  0  0  0  0  0  0  0  0
  -21.0555  -20.2109   27.7362 C   0  0  0  0  0  0  0  0  0  0  0  0
  -20.2639  -21.3993   27.2203 C   0  0  0  0  0  0  0  0  0  0  0  0
  -25.7337  -31.7579   23.9726 C   0  0  1  0  0  0  0  0  0  0  0  0
  -23.6608  -34.9276   23.8121 C   0  0  2  0  0  0  0  0  0  0  0  0
  -26.6788  -31.4863   25.1769 C   0  0  0  0  0  0  0  0  0  0  0  0
  -25.1240  -17.8954   22.8656 N   0  0  0  0  0  0  0  0  0  0  0  0
  -24.8498  -19.2039   22.7285 N   0  0  0  0  0  0  0  0  0  0  0  0
  -25.7800  -30.4812   21.8532 N   0  0  0  0  0  0  0  0  0  0  0  0
  -24.5266  -20.2465   26.3914 N   0  0  0  0  0  0  0  0  0  0  0  0
  -24.2575  -20.8527   21.1344 N   0  0  0  0  0  0  0  0  0  0  0  0
  -24.5535  -17.0797   18.6700 N   0  0  0  0  0  0  0  0  0  0  0  0
  -28.4199  -28.5935   20.3706 N   0  0  0  0  0  0  0  0  0  0  0  0
  -25.2499  -33.1318   23.8907 N   0  0  0  0  0  0  0  0  0  0  0  0
  -22.2441  -19.9737   26.9477 N   0  0  0  0  0  0  0  0  0  0  0  0
  -22.4084  -35.2034   23.0528 N   0  3  0  0  0  0  0  0  0  0  0  0
  -24.1248  -19.3308   18.5843 O   0  0  0  0  0  0  0  0  0  0  0  0
  -26.7610  -28.0221   21.9018 O   0  0  0  0  0  0  0  0  0  0  0  0
  -27.4071  -32.0837   22.3233 O   0  0  0  0  0  0  0  0  0  0  0  0
  -22.9918  -32.6121   23.9808 O   0  0  0  0  0  0  0  0  0  0  0  0
  -23.5899  -21.3293   28.2157 O   0  0  0  0  0  0  0  0  0  0  0  0
  -25.8509  -12.0033   20.5626 O   0  0  0  0  0  0  0  0  0  0  0  0
  -20.8041  -26.9759   20.8506 O   0  0  0  0  0  0  0  0  0  1  0  0
  -21.4412  -21.3370   23.5822 O   0  0  0  0  0  0  0  0  0  0  0  0
  -19.8737  -21.1583   25.8699 O   0  0  0  0  0  0  0  0  0  0  0  0
  -23.5874   -8.3348   24.0010 F   0  0  0  0  0  0  0  0  0  0  0  0
  -24.0327  -10.1337   19.6454 F   0  0  0  0  0  0  0  0  0  0  0  0
  1  2  1  0  0  0  0
  1  5  2  0  0  0  0
  2  6  2  0  0  0  0
  3  8  2  0  0  0  0
  3 17  1  0  0  0  0
  4  9  1  0  0  0  0
  4 17  2  0  0  0  0
  5 19  1  0  0  0  0
  6 21  1  0  0  0  0
  7 10  2  0  0  0  0
  7 20  1  0  0  0  0
  8 25  1  0  0  0  0
  9 25  2  0  0  0  0
 10 26  1  0  0  0  0
 11 12  2  0  0  0  0
 11 27  1  0  0  0  0
 12 30  1  0  0  0  0
 13 22  1  0  0  0  0
 13 26  2  0  0  0  0
 14 23  1  0  0  0  0
 14 28  2  0  0  0  0
 15 24  1  0  0  0  0
 15 29  2  0  0  0  0
 16 30  2  0  0  0  0
 16 31  1  0  0  0  0
 17 32  1  0  0  0  0
 18 32  1  0  0  0  0
 18 33  2  0  0  0  0
 18 34  1  0  0  0  0
 19 21  2  0  0  0  0
 19 39  1  0  0  0  0
 20 22  2  0  0  0  0
 20 40  1  0  0  0  0
 21 50  1  0  0  0  0
 22 41  1  0  0  0  0
 23 24  2  0  0  0  0
 23 49  1  0  0  0  0
 24 54  1  0  0  0  0
 25 81  1  0  0  0  0
 26 82  1  0  0  0  0
 27 31  2  0  0  0  0
 27 81  1  0  0  0  0
 28 29  1  0  0  0  0
 28 83  1  0  0  0  0
 29 84  1  0  0  0  0
 30 85  1  0  0  0  0
 31 86  1  0  0  0  0
 32 66  2  0  0  0  0
 33 67  1  0  0  0  0
 33 70  1  0  0  0  0
 34 71  1  0  0  0  0
 34 76  2  0  0  0  0
 35 51  1  0  0  0  0
 35 72  1  0  0  0  0
 35 77  2  0  0  0  0
 36 63  1  0  0  0  0
 36 68  1  0  0  0  0
 36 78  2  0  0  0  0
 37 64  1  0  0  0  0
 37 73  1  0  0  0  0
 37 79  2  0  0  0  0
 38 69  1  0  0  0  0
 38 74  1  0  0  0  0
 38 80  2  0  0  0  0
 39 42  1  0  0  0  0
 40 51  1  0  0  0  0
 41 68  1  0  0  0  0
 42 44  1  0  0  0  0
 43 45  1  0  0  0  0
 43 47  1  0  0  0  0
 44 50  1  0  0  0  0
 45 52  1  0  0  0  0
 46 49  1  0  0  0  0
 46 53  1  0  0  0  0
 47 69  1  0  0  0  0
 48 52  1  0  0  0  0
 48 69  1  0  0  0  0
 49 53  1  0  0  0  0
 50 72  1  0  0  0  0
 51 68  1  0  0  0  0
 52 67  1  0  0  0  0
 53 82  1  0  0  0  0
 55 64  1  0  0  0  0
 56 65  1  0  0  0  0
 57 65  1  0  0  0  0
 58 65  1  0  0  0  0
 59 75  1  0  0  0  0
 60 83  1  0  0  0  0
 61 62  1  0  0  0  0
 61 74  1  0  0  0  0
 62 84  1  0  0  0  0
 63 65  1  0  0  0  0
 63 73  1  0  0  0  0
 64 75  1  0  0  0  0
 66 67  1  0  0  0  0
M  CHG  1  75   1
M  ISO  4  38 100  53 101  74 100  82 101
M  END
> <Batch ID>
0157

> <Smiles>
CNC(C)C(=O)NC(C(=O)N1Cc2cc([101O:1][101CH:1]3CC3c3cc(OC)c(OCC[100NH:0][100C:0](=O)N4CCCC(n5nc(-c6ccc(Oc7ccc(F)cc7F)cc6)c(C(N)=O)c5N)C4)cc3C)ccc2CC1C(=O)NC1CCCc2ccccc21)C(C)(C)C

> <Shape>
0.231

> <Color>
0.069

> <Negative vol penalty>
0.000

$$$$

  -OEChem-04052321593D

 86 95  0     1  0  0  0  0  0999 V2000
  -26.6408  -38.3685   19.0996 C   0  0  0  0  0  0  0  0  0  0  0  0
  -27.0330  -37.1692   18.5138 C   0  0  0  0  0  0  0  0  0  0  0  0
  -24.6209   -8.9253   21.9089 C   0  0  0  0  0  0  0  0  0  0  0  0
  -23.1209   -9.6958   20.1788 C   0  0  0  0  0  0  0  0  0  0  0  0
  -26.3243  -38.4094   20.4568 C   0  0  0  0  0  0  0  0  0  0  0  0
  -27.1101  -36.0102   19.2853 C   0  0  0  0  0  0  0  0  0  0  0  0
  -26.1926  -28.9210   18.8175 C   0  0  0  0  0  0  0  0  0  0  0  0
  -23.5619   -8.2671   22.5340 C   0  0  0  0  0  0  0  0  0  0  0  0
  -22.0618   -9.0375   20.8039 C   0  0  0  0  0  0  0  0  0  0  0  0
  -26.8610  -27.7282   19.0898 C   0  0  0  0  0  0  0  0  0  0  0  0
  -21.8296   -5.3916   22.1297 C   0  0  0  0  0  0  0  0  0  0  0  0
  -22.0493   -4.0886   22.5764 C   0  0  0  0  0  0  0  0  0  0  0  0
  -26.2141  -27.9018   21.4073 C   0  0  0  0  0  0  0  0  0  0  0  0
  -30.5665  -22.9963   21.2375 C   0  0  0  0  0  0  0  0  0  0  0  0
  -21.5442   -4.7781   24.8362 C   0  0  0  0  0  0  0  0  0  0  0  0
  -24.4004   -9.6397   20.7313 C   0  0  0  0  0  0  0  0  0  0  0  0
  -26.3583   -9.7996   19.1038 C   0  0  0  0  0  0  0  0  0  0  0  0
  -26.3881  -37.2483   21.2432 C   0  0  0  0  0  0  0  0  0  0  0  0
  -25.5380  -29.6200   19.8419 C   0  0  0  0  0  0  0  0  0  0  0  0
  -26.7954  -36.0359   20.6546 C   0  0  0  0  0  0  0  0  0  0  0  0
  -25.5360  -29.1019   21.1449 C   0  0  0  0  0  0  0  0  0  0  0  0
  -29.9785  -24.1800   20.7917 C   0  0  0  0  0  0  0  0  0  0  0  0
  -29.9803  -21.7681   20.9317 C   0  0  0  0  0  0  0  0  0  0  0  0
  -28.8043  -24.1355   20.0402 C   0  0  0  0  0  0  0  0  0  0  0  0
  -28.2180  -22.9073   19.7345 C   0  0  0  0  0  0  0  0  0  0  0  0
  -28.8061  -21.7236   20.1802 C   0  0  0  0  0  0  0  0  0  0  0  0
  -22.2823   -8.3232   21.9815 C   0  0  0  0  0  0  0  0  0  0  0  0
  -26.8743  -27.2199   20.3854 C   0  0  0  0  0  0  0  0  0  0  0  0
  -21.4673   -6.3879   23.0363 C   0  0  0  0  0  0  0  0  0  0  0  0
  -21.9066   -3.7818   23.9296 C   0  0  0  0  0  0  0  0  0  0  0  0
  -21.3245   -6.0811   24.3895 C   0  0  0  0  0  0  0  0  0  0  0  0
  -25.4939  -10.3203   20.0854 C   0  0  0  0  0  0  0  0  0  0  0  0
  -27.2166  -10.8334   18.8188 C   0  0  0  0  0  0  0  0  0  0  0  0
  -26.3831   -8.4980   18.5032 C   0  0  0  0  0  0  0  0  0  0  0  0
  -25.8603  -32.4965   21.1557 C   0  0  0  0  0  0  0  0  0  0  0  0
  -23.1684  -31.6406   22.7505 C   0  0  0  0  0  0  0  0  0  0  0  0
  -21.1668  -29.1365   23.9210 C   0  0  0  0  0  0  0  0  0  0  0  0
  -26.7834  -16.5932   19.0735 C   0  0  0  0  0  0  0  0  0  0  0  0
  -26.0821  -37.3516   22.7164 C   0  0  0  0  0  0  0  0  0  0  0  0
  -24.7990  -30.8915   19.5266 C   0  0  0  0  0  0  0  0  0  0  0  0
  -24.8313  -29.8035   22.2761 C   0  0  0  0  0  0  0  0  0  0  0  0
  -25.8279  -36.0015   23.3818 C   0  0  0  0  0  0  0  0  0  0  0  0
  -29.2056  -14.7091   20.7830 C   0  0  0  0  0  0  0  0  0  0  0  0
  -26.8943  -34.9927   22.9672 C   0  0  0  0  0  0  0  0  0  0  0  0
  -28.6090  -13.3041   20.7041 C   0  0  0  0  0  0  0  0  0  0  0  0
  -28.1378  -15.7709   21.0508 C   0  0  0  0  0  0  0  0  0  0  0  0
  -28.6071  -19.7933   18.6432 C   0  0  0  0  0  0  0  0  0  0  0  0
  -27.7743  -19.6489   20.9952 C   0  0  0  0  0  0  0  0  0  0  0  0
  -27.5452  -18.7800   18.2244 C   0  0  0  0  0  0  0  0  0  0  0  0
  -26.7202  -18.6490   20.5328 C   0  0  0  0  0  0  0  0  0  0  0  0
  -26.4097  -14.3337   20.0181 C   0  0  0  0  0  0  0  0  0  0  0  0
  -26.8672  -34.7522   21.4529 C   0  0  1  0  0  0  0  0  0  0  0  0
  -24.6011  -31.7859   20.7466 C   0  0  1  0  0  0  0  0  0  0  0  0
  -27.4510  -13.2519   19.6917 C   0  0  2  0  0  0  0  0  0  0  0  0
  -30.6262  -25.4821   21.1330 C   0  0  0  0  0  0  0  0  0  0  0  0
  -30.6335  -20.5170   21.4230 C   0  0  0  0  0  0  0  0  0  0  0  0
  -26.9576  -22.8638   18.9281 C   0  0  0  0  0  0  0  0  0  0  0  0
  -19.0553  -28.7467   25.2199 C   0  0  0  0  0  0  0  0  0  0  0  0
  -24.6412  -32.3040   25.3391 C   0  0  0  0  0  0  0  0  0  0  0  0
  -22.8851  -31.0257   26.5841 C   0  0  0  0  0  0  0  0  0  0  0  0
  -22.2561  -33.0534   25.2744 C   0  0  0  0  0  0  0  0  0  0  0  0
  -19.8788  -27.7621   21.6382 C   0  0  0  0  0  0  0  0  0  0  0  0
  -28.1761  -25.4070   19.5639 C   0  0  0  0  0  0  0  0  0  1  0  0
  -22.8758  -30.9300   24.0500 C   0  0  1  0  0  0  0  0  0  0  0  0
  -19.6658  -28.9249   23.8385 C   0  0  2  0  0  0  0  0  0  0  0  0
  -23.1796  -31.8158   25.2912 C   0  0  0  0  0  0  0  0  0  0  0  0
  -25.7772  -11.5863   20.4028 N   0  0  0  0  0  0  0  0  0  0  0  0
  -26.8294  -11.8699   19.6163 N   0  0  0  0  0  0  0  0  0  0  0  0
  -28.2186  -20.4893   19.8747 N   0  0  0  0  0  0  0  0  0  0  0  0
  -24.1281  -31.0465   21.9187 N   0  0  0  0  0  0  0  0  0  0  0  0
  -27.0357  -15.6558   20.0863 N   0  0  0  0  0  0  0  0  0  0  0  0
  -27.1480  -17.9232   19.3351 N   0  0  0  0  0  0  0  0  0  0  0  0
  -28.2572  -10.9478   17.9665 N   0  0  0  0  0  0  0  0  0  0  0  0
  -25.4295   -7.5555   18.9113 N   0  0  0  0  0  0  0  0  0  0  0  0
  -25.7721  -33.8744   21.1002 N   0  0  0  0  0  0  0  0  0  0  0  0
  -21.4921  -30.4757   23.9643 N   0  0  0  0  0  0  0  0  0  0  0  0
  -19.3574  -27.7126   23.0284 N   0  3  0  0  0  0  0  0  0  0  0  0
  -27.2363   -8.1748   17.6423 O   0  0  0  0  0  0  0  0  0  0  0  0
  -26.8388  -31.8430   21.4979 O   0  0  0  0  0  0  0  0  0  0  0  0
  -22.5623  -32.6804   22.4801 O   0  0  0  0  0  0  0  0  0  0  0  0
  -21.9701  -28.2067   23.9483 O   0  0  0  0  0  0  0  0  0  0  0  0
  -26.2667  -16.2635   17.9987 O   0  0  0  0  0  0  0  0  0  0  0  0
  -21.2487   -7.6808   22.5911 O   0  0  0  0  0  0  0  0  0  0  0  0
  -27.5313  -26.0475   20.6560 O   0  0  0  0  0  0  0  0  0  1  0  0
  -22.1161   -2.5302   24.3582 F   0  0  0  0  0  0  0  0  0  0  0  0
  -20.9754   -7.0338   25.2649 F   0  0  0  0  0  0  0  0  0  0  0  0
  1  2  1  0  0  0  0
  1  5  2  0  0  0  0
  2  6  2  0  0  0  0
  3  8  2  0  0  0  0
  3 16  1  0  0  0  0
  4  9  1  0  0  0  0
  4 16  2  0  0  0  0
  5 18  1  0  0  0  0
  6 20  1  0  0  0  0
  7 10  2  0  0  0  0
  7 19  1  0  0  0  0
  8 27  1  0  0  0  0
  9 27  2  0  0  0  0
 10 28  1  0  0  0  0
 11 12  2  0  0  0  0
 11 29  1  0  0  0  0
 12 30  1  0  0  0  0
 13 21  1  0  0  0  0
 13 28  2  0  0  0  0
 14 22  2  0  0  0  0
 14 23  1  0  0  0  0
 15 30  2  0  0  0  0
 15 31  1  0  0  0  0
 16 32  1  0  0  0  0
 17 32  1  0  0  0  0
 17 33  2  0  0  0  0
 17 34  1  0  0  0  0
 18 20  2  0  0  0  0
 18 39  1  0  0  0  0
 19 21  2  0  0  0  0
 19 40  1  0  0  0  0
 20 52  1  0  0  0  0
 21 41  1  0  0  0  0
 22 24  1  0  0  0  0
 22 55  1  0  0  0  0
 23 26  2  0  0  0  0
 23 56  1  0  0  0  0
 24 25  2  0  0  0  0
 24 63  1  0  0  0  0
 25 26  1  0  0  0  0
 25 57  1  0  0  0  0
 26 69  1  0  0  0  0
 27 83  1  0  0  0  0
 28 84  1  0  0  0  0
 29 31  2  0  0  0  0
 29 83  1  0  0  0  0
 30 85  1  0  0  0  0
 31 86  1  0  0  0  0
 32 67  2  0  0  0  0
 33 68  1  0  0  0  0
 33 73  1  0  0  0  0
 34 74  1  0  0  0  0
 34 78  2  0  0  0  0
 35 53  1  0  0  0  0
 35 75  1  0  0  0  0
 35 79  2  0  0  0  0
 36 64  1  0  0  0  0
 36 70  1  0  0  0  0
 36 80  2  0  0  0  0
 37 65  1  0  0  0  0
 37 76  1  0  0  0  0
 37 81  2  0  0  0  0
 38 71  1  0  0  0  0
 38 72  1  0  0  0  0
 38 82  2  0  0  0  0
 39 42  1  0  0  0  0
 40 53  1  0  0  0  0
 41 70  1  0  0  0  0
 42 44  1  0  0  0  0
 43 45  1  0  0  0  0
 43 46  1  0  0  0  0
 44 52  1  0  0  0  0
 45 54  1  0  0  0  0
 46 71  1  0  0  0  0
 47 49  1  0  0  0  0
 47 69  1  0  0  0  0
 48 50  1  0  0  0  0
 48 69  1  0  0  0  0
 49 72  1  0  0  0  0
 50 72  1  0  0  0  0
 51 54  1  0  0  0  0
 51 71  1  0  0  0  0
 52 75  1  0  0  0  0
 53 70  1  0  0  0  0
 54 68  1  0  0  0  0
 58 65  1  0  0  0  0
 59 66  1  0  0  0  0
 60 66  1  0  0  0  0
 61 66  1  0  0  0  0
 62 77  1  0  0  0  0
 63 84  1  0  0  0  0
 64 66  1  0  0  0  0
 64 76  1  0  0  0  0
 65 77  1  0  0  0  0
 67 68  1  0  0  0  0
M  CHG  1  77   1
M  ISO  4  38 100  63 101  72 100  84 101
M  END
> <Batch ID>
0157

> <Smiles>
CNC(C)C(=O)NC(C(=O)N1Cc2cc([101O:1][101CH2:1]c3c(C)cc(C)c(N4CC[100N:0]([100C:0](=O)N5CCCC(n6nc(-c7ccc(Oc8ccc(F)cc8F)cc7)c(C(N)=O)c6N)C5)CC4)c3C)ccc2CC1C(=O)NC1CCCc2ccccc21)C(C)(C)C

> <Shape>
0.319

> <Color>
0.104

> <Negative vol penalty>
0.000

$$$$

  -OEChem-04052321593D

 86 95  0     1  0  0  0  0  0999 V2000
  -26.9368  -38.6163   22.4293 C   0  0  0  0  0  0  0  0  0  0  0  0
  -27.5893  -37.6246   21.7039 C   0  0  0  0  0  0  0  0  0  0  0  0
  -24.4730   -8.9323   21.8333 C   0  0  0  0  0  0  0  0  0  0  0  0
  -24.0718   -8.3906   19.5133 C   0  0  0  0  0  0  0  0  0  0  0  0
  -26.1310  -38.2697   23.5130 C   0  0  0  0  0  0  0  0  0  0  0  0
  -27.4374  -36.2857   22.0626 C   0  0  0  0  0  0  0  0  0  0  0  0
  -27.1754  -29.7305   19.1856 C   0  0  0  0  0  0  0  0  0  0  0  0
  -29.0353  -23.6284   18.9250 C   0  0  0  0  0  0  0  0  0  0  0  0
  -29.4659  -22.3215   19.1533 C   0  0  0  0  0  0  0  0  0  0  0  0
  -23.3583   -8.1792   22.2020 C   0  0  0  0  0  0  0  0  0  0  0  0
  -22.9571   -7.6374   19.8819 C   0  0  0  0  0  0  0  0  0  0  0  0
  -27.7601  -28.4718   19.3185 C   0  0  0  0  0  0  0  0  0  0  0  0
  -22.5887   -4.9148   22.6308 C   0  0  0  0  0  0  0  0  0  0  0  0
  -22.7209   -4.0505   23.7176 C   0  0  0  0  0  0  0  0  0  0  0  0
  -26.2799  -27.9853   21.1601 C   0  0  0  0  0  0  0  0  0  0  0  0
  -20.9622   -5.2363   24.8744 C   0  0  0  0  0  0  0  0  0  0  0  0
  -24.8297   -9.0381   20.4889 C   0  0  0  0  0  0  0  0  0  0  0  0
  -27.3085   -9.3655   19.9829 C   0  0  0  0  0  0  0  0  0  0  0  0
  -25.9614  -36.9251   23.8792 C   0  0  0  0  0  0  0  0  0  0  0  0
  -26.1442  -30.1309   20.0475 C   0  0  0  0  0  0  0  0  0  0  0  0
  -26.6297  -35.9209   23.1531 C   0  0  0  0  0  0  0  0  0  0  0  0
  -25.6821  -29.2486   21.0344 C   0  0  0  0  0  0  0  0  0  0  0  0
  -29.4069  -24.6483   19.8011 C   0  0  0  0  0  0  0  0  0  0  0  0
  -30.2091  -24.3612   20.9055 C   0  0  0  0  0  0  0  0  0  0  0  0
  -30.6397  -23.0542   21.1339 C   0  0  0  0  0  0  0  0  0  0  0  0
  -30.2681  -22.0344   20.2577 C   0  0  0  0  0  0  0  0  0  0  0  0
  -22.6004   -7.5317   21.2263 C   0  0  0  0  0  0  0  0  0  0  0  0
  -27.3143  -27.6001   20.3077 C   0  0  0  0  0  0  0  0  0  0  0  0
  -21.6433   -5.9398   22.6658 C   0  0  0  0  0  0  0  0  0  0  0  0
  -21.9077   -4.2113   24.8394 C   0  0  0  0  0  0  0  0  0  0  0  0
  -20.8301   -6.1006   23.7876 C   0  0  0  0  0  0  0  0  0  0  0  0
  -25.9807   -9.8163   20.1074 C   0  0  0  0  0  0  0  0  0  0  0  0
  -28.0148  -10.4793   19.5998 C   0  0  0  0  0  0  0  0  0  0  0  0
  -27.8545   -8.0567   20.1945 C   0  0  0  0  0  0  0  0  0  0  0  0
  -25.7813  -32.4582   22.1818 C   0  0  0  0  0  0  0  0  0  0  0  0
  -22.7416  -31.3335   22.3132 C   0  0  0  0  0  0  0  0  0  0  0  0
  -20.5953  -28.7230   21.8384 C   0  0  0  0  0  0  0  0  0  0  0  0
  -29.3114  -15.6748   19.9625 C   0  0  0  0  0  0  0  0  0  0  0  0
  -25.1181  -36.6026   25.0873 C   0  0  0  0  0  0  0  0  0  0  0  0
  -25.5059  -31.4817   19.8739 C   0  0  0  0  0  0  0  0  0  0  0  0
  -24.5642  -29.6226   21.9719 C   0  0  0  0  0  0  0  0  0  0  0  0
  -24.7108  -35.1338   25.1713 C   0  0  0  0  0  0  0  0  0  0  0  0
  -26.4371  -15.0226   18.0542 C   0  0  0  0  0  0  0  0  0  0  0  0
  -25.9114  -34.2309   24.9063 C   0  0  0  0  0  0  0  0  0  0  0  0
  -26.1626  -13.5614   18.4088 C   0  0  0  0  0  0  0  0  0  0  0  0
  -28.9065  -19.1706   19.9009 C   0  0  0  0  0  0  0  0  0  0  0  0
  -31.3319  -18.4839   19.7837 C   0  0  0  0  0  0  0  0  0  0  0  0
  -26.8779  -15.8351   19.2730 C   0  0  0  0  0  0  0  0  0  0  0  0
  -28.5326  -17.9249   19.0923 C   0  0  0  0  0  0  0  0  0  0  0  0
  -30.9145  -17.2713   18.9563 C   0  0  0  0  0  0  0  0  0  0  0  0
  -27.7531  -13.7898   20.3543 C   0  0  0  0  0  0  0  0  0  0  0  0
  -26.4700  -34.4556   23.4960 C   0  0  1  0  0  0  0  0  0  0  0  0
  -24.8121  -31.9815   21.1373 C   0  0  1  0  0  0  0  0  0  0  0  0
  -27.3644  -12.9349   19.1382 C   0  0  1  0  0  0  0  0  0  0  0  0
  -30.3344  -19.6303   19.5976 C   0  0  0  0  0  0  0  0  0  0  0  0
  -30.6062  -25.4570   21.8436 C   0  0  0  0  0  0  0  0  0  0  0  0
  -31.5002  -22.7479   22.3196 C   0  0  0  0  0  0  0  0  0  0  0  0
  -18.1766  -28.0946   22.0679 C   0  0  0  0  0  0  0  0  0  0  0  0
  -23.0911  -31.1015   25.3355 C   0  0  0  0  0  0  0  0  0  0  0  0
  -21.0727  -29.6210   25.3851 C   0  0  0  0  0  0  0  0  0  0  0  0
  -20.8666  -31.9821   24.6071 C   0  0  0  0  0  0  0  0  0  0  0  0
  -20.3428  -28.1752   18.9410 C   0  0  0  0  0  0  0  0  0  0  0  0
  -28.9325  -26.0390   19.5327 C   0  0  0  0  0  0  0  0  0  1  0  0
  -22.0233  -30.2869   23.1304 C   0  0  1  0  0  0  0  0  0  0  0  0
  -19.2506  -28.6389   21.1389 C   0  0  2  0  0  0  0  0  0  0  0  0
  -21.7858  -30.7413   24.5983 C   0  0  0  0  0  0  0  0  0  0  0  0
  -25.8488  -11.1154   19.8264 N   0  0  0  0  0  0  0  0  0  0  0  0
  -27.1028  -11.4904   19.5215 N   0  0  0  0  0  0  0  0  0  0  0  0
  -23.9764  -30.9567   21.7663 N   0  0  0  0  0  0  0  0  0  0  0  0
  -27.9994  -15.1780   19.9585 N   0  0  0  0  0  0  0  0  0  0  0  0
  -29.5416  -16.8699   19.2649 N   0  0  0  0  0  0  0  0  0  0  0  0
  -29.3209  -10.6828   19.3256 N   0  0  0  0  0  0  0  0  0  0  0  0
  -26.9884   -7.0266   20.5857 N   0  0  0  0  0  0  0  0  0  0  0  0
  -30.6844  -20.7317   20.4673 N   0  0  0  0  0  0  0  0  0  0  0  0
  -25.6409  -33.7926   22.5124 N   0  0  0  0  0  0  0  0  0  0  0  0
  -20.8023  -29.9654   22.3995 N   0  0  0  0  0  0  0  0  0  0  0  0
  -19.3404  -27.7453   19.9496 N   0  3  0  0  0  0  0  0  0  0  0  0
  -29.0771   -7.8119   20.0573 O   0  0  0  0  0  0  0  0  0  0  0  0
  -26.5953  -31.6732   22.6540 O   0  0  0  0  0  0  0  0  0  0  0  0
  -22.2227  -32.4420   22.1596 O   0  0  0  0  0  0  0  0  0  0  0  0
  -21.3816  -27.7796   21.8858 O   0  0  0  0  0  0  0  0  0  0  0  0
  -30.2240  -15.0853   20.5548 O   0  0  0  0  0  0  0  0  0  0  0  0
  -21.5127   -6.7966   21.5857 O   0  0  0  0  0  0  0  0  0  0  0  0
  -27.8878  -26.3624   20.4409 O   0  0  0  0  0  0  0  0  0  1  0  0
  -22.0336   -3.3803   25.8824 F   0  0  0  0  0  0  0  0  0  0  0  0
  -19.9192   -7.0827   23.8265 F   0  0  0  0  0  0  0  0  0  0  0  0
  1  2  1  0  0  0  0
  1  5  2  0  0  0  0
  2  6  2  0  0  0  0
  3 10  2  0  0  0  0
  3 17  1  0  0  0  0
  4 11  1  0  0  0  0
  4 17  2  0  0  0  0
  5 19  1  0  0  0  0
  6 21  1  0  0  0  0
  7 12  2  0  0  0  0
  7 20  1  0  0  0  0
  8  9  2  0  0  0  0
  8 23  1  0  0  0  0
  9 26  1  0  0  0  0
 10 27  1  0  0  0  0
 11 27  2  0  0  0  0
 12 28  1  0  0  0  0
 13 14  2  0  0  0  0
 13 29  1  0  0  0  0
 14 30  1  0  0  0  0
 15 22  1  0  0  0  0
 15 28  2  0  0  0  0
 16 30  2  0  0  0  0
 16 31  1  0  0  0  0
 17 32  1  0  0  0  0
 18 32  1  0  0  0  0
 18 33  2  0  0  0  0
 18 34  1  0  0  0  0
 19 21  2  0  0  0  0
 19 39  1  0  0  0  0
 20 22  2  0  0  0  0
 20 40  1  0  0  0  0
 21 52  1  0  0  0  0
 22 41  1  0  0  0  0
 23 24  2  0  0  0  0
 23 63  1  0  0  0  0
 24 25  1  0  0  0  0
 24 56  1  0  0  0  0
 25 26  2  0  0  0  0
 25 57  1  0  0  0  0
 26 74  1  0  0  0  0
 27 83  1  0  0  0  0
 28 84  1  0  0  0  0
 29 31  2  0  0  0  0
 29 83  1  0  0  0  0
 30 85  1  0  0  0  0
 31 86  1  0  0  0  0
 32 67  2  0  0  0  0
 33 68  1  0  0  0  0
 33 72  1  0  0  0  0
 34 73  1  0  0  0  0
 34 78  2  0  0  0  0
 35 53  1  0  0  0  0
 35 75  1  0  0  0  0
 35 79  2  0  0  0  0
 36 64  1  0  0  0  0
 36 69  1  0  0  0  0
 36 80  2  0  0  0  0
 37 65  1  0  0  0  0
 37 76  1  0  0  0  0
 37 81  2  0  0  0  0
 38 70  1  0  0  0  0
 38 71  1  0  0  0  0
 38 82  2  0  0  0  0
 39 42  1  0  0  0  0
 40 53  1  0  0  0  0
 41 69  1  0  0  0  0
 42 44  1  0  0  0  0
 43 45  1  0  0  0  0
 43 48  1  0  0  0  0
 44 52  1  0  0  0  0
 45 54  1  0  0  0  0
 46 49  1  0  0  0  0
 46 55  1  0  0  0  0
 47 50  1  0  0  0  0
 47 55  1  0  0  0  0
 48 70  1  0  0  0  0
 49 71  1  0  0  0  0
 50 71  1  0  0  0  0
 51 54  1  0  0  0  0
 51 70  1  0  0  0  0
 52 75  1  0  0  0  0
 53 69  1  0  0  0  0
 54 68  1  0  0  0  0
 55 74  1  0  0  0  0
 58 65  1  0  0  0  0
 59 66  1  0  0  0  0
 60 66  1  0  0  0  0
 61 66  1  0  0  0  0
 62 77  1  0  0  0  0
 63 84  1  0  0  0  0
 64 66  1  0  0  0  0
 64 76  1  0  0  0  0
 65 77  1  0  0  0  0
 67 68  1  0  0  0  0
M  CHG  1  77   1
M  ISO  4  38 100  63 101  71 100  84 101
M  END
> <Batch ID>
0157

> <Smiles>
CNC(C)C(=O)NC(C(=O)N1Cc2cc([101O:1][101CH2:1]c3ccc(NC4CC[100N:0]([100C:0](=O)N5CCCC(n6nc(-c7ccc(Oc8ccc(F)cc8F)cc7)c(C(N)=O)c6N)C5)CC4)c(C)c3C)ccc2CC1C(=O)NC1CCCc2ccccc21)C(C)(C)C

> <Shape>
0.328

> <Color>
0.097

> <Negative vol penalty>
0.000

$$$$

  -OEChem-04052321593D

 87 96  0     1  0  0  0  0  0999 V2000
  -28.3576  -33.6011   25.9817 C   0  0  0  0  0  0  0  0  0  0  0  0
  -28.3904  -32.3406   25.3941 C   0  0  0  0  0  0  0  0  0  0  0  0
  -25.3078   -9.9140   23.0196 C   0  0  0  0  0  0  0  0  0  0  0  0
  -24.0630   -9.0705   21.1285 C   0  0  0  0  0  0  0  0  0  0  0  0
  -27.1335  -34.2129   26.2487 C   0  0  0  0  0  0  0  0  0  0  0  0
  -27.1989  -31.6906   25.0740 C   0  0  0  0  0  0  0  0  0  0  0  0
  -27.3075  -29.5931   20.4660 C   0  0  0  0  0  0  0  0  0  0  0  0
  -24.4130   -9.2883   23.8876 C   0  0  0  0  0  0  0  0  0  0  0  0
  -23.1683   -8.4448   21.9965 C   0  0  0  0  0  0  0  0  0  0  0  0
  -27.9933  -28.3867   20.3315 C   0  0  0  0  0  0  0  0  0  0  0  0
  -23.0754   -5.6393   23.8784 C   0  0  0  0  0  0  0  0  0  0  0  0
  -22.7078   -4.3249   23.5910 C   0  0  0  0  0  0  0  0  0  0  0  0
  -25.8989  -27.1931   20.4206 C   0  0  0  0  0  0  0  0  0  0  0  0
  -30.3754  -24.2940   18.6368 C   0  0  0  0  0  0  0  0  0  0  0  0
  -30.5241  -22.5351   20.7970 C   0  0  0  0  0  0  0  0  0  0  0  0
  -20.3965   -5.0079   23.4228 C   0  0  0  0  0  0  0  0  0  0  0  0
  -25.1328   -9.8051   21.6400 C   0  0  0  0  0  0  0  0  0  0  0  0
  -27.2395   -9.9103   20.2054 C   0  0  0  0  0  0  0  0  0  0  0  0
  -25.9266  -33.5742   25.9229 C   0  0  0  0  0  0  0  0  0  0  0  0
  -25.9107  -29.6078   20.5899 C   0  0  0  0  0  0  0  0  0  0  0  0
  -25.9575  -32.2939   25.3381 C   0  0  0  0  0  0  0  0  0  0  0  0
  -25.1975  -28.4011   20.5540 C   0  0  0  0  0  0  0  0  0  0  0  0
  -30.8947  -23.0119   18.4577 C   0  0  0  0  0  0  0  0  0  0  0  0
  -29.9305  -24.6967   19.8960 C   0  0  0  0  0  0  0  0  0  0  0  0
  -30.9691  -22.1324   19.5378 C   0  0  0  0  0  0  0  0  0  0  0  0
  -23.3433   -8.5537   23.3761 C   0  0  0  0  0  0  0  0  0  0  0  0
  -27.2893  -27.1863   20.3117 C   0  0  0  0  0  0  0  0  0  0  0  0
  -22.1035   -6.6381   23.9381 C   0  0  0  0  0  0  0  0  0  0  0  0
  -30.0048  -23.8173   20.9761 C   0  0  0  0  0  0  0  0  0  0  0  0
  -21.3684   -4.0091   23.3631 C   0  0  0  0  0  0  0  0  0  0  0  0
  -20.7641   -6.3224   23.7103 C   0  0  0  0  0  0  0  0  0  0  0  0
  -26.0564  -10.4517   20.7428 C   0  0  0  0  0  0  0  0  0  0  0  0
  -27.7508  -10.9144   19.4199 C   0  0  0  0  0  0  0  0  0  0  0  0
  -27.8240   -8.6154   20.3987 C   0  0  0  0  0  0  0  0  0  0  0  0
  -23.8674  -30.5658   22.8284 C   0  0  0  0  0  0  0  0  0  0  0  0
  -21.6563  -29.8460   20.5668 C   0  0  0  0  0  0  0  0  0  0  0  0
  -20.8460  -28.0659   17.7701 C   0  0  0  0  0  0  0  0  0  0  0  0
  -29.0932  -16.0247   18.4699 C   0  0  0  0  0  0  0  0  0  0  0  0
  -24.6273  -34.2549   26.2738 C   0  0  0  0  0  0  0  0  0  0  0  0
  -25.1836  -30.9192   20.7074 C   0  0  0  0  0  0  0  0  0  0  0  0
  -23.6958  -28.3640   20.6631 C   0  0  0  0  0  0  0  0  0  0  0  0
  -23.4158  -33.6594   25.5610 C   0  0  0  0  0  0  0  0  0  0  0  0
  -25.7107  -15.2741   17.8878 C   0  0  0  0  0  0  0  0  0  0  0  0
  -23.4422  -32.1366   25.6452 C   0  0  0  0  0  0  0  0  0  0  0  0
  -25.5889  -13.8976   18.5408 C   0  0  0  0  0  0  0  0  0  0  0  0
  -26.5782  -16.2258   18.7135 C   0  0  0  0  0  0  0  0  0  0  0  0
  -28.4976  -18.4646   18.8117 C   0  0  0  0  0  0  0  0  0  0  0  0
  -30.2989  -17.8141   17.2560 C   0  0  0  0  0  0  0  0  0  0  0  0
  -27.7942  -14.3086   19.6957 C   0  0  0  0  0  0  0  0  0  0  0  0
  -29.4723  -19.3451   19.5871 C   0  0  0  0  0  0  0  0  0  0  0  0
  -31.3034  -18.6616   18.0197 C   0  0  0  0  0  0  0  0  0  0  0  0
  -24.6869  -31.5674   24.9536 C   0  0  1  0  0  0  0  0  0  0  0  0
  -23.8035  -30.7823   21.3430 C   0  0  1  0  0  0  0  0  0  0  0  0
  -26.9764  -13.3126   18.8591 C   0  0  1  0  0  0  0  0  0  0  0  0
  -31.3666  -22.6031   17.1010 C   0  0  0  0  0  0  0  0  0  0  0  0
  -18.9530  -27.6588   16.1739 C   0  0  0  0  0  0  0  0  0  0  0  0
  -20.2821  -28.0885   22.6484 C   0  0  0  0  0  0  0  0  0  0  0  0
  -19.0091  -27.0002   20.7874 C   0  0  0  0  0  0  0  0  0  0  0  0
  -18.7253  -29.4385   21.2312 C   0  0  0  0  0  0  0  0  0  0  0  0
  -22.4113  -29.0817   15.4730 C   0  0  0  0  0  0  0  0  0  0  0  0
  -29.6887  -23.2331   23.2596 C   0  0  0  0  0  0  0  0  0  0  0  0
  -31.5236  -20.7485   19.3700 C   0  0  0  0  0  0  0  0  0  0  0  0
  -29.3765  -26.0724   20.0693 C   0  0  0  0  0  0  0  0  0  1  0  0
  -20.8753  -28.6102   20.1903 C   0  0  1  0  0  0  0  0  0  0  0  0
  -20.1974  -28.4838   16.4628 C   0  0  2  0  0  0  0  0  0  0  0  0
  -19.7514  -28.2846   21.2142 C   0  0  0  0  0  0  0  0  0  0  0  0
  -25.8295  -11.7027   20.3336 N   0  0  0  0  0  0  0  0  0  0  0  0
  -26.8770  -11.9558   19.5307 N   0  0  0  0  0  0  0  0  0  0  0  0
  -23.0307  -29.6720   20.7825 N   0  0  0  0  0  0  0  0  0  0  0  0
  -27.8746  -15.6090   19.0271 N   0  0  0  0  0  0  0  0  0  0  0  0
  -29.2054  -17.3791   18.1222 N   0  0  0  0  0  0  0  0  0  0  0  0
  -28.8580  -10.9993   18.6523 N   0  0  0  0  0  0  0  0  0  0  0  0
  -27.1678   -7.7047   21.2378 N   0  0  0  0  0  0  0  0  0  0  0  0
  -24.5144  -31.5744   23.5167 N   0  0  0  0  0  0  0  0  0  0  0  0
  -20.3985  -28.8276   18.8288 N   0  0  0  0  0  0  0  0  0  0  0  0
  -30.5759  -19.8151   18.6701 N   0  3  0  0  0  0  0  0  0  0  0  0
  -21.1514  -28.3074   15.3316 N   0  3  0  0  0  0  0  0  0  0  0  0
  -28.9051   -8.2819   19.8568 O   0  0  0  0  0  0  0  0  0  0  0  0
  -23.3656  -29.5589   23.3144 O   0  0  0  0  0  0  0  0  0  0  0  0
  -21.0698  -30.9273   20.6589 O   0  0  0  0  0  0  0  0  0  0  0  0
  -21.6647  -27.1523   17.8453 O   0  0  0  0  0  0  0  0  0  0  0  0
  -30.0270  -15.2319   18.2940 O   0  0  0  0  0  0  0  0  0  0  0  0
  -22.4701   -7.9428   24.2229 O   0  0  0  0  0  0  0  0  0  0  0  0
  -29.5759  -24.1951   22.2129 O   0  0  0  0  0  0  0  0  0  0  0  0
  -27.9610  -25.9990   20.1803 O   0  0  0  0  0  0  0  0  0  1  0  0
  -21.0158   -2.7471   23.0856 F   0  0  0  0  0  0  0  0  0  0  0  0
  -19.8260   -7.2779   23.7652 F   0  0  0  0  0  0  0  0  0  0  0  0
  1  2  1  0  0  0  0
  1  5  2  0  0  0  0
  2  6  2  0  0  0  0
  3  8  2  0  0  0  0
  3 17  1  0  0  0  0
  4  9  1  0  0  0  0
  4 17  2  0  0  0  0
  5 19  1  0  0  0  0
  6 21  1  0  0  0  0
  7 10  2  0  0  0  0
  7 20  1  0  0  0  0
  8 26  1  0  0  0  0
  9 26  2  0  0  0  0
 10 27  1  0  0  0  0
 11 12  2  0  0  0  0
 11 28  1  0  0  0  0
 12 30  1  0  0  0  0
 13 22  1  0  0  0  0
 13 27  2  0  0  0  0
 14 23  2  0  0  0  0
 14 24  1  0  0  0  0
 15 25  2  0  0  0  0
 15 29  1  0  0  0  0
 16 30  2  0  0  0  0
 16 31  1  0  0  0  0
 17 32  1  0  0  0  0
 18 32  1  0  0  0  0
 18 33  2  0  0  0  0
 18 34  1  0  0  0  0
 19 21  2  0  0  0  0
 19 39  1  0  0  0  0
 20 22  2  0  0  0  0
 20 40  1  0  0  0  0
 21 52  1  0  0  0  0
 22 41  1  0  0  0  0
 23 25  1  0  0  0  0
 23 55  1  0  0  0  0
 24 29  2  0  0  0  0
 24 63  1  0  0  0  0
 25 62  1  0  0  0  0
 26 83  1  0  0  0  0
 27 85  1  0  0  0  0
 28 31  2  0  0  0  0
 28 83  1  0  0  0  0
 29 84  1  0  0  0  0
 30 86  1  0  0  0  0
 31 87  1  0  0  0  0
 32 67  2  0  0  0  0
 33 68  1  0  0  0  0
 33 72  1  0  0  0  0
 34 73  1  0  0  0  0
 34 78  2  0  0  0  0
 35 53  1  0  0  0  0
 35 74  1  0  0  0  0
 35 79  2  0  0  0  0
 36 64  1  0  0  0  0
 36 69  1  0  0  0  0
 36 80  2  0  0  0  0
 37 65  1  0  0  0  0
 37 75  1  0  0  0  0
 37 81  2  0  0  0  0
 38 70  1  0  0  0  0
 38 71  1  0  0  0  0
 38 82  2  0  0  0  0
 39 42  1  0  0  0  0
 40 53  1  0  0  0  0
 41 69  1  0  0  0  0
 42 44  1  0  0  0  0
 43 45  1  0  0  0  0
 43 46  1  0  0  0  0
 44 52  1  0  0  0  0
 45 54  1  0  0  0  0
 46 70  1  0  0  0  0
 47 50  1  0  0  0  0
 47 71  1  0  0  0  0
 48 51  1  0  0  0  0
 48 71  1  0  0  0  0
 49 54  1  0  0  0  0
 49 70  1  0  0  0  0
 50 76  1  0  0  0  0
 51 76  1  0  0  0  0
 52 74  1  0  0  0  0
 53 69  1  0  0  0  0
 54 68  1  0  0  0  0
 56 65  1  0  0  0  0
 57 66  1  0  0  0  0
 58 66  1  0  0  0  0
 59 66  1  0  0  0  0
 60 77  1  0  0  0  0
 61 84  1  0  0  0  0
 62 76  1  0  0  0  0
 63 85  1  0  0  0  0
 64 66  1  0  0  0  0
 64 75  1  0  0  0  0
 65 77  1  0  0  0  0
 67 68  1  0  0  0  0
M  CHG  2  76   1  77   1
M  ISO  4  38 100  63 101  71 100  85 101
M  END
> <Batch ID>
0157

> <Smiles>
CNC(C)C(=O)NC(C(=O)N1Cc2cc([101O:1][101CH2:1]c3cc(C)c(CN4CC[100N:0]([100C:0](=O)N5CCCC(n6nc(-c7ccc(Oc8ccc(F)cc8F)cc7)c(C(N)=O)c6N)C5)CC4)cc3OC)ccc2CC1C(=O)NC1CCCc2ccccc21)C(C)(C)C

> <Shape>
0.305

> <Color>
0.083

> <Negative vol penalty>
0.000

$$$$

  -OEChem-04052321593D

 89 98  0     1  0  0  0  0  0999 V2000
  -22.3704   -7.9817   22.8782 C   0  0  0  0  0  0  0  0  0  0  0  0
  -23.3788   -8.7344   22.2850 C   0  0  0  0  0  0  0  0  0  0  0  0
  -26.3581  -28.4605   19.1008 C   0  0  0  0  0  0  0  0  0  0  0  0
  -26.0611  -27.3050   21.2016 C   0  0  0  0  0  0  0  0  0  0  0  0
  -21.0701   -8.4817   22.9342 C   0  0  0  0  0  0  0  0  0  0  0  0
  -23.0872   -9.9872   21.7464 C   0  0  0  0  0  0  0  0  0  0  0  0
  -26.5229  -13.4891   23.0023 C   0  0  0  0  0  0  0  0  0  0  0  0
  -25.3100  -29.3215   19.4261 C   0  0  0  0  0  0  0  0  0  0  0  0
  -25.0129  -28.1659   21.5270 C   0  0  0  0  0  0  0  0  0  0  0  0
  -27.7291  -13.4773   22.3032 C   0  0  0  0  0  0  0  0  0  0  0  0
  -21.7428  -28.5173   20.7435 C   0  0  0  0  0  0  0  0  0  0  0  0
  -20.5816  -27.9537   21.2724 C   0  0  0  0  0  0  0  0  0  0  0  0
  -26.9362  -15.2852   20.9167 C   0  0  0  0  0  0  0  0  0  0  0  0
  -29.6365  -12.7718   14.9193 C   0  0  0  0  0  0  0  0  0  0  0  0
  -20.8598  -29.2662   23.2817 C   0  0  0  0  0  0  0  0  0  0  0  0
  -26.7336  -27.4522   19.9885 C   0  0  0  0  0  0  0  0  0  0  0  0
  -29.1822  -26.7379   19.9429 C   0  0  0  0  0  0  0  0  0  0  0  0
  -20.7644   -9.7454   22.4047 C   0  0  0  0  0  0  0  0  0  0  0  0
  -25.5085  -14.3933   22.6563 C   0  0  0  0  0  0  0  0  0  0  0  0
  -21.7813  -10.5040   21.7942 C   0  0  0  0  0  0  0  0  0  0  0  0
  -25.7191  -15.3082   21.6147 C   0  0  0  0  0  0  0  0  0  0  0  0
  -29.5301  -13.9611   14.1983 C   0  0  0  0  0  0  0  0  0  0  0  0
  -29.8574  -12.8083   16.2962 C   0  0  0  0  0  0  0  0  0  0  0  0
  -29.6447  -15.1869   14.8540 C   0  0  0  0  0  0  0  0  0  0  0  0
  -29.9721  -14.0341   16.9519 C   0  0  0  0  0  0  0  0  0  0  0  0
  -29.8657  -15.2234   16.2308 C   0  0  0  0  0  0  0  0  0  0  0  0
  -24.6374  -29.1742   20.6392 C   0  0  0  0  0  0  0  0  0  0  0  0
  -27.9348  -14.3734   21.2583 C   0  0  0  0  0  0  0  0  0  0  0  0
  -22.4626  -29.4552   21.4838 C   0  0  0  0  0  0  0  0  0  0  0  0
  -20.1401  -28.3282   22.5414 C   0  0  0  0  0  0  0  0  0  0  0  0
  -22.0211  -29.8296   22.7528 C   0  0  0  0  0  0  0  0  0  0  0  0
  -27.8159  -26.5622   19.6528 C   0  0  0  0  0  0  0  0  0  0  0  0
  -29.7907  -25.6244   19.4174 C   0  0  0  0  0  0  0  0  0  0  0  0
  -29.8422  -27.8117   20.6263 C   0  0  0  0  0  0  0  0  0  0  0  0
  -22.5234  -14.1184   21.5991 C   0  0  0  0  0  0  0  0  0  0  0  0
  -22.4998  -17.3378   21.9960 C   0  0  0  0  0  0  0  0  0  0  0  0
  -24.2754  -20.2454   22.1952 C   0  0  0  0  0  0  0  0  0  0  0  0
  -30.1604  -20.3359   18.5572 C   0  0  0  0  0  0  0  0  0  0  0  0
  -19.3346  -10.2234   22.4465 C   0  0  0  0  0  0  0  0  0  0  0  0
  -24.2234  -14.4113   23.4377 C   0  0  0  0  0  0  0  0  0  0  0  0
  -24.6696  -16.3126   21.2172 C   0  0  0  0  0  0  0  0  0  0  0  0
  -19.1850  -11.7203   22.1869 C   0  0  0  0  0  0  0  0  0  0  0  0
  -28.0134  -22.0264   16.3499 C   0  0  0  0  0  0  0  0  0  0  0  0
  -20.0178  -12.1385   20.9793 C   0  0  0  0  0  0  0  0  0  0  0  0
  -27.8761  -23.3835   17.0393 C   0  0  0  0  0  0  0  0  0  0  0  0
  -27.9968  -20.8705   17.3515 C   0  0  0  0  0  0  0  0  0  0  0  0
  -31.0466  -17.3827   16.4969 C   0  0  0  0  0  0  0  0  0  0  0  0
  -28.7561  -17.0509   17.4400 C   0  0  0  0  0  0  0  0  0  0  0  0
  -31.3384  -18.3880   17.6077 C   0  0  0  0  0  0  0  0  0  0  0  0
  -29.0926  -18.0513   18.5402 C   0  0  0  0  0  0  0  0  0  0  0  0
  -28.8541  -22.3617   19.1290 C   0  0  0  0  0  0  0  0  0  0  0  0
  -21.5095  -11.8779   21.2210 C   0  0  1  0  0  0  0  0  0  0  0  0
  -23.0627  -15.0301   22.6648 C   0  0  1  0  0  0  0  0  0  0  0  0
  -28.9261  -23.5461   18.1527 C   0  0  2  0  0  0  0  0  0  0  0  0
  -29.2934  -13.8938   12.7250 C   0  0  0  0  0  0  0  0  0  0  0  0
  -29.9675  -11.5202   17.0444 C   0  0  0  0  0  0  0  0  0  0  0  0
  -30.7994  -16.7707   13.2904 C   0  0  0  0  0  0  0  0  0  0  0  0
  -31.5542  -14.7285   18.7811 C   0  0  0  0  0  0  0  0  0  0  0  0
  -23.9766  -22.7201   22.4855 C   0  0  0  0  0  0  0  0  0  0  0  0
  -21.5674  -17.5624   19.0995 C   0  0  0  0  0  0  0  0  0  0  0  0
  -22.1971  -19.9849   19.1577 C   0  0  0  0  0  0  0  0  0  0  0  0
  -20.4254  -19.1214   20.6869 C   0  0  0  0  0  0  0  0  0  0  0  0
  -25.8560  -20.2601   24.6973 C   0  0  0  0  0  0  0  0  0  0  0  0
  -29.5296  -16.4594   14.0745 C   0  0  0  0  0  0  0  0  0  0  0  0
  -29.0679  -14.7605   19.2035 C   0  0  0  0  0  0  0  0  0  1  0  0
  -30.2091  -14.0663   18.4294 C   0  0  1  0  0  0  0  0  0  0  0  0
  -22.8423  -18.5245   21.1280 C   0  0  1  0  0  0  0  0  0  0  0  0
  -24.2206  -21.3932   23.1873 C   0  0  2  0  0  0  0  0  0  0  0  0
  -21.7773  -18.7782   20.0240 C   0  0  0  0  0  0  0  0  0  0  0  0
  -27.5705  -25.4265   18.9940 N   0  0  0  0  0  0  0  0  0  0  0  0
  -28.7909  -24.8786   18.8657 N   0  0  0  0  0  0  0  0  0  0  0  0
  -29.9808  -16.4543   16.8893 N   0  0  0  0  0  0  0  0  0  0  0  0
  -23.4276  -16.2866   22.0073 N   0  0  0  0  0  0  0  0  0  0  0  0
  -28.9856  -21.0896   18.4157 N   0  0  0  0  0  0  0  0  0  0  0  0
  -30.1178  -19.0053   18.1122 N   0  0  0  0  0  0  0  0  0  0  0  0
  -31.0782  -25.2202   19.3780 N   0  0  0  0  0  0  0  0  0  0  0  0
  -29.0666  -28.8777   21.1021 N   0  0  0  0  0  0  0  0  0  0  0  0
  -22.0698  -12.9031   22.0752 N   0  0  0  0  0  0  0  0  0  0  0  0
  -23.0423  -19.6495   22.0351 N   0  0  0  0  0  0  0  0  0  0  0  0
  -25.5031  -21.4886   23.9403 N   0  3  0  0  0  0  0  0  0  0  0  0
  -31.0850  -27.8333   20.7952 O   0  0  0  0  0  0  0  0  0  0  0  0
  -22.5178  -14.4907   20.4316 O   0  0  0  0  0  0  0  0  0  0  0  0
  -21.4514  -17.3463   22.6458 O   0  0  0  0  0  0  0  0  0  0  0  0
  -25.3079  -19.9133   21.6172 O   0  0  0  0  0  0  0  0  0  0  0  0
  -31.1871  -20.8213   19.0481 O   0  0  0  0  0  0  0  0  0  0  0  0
  -23.6148  -30.0143   20.9571 O   0  0  0  0  0  0  0  0  0  0  0  0
  -29.1186  -14.3635   20.5693 O   0  0  0  0  0  0  0  0  0  1  0  0
  -19.0242  -27.7881   23.0485 F   0  0  0  0  0  0  0  0  0  0  0  0
  -22.7077  -30.7311   23.4682 F   0  0  0  0  0  0  0  0  0  0  0  0
  1  2  1  0  0  0  0
  1  5  2  0  0  0  0
  2  6  2  0  0  0  0
  3  8  2  0  0  0  0
  3 16  1  0  0  0  0
  4  9  1  0  0  0  0
  4 16  2  0  0  0  0
  5 18  1  0  0  0  0
  6 20  1  0  0  0  0
  7 10  2  0  0  0  0
  7 19  1  0  0  0  0
  8 27  1  0  0  0  0
  9 27  2  0  0  0  0
 10 28  1  0  0  0  0
 11 12  2  0  0  0  0
 11 29  1  0  0  0  0
 12 30  1  0  0  0  0
 13 21  1  0  0  0  0
 13 28  2  0  0  0  0
 14 22  2  0  0  0  0
 14 23  1  0  0  0  0
 15 30  2  0  0  0  0
 15 31  1  0  0  0  0
 16 32  1  0  0  0  0
 17 32  1  0  0  0  0
 17 33  2  0  0  0  0
 17 34  1  0  0  0  0
 18 20  2  0  0  0  0
 18 39  1  0  0  0  0
 19 21  2  0  0  0  0
 19 40  1  0  0  0  0
 20 52  1  0  0  0  0
 21 41  1  0  0  0  0
 22 24  1  0  0  0  0
 22 55  1  0  0  0  0
 23 25  2  0  0  0  0
 23 56  1  0  0  0  0
 24 26  2  0  0  0  0
 24 64  1  0  0  0  0
 25 26  1  0  0  0  0
 25 66  1  0  0  0  0
 26 72  1  0  0  0  0
 27 86  1  0  0  0  0
 28 87  1  0  0  0  0
 29 31  2  0  0  0  0
 29 86  1  0  0  0  0
 30 88  1  0  0  0  0
 31 89  1  0  0  0  0
 32 70  2  0  0  0  0
 33 71  1  0  0  0  0
 33 76  1  0  0  0  0
 34 77  1  0  0  0  0
 34 81  2  0  0  0  0
 35 53  1  0  0  0  0
 35 78  1  0  0  0  0
 35 82  2  0  0  0  0
 36 67  1  0  0  0  0
 36 73  1  0  0  0  0
 36 83  2  0  0  0  0
 37 68  1  0  0  0  0
 37 79  1  0  0  0  0
 37 84  2  0  0  0  0
 38 74  1  0  0  0  0
 38 75  1  0  0  0  0
 38 85  2  0  0  0  0
 39 42  1  0  0  0  0
 40 53  1  0  0  0  0
 41 73  1  0  0  0  0
 42 44  1  0  0  0  0
 43 45  1  0  0  0  0
 43 46  1  0  0  0  0
 44 52  1  0  0  0  0
 45 54  1  0  0  0  0
 46 74  1  0  0  0  0
 47 49  1  0  0  0  0
 47 72  1  0  0  0  0
 48 50  1  0  0  0  0
 48 72  1  0  0  0  0
 49 75  1  0  0  0  0
 50 75  1  0  0  0  0
 51 54  1  0  0  0  0
 51 74  1  0  0  0  0
 52 78  1  0  0  0  0
 53 73  1  0  0  0  0
 54 71  1  0  0  0  0
 57 64  1  0  0  0  0
 58 66  1  0  0  0  0
 59 68  1  0  0  0  0
 60 69  1  0  0  0  0
 61 69  1  0  0  0  0
 62 69  1  0  0  0  0
 63 80  1  0  0  0  0
 65 66  1  0  0  0  0
 65 87  1  0  0  0  0
 67 69  1  0  0  0  0
 67 79  1  0  0  0  0
 68 80  1  0  0  0  0
 70 71  1  0  0  0  0
M  CHG  1  80   1
M  ISO  4  38 100  65 101  75 100  87 101
M  END
> <Batch ID>
0157

> <Smiles>
CCc1c(C)cc(C)c(C(C)[101CH2:1][101O:1]c2ccc3c(c2)CN(C(=O)C(NC(=O)C(C)NC)C(C)(C)C)C(C(=O)NC2CCCc4ccccc42)C3)c1N1CC[100N:0]([100C:0](=O)N2CCCC(n3nc(-c4ccc(Oc5ccc(F)cc5F)cc4)c(C(N)=O)c3N)C2)CC1

> <Shape>
0.219

> <Color>
0.073

> <Negative vol penalty>
0.000

$$$$

  -OEChem-04052321593D

 85 93  0     1  0  0  0  0  0999 V2000
  -15.2090  -20.8647   26.2666 C   0  0  0  0  0  0  0  0  0  0  0  0
  -15.7777  -19.7435   25.6710 C   0  0  0  0  0  0  0  0  0  0  0  0
  -28.1084  -26.1738   18.4687 C   0  0  0  0  0  0  0  0  0  0  0  0
  -29.4934  -25.7877   20.4103 C   0  0  0  0  0  0  0  0  0  0  0  0
  -15.6940  -22.1359   25.9623 C   0  0  0  0  0  0  0  0  0  0  0  0
  -16.8313  -19.8929   24.7698 C   0  0  0  0  0  0  0  0  0  0  0  0
  -21.5735  -16.0974   23.9881 C   0  0  0  0  0  0  0  0  0  0  0  0
  -27.7096  -27.4015   18.9973 C   0  0  0  0  0  0  0  0  0  0  0  0
  -29.0946  -27.0155   20.9389 C   0  0  0  0  0  0  0  0  0  0  0  0
  -21.8272  -15.0930   23.0550 C   0  0  0  0  0  0  0  0  0  0  0  0
  -25.5327  -28.5203   21.3283 C   0  0  0  0  0  0  0  0  0  0  0  0
  -24.1758  -28.8387   21.2733 C   0  0  0  0  0  0  0  0  0  0  0  0
  -23.0934  -16.6570   21.7246 C   0  0  0  0  0  0  0  0  0  0  0  0
  -29.9356  -13.3052   19.2702 C   0  0  0  0  0  0  0  0  0  0  0  0
  -28.2151  -11.6992   18.7752 C   0  0  0  0  0  0  0  0  0  0  0  0
  -24.6881  -30.7930   19.9484 C   0  0  0  0  0  0  0  0  0  0  0  0
  -29.0002  -25.3669   19.1752 C   0  0  0  0  0  0  0  0  0  0  0  0
  -30.5168  -23.8511   17.7931 C   0  0  0  0  0  0  0  0  0  0  0  0
  -16.7604  -22.3004   25.0642 C   0  0  0  0  0  0  0  0  0  0  0  0
  -22.0696  -17.3941   23.7906 C   0  0  0  0  0  0  0  0  0  0  0  0
  -17.3302  -21.1676   24.4522 C   0  0  0  0  0  0  0  0  0  0  0  0
  -22.8469  -17.6754   22.6580 C   0  0  0  0  0  0  0  0  0  0  0  0
  -28.2027  -27.8223   20.2323 C   0  0  0  0  0  0  0  0  0  0  0  0
  -22.5848  -15.3734   21.9216 C   0  0  0  0  0  0  0  0  0  0  0  0
  -26.4673  -29.3383   20.6934 C   0  0  0  0  0  0  0  0  0  0  0  0
  -29.5229  -12.1461   18.6225 C   0  0  0  0  0  0  0  0  0  0  0  0
  -23.7535  -29.9750   20.5833 C   0  0  0  0  0  0  0  0  0  0  0  0
  -26.0450  -30.4746   20.0034 C   0  0  0  0  0  0  0  0  0  0  0  0
  -29.4121  -24.0984   18.6300 C   0  0  0  0  0  0  0  0  0  0  0  0
  -29.0095  -13.9756   20.0529 C   0  0  0  0  0  0  0  0  0  0  0  0
  -27.3661  -12.4413   19.5803 C   0  0  0  0  0  0  0  0  0  0  0  0
  -30.4726  -22.4989   17.5568 C   0  0  0  0  0  0  0  0  0  0  0  0
  -31.4954  -24.7624   17.2757 C   0  0  0  0  0  0  0  0  0  0  0  0
  -20.7573  -20.2638   23.4079 C   0  0  0  0  0  0  0  0  0  0  0  0
  -23.8410  -21.2616   23.5407 C   0  0  0  0  0  0  0  0  0  0  0  0
  -27.1465  -20.5195   23.1291 C   0  0  0  0  0  0  0  0  0  0  0  0
  -29.2490  -17.6515   20.2802 C   0  0  0  0  0  0  0  0  0  0  0  0
  -17.2194  -23.6977   24.7304 C   0  0  0  0  0  0  0  0  0  0  0  0
  -21.8097  -18.4597   24.8199 C   0  0  0  0  0  0  0  0  0  0  0  0
  -23.4195  -19.0461   22.4096 C   0  0  0  0  0  0  0  0  0  0  0  0
  -18.5856  -23.7440   24.0509 C   0  0  0  0  0  0  0  0  0  0  0  0
  -26.9641  -19.0250   17.8328 C   0  0  0  0  0  0  0  0  0  0  0  0
  -18.6622  -22.7069   22.9349 C   0  0  0  0  0  0  0  0  0  0  0  0
  -27.4779  -20.4606   17.7090 C   0  0  0  0  0  0  0  0  0  0  0  0
  -27.0559  -18.5272   19.2722 C   0  0  0  0  0  0  0  0  0  0  0  0
  -28.9336  -20.0512   19.7469 C   0  0  0  0  0  0  0  0  0  0  0  0
  -18.4908  -21.2871   23.4885 C   0  0  1  0  0  0  0  0  0  0  0  0
  -21.9317  -19.8736   24.2601 C   0  0  1  0  0  0  0  0  0  0  0  0
  -28.8882  -20.6048   18.3111 C   0  0  2  0  0  0  0  0  0  0  0  0
  -29.2804  -15.1133   22.2876 C   0  0  0  0  0  0  0  0  0  0  0  0
  -29.4299  -21.5500   23.2755 C   0  0  0  0  0  0  0  0  0  0  0  0
  -23.3574  -22.7031   20.8953 C   0  0  0  0  0  0  0  0  0  0  0  0
  -25.8392  -22.8934   20.6253 C   0  0  0  0  0  0  0  0  0  0  0  0
  -24.7081  -23.9960   22.5561 C   0  0  0  0  0  0  0  0  0  0  0  0
  -27.9953  -18.6211   25.2350 C   0  0  0  0  0  0  0  0  0  0  0  0
  -31.7205  -11.9686   17.7310 C   0  0  0  0  0  0  0  0  0  0  0  0
  -23.8372  -12.2362   20.6175 C   0  0  0  0  0  0  0  0  0  0  0  0
  -22.9049  -13.0556   21.4960 C   0  0  0  0  0  0  0  0  0  1  0  0
  -25.2422  -12.8169   20.5822 C   0  0  0  0  0  0  0  0  0  0  0  0
  -29.4177  -15.2233   20.7625 C   0  0  2  0  0  0  0  0  0  0  0  0
  -24.9391  -21.4785   22.5277 C   0  0  1  0  0  0  0  0  0  0  0  0
  -28.3533  -20.7711   24.0150 C   0  0  2  0  0  0  0  0  0  0  0  0
  -24.6987  -22.7423   21.6545 C   0  0  0  0  0  0  0  0  0  0  0  0
  -28.7169  -22.9919   18.9066 N   0  0  0  0  0  0  0  0  0  0  0  0
  -27.7308  -13.5721   20.2253 N   0  0  0  0  0  0  0  0  0  0  0  0
  -29.3863  -22.0364   18.2396 N   0  0  0  0  0  0  0  0  0  0  0  0
  -23.1323  -20.0558   23.4418 N   0  0  0  0  0  0  0  0  0  0  0  0
  -28.4274  -18.6750   19.7793 N   0  0  0  0  0  0  0  0  0  0  0  0
  -31.2574  -21.6722   16.8335 N   0  0  0  0  0  0  0  0  0  0  0  0
  -31.3928  -26.1178   17.6174 N   0  0  0  0  0  0  0  0  0  0  0  0
  -19.7162  -20.8368   24.1130 N   0  0  0  0  0  0  0  0  0  0  0  0
  -26.1893  -21.5005   23.2792 N   0  0  0  0  0  0  0  0  0  0  0  0
  -28.6921  -16.3784   20.2828 N   0  0  0  0  0  0  0  0  0  0  0  0
  -28.9385  -19.4791   24.4725 N   0  3  0  0  0  0  0  0  0  0  0  0
  -32.4234  -24.3885   16.5191 O   0  0  0  0  0  0  0  0  0  0  0  0
  -20.7937  -20.0613   22.1998 O   0  0  0  0  0  0  0  0  0  0  0  0
  -23.6249  -22.1269   24.3929 O   0  0  0  0  0  0  0  0  0  0  0  0
  -27.0632  -19.5516   22.3762 O   0  0  0  0  0  0  0  0  0  0  0  0
  -30.3967  -17.8560   20.6902 O   0  0  0  0  0  0  0  0  0  0  0  0
  -27.8140  -29.0204   20.7483 O   0  0  0  0  0  0  0  0  0  0  0  0
  -30.3949  -11.4520   17.8424 O   0  0  0  0  0  0  0  0  0  0  0  0
  -22.8333  -14.3950   21.0090 O   0  0  0  0  0  0  0  0  0  1  0  0
  -26.0722  -12.0210   19.7471 O   0  0  0  0  0  0  0  0  0  0  0  0
  -22.4503  -30.2798   20.5293 F   0  0  0  0  0  0  0  0  0  0  0  0
  -26.9381  -31.2636   19.3906 F   0  0  0  0  0  0  0  0  0  0  0  0
  1  2  1  0  0  0  0
  1  5  2  0  0  0  0
  2  6  2  0  0  0  0
  3  8  2  0  0  0  0
  3 17  1  0  0  0  0
  4  9  1  0  0  0  0
  4 17  2  0  0  0  0
  5 19  1  0  0  0  0
  6 21  1  0  0  0  0
  7 10  2  0  0  0  0
  7 20  1  0  0  0  0
  8 23  1  0  0  0  0
  9 23  2  0  0  0  0
 10 24  1  0  0  0  0
 11 12  2  0  0  0  0
 11 25  1  0  0  0  0
 12 27  1  0  0  0  0
 13 22  1  0  0  0  0
 13 24  2  0  0  0  0
 14 26  1  0  0  0  0
 14 30  2  0  0  0  0
 15 26  2  0  0  0  0
 15 31  1  0  0  0  0
 16 27  2  0  0  0  0
 16 28  1  0  0  0  0
 17 29  1  0  0  0  0
 18 29  1  0  0  0  0
 18 32  2  0  0  0  0
 18 33  1  0  0  0  0
 19 21  2  0  0  0  0
 19 38  1  0  0  0  0
 20 22  2  0  0  0  0
 20 39  1  0  0  0  0
 21 47  1  0  0  0  0
 22 40  1  0  0  0  0
 23 80  1  0  0  0  0
 24 82  1  0  0  0  0
 25 28  2  0  0  0  0
 25 80  1  0  0  0  0
 26 81  1  0  0  0  0
 27 84  1  0  0  0  0
 28 85  1  0  0  0  0
 29 64  2  0  0  0  0
 30 60  1  0  0  0  0
 30 65  1  0  0  0  0
 31 65  2  0  0  0  0
 31 83  1  0  0  0  0
 32 66  1  0  0  0  0
 32 69  1  0  0  0  0
 33 70  1  0  0  0  0
 33 75  2  0  0  0  0
 34 48  1  0  0  0  0
 34 71  1  0  0  0  0
 34 76  2  0  0  0  0
 35 61  1  0  0  0  0
 35 67  1  0  0  0  0
 35 77  2  0  0  0  0
 36 62  1  0  0  0  0
 36 72  1  0  0  0  0
 36 78  2  0  0  0  0
 37 68  1  0  0  0  0
 37 73  1  0  0  0  0
 37 79  2  0  0  0  0
 38 41  1  0  0  0  0
 39 48  1  0  0  0  0
 40 67  1  0  0  0  0
 41 43  1  0  0  0  0
 42 44  1  0  0  0  0
 42 45  1  0  0  0  0
 43 47  1  0  0  0  0
 44 49  1  0  0  0  0
 45 68  1  0  0  0  0
 46 49  1  0  0  0  0
 46 68  1  0  0  0  0
 47 71  1  0  0  0  0
 48 67  1  0  0  0  0
 49 66  1  0  0  0  0
 50 60  1  0  0  0  0
 51 62  1  0  0  0  0
 52 63  1  0  0  0  0
 53 63  1  0  0  0  0
 54 63  1  0  0  0  0
 55 74  1  0  0  0  0
 56 81  1  0  0  0  0
 57 58  1  0  0  0  0
 57 59  1  0  0  0  0
 58 82  1  0  0  0  0
 59 83  1  0  0  0  0
 60 73  1  0  0  0  0
 61 63  1  0  0  0  0
 61 72  1  0  0  0  0
 62 74  1  0  0  0  0
 64 66  1  0  0  0  0
M  CHG  1  74   1
M  ISO  4  37 100  58 101  73 100  82 101
M  END
> <Batch ID>
0157

> <Smiles>
CNC(C)C(=O)NC(C(=O)N1Cc2cc([101O:1][101CH2:1]CCOc3cc(OC)cc(C(C)[100NH:0][100C:0](=O)N4CCCC(n5nc(-c6ccc(Oc7ccc(F)cc7F)cc6)c(C(N)=O)c5N)C4)n3)ccc2CC1C(=O)NC1CCCc2ccccc21)C(C)(C)C

> <Shape>
0.218

> <Color>
0.077

> <Negative vol penalty>
0.000

$$$$

  -OEChem-04052321593D

 87 96  0     1  0  0  0  0  0999 V2000
  -33.5044   -3.7078   34.0472 C   0  0  0  0  0  0  0  0  0  0  0  0
  -32.7635   -4.4598   33.1411 C   0  0  0  0  0  0  0  0  0  0  0  0
  -23.2883   -9.7997   19.9129 C   0  0  0  0  0  0  0  0  0  0  0  0
  -23.7398   -9.9400   22.2822 C   0  0  0  0  0  0  0  0  0  0  0  0
  -33.3534   -3.9217   35.4167 C   0  0  0  0  0  0  0  0  0  0  0  0
  -31.8703   -5.4254   33.6040 C   0  0  0  0  0  0  0  0  0  0  0  0
  -32.2035   -9.7734   31.0294 C   0  0  0  0  0  0  0  0  0  0  0  0
  -27.6346  -15.1598   23.9467 C   0  0  0  0  0  0  0  0  0  0  0  0
  -22.5620   -8.6271   20.1207 C   0  0  0  0  0  0  0  0  0  0  0  0
  -23.0134   -8.7674   22.4900 C   0  0  0  0  0  0  0  0  0  0  0  0
  -31.5933   -9.8200   29.7767 C   0  0  0  0  0  0  0  0  0  0  0  0
  -26.9220  -14.3674   24.8481 C   0  0  0  0  0  0  0  0  0  0  0  0
  -19.7665   -7.8562   22.7082 C   0  0  0  0  0  0  0  0  0  0  0  0
  -18.8644   -7.8344   23.7718 C   0  0  0  0  0  0  0  0  0  0  0  0
  -29.7055  -10.9674   30.7455 C   0  0  0  0  0  0  0  0  0  0  0  0
  -20.0705   -5.9871   24.7567 C   0  0  0  0  0  0  0  0  0  0  0  0
  -23.8772  -10.4561   20.9936 C   0  0  0  0  0  0  0  0  0  0  0  0
  -24.1365  -12.9862   20.7953 C   0  0  0  0  0  0  0  0  0  0  0  0
  -32.4650   -4.8971   35.8963 C   0  0  0  0  0  0  0  0  0  0  0  0
  -31.5633  -10.3147   32.1535 C   0  0  0  0  0  0  0  0  0  0  0  0
  -29.0181  -15.0881   23.9582 C   0  0  0  0  0  0  0  0  0  0  0  0
  -31.7063   -5.6516   34.9812 C   0  0  0  0  0  0  0  0  0  0  0  0
  -30.3108  -10.9287   32.0109 C   0  0  0  0  0  0  0  0  0  0  0  0
  -29.6952  -14.2317   24.8389 C   0  0  0  0  0  0  0  0  0  0  0  0
  -22.4246   -8.1110   21.4092 C   0  0  0  0  0  0  0  0  0  0  0  0
  -30.3429  -10.4145   29.6351 C   0  0  0  0  0  0  0  0  0  0  0  0
  -27.5945  -13.5125   25.7341 C   0  0  0  0  0  0  0  0  0  0  0  0
  -20.8206   -6.9435   22.6687 C   0  0  0  0  0  0  0  0  0  0  0  0
  -28.9893  -13.4370   25.7308 C   0  0  0  0  0  0  0  0  0  0  0  0
  -19.0165   -6.8998   24.7961 C   0  0  0  0  0  0  0  0  0  0  0  0
  -20.9726   -6.0089   23.6930 C   0  0  0  0  0  0  0  0  0  0  0  0
  -24.6281  -11.6671   20.7796 C   0  0  0  0  0  0  0  0  0  0  0  0
  -25.2378  -13.7661   20.5401 C   0  0  0  0  0  0  0  0  0  0  0  0
  -22.8035  -13.4637   21.0206 C   0  0  0  0  0  0  0  0  0  0  0  0
  -30.4988   -9.1430   34.9099 C   0  0  0  0  0  0  0  0  0  0  0  0
  -29.9377  -12.2681   35.5740 C   0  0  0  0  0  0  0  0  0  0  0  0
  -29.3598  -15.4207   34.4017 C   0  0  0  0  0  0  0  0  0  0  0  0
  -31.1091  -12.9232   21.3579 C   0  0  0  0  0  0  0  0  0  0  0  0
  -32.3010   -5.0595   37.3868 C   0  0  0  0  0  0  0  0  0  0  0  0
  -29.9746  -15.8132   23.0655 C   0  0  0  0  0  0  0  0  0  0  0  0
  -32.2467  -10.2803   33.4930 C   0  0  0  0  0  0  0  0  0  0  0  0
  -29.5905  -11.5426   33.1826 C   0  0  0  0  0  0  0  0  0  0  0  0
  -31.6095   -6.3608   37.7852 C   0  0  0  0  0  0  0  0  0  0  0  0
  -31.2869  -15.6537   23.8481 C   0  0  0  0  0  0  0  0  0  0  0  0
  -29.4593  -13.6630   18.2908 C   0  0  0  0  0  0  0  0  0  0  0  0
  -30.3713   -6.5925   36.9250 C   0  0  0  0  0  0  0  0  0  0  0  0
  -27.9897  -13.3544   18.5822 C   0  0  0  0  0  0  0  0  0  0  0  0
  -30.3928  -12.6835   18.9987 C   0  0  0  0  0  0  0  0  0  0  0  0
  -28.7067  -12.2538   20.7440 C   0  0  0  0  0  0  0  0  0  0  0  0
  -30.7455   -6.7254   35.4438 C   0  0  1  0  0  0  0  0  0  0  0  0
  -31.2753  -10.4054   34.6627 C   0  0  1  0  0  0  0  0  0  0  0  0
  -27.7285  -13.2491   20.0968 C   0  0  2  0  0  0  0  0  0  0  0  0
  -31.1891  -14.3130   24.6246 C   0  0  1  0  0  0  0  0  0  0  0  0
  -31.9886  -14.3795   25.9283 C   0  0  0  0  0  0  0  0  0  0  0  0
  -28.9017  -17.7604   35.1849 C   0  0  0  0  0  0  0  0  0  0  0  0
  -27.0627  -11.4834   36.2284 C   0  0  0  0  0  0  0  0  0  0  0  0
  -26.4400  -13.9033   36.0707 C   0  0  0  0  0  0  0  0  0  0  0  0
  -28.0730  -13.1474   37.7984 C   0  0  0  0  0  0  0  0  0  0  0  0
  -31.8174  -16.4557   33.1179 C   0  0  0  0  0  0  0  0  0  0  0  0
  -26.5740  -13.3430   27.8755 C   0  0  0  0  0  0  0  0  0  0  0  0
  -31.6717  -13.1366   23.7656 C   0  0  0  0  0  0  0  0  0  0  0  0
  -30.6006  -10.5204   27.2733 C   0  0  0  0  0  0  0  0  0  1  0  0
  -29.8984  -11.2831   26.1665 C   0  0  0  0  0  0  0  0  0  0  0  0
  -28.7776  -13.2126   35.3712 C   0  0  1  0  0  0  0  0  0  0  0  0
  -29.9703  -16.7605   34.7715 C   0  0  2  0  0  0  0  0  0  0  0  0
  -27.6008  -12.9235   36.3452 C   0  0  0  0  0  0  0  0  0  0  0  0
  -25.9396  -11.6085   20.5336 N   0  0  0  0  0  0  0  0  0  0  0  0
  -26.2815  -12.9005   20.3924 N   0  0  0  0  0  0  0  0  0  0  0  0
  -30.2970  -11.4782   34.4727 N   0  0  0  0  0  0  0  0  0  0  0  0
  -30.0939  -12.6319   20.4319 N   0  0  0  0  0  0  0  0  0  0  0  0
  -25.4057  -15.1011   20.4298 N   0  0  0  0  0  0  0  0  0  0  0  0
  -21.7910  -12.5267   21.2682 N   0  0  0  0  0  0  0  0  0  0  0  0
  -31.2878   -8.0401   35.1755 N   0  0  0  0  0  0  0  0  0  0  0  0
  -29.3251  -14.5606   35.4789 N   0  0  0  0  0  0  0  0  0  0  0  0
  -30.7398  -12.8575   22.6958 N   0  0  0  0  0  0  0  0  0  0  0  0
  -30.7198  -17.3253   33.6138 N   0  3  0  0  0  0  0  0  0  0  0  0
  -22.5155  -14.6841   20.9865 O   0  0  0  0  0  0  0  0  0  0  0  0
  -29.2745   -9.1680   34.8644 O   0  0  0  0  0  0  0  0  0  0  0  0
  -30.5088  -12.2376   36.6669 O   0  0  0  0  0  0  0  0  0  0  0  0
  -28.9510  -15.1642   33.2714 O   0  0  0  0  0  0  0  0  0  0  0  0
  -32.2580  -13.2251   21.0175 O   0  0  0  0  0  0  0  0  0  0  0  0
  -21.7157   -6.9669   21.6124 O   0  0  0  0  0  0  0  0  0  0  0  0
  -26.8662  -12.7600   26.6080 O   0  0  0  0  0  0  0  0  0  0  0  0
  -29.7448  -10.4607   28.4136 O   0  0  0  0  0  0  0  0  0  1  0  0
  -29.6299  -12.6068   26.6125 O   0  0  0  0  0  0  0  0  0  0  0  0
  -18.1510   -6.8800   25.8183 F   0  0  0  0  0  0  0  0  0  0  0  0
  -21.9839   -5.1303   23.6612 F   0  0  0  0  0  0  0  0  0  0  0  0
  1  2  1  0  0  0  0
  1  5  2  0  0  0  0
  2  6  2  0  0  0  0
  3  9  2  0  0  0  0
  3 17  1  0  0  0  0
  4 10  1  0  0  0  0
  4 17  2  0  0  0  0
  5 19  1  0  0  0  0
  6 22  1  0  0  0  0
  7 11  2  0  0  0  0
  7 20  1  0  0  0  0
  8 12  1  0  0  0  0
  8 21  2  0  0  0  0
  9 25  1  0  0  0  0
 10 25  2  0  0  0  0
 11 26  1  0  0  0  0
 12 27  2  0  0  0  0
 13 14  2  0  0  0  0
 13 28  1  0  0  0  0
 14 30  1  0  0  0  0
 15 23  1  0  0  0  0
 15 26  2  0  0  0  0
 16 30  2  0  0  0  0
 16 31  1  0  0  0  0
 17 32  1  0  0  0  0
 18 32  1  0  0  0  0
 18 33  2  0  0  0  0
 18 34  1  0  0  0  0
 19 22  2  0  0  0  0
 19 39  1  0  0  0  0
 20 23  2  0  0  0  0
 20 41  1  0  0  0  0
 21 24  1  0  0  0  0
 21 40  1  0  0  0  0
 22 50  1  0  0  0  0
 23 42  1  0  0  0  0
 24 29  2  0  0  0  0
 24 53  1  0  0  0  0
 25 82  1  0  0  0  0
 26 84  1  0  0  0  0
 27 29  1  0  0  0  0
 27 83  1  0  0  0  0
 28 31  2  0  0  0  0
 28 82  1  0  0  0  0
 29 85  1  0  0  0  0
 30 86  1  0  0  0  0
 31 87  1  0  0  0  0
 32 67  2  0  0  0  0
 33 68  1  0  0  0  0
 33 71  1  0  0  0  0
 34 72  1  0  0  0  0
 34 77  2  0  0  0  0
 35 51  1  0  0  0  0
 35 73  1  0  0  0  0
 35 78  2  0  0  0  0
 36 64  1  0  0  0  0
 36 69  1  0  0  0  0
 36 79  2  0  0  0  0
 37 65  1  0  0  0  0
 37 74  1  0  0  0  0
 37 80  2  0  0  0  0
 38 70  1  0  0  0  0
 38 75  1  0  0  0  0
 38 81  2  0  0  0  0
 39 43  1  0  0  0  0
 40 44  1  0  0  0  0
 41 51  1  0  0  0  0
 42 69  1  0  0  0  0
 43 46  1  0  0  0  0
 44 53  1  0  0  0  0
 45 47  1  0  0  0  0
 45 48  1  0  0  0  0
 46 50  1  0  0  0  0
 47 52  1  0  0  0  0
 48 70  1  0  0  0  0
 49 52  1  0  0  0  0
 49 70  1  0  0  0  0
 50 73  1  0  0  0  0
 51 69  1  0  0  0  0
 52 68  1  0  0  0  0
 53 54  1  0  0  0  0
 53 61  1  0  0  0  0
 55 65  1  0  0  0  0
 56 66  1  0  0  0  0
 57 66  1  0  0  0  0
 58 66  1  0  0  0  0
 59 76  1  0  0  0  0
 60 83  1  0  0  0  0
 61 75  1  0  0  0  0
 62 63  1  0  0  0  0
 62 84  1  0  0  0  0
 63 85  1  0  0  0  0
 64 66  1  0  0  0  0
 64 74  1  0  0  0  0
 65 76  1  0  0  0  0
 67 68  1  0  0  0  0
M  CHG  1  76   1
M  ISO  4  38 100  62 101  75 100  84 101
M  END
> <Batch ID>
0157

> <Smiles>
CNC(C)C(=O)NC(C(=O)N1Cc2cc([101O:1][101CH2:1]COc3c(OC)ccc4c3C(C)(C[100NH:0][100C:0](=O)N3CCCC(n5nc(-c6ccc(Oc7ccc(F)cc7F)cc6)c(C(N)=O)c5N)C3)CC4)ccc2CC1C(=O)NC1CCCc2ccccc21)C(C)(C)C

> <Shape>
0.137

> <Color>
0.170

> <Negative vol penalty>
0.000

$$$$

  -OEChem-04052321593D

 88 97  0     1  0  0  0  0  0999 V2000
  -28.6991  -37.1159   23.9472 C   0  0  0  0  0  0  0  0  0  0  0  0
  -29.0753  -35.8827   23.4245 C   0  0  0  0  0  0  0  0  0  0  0  0
  -26.4108   -7.0748   21.2407 C   0  0  0  0  0  0  0  0  0  0  0  0
  -24.4940   -8.5310   21.4458 C   0  0  0  0  0  0  0  0  0  0  0  0
  -27.5411  -37.2219   24.7163 C   0  0  0  0  0  0  0  0  0  0  0  0
  -28.2941  -34.7544   23.6717 C   0  0  0  0  0  0  0  0  0  0  0  0
  -27.3166  -30.0496   19.8750 C   0  0  0  0  0  0  0  0  0  0  0  0
  -25.9113   -6.2726   22.2666 C   0  0  0  0  0  0  0  0  0  0  0  0
  -23.9944   -7.7288   22.4717 C   0  0  0  0  0  0  0  0  0  0  0  0
  -27.8914  -28.7827   19.7840 C   0  0  0  0  0  0  0  0  0  0  0  0
  -22.3530   -4.7886   22.7577 C   0  0  0  0  0  0  0  0  0  0  0  0
  -20.9981   -4.4594   22.7195 C   0  0  0  0  0  0  0  0  0  0  0  0
  -26.0768  -27.8725   21.0869 C   0  0  0  0  0  0  0  0  0  0  0  0
  -29.3310  -24.1582   18.4062 C   0  0  0  0  0  0  0  0  0  0  0  0
  -30.4530  -22.9912   20.6783 C   0  0  0  0  0  0  0  0  0  0  0  0
  -20.6768   -5.5333   24.8597 C   0  0  0  0  0  0  0  0  0  0  0  0
  -25.7023   -8.2040   20.8303 C   0  0  0  0  0  0  0  0  0  0  0  0
  -25.9705   -8.9021   18.3914 C   0  0  0  0  0  0  0  0  0  0  0  0
  -26.7401  -36.0961   24.9650 C   0  0  0  0  0  0  0  0  0  0  0  0
  -26.1213  -30.2397   20.5831 C   0  0  0  0  0  0  0  0  0  0  0  0
  -27.1250  -34.8451   24.4461 C   0  0  0  0  0  0  0  0  0  0  0  0
  -25.4875  -29.1423   21.1833 C   0  0  0  0  0  0  0  0  0  0  0  0
  -29.7319  -22.8225   18.3785 C   0  0  0  0  0  0  0  0  0  0  0  0
  -30.2928  -22.2390   19.5145 C   0  0  0  0  0  0  0  0  0  0  0  0
  -29.4912  -24.9104   19.5699 C   0  0  0  0  0  0  0  0  0  0  0  0
  -30.0521  -24.3269   20.7059 C   0  0  0  0  0  0  0  0  0  0  0  0
  -24.7030   -6.5996   22.8821 C   0  0  0  0  0  0  0  0  0  0  0  0
  -27.2730  -27.6944   20.3924 C   0  0  0  0  0  0  0  0  0  0  0  0
  -22.8699   -5.4901   23.8470 C   0  0  0  0  0  0  0  0  0  0  0  0
  -20.1600   -4.8317   23.7705 C   0  0  0  0  0  0  0  0  0  0  0  0
  -22.0318   -5.8625   24.8980 C   0  0  0  0  0  0  0  0  0  0  0  0
  -26.2181   -9.0334   19.7710 C   0  0  0  0  0  0  0  0  0  0  0  0
  -26.6845   -9.9245   17.8157 C   0  0  0  0  0  0  0  0  0  0  0  0
  -25.1669   -7.9420   17.6928 C   0  0  0  0  0  0  0  0  0  0  0  0
  -25.2727  -31.9269   23.1398 C   0  0  0  0  0  0  0  0  0  0  0  0
  -22.2984  -30.9064   22.3435 C   0  0  0  0  0  0  0  0  0  0  0  0
  -20.3580  -28.5864   20.7624 C   0  0  0  0  0  0  0  0  0  0  0  0
  -28.4403  -15.1595   19.9055 C   0  0  0  0  0  0  0  0  0  0  0  0
  -25.5226  -36.2508   25.8416 C   0  0  0  0  0  0  0  0  0  0  0  0
  -25.5001  -31.6080   20.6494 C   0  0  0  0  0  0  0  0  0  0  0  0
  -24.1924  -29.2897   21.9380 C   0  0  0  0  0  0  0  0  0  0  0  0
  -24.5491  -35.0790   25.7442 C   0  0  0  0  0  0  0  0  0  0  0  0
  -30.5871  -12.6114   18.4929 C   0  0  0  0  0  0  0  0  0  0  0  0
  -25.2989  -33.7535   25.8316 C   0  0  0  0  0  0  0  0  0  0  0  0
  -29.6719  -11.3862   18.5329 C   0  0  0  0  0  0  0  0  0  0  0  0
  -29.0082  -18.1716   21.2112 C   0  0  0  0  0  0  0  0  0  0  0  0
  -30.3848  -13.4929   19.7218 C   0  0  0  0  0  0  0  0  0  0  0  0
  -28.0617  -12.7113   19.9790 C   0  0  0  0  0  0  0  0  0  0  0  0
  -28.9931  -19.6711   20.9587 C   0  0  0  0  0  0  0  0  0  0  0  0
  -29.9288  -18.4642   19.0478 C   0  0  0  0  0  0  0  0  0  0  0  0
  -26.2904  -33.6030   24.6715 C   0  0  1  0  0  0  0  0  0  0  0  0
  -24.5501  -31.7763   21.8311 C   0  0  1  0  0  0  0  0  0  0  0  0
  -28.2023  -11.7914   18.7526 C   0  0  2  0  0  0  0  0  0  0  0  0
  -28.9770  -17.5694   19.8170 C   0  0  1  0  0  0  0  0  0  0  0  0
  -29.5499  -22.0367   17.1216 C   0  0  0  0  0  0  0  0  0  0  0  0
  -31.7148  -25.2424   22.3645 C   0  0  0  0  0  0  0  0  0  0  0  0
  -29.4209  -24.5383   23.1372 C   0  0  0  0  0  0  0  0  0  0  0  0
  -17.9595  -27.9980   20.3175 C   0  0  0  0  0  0  0  0  0  0  0  0
  -22.0256  -29.8687   25.1999 C   0  0  0  0  0  0  0  0  0  0  0  0
  -20.0759  -28.4941   24.4401 C   0  0  0  0  0  0  0  0  0  0  0  0
  -19.9776  -30.9824   24.2945 C   0  0  0  0  0  0  0  0  0  0  0  0
  -20.7187  -28.8364   17.8356 C   0  0  0  0  0  0  0  0  0  0  0  0
  -30.7288  -20.8106   19.5086 C   0  0  0  0  0  0  0  0  0  0  0  0
  -29.0534  -26.3456   19.5757 C   0  0  0  0  0  0  0  0  0  1  0  0
  -30.2342  -25.1128   21.9629 C   0  0  0  0  0  0  0  0  0  0  0  0
  -21.4528  -29.7041   22.6877 C   0  0  1  0  0  0  0  0  0  0  0  0
  -19.1880  -28.7346   19.8067 C   0  0  2  0  0  0  0  0  0  0  0  0
  -20.9084  -29.7595   24.1430 C   0  0  0  0  0  0  0  0  0  0  0  0
  -27.0264  -10.0582   20.0546 N   0  0  0  0  0  0  0  0  0  0  0  0
  -27.2930  -10.5802   18.8453 N   0  0  0  0  0  0  0  0  0  0  0  0
  -23.6278  -30.6487   21.9799 N   0  0  0  0  0  0  0  0  0  0  0  0
  -28.9683  -13.8585   19.8629 N   0  0  0  0  0  0  0  0  0  0  0  0
  -26.8451  -10.3175   16.5342 N   0  0  0  0  0  0  0  0  0  0  0  0
  -24.5011   -6.9594   18.4381 N   0  0  0  0  0  0  0  0  0  0  0  0
  -25.5953  -33.2325   23.4574 N   0  0  0  0  0  0  0  0  0  0  0  0
  -20.4159  -29.6278   21.6643 N   0  0  0  0  0  0  0  0  0  0  0  0
  -29.3663  -16.1897   19.7960 N   0  0  0  0  0  0  0  0  0  0  0  0
  -29.5901  -19.8442   19.5731 N   0  3  2  0  0  0  0  0  0  0  0  0
  -19.5412  -28.1866   18.4666 N   0  3  0  0  0  0  0  0  0  0  0  0
  -25.0561   -7.9451   16.4433 O   0  0  0  0  0  0  0  0  0  0  0  0
  -25.5180  -30.9324   23.8125 O   0  0  0  0  0  0  0  0  0  0  0  0
  -21.7958  -32.0320   22.3884 O   0  0  0  0  0  0  0  0  0  0  0  0
  -21.1401  -27.6395   20.7161 O   0  0  0  0  0  0  0  0  0  0  0  0
  -27.2316  -15.3867   20.0267 O   0  0  0  0  0  0  0  0  0  0  0  0
  -24.2151   -5.8169   23.8831 O   0  0  0  0  0  0  0  0  0  0  0  0
  -27.8322  -26.4568   20.3057 O   0  0  0  0  0  0  0  0  0  1  0  0
  -18.8586   -4.5169   23.7329 F   0  0  0  0  0  0  0  0  0  0  0  0
  -22.5223   -6.5375   25.9465 F   0  0  0  0  0  0  0  0  0  0  0  0
  1  2  1  0  0  0  0
  1  5  2  0  0  0  0
  2  6  2  0  0  0  0
  3  8  2  0  0  0  0
  3 17  1  0  0  0  0
  4  9  1  0  0  0  0
  4 17  2  0  0  0  0
  5 19  1  0  0  0  0
  6 21  1  0  0  0  0
  7 10  2  0  0  0  0
  7 20  1  0  0  0  0
  8 27  1  0  0  0  0
  9 27  2  0  0  0  0
 10 28  1  0  0  0  0
 11 12  2  0  0  0  0
 11 29  1  0  0  0  0
 12 30  1  0  0  0  0
 13 22  1  0  0  0  0
 13 28  2  0  0  0  0
 14 23  2  0  0  0  0
 14 25  1  0  0  0  0
 15 24  2  0  0  0  0
 15 26  1  0  0  0  0
 16 30  2  0  0  0  0
 16 31  1  0  0  0  0
 17 32  1  0  0  0  0
 18 32  1  0  0  0  0
 18 33  2  0  0  0  0
 18 34  1  0  0  0  0
 19 21  2  0  0  0  0
 19 39  1  0  0  0  0
 20 22  2  0  0  0  0
 20 40  1  0  0  0  0
 21 51  1  0  0  0  0
 22 41  1  0  0  0  0
 23 24  1  0  0  0  0
 23 55  1  0  0  0  0
 24 63  1  0  0  0  0
 25 26  2  0  0  0  0
 25 64  1  0  0  0  0
 26 65  1  0  0  0  0
 27 85  1  0  0  0  0
 28 86  1  0  0  0  0
 29 31  2  0  0  0  0
 29 85  1  0  0  0  0
 30 87  1  0  0  0  0
 31 88  1  0  0  0  0
 32 69  2  0  0  0  0
 33 70  1  0  0  0  0
 33 73  1  0  0  0  0
 34 74  1  0  0  0  0
 34 80  2  0  0  0  0
 35 52  1  0  0  0  0
 35 75  1  0  0  0  0
 35 81  2  0  0  0  0
 36 66  1  0  0  0  0
 36 71  1  0  0  0  0
 36 82  2  0  0  0  0
 37 67  1  0  0  0  0
 37 76  1  0  0  0  0
 37 83  2  0  0  0  0
 38 72  1  0  0  0  0
 38 77  1  0  0  0  0
 38 84  2  0  0  0  0
 39 42  1  0  0  0  0
 40 52  1  0  0  0  0
 41 71  1  0  0  0  0
 42 44  1  0  0  0  0
 43 45  1  0  0  0  0
 43 47  1  0  0  0  0
 44 51  1  0  0  0  0
 45 53  1  0  0  0  0
 46 49  1  0  0  0  0
 46 54  1  0  0  0  0
 47 72  1  0  0  0  0
 48 53  1  0  0  0  0
 48 72  1  0  0  0  0
 49 78  1  0  0  0  0
 50 54  1  0  0  0  0
 50 78  1  0  0  0  0
 51 75  1  0  0  0  0
 52 71  1  0  0  0  0
 53 70  1  0  0  0  0
 54 77  1  0  0  0  0
 56 65  1  0  0  0  0
 57 65  1  0  0  0  0
 58 67  1  0  0  0  0
 59 68  1  0  0  0  0
 60 68  1  0  0  0  0
 61 68  1  0  0  0  0
 62 79  1  0  0  0  0
 63 78  1  0  0  0  0
 64 86  1  0  0  0  0
 66 68  1  0  0  0  0
 66 76  1  0  0  0  0
 67 79  1  0  0  0  0
 69 70  1  0  0  0  0
M  CHG  2  78   1  79   1
M  ISO  4  38 100  64 101  77 100  86 101
M  END
> <Batch ID>
0157

> <Smiles>
CNC(C)C(=O)NC(C(=O)N1Cc2cc([101O:1][101CH2:1]c3cc(C)c(CN4CCC([100NH:0][100C:0](=O)N5CCCC(n6nc(-c7ccc(Oc8ccc(F)cc8F)cc7)c(C(N)=O)c6N)C5)C4)cc3C(C)C)ccc2CC1C(=O)NC1CCCc2ccccc21)C(C)(C)C

> <Shape>
0.318

> <Color>
0.076

> <Negative vol penalty>
0.000

$$$$

  -OEChem-04052321593D

 88 97  0     1  0  0  0  0  0999 V2000
  -32.5279  -34.7758   19.6262 C   0  0  0  0  0  0  0  0  0  0  0  0
  -32.0596  -33.4830   19.4148 C   0  0  0  0  0  0  0  0  0  0  0  0
  -23.6045   -9.8292   21.9915 C   0  0  0  0  0  0  0  0  0  0  0  0
  -25.0625   -7.9036   22.0504 C   0  0  0  0  0  0  0  0  0  0  0  0
  -32.0722  -35.5109   20.7197 C   0  0  0  0  0  0  0  0  0  0  0  0
  -31.1361  -32.9241   20.2975 C   0  0  0  0  0  0  0  0  0  0  0  0
  -26.5930  -29.0579   18.9122 C   0  0  0  0  0  0  0  0  0  0  0  0
  -22.5069   -8.9920   21.7920 C   0  0  0  0  0  0  0  0  0  0  0  0
  -23.9649   -7.0664   21.8508 C   0  0  0  0  0  0  0  0  0  0  0  0
  -26.4812  -27.6711   19.0025 C   0  0  0  0  0  0  0  0  0  0  0  0
  -21.4488   -5.7769   23.7021 C   0  0  0  0  0  0  0  0  0  0  0  0
  -21.3545   -4.6341   24.4962 C   0  0  0  0  0  0  0  0  0  0  0  0
  -29.1976  -20.6229   18.8638 C   0  0  0  0  0  0  0  0  0  0  0  0
  -28.2739  -21.5679   20.8863 C   0  0  0  0  0  0  0  0  0  0  0  0
  -25.3869  -27.9045   21.1395 C   0  0  0  0  0  0  0  0  0  0  0  0
  -21.4065   -3.2529   22.5146 C   0  0  0  0  0  0  0  0  0  0  0  0
  -24.8824   -9.2850   22.1207 C   0  0  0  0  0  0  0  0  0  0  0  0
  -26.5418  -10.5844   23.5578 C   0  0  0  0  0  0  0  0  0  0  0  0
  -31.1353  -34.9643   21.6108 C   0  0  0  0  0  0  0  0  0  0  0  0
  -26.1116  -29.8793   19.9418 C   0  0  0  0  0  0  0  0  0  0  0  0
  -30.6685  -33.6521   21.4047 C   0  0  0  0  0  0  0  0  0  0  0  0
  -28.7656  -20.4694   20.1811 C   0  0  0  0  0  0  0  0  0  0  0  0
  -25.4915  -29.3015   21.0588 C   0  0  0  0  0  0  0  0  0  0  0  0
  -28.6463  -22.9733   18.9567 C   0  0  0  0  0  0  0  0  0  0  0  0
  -22.6870   -7.6106   21.7217 C   0  0  0  0  0  0  0  0  0  0  0  0
  -25.8807  -27.0941   20.1176 C   0  0  0  0  0  0  0  0  0  0  0  0
  -21.5218   -5.6578   22.3142 C   0  0  0  0  0  0  0  0  0  0  0  0
  -29.1380  -21.8748   18.2516 C   0  0  0  0  0  0  0  0  0  0  0  0
  -28.2143  -22.8198   20.2741 C   0  0  0  0  0  0  0  0  0  0  0  0
  -21.3334   -3.3721   23.9025 C   0  0  0  0  0  0  0  0  0  0  0  0
  -21.5007   -4.3958   21.7205 C   0  0  0  0  0  0  0  0  0  0  0  0
  -26.0167  -10.1494   22.3262 C   0  0  0  0  0  0  0  0  0  0  0  0
  -27.6077  -11.3799   23.2149 C   0  0  0  0  0  0  0  0  0  0  0  0
  -26.1053  -10.2952   24.8925 C   0  0  0  0  0  0  0  0  0  0  0  0
  -27.4265  -31.9648   21.9481 C   0  0  0  0  0  0  0  0  0  0  0  0
  -24.3406  -32.5160   22.7824 C   0  0  0  0  0  0  0  0  0  0  0  0
  -21.1312  -31.3657   22.9363 C   0  0  0  0  0  0  0  0  0  0  0  0
  -30.0070  -15.2396   20.1543 C   0  0  0  0  0  0  0  0  0  0  0  0
  -30.7078  -35.7800   22.8052 C   0  0  0  0  0  0  0  0  0  0  0  0
  -26.2158  -31.3746   19.8169 C   0  0  0  0  0  0  0  0  0  0  0  0
  -24.9401  -30.1400   22.1819 C   0  0  0  0  0  0  0  0  0  0  0  0
  -29.4458  -35.2523   23.4830 C   0  0  0  0  0  0  0  0  0  0  0  0
  -29.9199  -12.0701   18.7777 C   0  0  0  0  0  0  0  0  0  0  0  0
  -29.5346  -33.7416   23.6746 C   0  0  0  0  0  0  0  0  0  0  0  0
  -28.9415  -11.3115   19.6740 C   0  0  0  0  0  0  0  0  0  0  0  0
  -27.9382  -18.0746   20.1358 C   0  0  0  0  0  0  0  0  0  0  0  0
  -30.2756  -18.5893   20.9611 C   0  0  0  0  0  0  0  0  0  0  0  0
  -29.4253  -13.4861   18.5058 C   0  0  0  0  0  0  0  0  0  0  0  0
  -28.0335  -16.6949   20.7933 C   0  0  0  0  0  0  0  0  0  0  0  0
  -30.3056  -17.2129   21.6191 C   0  0  0  0  0  0  0  0  0  0  0  0
  -28.1931  -13.5382   20.6498 C   0  0  0  0  0  0  0  0  0  0  0  0
  -28.8305  -19.1078   20.8469 C   0  0  0  0  0  0  0  0  0  0  0  0
  -29.6477  -33.0202   22.3261 C   0  0  1  0  0  0  0  0  0  0  0  0
  -26.1525  -32.0923   21.1617 C   0  0  1  0  0  0  0  0  0  0  0  0
  -28.6486  -12.0986   20.9636 C   0  0  1  0  0  0  0  0  0  0  0  0
  -28.5814  -24.3151   18.3008 C   0  0  0  0  0  0  0  0  0  0  0  0
  -18.8360  -32.0281   23.7046 C   0  0  0  0  0  0  0  0  0  0  0  0
  -25.1597  -31.9907   25.6744 C   0  0  0  0  0  0  0  0  0  0  0  0
  -22.7352  -31.7253   26.2396 C   0  0  0  0  0  0  0  0  0  0  0  0
  -23.5797  -33.9050   25.3689 C   0  0  0  0  0  0  0  0  0  0  0  0
  -20.0294  -31.1631   20.1970 C   0  0  0  0  0  0  0  0  0  0  0  0
  -30.0512  -20.8314   16.3194 C   0  0  0  0  0  0  0  0  0  0  0  0
  -25.7857  -25.1741   21.5178 C   0  0  0  0  0  0  0  0  0  1  0  0
  -26.3909  -23.7850   21.4572 C   0  0  0  0  0  0  0  0  0  0  0  0
  -23.3873  -31.9336   23.7978 C   0  0  1  0  0  0  0  0  0  0  0  0
  -19.8124  -32.0038   22.5390 C   0  0  2  0  0  0  0  0  0  0  0  0
  -23.7275  -32.3725   25.2501 C   0  0  0  0  0  0  0  0  0  0  0  0
  -26.6931  -10.6289   21.2791 N   0  0  0  0  0  0  0  0  0  0  0  0
  -27.6541  -11.3736   21.8518 N   0  0  0  0  0  0  0  0  0  0  0  0
  -25.0717  -31.5970   22.0164 N   0  0  0  0  0  0  0  0  0  0  0  0
  -29.1553  -14.1989   19.7542 N   0  0  0  0  0  0  0  0  0  0  0  0
  -29.4360  -16.2726   20.9128 N   0  0  0  0  0  0  0  0  0  0  0  0
  -28.5002  -12.0773   23.9493 N   0  0  0  0  0  0  0  0  0  0  0  0
  -24.9935   -9.4595   25.0655 N   0  0  0  0  0  0  0  0  0  0  0  0
  -28.3549  -32.9523   21.6793 N   0  0  0  0  0  0  0  0  0  0  0  0
  -22.0466  -32.3061   23.3596 N   0  0  0  0  0  0  0  0  0  0  0  0
  -19.1874  -31.2462   21.4181 N   0  3  0  0  0  0  0  0  0  0  0  0
  -26.6740  -10.7771   25.9014 O   0  0  0  0  0  0  0  0  0  0  0  0
  -27.5568  -31.0398   22.7413 O   0  0  0  0  0  0  0  0  0  0  0  0
  -24.4280  -33.7411   22.6681 O   0  0  0  0  0  0  0  0  0  0  0  0
  -21.3284  -30.1539   22.8806 O   0  0  0  0  0  0  0  0  0  0  0  0
  -31.2070  -15.2459   19.8526 O   0  0  0  0  0  0  0  0  0  0  0  0
  -21.6161   -6.7933   21.5272 O   0  0  0  0  0  0  0  0  0  0  0  0
  -29.5639  -22.0066   16.9640 O   0  0  0  0  0  0  0  0  0  0  0  0
  -25.7701  -25.7315   20.2091 O   0  0  0  0  0  0  0  0  0  1  0  0
  -27.7309  -23.8812   20.9788 O   0  0  0  0  0  0  0  0  0  0  0  0
  -21.2444   -2.2746   24.6653 F   0  0  0  0  0  0  0  0  0  0  0  0
  -21.5717   -4.2749   20.3877 F   0  0  0  0  0  0  0  0  0  0  0  0
  1  2  1  0  0  0  0
  1  5  2  0  0  0  0
  2  6  2  0  0  0  0
  3  8  2  0  0  0  0
  3 17  1  0  0  0  0
  4  9  1  0  0  0  0
  4 17  2  0  0  0  0
  5 19  1  0  0  0  0
  6 21  1  0  0  0  0
  7 10  2  0  0  0  0
  7 20  1  0  0  0  0
  8 25  1  0  0  0  0
  9 25  2  0  0  0  0
 10 26  1  0  0  0  0
 11 12  2  0  0  0  0
 11 27  1  0  0  0  0
 12 30  1  0  0  0  0
 13 22  1  0  0  0  0
 13 28  2  0  0  0  0
 14 22  2  0  0  0  0
 14 29  1  0  0  0  0
 15 23  1  0  0  0  0
 15 26  2  0  0  0  0
 16 30  2  0  0  0  0
 16 31  1  0  0  0  0
 17 32  1  0  0  0  0
 18 32  1  0  0  0  0
 18 33  2  0  0  0  0
 18 34  1  0  0  0  0
 19 21  2  0  0  0  0
 19 39  1  0  0  0  0
 20 23  2  0  0  0  0
 20 40  1  0  0  0  0
 21 53  1  0  0  0  0
 22 52  1  0  0  0  0
 23 41  1  0  0  0  0
 24 28  1  0  0  0  0
 24 29  2  0  0  0  0
 24 56  1  0  0  0  0
 25 83  1  0  0  0  0
 26 85  1  0  0  0  0
 27 31  2  0  0  0  0
 27 83  1  0  0  0  0
 28 84  1  0  0  0  0
 29 86  1  0  0  0  0
 30 87  1  0  0  0  0
 31 88  1  0  0  0  0
 32 68  2  0  0  0  0
 33 69  1  0  0  0  0
 33 73  1  0  0  0  0
 34 74  1  0  0  0  0
 34 78  2  0  0  0  0
 35 54  1  0  0  0  0
 35 75  1  0  0  0  0
 35 79  2  0  0  0  0
 36 65  1  0  0  0  0
 36 70  1  0  0  0  0
 36 80  2  0  0  0  0
 37 66  1  0  0  0  0
 37 76  1  0  0  0  0
 37 81  2  0  0  0  0
 38 71  1  0  0  0  0
 38 72  1  0  0  0  0
 38 82  2  0  0  0  0
 39 42  1  0  0  0  0
 40 54  1  0  0  0  0
 41 70  1  0  0  0  0
 42 44  1  0  0  0  0
 43 45  1  0  0  0  0
 43 48  1  0  0  0  0
 44 53  1  0  0  0  0
 45 55  1  0  0  0  0
 46 49  1  0  0  0  0
 46 52  1  0  0  0  0
 47 50  1  0  0  0  0
 47 52  1  0  0  0  0
 48 71  1  0  0  0  0
 49 72  1  0  0  0  0
 50 72  1  0  0  0  0
 51 55  1  0  0  0  0
 51 71  1  0  0  0  0
 53 75  1  0  0  0  0
 54 70  1  0  0  0  0
 55 69  1  0  0  0  0
 57 66  1  0  0  0  0
 58 67  1  0  0  0  0
 59 67  1  0  0  0  0
 60 67  1  0  0  0  0
 61 77  1  0  0  0  0
 62 84  1  0  0  0  0
 63 64  1  0  0  0  0
 63 85  1  0  0  0  0
 64 86  1  0  0  0  0
 65 67  1  0  0  0  0
 65 76  1  0  0  0  0
 66 77  1  0  0  0  0
 68 69  1  0  0  0  0
M  CHG  1  77   1
M  ISO  4  38 100  63 101  72 100  85 101
M  END
> <Batch ID>
0157

> <Smiles>
CNC(C)C(=O)NC(C(=O)N1Cc2cc([101O:1][101CH2:1]COc3cc(C4CC[100N:0]([100C:0](=O)N5CCCC(n6nc(-c7ccc(Oc8ccc(F)cc8F)cc7)c(C(N)=O)c6N)C5)CC4)cc(OC)c3C)ccc2CC1C(=O)NC1CCCc2ccccc21)C(C)(C)C

> <Shape>
0.277

> <Color>
0.087

> <Negative vol penalty>
0.000

$$$$

  -OEChem-04052321593D

 86 94  0     1  0  0  0  0  0999 V2000
  -21.6292  -22.9114   32.0620 C   0  0  0  0  0  0  0  0  0  0  0  0
  -22.4501  -22.0964   31.2892 C   0  0  0  0  0  0  0  0  0  0  0  0
  -23.2872   -9.7966   19.9087 C   0  0  0  0  0  0  0  0  0  0  0  0
  -23.7218   -9.9379   22.2811 C   0  0  0  0  0  0  0  0  0  0  0  0
  -20.3550  -22.4745   32.4220 C   0  0  0  0  0  0  0  0  0  0  0  0
  -21.9978  -20.8435   30.8768 C   0  0  0  0  0  0  0  0  0  0  0  0
  -23.0148  -19.9184   26.0029 C   0  0  0  0  0  0  0  0  0  0  0  0
  -22.5553   -8.6268   20.1124 C   0  0  0  0  0  0  0  0  0  0  0  0
  -22.9899   -8.7681   22.4849 C   0  0  0  0  0  0  0  0  0  0  0  0
  -24.3196  -19.5440   25.6847 C   0  0  0  0  0  0  0  0  0  0  0  0
  -19.7382   -7.8685   22.6802 C   0  0  0  0  0  0  0  0  0  0  0  0
  -18.8284   -7.8510   23.7373 C   0  0  0  0  0  0  0  0  0  0  0  0
  -23.6289  -17.2344   25.5962 C   0  0  0  0  0  0  0  0  0  0  0  0
  -29.8988  -16.4629   22.5869 C   0  0  0  0  0  0  0  0  0  0  0  0
  -20.0207   -6.0006   24.7329 C   0  0  0  0  0  0  0  0  0  0  0  0
  -23.8705  -10.4521   20.9930 C   0  0  0  0  0  0  0  0  0  0  0  0
  -24.1401  -12.9810   20.7939 C   0  0  0  0  0  0  0  0  0  0  0  0
  -19.8832  -21.2197   32.0057 C   0  0  0  0  0  0  0  0  0  0  0  0
  -22.0079  -18.9508   26.1311 C   0  0  0  0  0  0  0  0  0  0  0  0
  -20.7166  -20.3889   31.2327 C   0  0  0  0  0  0  0  0  0  0  0  0
  -22.3116  -17.5993   25.9136 C   0  0  0  0  0  0  0  0  0  0  0  0
  -31.1120  -15.9776   22.0988 C   0  0  0  0  0  0  0  0  0  0  0  0
  -31.8042  -15.4429   24.3509 C   0  0  0  0  0  0  0  0  0  0  0  0
  -32.0646  -15.4675   22.9808 C   0  0  0  0  0  0  0  0  0  0  0  0
  -30.5910  -15.9284   24.8390 C   0  0  0  0  0  0  0  0  0  0  0  0
  -22.4066   -8.1126   21.4005 C   0  0  0  0  0  0  0  0  0  0  0  0
  -24.6274  -18.2016   25.4841 C   0  0  0  0  0  0  0  0  0  0  0  0
  -20.7893   -6.9520   22.6494 C   0  0  0  0  0  0  0  0  0  0  0  0
  -29.6384  -16.4384   23.9570 C   0  0  0  0  0  0  0  0  0  0  0  0
  -18.9696   -6.9171   24.7636 C   0  0  0  0  0  0  0  0  0  0  0  0
  -20.9306   -6.0181   23.6758 C   0  0  0  0  0  0  0  0  0  0  0  0
  -24.6271  -11.6602   20.7832 C   0  0  0  0  0  0  0  0  0  0  0  0
  -25.2460  -13.7568   20.5459 C   0  0  0  0  0  0  0  0  0  0  0  0
  -22.8072  -13.4635   21.0089 C   0  0  0  0  0  0  0  0  0  0  0  0
  -20.1159  -17.9819   28.4944 C   0  0  0  0  0  0  0  0  0  0  0  0
  -18.7661  -16.1854   26.1549 C   0  0  0  0  0  0  0  0  0  0  0  0
  -19.0957  -14.6562   23.1218 C   0  0  0  0  0  0  0  0  0  0  0  0
  -30.9953  -12.8369   21.5231 C   0  0  0  0  0  0  0  0  0  0  0  0
  -18.5166  -20.7710   32.4593 C   0  0  0  0  0  0  0  0  0  0  0  0
  -20.5998  -19.3736   26.4486 C   0  0  0  0  0  0  0  0  0  0  0  0
  -21.2626  -16.5238   26.0194 C   0  0  0  0  0  0  0  0  0  0  0  0
  -17.9705  -19.5858   31.6672 C   0  0  0  0  0  0  0  0  0  0  0  0
  -29.4871  -13.6330   18.3311 C   0  0  0  0  0  0  0  0  0  0  0  0
  -19.0377  -18.5060   31.5184 C   0  0  0  0  0  0  0  0  0  0  0  0
  -28.0121  -13.3382   18.6097 C   0  0  0  0  0  0  0  0  0  0  0  0
  -30.3942  -12.6285   19.0355 C   0  0  0  0  0  0  0  0  0  0  0  0
  -28.7061  -12.2361   20.7877 C   0  0  0  0  0  0  0  0  0  0  0  0
  -20.2523  -19.0336   30.7452 C   0  0  1  0  0  0  0  0  0  0  0  0
  -19.7630  -18.2536   27.0593 C   0  0  1  0  0  0  0  0  0  0  0  0
  -27.7380  -13.2306   20.1215 C   0  0  2  0  0  0  0  0  0  0  0  0
  -31.3660  -16.0166   20.6273 C   0  0  0  0  0  0  0  0  0  0  0  0
  -32.8255  -14.8958   25.2975 C   0  0  0  0  0  0  0  0  0  0  0  0
  -30.3045  -15.9054   26.3069 C   0  0  0  0  0  0  0  0  0  0  0  0
  -17.8338  -13.2308   21.4869 C   0  0  0  0  0  0  0  0  0  0  0  0
  -34.6762  -12.9705   21.5708 C   0  0  0  0  0  0  0  0  0  0  0  0
  -19.1940  -13.7540   27.9480 C   0  0  0  0  0  0  0  0  0  0  0  0
  -18.8170  -12.2984   25.9462 C   0  0  0  0  0  0  0  0  0  0  0  0
  -16.9955  -13.7977   26.7568 C   0  0  0  0  0  0  0  0  0  0  0  0
  -19.2891  -16.7127   21.0023 C   0  0  0  0  0  0  0  0  0  0  0  0
  -33.3646  -14.9470   22.4541 C   0  0  0  0  0  0  0  0  0  0  0  0
  -26.0609  -16.6658   24.3696 C   0  0  0  0  0  0  0  0  0  1  0  0
  -27.3251  -16.8036   23.5434 C   0  0  0  0  0  0  0  0  0  0  0  0
  -19.0042  -14.8032   25.5966 C   0  0  1  0  0  0  0  0  0  0  0  0
  -18.2017  -14.6488   21.8950 C   0  0  2  0  0  0  0  0  0  0  0  0
  -33.3291  -13.4445   22.1072 C   0  0  1  0  0  0  0  0  0  0  0  0
  -18.5231  -13.6831   26.5617 C   0  0  0  0  0  0  0  0  0  0  0  0
  -25.9402  -11.5968   20.5469 N   0  0  0  0  0  0  0  0  0  0  0  0
  -26.2876  -12.8874   20.4068 N   0  0  0  0  0  0  0  0  0  0  0  0
  -19.9019  -16.9868   26.3382 N   0  0  0  0  0  0  0  0  0  0  0  0
  -30.0949  -12.5881   20.4739 N   0  0  0  0  0  0  0  0  0  0  0  0
  -25.4194  -15.0911   20.4354 N   0  0  0  0  0  0  0  0  0  0  0  0
  -21.7896  -12.5303   21.2501 N   0  0  0  0  0  0  0  0  0  0  0  0
  -19.9691  -19.0753   29.3266 N   0  0  0  0  0  0  0  0  0  0  0  0
  -18.3655  -14.7770   24.2852 N   0  0  0  0  0  0  0  0  0  0  0  0
  -32.2924  -13.1568   21.1411 N   0  0  0  0  0  0  0  0  0  0  0  0
  -18.8911  -15.3042   20.7478 N   0  3  0  0  0  0  0  0  0  0  0  0
  -22.5238  -14.6849   20.9714 O   0  0  0  0  0  0  0  0  0  0  0  0
  -20.4919  -16.8627   28.8226 O   0  0  0  0  0  0  0  0  0  0  0  0
  -17.6140  -16.5435   26.4121 O   0  0  0  0  0  0  0  0  0  0  0  0
  -20.3192  -14.5603   23.0551 O   0  0  0  0  0  0  0  0  0  0  0  0
  -30.6663  -12.7833   22.7130 O   0  0  0  0  0  0  0  0  0  0  0  0
  -21.6923   -6.9712   21.5997 O   0  0  0  0  0  0  0  0  0  0  0  0
  -25.9003  -17.8335   25.1740 O   0  0  0  0  0  0  0  0  0  1  0  0
  -28.4411  -16.9195   24.4177 O   0  0  0  0  0  0  0  0  0  0  0  0
  -18.0966   -6.9014   25.7795 F   0  0  0  0  0  0  0  0  0  0  0  0
  -21.9390   -5.1359   23.6523 F   0  0  0  0  0  0  0  0  0  0  0  0
  1  2  1  0  0  0  0
  1  5  2  0  0  0  0
  2  6  2  0  0  0  0
  3  8  2  0  0  0  0
  3 16  1  0  0  0  0
  4  9  1  0  0  0  0
  4 16  2  0  0  0  0
  5 18  1  0  0  0  0
  6 20  1  0  0  0  0
  7 10  2  0  0  0  0
  7 19  1  0  0  0  0
  8 26  1  0  0  0  0
  9 26  2  0  0  0  0
 10 27  1  0  0  0  0
 11 12  2  0  0  0  0
 11 28  1  0  0  0  0
 12 30  1  0  0  0  0
 13 21  1  0  0  0  0
 13 27  2  0  0  0  0
 14 22  2  0  0  0  0
 14 29  1  0  0  0  0
 15 30  2  0  0  0  0
 15 31  1  0  0  0  0
 16 32  1  0  0  0  0
 17 32  1  0  0  0  0
 17 33  2  0  0  0  0
 17 34  1  0  0  0  0
 18 20  2  0  0  0  0
 18 39  1  0  0  0  0
 19 21  2  0  0  0  0
 19 40  1  0  0  0  0
 20 48  1  0  0  0  0
 21 41  1  0  0  0  0
 22 24  1  0  0  0  0
 22 51  1  0  0  0  0
 23 24  2  0  0  0  0
 23 25  1  0  0  0  0
 23 52  1  0  0  0  0
 24 60  1  0  0  0  0
 25 29  2  0  0  0  0
 25 53  1  0  0  0  0
 26 82  1  0  0  0  0
 27 83  1  0  0  0  0
 28 31  2  0  0  0  0
 28 82  1  0  0  0  0
 29 84  1  0  0  0  0
 30 85  1  0  0  0  0
 31 86  1  0  0  0  0
 32 67  2  0  0  0  0
 33 68  1  0  0  0  0
 33 71  1  0  0  0  0
 34 72  1  0  0  0  0
 34 77  2  0  0  0  0
 35 49  1  0  0  0  0
 35 73  1  0  0  0  0
 35 78  2  0  0  0  0
 36 63  1  0  0  0  0
 36 69  1  0  0  0  0
 36 79  2  0  0  0  0
 37 64  1  0  0  0  0
 37 74  1  0  0  0  0
 37 80  2  0  0  0  0
 38 70  1  0  0  0  0
 38 75  1  0  0  0  0
 38 81  2  0  0  0  0
 39 42  1  0  0  0  0
 40 49  1  0  0  0  0
 41 69  1  0  0  0  0
 42 44  1  0  0  0  0
 43 45  1  0  0  0  0
 43 46  1  0  0  0  0
 44 48  1  0  0  0  0
 45 50  1  0  0  0  0
 46 70  1  0  0  0  0
 47 50  1  0  0  0  0
 47 70  1  0  0  0  0
 48 73  1  0  0  0  0
 49 69  1  0  0  0  0
 50 68  1  0  0  0  0
 54 64  1  0  0  0  0
 55 65  1  0  0  0  0
 56 66  1  0  0  0  0
 57 66  1  0  0  0  0
 58 66  1  0  0  0  0
 59 76  1  0  0  0  0
 60 65  1  0  0  0  0
 61 62  1  0  0  0  0
 61 83  1  0  0  0  0
 62 84  1  0  0  0  0
 63 66  1  0  0  0  0
 63 74  1  0  0  0  0
 64 76  1  0  0  0  0
 65 75  1  0  0  0  0
 67 68  1  0  0  0  0
M  CHG  1  76   1
M  ISO  4  38 100  61 101  75 100  83 101
M  END
> <Batch ID>
0157

> <Smiles>
CNC(C)C(=O)NC(C(=O)N1Cc2cc([101O:1][101CH2:1]COc3cc(C)c(CC(C)[100NH:0][100C:0](=O)N4CCCC(n5nc(-c6ccc(Oc7ccc(F)cc7F)cc6)c(C(N)=O)c5N)C4)c(C)c3C)ccc2CC1C(=O)NC1CCCc2ccccc21)C(C)(C)C

> <Shape>
0.153

> <Color>
0.177

> <Negative vol penalty>
0.000

$$$$

  -OEChem-04052321593D

 88 97  0     1  0  0  0  0  0999 V2000
  -29.4404  -36.3999   22.8259 C   0  0  0  0  0  0  0  0  0  0  0  0
  -29.6158  -35.0484   22.5461 C   0  0  0  0  0  0  0  0  0  0  0  0
  -27.4424   -7.3914   23.5944 C   0  0  0  0  0  0  0  0  0  0  0  0
  -26.4201   -6.7521   21.5008 C   0  0  0  0  0  0  0  0  0  0  0  0
  -28.2547  -36.8411   23.4117 C   0  0  0  0  0  0  0  0  0  0  0  0
  -28.6059  -34.1372   22.8531 C   0  0  0  0  0  0  0  0  0  0  0  0
  -27.1047  -29.1054   19.7015 C   0  0  0  0  0  0  0  0  0  0  0  0
  -26.5247   -6.5994   24.2844 C   0  0  0  0  0  0  0  0  0  0  0  0
  -25.5024   -5.9600   22.1908 C   0  0  0  0  0  0  0  0  0  0  0  0
  -27.4236  -27.7594   19.8759 C   0  0  0  0  0  0  0  0  0  0  0  0
  -22.6561   -6.4108   23.9590 C   0  0  0  0  0  0  0  0  0  0  0  0
  -21.3158   -6.4937   23.5816 C   0  0  0  0  0  0  0  0  0  0  0  0
  -25.3427  -27.4248   21.0493 C   0  0  0  0  0  0  0  0  0  0  0  0
  -29.3300  -23.2370   21.1874 C   0  0  0  0  0  0  0  0  0  0  0  0
  -27.4815  -21.4116   20.1708 C   0  0  0  0  0  0  0  0  0  0  0  0
  -21.3208   -4.1378   23.0462 C   0  0  0  0  0  0  0  0  0  0  0  0
  -27.3900   -7.4679   22.2026 C   0  0  0  0  0  0  0  0  0  0  0  0
  -29.5957   -7.8949   20.9941 C   0  0  0  0  0  0  0  0  0  0  0  0
  -27.2258  -35.9362   23.7171 C   0  0  0  0  0  0  0  0  0  0  0  0
  -25.9054  -29.6245   20.2100 C   0  0  0  0  0  0  0  0  0  0  0  0
  -27.4058  -34.5666   23.4448 C   0  0  0  0  0  0  0  0  0  0  0  0
  -25.0098  -28.7771   20.8778 C   0  0  0  0  0  0  0  0  0  0  0  0
  -28.2450  -23.6884   20.4361 C   0  0  0  0  0  0  0  0  0  0  0  0
  -29.4909  -21.8729   21.4304 C   0  0  0  0  0  0  0  0  0  0  0  0
  -27.3207  -22.7758   19.9278 C   0  0  0  0  0  0  0  0  0  0  0  0
  -25.5547   -5.8837   23.5826 C   0  0  0  0  0  0  0  0  0  0  0  0
  -26.5438  -26.9195   20.5524 C   0  0  0  0  0  0  0  0  0  0  0  0
  -23.3288   -5.1913   23.8798 C   0  0  0  0  0  0  0  0  0  0  0  0
  -28.5666  -20.9602   20.9221 C   0  0  0  0  0  0  0  0  0  0  0  0
  -20.6482   -5.3572   23.1253 C   0  0  0  0  0  0  0  0  0  0  0  0
  -22.6611   -4.0549   23.4235 C   0  0  0  0  0  0  0  0  0  0  0  0
  -28.3374   -8.2863   21.4893 C   0  0  0  0  0  0  0  0  0  0  0  0
  -30.0990   -9.0272   20.4017 C   0  0  0  0  0  0  0  0  0  0  0  0
  -30.2511   -6.6215   21.0635 C   0  0  0  0  0  0  0  0  0  0  0  0
  -25.1540  -31.8477   22.3540 C   0  0  0  0  0  0  0  0  0  0  0  0
  -22.1324  -31.2553   21.3336 C   0  0  0  0  0  0  0  0  0  0  0  0
  -19.9409  -29.0849   19.8730 C   0  0  0  0  0  0  0  0  0  0  0  0
  -29.3292  -14.6886   21.2643 C   0  0  0  0  0  0  0  0  0  0  0  0
  -25.9809  -36.4537   24.3932 C   0  0  0  0  0  0  0  0  0  0  0  0
  -25.5639  -31.0727   19.9902 C   0  0  0  0  0  0  0  0  0  0  0  0
  -23.7001  -29.2806   21.4252 C   0  0  0  0  0  0  0  0  0  0  0  0
  -24.8097  -35.4760   24.3437 C   0  0  0  0  0  0  0  0  0  0  0  0
  -28.7216  -13.0498   18.2201 C   0  0  0  0  0  0  0  0  0  0  0  0
  -25.2696  -34.0723   24.7246 C   0  0  0  0  0  0  0  0  0  0  0  0
  -28.6759  -11.5885   18.6660 C   0  0  0  0  0  0  0  0  0  0  0  0
  -30.2017  -18.0733   20.0272 C   0  0  0  0  0  0  0  0  0  0  0  0
  -27.6880  -17.7853   19.9374 C   0  0  0  0  0  0  0  0  0  0  0  0
  -28.0199  -13.9749   19.2159 C   0  0  0  0  0  0  0  0  0  0  0  0
  -30.2668  -16.9622   21.0739 C   0  0  0  0  0  0  0  0  0  0  0  0
  -27.8103  -16.6842   20.9882 C   0  0  0  0  0  0  0  0  0  0  0  0
  -28.4601  -12.3786   21.0529 C   0  0  0  0  0  0  0  0  0  0  0  0
  -26.3235  -33.5510   23.7403 C   0  0  1  0  0  0  0  0  0  0  0  0
  -24.5517  -31.6077   20.9985 C   0  0  1  0  0  0  0  0  0  0  0  0
  -29.2084  -11.4319   20.1016 C   0  0  1  0  0  0  0  0  0  0  0  0
  -28.8468  -18.7817   20.0025 C   0  0  0  0  0  0  0  0  0  0  0  0
  -26.1511  -23.2350   19.1207 C   0  0  0  0  0  0  0  0  0  0  0  0
  -30.6335  -21.9570   23.6756 C   0  0  0  0  0  0  0  0  0  0  0  0
  -32.0043  -21.7434   21.5708 C   0  0  0  0  0  0  0  0  0  0  0  0
  -17.5307  -28.8682   19.2087 C   0  0  0  0  0  0  0  0  0  0  0  0
  -21.3729  -30.7865   24.2514 C   0  0  0  0  0  0  0  0  0  0  0  0
  -19.2765  -29.6739   23.4543 C   0  0  0  0  0  0  0  0  0  0  0  0
  -19.6878  -32.0776   22.9293 C   0  0  0  0  0  0  0  0  0  0  0  0
  -20.6373  -28.7628   17.0147 C   0  0  0  0  0  0  0  0  0  0  0  0
  -28.0940  -25.1533   20.1872 C   0  0  0  0  0  0  0  0  0  1  0  0
  -30.6576  -21.4073   22.2375 C   0  0  0  0  0  0  0  0  0  0  0  0
  -21.0353  -30.3006   21.7382 C   0  0  1  0  0  0  0  0  0  0  0  0
  -18.9258  -29.2748   18.7604 C   0  0  2  0  0  0  0  0  0  0  0  0
  -20.3686  -30.7003   23.0848 C   0  0  0  0  0  0  0  0  0  0  0  0
  -28.0585   -9.5673   21.2338 N   0  0  0  0  0  0  0  0  0  0  0  0
  -29.1486   -9.9906   20.5717 N   0  0  0  0  0  0  0  0  0  0  0  0
  -23.4143  -30.7057   21.1904 N   0  0  0  0  0  0  0  0  0  0  0  0
  -28.5331  -13.7611   20.5756 N   0  0  0  0  0  0  0  0  0  0  0  0
  -29.1330  -16.0457   20.9571 N   0  0  0  0  0  0  0  0  0  0  0  0
  -31.2573   -9.2829   19.7572 N   0  0  0  0  0  0  0  0  0  0  0  0
  -29.5927   -5.5655   21.7082 N   0  0  0  0  0  0  0  0  0  0  0  0
  -25.6950  -33.1092   22.5139 N   0  0  0  0  0  0  0  0  0  0  0  0
  -20.1124  -30.2376   20.6101 N   0  0  0  0  0  0  0  0  0  0  0  0
  -19.2969  -28.4518   17.5747 N   0  3  0  0  0  0  0  0  0  0  0  0
  -31.3938   -6.4304   20.5827 O   0  0  0  0  0  0  0  0  0  0  0  0
  -25.1285  -30.9551   23.1931 O   0  0  0  0  0  0  0  0  0  0  0  0
  -21.8607  -32.4436   21.1445 O   0  0  0  0  0  0  0  0  0  0  0  0
  -20.5207  -28.0195   20.0711 O   0  0  0  0  0  0  0  0  0  0  0  0
  -30.1674  -14.3289   22.1004 O   0  0  0  0  0  0  0  0  0  0  0  0
  -24.6592   -5.1105   24.2555 O   0  0  0  0  0  0  0  0  0  0  0  0
  -28.7103  -19.6169   21.1502 O   0  0  0  0  0  0  0  0  0  0  0  0
  -26.8551  -25.5961   20.7259 O   0  0  0  0  0  0  0  0  0  1  0  0
  -19.3607   -5.4366   22.7645 F   0  0  0  0  0  0  0  0  0  0  0  0
  -23.3018   -2.8804   23.3464 F   0  0  0  0  0  0  0  0  0  0  0  0
  1  2  1  0  0  0  0
  1  5  2  0  0  0  0
  2  6  2  0  0  0  0
  3  8  2  0  0  0  0
  3 17  1  0  0  0  0
  4  9  1  0  0  0  0
  4 17  2  0  0  0  0
  5 19  1  0  0  0  0
  6 21  1  0  0  0  0
  7 10  2  0  0  0  0
  7 20  1  0  0  0  0
  8 26  1  0  0  0  0
  9 26  2  0  0  0  0
 10 27  1  0  0  0  0
 11 12  2  0  0  0  0
 11 28  1  0  0  0  0
 12 30  1  0  0  0  0
 13 22  1  0  0  0  0
 13 27  2  0  0  0  0
 14 23  1  0  0  0  0
 14 24  2  0  0  0  0
 15 25  1  0  0  0  0
 15 29  2  0  0  0  0
 16 30  2  0  0  0  0
 16 31  1  0  0  0  0
 17 32  1  0  0  0  0
 18 32  1  0  0  0  0
 18 33  2  0  0  0  0
 18 34  1  0  0  0  0
 19 21  2  0  0  0  0
 19 39  1  0  0  0  0
 20 22  2  0  0  0  0
 20 40  1  0  0  0  0
 21 52  1  0  0  0  0
 22 41  1  0  0  0  0
 23 25  2  0  0  0  0
 23 64  1  0  0  0  0
 24 29  1  0  0  0  0
 24 65  1  0  0  0  0
 25 56  1  0  0  0  0
 26 84  1  0  0  0  0
 27 86  1  0  0  0  0
 28 31  2  0  0  0  0
 28 84  1  0  0  0  0
 29 85  1  0  0  0  0
 30 87  1  0  0  0  0
 31 88  1  0  0  0  0
 32 69  2  0  0  0  0
 33 70  1  0  0  0  0
 33 74  1  0  0  0  0
 34 75  1  0  0  0  0
 34 79  2  0  0  0  0
 35 53  1  0  0  0  0
 35 76  1  0  0  0  0
 35 80  2  0  0  0  0
 36 66  1  0  0  0  0
 36 71  1  0  0  0  0
 36 81  2  0  0  0  0
 37 67  1  0  0  0  0
 37 77  1  0  0  0  0
 37 82  2  0  0  0  0
 38 72  1  0  0  0  0
 38 73  1  0  0  0  0
 38 83  2  0  0  0  0
 39 42  1  0  0  0  0
 40 53  1  0  0  0  0
 41 71  1  0  0  0  0
 42 44  1  0  0  0  0
 43 45  1  0  0  0  0
 43 48  1  0  0  0  0
 44 52  1  0  0  0  0
 45 54  1  0  0  0  0
 46 49  1  0  0  0  0
 46 55  1  0  0  0  0
 47 50  1  0  0  0  0
 47 55  1  0  0  0  0
 48 72  1  0  0  0  0
 49 73  1  0  0  0  0
 50 73  1  0  0  0  0
 51 54  1  0  0  0  0
 51 72  1  0  0  0  0
 52 76  1  0  0  0  0
 53 71  1  0  0  0  0
 54 70  1  0  0  0  0
 55 85  1  0  0  0  0
 57 65  1  0  0  0  0
 58 65  1  0  0  0  0
 59 67  1  0  0  0  0
 60 68  1  0  0  0  0
 61 68  1  0  0  0  0
 62 68  1  0  0  0  0
 63 78  1  0  0  0  0
 64 86  1  0  0  0  0
 66 68  1  0  0  0  0
 66 77  1  0  0  0  0
 67 78  1  0  0  0  0
 69 70  1  0  0  0  0
M  CHG  1  78   1
M  ISO  4  38 100  64 101  73 100  86 101
M  END
> <Batch ID>
0157

> <Smiles>
CNC(C)C(=O)NC(C(=O)N1Cc2cc([101O:1][101CH2:1]c3cc(C(C)C)c(OC4CC[100N:0]([100C:0](=O)N5CCCC(n6nc(-c7ccc(Oc8ccc(F)cc8F)cc7)c(C(N)=O)c6N)C5)CC4)cc3C)ccc2CC1C(=O)NC1CCCc2ccccc21)C(C)(C)C

> <Shape>
0.268

> <Color>
0.070

> <Negative vol penalty>
0.000

$$$$

  -OEChem-04052321593D

 91100  0     1  0  0  0  0  0999 V2000
  -28.4959  -33.0374   25.4331 C   0  0  0  0  0  0  0  0  0  0  0  0
  -28.2288  -31.7011   25.7130 C   0  0  0  0  0  0  0  0  0  0  0  0
  -24.2501   -8.5666   21.1145 C   0  0  0  0  0  0  0  0  0  0  0  0
  -24.8710   -9.9411   23.0019 C   0  0  0  0  0  0  0  0  0  0  0  0
  -27.5796  -33.7920   24.7017 C   0  0  0  0  0  0  0  0  0  0  0  0
  -27.0445  -31.1189   25.2625 C   0  0  0  0  0  0  0  0  0  0  0  0
  -27.7813  -26.5385   23.2321 C   0  0  0  0  0  0  0  0  0  0  0  0
  -23.9123   -7.5279   21.9820 C   0  0  0  0  0  0  0  0  0  0  0  0
  -24.5331   -8.9024   23.8695 C   0  0  0  0  0  0  0  0  0  0  0  0
  -27.9616  -25.4731   24.1130 C   0  0  0  0  0  0  0  0  0  0  0  0
  -22.5455   -4.6418   23.7190 C   0  0  0  0  0  0  0  0  0  0  0  0
  -21.3479   -3.9659   23.4860 C   0  0  0  0  0  0  0  0  0  0  0  0
  -29.4364  -21.6275   21.2752 C   0  0  0  0  0  0  0  0  0  0  0  0
  -27.2163  -20.7392   21.6203 C   0  0  0  0  0  0  0  0  0  0  0  0
  -25.6567  -24.8331   23.8013 C   0  0  0  0  0  0  0  0  0  0  0  0
  -27.5193  -22.7775   20.3592 C   0  0  0  0  0  0  0  0  0  0  0  0
  -20.1272   -6.0319   23.7668 C   0  0  0  0  0  0  0  0  0  0  0  0
  -24.7295   -9.7732   21.6245 C   0  0  0  0  0  0  0  0  0  0  0  0
  -24.2323  -11.4999   19.8136 C   0  0  0  0  0  0  0  0  0  0  0  0
  -26.3879  -33.2160   24.2338 C   0  0  0  0  0  0  0  0  0  0  0  0
  -26.5323  -26.7661   22.6366 C   0  0  0  0  0  0  0  0  0  0  0  0
  -26.1107  -31.8668   24.5254 C   0  0  0  0  0  0  0  0  0  0  0  0
  -28.5954  -20.6520   21.8106 C   0  0  0  0  0  0  0  0  0  0  0  0
  -25.4638  -25.9006   22.9112 C   0  0  0  0  0  0  0  0  0  0  0  0
  -28.8983  -22.6903   20.5495 C   0  0  0  0  0  0  0  0  0  0  0  0
  -24.0538   -7.6958   23.3595 C   0  0  0  0  0  0  0  0  0  0  0  0
  -26.8985  -24.6219   24.4000 C   0  0  0  0  0  0  0  0  0  0  0  0
  -22.5341   -6.0128   23.9760 C   0  0  0  0  0  0  0  0  0  0  0  0
  -26.6782  -21.8020   20.8946 C   0  0  0  0  0  0  0  0  0  0  0  0
  -20.1387   -4.6609   23.5099 C   0  0  0  0  0  0  0  0  0  0  0  0
  -21.3249   -6.7078   23.9999 C   0  0  0  0  0  0  0  0  0  0  0  0
  -25.0792  -10.8464   20.7288 C   0  0  0  0  0  0  0  0  0  0  0  0
  -25.0367  -12.4343   19.2084 C   0  0  0  0  0  0  0  0  0  0  0  0
  -22.8428  -11.2818   19.5355 C   0  0  0  0  0  0  0  0  0  0  0  0
  -24.4184  -29.1393   22.6952 C   0  0  0  0  0  0  0  0  0  0  0  0
  -22.9265  -27.3460   20.4411 C   0  0  0  0  0  0  0  0  0  0  0  0
  -22.4181  -24.2684   19.0567 C   0  0  0  0  0  0  0  0  0  0  0  0
  -30.0427  -15.2327   20.9289 C   0  0  0  0  0  0  0  0  0  0  0  0
  -25.4061  -34.0844   23.4878 C   0  0  0  0  0  0  0  0  0  0  0  0
  -26.3612  -27.9040   21.6679 C   0  0  0  0  0  0  0  0  0  0  0  0
  -24.1083  -26.0897   22.2824 C   0  0  0  0  0  0  0  0  0  0  0  0
  -24.3477  -33.2909   22.7258 C   0  0  0  0  0  0  0  0  0  0  0  0
  -29.5997  -13.2367   18.0140 C   0  0  0  0  0  0  0  0  0  0  0  0
  -23.7654  -32.1922   23.6093 C   0  0  0  0  0  0  0  0  0  0  0  0
  -29.2815  -18.2138   24.7976 C   0  0  0  0  0  0  0  0  0  0  0  0
  -28.3145  -12.4567   18.2967 C   0  0  0  0  0  0  0  0  0  0  0  0
  -28.9967  -16.9109   24.0558 C   0  0  0  0  0  0  0  0  0  0  0  0
  -28.9086  -18.1633   21.8696 C   0  0  0  0  0  0  0  0  0  0  0  0
  -30.4340  -13.4270   19.2788 C   0  0  0  0  0  0  0  0  0  0  0  0
  -28.4252  -13.2513   20.6956 C   0  0  0  0  0  0  0  0  0  0  0  0
  -29.1830  -19.4934   22.6025 C   0  0  2  0  0  0  0  0  0  0  0  0
  -24.8485  -31.1927   24.0328 C   0  0  1  0  0  0  0  0  0  0  0  0
  -24.9092  -28.3469   21.5167 C   0  0  1  0  0  0  0  0  0  0  0  0
  -28.6903  -19.4364   24.0737 C   0  0  2  0  0  0  0  0  0  0  0  0
  -27.5233  -13.0826   19.4610 C   0  0  2  0  0  0  0  0  0  0  0  0
  -29.5079  -16.9707   22.6178 C   0  0  2  0  0  0  0  0  0  0  0  0
  -29.7970  -23.7338   19.9774 C   0  0  0  0  0  0  0  0  0  0  0  0
  -21.1142  -23.1114   17.2515 C   0  0  0  0  0  0  0  0  0  0  0  0
  -27.3577  -22.4588   27.9316 C   0  0  0  0  0  0  0  0  0  0  0  0
  -20.4117  -27.5005   22.1620 C   0  0  0  0  0  0  0  0  0  0  0  0
  -19.4711  -25.5969   20.8354 C   0  0  0  0  0  0  0  0  0  0  0  0
  -20.0125  -27.7543   19.7063 C   0  0  0  0  0  0  0  0  0  0  0  0
  -24.8848  -23.3952   17.6739 C   0  0  0  0  0  0  0  0  0  0  0  0
  -24.5312  -20.8565   21.2843 C   0  0  0  0  0  0  0  0  0  0  0  0
  -29.0528  -20.7066   24.8526 C   0  0  0  0  0  0  0  0  0  0  0  0
  -28.0999  -20.9299   26.0294 C   0  0  0  0  0  0  0  0  0  0  0  0
  -28.3690  -23.4209   25.8322 C   0  0  0  0  0  0  0  0  0  1  0  0
  -21.8944  -26.2446   20.4620 C   0  0  1  0  0  0  0  0  0  0  0  0
  -22.4209  -23.8006   17.6125 C   0  0  2  0  0  0  0  0  0  0  0  0
  -28.3718  -22.2329   26.8047 C   0  0  1  0  0  0  0  0  0  0  0  0
  -20.4723  -26.7714   20.8049 C   0  0  0  0  0  0  0  0  0  0  0  0
  -26.3260  -11.3250   20.7100 N   0  0  0  0  0  0  0  0  0  0  0  0
  -26.2686  -12.2891   19.7755 N   0  0  0  0  0  0  0  0  0  0  0  0
  -23.9894  -27.2202   21.3468 N   0  0  0  0  0  0  0  0  0  0  0  0
  -29.6256  -14.0258   20.3436 N   0  0  0  0  0  0  0  0  0  0  0  0
  -24.8034  -13.3577   18.2516 N   0  0  0  0  0  0  0  0  0  0  0  0
  -22.1677  -10.2816   20.2483 N   0  0  0  0  0  0  0  0  0  0  0  0
  -25.1500  -30.2841   22.9475 N   0  0  0  0  0  0  0  0  0  0  0  0
  -21.9875  -25.5734   19.1700 N   0  0  0  0  0  0  0  0  0  0  0  0
  -29.2157  -15.7350   21.9261 N   0  0  0  0  0  0  0  0  0  0  0  0
  -23.5378  -22.8415   17.3808 N   0  3  0  0  0  0  0  0  0  0  0  0
  -22.2225  -11.9429   18.6685 O   0  0  0  0  0  0  0  0  0  0  0  0
  -23.4469  -28.7423   23.3279 O   0  0  0  0  0  0  0  0  0  0  0  0
  -22.7983  -28.2799   19.6454 O   0  0  0  0  0  0  0  0  0  0  0  0
  -22.7600  -23.5471   19.9912 O   0  0  0  0  0  0  0  0  0  0  0  0
  -31.0728  -15.8219   20.5843 O   0  0  0  0  0  0  0  0  0  0  0  0
  -23.7240   -6.6826   24.2063 O   0  0  0  0  0  0  0  0  0  0  0  0
  -25.3324  -21.8875   20.7093 O   0  0  0  0  0  0  0  0  0  0  0  0
  -27.0716  -23.5815   25.2600 O   0  0  0  0  0  0  0  0  0  1  0  0
  -18.9888   -4.0119   23.2846 F   0  0  0  0  0  0  0  0  0  0  0  0
  -21.3077   -8.0251   24.2450 F   0  0  0  0  0  0  0  0  0  0  0  0
  1  2  1  0  0  0  0
  1  5  2  0  0  0  0
  2  6  2  0  0  0  0
  3  8  2  0  0  0  0
  3 18  1  0  0  0  0
  4  9  1  0  0  0  0
  4 18  2  0  0  0  0
  5 20  1  0  0  0  0
  6 22  1  0  0  0  0
  7 10  2  0  0  0  0
  7 21  1  0  0  0  0
  8 26  1  0  0  0  0
  9 26  2  0  0  0  0
 10 27  1  0  0  0  0
 11 12  2  0  0  0  0
 11 28  1  0  0  0  0
 12 30  1  0  0  0  0
 13 23  1  0  0  0  0
 13 25  2  0  0  0  0
 14 23  2  0  0  0  0
 14 29  1  0  0  0  0
 15 24  1  0  0  0  0
 15 27  2  0  0  0  0
 16 25  1  0  0  0  0
 16 29  2  0  0  0  0
 17 30  2  0  0  0  0
 17 31  1  0  0  0  0
 18 32  1  0  0  0  0
 19 32  1  0  0  0  0
 19 33  2  0  0  0  0
 19 34  1  0  0  0  0
 20 22  2  0  0  0  0
 20 39  1  0  0  0  0
 21 24  2  0  0  0  0
 21 40  1  0  0  0  0
 22 52  1  0  0  0  0
 23 51  1  0  0  0  0
 24 41  1  0  0  0  0
 25 57  1  0  0  0  0
 26 87  1  0  0  0  0
 27 89  1  0  0  0  0
 28 31  2  0  0  0  0
 28 87  1  0  0  0  0
 29 88  1  0  0  0  0
 30 90  1  0  0  0  0
 31 91  1  0  0  0  0
 32 72  2  0  0  0  0
 33 73  1  0  0  0  0
 33 76  1  0  0  0  0
 34 77  1  0  0  0  0
 34 82  2  0  0  0  0
 35 53  1  0  0  0  0
 35 78  1  0  0  0  0
 35 83  2  0  0  0  0
 36 68  1  0  0  0  0
 36 74  1  0  0  0  0
 36 84  2  0  0  0  0
 37 69  1  0  0  0  0
 37 79  1  0  0  0  0
 37 85  2  0  0  0  0
 38 75  1  0  0  0  0
 38 80  1  0  0  0  0
 38 86  2  0  0  0  0
 39 42  1  0  0  0  0
 40 53  1  0  0  0  0
 41 74  1  0  0  0  0
 42 44  1  0  0  0  0
 43 46  1  0  0  0  0
 43 49  1  0  0  0  0
 44 52  1  0  0  0  0
 45 47  1  0  0  0  0
 45 54  1  0  0  0  0
 46 55  1  0  0  0  0
 47 56  1  0  0  0  0
 48 51  1  0  0  0  0
 48 56  1  0  0  0  0
 49 75  1  0  0  0  0
 50 55  1  0  0  0  0
 50 75  1  0  0  0  0
 51 54  1  0  0  0  0
 52 78  1  0  0  0  0
 53 74  1  0  0  0  0
 54 65  1  0  0  0  0
 55 73  1  0  0  0  0
 56 80  1  0  0  0  0
 58 69  1  0  0  0  0
 59 70  1  0  0  0  0
 60 71  1  0  0  0  0
 61 71  1  0  0  0  0
 62 71  1  0  0  0  0
 63 81  1  0  0  0  0
 64 88  1  0  0  0  0
 65 66  1  0  0  0  0
 66 70  1  0  0  0  0
 67 70  1  0  0  0  0
 67 89  1  0  0  0  0
 68 71  1  0  0  0  0
 68 79  1  0  0  0  0
 69 81  1  0  0  0  0
 72 73  1  0  0  0  0
M  CHG  1  81   1
M  ISO  4  38 100  67 101  80 100  89 101
M  END
> <Batch ID>
0157

> <Smiles>
CNC(C)C(=O)NC(C(=O)N1Cc2cc([101O:1][101CH2:1]C(C)CCC3CCC([100NH:0][100C:0](=O)N4CCCC(n5nc(-c6ccc(Oc7ccc(F)cc7F)cc6)c(C(N)=O)c5N)C4)CC3c3cc(C)cc(OC)c3)ccc2CC1C(=O)NC1CCCc2ccccc21)C(C)(C)C

> <Shape>
0.271

> <Color>
0.071

> <Negative vol penalty>
0.000

$$$$

  -OEChem-04052321593D

 84 93  0     1  0  0  0  0  0999 V2000
  -28.5128  -37.7178   20.5210 C   0  0  0  0  0  0  0  0  0  0  0  0
  -28.8908  -36.4158   20.2089 C   0  0  0  0  0  0  0  0  0  0  0  0
  -22.6685  -10.0333   22.1810 C   0  0  0  0  0  0  0  0  0  0  0  0
  -24.0850   -9.4445   20.3145 C   0  0  0  0  0  0  0  0  0  0  0  0
  -27.6026  -37.9502   21.5513 C   0  0  0  0  0  0  0  0  0  0  0  0
  -28.3596  -35.3455   20.9278 C   0  0  0  0  0  0  0  0  0  0  0  0
  -27.0125  -29.7723   18.7758 C   0  0  0  0  0  0  0  0  0  0  0  0
  -22.1387   -8.7430   22.1861 C   0  0  0  0  0  0  0  0  0  0  0  0
  -23.5553   -8.1541   20.3196 C   0  0  0  0  0  0  0  0  0  0  0  0
  -27.7011  -28.5607   18.8133 C   0  0  0  0  0  0  0  0  0  0  0  0
  -20.6742   -5.4982   22.9218 C   0  0  0  0  0  0  0  0  0  0  0  0
  -20.5393   -4.8573   24.1533 C   0  0  0  0  0  0  0  0  0  0  0  0
  -27.3488  -20.5867   18.7472 C   0  0  0  0  0  0  0  0  0  0  0  0
  -26.4416  -27.9121   20.7658 C   0  0  0  0  0  0  0  0  0  0  0  0
  -28.6742  -19.8741   21.0963 C   0  0  0  0  0  0  0  0  0  0  0  0
  -22.9227   -5.0349   24.5068 C   0  0  0  0  0  0  0  0  0  0  0  0
  -23.6416  -10.3841   21.2452 C   0  0  0  0  0  0  0  0  0  0  0  0
  -25.3147  -12.1770   21.9482 C   0  0  0  0  0  0  0  0  0  0  0  0
  -27.0527  -36.8816   22.2768 C   0  0  0  0  0  0  0  0  0  0  0  0
  -26.0392  -30.0680   19.7411 C   0  0  0  0  0  0  0  0  0  0  0  0
  -27.4422  -35.5640   21.9696 C   0  0  0  0  0  0  0  0  0  0  0  0
  -27.5019  -21.5202   19.7722 C   0  0  0  0  0  0  0  0  0  0  0  0
  -25.7402  -29.1272   20.7369 C   0  0  0  0  0  0  0  0  0  0  0  0
  -27.8583  -19.2968   18.8967 C   0  0  0  0  0  0  0  0  0  0  0  0
  -28.1646  -21.1640   20.9467 C   0  0  0  0  0  0  0  0  0  0  0  0
  -28.5210  -18.9406   20.0712 C   0  0  0  0  0  0  0  0  0  0  0  0
  -22.5821   -7.8034   21.2554 C   0  0  0  0  0  0  0  0  0  0  0  0
  -27.4178  -27.6316   19.8101 C   0  0  0  0  0  0  0  0  0  0  0  0
  -21.9334   -5.9074   22.4827 C   0  0  0  0  0  0  0  0  0  0  0  0
  -21.6635   -4.6257   24.9458 C   0  0  0  0  0  0  0  0  0  0  0  0
  -23.0576   -5.6757   23.2752 C   0  0  0  0  0  0  0  0  0  0  0  0
  -24.1888  -11.7170   21.2391 C   0  0  0  0  0  0  0  0  0  0  0  0
  -25.4173  -13.5033   21.6065 C   0  0  0  0  0  0  0  0  0  0  0  0
  -26.1895  -11.4686   22.8362 C   0  0  0  0  0  0  0  0  0  0  0  0
  -25.7022  -32.3043   21.9747 C   0  0  0  0  0  0  0  0  0  0  0  0
  -22.7826  -30.9405   22.3471 C   0  0  0  0  0  0  0  0  0  0  0  0
  -20.8062  -28.1819   21.9857 C   0  0  0  0  0  0  0  0  0  0  0  0
  -25.3167  -17.5654   17.7810 C   0  0  0  0  0  0  0  0  0  0  0  0
  -26.1085  -37.1853   23.4130 C   0  0  0  0  0  0  0  0  0  0  0  0
  -25.2864  -31.3683   19.6710 C   0  0  0  0  0  0  0  0  0  0  0  0
  -24.6900  -29.3879   21.7845 C   0  0  0  0  0  0  0  0  0  0  0  0
  -25.3063  -35.9730   23.8790 C   0  0  0  0  0  0  0  0  0  0  0  0
  -22.1957  -16.5276   19.1445 C   0  0  0  0  0  0  0  0  0  0  0  0
  -26.2178  -34.7610   24.0438 C   0  0  0  0  0  0  0  0  0  0  0  0
  -22.5278  -15.2190   19.8637 C   0  0  0  0  0  0  0  0  0  0  0  0
  -27.3540  -23.6921   18.3772 C   0  0  0  0  0  0  0  0  0  0  0  0
  -23.0026  -16.6847   17.8575 C   0  0  0  0  0  0  0  0  0  0  0  0
  -24.7941  -15.2410   18.7404 C   0  0  0  0  0  0  0  0  0  0  0  0
  -26.9515  -22.8853   19.5927 C   0  0  2  0  0  0  0  0  0  0  0  0
  -26.8691  -34.3751   22.7102 C   0  0  1  0  0  0  0  0  0  0  0  0
  -24.6783  -31.7795   21.0084 C   0  0  1  0  0  0  0  0  0  0  0  0
  -27.8747  -24.0781   19.7296 C   0  0  2  0  0  0  0  0  0  0  0  0
  -24.0461  -15.0638   20.0729 C   0  0  2  0  0  0  0  0  0  0  0  0
  -28.3425  -22.1457   22.0585 C   0  0  0  0  0  0  0  0  0  0  0  0
  -29.0758  -17.5660   20.2540 C   0  0  0  0  0  0  0  0  0  0  0  0
  -18.4746  -27.3591   22.4150 C   0  0  0  0  0  0  0  0  0  0  0  0
  -23.4308  -30.6598   25.3154 C   0  0  0  0  0  0  0  0  0  0  0  0
  -21.5446  -29.0239   25.5013 C   0  0  0  0  0  0  0  0  0  0  0  0
  -21.0872  -31.3805   24.8230 C   0  0  0  0  0  0  0  0  0  0  0  0
  -20.3254  -27.6900   19.1072 C   0  0  0  0  0  0  0  0  0  0  0  0
  -27.6828  -18.3142   17.7858 C   0  0  0  0  0  0  0  0  0  0  0  0
  -27.3937  -25.3249   20.3887 C   0  0  0  0  0  0  0  0  0  1  0  0
  -22.2259  -29.8201   23.1919 C   0  0  1  0  0  0  0  0  0  0  0  0
  -19.4122  -28.0100   21.4099 C   0  0  2  0  0  0  0  0  0  0  0  0
  -22.0934  -30.2167   24.6895 C   0  0  0  0  0  0  0  0  0  0  0  0
  -23.6170  -12.6735   20.5028 N   0  0  0  0  0  0  0  0  0  0  0  0
  -24.3866  -13.7477   20.7474 N   0  0  0  0  0  0  0  0  0  0  0  0
  -23.9858  -30.6763   21.6774 N   0  0  0  0  0  0  0  0  0  0  0  0
  -24.4343  -16.5281   18.1252 N   0  0  0  0  0  0  0  0  0  0  0  0
  -26.2876  -14.4727   21.9603 N   0  0  0  0  0  0  0  0  0  0  0  0
  -25.9407  -10.1105   23.0767 N   0  0  0  0  0  0  0  0  0  0  0  0
  -25.9257  -33.6642   21.8740 N   0  0  0  0  0  0  0  0  0  0  0  0
  -20.9698  -29.4221   22.5658 N   0  0  0  0  0  0  0  0  0  0  0  0
  -26.6557  -17.3383   18.0746 N   0  0  0  0  0  0  0  0  0  0  0  0
  -19.4577  -27.1568   20.1888 N   0  3  0  0  0  0  0  0  0  0  0  0
  -27.1534  -12.0276   23.4124 O   0  0  0  0  0  0  0  0  0  0  0  0
  -26.2478  -31.5329   22.7550 O   0  0  0  0  0  0  0  0  0  0  0  0
  -22.1688  -32.0082   22.2780 O   0  0  0  0  0  0  0  0  0  0  0  0
  -21.6630  -27.3025   21.9300 O   0  0  0  0  0  0  0  0  0  0  0  0
  -24.9385  -18.6182   17.2561 O   0  0  0  0  0  0  0  0  0  0  0  0
  -22.0655   -6.5442   21.2601 O   0  0  0  0  0  0  0  0  0  0  0  0
  -28.0890  -26.4484   19.8494 O   0  0  0  0  0  0  0  0  0  1  0  0
  -21.5336   -4.0116   26.1291 F   0  0  0  0  0  0  0  0  0  0  0  0
  -24.2697   -6.0676   22.8592 F   0  0  0  0  0  0  0  0  0  0  0  0
  1  2  1  0  0  0  0
  1  5  2  0  0  0  0
  2  6  2  0  0  0  0
  3  8  2  0  0  0  0
  3 17  1  0  0  0  0
  4  9  1  0  0  0  0
  4 17  2  0  0  0  0
  5 19  1  0  0  0  0
  6 21  1  0  0  0  0
  7 10  2  0  0  0  0
  7 20  1  0  0  0  0
  8 27  1  0  0  0  0
  9 27  2  0  0  0  0
 10 28  1  0  0  0  0
 11 12  2  0  0  0  0
 11 29  1  0  0  0  0
 12 30  1  0  0  0  0
 13 22  1  0  0  0  0
 13 24  2  0  0  0  0
 14 23  1  0  0  0  0
 14 28  2  0  0  0  0
 15 25  1  0  0  0  0
 15 26  2  0  0  0  0
 16 30  2  0  0  0  0
 16 31  1  0  0  0  0
 17 32  1  0  0  0  0
 18 32  1  0  0  0  0
 18 33  2  0  0  0  0
 18 34  1  0  0  0  0
 19 21  2  0  0  0  0
 19 39  1  0  0  0  0
 20 23  2  0  0  0  0
 20 40  1  0  0  0  0
 21 50  1  0  0  0  0
 22 25  2  0  0  0  0
 22 49  1  0  0  0  0
 23 41  1  0  0  0  0
 24 26  1  0  0  0  0
 24 61  1  0  0  0  0
 25 54  1  0  0  0  0
 26 55  1  0  0  0  0
 27 81  1  0  0  0  0
 28 82  1  0  0  0  0
 29 31  2  0  0  0  0
 29 81  1  0  0  0  0
 30 83  1  0  0  0  0
 31 84  1  0  0  0  0
 32 66  2  0  0  0  0
 33 67  1  0  0  0  0
 33 70  1  0  0  0  0
 34 71  1  0  0  0  0
 34 76  2  0  0  0  0
 35 51  1  0  0  0  0
 35 72  1  0  0  0  0
 35 77  2  0  0  0  0
 36 63  1  0  0  0  0
 36 68  1  0  0  0  0
 36 78  2  0  0  0  0
 37 64  1  0  0  0  0
 37 73  1  0  0  0  0
 37 79  2  0  0  0  0
 38 69  1  0  0  0  0
 38 74  1  0  0  0  0
 38 80  2  0  0  0  0
 39 42  1  0  0  0  0
 40 51  1  0  0  0  0
 41 68  1  0  0  0  0
 42 44  1  0  0  0  0
 43 45  1  0  0  0  0
 43 47  1  0  0  0  0
 44 50  1  0  0  0  0
 45 53  1  0  0  0  0
 46 49  1  0  0  0  0
 46 52  1  0  0  0  0
 47 69  1  0  0  0  0
 48 53  1  0  0  0  0
 48 69  1  0  0  0  0
 49 52  1  0  0  0  0
 50 72  1  0  0  0  0
 51 68  1  0  0  0  0
 52 62  1  0  0  0  0
 53 67  1  0  0  0  0
 56 64  1  0  0  0  0
 57 65  1  0  0  0  0
 58 65  1  0  0  0  0
 59 65  1  0  0  0  0
 60 75  1  0  0  0  0
 61 74  1  0  0  0  0
 62 82  1  0  0  0  0
 63 65  1  0  0  0  0
 63 73  1  0  0  0  0
 64 75  1  0  0  0  0
 66 67  1  0  0  0  0
M  CHG  1  75   1
M  ISO  4  38 100  62 101  74 100  82 101
M  END
> <Batch ID>
0157

> <Smiles>
CNC(C)C(=O)NC(C(=O)N1Cc2cc([101O:1][101CH2:1]C3CC3c3cc(C[100NH:0][100C:0](=O)N4CCCC(n5nc(-c6ccc(Oc7ccc(F)cc7F)cc6)c(C(N)=O)c5N)C4)c(C)cc3C)ccc2CC1C(=O)NC1CCCc2ccccc21)C(C)(C)C

> <Shape>
0.294

> <Color>
0.124

> <Negative vol penalty>
0.000

$$$$

  -OEChem-04052321593D

 86 95  0     1  0  0  0  0  0999 V2000
  -29.0203  -11.5084   19.3141 C   0  0  0  0  0  0  0  0  0  0  0  0
  -29.0272  -12.8884   19.1385 C   0  0  0  0  0  0  0  0  0  0  0  0
  -23.0781  -25.8442   25.2117 C   0  0  0  0  0  0  0  0  0  0  0  0
  -22.2000  -28.0484   25.6672 C   0  0  0  0  0  0  0  0  0  0  0  0
  -27.8652  -10.8698   19.7635 C   0  0  0  0  0  0  0  0  0  0  0  0
  -27.8786  -13.6306   19.4111 C   0  0  0  0  0  0  0  0  0  0  0  0
  -28.8663  -17.8416   22.0449 C   0  0  0  0  0  0  0  0  0  0  0  0
  -22.9583  -25.5174   26.5625 C   0  0  0  0  0  0  0  0  0  0  0  0
  -22.0802  -27.7216   27.0179 C   0  0  0  0  0  0  0  0  0  0  0  0
  -29.3903  -18.9248   21.3408 C   0  0  0  0  0  0  0  0  0  0  0  0
  -23.2203  -24.2254   29.9515 C   0  0  0  0  0  0  0  0  0  0  0  0
  -24.2907  -23.5690   30.5589 C   0  0  0  0  0  0  0  0  0  0  0  0
  -27.1982  -19.9289   21.2658 C   0  0  0  0  0  0  0  0  0  0  0  0
  -30.2385  -23.3655   19.3636 C   0  0  0  0  0  0  0  0  0  0  0  0
  -25.7327  -25.4352   30.0345 C   0  0  0  0  0  0  0  0  0  0  0  0
  -28.2575  -23.8639   18.1455 C   0  0  0  0  0  0  0  0  0  0  0  0
  -22.6990  -27.1098   24.7641 C   0  0  0  0  0  0  0  0  0  0  0  0
  -21.8553  -27.2709   22.3620 C   0  0  0  0  0  0  0  0  0  0  0  0
  -26.7048  -11.6057   20.0510 C   0  0  0  0  0  0  0  0  0  0  0  0
  -27.4999  -17.7886   22.3558 C   0  0  0  0  0  0  0  0  0  0  0  0
  -26.7065  -13.0011   19.8635 C   0  0  0  0  0  0  0  0  0  0  0  0
  -26.6598  -18.8451   21.9762 C   0  0  0  0  0  0  0  0  0  0  0  0
  -28.8930  -23.1125   19.1209 C   0  0  0  0  0  0  0  0  0  0  0  0
  -30.8981  -24.3482   18.6339 C   0  0  0  0  0  0  0  0  0  0  0  0
  -22.4594  -26.4561   27.4655 C   0  0  0  0  0  0  0  0  0  0  0  0
  -28.5558  -19.9673   20.9486 C   0  0  0  0  0  0  0  0  0  0  0  0
  -23.4060  -25.4867   29.3855 C   0  0  0  0  0  0  0  0  0  0  0  0
  -25.5469  -24.1739   30.6004 C   0  0  0  0  0  0  0  0  0  0  0  0
  -24.6622  -26.0916   29.4270 C   0  0  0  0  0  0  0  0  0  0  0  0
  -22.8230  -27.4481   23.3690 C   0  0  0  0  0  0  0  0  0  0  0  0
  -30.1730  -25.0441   17.6801 C   0  0  0  0  0  0  0  0  0  0  0  0
  -22.4554  -27.7465   21.2217 C   0  0  0  0  0  0  0  0  0  0  0  0
  -20.5323  -26.7253   22.4496 C   0  0  0  0  0  0  0  0  0  0  0  0
  -25.1065  -15.8303   21.6208 C   0  0  0  0  0  0  0  0  0  0  0  0
  -23.4666  -17.6746   23.7261 C   0  0  0  0  0  0  0  0  0  0  0  0
  -23.1574  -20.6766   25.3195 C   0  0  0  0  0  0  0  0  0  0  0  0
  -28.2280  -28.1870   19.8140 C   0  0  0  0  0  0  0  0  0  0  0  0
  -25.4659  -10.8657   20.4892 C   0  0  0  0  0  0  0  0  0  0  0  0
  -26.9551  -16.6259   23.1392 C   0  0  0  0  0  0  0  0  0  0  0  0
  -25.1895  -18.8460   22.3031 C   0  0  0  0  0  0  0  0  0  0  0  0
  -24.4056  -11.7691   21.1136 C   0  0  0  0  0  0  0  0  0  0  0  0
  -25.7151  -30.8869   19.7243 C   0  0  0  0  0  0  0  0  0  0  0  0
  -24.1992  -13.0175   20.2617 C   0  0  0  0  0  0  0  0  0  0  0  0
  -24.6211  -30.2990   20.6106 C   0  0  0  0  0  0  0  0  0  0  0  0
  -31.0722  -28.7000   17.3180 C   0  0  0  0  0  0  0  0  0  0  0  0
  -27.1114  -30.4678   20.1824 C   0  0  0  0  0  0  0  0  0  0  0  0
  -26.1835  -28.4025   21.1913 C   0  0  0  0  0  0  0  0  0  0  0  0
  -25.4879  -13.8437   20.1722 C   0  0  1  0  0  0  0  0  0  0  0  0
  -25.4534  -16.4314   22.9535 C   0  0  1  0  0  0  0  0  0  0  0  0
  -30.1981  -27.4917   17.1348 C   0  0  2  0  0  0  0  0  0  0  0  0
  -24.7702  -28.7736   20.7167 C   0  0  1  0  0  0  0  0  0  0  0  0
  -30.3229  -28.1304   18.4947 C   0  0  2  0  0  0  0  0  0  0  0  0
  -32.3392  -24.6255   18.8902 C   0  0  0  0  0  0  0  0  0  0  0  0
  -31.4861  -24.2633   13.4765 C   0  0  0  0  0  0  0  0  0  0  0  0
  -21.6958  -21.8985   26.9529 C   0  0  0  0  0  0  0  0  0  0  0  0
  -21.3786  -18.0932   21.5409 C   0  0  0  0  0  0  0  0  0  0  0  0
  -20.4838  -20.0222   22.8624 C   0  0  0  0  0  0  0  0  0  0  0  0
  -20.4358  -17.7224   23.8274 C   0  0  0  0  0  0  0  0  0  0  0  0
  -25.3809  -20.9982   27.2460 C   0  0  0  0  0  0  0  0  0  0  0  0
  -28.1525  -22.0585   19.8903 C   0  0  0  0  0  0  0  0  0  1  0  0
  -31.5371  -24.5252   14.9740 C   0  0  0  0  0  0  0  0  0  0  0  0
  -30.8244  -25.8323   15.3369 C   0  0  0  0  0  0  0  0  0  0  0  0
  -30.8297  -26.1103   16.8655 C   0  0  2  0  0  0  0  0  0  0  0  0
  -22.6443  -18.9367   23.6272 C   0  0  1  0  0  0  0  0  0  0  0  0
  -22.9272  -21.0231   26.7794 C   0  0  2  0  0  0  0  0  0  0  0  0
  -21.2629  -18.6930   22.9564 C   0  0  0  0  0  0  0  0  0  0  0  0
  -28.8650  -24.8266   17.4162 N   0  0  0  0  0  0  0  0  0  0  0  0
  -23.9521  -27.9935   22.9089 N   0  0  0  0  0  0  0  0  0  0  0  0
  -23.6977  -28.1630   21.6002 N   0  0  0  0  0  0  0  0  0  0  0  0
  -24.7031  -17.6840   23.0652 N   0  0  0  0  0  0  0  0  0  0  0  0
  -27.2141  -29.0084   20.3392 N   0  0  0  0  0  0  0  0  0  0  0  0
  -22.0363  -27.8447   19.9422 N   0  0  0  0  0  0  0  0  0  0  0  0
  -20.0730  -26.2837   23.6979 N   0  0  0  0  0  0  0  0  0  0  0  0
  -25.6897  -14.5991   21.3900 N   0  0  0  0  0  0  0  0  0  0  0  0
  -22.5647  -19.4790   24.9792 N   0  0  0  0  0  0  0  0  0  0  0  0
  -29.2187  -28.8372   19.0869 N   0  0  0  0  0  0  0  0  0  0  0  0
  -24.1040  -21.7529   27.3303 N   0  3  0  0  0  0  0  0  0  0  0  0
  -19.7858  -26.6172   21.4473 O   0  0  0  0  0  0  0  0  0  0  0  0
  -24.3634  -16.4379   20.8590 O   0  0  0  0  0  0  0  0  0  0  0  0
  -23.0311  -16.7182   24.3720 O   0  0  0  0  0  0  0  0  0  0  0  0
  -23.7958  -21.3981   24.5562 O   0  0  0  0  0  0  0  0  0  0  0  0
  -28.2538  -26.9630   19.9842 O   0  0  0  0  0  0  0  0  0  0  0  0
  -22.3422  -26.1375   28.7836 O   0  0  0  0  0  0  0  0  0  0  0  0
  -29.0646  -21.0254   20.2607 O   0  0  0  0  0  0  0  0  0  1  0  0
  -26.5743  -23.5440   31.1850 F   0  0  0  0  0  0  0  0  0  0  0  0
  -24.8466  -27.3037   28.8861 F   0  0  0  0  0  0  0  0  0  0  0  0
  1  2  1  0  0  0  0
  1  5  2  0  0  0  0
  2  6  2  0  0  0  0
  3  8  2  0  0  0  0
  3 17  1  0  0  0  0
  4  9  1  0  0  0  0
  4 17  2  0  0  0  0
  5 19  1  0  0  0  0
  6 21  1  0  0  0  0
  7 10  2  0  0  0  0
  7 20  1  0  0  0  0
  8 25  1  0  0  0  0
  9 25  2  0  0  0  0
 10 26  1  0  0  0  0
 11 12  2  0  0  0  0
 11 27  1  0  0  0  0
 12 28  1  0  0  0  0
 13 22  1  0  0  0  0
 13 26  2  0  0  0  0
 14 23  2  0  0  0  0
 14 24  1  0  0  0  0
 15 28  2  0  0  0  0
 15 29  1  0  0  0  0
 16 23  1  0  0  0  0
 16 67  2  0  0  0  0
 17 30  1  0  0  0  0
 18 30  1  0  0  0  0
 18 32  2  0  0  0  0
 18 33  1  0  0  0  0
 19 21  2  0  0  0  0
 19 38  1  0  0  0  0
 20 22  2  0  0  0  0
 20 39  1  0  0  0  0
 21 48  1  0  0  0  0
 22 40  1  0  0  0  0
 23 60  1  0  0  0  0
 24 31  2  0  0  0  0
 24 53  1  0  0  0  0
 25 83  1  0  0  0  0
 26 84  1  0  0  0  0
 27 29  2  0  0  0  0
 27 83  1  0  0  0  0
 28 85  1  0  0  0  0
 29 86  1  0  0  0  0
 30 68  2  0  0  0  0
 31 63  1  0  0  0  0
 31 67  1  0  0  0  0
 32 69  1  0  0  0  0
 32 72  1  0  0  0  0
 33 73  1  0  0  0  0
 33 78  2  0  0  0  0
 34 49  1  0  0  0  0
 34 74  1  0  0  0  0
 34 79  2  0  0  0  0
 35 64  1  0  0  0  0
 35 70  1  0  0  0  0
 35 80  2  0  0  0  0
 36 65  1  0  0  0  0
 36 75  1  0  0  0  0
 36 81  2  0  0  0  0
 37 71  1  0  0  0  0
 37 76  1  0  0  0  0
 37 82  2  0  0  0  0
 38 41  1  0  0  0  0
 39 49  1  0  0  0  0
 40 70  1  0  0  0  0
 41 43  1  0  0  0  0
 42 44  1  0  0  0  0
 42 46  1  0  0  0  0
 43 48  1  0  0  0  0
 44 51  1  0  0  0  0
 45 50  1  0  0  0  0
 45 52  1  0  0  0  0
 46 71  1  0  0  0  0
 47 51  1  0  0  0  0
 47 71  1  0  0  0  0
 48 74  1  0  0  0  0
 49 70  1  0  0  0  0
 50 52  1  0  0  0  0
 50 63  1  0  0  0  0
 51 69  1  0  0  0  0
 52 76  1  0  0  0  0
 54 61  1  0  0  0  0
 55 65  1  0  0  0  0
 56 66  1  0  0  0  0
 57 66  1  0  0  0  0
 58 66  1  0  0  0  0
 59 77  1  0  0  0  0
 60 84  1  0  0  0  0
 61 62  1  0  0  0  0
 62 63  1  0  0  0  0
 64 66  1  0  0  0  0
 64 75  1  0  0  0  0
 65 77  1  0  0  0  0
 68 69  1  0  0  0  0
M  CHG  1  77   1
M  ISO  4  37 100  60 101  76 100  84 101
M  END
> <Batch ID>
0157

> <Smiles>
CCCC(c1ncc([101CH2:1][101O:1]c2ccc3c(c2)CN(C(=O)C(NC(=O)C(C)NC)C(C)(C)C)C(C(=O)NC2CCCc4ccccc42)C3)cc1C)C1CC1[100NH:0][100C:0](=O)N1CCCC(n2nc(-c3ccc(Oc4ccc(F)cc4F)cc3)c(C(N)=O)c2N)C1

> <Shape>
0.200

> <Color>
0.064

> <Negative vol penalty>
0.000

$$$$

  -OEChem-04052321593D

 85 94  0     1  0  0  0  0  0999 V2000
  -40.5330  -30.5204   26.1764 C   0  0  0  0  0  0  0  0  0  0  0  0
  -39.4283  -29.7885   25.7529 C   0  0  0  0  0  0  0  0  0  0  0  0
  -23.0555   -9.8909   19.9680 C   0  0  0  0  0  0  0  0  0  0  0  0
  -23.8067   -9.9387   22.2638 C   0  0  0  0  0  0  0  0  0  0  0  0
  -40.5419  -31.9081   26.0411 C   0  0  0  0  0  0  0  0  0  0  0  0
  -38.3313  -30.4440   25.1948 C   0  0  0  0  0  0  0  0  0  0  0  0
  -36.6065  -28.1418   21.0271 C   0  0  0  0  0  0  0  0  0  0  0  0
  -33.2726  -22.8999   22.8545 C   0  0  0  0  0  0  0  0  0  0  0  0
  -22.3153   -8.7390   20.2342 C   0  0  0  0  0  0  0  0  0  0  0  0
  -23.0664   -8.7869   22.5300 C   0  0  0  0  0  0  0  0  0  0  0  0
  -35.8245  -27.0016   21.2069 C   0  0  0  0  0  0  0  0  0  0  0  0
  -23.3725   -5.4573   22.0286 C   0  0  0  0  0  0  0  0  0  0  0  0
  -23.9893   -4.4465   22.7657 C   0  0  0  0  0  0  0  0  0  0  0  0
  -32.3464  -21.8660   22.9354 C   0  0  0  0  0  0  0  0  0  0  0  0
  -33.8342  -28.3185   20.8555 C   0  0  0  0  0  0  0  0  0  0  0  0
  -22.2807   -4.6414   24.4628 C   0  0  0  0  0  0  0  0  0  0  0  0
  -32.5372  -23.3151   20.6311 C   0  0  0  0  0  0  0  0  0  0  0  0
  -23.8013  -10.4907   20.9828 C   0  0  0  0  0  0  0  0  0  0  0  0
  -24.1336  -13.0149   20.8224 C   0  0  0  0  0  0  0  0  0  0  0  0
  -39.4485  -32.5800   25.4722 C   0  0  0  0  0  0  0  0  0  0  0  0
  -36.0066  -29.3831   20.7705 C   0  0  0  0  0  0  0  0  0  0  0  0
  -38.3251  -31.8420   25.0530 C   0  0  0  0  0  0  0  0  0  0  0  0
  -34.6108  -29.4724   20.6703 C   0  0  0  0  0  0  0  0  0  0  0  0
  -33.3761  -23.6431   21.6839 C   0  0  0  0  0  0  0  0  0  0  0  0
  -22.3206   -8.1870   21.5152 C   0  0  0  0  0  0  0  0  0  0  0  0
  -34.4380  -27.0904   21.1240 C   0  0  0  0  0  0  0  0  0  0  0  0
  -22.2098   -6.0603   22.5087 C   0  0  0  0  0  0  0  0  0  0  0  0
  -23.4434   -4.0385   23.9828 C   0  0  0  0  0  0  0  0  0  0  0  0
  -21.6640   -5.6523   23.7257 C   0  0  0  0  0  0  0  0  0  0  0  0
  -24.5666  -11.6802   20.7083 C   0  0  0  0  0  0  0  0  0  0  0  0
  -31.5534  -21.6177   21.8266 C   0  0  0  0  0  0  0  0  0  0  0  0
  -25.2242  -13.7626   20.4509 C   0  0  0  0  0  0  0  0  0  0  0  0
  -22.8595  -13.5324   21.2281 C   0  0  0  0  0  0  0  0  0  0  0  0
  -35.9203  -32.1851   22.2687 C   0  0  0  0  0  0  0  0  0  0  0  0
  -34.3631  -33.1316   19.5851 C   0  0  0  0  0  0  0  0  0  0  0  0
  -32.4776  -32.2713   16.8738 C   0  0  0  0  0  0  0  0  0  0  0  0
  -30.7931  -14.5845   21.0022 C   0  0  0  0  0  0  0  0  0  0  0  0
  -39.4844  -34.0855   25.3901 C   0  0  0  0  0  0  0  0  0  0  0  0
  -36.8653  -30.5985   20.5525 C   0  0  0  0  0  0  0  0  0  0  0  0
  -33.9188  -30.7776   20.3768 C   0  0  0  0  0  0  0  0  0  0  0  0
  -38.4374  -34.6691   24.4449 C   0  0  0  0  0  0  0  0  0  0  0  0
  -29.5894  -12.4014   18.2970 C   0  0  0  0  0  0  0  0  0  0  0  0
  -37.0775  -34.0233   24.6904 C   0  0  0  0  0  0  0  0  0  0  0  0
  -28.1560  -12.0893   18.7276 C   0  0  0  0  0  0  0  0  0  0  0  0
  -29.6578  -17.9790   20.4495 C   0  0  0  0  0  0  0  0  0  0  0  0
  -30.5032  -12.6504   19.4944 C   0  0  0  0  0  0  0  0  0  0  0  0
  -29.2244  -16.5235   20.4926 C   0  0  0  0  0  0  0  0  0  0  0  0
  -28.5782  -13.3668   20.8618 C   0  0  0  0  0  0  0  0  0  0  0  0
  -37.1263  -32.5146   24.4199 C   0  0  1  0  0  0  0  0  0  0  0  0
  -36.1238  -31.9074   20.8062 C   0  0  1  0  0  0  0  0  0  0  0  0
  -27.6165  -13.1711   19.6812 C   0  0  2  0  0  0  0  0  0  0  0  0
  -30.3134  -18.1719   21.8113 C   0  0  1  0  0  0  0  0  0  0  0  0
  -31.0383  -16.8404   22.0445 C   0  0  1  0  0  0  0  0  0  0  0  0
  -31.0930  -16.4812   23.5257 C   0  0  0  0  0  0  0  0  0  0  0  0
  -31.3242  -33.2677   14.8803 C   0  0  0  0  0  0  0  0  0  0  0  0
  -32.1311  -34.1600   21.3936 C   0  0  0  0  0  0  0  0  0  0  0  0
  -30.6425  -34.2587   19.3830 C   0  0  0  0  0  0  0  0  0  0  0  0
  -32.7001  -35.6656   19.4795 C   0  0  0  0  0  0  0  0  0  0  0  0
  -34.1315  -30.7018   14.9869 C   0  0  0  0  0  0  0  0  0  0  0  0
  -34.3570  -24.7550   21.5660 C   0  0  0  0  0  0  0  0  0  1  0  0
  -30.5428  -20.5098   21.8786 C   0  0  0  0  0  0  0  0  0  0  0  0
  -32.9200  -33.1695   19.1436 C   0  0  1  0  0  0  0  0  0  0  0  0
  -32.6024  -32.6322   15.4046 C   0  0  2  0  0  0  0  0  0  0  0  0
  -32.1111  -34.2891   19.8574 C   0  0  0  0  0  0  0  0  0  0  0  0
  -31.6252  -22.3180   20.6724 N   0  0  0  0  0  0  0  0  0  0  0  0
  -25.8334  -11.5826   20.2964 N   0  0  0  0  0  0  0  0  0  0  0  0
  -26.2058  -12.8654   20.1483 N   0  0  0  0  0  0  0  0  0  0  0  0
  -34.8016  -31.9389   20.1776 N   0  0  0  0  0  0  0  0  0  0  0  0
  -29.9370  -13.6595   20.3898 N   0  0  0  0  0  0  0  0  0  0  0  0
  -30.2801  -15.8588   21.2590 N   0  0  0  0  0  0  0  0  0  0  0  0
  -25.4296  -15.0935   20.3567 N   0  0  0  0  0  0  0  0  0  0  0  0
  -21.8499  -12.6249   21.5765 N   0  0  0  0  0  0  0  0  0  0  0  0
  -37.0928  -32.2549   22.9966 N   0  0  0  0  0  0  0  0  0  0  0  0
  -32.9410  -33.2821   17.6892 N   0  0  0  0  0  0  0  0  0  0  0  0
  -32.8884  -31.4144   14.5945 N   0  3  0  0  0  0  0  0  0  0  0  0
  -22.6182  -14.7629   21.2642 O   0  0  0  0  0  0  0  0  0  0  0  0
  -34.7837  -32.3271   22.7043 O   0  0  0  0  0  0  0  0  0  0  0  0
  -35.0770  -34.1212   19.4043 O   0  0  0  0  0  0  0  0  0  0  0  0
  -32.0118  -31.2014   17.2596 O   0  0  0  0  0  0  0  0  0  0  0  0
  -31.9653  -14.2964   21.2751 O   0  0  0  0  0  0  0  0  0  0  0  0
  -21.5982   -7.0632   21.7753 O   0  0  0  0  0  0  0  0  0  0  0  0
  -33.6675  -25.9720   21.3008 O   0  0  0  0  0  0  0  0  0  1  0  0
  -31.2165  -19.2608   21.7686 O   0  0  0  0  0  0  0  0  0  0  0  0
  -24.0350   -3.0666   24.6897 F   0  0  0  0  0  0  0  0  0  0  0  0
  -20.5465   -6.2270   24.1914 F   0  0  0  0  0  0  0  0  0  0  0  0
  1  2  1  0  0  0  0
  1  5  2  0  0  0  0
  2  6  2  0  0  0  0
  3  9  2  0  0  0  0
  3 18  1  0  0  0  0
  4 10  1  0  0  0  0
  4 18  2  0  0  0  0
  5 20  1  0  0  0  0
  6 22  1  0  0  0  0
  7 11  2  0  0  0  0
  7 21  1  0  0  0  0
  8 14  2  0  0  0  0
  8 24  1  0  0  0  0
  9 25  1  0  0  0  0
 10 25  2  0  0  0  0
 11 26  1  0  0  0  0
 12 13  2  0  0  0  0
 12 27  1  0  0  0  0
 13 28  1  0  0  0  0
 14 31  1  0  0  0  0
 15 23  1  0  0  0  0
 15 26  2  0  0  0  0
 16 28  2  0  0  0  0
 16 29  1  0  0  0  0
 17 24  2  0  0  0  0
 17 65  1  0  0  0  0
 18 30  1  0  0  0  0
 19 30  1  0  0  0  0
 19 32  2  0  0  0  0
 19 33  1  0  0  0  0
 20 22  2  0  0  0  0
 20 38  1  0  0  0  0
 21 23  2  0  0  0  0
 21 39  1  0  0  0  0
 22 49  1  0  0  0  0
 23 40  1  0  0  0  0
 24 60  1  0  0  0  0
 25 81  1  0  0  0  0
 26 82  1  0  0  0  0
 27 29  2  0  0  0  0
 27 81  1  0  0  0  0
 28 84  1  0  0  0  0
 29 85  1  0  0  0  0
 30 66  2  0  0  0  0
 31 61  1  0  0  0  0
 31 65  2  0  0  0  0
 32 67  1  0  0  0  0
 32 71  1  0  0  0  0
 33 72  1  0  0  0  0
 33 76  2  0  0  0  0
 34 50  1  0  0  0  0
 34 73  1  0  0  0  0
 34 77  2  0  0  0  0
 35 62  1  0  0  0  0
 35 68  1  0  0  0  0
 35 78  2  0  0  0  0
 36 63  1  0  0  0  0
 36 74  1  0  0  0  0
 36 79  2  0  0  0  0
 37 69  1  0  0  0  0
 37 70  1  0  0  0  0
 37 80  2  0  0  0  0
 38 41  1  0  0  0  0
 39 50  1  0  0  0  0
 40 68  1  0  0  0  0
 41 43  1  0  0  0  0
 42 44  1  0  0  0  0
 42 46  1  0  0  0  0
 43 49  1  0  0  0  0
 44 51  1  0  0  0  0
 45 47  1  0  0  0  0
 45 52  1  0  0  0  0
 46 69  1  0  0  0  0
 47 70  1  0  0  0  0
 48 51  1  0  0  0  0
 48 69  1  0  0  0  0
 49 73  1  0  0  0  0
 50 68  1  0  0  0  0
 51 67  1  0  0  0  0
 52 53  1  0  0  0  0
 52 83  1  0  0  0  0
 53 54  1  0  0  0  0
 53 70  1  0  0  0  0
 55 63  1  0  0  0  0
 56 64  1  0  0  0  0
 57 64  1  0  0  0  0
 58 64  1  0  0  0  0
 59 75  1  0  0  0  0
 60 82  1  0  0  0  0
 61 83  1  0  0  0  0
 62 64  1  0  0  0  0
 62 74  1  0  0  0  0
 63 75  1  0  0  0  0
 66 67  1  0  0  0  0
M  CHG  1  75   1
M  ISO  4  37 100  60 101  70 100  82 101
M  END
> <Batch ID>
0157

> <Smiles>
CNC(C)C(=O)NC(C(=O)N1Cc2cc([101O:1][101CH2:1]c3ccc(COC4CC[100N:0]([100C:0](=O)N5CCCC(n6nc(-c7ccc(Oc8ccc(F)cc8F)cc7)c(C(N)=O)c6N)C5)C4C)nc3)ccc2CC1C(=O)NC1CCCc2ccccc21)C(C)(C)C

> <Shape>
0.187

> <Color>
0.178

> <Negative vol penalty>
0.000

$$$$

  -OEChem-04052321593D

 90 99  0     1  0  0  0  0  0999 V2000
  -18.3356  -32.7143   25.1241 C   0  0  0  0  0  0  0  0  0  0  0  0
  -19.7043  -32.5836   25.3360 C   0  0  0  0  0  0  0  0  0  0  0  0
  -26.7698  -13.6522   21.0842 C   0  0  0  0  0  0  0  0  0  0  0  0
  -24.7188  -13.7394   19.8104 C   0  0  0  0  0  0  0  0  0  0  0  0
  -17.6439  -31.7316   24.4172 C   0  0  0  0  0  0  0  0  0  0  0  0
  -20.3819  -31.4695   24.8421 C   0  0  0  0  0  0  0  0  0  0  0  0
  -26.1172  -31.2993   22.7011 C   0  0  0  0  0  0  0  0  0  0  0  0
  -26.2329  -12.6397   21.8794 C   0  0  0  0  0  0  0  0  0  0  0  0
  -24.1819  -12.7269   20.6055 C   0  0  0  0  0  0  0  0  0  0  0  0
  -27.3247  -30.9158   23.2831 C   0  0  0  0  0  0  0  0  0  0  0  0
  -22.4028   -9.9148   22.0703 C   0  0  0  0  0  0  0  0  0  0  0  0
  -21.7269   -8.8761   21.4302 C   0  0  0  0  0  0  0  0  0  0  0  0
  -27.0897  -28.7210   22.3100 C   0  0  0  0  0  0  0  0  0  0  0  0
  -33.4158  -27.8550   23.2413 C   0  0  0  0  0  0  0  0  0  0  0  0
  -32.1129  -27.0399   21.3772 C   0  0  0  0  0  0  0  0  0  0  0  0
  -23.7356   -8.3229   20.2070 C   0  0  0  0  0  0  0  0  0  0  0  0
  -26.0127  -14.2020   20.0498 C   0  0  0  0  0  0  0  0  0  0  0  0
  -27.3000  -15.0952   18.0366 C   0  0  0  0  0  0  0  0  0  0  0  0
  -18.3151  -30.6097   23.9060 C   0  0  0  0  0  0  0  0  0  0  0  0
  -25.3803  -30.3916   21.9269 C   0  0  0  0  0  0  0  0  0  0  0  0
  -19.6983  -30.4702   24.1288 C   0  0  0  0  0  0  0  0  0  0  0  0
  -25.8745  -29.0963   21.7172 C   0  0  0  0  0  0  0  0  0  0  0  0
  -34.2564  -26.7466   23.1385 C   0  0  0  0  0  0  0  0  0  0  0  0
  -34.0252  -25.7849   22.1550 C   0  0  0  0  0  0  0  0  0  0  0  0
  -32.9535  -25.9315   21.2743 C   0  0  0  0  0  0  0  0  0  0  0  0
  -24.9390  -12.1770   21.6401 C   0  0  0  0  0  0  0  0  0  0  0  0
  -27.8097  -29.6256   23.0900 C   0  0  0  0  0  0  0  0  0  0  0  0
  -23.7451  -10.1577   21.7787 C   0  0  0  0  0  0  0  0  0  0  0  0
  -32.3440  -28.0016   22.3607 C   0  0  0  0  0  0  0  0  0  0  0  0
  -22.3933   -8.0801   20.4986 C   0  0  0  0  0  0  0  0  0  0  0  0
  -24.4115   -9.3617   20.8471 C   0  0  0  0  0  0  0  0  0  0  0  0
  -26.5665  -15.2483   19.2284 C   0  0  0  0  0  0  0  0  0  0  0  0
  -27.5951  -16.3790   17.6476 C   0  0  0  0  0  0  0  0  0  0  0  0
  -27.6804  -13.8994   17.3430 C   0  0  0  0  0  0  0  0  0  0  0  0
  -22.4917  -29.0835   22.1472 C   0  0  0  0  0  0  0  0  0  0  0  0
  -23.2365  -27.8900   19.2243 C   0  0  0  0  0  0  0  0  0  0  0  0
  -25.6571  -26.9927   16.9922 C   0  0  0  0  0  0  0  0  0  0  0  0
  -29.2610  -21.3937   18.5873 C   0  0  0  0  0  0  0  0  0  0  0  0
  -17.5163  -29.5502   23.1889 C   0  0  0  0  0  0  0  0  0  0  0  0
  -24.0928  -30.8291   21.2839 C   0  0  0  0  0  0  0  0  0  0  0  0
  -25.1315  -28.0903   20.8778 C   0  0  0  0  0  0  0  0  0  0  0  0
  -18.3756  -28.5858   22.3754 C   0  0  0  0  0  0  0  0  0  0  0  0
  -25.8786  -20.8201   19.3356 C   0  0  0  0  0  0  0  0  0  0  0  0
  -19.5701  -28.1119   23.1972 C   0  0  0  0  0  0  0  0  0  0  0  0
  -25.8101  -19.2942   19.2796 C   0  0  0  0  0  0  0  0  0  0  0  0
  -30.6472  -23.7857   20.7657 C   0  0  0  0  0  0  0  0  0  0  0  0
  -31.5017  -24.0301   18.4040 C   0  0  0  0  0  0  0  0  0  0  0  0
  -27.1626  -21.3119   20.0063 C   0  0  0  0  0  0  0  0  0  0  0  0
  -29.2909  -23.3407   20.2105 C   0  0  0  0  0  0  0  0  0  0  0  0
  -30.1251  -23.6092   17.8972 C   0  0  0  0  0  0  0  0  0  0  0  0
  -28.3314  -19.2307   19.3571 C   0  0  0  0  0  0  0  0  0  0  0  0
  -20.4730  -29.2884   23.5872 C   0  0  1  0  0  0  0  0  0  0  0  0
  -23.1710  -29.6635   20.9389 C   0  0  1  0  0  0  0  0  0  0  0  0
  -27.0793  -18.7075   18.6363 C   0  0  1  0  0  0  0  0  0  0  0  0
  -31.3885  -24.6918   19.7798 C   0  0  0  0  0  0  0  0  0  0  0  0
  -35.3964  -26.6134   24.0945 C   0  0  0  0  0  0  0  0  0  0  0  0
  -34.1925  -23.2625   22.2037 C   0  0  0  0  0  0  0  0  0  0  0  0
  -25.9591  -26.0129   14.7017 C   0  0  0  0  0  0  0  0  0  0  0  0
  -22.5714  -25.1224   20.3232 C   0  0  0  0  0  0  0  0  0  0  0  0
  -23.7731  -24.1318   18.3629 C   0  0  0  0  0  0  0  0  0  0  0  0
  -21.7512  -25.5467   17.9990 C   0  0  0  0  0  0  0  0  0  0  0  0
  -27.0328  -29.4213   16.0080 C   0  0  0  0  0  0  0  0  0  0  0  0
  -29.9699  -30.2649   23.8522 C   0  0  0  0  0  0  0  0  0  1  0  0
  -31.3534  -29.6511   23.7584 C   0  0  0  0  0  0  0  0  0  0  0  0
  -34.9293  -24.5971   22.0482 C   0  0  1  0  0  0  0  0  0  0  0  0
  -23.9142  -26.6382   18.7216 C   0  0  1  0  0  0  0  0  0  0  0  0
  -25.8245  -27.2919   15.5133 C   0  0  2  0  0  0  0  0  0  0  0  0
  -23.0158  -25.3779   18.8692 C   0  0  0  0  0  0  0  0  0  0  0  0
  -26.4057  -16.5285   19.5740 N   0  0  0  0  0  0  0  0  0  0  0  0
  -27.0423  -17.1914   18.5935 N   0  0  0  0  0  0  0  0  0  0  0  0
  -23.8744  -28.5638   20.2755 N   0  0  0  0  0  0  0  0  0  0  0  0
  -28.3431  -20.6948   19.3856 N   0  0  0  0  0  0  0  0  0  0  0  0
  -29.4434  -22.7554   18.8708 N   0  0  0  0  0  0  0  0  0  0  0  0
  -28.2710  -16.8808   16.5923 N   0  0  0  0  0  0  0  0  0  0  0  0
  -27.2948  -12.6638   17.8807 N   0  0  0  0  0  0  0  0  0  0  0  0
  -32.7081  -24.9886   20.2920 N   0  0  0  0  0  0  0  0  0  0  0  0
  -21.2918  -29.6912   22.4639 N   0  0  0  0  0  0  0  0  0  0  0  0
  -24.3278  -26.9201   17.3513 N   0  0  0  0  0  0  0  0  0  0  0  0
  -35.6884  -24.5456   20.7541 N   0  3  0  0  0  0  0  0  0  0  0  0
  -27.0413  -28.1222   15.2873 N   0  3  0  0  0  0  0  0  0  0  0  0
  -28.3567  -13.9251   16.2869 O   0  0  0  0  0  0  0  0  0  0  0  0
  -23.0166  -28.1525   22.7467 O   0  0  0  0  0  0  0  0  0  0  0  0
  -22.1838  -28.2605   18.6987 O   0  0  0  0  0  0  0  0  0  0  0  0
  -26.6102  -26.8352   17.7520 O   0  0  0  0  0  0  0  0  0  0  0  0
  -29.8815  -20.8339   17.6748 O   0  0  0  0  0  0  0  0  0  0  0  0
  -24.4149  -11.1889   22.4156 O   0  0  0  0  0  0  0  0  0  0  0  0
  -28.9957  -29.2460   23.6614 O   0  0  0  0  0  0  0  0  0  1  0  0
  -31.5244  -29.0837   22.4605 O   0  0  0  0  0  0  0  0  0  0  0  0
  -21.7446   -7.0816   19.8851 F   0  0  0  0  0  0  0  0  0  0  0  0
  -25.7013   -9.5895   20.5637 F   0  0  0  0  0  0  0  0  0  0  0  0
  1  2  1  0  0  0  0
  1  5  2  0  0  0  0
  2  6  2  0  0  0  0
  3  8  2  0  0  0  0
  3 17  1  0  0  0  0
  4  9  1  0  0  0  0
  4 17  2  0  0  0  0
  5 19  1  0  0  0  0
  6 21  1  0  0  0  0
  7 10  2  0  0  0  0
  7 20  1  0  0  0  0
  8 26  1  0  0  0  0
  9 26  2  0  0  0  0
 10 27  1  0  0  0  0
 11 12  2  0  0  0  0
 11 28  1  0  0  0  0
 12 30  1  0  0  0  0
 13 22  1  0  0  0  0
 13 27  2  0  0  0  0
 14 23  2  0  0  0  0
 14 29  1  0  0  0  0
 15 25  1  0  0  0  0
 15 29  2  0  0  0  0
 16 30  2  0  0  0  0
 16 31  1  0  0  0  0
 17 32  1  0  0  0  0
 18 32  1  0  0  0  0
 18 33  2  0  0  0  0
 18 34  1  0  0  0  0
 19 21  2  0  0  0  0
 19 39  1  0  0  0  0
 20 22  2  0  0  0  0
 20 40  1  0  0  0  0
 21 52  1  0  0  0  0
 22 41  1  0  0  0  0
 23 24  1  0  0  0  0
 23 56  1  0  0  0  0
 24 25  2  0  0  0  0
 24 65  1  0  0  0  0
 25 76  1  0  0  0  0
 26 86  1  0  0  0  0
 27 87  1  0  0  0  0
 28 31  2  0  0  0  0
 28 86  1  0  0  0  0
 29 88  1  0  0  0  0
 30 89  1  0  0  0  0
 31 90  1  0  0  0  0
 32 69  2  0  0  0  0
 33 70  1  0  0  0  0
 33 74  1  0  0  0  0
 34 75  1  0  0  0  0
 34 81  2  0  0  0  0
 35 53  1  0  0  0  0
 35 77  1  0  0  0  0
 35 82  2  0  0  0  0
 36 66  1  0  0  0  0
 36 71  1  0  0  0  0
 36 83  2  0  0  0  0
 37 67  1  0  0  0  0
 37 78  1  0  0  0  0
 37 84  2  0  0  0  0
 38 72  1  0  0  0  0
 38 73  1  0  0  0  0
 38 85  2  0  0  0  0
 39 42  1  0  0  0  0
 40 53  1  0  0  0  0
 41 71  1  0  0  0  0
 42 44  1  0  0  0  0
 43 45  1  0  0  0  0
 43 48  1  0  0  0  0
 44 52  1  0  0  0  0
 45 54  1  0  0  0  0
 46 49  1  0  0  0  0
 46 55  1  0  0  0  0
 47 50  1  0  0  0  0
 47 55  1  0  0  0  0
 48 72  1  0  0  0  0
 49 73  1  0  0  0  0
 50 73  1  0  0  0  0
 51 54  1  0  0  0  0
 51 72  1  0  0  0  0
 52 77  1  0  0  0  0
 53 71  1  0  0  0  0
 54 70  1  0  0  0  0
 55 76  1  0  0  0  0
 57 65  1  0  0  0  0
 58 67  1  0  0  0  0
 59 68  1  0  0  0  0
 60 68  1  0  0  0  0
 61 68  1  0  0  0  0
 62 80  1  0  0  0  0
 63 64  1  0  0  0  0
 63 87  1  0  0  0  0
 64 88  1  0  0  0  0
 65 79  1  0  0  0  0
 66 68  1  0  0  0  0
 66 78  1  0  0  0  0
 67 80  1  0  0  0  0
 69 70  1  0  0  0  0
M  CHG  2  79   1  80   1
M  ISO  4  38 100  63 101  73 100  87 101
M  END
> <Batch ID>
0157

> <Smiles>
CNC(C)C(=O)NC(C(=O)N1Cc2cc([101O:1][101CH2:1]COc3cc(C)c(C(C)N)c(NC4CC[100N:0]([100C:0](=O)N5CCCC(n6nc(-c7ccc(Oc8ccc(F)cc8F)cc7)c(C(N)=O)c6N)C5)CC4)c3)ccc2CC1C(=O)NC1CCCc2ccccc21)C(C)(C)C

> <Shape>
0.248

> <Color>
0.071

> <Negative vol penalty>
0.000

$$$$

  -OEChem-04052321593D

 84 93  0     1  0  0  0  0  0999 V2000
  -18.2849  -28.4207   22.6308 C   0  0  0  0  0  0  0  0  0  0  0  0
  -18.1623  -27.0675   22.3322 C   0  0  0  0  0  0  0  0  0  0  0  0
  -30.3531  -19.6501   19.8603 C   0  0  0  0  0  0  0  0  0  0  0  0
  -28.0505  -19.8057   20.5750 C   0  0  0  0  0  0  0  0  0  0  0  0
  -19.5403  -28.9622   22.9041 C   0  0  0  0  0  0  0  0  0  0  0  0
  -19.2954  -26.2551   22.3057 C   0  0  0  0  0  0  0  0  0  0  0  0
  -19.6478  -20.3731   23.9739 C   0  0  0  0  0  0  0  0  0  0  0  0
  -30.2577  -20.9137   19.2775 C   0  0  0  0  0  0  0  0  0  0  0  0
  -27.9550  -21.0693   19.9922 C   0  0  0  0  0  0  0  0  0  0  0  0
  -19.6260  -19.1873   23.2409 C   0  0  0  0  0  0  0  0  0  0  0  0
  -30.3213  -24.1375   20.2952 C   0  0  0  0  0  0  0  0  0  0  0  0
  -31.3658  -25.0347   20.5180 C   0  0  0  0  0  0  0  0  0  0  0  0
  -22.0379  -19.1453   23.2484 C   0  0  0  0  0  0  0  0  0  0  0  0
  -21.4242  -11.4769   19.8514 C   0  0  0  0  0  0  0  0  0  0  0  0
  -22.9913  -13.2714   19.5223 C   0  0  0  0  0  0  0  0  0  0  0  0
  -31.7736  -25.1505   18.1394 C   0  0  0  0  0  0  0  0  0  0  0  0
  -29.2495  -19.0960   20.5091 C   0  0  0  0  0  0  0  0  0  0  0  0
  -29.7362  -17.4894   22.4299 C   0  0  0  0  0  0  0  0  0  0  0  0
  -20.6880  -28.1541   22.8905 C   0  0  0  0  0  0  0  0  0  0  0  0
  -20.8670  -20.9607   24.3409 C   0  0  0  0  0  0  0  0  0  0  0  0
  -20.5675  -26.7866   22.5778 C   0  0  0  0  0  0  0  0  0  0  0  0
  -22.0724  -20.3372   23.9882 C   0  0  0  0  0  0  0  0  0  0  0  0
  -21.6795  -12.8289   19.6513 C   0  0  0  0  0  0  0  0  0  0  0  0
  -29.0586  -21.6233   19.3434 C   0  0  0  0  0  0  0  0  0  0  0  0
  -20.8211  -18.5748   22.8756 C   0  0  0  0  0  0  0  0  0  0  0  0
  -30.0030  -23.7467   18.9946 C   0  0  0  0  0  0  0  0  0  0  0  0
  -32.0919  -25.5412   19.4401 C   0  0  0  0  0  0  0  0  0  0  0  0
  -30.7291  -24.2533   17.9167 C   0  0  0  0  0  0  0  0  0  0  0  0
  -29.3473  -17.7905   21.1108 C   0  0  0  0  0  0  0  0  0  0  0  0
  -22.5071  -10.6148   19.9147 C   0  0  0  0  0  0  0  0  0  0  0  0
  -24.0041  -12.3290   19.6004 C   0  0  0  0  0  0  0  0  0  0  0  0
  -29.6659  -16.1197   22.5044 C   0  0  0  0  0  0  0  0  0  0  0  0
  -30.1260  -18.3692   23.4928 C   0  0  0  0  0  0  0  0  0  0  0  0
  -22.3000  -23.7290   23.7190 C   0  0  0  0  0  0  0  0  0  0  0  0
  -24.4672  -22.6459   25.8760 C   0  0  0  0  0  0  0  0  0  0  0  0
  -25.8972  -19.9818   27.4585 C   0  0  0  0  0  0  0  0  0  0  0  0
  -26.5035  -12.0258   19.5139 C   0  0  0  0  0  0  0  0  0  0  0  0
  -22.0296  -28.7942   23.1460 C   0  0  0  0  0  0  0  0  0  0  0  0
  -20.8733  -22.2257   25.1545 C   0  0  0  0  0  0  0  0  0  0  0  0
  -23.4078  -20.9167   24.3750 C   0  0  0  0  0  0  0  0  0  0  0  0
  -23.1332  -27.7889   23.4652 C   0  0  0  0  0  0  0  0  0  0  0  0
  -30.0495  -12.1968   19.7846 C   0  0  0  0  0  0  0  0  0  0  0  0
  -23.0993  -26.6274   22.4770 C   0  0  0  0  0  0  0  0  0  0  0  0
  -30.3069  -13.6213   20.2813 C   0  0  0  0  0  0  0  0  0  0  0  0
  -19.6326  -13.9220   20.7828 C   0  0  0  0  0  0  0  0  0  0  0  0
  -28.8814  -12.1413   18.8017 C   0  0  0  0  0  0  0  0  0  0  0  0
  -27.8923  -14.1742   19.7805 C   0  0  0  0  0  0  0  0  0  0  0  0
  -21.7700  -25.8679   22.5636 C   0  0  1  0  0  0  0  0  0  0  0  0
  -22.1769  -23.0086   25.0318 C   0  0  1  0  0  0  0  0  0  0  0  0
  -20.6198  -15.0156   20.5013 C   0  0  1  0  0  0  0  0  0  0  0  0
  -29.0183  -14.2707   20.8228 C   0  0  2  0  0  0  0  0  0  0  0  0
  -20.5498  -13.8012   19.5749 C   0  0  1  0  0  0  0  0  0  0  0  0
  -22.2705   -9.1569   20.1279 C   0  0  0  0  0  0  0  0  0  0  0  0
  -19.9336  -13.9314   18.2077 C   0  0  0  0  0  0  0  0  0  0  0  0
  -27.6683  -19.4087   29.1415 C   0  0  0  0  0  0  0  0  0  0  0  0
  -26.6223  -23.1477   23.7751 C   0  0  0  0  0  0  0  0  0  0  0  0
  -28.1684  -21.7072   25.1179 C   0  0  0  0  0  0  0  0  0  0  0  0
  -27.2581  -23.8114   26.1010 C   0  0  0  0  0  0  0  0  0  0  0  0
  -23.9233  -18.7537   29.2900 C   0  0  0  0  0  0  0  0  0  0  0  0
  -20.1446  -16.3764   20.0877 C   0  0  0  0  0  0  0  0  0  0  0  0
  -19.6997  -17.2179   21.2764 C   0  0  0  0  0  0  0  0  0  1  0  0
  -25.7289  -21.8204   25.8015 C   0  0  1  0  0  0  0  0  0  0  0  0
  -26.1962  -19.7226   28.9241 C   0  0  2  0  0  0  0  0  0  0  0  0
  -26.9194  -22.6115   25.1898 C   0  0  0  0  0  0  0  0  0  0  0  0
  -29.0521  -16.6998   20.3986 N   0  0  0  0  0  0  0  0  0  0  0  0
  -23.7951  -11.0075   19.7939 N   0  0  0  0  0  0  0  0  0  0  0  0
  -29.2555  -15.7000   21.2733 N   0  0  0  0  0  0  0  0  0  0  0  0
  -23.3615  -22.1582   25.1650 N   0  0  0  0  0  0  0  0  0  0  0  0
  -27.6945  -12.7710   19.3845 N   0  0  0  0  0  0  0  0  0  0  0  0
  -29.9157  -15.2455   23.5023 N   0  0  0  0  0  0  0  0  0  0  0  0
  -30.1434  -19.7487   23.2459 N   0  0  0  0  0  0  0  0  0  0  0  0
  -25.3376  -12.7895   19.4683 N   0  0  0  0  0  0  0  0  0  0  0  0
  -21.7582  -25.0001   23.7218 N   0  0  0  0  0  0  0  0  0  0  0  0
  -25.9722  -21.3240   27.1517 N   0  0  0  0  0  0  0  0  0  0  0  0
  -25.3917  -18.5707   29.4210 N   0  3  0  0  0  0  0  0  0  0  0  0
  -30.4651  -17.9435   24.6230 O   0  0  0  0  0  0  0  0  0  0  0  0
  -22.8474  -23.1732   22.7739 O   0  0  0  0  0  0  0  0  0  0  0  0
  -24.4606  -23.6814   26.5463 O   0  0  0  0  0  0  0  0  0  0  0  0
  -25.6279  -19.0832   26.6645 O   0  0  0  0  0  0  0  0  0  0  0  0
  -26.5177  -10.8037   19.6821 O   0  0  0  0  0  0  0  0  0  0  0  0
  -28.9652  -22.8565   18.7750 O   0  0  0  0  0  0  0  0  0  0  0  0
  -20.8027  -17.4177   22.1596 O   0  0  0  0  0  0  0  0  0  1  0  0
  -33.0940  -26.4040   19.6540 F   0  0  0  0  0  0  0  0  0  0  0  0
  -30.4271  -23.8825   16.6648 F   0  0  0  0  0  0  0  0  0  0  0  0
  1  2  1  0  0  0  0
  1  5  2  0  0  0  0
  2  6  2  0  0  0  0
  3  8  2  0  0  0  0
  3 17  1  0  0  0  0
  4  9  1  0  0  0  0
  4 17  2  0  0  0  0
  5 19  1  0  0  0  0
  6 21  1  0  0  0  0
  7 10  2  0  0  0  0
  7 20  1  0  0  0  0
  8 24  1  0  0  0  0
  9 24  2  0  0  0  0
 10 25  1  0  0  0  0
 11 12  2  0  0  0  0
 11 26  1  0  0  0  0
 12 27  1  0  0  0  0
 13 22  1  0  0  0  0
 13 25  2  0  0  0  0
 14 23  1  0  0  0  0
 14 30  2  0  0  0  0
 15 23  2  0  0  0  0
 15 31  1  0  0  0  0
 16 27  2  0  0  0  0
 16 28  1  0  0  0  0
 17 29  1  0  0  0  0
 18 29  1  0  0  0  0
 18 32  2  0  0  0  0
 18 33  1  0  0  0  0
 19 21  2  0  0  0  0
 19 38  1  0  0  0  0
 20 22  2  0  0  0  0
 20 39  1  0  0  0  0
 21 48  1  0  0  0  0
 22 40  1  0  0  0  0
 23 52  1  0  0  0  0
 24 81  1  0  0  0  0
 25 82  1  0  0  0  0
 26 28  2  0  0  0  0
 26 81  1  0  0  0  0
 27 83  1  0  0  0  0
 28 84  1  0  0  0  0
 29 65  2  0  0  0  0
 30 53  1  0  0  0  0
 30 66  1  0  0  0  0
 31 66  2  0  0  0  0
 31 72  1  0  0  0  0
 32 67  1  0  0  0  0
 32 70  1  0  0  0  0
 33 71  1  0  0  0  0
 33 76  2  0  0  0  0
 34 49  1  0  0  0  0
 34 73  1  0  0  0  0
 34 77  2  0  0  0  0
 35 62  1  0  0  0  0
 35 68  1  0  0  0  0
 35 78  2  0  0  0  0
 36 63  1  0  0  0  0
 36 74  1  0  0  0  0
 36 79  2  0  0  0  0
 37 69  1  0  0  0  0
 37 72  1  0  0  0  0
 37 80  2  0  0  0  0
 38 41  1  0  0  0  0
 39 49  1  0  0  0  0
 40 68  1  0  0  0  0
 41 43  1  0  0  0  0
 42 44  1  0  0  0  0
 42 46  1  0  0  0  0
 43 48  1  0  0  0  0
 44 51  1  0  0  0  0
 45 50  1  0  0  0  0
 45 52  1  0  0  0  0
 46 69  1  0  0  0  0
 47 51  1  0  0  0  0
 47 69  1  0  0  0  0
 48 73  1  0  0  0  0
 49 68  1  0  0  0  0
 50 52  1  0  0  0  0
 50 60  1  0  0  0  0
 51 67  1  0  0  0  0
 52 54  1  0  0  0  0
 55 63  1  0  0  0  0
 56 64  1  0  0  0  0
 57 64  1  0  0  0  0
 58 64  1  0  0  0  0
 59 75  1  0  0  0  0
 60 61  1  0  0  0  0
 61 82  1  0  0  0  0
 62 64  1  0  0  0  0
 62 74  1  0  0  0  0
 63 75  1  0  0  0  0
 65 67  1  0  0  0  0
M  CHG  1  75   1
M  ISO  4  37 100  61 101  72 100  82 101
M  END
> <Batch ID>
0157

> <Smiles>
CNC(C)C(=O)NC(C(=O)N1Cc2cc([101O:1][101CH2:1]CC3CC3(C)c3cc(C)nc([100NH:0][100C:0](=O)N4CCCC(n5nc(-c6ccc(Oc7ccc(F)cc7F)cc6)c(C(N)=O)c5N)C4)c3)ccc2CC1C(=O)NC1CCCc2ccccc21)C(C)(C)C

> <Shape>
0.214

> <Color>
0.057

> <Negative vol penalty>
0.000

$$$$

  -OEChem-04052321593D

 86 95  0     1  0  0  0  0  0999 V2000
  -27.3187  -16.8356   18.1070 C   0  0  0  0  0  0  0  0  0  0  0  0
  -26.3115  -17.7744   18.3059 C   0  0  0  0  0  0  0  0  0  0  0  0
  -24.0954  -13.8647   22.7820 C   0  0  0  0  0  0  0  0  0  0  0  0
  -25.0122  -15.5655   21.3316 C   0  0  0  0  0  0  0  0  0  0  0  0
  -28.5636  -17.0122   18.7093 C   0  0  0  0  0  0  0  0  0  0  0  0
  -26.5483  -18.8899   19.1083 C   0  0  0  0  0  0  0  0  0  0  0  0
  -24.2854  -24.5280   18.3353 C   0  0  0  0  0  0  0  0  0  0  0  0
  -24.7974  -12.8862   22.0784 C   0  0  0  0  0  0  0  0  0  0  0  0
  -25.7143  -14.5870   20.6279 C   0  0  0  0  0  0  0  0  0  0  0  0
  -23.2094  -25.1950   18.9193 C   0  0  0  0  0  0  0  0  0  0  0  0
  -28.5384  -12.7752   21.0309 C   0  0  0  0  0  0  0  0  0  0  0  0
  -29.8742  -13.0332   20.7232 C   0  0  0  0  0  0  0  0  0  0  0  0
  -24.7111  -26.2125   20.5095 C   0  0  0  0  0  0  0  0  0  0  0  0
  -20.2591  -24.6250   21.8391 C   0  0  0  0  0  0  0  0  0  0  0  0
  -18.0326  -25.3541   22.4843 C   0  0  0  0  0  0  0  0  0  0  0  0
  -29.3696  -12.8369   18.3686 C   0  0  0  0  0  0  0  0  0  0  0  0
  -24.2028  -15.2044   22.4086 C   0  0  0  0  0  0  0  0  0  0  0  0
  -23.9202  -16.9367   24.2599 C   0  0  0  0  0  0  0  0  0  0  0  0
  -28.8189  -18.1355   19.5117 C   0  0  0  0  0  0  0  0  0  0  0  0
  -25.5830  -24.6900   18.8417 C   0  0  0  0  0  0  0  0  0  0  0  0
  -27.7974  -19.0811   19.7230 C   0  0  0  0  0  0  0  0  0  0  0  0
  -25.8022  -25.5484   19.9285 C   0  0  0  0  0  0  0  0  0  0  0  0
  -20.7204  -25.9045   22.1076 C   0  0  0  0  0  0  0  0  0  0  0  0
  -19.8522  -26.9098   22.5573 C   0  0  0  0  0  0  0  0  0  0  0  0
  -18.5031  -26.6431   22.7450 C   0  0  0  0  0  0  0  0  0  0  0  0
  -25.6069  -13.2473   21.0013 C   0  0  0  0  0  0  0  0  0  0  0  0
  -23.4218  -26.0352   20.0084 C   0  0  0  0  0  0  0  0  0  0  0  0
  -27.6182  -12.5479   20.0075 C   0  0  0  0  0  0  0  0  0  0  0  0
  -18.9045  -24.3520   22.0345 C   0  0  0  0  0  0  0  0  0  0  0  0
  -30.2898  -13.0640   19.3921 C   0  0  0  0  0  0  0  0  0  0  0  0
  -28.0338  -12.5788   18.6764 C   0  0  0  0  0  0  0  0  0  0  0  0
  -23.4774  -16.2157   23.1348 C   0  0  0  0  0  0  0  0  0  0  0  0
  -22.8714  -17.7676   24.5698 C   0  0  0  0  0  0  0  0  0  0  0  0
  -25.1681  -16.8621   24.9619 C   0  0  0  0  0  0  0  0  0  0  0  0
  -27.7424  -22.7521   20.1399 C   0  0  0  0  0  0  0  0  0  0  0  0
  -29.6230  -25.3915   20.0008 C   0  0  0  0  0  0  0  0  0  0  0  0
  -29.8337  -28.7952   19.8706 C   0  0  0  0  0  0  0  0  0  0  0  0
  -18.5401  -20.0365   21.2612 C   0  0  0  0  0  0  0  0  0  0  0  0
  -30.1652  -18.2592   20.1803 C   0  0  0  0  0  0  0  0  0  0  0  0
  -26.7367  -23.9841   18.1837 C   0  0  0  0  0  0  0  0  0  0  0  0
  -27.1788  -25.7722   20.4971 C   0  0  0  0  0  0  0  0  0  0  0  0
  -30.4546  -19.6605   20.7122 C   0  0  0  0  0  0  0  0  0  0  0  0
  -18.1041  -18.0562   24.2588 C   0  0  0  0  0  0  0  0  0  0  0  0
  -29.2510  -20.1998   21.4785 C   0  0  0  0  0  0  0  0  0  0  0  0
  -19.4899  -17.4268   24.4118 C   0  0  0  0  0  0  0  0  0  0  0  0
  -22.0614  -27.7168   22.7729 C   0  0  0  0  0  0  0  0  0  0  0  0
  -17.6999  -18.1530   22.7907 C   0  0  0  0  0  0  0  0  0  0  0  0
  -20.0581  -18.2577   22.0823 C   0  0  0  0  0  0  0  0  0  0  0  0
  -28.0237  -20.3170   20.5665 C   0  0  1  0  0  0  0  0  0  0  0  0
  -22.1161  -26.4191   21.9479 C   0  0  2  0  0  0  0  0  0  1  0  0
  -27.9422  -23.8227   19.1047 C   0  0  1  0  0  0  0  0  0  0  0  0
  -20.5340  -18.1525   23.5426 C   0  0  2  0  0  0  0  0  0  0  0  0
  -20.5875  -28.2164   22.7458 C   0  0  0  0  0  0  0  0  0  0  0  0
  -17.5391  -27.6639   23.2428 C   0  0  0  0  0  0  0  0  0  0  0  0
  -20.2336  -28.9236   24.0579 C   0  0  0  0  0  0  0  0  0  0  0  0
  -20.3311  -29.1552   21.5594 C   0  0  0  0  0  0  0  0  0  0  0  0
  -31.5070  -30.6642   19.8039 C   0  0  0  0  0  0  0  0  0  0  0  0
  -30.1669  -25.0077   22.9785 C   0  0  0  0  0  0  0  0  0  0  0  0
  -31.0241  -27.3588   23.0539 C   0  0  0  0  0  0  0  0  0  0  0  0
  -32.1680  -25.6612   21.6283 C   0  0  0  0  0  0  0  0  0  0  0  0
  -28.8478  -29.7393   17.2447 C   0  0  0  0  0  0  0  0  0  0  0  0
  -16.9031  -21.7467   20.5179 C   0  0  0  0  0  0  0  0  0  0  0  0
  -17.0696  -22.9953   21.3655 C   0  0  0  0  0  0  0  0  0  0  0  0
  -29.9084  -26.5508   20.9247 C   0  0  1  0  0  0  0  0  0  0  0  0
  -30.6434  -29.7210   18.9808 C   0  0  2  0  0  0  0  0  0  0  0  0
  -30.7905  -26.1391   22.1371 C   0  0  0  0  0  0  0  0  0  0  0  0
  -22.2433  -16.5584   22.7557 N   0  0  0  0  0  0  0  0  0  0  0  0
  -21.9017  -17.5038   23.6477 N   0  0  0  0  0  0  0  0  0  0  0  0
  -28.2736  -25.0548   19.8231 N   0  0  0  0  0  0  0  0  0  0  0  0
  -18.7269  -18.8707   22.0224 N   0  0  0  0  0  0  0  0  0  0  0  0
  -22.6932  -18.6908   25.5385 N   0  0  0  0  0  0  0  0  0  0  0  0
  -26.1356  -15.9543   24.5102 N   0  0  0  0  0  0  0  0  0  0  0  0
  -28.1283  -21.4912   19.7269 N   0  0  0  0  0  0  0  0  0  0  0  0
  -30.4868  -27.6017   20.0944 N   0  0  0  0  0  0  0  0  0  0  0  0
  -17.2487  -20.5493   21.2512 N   0  0  0  0  0  0  0  0  0  0  0  0
  -29.7384  -30.5389   18.1247 N   0  3  0  0  0  0  0  0  0  0  0  0
  -25.4115  -17.5676   25.9702 O   0  0  0  0  0  0  0  0  0  0  0  0
  -27.2743  -23.0484   21.2329 O   0  0  0  0  0  0  0  0  0  0  0  0
  -30.5624  -24.8107   19.4512 O   0  0  0  0  0  0  0  0  0  0  0  0
  -28.7336  -29.1018   20.3250 O   0  0  0  0  0  0  0  0  0  0  0  0
  -19.4579  -20.5835   20.6402 O   0  0  0  0  0  0  0  0  0  0  0  0
  -26.2922  -12.2927   20.3146 O   0  0  0  0  0  0  0  0  0  0  0  0
  -22.3732  -26.6870   20.5807 O   0  0  0  0  0  0  0  0  0  1  0  0
  -18.4258  -23.0994   21.7941 O   0  0  0  0  0  0  0  0  0  0  0  0
  -31.5723  -13.3133   19.0966 F   0  0  0  0  0  0  0  0  0  0  0  0
  -27.1542  -12.3624   17.6888 F   0  0  0  0  0  0  0  0  0  0  0  0
  1  2  1  0  0  0  0
  1  5  2  0  0  0  0
  2  6  2  0  0  0  0
  3  8  2  0  0  0  0
  3 17  1  0  0  0  0
  4  9  1  0  0  0  0
  4 17  2  0  0  0  0
  5 19  1  0  0  0  0
  6 21  1  0  0  0  0
  7 10  2  0  0  0  0
  7 20  1  0  0  0  0
  8 26  1  0  0  0  0
  9 26  2  0  0  0  0
 10 27  1  0  0  0  0
 11 12  2  0  0  0  0
 11 28  1  0  0  0  0
 12 30  1  0  0  0  0
 13 22  1  0  0  0  0
 13 27  2  0  0  0  0
 14 23  1  0  0  0  0
 14 29  2  0  0  0  0
 15 25  2  0  0  0  0
 15 29  1  0  0  0  0
 16 30  2  0  0  0  0
 16 31  1  0  0  0  0
 17 32  1  0  0  0  0
 18 32  1  0  0  0  0
 18 33  2  0  0  0  0
 18 34  1  0  0  0  0
 19 21  2  0  0  0  0
 19 39  1  0  0  0  0
 20 22  2  0  0  0  0
 20 40  1  0  0  0  0
 21 49  1  0  0  0  0
 22 41  1  0  0  0  0
 23 24  2  0  0  0  0
 23 50  1  0  0  0  0
 24 25  1  0  0  0  0
 24 53  1  0  0  0  0
 25 54  1  0  0  0  0
 26 82  1  0  0  0  0
 27 83  1  0  0  0  0
 28 31  2  0  0  0  0
 28 82  1  0  0  0  0
 29 84  1  0  0  0  0
 30 85  1  0  0  0  0
 31 86  1  0  0  0  0
 32 67  2  0  0  0  0
 33 68  1  0  0  0  0
 33 71  1  0  0  0  0
 34 72  1  0  0  0  0
 34 77  2  0  0  0  0
 35 51  1  0  0  0  0
 35 73  1  0  0  0  0
 35 78  2  0  0  0  0
 36 64  1  0  0  0  0
 36 69  1  0  0  0  0
 36 79  2  0  0  0  0
 37 65  1  0  0  0  0
 37 74  1  0  0  0  0
 37 80  2  0  0  0  0
 38 70  1  0  0  0  0
 38 75  1  0  0  0  0
 38 81  2  0  0  0  0
 39 42  1  0  0  0  0
 40 51  1  0  0  0  0
 41 69  1  0  0  0  0
 42 44  1  0  0  0  0
 43 45  1  0  0  0  0
 43 47  1  0  0  0  0
 44 49  1  0  0  0  0
 45 52  1  0  0  0  0
 46 50  1  0  0  0  0
 46 53  1  0  0  0  0
 47 70  1  0  0  0  0
 48 52  1  0  0  0  0
 48 70  1  0  0  0  0
 49 73  1  0  0  0  0
 50 83  1  0  0  0  0
 51 69  1  0  0  0  0
 52 68  1  0  0  0  0
 53 55  1  0  0  0  0
 53 56  1  0  0  0  0
 57 65  1  0  0  0  0
 58 66  1  0  0  0  0
 59 66  1  0  0  0  0
 60 66  1  0  0  0  0
 61 76  1  0  0  0  0
 62 63  1  0  0  0  0
 62 75  1  0  0  0  0
 63 84  1  0  0  0  0
 64 66  1  0  0  0  0
 64 74  1  0  0  0  0
 65 76  1  0  0  0  0
 67 68  1  0  0  0  0
M  CHG  1  76   1
M  ISO  4  38 100  50 101  75 100  83 101
M  END
> <Batch ID>
0157

> <Smiles>
CNC(C)C(=O)NC(C(=O)N1Cc2cc([101O:1][101CH:1]3CC(C)(C)c4c(C)cc(OCC[100NH:0][100C:0](=O)N5CCCC(n6nc(-c7ccc(Oc8ccc(F)cc8F)cc7)c(C(N)=O)c6N)C5)cc43)ccc2CC1C(=O)NC1CCCc2ccccc21)C(C)(C)C

> <Shape>
0.223

> <Color>
0.043

> <Negative vol penalty>
0.000

$$$$

  -OEChem-04052321593D

 86 95  0     1  0  0  0  0  0999 V2000
  -27.4619  -37.3761   27.0611 C   0  0  0  0  0  0  0  0  0  0  0  0
  -28.2776  -36.3544   26.5855 C   0  0  0  0  0  0  0  0  0  0  0  0
  -24.6423   -8.8798   21.9421 C   0  0  0  0  0  0  0  0  0  0  0  0
  -23.6220   -9.4697   19.8330 C   0  0  0  0  0  0  0  0  0  0  0  0
  -26.0755  -37.2572   26.9745 C   0  0  0  0  0  0  0  0  0  0  0  0
  -27.7073  -35.2126   26.0240 C   0  0  0  0  0  0  0  0  0  0  0  0
  -28.9038  -30.2859   20.9631 C   0  0  0  0  0  0  0  0  0  0  0  0
  -23.5581   -8.0527   22.2352 C   0  0  0  0  0  0  0  0  0  0  0  0
  -22.5378   -8.6425   20.1261 C   0  0  0  0  0  0  0  0  0  0  0  0
  -28.9541  -28.9025   20.7971 C   0  0  0  0  0  0  0  0  0  0  0  0
  -22.4782   -4.9646   21.3807 C   0  0  0  0  0  0  0  0  0  0  0  0
  -22.7505   -3.6961   21.8929 C   0  0  0  0  0  0  0  0  0  0  0  0
  -26.5485  -28.8414   20.6279 C   0  0  0  0  0  0  0  0  0  0  0  0
  -21.5020   -4.2345   23.8900 C   0  0  0  0  0  0  0  0  0  0  0  0
  -24.6743   -9.5884   20.7409 C   0  0  0  0  0  0  0  0  0  0  0  0
  -26.9779  -10.0870   19.7650 C   0  0  0  0  0  0  0  0  0  0  0  0
  -25.4880  -36.1176   26.4028 C   0  0  0  0  0  0  0  0  0  0  0  0
  -27.6727  -30.9572   20.9737 C   0  0  0  0  0  0  0  0  0  0  0  0
  -26.3116  -35.0777   25.9309 C   0  0  0  0  0  0  0  0  0  0  0  0
  -26.4855  -30.2337   20.7917 C   0  0  0  0  0  0  0  0  0  0  0  0
  -28.3992  -22.5625   21.0024 C   0  0  0  0  0  0  0  0  0  0  0  0
  -28.5094  -23.9229   21.2681 C   0  0  0  0  0  0  0  0  0  0  0  0
  -28.7460  -22.0747   19.7474 C   0  0  0  0  0  0  0  0  0  0  0  0
  -22.5059   -7.9340   21.3273 C   0  0  0  0  0  0  0  0  0  0  0  0
  -27.7762  -28.1797   20.6324 C   0  0  0  0  0  0  0  0  0  0  0  0
  -21.7179   -5.8681   22.1232 C   0  0  0  0  0  0  0  0  0  0  0  0
  -22.2624   -3.3310   23.1475 C   0  0  0  0  0  0  0  0  0  0  0  0
  -21.2298   -5.5031   23.3778 C   0  0  0  0  0  0  0  0  0  0  0  0
  -25.7937  -10.4434   20.4377 C   0  0  0  0  0  0  0  0  0  0  0  0
  -28.9682  -24.7469   20.2531 C   0  0  0  0  0  0  0  0  0  0  0  0
  -29.1940  -22.9815   18.8003 C   0  0  0  0  0  0  0  0  0  0  0  0
  -27.7154  -11.2452   19.7312 C   0  0  0  0  0  0  0  0  0  0  0  0
  -27.3756   -8.8222   19.2194 C   0  0  0  0  0  0  0  0  0  0  0  0
  -26.0919  -32.7104   23.1024 C   0  0  0  0  0  0  0  0  0  0  0  0
  -24.0559  -33.1827   20.6217 C   0  0  0  0  0  0  0  0  0  0  0  0
  -22.8083  -32.0719   17.6457 C   0  0  0  0  0  0  0  0  0  0  0  0
  -28.2879  -16.5267   18.9427 C   0  0  0  0  0  0  0  0  0  0  0  0
  -23.9837  -36.0133   26.3741 C   0  0  0  0  0  0  0  0  0  0  0  0
  -27.6372  -32.4531   21.1271 C   0  0  0  0  0  0  0  0  0  0  0  0
  -25.1395  -30.9095   20.7751 C   0  0  0  0  0  0  0  0  0  0  0  0
  -23.4659  -34.9361   25.4244 C   0  0  0  0  0  0  0  0  0  0  0  0
  -27.0588  -15.6500   22.1145 C   0  0  0  0  0  0  0  0  0  0  0  0
  -24.2445  -33.6381   25.6140 C   0  0  0  0  0  0  0  0  0  0  0  0
  -26.7102  -14.1763   21.9085 C   0  0  0  0  0  0  0  0  0  0  0  0
  -26.6816  -16.5030   20.9023 C   0  0  0  0  0  0  0  0  0  0  0  0
  -29.7914  -19.8313   19.6986 C   0  0  0  0  0  0  0  0  0  0  0  0
  -27.3118  -20.0929   19.5275 C   0  0  0  0  0  0  0  0  0  0  0  0
  -29.6950  -18.5513   18.8727 C   0  0  0  0  0  0  0  0  0  0  0  0
  -27.2609  -18.8167   18.6948 C   0  0  0  0  0  0  0  0  0  0  0  0
  -26.8920  -14.5359   19.4175 C   0  0  0  0  0  0  0  0  0  0  0  0
  -25.7309  -33.8345   25.2925 C   0  0  1  0  0  0  0  0  0  0  0  0
  -26.2952  -32.9698   21.6364 C   0  0  1  0  0  0  0  0  0  0  0  0
  -27.3130  -13.6443   20.5961 C   0  0  2  0  0  0  0  0  0  0  0  0
  -27.9093  -21.6296   22.0648 C   0  0  0  0  0  0  0  0  0  0  0  0
  -28.1464  -24.4772   22.6050 C   0  0  0  0  0  0  0  0  0  0  0  0
  -29.5815  -22.5199   17.4328 C   0  0  0  0  0  0  0  0  0  0  0  0
  -21.1271  -32.6516   15.8751 C   0  0  0  0  0  0  0  0  0  0  0  0
  -21.8059  -32.2324   22.4504 C   0  0  0  0  0  0  0  0  0  0  0  0
  -20.3772  -31.9256   20.4174 C   0  0  0  0  0  0  0  0  0  0  0  0
  -21.2239  -34.1950   21.0136 C   0  0  0  0  0  0  0  0  0  0  0  0
  -24.9013  -32.2842   15.5641 C   0  0  0  0  0  0  0  0  0  0  0  0
  -29.1099  -26.2166   20.4800 C   0  0  0  0  0  0  0  0  0  1  0  0
  -22.8318  -32.4744   20.0935 C   0  0  1  0  0  0  0  0  0  0  0  0
  -22.5743  -32.7809   16.3240 C   0  0  2  0  0  0  0  0  0  0  0  0
  -21.5848  -32.6936   20.9960 C   0  0  0  0  0  0  0  0  0  0  0  0
  -25.7757  -11.7274   20.8050 N   0  0  0  0  0  0  0  0  0  0  0  0
  -29.3145  -24.3097   19.0216 N   0  0  0  0  0  0  0  0  0  0  0  0
  -26.9578  -12.1881   20.3615 N   0  0  0  0  0  0  0  0  0  0  0  0
  -28.6432  -20.7097   19.4501 N   0  0  0  0  0  0  0  0  0  0  0  0
  -25.1567  -32.3729   20.9352 N   0  0  0  0  0  0  0  0  0  0  0  0
  -27.2447  -15.9346   19.6702 N   0  0  0  0  0  0  0  0  0  0  0  0
  -28.3837  -17.9262   18.9960 N   0  0  0  0  0  0  0  0  0  0  0  0
  -28.9316  -11.5389   19.2242 N   0  0  0  0  0  0  0  0  0  0  0  0
  -26.4979   -7.7363   19.3411 N   0  0  0  0  0  0  0  0  0  0  0  0
  -25.9399  -33.8555   23.8606 N   0  0  0  0  0  0  0  0  0  0  0  0
  -22.6603  -32.9270   18.7172 N   0  0  0  0  0  0  0  0  0  0  0  0
  -23.4485  -32.2030   15.2643 N   0  3  0  0  0  0  0  0  0  0  0  0
  -28.4836   -8.6557   18.6555 O   0  0  0  0  0  0  0  0  0  0  0  0
  -26.0728  -31.5566   23.5148 O   0  0  0  0  0  0  0  0  0  0  0  0
  -24.0386  -34.4100   20.7445 O   0  0  0  0  0  0  0  0  0  0  0  0
  -23.0901  -30.8779   17.7204 O   0  0  0  0  0  0  0  0  0  0  0  0
  -29.0883  -15.8481   18.2873 O   0  0  0  0  0  0  0  0  0  0  0  0
  -21.4478   -7.1269   21.6130 O   0  0  0  0  0  0  0  0  0  0  0  0
  -27.8227  -26.8196   20.4697 O   0  0  0  0  0  0  0  0  0  1  0  0
  -22.5226   -2.1123   23.6386 F   0  0  0  0  0  0  0  0  0  0  0  0
  -20.4978   -6.3664   24.0952 F   0  0  0  0  0  0  0  0  0  0  0  0
  1  2  1  0  0  0  0
  1  5  2  0  0  0  0
  2  6  2  0  0  0  0
  3  8  2  0  0  0  0
  3 15  1  0  0  0  0
  4  9  1  0  0  0  0
  4 15  2  0  0  0  0
  5 17  1  0  0  0  0
  6 19  1  0  0  0  0
  7 10  2  0  0  0  0
  7 18  1  0  0  0  0
  8 24  1  0  0  0  0
  9 24  2  0  0  0  0
 10 25  1  0  0  0  0
 11 12  2  0  0  0  0
 11 26  1  0  0  0  0
 12 27  1  0  0  0  0
 13 20  1  0  0  0  0
 13 25  2  0  0  0  0
 14 27  2  0  0  0  0
 14 28  1  0  0  0  0
 15 29  1  0  0  0  0
 16 29  1  0  0  0  0
 16 32  2  0  0  0  0
 16 33  1  0  0  0  0
 17 19  2  0  0  0  0
 17 38  1  0  0  0  0
 18 20  2  0  0  0  0
 18 39  1  0  0  0  0
 19 51  1  0  0  0  0
 20 40  1  0  0  0  0
 21 22  1  0  0  0  0
 21 23  2  0  0  0  0
 21 54  1  0  0  0  0
 22 30  2  0  0  0  0
 22 55  1  0  0  0  0
 23 31  1  0  0  0  0
 23 69  1  0  0  0  0
 24 83  1  0  0  0  0
 25 84  1  0  0  0  0
 26 28  2  0  0  0  0
 26 83  1  0  0  0  0
 27 85  1  0  0  0  0
 28 86  1  0  0  0  0
 29 66  2  0  0  0  0
 30 62  1  0  0  0  0
 30 67  1  0  0  0  0
 31 56  1  0  0  0  0
 31 67  2  0  0  0  0
 32 68  1  0  0  0  0
 32 73  1  0  0  0  0
 33 74  1  0  0  0  0
 33 78  2  0  0  0  0
 34 52  1  0  0  0  0
 34 75  1  0  0  0  0
 34 79  2  0  0  0  0
 35 63  1  0  0  0  0
 35 70  1  0  0  0  0
 35 80  2  0  0  0  0
 36 64  1  0  0  0  0
 36 76  1  0  0  0  0
 36 81  2  0  0  0  0
 37 71  1  0  0  0  0
 37 72  1  0  0  0  0
 37 82  2  0  0  0  0
 38 41  1  0  0  0  0
 39 52  1  0  0  0  0
 40 70  1  0  0  0  0
 41 43  1  0  0  0  0
 42 44  1  0  0  0  0
 42 45  1  0  0  0  0
 43 51  1  0  0  0  0
 44 53  1  0  0  0  0
 45 71  1  0  0  0  0
 46 48  1  0  0  0  0
 46 69  1  0  0  0  0
 47 49  1  0  0  0  0
 47 69  1  0  0  0  0
 48 72  1  0  0  0  0
 49 72  1  0  0  0  0
 50 53  1  0  0  0  0
 50 71  1  0  0  0  0
 51 75  1  0  0  0  0
 52 70  1  0  0  0  0
 53 68  1  0  0  0  0
 57 64  1  0  0  0  0
 58 65  1  0  0  0  0
 59 65  1  0  0  0  0
 60 65  1  0  0  0  0
 61 77  1  0  0  0  0
 62 84  1  0  0  0  0
 63 65  1  0  0  0  0
 63 76  1  0  0  0  0
 64 77  1  0  0  0  0
 66 68  1  0  0  0  0
M  CHG  1  77   1
M  ISO  4  37 100  62 101  72 100  84 101
M  END
> <Batch ID>
0157

> <Smiles>
CNC(C)C(=O)NC(C(=O)N1Cc2cc([101O:1][101CH2:1]c3nc(C)c(N4CC[100N:0]([100C:0](=O)N5CCCC(n6nc(-c7ccc(Oc8ccc(F)cc8F)cc7)c(C(N)=O)c6N)C5)CC4)c(C)c3C)ccc2CC1C(=O)NC1CCCc2ccccc21)C(C)(C)C

> <Shape>
0.282

> <Color>
0.084

> <Negative vol penalty>
0.000

$$$$

  -OEChem-04052321593D

 88 97  0     1  0  0  0  0  0999 V2000
  -28.4382  -37.1159   24.1224 C   0  0  0  0  0  0  0  0  0  0  0  0
  -28.8750  -35.9577   23.4874 C   0  0  0  0  0  0  0  0  0  0  0  0
  -21.6797  -12.4258   21.7764 C   0  0  0  0  0  0  0  0  0  0  0  0
  -22.1132  -14.7381   21.2264 C   0  0  0  0  0  0  0  0  0  0  0  0
  -27.3508  -37.0641   24.9935 C   0  0  0  0  0  0  0  0  0  0  0  0
  -28.2253  -34.7468   23.7241 C   0  0  0  0  0  0  0  0  0  0  0  0
  -27.3340  -30.2024   19.7166 C   0  0  0  0  0  0  0  0  0  0  0  0
  -20.3356  -12.7292   21.9929 C   0  0  0  0  0  0  0  0  0  0  0  0
  -20.7691  -15.0415   21.4428 C   0  0  0  0  0  0  0  0  0  0  0  0
  -28.0105  -29.0044   19.4913 C   0  0  0  0  0  0  0  0  0  0  0  0
  -17.3797  -16.3557   21.5001 C   0  0  0  0  0  0  0  0  0  0  0  0
  -16.7381  -17.1661   20.5635 C   0  0  0  0  0  0  0  0  0  0  0  0
  -26.4132  -27.8481   20.8808 C   0  0  0  0  0  0  0  0  0  0  0  0
  -29.7309  -24.6296   17.6862 C   0  0  0  0  0  0  0  0  0  0  0  0
  -31.1577  -23.4438   19.7696 C   0  0  0  0  0  0  0  0  0  0  0  0
  -17.2025  -15.5399   18.8382 C   0  0  0  0  0  0  0  0  0  0  0  0
  -22.5686  -13.4302   21.3932 C   0  0  0  0  0  0  0  0  0  0  0  0
  -24.4841  -12.2096   20.2320 C   0  0  0  0  0  0  0  0  0  0  0  0
  -26.6814  -35.8538   25.2335 C   0  0  0  0  0  0  0  0  0  0  0  0
  -26.1964  -30.2343   20.5359 C   0  0  0  0  0  0  0  0  0  0  0  0
  -27.1288  -34.6785   24.6003 C   0  0  0  0  0  0  0  0  0  0  0  0
  -25.7226  -29.0474   21.1129 C   0  0  0  0  0  0  0  0  0  0  0  0
  -30.2469  -23.3426   17.5341 C   0  0  0  0  0  0  0  0  0  0  0  0
  -30.6417  -24.7307   19.9216 C   0  0  0  0  0  0  0  0  0  0  0  0
  -29.9283  -25.3236   18.8799 C   0  0  0  0  0  0  0  0  0  0  0  0
  -30.9603  -22.7497   18.5758 C   0  0  0  0  0  0  0  0  0  0  0  0
  -19.8803  -14.0371   21.8260 C   0  0  0  0  0  0  0  0  0  0  0  0
  -27.5518  -27.8275   20.0757 C   0  0  0  0  0  0  0  0  0  0  0  0
  -17.9327  -15.1374   21.1057 C   0  0  0  0  0  0  0  0  0  0  0  0
  -16.6495  -16.7583   19.2326 C   0  0  0  0  0  0  0  0  0  0  0  0
  -17.8441  -14.7295   19.7747 C   0  0  0  0  0  0  0  0  0  0  0  0
  -23.9573  -13.1175   21.1701 C   0  0  0  0  0  0  0  0  0  0  0  0
  -25.8436  -12.2759   20.4161 C   0  0  0  0  0  0  0  0  0  0  0  0
  -23.8053  -11.3805   19.2794 C   0  0  0  0  0  0  0  0  0  0  0  0
  -25.4367  -31.6779   23.2640 C   0  0  0  0  0  0  0  0  0  0  0  0
  -22.5067  -30.4244   22.6589 C   0  0  0  0  0  0  0  0  0  0  0  0
  -20.6477  -28.0259   21.0974 C   0  0  0  0  0  0  0  0  0  0  0  0
  -29.4622  -16.5252   22.5841 C   0  0  0  0  0  0  0  0  0  0  0  0
  -25.5405  -35.8384   26.2198 C   0  0  0  0  0  0  0  0  0  0  0  0
  -25.4625  -31.5301   20.7474 C   0  0  0  0  0  0  0  0  0  0  0  0
  -24.4942  -29.0245   21.9841 C   0  0  0  0  0  0  0  0  0  0  0  0
  -24.6725  -34.5861   26.1276 C   0  0  0  0  0  0  0  0  0  0  0  0
  -29.1275  -13.1864   23.7743 C   0  0  0  0  0  0  0  0  0  0  0  0
  -25.5442  -33.3361   26.0606 C   0  0  0  0  0  0  0  0  0  0  0  0
  -31.5657  -19.0047   19.3056 C   0  0  0  0  0  0  0  0  0  0  0  0
  -29.4013  -20.3082   19.2965 C   0  0  0  0  0  0  0  0  0  0  0  0
  -27.8120  -12.7082   23.1572 C   0  0  0  0  0  0  0  0  0  0  0  0
  -30.6956  -17.8645   19.8467 C   0  0  0  0  0  0  0  0  0  0  0  0
  -28.7672  -19.4122   20.3665 C   0  0  0  0  0  0  0  0  0  0  0  0
  -29.0640  -14.6610   24.1660 C   0  0  0  0  0  0  0  0  0  0  0  0
  -27.3329  -15.0939   22.4661 C   0  0  0  0  0  0  0  0  0  0  0  0
  -26.4346  -33.3507   24.8122 C   0  0  1  0  0  0  0  0  0  0  0  0
  -24.6136  -31.5360   22.0150 C   0  0  1  0  0  0  0  0  0  0  0  0
  -30.9217  -20.3947   19.4441 C   0  0  0  0  0  0  0  0  0  0  0  0
  -27.3671  -13.6271   22.0036 C   0  0  2  0  0  0  0  0  0  0  0  0
  -29.7246  -18.3485   20.9210 C   0  0  0  0  0  0  0  0  0  0  0  0
  -30.0223  -22.6187   16.2473 C   0  0  0  0  0  0  0  0  0  0  0  0
  -30.8663  -25.4547   21.2084 C   0  0  0  0  0  0  0  0  0  0  0  0
  -33.0578  -21.3523   18.5364 C   0  0  0  0  0  0  0  0  0  0  0  0
  -18.2817  -27.2366   20.8214 C   0  0  0  0  0  0  0  0  0  0  0  0
  -22.5925  -29.1983   25.4516 C   0  0  0  0  0  0  0  0  0  0  0  0
  -20.7139  -27.6896   24.7711 C   0  0  0  0  0  0  0  0  0  0  0  0
  -20.3775  -30.1611   24.8026 C   0  0  0  0  0  0  0  0  0  0  0  0
  -20.7140  -28.4821   18.1740 C   0  0  0  0  0  0  0  0  0  0  0  0
  -29.3646  -26.7071   19.0201 C   0  0  0  0  0  0  0  0  0  1  0  0
  -31.5216  -21.3728   18.4361 C   0  0  2  0  0  0  0  0  0  0  0  0
  -21.8088  -29.1281   22.9926 C   0  0  1  0  0  0  0  0  0  0  0  0
  -19.3862  -28.1170   20.2579 C   0  0  2  0  0  0  0  0  0  0  0  0
  -21.3975  -29.0447   24.4897 C   0  0  0  0  0  0  0  0  0  0  0  0
  -24.9048  -13.7165   21.8963 N   0  0  0  0  0  0  0  0  0  0  0  0
  -26.0407  -13.1839   21.4146 N   0  0  0  0  0  0  0  0  0  0  0  0
  -23.8149  -30.3180   22.1660 N   0  0  0  0  0  0  0  0  0  0  0  0
  -28.6375  -15.4782   23.0275 N   0  0  0  0  0  0  0  0  0  0  0  0
  -26.8777  -11.6455   19.8197 N   0  0  0  0  0  0  0  0  0  0  0  0
  -23.5581  -11.8972   18.0003 N   0  0  0  0  0  0  0  0  0  0  0  0
  -25.6674  -32.9874   23.6400 N   0  0  0  0  0  0  0  0  0  0  0  0
  -20.6934  -29.0129   22.0592 N   0  0  0  0  0  0  0  0  0  0  0  0
  -28.9864  -17.2460   21.4956 N   0  0  0  0  0  0  0  0  0  0  0  0
  -19.6632  -27.6857   18.8585 N   0  3  0  0  0  0  0  0  0  0  0  0
  -23.4145  -10.2219   19.5596 O   0  0  0  0  0  0  0  0  0  0  0  0
  -25.8319  -30.6736   23.8445 O   0  0  0  0  0  0  0  0  0  0  0  0
  -21.9104  -31.4918   22.8227 O   0  0  0  0  0  0  0  0  0  0  0  0
  -21.5049  -27.1631   20.9204 O   0  0  0  0  0  0  0  0  0  0  0  0
  -30.5450  -16.7941   23.1152 O   0  0  0  0  0  0  0  0  0  0  0  0
  -18.5687  -14.3335   22.0368 O   0  0  0  0  0  0  0  0  0  0  0  0
  -28.2106  -26.6568   19.8580 O   0  0  0  0  0  0  0  0  0  1  0  0
  -16.0320  -17.5359   18.3336 F   0  0  0  0  0  0  0  0  0  0  0  0
  -18.3724  -13.5595   19.3901 F   0  0  0  0  0  0  0  0  0  0  0  0
  1  2  1  0  0  0  0
  1  5  2  0  0  0  0
  2  6  2  0  0  0  0
  3  8  2  0  0  0  0
  3 17  1  0  0  0  0
  4  9  1  0  0  0  0
  4 17  2  0  0  0  0
  5 19  1  0  0  0  0
  6 21  1  0  0  0  0
  7 10  2  0  0  0  0
  7 20  1  0  0  0  0
  8 27  1  0  0  0  0
  9 27  2  0  0  0  0
 10 28  1  0  0  0  0
 11 12  2  0  0  0  0
 11 29  1  0  0  0  0
 12 30  1  0  0  0  0
 13 22  1  0  0  0  0
 13 28  2  0  0  0  0
 14 23  2  0  0  0  0
 14 25  1  0  0  0  0
 15 24  1  0  0  0  0
 15 26  2  0  0  0  0
 16 30  2  0  0  0  0
 16 31  1  0  0  0  0
 17 32  1  0  0  0  0
 18 32  1  0  0  0  0
 18 33  2  0  0  0  0
 18 34  1  0  0  0  0
 19 21  2  0  0  0  0
 19 39  1  0  0  0  0
 20 22  2  0  0  0  0
 20 40  1  0  0  0  0
 21 52  1  0  0  0  0
 22 41  1  0  0  0  0
 23 26  1  0  0  0  0
 23 57  1  0  0  0  0
 24 25  2  0  0  0  0
 24 58  1  0  0  0  0
 25 65  1  0  0  0  0
 26 66  1  0  0  0  0
 27 85  1  0  0  0  0
 28 86  1  0  0  0  0
 29 31  2  0  0  0  0
 29 85  1  0  0  0  0
 30 87  1  0  0  0  0
 31 88  1  0  0  0  0
 32 70  2  0  0  0  0
 33 71  1  0  0  0  0
 33 74  1  0  0  0  0
 34 75  1  0  0  0  0
 34 80  2  0  0  0  0
 35 53  1  0  0  0  0
 35 76  1  0  0  0  0
 35 81  2  0  0  0  0
 36 67  1  0  0  0  0
 36 72  1  0  0  0  0
 36 82  2  0  0  0  0
 37 68  1  0  0  0  0
 37 77  1  0  0  0  0
 37 83  2  0  0  0  0
 38 73  1  0  0  0  0
 38 78  1  0  0  0  0
 38 84  2  0  0  0  0
 39 42  1  0  0  0  0
 40 53  1  0  0  0  0
 41 72  1  0  0  0  0
 42 44  1  0  0  0  0
 43 47  1  0  0  0  0
 43 50  1  0  0  0  0
 44 52  1  0  0  0  0
 45 48  1  0  0  0  0
 45 54  1  0  0  0  0
 46 49  1  0  0  0  0
 46 54  1  0  0  0  0
 47 55  1  0  0  0  0
 48 56  1  0  0  0  0
 49 56  1  0  0  0  0
 50 73  1  0  0  0  0
 51 55  1  0  0  0  0
 51 73  1  0  0  0  0
 52 76  1  0  0  0  0
 53 72  1  0  0  0  0
 54 66  1  0  0  0  0
 55 71  1  0  0  0  0
 56 78  1  0  0  0  0
 59 66  1  0  0  0  0
 60 68  1  0  0  0  0
 61 69  1  0  0  0  0
 62 69  1  0  0  0  0
 63 69  1  0  0  0  0
 64 79  1  0  0  0  0
 65 86  1  0  0  0  0
 67 69  1  0  0  0  0
 67 77  1  0  0  0  0
 68 79  1  0  0  0  0
 70 71  1  0  0  0  0
M  CHG  1  79   1
M  ISO  4  38 100  65 101  78 100  86 101
M  END
> <Batch ID>
0157

> <Smiles>
CNC(C)C(=O)NC(C(=O)N1Cc2cc([101O:1][101CH2:1]c3cc(C)c(C(C)C4CCC([100NH:0][100C:0](=O)N5CCCC(n6nc(-c7ccc(Oc8ccc(F)cc8F)cc7)c(C(N)=O)c6N)C5)CC4)cc3C)ccc2CC1C(=O)NC1CCCc2ccccc21)C(C)(C)C

> <Shape>
0.302

> <Color>
0.072

> <Negative vol penalty>
0.000

$$$$

  -OEChem-04052321593D

 87 96  0     1  0  0  0  0  0999 V2000
  -25.6323  -19.9906   27.0171 C   0  0  0  0  0  0  0  0  0  0  0  0
  -26.2306  -20.8869   26.1373 C   0  0  0  0  0  0  0  0  0  0  0  0
  -26.3771  -12.5741   19.5764 C   0  0  0  0  0  0  0  0  0  0  0  0
  -24.8828  -13.1745   21.3775 C   0  0  0  0  0  0  0  0  0  0  0  0
  -24.2466  -19.8364   27.0181 C   0  0  0  0  0  0  0  0  0  0  0  0
  -25.4436  -21.6288   25.2572 C   0  0  0  0  0  0  0  0  0  0  0  0
  -26.8109  -26.5010   25.0636 C   0  0  0  0  0  0  0  0  0  0  0  0
  -25.5339  -11.5188   19.2286 C   0  0  0  0  0  0  0  0  0  0  0  0
  -24.0396  -12.1191   21.0297 C   0  0  0  0  0  0  0  0  0  0  0  0
  -27.9397  -26.8160   24.3084 C   0  0  0  0  0  0  0  0  0  0  0  0
  -23.9357   -8.7674   21.4608 C   0  0  0  0  0  0  0  0  0  0  0  0
  -23.4437   -7.9648   22.4901 C   0  0  0  0  0  0  0  0  0  0  0  0
  -26.5192  -27.5254   22.4923 C   0  0  0  0  0  0  0  0  0  0  0  0
  -32.5616  -27.4440   19.9450 C   0  0  0  0  0  0  0  0  0  0  0  0
  -32.9324  -29.4297   21.2702 C   0  0  0  0  0  0  0  0  0  0  0  0
  -21.1845   -8.5591   21.8735 C   0  0  0  0  0  0  0  0  0  0  0  0
  -26.0515  -13.4020   20.6508 C   0  0  0  0  0  0  0  0  0  0  0  0
  -28.2710  -14.4078   21.4059 C   0  0  0  0  0  0  0  0  0  0  0  0
  -23.4414  -20.5838   26.1442 C   0  0  0  0  0  0  0  0  0  0  0  0
  -25.5257  -26.6859   24.5339 C   0  0  0  0  0  0  0  0  0  0  0  0
  -24.0460  -21.4835   25.2456 C   0  0  0  0  0  0  0  0  0  0  0  0
  -25.3757  -27.2144   23.2438 C   0  0  0  0  0  0  0  0  0  0  0  0
  -33.2479  -28.6380   20.1660 C   0  0  0  0  0  0  0  0  0  0  0  0
  -31.2441  -27.8333   21.9324 C   0  0  0  0  0  0  0  0  0  0  0  0
  -31.5596  -27.0416   20.8281 C   0  0  0  0  0  0  0  0  0  0  0  0
  -24.3652  -11.2913   19.9553 C   0  0  0  0  0  0  0  0  0  0  0  0
  -27.7940  -27.3256   23.0214 C   0  0  0  0  0  0  0  0  0  0  0  0
  -23.0521   -9.4659   20.6380 C   0  0  0  0  0  0  0  0  0  0  0  0
  -31.9304  -29.0274   22.1534 C   0  0  0  0  0  0  0  0  0  0  0  0
  -22.0681   -7.8606   22.6964 C   0  0  0  0  0  0  0  0  0  0  0  0
  -21.6765   -9.3618   20.8443 C   0  0  0  0  0  0  0  0  0  0  0  0
  -26.9224  -14.4920   21.0109 C   0  0  0  0  0  0  0  0  0  0  0  0
  -28.6432  -15.7097   21.6364 C   0  0  0  0  0  0  0  0  0  0  0  0
  -29.1120  -13.2558   21.5515 C   0  0  0  0  0  0  0  0  0  0  0  0
  -23.0792  -24.7707   23.8627 C   0  0  0  0  0  0  0  0  0  0  0  0
  -21.5675  -27.5693   23.2262 C   0  0  0  0  0  0  0  0  0  0  0  0
  -21.8096  -30.8601   22.3551 C   0  0  0  0  0  0  0  0  0  0  0  0
  -28.7953  -20.9577   20.0930 C   0  0  0  0  0  0  0  0  0  0  0  0
  -21.9518  -20.3482   26.1491 C   0  0  0  0  0  0  0  0  0  0  0  0
  -24.3179  -26.3663   25.3713 C   0  0  0  0  0  0  0  0  0  0  0  0
  -24.0178  -27.4507   22.6366 C   0  0  0  0  0  0  0  0  0  0  0  0
  -21.1591  -21.4461   25.4444 C   0  0  0  0  0  0  0  0  0  0  0  0
  -25.8638  -19.9251   21.9471 C   0  0  0  0  0  0  0  0  0  0  0  0
  -21.7994  -21.7897   24.1032 C   0  0  0  0  0  0  0  0  0  0  0  0
  -25.9943  -18.4017   21.8987 C   0  0  0  0  0  0  0  0  0  0  0  0
  -29.0496  -24.6063   19.4942 C   0  0  0  0  0  0  0  0  0  0  0  0
  -30.3428  -23.5605   21.3656 C   0  0  0  0  0  0  0  0  0  0  0  0
  -26.3174  -20.5607   20.6362 C   0  0  0  0  0  0  0  0  0  0  0  0
  -30.1366  -25.6699   19.3390 C   0  0  0  0  0  0  0  0  0  0  0  0
  -31.4299  -24.6218   21.2034 C   0  0  0  0  0  0  0  0  0  0  0  0
  -27.8343  -18.6746   20.1724 C   0  0  0  0  0  0  0  0  0  0  0  0
  -23.2241  -22.3244   24.2929 C   0  0  1  0  0  0  0  0  0  0  0  0
  -23.0645  -26.1121   24.5397 C   0  0  1  0  0  0  0  0  0  0  0  0
  -27.4125  -17.9739   21.4767 C   0  0  2  0  0  0  0  0  0  0  0  0
  -29.6141  -23.2996   20.0484 C   0  0  0  0  0  0  0  0  0  0  0  0
  -34.3191  -29.0678   19.2217 C   0  0  0  0  0  0  0  0  0  0  0  0
  -20.3995  -32.8795   21.8745 C   0  0  0  0  0  0  0  0  0  0  0  0
  -20.8548  -26.4179   20.4919 C   0  0  0  0  0  0  0  0  0  0  0  0
  -20.3102  -28.7408   19.7332 C   0  0  0  0  0  0  0  0  0  0  0  0
  -19.0143  -27.7027   21.5948 C   0  0  0  0  0  0  0  0  0  0  0  0
  -23.0189  -32.3796   24.5884 C   0  0  0  0  0  0  0  0  0  0  0  0
  -30.6345  -30.8127   23.0416 C   0  0  0  0  0  0  0  0  0  0  0  0
  -30.1669  -27.4089   22.8868 C   0  0  0  0  0  0  0  0  0  1  0  0
  -21.3981  -28.4390   22.0039 C   0  0  1  0  0  0  0  0  0  0  0  0
  -21.1657  -32.1059   22.9362 C   0  0  2  0  0  0  0  0  0  0  0  0
  -20.4201  -27.8190   20.9664 C   0  0  0  0  0  0  0  0  0  0  0  0
  -26.4685  -15.7480   20.9906 N   0  0  0  0  0  0  0  0  0  0  0  0
  -27.5379  -16.4650   21.3758 N   0  0  0  0  0  0  0  0  0  0  0  0
  -30.8822  -25.8390   20.5903 N   0  0  0  0  0  0  0  0  0  0  0  0
  -22.8675  -27.1166   23.4926 N   0  0  0  0  0  0  0  0  0  0  0  0
  -27.6814  -20.1276   20.3013 N   0  0  0  0  0  0  0  0  0  0  0  0
  -29.8048  -16.2705   22.0345 N   0  0  0  0  0  0  0  0  0  0  0  0
  -28.5701  -11.9934   21.2739 N   0  0  0  0  0  0  0  0  0  0  0  0
  -23.1923  -23.7029   24.7324 N   0  0  0  0  0  0  0  0  0  0  0  0
  -20.9972  -29.7543   22.4913 N   0  0  0  0  0  0  0  0  0  0  0  0
  -28.5644  -22.3213   20.2270 N   0  0  0  0  0  0  0  0  0  0  0  0
  -22.2047  -33.0044   23.5143 N   0  3  0  0  0  0  0  0  0  0  0  0
  -30.3040  -13.3418   21.9328 O   0  0  0  0  0  0  0  0  0  0  0  0
  -22.9929  -24.7091   22.6419 O   0  0  0  0  0  0  0  0  0  0  0  0
  -20.5839  -27.3073   23.9230 O   0  0  0  0  0  0  0  0  0  0  0  0
  -22.9205  -30.8679   21.8293 O   0  0  0  0  0  0  0  0  0  0  0  0
  -29.9150  -20.5159   19.8133 O   0  0  0  0  0  0  0  0  0  0  0  0
  -23.5421  -10.2617   19.6161 O   0  0  0  0  0  0  0  0  0  0  0  0
  -31.6362  -29.8146   23.2260 O   0  0  0  0  0  0  0  0  0  0  0  0
  -28.8941  -27.6333   22.2819 O   0  0  0  0  0  0  0  0  0  1  0  0
  -21.5957   -7.0886   23.6839 F   0  0  0  0  0  0  0  0  0  0  0  0
  -20.8228  -10.0295   20.0563 F   0  0  0  0  0  0  0  0  0  0  0  0
  1  2  1  0  0  0  0
  1  5  2  0  0  0  0
  2  6  2  0  0  0  0
  3  8  2  0  0  0  0
  3 17  1  0  0  0  0
  4  9  1  0  0  0  0
  4 17  2  0  0  0  0
  5 19  1  0  0  0  0
  6 21  1  0  0  0  0
  7 10  2  0  0  0  0
  7 20  1  0  0  0  0
  8 26  1  0  0  0  0
  9 26  2  0  0  0  0
 10 27  1  0  0  0  0
 11 12  2  0  0  0  0
 11 28  1  0  0  0  0
 12 30  1  0  0  0  0
 13 22  1  0  0  0  0
 13 27  2  0  0  0  0
 14 23  2  0  0  0  0
 14 25  1  0  0  0  0
 15 23  1  0  0  0  0
 15 29  2  0  0  0  0
 16 30  2  0  0  0  0
 16 31  1  0  0  0  0
 17 32  1  0  0  0  0
 18 32  1  0  0  0  0
 18 33  2  0  0  0  0
 18 34  1  0  0  0  0
 19 21  2  0  0  0  0
 19 39  1  0  0  0  0
 20 22  2  0  0  0  0
 20 40  1  0  0  0  0
 21 52  1  0  0  0  0
 22 41  1  0  0  0  0
 23 56  1  0  0  0  0
 24 25  2  0  0  0  0
 24 29  1  0  0  0  0
 24 63  1  0  0  0  0
 25 69  1  0  0  0  0
 26 83  1  0  0  0  0
 27 85  1  0  0  0  0
 28 31  2  0  0  0  0
 28 83  1  0  0  0  0
 29 84  1  0  0  0  0
 30 86  1  0  0  0  0
 31 87  1  0  0  0  0
 32 67  2  0  0  0  0
 33 68  1  0  0  0  0
 33 72  1  0  0  0  0
 34 73  1  0  0  0  0
 34 78  2  0  0  0  0
 35 53  1  0  0  0  0
 35 74  1  0  0  0  0
 35 79  2  0  0  0  0
 36 64  1  0  0  0  0
 36 70  1  0  0  0  0
 36 80  2  0  0  0  0
 37 65  1  0  0  0  0
 37 75  1  0  0  0  0
 37 81  2  0  0  0  0
 38 71  1  0  0  0  0
 38 76  1  0  0  0  0
 38 82  2  0  0  0  0
 39 42  1  0  0  0  0
 40 53  1  0  0  0  0
 41 70  1  0  0  0  0
 42 44  1  0  0  0  0
 43 45  1  0  0  0  0
 43 48  1  0  0  0  0
 44 52  1  0  0  0  0
 45 54  1  0  0  0  0
 46 49  1  0  0  0  0
 46 55  1  0  0  0  0
 47 50  1  0  0  0  0
 47 55  1  0  0  0  0
 48 71  1  0  0  0  0
 49 69  1  0  0  0  0
 50 69  1  0  0  0  0
 51 54  1  0  0  0  0
 51 71  1  0  0  0  0
 52 74  1  0  0  0  0
 53 70  1  0  0  0  0
 54 68  1  0  0  0  0
 55 76  1  0  0  0  0
 57 65  1  0  0  0  0
 58 66  1  0  0  0  0
 59 66  1  0  0  0  0
 60 66  1  0  0  0  0
 61 77  1  0  0  0  0
 62 84  1  0  0  0  0
 63 85  1  0  0  0  0
 64 66  1  0  0  0  0
 64 75  1  0  0  0  0
 65 77  1  0  0  0  0
 67 68  1  0  0  0  0
M  CHG  1  77   1
M  ISO  4  38 100  63 101  76 100  85 101
M  END
> <Batch ID>
0157

> <Smiles>
CNC(C)C(=O)NC(C(=O)N1Cc2cc([101O:1][101CH2:1]c3c(OC)cc(C)cc3N3CCC([100NH:0][100C:0](=O)N4CCCC(n5nc(-c6ccc(Oc7ccc(F)cc7F)cc6)c(C(N)=O)c5N)C4)CC3)ccc2CC1C(=O)NC1CCCc2ccccc21)C(C)(C)C

> <Shape>
0.224

> <Color>
0.053

> <Negative vol penalty>
0.000

$$$$

  -OEChem-04052321593D

 86 96  0     1  0  0  0  0  0999 V2000
  -27.4821  -37.4982   18.5937 C   0  0  0  0  0  0  0  0  0  0  0  0
  -28.0852  -36.2564   18.4213 C   0  0  0  0  0  0  0  0  0  0  0  0
  -24.6656   -9.6394   21.4025 C   0  0  0  0  0  0  0  0  0  0  0  0
  -24.9757  -10.6338   23.5824 C   0  0  0  0  0  0  0  0  0  0  0  0
  -26.6314  -37.7143   19.6771 C   0  0  0  0  0  0  0  0  0  0  0  0
  -27.8388  -35.2303   19.3328 C   0  0  0  0  0  0  0  0  0  0  0  0
  -27.2176  -28.1023   19.6815 C   0  0  0  0  0  0  0  0  0  0  0  0
  -24.3767   -8.4138   22.0026 C   0  0  0  0  0  0  0  0  0  0  0  0
  -24.6868   -9.4082   24.1826 C   0  0  0  0  0  0  0  0  0  0  0  0
  -27.7164  -27.0111   20.3917 C   0  0  0  0  0  0  0  0  0  0  0  0
  -23.2042   -5.1118   22.9705 C   0  0  0  0  0  0  0  0  0  0  0  0
  -22.1119   -4.3933   22.4847 C   0  0  0  0  0  0  0  0  0  0  0  0
  -26.1669  -27.4752   22.1813 C   0  0  0  0  0  0  0  0  0  0  0  0
  -29.8560  -23.9871   23.7527 C   0  0  0  0  0  0  0  0  0  0  0  0
  -20.6503   -6.2315   23.0522 C   0  0  0  0  0  0  0  0  0  0  0  0
  -24.9651  -10.7494   22.1924 C   0  0  0  0  0  0  0  0  0  0  0  0
  -24.3524  -13.0345   21.2382 C   0  0  0  0  0  0  0  0  0  0  0  0
  -26.3670  -36.6874   20.5970 C   0  0  0  0  0  0  0  0  0  0  0  0
  -26.1954  -28.8959   20.2216 C   0  0  0  0  0  0  0  0  0  0  0  0
  -26.9849  -35.4333   20.4303 C   0  0  0  0  0  0  0  0  0  0  0  0
  -25.6551  -28.5743   21.4749 C   0  0  0  0  0  0  0  0  0  0  0  0
  -28.7117  -22.4371   22.3130 C   0  0  0  0  0  0  0  0  0  0  0  0
  -29.1009  -23.7381   22.6120 C   0  0  0  0  0  0  0  0  0  0  0  0
  -24.3873   -8.2982   23.3926 C   0  0  0  0  0  0  0  0  0  0  0  0
  -27.1931  -26.6991   21.6430 C   0  0  0  0  0  0  0  0  0  0  0  0
  -23.0196   -6.3902   23.4973 C   0  0  0  0  0  0  0  0  0  0  0  0
  -20.8349   -4.9531   22.5255 C   0  0  0  0  0  0  0  0  0  0  0  0
  -21.7427   -6.9500   23.5381 C   0  0  0  0  0  0  0  0  0  0  0  0
  -25.2642  -12.0155   21.5731 C   0  0  0  0  0  0  0  0  0  0  0  0
  -29.1002  -21.4285   23.1800 C   0  0  0  0  0  0  0  0  0  0  0  0
  -30.1931  -22.9091   24.5553 C   0  0  0  0  0  0  0  0  0  0  0  0
  -25.1288  -14.0199   20.6792 C   0  0  0  0  0  0  0  0  0  0  0  0
  -22.9307  -13.0857   21.4166 C   0  0  0  0  0  0  0  0  0  0  0  0
  -25.9362  -31.9484   21.0694 C   0  0  0  0  0  0  0  0  0  0  0  0
  -22.8278  -31.1493   21.5403 C   0  0  0  0  0  0  0  0  0  0  0  0
  -20.5282  -28.7097   22.1781 C   0  0  0  0  0  0  0  0  0  0  0  0
  -29.7353  -17.1624   20.7281 C   0  0  0  0  0  0  0  0  0  0  0  0
  -25.4776  -36.9827   21.7787 C   0  0  0  0  0  0  0  0  0  0  0  0
  -25.6499  -30.0536   19.4312 C   0  0  0  0  0  0  0  0  0  0  0  0
  -24.5430  -29.3826   22.0900 C   0  0  0  0  0  0  0  0  0  0  0  0
  -24.9743  -35.7296   22.4904 C   0  0  0  0  0  0  0  0  0  0  0  0
  -29.9424  -13.9908   19.1852 C   0  0  0  0  0  0  0  0  0  0  0  0
  -26.5960  -22.8625   20.8929 C   0  0  0  0  0  0  0  0  0  0  0  0
  -26.5940  -21.4084   21.2475 C   0  0  0  0  0  0  0  0  0  0  0  0
  -26.1195  -34.7477   22.7165 C   0  0  0  0  0  0  0  0  0  0  0  0
  -28.6913  -13.2581   19.6618 C   0  0  0  0  0  0  0  0  0  0  0  0
  -29.2226  -18.9348   23.8982 C   0  0  0  0  0  0  0  0  0  0  0  0
  -30.5167  -14.8596   20.2961 C   0  0  0  0  0  0  0  0  0  0  0  0
  -29.0152  -17.6293   23.1422 C   0  0  0  0  0  0  0  0  0  0  0  0
  -29.2216  -19.4314   21.5763 C   0  0  0  0  0  0  0  0  0  0  0  0
  -28.2686  -15.1655   21.2975 C   0  0  0  0  0  0  0  0  0  0  0  0
  -27.9012  -22.1399   21.0955 C   0  0  0  0  0  0  0  0  0  0  0  0
  -26.7231  -34.2878   21.3839 C   0  0  1  0  0  0  0  0  0  0  0  0
  -28.7072  -19.9930   22.9093 C   0  0  2  0  0  0  0  0  0  0  0  0
  -24.9618  -31.1002   20.3021 C   0  0  1  0  0  0  0  0  0  0  0  0
  -27.6584  -14.2527   20.2139 C   0  0  2  0  0  0  0  0  0  0  0  0
  -31.0023  -23.1392   25.7878 C   0  0  0  0  0  0  0  0  0  0  0  0
  -18.0694  -28.3677   22.5452 C   0  0  0  0  0  0  0  0  0  0  0  0
  -23.0936  -32.2834   24.3605 C   0  0  0  0  0  0  0  0  0  0  0  0
  -20.9830  -31.0814   24.9677 C   0  0  0  0  0  0  0  0  0  0  0  0
  -20.9477  -32.8481   23.2070 C   0  0  0  0  0  0  0  0  0  0  0  0
  -20.3059  -26.9313   19.8229 C   0  0  0  0  0  0  0  0  0  0  0  0
  -28.7238  -24.8810   21.7281 C   0  0  0  0  0  0  0  0  0  1  0  0
  -22.0251  -30.6171   22.7028 C   0  0  1  0  0  0  0  0  0  0  0  0
  -19.1970  -28.3847   21.5249 C   0  0  2  0  0  0  0  0  0  0  0  0
  -21.7846  -31.6932   23.7990 C   0  0  0  0  0  0  0  0  0  0  0  0
  -26.5235  -12.3250   21.2533 N   0  0  0  0  0  0  0  0  0  0  0  0
  -29.8334  -21.6317   24.2974 N   0  0  0  0  0  0  0  0  0  0  0  0
  -26.4086  -13.5495   20.7116 N   0  0  0  0  0  0  0  0  0  0  0  0
  -24.0476  -30.5085   21.2810 N   0  0  0  0  0  0  0  0  0  0  0  0
  -29.5176  -15.7844   20.8349 N   0  0  0  0  0  0  0  0  0  0  0  0
  -29.2395  -17.9815   21.7417 N   0  0  0  0  0  0  0  0  0  0  0  0
  -24.8349  -15.2342   20.1678 N   0  0  0  0  0  0  0  0  0  0  0  0
  -22.2915  -11.9873   22.0077 N   0  0  0  0  0  0  0  0  0  0  0  0
  -25.8751  -33.2941   20.7611 N   0  0  0  0  0  0  0  0  0  0  0  0
  -20.8026  -30.0602   22.1338 N   0  0  0  0  0  0  0  0  0  0  0  0
  -19.2554  -27.0489   20.8667 N   0  3  0  0  0  0  0  0  0  0  0  0
  -22.2453  -14.0692   21.0473 O   0  0  0  0  0  0  0  0  0  0  0  0
  -26.6868  -31.4213   21.8820 O   0  0  0  0  0  0  0  0  0  0  0  0
  -22.3854  -32.0941   20.8820 O   0  0  0  0  0  0  0  0  0  0  0  0
  -21.2505  -27.8518   22.6809 O   0  0  0  0  0  0  0  0  0  0  0  0
  -30.3826  -17.6398   19.7863 O   0  0  0  0  0  0  0  0  0  0  0  0
  -24.1052   -7.1026   23.9786 O   0  0  0  0  0  0  0  0  0  0  0  0
  -27.6820  -25.6275   22.3435 O   0  0  0  0  0  0  0  0  0  1  0  0
  -19.7863   -4.2636   22.0574 F   0  0  0  0  0  0  0  0  0  0  0  0
  -21.5593   -8.1781   24.0419 F   0  0  0  0  0  0  0  0  0  0  0  0
  1  2  1  0  0  0  0
  1  5  2  0  0  0  0
  2  6  2  0  0  0  0
  3  8  2  0  0  0  0
  3 16  1  0  0  0  0
  4  9  1  0  0  0  0
  4 16  2  0  0  0  0
  5 18  1  0  0  0  0
  6 20  1  0  0  0  0
  7 10  2  0  0  0  0
  7 19  1  0  0  0  0
  8 24  1  0  0  0  0
  9 24  2  0  0  0  0
 10 25  1  0  0  0  0
 11 12  2  0  0  0  0
 11 26  1  0  0  0  0
 12 27  1  0  0  0  0
 13 21  1  0  0  0  0
 13 25  2  0  0  0  0
 14 23  1  0  0  0  0
 14 31  2  0  0  0  0
 15 27  2  0  0  0  0
 15 28  1  0  0  0  0
 16 29  1  0  0  0  0
 17 29  1  0  0  0  0
 17 32  2  0  0  0  0
 17 33  1  0  0  0  0
 18 20  2  0  0  0  0
 18 38  1  0  0  0  0
 19 21  2  0  0  0  0
 19 39  1  0  0  0  0
 20 53  1  0  0  0  0
 21 40  1  0  0  0  0
 22 23  2  0  0  0  0
 22 30  1  0  0  0  0
 22 52  1  0  0  0  0
 23 63  1  0  0  0  0
 24 83  1  0  0  0  0
 25 84  1  0  0  0  0
 26 28  2  0  0  0  0
 26 83  1  0  0  0  0
 27 85  1  0  0  0  0
 28 86  1  0  0  0  0
 29 67  2  0  0  0  0
 30 54  1  0  0  0  0
 30 68  2  0  0  0  0
 31 57  1  0  0  0  0
 31 68  1  0  0  0  0
 32 69  1  0  0  0  0
 32 73  1  0  0  0  0
 33 74  1  0  0  0  0
 33 78  2  0  0  0  0
 34 55  1  0  0  0  0
 34 75  1  0  0  0  0
 34 79  2  0  0  0  0
 35 64  1  0  0  0  0
 35 70  1  0  0  0  0
 35 80  2  0  0  0  0
 36 65  1  0  0  0  0
 36 76  1  0  0  0  0
 36 81  2  0  0  0  0
 37 71  1  0  0  0  0
 37 72  1  0  0  0  0
 37 82  2  0  0  0  0
 38 41  1  0  0  0  0
 39 55  1  0  0  0  0
 40 70  1  0  0  0  0
 41 45  1  0  0  0  0
 42 46  1  0  0  0  0
 42 48  1  0  0  0  0
 43 44  1  0  0  0  0
 43 52  1  0  0  0  0
 44 52  1  0  0  0  0
 45 53  1  0  0  0  0
 46 56  1  0  0  0  0
 47 49  1  0  0  0  0
 47 54  1  0  0  0  0
 48 71  1  0  0  0  0
 49 72  1  0  0  0  0
 50 54  1  0  0  0  0
 50 72  1  0  0  0  0
 51 56  1  0  0  0  0
 51 71  1  0  0  0  0
 53 75  1  0  0  0  0
 55 70  1  0  0  0  0
 56 69  1  0  0  0  0
 58 65  1  0  0  0  0
 59 66  1  0  0  0  0
 60 66  1  0  0  0  0
 61 66  1  0  0  0  0
 62 77  1  0  0  0  0
 63 84  1  0  0  0  0
 64 66  1  0  0  0  0
 64 76  1  0  0  0  0
 65 77  1  0  0  0  0
 67 69  1  0  0  0  0
M  CHG  1  77   1
M  ISO  4  37 100  63 101  72 100  84 101
M  END
> <Batch ID>
0157

> <Smiles>
CNC(C)C(=O)NC(C(=O)N1Cc2cc([101O:1][101CH2:1]c3cc(C)nc(C4CC[100N:0]([100C:0](=O)N5CCCC(n6nc(-c7ccc(Oc8ccc(F)cc8F)cc7)c(C(N)=O)c6N)C5)C4)c3C3CC3)ccc2CC1C(=O)NC1CCCc2ccccc21)C(C)(C)C

> <Shape>
0.290

> <Color>
0.131

> <Negative vol penalty>
0.000

$$$$

  -OEChem-04052321593D

 88 97  0     1  0  0  0  0  0999 V2000
  -25.6479  -30.9824   20.3376 C   0  0  0  0  0  0  0  0  0  0  0  0
  -25.3719  -29.6593   20.6673 C   0  0  0  0  0  0  0  0  0  0  0  0
  -22.7128  -12.5159   18.7336 C   0  0  0  0  0  0  0  0  0  0  0  0
  -22.8931  -10.3808   19.8498 C   0  0  0  0  0  0  0  0  0  0  0  0
  -24.8975  -32.0119   20.9040 C   0  0  0  0  0  0  0  0  0  0  0  0
  -24.3458  -29.3651   21.5645 C   0  0  0  0  0  0  0  0  0  0  0  0
  -21.4304  -25.5340   19.9932 C   0  0  0  0  0  0  0  0  0  0  0  0
  -21.6305  -12.0382   17.9946 C   0  0  0  0  0  0  0  0  0  0  0  0
  -21.8107   -9.9031   19.1108 C   0  0  0  0  0  0  0  0  0  0  0  0
  -21.9326  -24.2436   20.1556 C   0  0  0  0  0  0  0  0  0  0  0  0
  -18.3267  -11.5043   18.4766 C   0  0  0  0  0  0  0  0  0  0  0  0
  -17.2106  -12.3317   18.3527 C   0  0  0  0  0  0  0  0  0  0  0  0
  -20.5811  -23.9732   22.1353 C   0  0  0  0  0  0  0  0  0  0  0  0
  -25.5552  -19.3251   22.2202 C   0  0  0  0  0  0  0  0  0  0  0  0
  -17.4730  -12.3257   15.9509 C   0  0  0  0  0  0  0  0  0  0  0  0
  -23.3441  -11.6872   19.6612 C   0  0  0  0  0  0  0  0  0  0  0  0
  -24.4197  -12.8288   21.6730 C   0  0  0  0  0  0  0  0  0  0  0  0
  -23.8554  -31.7296   21.8011 C   0  0  0  0  0  0  0  0  0  0  0  0
  -20.5064  -26.0586   20.9084 C   0  0  0  0  0  0  0  0  0  0  0  0
  -23.5815  -30.3919   22.1444 C   0  0  0  0  0  0  0  0  0  0  0  0
  -20.0667  -25.2696   21.9809 C   0  0  0  0  0  0  0  0  0  0  0  0
  -27.4639  -19.1401   20.7507 C   0  0  0  0  0  0  0  0  0  0  0  0
  -26.5617  -18.5542   21.6386 C   0  0  0  0  0  0  0  0  0  0  0  0
  -27.3596  -20.4970   20.4444 C   0  0  0  0  0  0  0  0  0  0  0  0
  -26.3531  -21.2679   21.0260 C   0  0  0  0  0  0  0  0  0  0  0  0
  -21.1795  -10.7319   18.1832 C   0  0  0  0  0  0  0  0  0  0  0  0
  -21.5102  -23.4640   21.2283 C   0  0  0  0  0  0  0  0  0  0  0  0
  -19.0159  -11.0876   17.3378 C   0  0  0  0  0  0  0  0  0  0  0  0
  -25.4508  -20.6819   21.9138 C   0  0  0  0  0  0  0  0  0  0  0  0
  -16.7838  -12.7424   17.0898 C   0  0  0  0  0  0  0  0  0  0  0  0
  -18.5891  -11.4983   16.0749 C   0  0  0  0  0  0  0  0  0  0  0  0
  -24.4625  -12.1799   20.4244 C   0  0  0  0  0  0  0  0  0  0  0  0
  -25.7349  -13.0931   21.9678 C   0  0  0  0  0  0  0  0  0  0  0  0
  -23.2920  -13.1628   22.4930 C   0  0  0  0  0  0  0  0  0  0  0  0
  -20.4911  -28.5204   22.9190 C   0  0  0  0  0  0  0  0  0  0  0  0
  -17.4005  -27.6397   23.3601 C   0  0  0  0  0  0  0  0  0  0  0  0
  -15.0407  -25.1784   23.2175 C   0  0  0  0  0  0  0  0  0  0  0  0
  -30.6589  -14.5790   19.5921 C   0  0  0  0  0  0  0  0  0  0  0  0
  -23.1026  -32.8785   22.4241 C   0  0  0  0  0  0  0  0  0  0  0  0
  -19.9540  -27.4426   20.7042 C   0  0  0  0  0  0  0  0  0  0  0  0
  -19.0610  -25.7786   22.9798 C   0  0  0  0  0  0  0  0  0  0  0  0
  -21.7877  -32.4619   23.0781 C   0  0  0  0  0  0  0  0  0  0  0  0
  -30.0843  -11.2888   20.4842 C   0  0  0  0  0  0  0  0  0  0  0  0
  -21.9904  -31.2204   23.9409 C   0  0  0  0  0  0  0  0  0  0  0  0
  -28.5705  -11.2285   20.6884 C   0  0  0  0  0  0  0  0  0  0  0  0
  -29.5243  -17.7273   21.1721 C   0  0  0  0  0  0  0  0  0  0  0  0
  -27.9848  -17.1723   19.2427 C   0  0  0  0  0  0  0  0  0  0  0  0
  -30.4381  -12.1336   19.2654 C   0  0  0  0  0  0  0  0  0  0  0  0
  -30.6052  -16.8622   20.5283 C   0  0  0  0  0  0  0  0  0  0  0  0
  -29.1001  -16.3218   18.6419 C   0  0  0  0  0  0  0  0  0  0  0  0
  -28.3778  -13.4773   19.5180 C   0  0  0  0  0  0  0  0  0  0  0  0
  -28.5581  -18.2990   20.1203 C   0  0  0  0  0  0  0  0  0  0  0  0
  -22.4603  -30.0311   23.0946 C   0  0  1  0  0  0  0  0  0  0  0  0
  -19.4061  -28.0624   21.9860 C   0  0  1  0  0  0  0  0  0  0  0  0
  -27.9646  -12.6419   20.7462 C   0  0  1  0  0  0  0  0  0  0  0  0
  -26.6503  -17.1034   21.9829 C   0  0  0  0  0  0  0  0  0  0  0  0
  -28.3273  -21.1261   19.4923 C   0  0  0  0  0  0  0  0  0  0  0  0
  -26.2348  -22.7234   20.7024 C   0  0  0  0  0  0  0  0  0  0  0  0
  -12.6111  -24.7498   23.6765 C   0  0  0  0  0  0  0  0  0  0  0  0
  -17.9847  -27.5479   26.3535 C   0  0  0  0  0  0  0  0  0  0  0  0
  -15.8769  -26.2305   26.6537 C   0  0  0  0  0  0  0  0  0  0  0  0
  -15.7756  -28.5542   25.7521 C   0  0  0  0  0  0  0  0  0  0  0  0
  -14.5077  -24.4933   20.3881 C   0  0  0  0  0  0  0  0  0  0  0  0
  -22.0932  -21.7097   22.7244 C   0  0  0  0  0  0  0  0  0  1  0  0
  -23.2524  -20.7366   22.8192 C   0  0  0  0  0  0  0  0  0  0  0  0
  -16.6802  -26.6974   24.2941 C   0  0  1  0  0  0  0  0  0  0  0  0
  -13.6396  -25.1588   22.6336 C   0  0  2  0  0  0  0  0  0  0  0  0
  -16.5998  -27.2483   25.7458 C   0  0  0  0  0  0  0  0  0  0  0  0
  -25.7063  -12.0406   19.9581 N   0  0  0  0  0  0  0  0  0  0  0  0
  -26.4573  -12.6057   20.9187 N   0  0  0  0  0  0  0  0  0  0  0  0
  -18.5550  -27.1403   22.7407 N   0  0  0  0  0  0  0  0  0  0  0  0
  -29.8392  -13.4651   19.3553 N   0  0  0  0  0  0  0  0  0  0  0  0
  -30.0223  -15.8285   19.6738 N   0  0  0  0  0  0  0  0  0  0  0  0
  -26.3323  -13.6925   23.0196 N   0  0  0  0  0  0  0  0  0  0  0  0
  -22.0111  -12.8186   22.0399 N   0  0  0  0  0  0  0  0  0  0  0  0
  -21.3477  -29.4555   22.3700 N   0  0  0  0  0  0  0  0  0  0  0  0
  -15.3824  -26.4303   23.6836 N   0  0  0  0  0  0  0  0  0  0  0  0
  -13.5652  -24.1971   21.4976 N   0  3  0  0  0  0  0  0  0  0  0  0
  -23.4152  -13.7637   23.5872 O   0  0  0  0  0  0  0  0  0  0  0  0
  -20.5462  -28.0606   24.0536 O   0  0  0  0  0  0  0  0  0  0  0  0
  -16.9512  -28.7744   23.1811 O   0  0  0  0  0  0  0  0  0  0  0  0
  -15.7588  -24.1818   23.2596 O   0  0  0  0  0  0  0  0  0  0  0  0
  -31.8835  -14.4665   19.7282 O   0  0  0  0  0  0  0  0  0  0  0  0
  -20.1233  -10.2655   17.4625 O   0  0  0  0  0  0  0  0  0  0  0  0
  -22.0026  -22.1958   21.3906 O   0  0  0  0  0  0  0  0  0  1  0  0
  -24.4612  -21.4188   22.4918 O   0  0  0  0  0  0  0  0  0  0  0  0
  -15.7111  -13.5358   16.9708 F   0  0  0  0  0  0  0  0  0  0  0  0
  -19.2465  -11.1002   14.9771 F   0  0  0  0  0  0  0  0  0  0  0  0
  1  2  1  0  0  0  0
  1  5  2  0  0  0  0
  2  6  2  0  0  0  0
  3  8  2  0  0  0  0
  3 16  1  0  0  0  0
  4  9  1  0  0  0  0
  4 16  2  0  0  0  0
  5 18  1  0  0  0  0
  6 20  1  0  0  0  0
  7 10  2  0  0  0  0
  7 19  1  0  0  0  0
  8 26  1  0  0  0  0
  9 26  2  0  0  0  0
 10 27  1  0  0  0  0
 11 12  2  0  0  0  0
 11 28  1  0  0  0  0
 12 30  1  0  0  0  0
 13 21  1  0  0  0  0
 13 27  2  0  0  0  0
 14 23  2  0  0  0  0
 14 29  1  0  0  0  0
 15 30  2  0  0  0  0
 15 31  1  0  0  0  0
 16 32  1  0  0  0  0
 17 32  1  0  0  0  0
 17 33  2  0  0  0  0
 17 34  1  0  0  0  0
 18 20  2  0  0  0  0
 18 39  1  0  0  0  0
 19 21  2  0  0  0  0
 19 40  1  0  0  0  0
 20 53  1  0  0  0  0
 21 41  1  0  0  0  0
 22 23  1  0  0  0  0
 22 24  2  0  0  0  0
 22 52  1  0  0  0  0
 23 56  1  0  0  0  0
 24 25  1  0  0  0  0
 24 57  1  0  0  0  0
 25 29  2  0  0  0  0
 25 58  1  0  0  0  0
 26 84  1  0  0  0  0
 27 85  1  0  0  0  0
 28 31  2  0  0  0  0
 28 84  1  0  0  0  0
 29 86  1  0  0  0  0
 30 87  1  0  0  0  0
 31 88  1  0  0  0  0
 32 69  2  0  0  0  0
 33 70  1  0  0  0  0
 33 74  1  0  0  0  0
 34 75  1  0  0  0  0
 34 79  2  0  0  0  0
 35 54  1  0  0  0  0
 35 76  1  0  0  0  0
 35 80  2  0  0  0  0
 36 66  1  0  0  0  0
 36 71  1  0  0  0  0
 36 81  2  0  0  0  0
 37 67  1  0  0  0  0
 37 77  1  0  0  0  0
 37 82  2  0  0  0  0
 38 72  1  0  0  0  0
 38 73  1  0  0  0  0
 38 83  2  0  0  0  0
 39 42  1  0  0  0  0
 40 54  1  0  0  0  0
 41 71  1  0  0  0  0
 42 44  1  0  0  0  0
 43 45  1  0  0  0  0
 43 48  1  0  0  0  0
 44 53  1  0  0  0  0
 45 55  1  0  0  0  0
 46 49  1  0  0  0  0
 46 52  1  0  0  0  0
 47 50  1  0  0  0  0
 47 52  1  0  0  0  0
 48 72  1  0  0  0  0
 49 73  1  0  0  0  0
 50 73  1  0  0  0  0
 51 55  1  0  0  0  0
 51 72  1  0  0  0  0
 53 76  1  0  0  0  0
 54 71  1  0  0  0  0
 55 70  1  0  0  0  0
 59 67  1  0  0  0  0
 60 68  1  0  0  0  0
 61 68  1  0  0  0  0
 62 68  1  0  0  0  0
 63 78  1  0  0  0  0
 64 65  1  0  0  0  0
 64 85  1  0  0  0  0
 65 86  1  0  0  0  0
 66 68  1  0  0  0  0
 66 77  1  0  0  0  0
 67 78  1  0  0  0  0
 69 70  1  0  0  0  0
M  CHG  1  78   1
M  ISO  4  38 100  64 101  73 100  85 101
M  END
> <Batch ID>
0157

> <Smiles>
CNC(C)C(=O)NC(C(=O)N1Cc2cc([101O:1][101CH2:1]COc3cc(C)c(C4CC[100N:0]([100C:0](=O)N5CCCC(n6nc(-c7ccc(Oc8ccc(F)cc8F)cc7)c(C(N)=O)c6N)C5)CC4)c(C)c3C)ccc2CC1C(=O)NC1CCCc2ccccc21)C(C)(C)C

> <Shape>
0.230

> <Color>
0.119

> <Negative vol penalty>
0.000

$$$$

  -OEChem-04052321593D

 89 99  0     1  0  0  0  0  0999 V2000
  -30.8455  -35.2600   20.2866 C   0  0  0  0  0  0  0  0  0  0  0  0
  -30.6926  -33.8915   20.0886 C   0  0  0  0  0  0  0  0  0  0  0  0
  -23.5478  -10.3601   21.4343 C   0  0  0  0  0  0  0  0  0  0  0  0
  -24.8817   -8.4962   22.1983 C   0  0  0  0  0  0  0  0  0  0  0  0
  -30.1091  -35.9062   21.2786 C   0  0  0  0  0  0  0  0  0  0  0  0
  -29.8039  -33.1682   20.8832 C   0  0  0  0  0  0  0  0  0  0  0  0
  -26.3972  -28.3756   19.1712 C   0  0  0  0  0  0  0  0  0  0  0  0
  -22.4617   -9.5055   21.2458 C   0  0  0  0  0  0  0  0  0  0  0  0
  -23.7956   -7.6416   22.0099 C   0  0  0  0  0  0  0  0  0  0  0  0
  -26.5712  -27.0003   19.3195 C   0  0  0  0  0  0  0  0  0  0  0  0
  -20.9431   -6.8453   23.6377 C   0  0  0  0  0  0  0  0  0  0  0  0
  -20.6612   -5.9256   24.6478 C   0  0  0  0  0  0  0  0  0  0  0  0
  -26.7389  -22.4444   22.6034 C   0  0  0  0  0  0  0  0  0  0  0  0
  -25.1896  -27.0447   21.2965 C   0  0  0  0  0  0  0  0  0  0  0  0
  -20.9837   -4.1110   23.0856 C   0  0  0  0  0  0  0  0  0  0  0  0
  -24.7579   -9.8555   21.9105 C   0  0  0  0  0  0  0  0  0  0  0  0
  -26.2086  -11.4511   23.2732 C   0  0  0  0  0  0  0  0  0  0  0  0
  -29.2038  -35.1922   22.0794 C   0  0  0  0  0  0  0  0  0  0  0  0
  -25.6257  -29.0988   20.0922 C   0  0  0  0  0  0  0  0  0  0  0  0
  -29.0557  -33.8052   21.8878 C   0  0  0  0  0  0  0  0  0  0  0  0
  -27.0598  -21.0875   22.6430 C   0  0  0  0  0  0  0  0  0  0  0  0
  -25.0052  -28.4287   21.1562 C   0  0  0  0  0  0  0  0  0  0  0  0
  -25.8209  -22.9169   21.6654 C   0  0  0  0  0  0  0  0  0  0  0  0
  -25.2239  -22.0326   20.7670 C   0  0  0  0  0  0  0  0  0  0  0  0
  -25.5448  -20.6757   20.8065 C   0  0  0  0  0  0  0  0  0  0  0  0
  -22.5855   -8.1463   21.5336 C   0  0  0  0  0  0  0  0  0  0  0  0
  -25.9698  -26.3351   20.3839 C   0  0  0  0  0  0  0  0  0  0  0  0
  -21.2453   -6.3979   22.3516 C   0  0  0  0  0  0  0  0  0  0  0  0
  -26.4628  -20.2032   21.7445 C   0  0  0  0  0  0  0  0  0  0  0  0
  -20.6815   -4.5584   24.3718 C   0  0  0  0  0  0  0  0  0  0  0  0
  -21.2657   -5.0307   22.0755 C   0  0  0  0  0  0  0  0  0  0  0  0
  -25.8804  -10.7376   22.1049 C   0  0  0  0  0  0  0  0  0  0  0  0
  -27.3537  -12.1359   22.9471 C   0  0  0  0  0  0  0  0  0  0  0  0
  -25.5383  -11.4913   24.5400 C   0  0  0  0  0  0  0  0  0  0  0  0
  -26.2027  -31.4696   22.1293 C   0  0  0  0  0  0  0  0  0  0  0  0
  -22.9897  -31.3597   22.5616 C   0  0  0  0  0  0  0  0  0  0  0  0
  -20.1041  -29.5455   22.3929 C   0  0  0  0  0  0  0  0  0  0  0  0
  -30.3368  -15.1762   19.6733 C   0  0  0  0  0  0  0  0  0  0  0  0
  -28.4649  -35.9256   23.1705 C   0  0  0  0  0  0  0  0  0  0  0  0
  -25.4257  -30.5775   19.9031 C   0  0  0  0  0  0  0  0  0  0  0  0
  -24.1505  -29.1558   22.1608 C   0  0  0  0  0  0  0  0  0  0  0  0
  -27.2677  -35.1543   23.7201 C   0  0  0  0  0  0  0  0  0  0  0  0
  -30.4125  -11.7405   18.9468 C   0  0  0  0  0  0  0  0  0  0  0  0
  -27.6413  -19.4934   24.5909 C   0  0  0  0  0  0  0  0  0  0  0  0
  -27.8015  -20.8879   25.1104 C   0  0  0  0  0  0  0  0  0  0  0  0
  -27.6495  -33.7040   23.9992 C   0  0  0  0  0  0  0  0  0  0  0  0
  -29.2574  -11.2228   19.8032 C   0  0  0  0  0  0  0  0  0  0  0  0
  -28.9558  -17.8662   21.8807 C   0  0  0  0  0  0  0  0  0  0  0  0
  -27.3949  -17.4106   19.9607 C   0  0  0  0  0  0  0  0  0  0  0  0
  -30.0774  -13.0757   18.2803 C   0  0  0  0  0  0  0  0  0  0  0  0
  -30.0943  -17.2687   21.0640 C   0  0  0  0  0  0  0  0  0  0  0  0
  -28.5577  -16.8130   19.1772 C   0  0  0  0  0  0  0  0  0  0  0  0
  -28.4671  -13.6032   20.0820 C   0  0  0  0  0  0  0  0  0  0  0  0
  -28.0447  -20.5997   23.6528 C   0  0  0  0  0  0  0  0  0  0  0  0
  -28.0834  -32.9906   22.7130 C   0  0  1  0  0  0  0  0  0  0  0  0
  -25.0413  -31.2981   21.1916 C   0  0  1  0  0  0  0  0  0  0  0  0
  -28.7947  -12.2905   20.8104 C   0  0  1  0  0  0  0  0  0  0  0  0
  -27.8714  -18.4478   20.9759 C   0  0  0  0  0  0  0  0  0  0  0  0
  -24.2375  -22.5413   19.7637 C   0  0  0  0  0  0  0  0  0  0  0  0
  -24.9081  -19.7225   19.8454 C   0  0  0  0  0  0  0  0  0  0  0  0
  -17.6419  -29.7138   22.8477 C   0  0  0  0  0  0  0  0  0  0  0  0
  -23.5270  -31.0975   25.5536 C   0  0  0  0  0  0  0  0  0  0  0  0
  -21.1621  -30.3273   25.8400 C   0  0  0  0  0  0  0  0  0  0  0  0
  -21.6292  -32.6157   24.9636 C   0  0  0  0  0  0  0  0  0  0  0  0
  -19.4277  -29.0399   19.5563 C   0  0  0  0  0  0  0  0  0  0  0  0
  -25.4948  -24.3744   21.6433 C   0  0  0  0  0  0  0  0  0  1  0  0
  -22.0603  -30.6104   23.4854 C   0  0  1  0  0  0  0  0  0  0  0  0
  -18.7414  -29.8724   21.8091 C   0  0  2  0  0  0  0  0  0  0  0  0
  -22.1123  -31.1490   24.9430 C   0  0  0  0  0  0  0  0  0  0  0  0
  -26.7469  -10.9496   21.1108 N   0  0  0  0  0  0  0  0  0  0  0  0
  -27.6308  -11.8041   21.6536 N   0  0  0  0  0  0  0  0  0  0  0  0
  -23.9902  -30.6020   21.9365 N   0  0  0  0  0  0  0  0  0  0  0  0
  -29.6036  -14.0490   19.2734 N   0  0  0  0  0  0  0  0  0  0  0  0
  -29.6000  -16.3046   20.0701 N   0  0  0  0  0  0  0  0  0  0  0  0
  -28.1404  -12.9835   23.6436 N   0  0  0  0  0  0  0  0  0  0  0  0
  -24.3749  -10.7273   24.7048 N   0  0  0  0  0  0  0  0  0  0  0  0
  -26.9273  -32.6278   21.9217 N   0  0  0  0  0  0  0  0  0  0  0  0
  -20.7379  -30.6723   22.8723 N   0  0  0  0  0  0  0  0  0  0  0  0
  -18.4388  -28.9694   20.6628 N   0  3  0  0  0  0  0  0  0  0  0  0
  -25.9493  -12.1970   25.4921 O   0  0  0  0  0  0  0  0  0  0  0  0
  -26.4242  -30.6151   22.9794 O   0  0  0  0  0  0  0  0  0  0  0  0
  -22.8293  -32.5714   22.3949 O   0  0  0  0  0  0  0  0  0  0  0  0
  -20.5590  -28.4042   22.4240 O   0  0  0  0  0  0  0  0  0  0  0  0
  -31.5741  -15.1785   19.6738 O   0  0  0  0  0  0  0  0  0  0  0  0
  -21.5258   -7.3122   21.3500 O   0  0  0  0  0  0  0  0  0  0  0  0
  -26.7788  -18.8706   21.7830 O   0  0  0  0  0  0  0  0  0  0  0  0
  -26.1398  -24.9832   20.5324 O   0  0  0  0  0  0  0  0  0  1  0  0
  -20.4123   -3.6753   25.3422 F   0  0  0  0  0  0  0  0  0  0  0  0
  -21.5564   -4.5949   20.8421 F   0  0  0  0  0  0  0  0  0  0  0  0
  1  2  1  0  0  0  0
  1  5  2  0  0  0  0
  2  6  2  0  0  0  0
  3  8  2  0  0  0  0
  3 16  1  0  0  0  0
  4  9  1  0  0  0  0
  4 16  2  0  0  0  0
  5 18  1  0  0  0  0
  6 20  1  0  0  0  0
  7 10  2  0  0  0  0
  7 19  1  0  0  0  0
  8 26  1  0  0  0  0
  9 26  2  0  0  0  0
 10 27  1  0  0  0  0
 11 12  2  0  0  0  0
 11 28  1  0  0  0  0
 12 30  1  0  0  0  0
 13 21  2  0  0  0  0
 13 23  1  0  0  0  0
 14 22  1  0  0  0  0
 14 27  2  0  0  0  0
 15 30  2  0  0  0  0
 15 31  1  0  0  0  0
 16 32  1  0  0  0  0
 17 32  1  0  0  0  0
 17 33  2  0  0  0  0
 17 34  1  0  0  0  0
 18 20  2  0  0  0  0
 18 39  1  0  0  0  0
 19 22  2  0  0  0  0
 19 40  1  0  0  0  0
 20 55  1  0  0  0  0
 21 29  1  0  0  0  0
 21 54  1  0  0  0  0
 22 41  1  0  0  0  0
 23 24  2  0  0  0  0
 23 66  1  0  0  0  0
 24 25  1  0  0  0  0
 24 59  1  0  0  0  0
 25 29  2  0  0  0  0
 25 60  1  0  0  0  0
 26 85  1  0  0  0  0
 27 87  1  0  0  0  0
 28 31  2  0  0  0  0
 28 85  1  0  0  0  0
 29 86  1  0  0  0  0
 30 88  1  0  0  0  0
 31 89  1  0  0  0  0
 32 70  2  0  0  0  0
 33 71  1  0  0  0  0
 33 75  1  0  0  0  0
 34 76  1  0  0  0  0
 34 80  2  0  0  0  0
 35 56  1  0  0  0  0
 35 77  1  0  0  0  0
 35 81  2  0  0  0  0
 36 67  1  0  0  0  0
 36 72  1  0  0  0  0
 36 82  2  0  0  0  0
 37 68  1  0  0  0  0
 37 78  1  0  0  0  0
 37 83  2  0  0  0  0
 38 73  1  0  0  0  0
 38 74  1  0  0  0  0
 38 84  2  0  0  0  0
 39 42  1  0  0  0  0
 40 56  1  0  0  0  0
 41 72  1  0  0  0  0
 42 46  1  0  0  0  0
 43 47  1  0  0  0  0
 43 50  1  0  0  0  0
 44 45  1  0  0  0  0
 44 54  1  0  0  0  0
 45 54  1  0  0  0  0
 46 55  1  0  0  0  0
 47 57  1  0  0  0  0
 48 51  1  0  0  0  0
 48 58  1  0  0  0  0
 49 52  1  0  0  0  0
 49 58  1  0  0  0  0
 50 73  1  0  0  0  0
 51 74  1  0  0  0  0
 52 74  1  0  0  0  0
 53 57  1  0  0  0  0
 53 73  1  0  0  0  0
 55 77  1  0  0  0  0
 56 72  1  0  0  0  0
 57 71  1  0  0  0  0
 58 86  1  0  0  0  0
 61 68  1  0  0  0  0
 62 69  1  0  0  0  0
 63 69  1  0  0  0  0
 64 69  1  0  0  0  0
 65 79  1  0  0  0  0
 66 87  1  0  0  0  0
 67 69  1  0  0  0  0
 67 78  1  0  0  0  0
 68 79  1  0  0  0  0
 70 71  1  0  0  0  0
M  CHG  1  79   1
M  ISO  4  38 100  66 101  74 100  87 101
M  END
> <Batch ID>
0157

> <Smiles>
CNC(C)C(=O)NC(C(=O)N1Cc2cc([101O:1][101CH2:1]c3cc(C4CC4)c(OC4CC[100N:0]([100C:0](=O)N5CCCC(n6nc(-c7ccc(Oc8ccc(F)cc8F)cc7)c(C(N)=O)c6N)C5)CC4)c(C)c3C)ccc2CC1C(=O)NC1CCCc2ccccc21)C(C)(C)C

> <Shape>
0.256

> <Color>
0.110

> <Negative vol penalty>
0.000

$$$$

  -OEChem-04052321593D

 91102  0     1  0  0  0  0  0999 V2000
  -17.5520  -31.7729   20.3841 C   0  0  0  0  0  0  0  0  0  0  0  0
  -18.9262  -31.8356   20.5914 C   0  0  0  0  0  0  0  0  0  0  0  0
  -25.8819  -13.7074   21.9538 C   0  0  0  0  0  0  0  0  0  0  0  0
  -25.6069  -12.8903   19.6969 C   0  0  0  0  0  0  0  0  0  0  0  0
  -16.7567  -30.9923   21.2220 C   0  0  0  0  0  0  0  0  0  0  0  0
  -19.5058  -31.1186   21.6376 C   0  0  0  0  0  0  0  0  0  0  0  0
  -23.7257  -28.6984   20.2306 C   0  0  0  0  0  0  0  0  0  0  0  0
  -24.8275  -12.8976   22.3755 C   0  0  0  0  0  0  0  0  0  0  0  0
  -24.5524  -12.0804   20.1186 C   0  0  0  0  0  0  0  0  0  0  0  0
  -24.8885  -29.4592   20.1175 C   0  0  0  0  0  0  0  0  0  0  0  0
  -22.0228   -9.5279   20.6696 C   0  0  0  0  0  0  0  0  0  0  0  0
  -21.9946   -8.2095   20.2150 C   0  0  0  0  0  0  0  0  0  0  0  0
  -32.1851  -28.7602   18.1106 C   0  0  0  0  0  0  0  0  0  0  0  0
  -25.6041  -28.6766   22.2841 C   0  0  0  0  0  0  0  0  0  0  0  0
  -24.1364   -7.8045   21.2570 C   0  0  0  0  0  0  0  0  0  0  0  0
  -26.2716  -13.7038   20.6145 C   0  0  0  0  0  0  0  0  0  0  0  0
  -28.7265  -14.2035   20.1335 C   0  0  0  0  0  0  0  0  0  0  0  0
  -17.3280  -30.2578   22.2730 C   0  0  0  0  0  0  0  0  0  0  0  0
  -23.4879  -27.9281   21.3780 C   0  0  0  0  0  0  0  0  0  0  0  0
  -18.7172  -30.3285   22.4912 C   0  0  0  0  0  0  0  0  0  0  0  0
  -32.0702  -27.3863   18.3216 C   0  0  0  0  0  0  0  0  0  0  0  0
  -24.4388  -27.9048   22.4082 C   0  0  0  0  0  0  0  0  0  0  0  0
  -30.2638  -29.1383   19.5257 C   0  0  0  0  0  0  0  0  0  0  0  0
  -31.2820  -29.6363   18.7127 C   0  0  0  0  0  0  0  0  0  0  0  0
  -30.1488  -27.7643   19.7367 C   0  0  0  0  0  0  0  0  0  0  0  0
  -24.1627  -12.0841   21.4580 C   0  0  0  0  0  0  0  0  0  0  0  0
  -25.8265  -29.4507   21.1456 C   0  0  0  0  0  0  0  0  0  0  0  0
  -23.1078   -9.9846   21.4179 C   0  0  0  0  0  0  0  0  0  0  0  0
  -31.0520  -26.8883   19.1346 C   0  0  0  0  0  0  0  0  0  0  0  0
  -23.0514   -7.3478   20.5087 C   0  0  0  0  0  0  0  0  0  0  0  0
  -24.1646   -9.1229   21.7116 C   0  0  0  0  0  0  0  0  0  0  0  0
  -27.3605  -14.5405   20.1781 C   0  0  0  0  0  0  0  0  0  0  0  0
  -29.3428  -15.3313   19.6491 C   0  0  0  0  0  0  0  0  0  0  0  0
  -29.3800  -12.9802   20.4972 C   0  0  0  0  0  0  0  0  0  0  0  0
  -21.2616  -27.9112   23.6467 C   0  0  0  0  0  0  0  0  0  0  0  0
  -22.8139  -25.2294   24.6061 C   0  0  0  0  0  0  0  0  0  0  0  0
  -25.7008  -23.4097   24.6441 C   0  0  0  0  0  0  0  0  0  0  0  0
  -30.1567  -20.6342   19.4761 C   0  0  0  0  0  0  0  0  0  0  0  0
  -16.4216  -29.4655   23.1816 C   0  0  0  0  0  0  0  0  0  0  0  0
  -22.2412  -27.0919   21.4730 C   0  0  0  0  0  0  0  0  0  0  0  0
  -24.2404  -27.0787   23.6519 C   0  0  0  0  0  0  0  0  0  0  0  0
  -17.1616  -28.4399   24.0365 C   0  0  0  0  0  0  0  0  0  0  0  0
  -27.4167  -19.5204   17.5857 C   0  0  0  0  0  0  0  0  0  0  0  0
  -33.8282  -25.5042   18.5246 C   0  0  0  0  0  0  0  0  0  0  0  0
  -34.5181  -26.6748   17.8970 C   0  0  0  0  0  0  0  0  0  0  0  0
  -18.3987  -29.0671   24.6713 C   0  0  0  0  0  0  0  0  0  0  0  0
  -27.2632  -18.0858   18.0901 C   0  0  0  0  0  0  0  0  0  0  0  0
  -30.9624  -23.7762   17.6800 C   0  0  0  0  0  0  0  0  0  0  0  0
  -28.9494  -24.1682   19.1645 C   0  0  0  0  0  0  0  0  0  0  0  0
  -28.5355  -31.0462   19.3047 C   0  0  0  0  0  0  0  0  0  0  0  0
  -27.7428  -20.4945   18.7191 C   0  0  0  0  0  0  0  0  0  0  0  0
  -31.3499  -22.5894   18.5608 C   0  0  0  0  0  0  0  0  0  0  0  0
  -29.3847  -22.9755   20.0128 C   0  0  0  0  0  0  0  0  0  0  0  0
  -28.7613  -18.6657   20.0361 C   0  0  0  0  0  0  0  0  0  0  0  0
  -33.0450  -26.4635   17.6685 C   0  0  0  0  0  0  0  0  0  0  0  0
  -29.2962  -30.0796   20.1706 C   0  0  1  0  0  0  0  0  0  0  0  0
  -19.3861  -29.5456   23.6001 C   0  0  1  0  0  0  0  0  0  0  0  0
  -21.8611  -26.7471   22.9096 C   0  0  1  0  0  0  0  0  0  0  0  0
  -28.4913  -17.6543   18.9112 C   0  0  1  0  0  0  0  0  0  0  0  0
  -30.1223  -24.8141   18.4250 C   0  0  0  0  0  0  0  0  0  0  0  0
  -27.8224  -29.8852   19.9274 C   0  0  1  0  0  0  0  0  0  1  0  0
  -31.4286  -31.1032   18.4700 C   0  0  0  0  0  0  0  0  0  0  0  0
  -29.0600  -27.2223   20.6083 C   0  0  0  0  0  0  0  0  0  0  0  0
  -27.2203  -21.4626   25.0887 C   0  0  0  0  0  0  0  0  0  0  0  0
  -23.0277  -26.4943   27.3745 C   0  0  0  0  0  0  0  0  0  0  0  0
  -24.7840  -24.8007   27.9362 C   0  0  0  0  0  0  0  0  0  0  0  0
  -22.4685  -24.0567   27.3816 C   0  0  0  0  0  0  0  0  0  0  0  0
  -24.9893  -22.1193   22.0774 C   0  0  0  0  0  0  0  0  0  0  0  0
  -23.9623  -24.9354   25.5409 C   0  0  1  0  0  0  0  0  0  0  0  0
  -25.9697  -21.9414   24.3678 C   0  0  2  0  0  0  0  0  0  0  0  0
  -23.5637  -25.0889   27.0359 C   0  0  0  0  0  0  0  0  0  0  0  0
  -27.1224  -15.7852   19.7560 N   0  0  0  0  0  0  0  0  0  0  0  0
  -28.3473  -16.2401   19.4415 N   0  0  0  0  0  0  0  0  0  0  0  0
  -23.0027  -26.2831   23.7006 N   0  0  0  0  0  0  0  0  0  0  0  0
  -28.8953  -20.0206   19.4971 N   0  0  0  0  0  0  0  0  0  0  0  0
  -30.1857  -22.0187   19.2374 N   0  0  0  0  0  0  0  0  0  0  0  0
  -30.6338  -15.6245   19.3849 N   0  0  0  0  0  0  0  0  0  0  0  0
  -28.5969  -11.9214   20.9767 N   0  0  0  0  0  0  0  0  0  0  0  0
  -20.1233  -28.4254   23.0557 N   0  0  0  0  0  0  0  0  0  0  0  0
  -24.4480  -23.6064   25.1854 N   0  0  0  0  0  0  0  0  0  0  0  0
  -26.1537  -21.7145   22.9064 N   0  3  0  0  0  0  0  0  0  0  0  0
  -30.6234  -12.8361   20.4153 O   0  0  0  0  0  0  0  0  0  0  0  0
  -21.7918  -28.3122   24.6762 O   0  0  0  0  0  0  0  0  0  0  0  0
  -21.7900  -24.5446   24.6719 O   0  0  0  0  0  0  0  0  0  0  0  0
  -26.5216  -24.2933   24.4071 O   0  0  0  0  0  0  0  0  0  0  0  0
  -31.1956  -19.9866   19.6558 O   0  0  0  0  0  0  0  0  0  0  0  0
  -23.1339  -11.2936   21.8692 O   0  0  0  0  0  0  0  0  0  0  0  0
  -26.9644  -30.1945   21.0378 O   0  0  0  0  0  0  0  0  0  1  0  0
  -30.9396  -25.5386   19.3418 O   0  0  0  0  0  0  0  0  0  0  0  0
  -23.0235   -6.0814   20.0733 F   0  0  0  0  0  0  0  0  0  0  0  0
  -25.2091   -9.5556   22.4310 F   0  0  0  0  0  0  0  0  0  0  0  0
  1  2  1  0  0  0  0
  1  5  2  0  0  0  0
  2  6  2  0  0  0  0
  3  8  2  0  0  0  0
  3 16  1  0  0  0  0
  4  9  1  0  0  0  0
  4 16  2  0  0  0  0
  5 18  1  0  0  0  0
  6 20  1  0  0  0  0
  7 10  2  0  0  0  0
  7 19  1  0  0  0  0
  8 26  1  0  0  0  0
  9 26  2  0  0  0  0
 10 27  1  0  0  0  0
 11 12  2  0  0  0  0
 11 28  1  0  0  0  0
 12 30  1  0  0  0  0
 13 21  1  0  0  0  0
 13 24  2  0  0  0  0
 14 22  1  0  0  0  0
 14 27  2  0  0  0  0
 15 30  2  0  0  0  0
 15 31  1  0  0  0  0
 16 32  1  0  0  0  0
 17 32  1  0  0  0  0
 17 33  2  0  0  0  0
 17 34  1  0  0  0  0
 18 20  2  0  0  0  0
 18 39  1  0  0  0  0
 19 22  2  0  0  0  0
 19 40  1  0  0  0  0
 20 57  1  0  0  0  0
 21 29  2  0  0  0  0
 21 55  1  0  0  0  0
 22 41  1  0  0  0  0
 23 24  1  0  0  0  0
 23 25  2  0  0  0  0
 23 56  1  0  0  0  0
 24 62  1  0  0  0  0
 25 29  1  0  0  0  0
 25 63  1  0  0  0  0
 26 87  1  0  0  0  0
 27 88  1  0  0  0  0
 28 31  2  0  0  0  0
 28 87  1  0  0  0  0
 29 89  1  0  0  0  0
 30 90  1  0  0  0  0
 31 91  1  0  0  0  0
 32 72  2  0  0  0  0
 33 73  1  0  0  0  0
 33 77  1  0  0  0  0
 34 78  1  0  0  0  0
 34 82  2  0  0  0  0
 35 58  1  0  0  0  0
 35 79  1  0  0  0  0
 35 83  2  0  0  0  0
 36 69  1  0  0  0  0
 36 74  1  0  0  0  0
 36 84  2  0  0  0  0
 37 70  1  0  0  0  0
 37 80  1  0  0  0  0
 37 85  2  0  0  0  0
 38 75  1  0  0  0  0
 38 76  1  0  0  0  0
 38 86  2  0  0  0  0
 39 42  1  0  0  0  0
 40 58  1  0  0  0  0
 41 74  1  0  0  0  0
 42 46  1  0  0  0  0
 43 47  1  0  0  0  0
 43 51  1  0  0  0  0
 44 45  1  0  0  0  0
 44 55  1  0  0  0  0
 45 55  1  0  0  0  0
 46 57  1  0  0  0  0
 47 59  1  0  0  0  0
 48 52  1  0  0  0  0
 48 60  1  0  0  0  0
 49 53  1  0  0  0  0
 49 60  1  0  0  0  0
 50 56  1  0  0  0  0
 50 61  1  0  0  0  0
 51 75  1  0  0  0  0
 52 76  1  0  0  0  0
 53 76  1  0  0  0  0
 54 59  1  0  0  0  0
 54 75  1  0  0  0  0
 56 61  1  0  0  0  0
 57 79  1  0  0  0  0
 58 74  1  0  0  0  0
 59 73  1  0  0  0  0
 60 89  1  0  0  0  0
 61 88  1  0  0  0  0
 64 70  1  0  0  0  0
 65 71  1  0  0  0  0
 66 71  1  0  0  0  0
 67 71  1  0  0  0  0
 68 81  1  0  0  0  0
 69 71  1  0  0  0  0
 69 80  1  0  0  0  0
 70 81  1  0  0  0  0
 72 73  1  0  0  0  0
M  CHG  1  81   1
M  ISO  4  38 100  61 101  76 100  88 101
M  END
> <Batch ID>
0157

> <Smiles>
CNC(C)C(=O)NC(C(=O)N1Cc2cc([101O:1][101CH:1]3CC3c3c(C)cc(C4CC4)c(OC4CC[100N:0]([100C:0](=O)N5CCCC(n6nc(-c7ccc(Oc8ccc(F)cc8F)cc7)c(C(N)=O)c6N)C5)CC4)c3C)ccc2CC1C(=O)NC1CCCc2ccccc21)C(C)(C)C

> <Shape>
0.271

> <Color>
0.073

> <Negative vol penalty>
0.000

$$$$

  -OEChem-04052321593D

 86 95  0     1  0  0  0  0  0999 V2000
  -16.3696  -29.6125   23.7842 C   0  0  0  0  0  0  0  0  0  0  0  0
  -17.1278  -28.6284   24.4103 C   0  0  0  0  0  0  0  0  0  0  0  0
  -24.2773   -9.8692   21.4062 C   0  0  0  0  0  0  0  0  0  0  0  0
  -24.6264  -10.8728   23.5760 C   0  0  0  0  0  0  0  0  0  0  0  0
  -16.8901  -30.3003   22.6887 C   0  0  0  0  0  0  0  0  0  0  0  0
  -18.4065  -28.3306   23.9406 C   0  0  0  0  0  0  0  0  0  0  0  0
  -24.8478  -26.2087   26.2479 C   0  0  0  0  0  0  0  0  0  0  0  0
  -23.8457   -8.6932   22.0195 C   0  0  0  0  0  0  0  0  0  0  0  0
  -24.1947   -9.6968   24.1894 C   0  0  0  0  0  0  0  0  0  0  0  0
  -25.8151  -25.2364   25.9973 C   0  0  0  0  0  0  0  0  0  0  0  0
  -21.0321   -7.5448   23.5022 C   0  0  0  0  0  0  0  0  0  0  0  0
  -19.8834   -6.9349   22.9984 C   0  0  0  0  0  0  0  0  0  0  0  0
  -26.6417  -26.5443   24.1465 C   0  0  0  0  0  0  0  0  0  0  0  0
  -31.7327  -22.6595   23.4463 C   0  0  0  0  0  0  0  0  0  0  0  0
  -21.1569   -4.9413   22.5078 C   0  0  0  0  0  0  0  0  0  0  0  0
  -24.6678  -10.9590   22.1844 C   0  0  0  0  0  0  0  0  0  0  0  0
  -24.3233  -13.2741   21.1699 C   0  0  0  0  0  0  0  0  0  0  0  0
  -18.1796  -30.0175   22.2114 C   0  0  0  0  0  0  0  0  0  0  0  0
  -24.7631  -27.3528   25.4415 C   0  0  0  0  0  0  0  0  0  0  0  0
  -18.9442  -29.0143   22.8369 C   0  0  0  0  0  0  0  0  0  0  0  0
  -25.6741  -27.5308   24.3905 C   0  0  0  0  0  0  0  0  0  0  0  0
  -29.8597  -21.1727   23.1021 C   0  0  0  0  0  0  0  0  0  0  0  0
  -30.8548  -23.7358   23.5743 C   0  0  0  0  0  0  0  0  0  0  0  0
  -28.9817  -22.2491   23.2302 C   0  0  0  0  0  0  0  0  0  0  0  0
  -29.4793  -23.5306   23.4663 C   0  0  0  0  0  0  0  0  0  0  0  0
  -23.8043   -8.6070   23.4111 C   0  0  0  0  0  0  0  0  0  0  0  0
  -26.7104  -25.4027   24.9447 C   0  0  0  0  0  0  0  0  0  0  0  0
  -22.2434   -6.8530   23.5088 C   0  0  0  0  0  0  0  0  0  0  0  0
  -31.2351  -21.3779   23.2102 C   0  0  0  0  0  0  0  0  0  0  0  0
  -19.9457   -5.6331   22.5012 C   0  0  0  0  0  0  0  0  0  0  0  0
  -22.3058   -5.5513   23.0116 C   0  0  0  0  0  0  0  0  0  0  0  0
  -25.1144  -12.1739   21.5514 C   0  0  0  0  0  0  0  0  0  0  0  0
  -25.2136  -14.1619   20.6170 C   0  0  0  0  0  0  0  0  0  0  0  0
  -22.9101  -13.4757   21.3035 C   0  0  0  0  0  0  0  0  0  0  0  0
  -22.5497  -28.5851   23.5216 C   0  0  0  0  0  0  0  0  0  0  0  0
  -24.6378  -31.0613   23.3465 C   0  0  0  0  0  0  0  0  0  0  0  0
  -27.8548  -32.1642   23.6323 C   0  0  0  0  0  0  0  0  0  0  0  0
  -30.1183  -16.8122   20.7497 C   0  0  0  0  0  0  0  0  0  0  0  0
  -18.6811  -30.7545   20.9948 C   0  0  0  0  0  0  0  0  0  0  0  0
  -23.7311  -28.4051   25.7415 C   0  0  0  0  0  0  0  0  0  0  0  0
  -25.6382  -28.7508   23.5081 C   0  0  0  0  0  0  0  0  0  0  0  0
  -20.1897  -30.6396   20.7920 C   0  0  0  0  0  0  0  0  0  0  0  0
  -30.0390  -13.6037   19.2725 C   0  0  0  0  0  0  0  0  0  0  0  0
  -20.6420  -29.1923   20.9576 C   0  0  0  0  0  0  0  0  0  0  0  0
  -28.7054  -13.0146   19.7238 C   0  0  0  0  0  0  0  0  0  0  0  0
  -29.7017  -18.6957   23.8695 C   0  0  0  0  0  0  0  0  0  0  0  0
  -30.6683  -14.4322   20.3844 C   0  0  0  0  0  0  0  0  0  0  0  0
  -29.3817  -17.4027   23.1316 C   0  0  0  0  0  0  0  0  0  0  0  0
  -29.8189  -19.1398   21.5399 C   0  0  0  0  0  0  0  0  0  0  0  0
  -28.4363  -14.9901   21.3104 C   0  0  0  0  0  0  0  0  0  0  0  0
  -29.3277  -19.7800   22.8459 C   0  0  2  0  0  0  0  0  0  0  0  0
  -20.3450  -28.6800   22.3722 C   0  0  1  0  0  0  0  0  0  0  0  0
  -23.4073  -29.2847   24.5378 C   0  0  1  0  0  0  0  0  0  0  0  0
  -27.7659  -14.1221   20.2255 C   0  0  2  0  0  0  0  0  0  0  0  0
  -31.4139  -25.0979   23.8258 C   0  0  0  0  0  0  0  0  0  0  0  0
  -27.5065  -22.0282   23.1145 C   0  0  0  0  0  0  0  0  0  0  0  0
  -29.2574  -34.2311   23.3915 C   0  0  0  0  0  0  0  0  0  0  0  0
  -24.5088  -30.7921   20.3100 C   0  0  0  0  0  0  0  0  0  0  0  0
  -26.5849  -32.1843   20.1681 C   0  0  0  0  0  0  0  0  0  0  0  0
  -24.5038  -33.1479   21.1496 C   0  0  0  0  0  0  0  0  0  0  0  0
  -28.6710  -32.0819   26.4759 C   0  0  0  0  0  0  0  0  0  0  0  0
  -33.4962  -20.6409   23.2125 C   0  0  0  0  0  0  0  0  0  0  0  0
  -28.5402  -24.6871   23.6048 C   0  0  0  0  0  0  0  0  0  1  0  0
  -25.8032  -31.4160   22.4550 C   0  0  1  0  0  0  0  0  0  0  0  0
  -28.4480  -33.3660   24.3451 C   0  0  2  0  0  0  0  0  0  0  0  0
  -25.3499  -31.8611   21.0359 C   0  0  0  0  0  0  0  0  0  0  0  0
  -26.4077  -12.3447   21.2648 N   0  0  0  0  0  0  0  0  0  0  0  0
  -26.4362  -13.5626   20.6974 N   0  0  0  0  0  0  0  0  0  0  0  0
  -24.6069  -29.7484   23.8376 N   0  0  0  0  0  0  0  0  0  0  0  0
  -29.7557  -15.4666   20.8752 N   0  0  0  0  0  0  0  0  0  0  0  0
  -29.6814  -17.6997   21.7324 N   0  0  0  0  0  0  0  0  0  0  0  0
  -25.0622  -15.3888   20.0747 N   0  0  0  0  0  0  0  0  0  0  0  0
  -22.1436  -12.4622   21.8948 N   0  0  0  0  0  0  0  0  0  0  0  0
  -21.3243  -29.1873   23.3093 N   0  0  0  0  0  0  0  0  0  0  0  0
  -26.5786  -32.4193   23.1766 N   0  0  0  0  0  0  0  0  0  0  0  0
  -29.3426  -32.9225   25.4515 N   0  3  0  0  0  0  0  0  0  0  0  0
  -22.3414  -14.5166   20.8954 O   0  0  0  0  0  0  0  0  0  0  0  0
  -22.9694  -27.5746   22.9698 O   0  0  0  0  0  0  0  0  0  0  0  0
  -23.7900  -31.9197   23.6037 O   0  0  0  0  0  0  0  0  0  0  0  0
  -28.4640  -31.1062   23.4904 O   0  0  0  0  0  0  0  0  0  0  0  0
  -30.8384  -17.1999   19.8197 O   0  0  0  0  0  0  0  0  0  0  0  0
  -23.3829   -7.4597   24.0100 O   0  0  0  0  0  0  0  0  0  0  0  0
  -32.1080  -20.3389   23.0880 O   0  0  0  0  0  0  0  0  0  0  0  0
  -27.6621  -24.4479   24.6957 O   0  0  0  0  0  0  0  0  0  1  0  0
  -18.8421   -5.0470   22.0189 F   0  0  0  0  0  0  0  0  0  0  0  0
  -23.4663   -4.8812   23.0164 F   0  0  0  0  0  0  0  0  0  0  0  0
  1  2  1  0  0  0  0
  1  5  2  0  0  0  0
  2  6  2  0  0  0  0
  3  8  2  0  0  0  0
  3 16  1  0  0  0  0
  4  9  1  0  0  0  0
  4 16  2  0  0  0  0
  5 18  1  0  0  0  0
  6 20  1  0  0  0  0
  7 10  2  0  0  0  0
  7 19  1  0  0  0  0
  8 26  1  0  0  0  0
  9 26  2  0  0  0  0
 10 27  1  0  0  0  0
 11 12  2  0  0  0  0
 11 28  1  0  0  0  0
 12 30  1  0  0  0  0
 13 21  1  0  0  0  0
 13 27  2  0  0  0  0
 14 23  2  0  0  0  0
 14 29  1  0  0  0  0
 15 30  2  0  0  0  0
 15 31  1  0  0  0  0
 16 32  1  0  0  0  0
 17 32  1  0  0  0  0
 17 33  2  0  0  0  0
 17 34  1  0  0  0  0
 18 20  2  0  0  0  0
 18 39  1  0  0  0  0
 19 21  2  0  0  0  0
 19 40  1  0  0  0  0
 20 52  1  0  0  0  0
 21 41  1  0  0  0  0
 22 24  1  0  0  0  0
 22 29  2  0  0  0  0
 22 51  1  0  0  0  0
 23 25  1  0  0  0  0
 23 55  1  0  0  0  0
 24 25  2  0  0  0  0
 24 56  1  0  0  0  0
 25 63  1  0  0  0  0
 26 82  1  0  0  0  0
 27 84  1  0  0  0  0
 28 31  2  0  0  0  0
 28 82  1  0  0  0  0
 29 83  1  0  0  0  0
 30 85  1  0  0  0  0
 31 86  1  0  0  0  0
 32 67  2  0  0  0  0
 33 68  1  0  0  0  0
 33 72  1  0  0  0  0
 34 73  1  0  0  0  0
 34 77  2  0  0  0  0
 35 53  1  0  0  0  0
 35 74  1  0  0  0  0
 35 78  2  0  0  0  0
 36 64  1  0  0  0  0
 36 69  1  0  0  0  0
 36 79  2  0  0  0  0
 37 65  1  0  0  0  0
 37 75  1  0  0  0  0
 37 80  2  0  0  0  0
 38 70  1  0  0  0  0
 38 71  1  0  0  0  0
 38 81  2  0  0  0  0
 39 42  1  0  0  0  0
 40 53  1  0  0  0  0
 41 69  1  0  0  0  0
 42 44  1  0  0  0  0
 43 45  1  0  0  0  0
 43 47  1  0  0  0  0
 44 52  1  0  0  0  0
 45 54  1  0  0  0  0
 46 48  1  0  0  0  0
 46 51  1  0  0  0  0
 47 70  1  0  0  0  0
 48 71  1  0  0  0  0
 49 51  1  0  0  0  0
 49 71  1  0  0  0  0
 50 54  1  0  0  0  0
 50 70  1  0  0  0  0
 52 74  1  0  0  0  0
 53 69  1  0  0  0  0
 54 68  1  0  0  0  0
 57 65  1  0  0  0  0
 58 66  1  0  0  0  0
 59 66  1  0  0  0  0
 60 66  1  0  0  0  0
 61 76  1  0  0  0  0
 62 83  1  0  0  0  0
 63 84  1  0  0  0  0
 64 66  1  0  0  0  0
 64 75  1  0  0  0  0
 65 76  1  0  0  0  0
 67 68  1  0  0  0  0
M  CHG  1  76   1
M  ISO  4  38 100  63 101  71 100  84 101
M  END
> <Batch ID>
0157

> <Smiles>
CNC(C)C(=O)NC(C(=O)N1Cc2cc([101O:1][101CH2:1]c3c(C)cc(OC)c(C4CC[100N:0]([100C:0](=O)N5CCCC(n6nc(-c7ccc(Oc8ccc(F)cc8F)cc7)c(C(N)=O)c6N)C5)C4)c3C)ccc2CC1C(=O)NC1CCCc2ccccc21)C(C)(C)C

> <Shape>
0.263

> <Color>
0.159

> <Negative vol penalty>
0.000

$$$$

  -OEChem-04052321593D

 90100  0     1  0  0  0  0  0999 V2000
  -17.2724  -26.3857   23.0613 C   0  0  0  0  0  0  0  0  0  0  0  0
  -18.5055  -25.9343   22.6017 C   0  0  0  0  0  0  0  0  0  0  0  0
  -19.7377  -13.4617   20.6546 C   0  0  0  0  0  0  0  0  0  0  0  0
  -20.6752  -13.8801   18.4676 C   0  0  0  0  0  0  0  0  0  0  0  0
  -16.9663  -27.7450   23.0117 C   0  0  0  0  0  0  0  0  0  0  0  0
  -19.4328  -26.8420   22.0911 C   0  0  0  0  0  0  0  0  0  0  0  0
  -25.5295  -26.5509   22.5924 C   0  0  0  0  0  0  0  0  0  0  0  0
  -27.4394  -20.7695   20.0718 C   0  0  0  0  0  0  0  0  0  0  0  0
  -28.7562  -21.1834   19.8759 C   0  0  0  0  0  0  0  0  0  0  0  0
  -19.0736  -12.3413   20.1556 C   0  0  0  0  0  0  0  0  0  0  0  0
  -20.0111  -12.7596   17.9685 C   0  0  0  0  0  0  0  0  0  0  0  0
  -26.5219  -26.1028   21.7218 C   0  0  0  0  0  0  0  0  0  0  0  0
  -19.8308   -9.1402   19.3729 C   0  0  0  0  0  0  0  0  0  0  0  0
  -19.8743   -7.9700   20.1307 C   0  0  0  0  0  0  0  0  0  0  0  0
  -26.6526  -22.5797   18.6707 C   0  0  0  0  0  0  0  0  0  0  0  0
  -26.8740  -28.3668   20.9673 C   0  0  0  0  0  0  0  0  0  0  0  0
  -17.4642   -7.9900   20.2997 C   0  0  0  0  0  0  0  0  0  0  0  0
  -20.5385  -14.2312   19.8106 C   0  0  0  0  0  0  0  0  0  0  0  0
  -27.9713  -23.0073   18.4867 C   0  0  0  0  0  0  0  0  0  0  0  0
  -22.1783  -15.4219   21.3601 C   0  0  0  0  0  0  0  0  0  0  0  0
  -17.8941  -28.6710   22.5093 C   0  0  0  0  0  0  0  0  0  0  0  0
  -25.1938  -27.9113   22.6492 C   0  0  0  0  0  0  0  0  0  0  0  0
  -19.1383  -28.2148   22.0336 C   0  0  0  0  0  0  0  0  0  0  0  0
  -25.8788  -28.8300   21.8413 C   0  0  0  0  0  0  0  0  0  0  0  0
  -26.3899  -21.4662   19.4708 C   0  0  0  0  0  0  0  0  0  0  0  0
  -29.0153  -22.3090   19.0947 C   0  0  0  0  0  0  0  0  0  0  0  0
  -19.2103  -11.9902   18.8126 C   0  0  0  0  0  0  0  0  0  0  0  0
  -27.1923  -27.0103   20.9069 C   0  0  0  0  0  0  0  0  0  0  0  0
  -18.6041   -9.7354   19.0785 C   0  0  0  0  0  0  0  0  0  0  0  0
  -18.6910   -7.3949   20.5941 C   0  0  0  0  0  0  0  0  0  0  0  0
  -17.4208   -9.1602   19.5419 C   0  0  0  0  0  0  0  0  0  0  0  0
  -21.2243  -15.3891   20.3254 C   0  0  0  0  0  0  0  0  0  0  0  0
  -22.5225  -16.7472   21.4679 C   0  0  0  0  0  0  0  0  0  0  0  0
  -28.2378  -24.1658   17.6080 C   0  0  0  0  0  0  0  0  0  0  0  0
  -22.7061  -14.3502   22.1529 C   0  0  0  0  0  0  0  0  0  0  0  0
  -22.5641  -29.5989   22.0658 C   0  0  0  0  0  0  0  0  0  0  0  0
  -24.3455  -32.0463   23.2316 C   0  0  0  0  0  0  0  0  0  0  0  0
  -27.4438  -33.3437   23.8352 C   0  0  0  0  0  0  0  0  0  0  0  0
  -23.8947  -21.6263   19.1627 C   0  0  0  0  0  0  0  0  0  0  0  0
  -17.4998  -30.1246   22.4320 C   0  0  0  0  0  0  0  0  0  0  0  0
  -24.1395  -28.3823   23.6131 C   0  0  0  0  0  0  0  0  0  0  0  0
  -25.5699  -30.3037   21.8791 C   0  0  0  0  0  0  0  0  0  0  0  0
  -18.6830  -31.0664   22.2231 C   0  0  0  0  0  0  0  0  0  0  0  0
  -20.4243  -20.8726   19.4184 C   0  0  0  0  0  0  0  0  0  0  0  0
  -19.5967  -30.5393   21.1212 C   0  0  0  0  0  0  0  0  0  0  0  0
  -31.1560  -26.7769   15.1419 C   0  0  0  0  0  0  0  0  0  0  0  0
  -32.0260  -26.3870   16.3041 C   0  0  0  0  0  0  0  0  0  0  0  0
  -20.4016  -19.3815   19.7623 C   0  0  0  0  0  0  0  0  0  0  0  0
  -21.5517  -21.2131   18.4453 C   0  0  0  0  0  0  0  0  0  0  0  0
  -22.8636  -19.2703   19.2029 C   0  0  0  0  0  0  0  0  0  0  0  0
  -20.1802  -29.1715   21.4957 C   0  0  1  0  0  0  0  0  0  0  0  0
  -23.5224  -29.7200   23.2167 C   0  0  1  0  0  0  0  0  0  0  0  0
  -30.6524  -25.7924   16.1608 C   0  0  0  0  0  0  0  0  0  0  0  0
  -21.7853  -18.8900   20.2306 C   0  0  2  0  0  0  0  0  0  0  0  0
  -29.8904  -25.0853   19.3199 C   0  0  2  0  0  0  0  0  0  0  0  0
  -30.7091  -23.8033   19.6181 C   0  0  2  0  0  0  0  0  0  0  0  0
  -32.1843  -24.0228   19.2751 C   0  0  0  0  0  0  0  0  0  0  0  0
  -28.5804  -35.3793   24.7635 C   0  0  0  0  0  0  0  0  0  0  0  0
  -29.6284  -25.7000   21.7473 C   0  0  0  0  0  0  0  0  0  0  0  0
  -23.6946  -33.5742   20.6719 C   0  0  0  0  0  0  0  0  0  0  0  0
  -25.5714  -35.1406   21.2124 C   0  0  0  0  0  0  0  0  0  0  0  0
  -23.6217  -34.9531   22.7571 C   0  0  0  0  0  0  0  0  0  0  0  0
  -28.7654  -31.7752   25.9687 C   0  0  0  0  0  0  0  0  0  0  0  0
  -29.5655  -26.1784   17.1053 C   0  0  0  0  0  0  0  0  0  0  0  0
  -25.2920  -33.0592   22.6338 C   0  0  1  0  0  0  0  0  0  0  0  0
  -28.0415  -33.9909   25.0714 C   0  0  2  0  0  0  0  0  0  0  0  0
  -28.9015  -25.4222   20.4456 C   0  0  1  0  0  0  0  0  0  1  0  0
  -24.5496  -34.1538   21.8165 C   0  0  0  0  0  0  0  0  0  0  0  0
  -20.9782  -16.5976   19.8125 N   0  0  0  0  0  0  0  0  0  0  0  0
  -21.7824  -17.4022   20.5280 N   0  0  0  0  0  0  0  0  0  0  0  0
  -29.2291  -25.0766   17.9987 N   0  0  0  0  0  0  0  0  0  0  0  0
  -24.5267  -30.7143   22.8334 N   0  0  0  0  0  0  0  0  0  0  0  0
  -22.8326  -20.7206   18.9569 N   0  0  0  0  0  0  0  0  0  0  0  0
  -23.3829  -17.4045   22.2741 N   0  0  0  0  0  0  0  0  0  0  0  0
  -22.2436  -13.0495   21.9109 N   0  0  0  0  0  0  0  0  0  0  0  0
  -25.0525  -21.0487   19.6827 N   0  0  0  0  0  0  0  0  0  0  0  0
  -21.2631  -29.3262   22.4432 N   0  0  0  0  0  0  0  0  0  0  0  0
  -26.0881  -33.5772   23.7412 N   0  0  0  0  0  0  0  0  0  0  0  0
  -29.1590  -33.1600   25.6022 N   0  3  0  0  0  0  0  0  0  0  0  0
  -27.5708  -24.2520   16.5774 O   0  0  0  0  0  0  0  0  0  0  0  0
  -23.5504  -14.5427   23.0605 O   0  0  0  0  0  0  0  0  0  0  0  0
  -22.9744  -29.7437   20.9202 O   0  0  0  0  0  0  0  0  0  0  0  0
  -23.4819  -32.4222   24.0282 O   0  0  0  0  0  0  0  0  0  0  0  0
  -28.1133  -32.6989   23.0311 O   0  0  0  0  0  0  0  0  0  0  0  0
  -23.7763  -22.8307   18.9228 O   0  0  0  0  0  0  0  0  0  0  0  0
  -30.3125  -22.6554   18.8536 O   0  0  0  0  0  0  0  0  0  0  0  0
  -18.5626  -10.8967   18.3253 O   0  0  0  0  0  0  0  0  0  0  0  0
  -28.1683  -26.5721   20.0493 O   0  0  0  0  0  0  0  0  0  1  0  0
  -18.7327   -6.2703   21.3205 F   0  0  0  0  0  0  0  0  0  0  0  0
  -16.2393   -9.7268   19.2613 F   0  0  0  0  0  0  0  0  0  0  0  0
  1  2  1  0  0  0  0
  1  5  2  0  0  0  0
  2  6  2  0  0  0  0
  3 10  2  0  0  0  0
  3 18  1  0  0  0  0
  4 11  1  0  0  0  0
  4 18  2  0  0  0  0
  5 21  1  0  0  0  0
  6 23  1  0  0  0  0
  7 12  2  0  0  0  0
  7 22  1  0  0  0  0
  8  9  2  0  0  0  0
  8 25  1  0  0  0  0
  9 26  1  0  0  0  0
 10 27  1  0  0  0  0
 11 27  2  0  0  0  0
 12 28  1  0  0  0  0
 13 14  2  0  0  0  0
 13 29  1  0  0  0  0
 14 30  1  0  0  0  0
 15 19  1  0  0  0  0
 15 25  2  0  0  0  0
 16 24  1  0  0  0  0
 16 28  2  0  0  0  0
 17 30  2  0  0  0  0
 17 31  1  0  0  0  0
 18 32  1  0  0  0  0
 19 26  2  0  0  0  0
 19 34  1  0  0  0  0
 20 32  1  0  0  0  0
 20 33  2  0  0  0  0
 20 35  1  0  0  0  0
 21 23  2  0  0  0  0
 21 40  1  0  0  0  0
 22 24  2  0  0  0  0
 22 41  1  0  0  0  0
 23 51  1  0  0  0  0
 24 42  1  0  0  0  0
 25 76  1  0  0  0  0
 26 86  1  0  0  0  0
 27 87  1  0  0  0  0
 28 88  1  0  0  0  0
 29 31  2  0  0  0  0
 29 87  1  0  0  0  0
 30 89  1  0  0  0  0
 31 90  1  0  0  0  0
 32 69  2  0  0  0  0
 33 70  1  0  0  0  0
 33 74  1  0  0  0  0
 34 71  1  0  0  0  0
 34 80  2  0  0  0  0
 35 75  1  0  0  0  0
 35 81  2  0  0  0  0
 36 52  1  0  0  0  0
 36 77  1  0  0  0  0
 36 82  2  0  0  0  0
 37 65  1  0  0  0  0
 37 72  1  0  0  0  0
 37 83  2  0  0  0  0
 38 66  1  0  0  0  0
 38 78  1  0  0  0  0
 38 84  2  0  0  0  0
 39 73  1  0  0  0  0
 39 76  1  0  0  0  0
 39 85  2  0  0  0  0
 40 43  1  0  0  0  0
 41 52  1  0  0  0  0
 42 72  1  0  0  0  0
 43 45  1  0  0  0  0
 44 48  1  0  0  0  0
 44 49  1  0  0  0  0
 45 51  1  0  0  0  0
 46 47  1  0  0  0  0
 46 53  1  0  0  0  0
 47 53  1  0  0  0  0
 48 54  1  0  0  0  0
 49 73  1  0  0  0  0
 50 54  1  0  0  0  0
 50 73  1  0  0  0  0
 51 77  1  0  0  0  0
 52 72  1  0  0  0  0
 53 64  1  0  0  0  0
 54 70  1  0  0  0  0
 55 56  1  0  0  0  0
 55 67  1  0  0  0  0
 55 71  1  0  0  0  0
 56 57  1  0  0  0  0
 56 86  1  0  0  0  0
 58 66  1  0  0  0  0
 59 67  1  0  0  0  0
 60 68  1  0  0  0  0
 61 68  1  0  0  0  0
 62 68  1  0  0  0  0
 63 79  1  0  0  0  0
 64 71  1  0  0  0  0
 65 68  1  0  0  0  0
 65 78  1  0  0  0  0
 66 79  1  0  0  0  0
 67 88  1  0  0  0  0
 69 70  1  0  0  0  0
M  CHG  1  79   1
M  ISO  4  39 100  67 101  76 100  88 101
M  END
> <Batch ID>
0157

> <Smiles>
CNC(C)C(=O)NC(C(=O)N1Cc2cc([101O:1][101CH:1](C)C3C(C)Oc4ccc([100NH:0][100C:0](=O)N5CCCC(n6nc(-c7ccc(Oc8ccc(F)cc8F)cc7)c(C(N)=O)c6N)C5)cc4C(=O)N3CC3CC3)ccc2CC1C(=O)NC1CCCc2ccccc21)C(C)(C)C

> <Shape>
0.205

> <Color>
0.090

> <Negative vol penalty>
0.000

$$$$

  -OEChem-04052321593D

 89 98  0     1  0  0  0  0  0999 V2000
  -26.2608  -23.0555   18.3442 C   0  0  0  0  0  0  0  0  0  0  0  0
  -27.1732  -22.8607   19.1000 C   0  0  0  0  0  0  0  0  0  0  0  0
  -26.3521  -37.8089   22.5768 C   0  0  0  0  0  0  0  0  0  0  0  0
  -26.9945  -36.8916   21.7515 C   0  0  0  0  0  0  0  0  0  0  0  0
  -23.0067  -10.1337   21.6735 C   0  0  0  0  0  0  0  0  0  0  0  0
  -24.4519  -10.7678   23.5028 C   0  0  0  0  0  0  0  0  0  0  0  0
  -25.6921  -37.3701   23.7239 C   0  0  0  0  0  0  0  0  0  0  0  0
  -26.9783  -35.5349   22.0734 C   0  0  0  0  0  0  0  0  0  0  0  0
  -30.3534  -22.3251   21.7984 C   0  0  0  0  0  0  0  0  0  0  0  0
  -26.8888  -29.0674   18.9945 C   0  0  0  0  0  0  0  0  0  0  0  0
  -29.5357  -23.4508   21.8749 C   0  0  0  0  0  0  0  0  0  0  0  0
  -22.4271   -9.1485   22.4729 C   0  0  0  0  0  0  0  0  0  0  0  0
  -23.8723   -9.7826   24.3022 C   0  0  0  0  0  0  0  0  0  0  0  0
  -27.5736  -27.8532   19.0192 C   0  0  0  0  0  0  0  0  0  0  0  0
  -23.1951   -6.0333   23.5358 C   0  0  0  0  0  0  0  0  0  0  0  0
  -23.0031   -4.7721   22.9717 C   0  0  0  0  0  0  0  0  0  0  0  0
  -26.3345  -27.2013   20.9837 C   0  0  0  0  0  0  0  0  0  0  0  0
  -20.6251   -4.9636   23.3532 C   0  0  0  0  0  0  0  0  0  0  0  0
  -28.2662  -22.6272   20.0058 C   0  0  0  0  0  0  0  0  0  0  0  0
  -24.0192  -10.9434   22.1885 C   0  0  0  0  0  0  0  0  0  0  0  0
  -23.9712  -13.0532   20.7553 C   0  0  0  0  0  0  0  0  0  0  0  0
  -25.6596  -36.0062   24.0549 C   0  0  0  0  0  0  0  0  0  0  0  0
  -30.1391  -21.3266   20.8270 C   0  0  0  0  0  0  0  0  0  0  0  0
  -25.9279  -29.3626   19.9723 C   0  0  0  0  0  0  0  0  0  0  0  0
  -26.3184  -35.0776   23.2267 C   0  0  0  0  0  0  0  0  0  0  0  0
  -25.6372  -28.4188   20.9677 C   0  0  0  0  0  0  0  0  0  0  0  0
  -29.0791  -21.4776   19.9133 C   0  0  0  0  0  0  0  0  0  0  0  0
  -28.4898  -23.6022   20.9768 C   0  0  0  0  0  0  0  0  0  0  0  0
  -22.8599   -8.9730   23.7872 C   0  0  0  0  0  0  0  0  0  0  0  0
  -27.2986  -26.9211   20.0156 C   0  0  0  0  0  0  0  0  0  0  0  0
  -22.1021   -6.7596   24.0086 C   0  0  0  0  0  0  0  0  0  0  0  0
  -21.7181   -4.2372   22.8804 C   0  0  0  0  0  0  0  0  0  0  0  0
  -20.8171   -6.2247   23.9173 C   0  0  0  0  0  0  0  0  0  0  0  0
  -24.6187  -11.9609   21.3630 C   0  0  0  0  0  0  0  0  0  0  0  0
  -24.9709  -13.7161   20.0863 C   0  0  0  0  0  0  0  0  0  0  0  0
  -22.5896  -13.4345   20.7922 C   0  0  0  0  0  0  0  0  0  0  0  0
  -25.6247  -31.5912   22.2185 C   0  0  0  0  0  0  0  0  0  0  0  0
  -22.7049  -30.2360   22.6194 C   0  0  0  0  0  0  0  0  0  0  0  0
  -20.7147  -27.4858   22.2701 C   0  0  0  0  0  0  0  0  0  0  0  0
  -30.1453  -15.7978   19.8898 C   0  0  0  0  0  0  0  0  0  0  0  0
  -24.9737  -35.5849   25.3303 C   0  0  0  0  0  0  0  0  0  0  0  0
  -31.0815  -20.1502   20.8081 C   0  0  0  0  0  0  0  0  0  0  0  0
  -25.1789  -30.6658   19.9161 C   0  0  0  0  0  0  0  0  0  0  0  0
  -24.6002  -28.6790   22.0285 C   0  0  0  0  0  0  0  0  0  0  0  0
  -24.6846  -34.0877   25.4005 C   0  0  0  0  0  0  0  0  0  0  0  0
  -30.3966  -18.8064   21.0320 C   0  0  0  0  0  0  0  0  0  0  0  0
  -29.7403  -12.3497   19.1002 C   0  0  0  0  0  0  0  0  0  0  0  0
  -25.9126  -33.2866   24.9798 C   0  0  0  0  0  0  0  0  0  0  0  0
  -28.3214  -12.0302   19.5739 C   0  0  0  0  0  0  0  0  0  0  0  0
  -30.4357  -13.3417   20.0300 C   0  0  0  0  0  0  0  0  0  0  0  0
  -28.2689  -14.2693   20.7497 C   0  0  0  0  0  0  0  0  0  0  0  0
  -28.7614  -20.4799   18.8142 C   0  0  2  0  0  0  0  0  0  0  0  0
  -26.3019  -33.5949   23.5289 C   0  0  1  0  0  0  0  0  0  0  0  0
  -24.5878  -31.0737   21.2620 C   0  0  1  0  0  0  0  0  0  0  0  0
  -27.5072  -13.3159   19.8131 C   0  0  2  0  0  0  0  0  0  0  0  0
  -29.6986  -18.2372   19.7946 C   0  0  2  0  0  0  0  0  0  0  0  0
  -28.4804  -19.0500   19.3284 C   0  0  2  0  0  0  0  0  0  0  0  0
  -18.3854  -26.6694   22.7232 C   0  0  0  0  0  0  0  0  0  0  0  0
  -29.1763  -19.8971   16.4095 C   0  0  0  0  0  0  0  0  0  0  0  0
  -30.1499  -21.9985   17.3791 C   0  0  0  0  0  0  0  0  0  0  0  0
  -23.3866  -29.9412   25.5788 C   0  0  0  0  0  0  0  0  0  0  0  0
  -21.4969  -28.3112   25.7802 C   0  0  0  0  0  0  0  0  0  0  0  0
  -21.0400  -30.6721   25.1166 C   0  0  0  0  0  0  0  0  0  0  0  0
  -20.1987  -27.0070   19.3955 C   0  0  0  0  0  0  0  0  0  0  0  0
  -27.6364  -24.8261   21.0892 C   0  0  0  0  0  0  0  0  0  1  0  0
  -22.1541  -29.1142   23.4662 C   0  0  1  0  0  0  0  0  0  0  0  0
  -19.3134  -27.3210   21.7099 C   0  0  2  0  0  0  0  0  0  0  0  0
  -29.7635  -20.5506   17.6545 C   0  0  0  0  0  0  0  0  0  0  0  0
  -22.0404  -29.5053   24.9667 C   0  0  0  0  0  0  0  0  0  0  0  0
  -25.9285  -11.9281   21.1031 N   0  0  0  0  0  0  0  0  0  0  0  0
  -26.1120  -13.0080   20.3245 N   0  0  0  0  0  0  0  0  0  0  0  0
  -23.8992  -29.9703   21.9347 N   0  0  0  0  0  0  0  0  0  0  0  0
  -29.6123  -14.5392   20.2138 N   0  0  0  0  0  0  0  0  0  0  0  0
  -24.9765  -14.8298   19.3234 N   0  0  0  0  0  0  0  0  0  0  0  0
  -22.1615  -14.2971   21.8105 N   0  0  0  0  0  0  0  0  0  0  0  0
  -25.4239  -32.9006   22.6116 N   0  0  0  0  0  0  0  0  0  0  0  0
  -20.8894  -28.7230   22.8531 N   0  0  0  0  0  0  0  0  0  0  0  0
  -29.2961  -16.8797   20.0879 N   0  0  0  0  0  0  0  0  0  0  0  0
  -19.3417  -26.4726   20.4850 N   0  3  0  0  0  0  0  0  0  0  0  0
  -21.7559  -13.0094   19.9569 O   0  0  0  0  0  0  0  0  0  0  0  0
  -26.5384  -30.8563   22.5746 O   0  0  0  0  0  0  0  0  0  0  0  0
  -22.0941  -31.3062   22.5617 O   0  0  0  0  0  0  0  0  0  0  0  0
  -21.5677  -26.6037   22.2010 O   0  0  0  0  0  0  0  0  0  0  0  0
  -31.2910  -15.9458   19.4513 O   0  0  0  0  0  0  0  0  0  0  0  0
  -27.8595  -18.3211   18.2579 O   0  0  0  0  0  0  0  0  0  0  0  0
  -22.2943   -8.0119   24.5676 O   0  0  0  0  0  0  0  0  0  0  0  0
  -27.9709  -25.7267   20.0425 O   0  0  0  0  0  0  0  0  0  1  0  0
  -21.5337   -3.0268   22.3373 F   0  0  0  0  0  0  0  0  0  0  0  0
  -19.7631   -6.9183   24.3688 F   0  0  0  0  0  0  0  0  0  0  0  0
  1  2  3  0  0  0  0
  2 19  1  0  0  0  0
  3  4  1  0  0  0  0
  3  7  2  0  0  0  0
  4  8  2  0  0  0  0
  5 12  2  0  0  0  0
  5 20  1  0  0  0  0
  6 13  1  0  0  0  0
  6 20  2  0  0  0  0
  7 22  1  0  0  0  0
  8 25  1  0  0  0  0
  9 11  1  0  0  0  0
  9 23  2  0  0  0  0
 10 14  2  0  0  0  0
 10 24  1  0  0  0  0
 11 28  2  0  0  0  0
 12 29  1  0  0  0  0
 13 29  2  0  0  0  0
 14 30  1  0  0  0  0
 15 16  2  0  0  0  0
 15 31  1  0  0  0  0
 16 32  1  0  0  0  0
 17 26  1  0  0  0  0
 17 30  2  0  0  0  0
 18 32  2  0  0  0  0
 18 33  1  0  0  0  0
 19 27  2  0  0  0  0
 19 28  1  0  0  0  0
 20 34  1  0  0  0  0
 21 34  1  0  0  0  0
 21 35  2  0  0  0  0
 21 36  1  0  0  0  0
 22 25  2  0  0  0  0
 22 41  1  0  0  0  0
 23 27  1  0  0  0  0
 23 42  1  0  0  0  0
 24 26  2  0  0  0  0
 24 43  1  0  0  0  0
 25 53  1  0  0  0  0
 26 44  1  0  0  0  0
 27 52  1  0  0  0  0
 28 65  1  0  0  0  0
 29 86  1  0  0  0  0
 30 87  1  0  0  0  0
 31 33  2  0  0  0  0
 31 86  1  0  0  0  0
 32 88  1  0  0  0  0
 33 89  1  0  0  0  0
 34 70  2  0  0  0  0
 35 71  1  0  0  0  0
 35 74  1  0  0  0  0
 36 75  1  0  0  0  0
 36 80  2  0  0  0  0
 37 54  1  0  0  0  0
 37 76  1  0  0  0  0
 37 81  2  0  0  0  0
 38 66  1  0  0  0  0
 38 72  1  0  0  0  0
 38 82  2  0  0  0  0
 39 67  1  0  0  0  0
 39 77  1  0  0  0  0
 39 83  2  0  0  0  0
 40 73  1  0  0  0  0
 40 78  1  0  0  0  0
 40 84  2  0  0  0  0
 41 45  1  0  0  0  0
 42 46  1  0  0  0  0
 43 54  1  0  0  0  0
 44 72  1  0  0  0  0
 45 48  1  0  0  0  0
 46 56  1  0  0  0  0
 47 49  1  0  0  0  0
 47 50  1  0  0  0  0
 48 53  1  0  0  0  0
 49 55  1  0  0  0  0
 50 73  1  0  0  0  0
 51 55  1  0  0  0  0
 51 73  1  0  0  0  0
 52 57  1  0  0  0  0
 52 68  1  0  0  0  0
 53 76  1  0  0  0  0
 54 72  1  0  0  0  0
 55 71  1  0  0  0  0
 56 57  1  0  0  0  0
 56 78  1  0  0  0  0
 57 85  1  0  0  0  0
 58 67  1  0  0  0  0
 59 68  1  0  0  0  0
 60 68  1  0  0  0  0
 61 69  1  0  0  0  0
 62 69  1  0  0  0  0
 63 69  1  0  0  0  0
 64 79  1  0  0  0  0
 65 87  1  0  0  0  0
 66 69  1  0  0  0  0
 66 77  1  0  0  0  0
 67 79  1  0  0  0  0
 70 71  1  0  0  0  0
M  CHG  1  79   1
M  ISO  4  40 100  65 101  78 100  87 101
M  END
> <Batch ID>
0157

> <Smiles>
C#Cc1c([101CH2:1][101O:1]c2ccc3c(c2)CN(C(=O)C(NC(=O)C(C)NC)C(C)(C)C)C(C(=O)NC2CCCc4ccccc42)C3)ccc2c1C(C(C)C)C(O)C([100NH:0][100C:0](=O)N1CCCC(n3nc(-c4ccc(Oc5ccc(F)cc5F)cc4)c(C(N)=O)c3N)C1)CC2

> <Shape>
0.398

> <Color>
0.117

> <Negative vol penalty>
0.000

$$$$

  -OEChem-04052321593D

 90 99  0     1  0  0  0  0  0999 V2000
  -19.8360   -8.4248   19.6995 C   0  0  0  0  0  0  0  0  0  0  0  0
  -19.7686   -9.8142   19.7216 C   0  0  0  0  0  0  0  0  0  0  0  0
  -30.2899  -28.7334   20.1311 C   0  0  0  0  0  0  0  0  0  0  0  0
  -28.3627  -27.7243   19.0799 C   0  0  0  0  0  0  0  0  0  0  0  0
  -20.9711   -7.7753   20.1830 C   0  0  0  0  0  0  0  0  0  0  0  0
  -20.8359  -10.5549   20.2282 C   0  0  0  0  0  0  0  0  0  0  0  0
  -22.7836  -16.0200   18.2673 C   0  0  0  0  0  0  0  0  0  0  0  0
  -30.9794  -27.5255   20.0265 C   0  0  0  0  0  0  0  0  0  0  0  0
  -29.0523  -26.5164   18.9752 C   0  0  0  0  0  0  0  0  0  0  0  0
  -22.5618  -17.3162   18.7302 C   0  0  0  0  0  0  0  0  0  0  0  0
  -30.1780  -23.0675   18.7568 C   0  0  0  0  0  0  0  0  0  0  0  0
  -29.4996  -21.9010   19.1099 C   0  0  0  0  0  0  0  0  0  0  0  0
  -24.6328  -17.2237   19.9637 C   0  0  0  0  0  0  0  0  0  0  0  0
  -22.0675  -23.4193   22.2225 C   0  0  0  0  0  0  0  0  0  0  0  0
  -29.1859  -22.7602   21.3461 C   0  0  0  0  0  0  0  0  0  0  0  0
  -28.9815  -28.8328   19.6579 C   0  0  0  0  0  0  0  0  0  0  0  0
  -28.2353  -31.1251   18.8234 C   0  0  0  0  0  0  0  0  0  0  0  0
  -22.0568   -8.5088   20.6869 C   0  0  0  0  0  0  0  0  0  0  0  0
  -23.9283  -15.3106   18.6585 C   0  0  0  0  0  0  0  0  0  0  0  0
  -21.9860   -9.9146   20.7201 C   0  0  0  0  0  0  0  0  0  0  0  0
  -24.8681  -15.9195   19.5023 C   0  0  0  0  0  0  0  0  0  0  0  0
  -21.2105  -24.5188   22.0775 C   0  0  0  0  0  0  0  0  0  0  0  0
  -19.9272  -24.3316   21.5348 C   0  0  0  0  0  0  0  0  0  0  0  0
  -19.5371  -23.0528   21.1129 C   0  0  0  0  0  0  0  0  0  0  0  0
  -20.4011  -21.9669   21.2535 C   0  0  0  0  0  0  0  0  0  0  0  0
  -30.3607  -26.4170   19.4485 C   0  0  0  0  0  0  0  0  0  0  0  0
  -23.4850  -17.9172   19.5808 C   0  0  0  0  0  0  0  0  0  0  0  0
  -30.3604  -24.0804   19.6984 C   0  0  0  0  0  0  0  0  0  0  0  0
  -21.6643  -22.1496   21.8101 C   0  0  0  0  0  0  0  0  0  0  0  0
  -29.0036  -21.7473   20.4045 C   0  0  0  0  0  0  0  0  0  0  0  0
  -29.8644  -23.9267   20.9930 C   0  0  0  0  0  0  0  0  0  0  0  0
  -28.2684  -30.0802   19.7662 C   0  0  0  0  0  0  0  0  0  0  0  0
  -27.4251  -32.0764   19.3935 C   0  0  0  0  0  0  0  0  0  0  0  0
  -28.8792  -31.2267   17.5464 C   0  0  0  0  0  0  0  0  0  0  0  0
  -24.4598  -12.6218   20.2684 C   0  0  0  0  0  0  0  0  0  0  0  0
  -27.5410  -13.1849   19.4249 C   0  0  0  0  0  0  0  0  0  0  0  0
  -29.9228  -15.4438   18.4916 C   0  0  0  0  0  0  0  0  0  0  0  0
  -23.0379  -31.7909   23.4583 C   0  0  0  0  0  0  0  0  0  0  0  0
  -23.2430   -7.7609   21.2422 C   0  0  0  0  0  0  0  0  0  0  0  0
  -24.1662  -13.9230   18.1290 C   0  0  0  0  0  0  0  0  0  0  0  0
  -18.9917  -25.4976   21.3400 C   0  0  0  0  0  0  0  0  0  0  0  0
  -26.1230  -15.2082   19.9356 C   0  0  0  0  0  0  0  0  0  0  0  0
  -21.6566  -25.8736   22.5555 C   0  0  0  0  0  0  0  0  0  0  0  0
  -24.4846   -8.6316   21.4168 C   0  0  0  0  0  0  0  0  0  0  0  0
  -26.0181  -33.7288   23.6574 C   0  0  0  0  0  0  0  0  0  0  0  0
  -24.1215   -9.9499   22.0928 C   0  0  0  0  0  0  0  0  0  0  0  0
  -26.9297  -33.1078   22.5977 C   0  0  0  0  0  0  0  0  0  0  0  0
  -25.1696  -32.6722   24.3614 C   0  0  0  0  0  0  0  0  0  0  0  0
  -25.2985  -31.1845   22.4008 C   0  0  0  0  0  0  0  0  0  0  0  0
  -19.3284  -26.6946   22.2224 C   0  0  0  0  0  0  0  0  0  0  0  0
  -23.1334  -10.7538   21.2390 C   0  0  1  0  0  0  0  0  0  0  0  0
  -25.1110  -13.1038   19.0029 C   0  0  1  0  0  0  0  0  0  0  0  0
  -26.1333  -32.2176   21.6248 C   0  0  2  0  0  0  0  0  0  0  0  0
  -18.1908  -22.8324   20.4936 C   0  0  0  0  0  0  0  0  0  0  0  0
  -19.9815  -20.6021   20.8072 C   0  0  0  0  0  0  0  0  0  0  0  0
  -32.3579  -15.6115   17.9087 C   0  0  0  0  0  0  0  0  0  0  0  0
  -20.3725  -31.9605   21.5987 C   0  0  0  0  0  0  0  0  0  0  0  0
  -28.2624  -12.9457   22.3799 C   0  0  0  0  0  0  0  0  0  0  0  0
  -30.4546  -14.0384   21.8615 C   0  0  0  0  0  0  0  0  0  0  0  0
  -29.8782  -11.8465   20.8193 C   0  0  0  0  0  0  0  0  0  0  0  0
  -29.3218  -16.4345   15.7684 C   0  0  0  0  0  0  0  0  0  0  0  0
  -20.6072  -29.4659   21.8647 C   0  0  0  0  0  0  0  0  0  0  0  0
  -21.1645  -28.3217   22.7041 C   0  0  0  0  0  0  0  0  0  0  0  0
  -24.2416  -19.7902   20.9181 C   0  0  0  0  0  0  0  0  0  1  0  0
  -23.7736  -21.1856   21.2831 C   0  0  0  0  0  0  0  0  0  0  0  0
  -28.6961  -13.9399   20.0369 C   0  0  1  0  0  0  0  0  0  0  0  0
  -30.9476  -15.4225   17.3719 C   0  0  2  0  0  0  0  0  0  0  0  0
  -20.9879  -30.8407   22.4317 C   0  0  1  0  0  0  0  0  0  0  0  0
  -29.2983  -13.2056   21.2680 C   0  0  0  0  0  0  0  0  0  0  0  0
  -27.5375  -30.3428   20.8529 N   0  0  0  0  0  0  0  0  0  0  0  0
  -27.0376  -31.5636   20.5965 N   0  0  0  0  0  0  0  0  0  0  0  0
  -26.3075  -13.8508   19.3962 N   0  0  0  0  0  0  0  0  0  0  0  0
  -24.4386  -31.8633   23.3830 N   0  0  0  0  0  0  0  0  0  0  0  0
  -27.0136  -33.2933   18.9783 N   0  0  0  0  0  0  0  0  0  0  0  0
  -29.6760  -30.1582   17.1131 N   0  0  0  0  0  0  0  0  0  0  0  0
  -23.8227  -11.4020   20.1439 N   0  0  0  0  0  0  0  0  0  0  0  0
  -29.6481  -14.1752   18.9568 N   0  0  0  0  0  0  0  0  0  0  0  0
  -22.4230  -31.0079   22.4890 N   0  0  0  0  0  0  0  0  0  0  0  0
  -20.7926  -27.0160   22.0613 N   0  3  1  0  0  0  0  0  0  0  0  0
  -30.6676  -16.5105   16.3927 N   0  3  0  0  0  0  0  0  0  0  0  0
  -28.7650  -32.2420   16.8186 O   0  0  0  0  0  0  0  0  0  0  0  0
  -24.5314  -13.3053   21.2830 O   0  0  0  0  0  0  0  0  0  0  0  0
  -27.7280  -12.0489   18.9818 O   0  0  0  0  0  0  0  0  0  0  0  0
  -29.4194  -16.4823   18.9142 O   0  0  0  0  0  0  0  0  0  0  0  0
  -22.3833  -32.3848   24.3218 O   0  0  0  0  0  0  0  0  0  0  0  0
  -31.0334  -25.2382   19.3461 O   0  0  0  0  0  0  0  0  0  0  0  0
  -23.2706  -19.1821   20.0346 O   0  0  0  0  0  0  0  0  0  1  0  0
  -22.5259  -21.0950   21.9602 O   0  0  0  0  0  0  0  0  0  0  0  0
  -28.3508  -20.6277   20.7430 F   0  0  0  0  0  0  0  0  0  0  0  0
  -30.0355  -24.8968   21.9015 F   0  0  0  0  0  0  0  0  0  0  0  0
  1  2  1  0  0  0  0
  1  5  2  0  0  0  0
  2  6  2  0  0  0  0
  3  8  2  0  0  0  0
  3 16  1  0  0  0  0
  4  9  1  0  0  0  0
  4 16  2  0  0  0  0
  5 18  1  0  0  0  0
  6 20  1  0  0  0  0
  7 10  2  0  0  0  0
  7 19  1  0  0  0  0
  8 26  1  0  0  0  0
  9 26  2  0  0  0  0
 10 27  1  0  0  0  0
 11 12  2  0  0  0  0
 11 28  1  0  0  0  0
 12 30  1  0  0  0  0
 13 21  1  0  0  0  0
 13 27  2  0  0  0  0
 14 22  2  0  0  0  0
 14 29  1  0  0  0  0
 15 30  2  0  0  0  0
 15 31  1  0  0  0  0
 16 32  1  0  0  0  0
 17 32  1  0  0  0  0
 17 33  2  0  0  0  0
 17 34  1  0  0  0  0
 18 20  2  0  0  0  0
 18 39  1  0  0  0  0
 19 21  2  0  0  0  0
 19 40  1  0  0  0  0
 20 51  1  0  0  0  0
 21 42  1  0  0  0  0
 22 23  1  0  0  0  0
 22 43  1  0  0  0  0
 23 24  2  0  0  0  0
 23 41  1  0  0  0  0
 24 25  1  0  0  0  0
 24 54  1  0  0  0  0
 25 29  2  0  0  0  0
 25 55  1  0  0  0  0
 26 86  1  0  0  0  0
 27 87  1  0  0  0  0
 28 31  2  0  0  0  0
 28 86  1  0  0  0  0
 29 88  1  0  0  0  0
 30 89  1  0  0  0  0
 31 90  1  0  0  0  0
 32 70  2  0  0  0  0
 33 71  1  0  0  0  0
 33 74  1  0  0  0  0
 34 75  1  0  0  0  0
 34 81  2  0  0  0  0
 35 52  1  0  0  0  0
 35 76  1  0  0  0  0
 35 82  2  0  0  0  0
 36 66  1  0  0  0  0
 36 72  1  0  0  0  0
 36 83  2  0  0  0  0
 37 67  1  0  0  0  0
 37 77  1  0  0  0  0
 37 84  2  0  0  0  0
 38 73  1  0  0  0  0
 38 78  1  0  0  0  0
 38 85  2  0  0  0  0
 39 44  1  0  0  0  0
 40 52  1  0  0  0  0
 41 50  1  0  0  0  0
 42 72  1  0  0  0  0
 43 79  1  0  0  0  0
 44 46  1  0  0  0  0
 45 47  1  0  0  0  0
 45 48  1  0  0  0  0
 46 51  1  0  0  0  0
 47 53  1  0  0  0  0
 48 73  1  0  0  0  0
 49 53  1  0  0  0  0
 49 73  1  0  0  0  0
 50 79  1  0  0  0  0
 51 76  1  0  0  0  0
 52 72  1  0  0  0  0
 53 71  1  0  0  0  0
 56 67  1  0  0  0  0
 57 68  1  0  0  0  0
 58 69  1  0  0  0  0
 59 69  1  0  0  0  0
 60 69  1  0  0  0  0
 61 80  1  0  0  0  0
 62 63  1  0  0  0  0
 62 68  1  0  0  0  0
 63 79  1  0  0  0  0
 64 65  1  0  0  0  0
 64 87  1  0  0  0  0
 65 88  1  0  0  0  0
 66 69  1  0  0  0  0
 66 77  1  0  0  0  0
 67 80  1  0  0  0  0
 68 78  1  0  0  0  0
 70 71  1  0  0  0  0
M  CHG  2  79   1  80   1
M  ISO  4  38 100  64 101  78 100  87 101
M  END
> <Batch ID>
0157

> <Smiles>
CNC(C)C(=O)NC(C(=O)N1Cc2cc([101O:1][101CH2:1]COc3cc4c(c(C)c3C)CCN(CCC(C)[100NH:0][100C:0](=O)N3CCCC(n5nc(-c6ccc(Oc7ccc(F)cc7F)cc6)c(C(N)=O)c5N)C3)C4)ccc2CC1C(=O)NC1CCCc2ccccc21)C(C)(C)C

> <Shape>
0.283

> <Color>
0.039

> <Negative vol penalty>
0.000

$$$$

  -OEChem-04052321593D

 94104  0     1  0  0  0  0  0999 V2000
  -28.4184  -33.8869   24.6475 C   0  0  0  0  0  0  0  0  0  0  0  0
  -28.4714  -32.5755   24.1862 C   0  0  0  0  0  0  0  0  0  0  0  0
  -27.5523  -13.1581   23.2719 C   0  0  0  0  0  0  0  0  0  0  0  0
  -26.7418  -13.7132   22.2818 C   0  0  0  0  0  0  0  0  0  0  0  0
  -17.3947  -20.4312   17.8138 C   0  0  0  0  0  0  0  0  0  0  0  0
  -17.9403  -19.3036   19.8797 C   0  0  0  0  0  0  0  0  0  0  0  0
  -27.2079  -34.4220   25.0859 C   0  0  0  0  0  0  0  0  0  0  0  0
  -27.3140  -31.7981   24.1640 C   0  0  0  0  0  0  0  0  0  0  0  0
  -26.7919  -29.2143   19.8401 C   0  0  0  0  0  0  0  0  0  0  0  0
  -28.4861  -20.2549   17.6842 C   0  0  0  0  0  0  0  0  0  0  0  0
  -28.9277  -13.3904   23.2589 C   0  0  0  0  0  0  0  0  0  0  0  0
  -27.3066  -14.5007   21.2785 C   0  0  0  0  0  0  0  0  0  0  0  0
  -16.0359  -20.2749   18.0873 C   0  0  0  0  0  0  0  0  0  0  0  0
  -16.5814  -19.1475   20.1533 C   0  0  0  0  0  0  0  0  0  0  0  0
  -27.5607  -28.0609   19.6907 C   0  0  0  0  0  0  0  0  0  0  0  0
  -28.8760  -21.5829   17.8697 C   0  0  0  0  0  0  0  0  0  0  0  0
  -14.0630  -17.1107   19.1838 C   0  0  0  0  0  0  0  0  0  0  0  0
  -13.6323  -15.8638   19.6369 C   0  0  0  0  0  0  0  0  0  0  0  0
  -28.6193  -21.3688   20.2794 C   0  0  0  0  0  0  0  0  0  0  0  0
  -25.6504  -26.7167   20.2932 C   0  0  0  0  0  0  0  0  0  0  0  0
  -12.8274  -16.8823   21.6745 C   0  0  0  0  0  0  0  0  0  0  0  0
  -18.3469  -19.9455   18.7100 C   0  0  0  0  0  0  0  0  0  0  0  0
  -20.5746  -21.1853   18.7994 C   0  0  0  0  0  0  0  0  0  0  0  0
  -26.0332  -33.6539   25.0600 C   0  0  0  0  0  0  0  0  0  0  0  0
  -25.4471  -29.1280   20.2283 C   0  0  0  0  0  0  0  0  0  0  0  0
  -26.0869  -32.3231   24.6037 C   0  0  0  0  0  0  0  0  0  0  0  0
  -28.1739  -19.4981   18.8025 C   0  0  0  0  0  0  0  0  0  0  0  0
  -28.2446  -20.0494   20.0872 C   0  0  0  0  0  0  0  0  0  0  0  0
  -24.8659  -27.8703   20.4442 C   0  0  0  0  0  0  0  0  0  0  0  0
  -29.4925  -14.1778   22.2556 C   0  0  0  0  0  0  0  0  0  0  0  0
  -28.6820  -14.7329   21.2654 C   0  0  0  0  0  0  0  0  0  0  0  0
  -15.6293  -19.6331   19.2570 C   0  0  0  0  0  0  0  0  0  0  0  0
  -26.9908  -26.8120   19.9201 C   0  0  0  0  0  0  0  0  0  0  0  0
  -28.9418  -22.1360   19.1581 C   0  0  0  0  0  0  0  0  0  0  0  0
  -13.8760  -18.2434   19.9760 C   0  0  0  0  0  0  0  0  0  0  0  0
  -13.0145  -15.7496   20.8822 C   0  0  0  0  0  0  0  0  0  0  0  0
  -13.2581  -18.1292   21.2213 C   0  0  0  0  0  0  0  0  0  0  0  0
  -19.7507  -20.1060   18.4277 C   0  0  0  0  0  0  0  0  0  0  0  0
  -21.8115  -20.8620   18.2974 C   0  0  0  0  0  0  0  0  0  0  0  0
  -20.2508  -22.3739   19.5331 C   0  0  0  0  0  0  0  0  0  0  0  0
  -23.7604  -30.1592   22.7173 C   0  0  0  0  0  0  0  0  0  0  0  0
  -21.2583  -29.0117   21.0013 C   0  0  0  0  0  0  0  0  0  0  0  0
  -20.1362  -26.8693   18.5934 C   0  0  0  0  0  0  0  0  0  0  0  0
  -25.8943  -17.1581   17.4274 C   0  0  0  0  0  0  0  0  0  0  0  0
  -24.7574  -34.2606   25.5884 C   0  0  0  0  0  0  0  0  0  0  0  0
  -24.6240  -30.3801   20.3591 C   0  0  0  0  0  0  0  0  0  0  0  0
  -27.8282  -19.0530   21.1243 C   0  0  0  0  0  0  0  0  0  0  0  0
  -23.4211  -27.7224   20.8431 C   0  0  0  0  0  0  0  0  0  0  0  0
  -23.5032  -33.4916   25.1813 C   0  0  0  0  0  0  0  0  0  0  0  0
  -23.2103  -17.2104   15.0887 C   0  0  0  0  0  0  0  0  0  0  0  0
  -23.6993  -31.9950   25.4021 C   0  0  0  0  0  0  0  0  0  0  0  0
  -22.1373  -18.0517   15.7821 C   0  0  0  0  0  0  0  0  0  0  0  0
  -23.9788  -16.3441   16.0841 C   0  0  0  0  0  0  0  0  0  0  0  0
  -23.4905  -17.9197   17.9152 C   0  0  0  0  0  0  0  0  0  0  0  0
  -24.8480  -31.4562   24.5410 C   0  0  1  0  0  0  0  0  0  0  0  0
  -27.7095  -18.0724   18.8516 C   0  0  1  0  0  0  0  0  0  0  0  0
  -23.4045  -30.2022   21.2582 C   0  0  1  0  0  0  0  0  0  0  0  0
  -27.9321  -17.7203   20.3459 C   0  0  1  0  0  0  0  0  0  0  0  0
  -22.7261  -18.8518   16.9595 C   0  0  2  0  0  0  0  0  0  0  0  0
  -30.9672  -14.4139   22.2623 C   0  0  0  0  0  0  0  0  0  0  0  0
  -18.0348  -26.1321   17.4366 C   0  0  0  0  0  0  0  0  0  0  0  0
  -20.4736  -27.3912   23.4647 C   0  0  0  0  0  0  0  0  0  0  0  0
  -18.9995  -26.0007   21.9944 C   0  0  0  0  0  0  0  0  0  0  0  0
  -18.5549  -28.4416   22.2524 C   0  0  0  0  0  0  0  0  0  0  0  0
  -21.1439  -27.7469   15.9527 C   0  0  0  0  0  0  0  0  0  0  0  0
  -31.5790  -17.5508   20.2182 C   0  0  0  0  0  0  0  0  0  0  0  0
  -29.2705  -15.5882   20.1685 C   0  0  0  0  0  0  0  0  0  0  0  0
  -28.7969  -25.7254   18.8186 C   0  0  0  0  0  0  0  0  0  1  0  0
  -29.0067  -24.3342   18.2528 C   0  0  0  0  0  0  0  0  0  0  0  0
  -20.5515  -27.6816   20.9004 C   0  0  1  0  0  0  0  0  0  0  0  0
  -19.2206  -27.0837   17.4017 C   0  0  2  0  0  0  0  0  0  0  0  0
  -29.3047  -17.0665   20.5580 C   0  0  1  0  0  0  0  0  0  0  0  0
  -19.6727  -27.3813   22.1474 C   0  0  0  0  0  0  0  0  0  0  0  0
  -20.4087  -19.1673   17.7422 N   0  0  0  0  0  0  0  0  0  0  0  0
  -21.6591  -19.6558   17.6792 N   0  0  0  0  0  0  0  0  0  0  0  0
  -22.6594  -28.9764   20.9641 N   0  0  0  0  0  0  0  0  0  0  0  0
  -24.5126  -17.1634   17.1748 N   0  0  0  0  0  0  0  0  0  0  0  0
  -23.0036  -21.4946   18.3287 N   0  0  0  0  0  0  0  0  0  0  0  0
  -18.9322  -22.5477   19.9752 N   0  0  0  0  0  0  0  0  0  0  0  0
  -24.4162  -31.2882   23.1700 N   0  0  0  0  0  0  0  0  0  0  0  0
  -19.8145  -27.7054   19.6416 N   0  0  0  0  0  0  0  0  0  0  0  0
  -26.3175  -17.9673   18.4748 N   0  0  0  0  0  0  0  0  0  0  0  0
  -19.9648  -26.8608   16.1300 N   0  3  0  0  0  0  0  0  0  0  0  0
  -21.1016  -23.2633   19.7747 O   0  0  0  0  0  0  0  0  0  0  0  0
  -23.4609  -29.1753   23.3836 O   0  0  0  0  0  0  0  0  0  0  0  0
  -20.5915  -30.0447   21.1020 O   0  0  0  0  0  0  0  0  0  0  0  0
  -21.0435  -26.0403   18.5957 O   0  0  0  0  0  0  0  0  0  0  0  0
  -26.6924  -16.4864   16.7650 O   0  0  0  0  0  0  0  0  0  0  0  0
  -14.3034  -19.4807   19.5244 O   0  0  0  0  0  0  0  0  0  0  0  0
  -27.7393  -25.6847   19.7757 O   0  0  0  0  0  0  0  0  0  1  0  0
  -29.3215  -23.4430   19.3157 O   0  0  0  0  0  0  0  0  0  0  0  0
  -30.2518  -17.7669   19.7600 O   0  0  0  0  0  0  0  0  0  0  0  0
  -12.5995  -14.5524   21.3166 F   0  0  0  0  0  0  0  0  0  0  0  0
  -13.0746  -19.2141   21.9864 F   0  0  0  0  0  0  0  0  0  0  0  0
  1  2  1  0  0  0  0
  1  7  2  0  0  0  0
  2  8  2  0  0  0  0
  3  4  1  0  0  0  0
  3 11  2  0  0  0  0
  4 12  2  0  0  0  0
  5 13  2  0  0  0  0
  5 22  1  0  0  0  0
  6 14  1  0  0  0  0
  6 22  2  0  0  0  0
  7 24  1  0  0  0  0
  8 26  1  0  0  0  0
  9 15  2  0  0  0  0
  9 25  1  0  0  0  0
 10 16  2  0  0  0  0
 10 27  1  0  0  0  0
 11 30  1  0  0  0  0
 12 31  1  0  0  0  0
 13 32  1  0  0  0  0
 14 32  2  0  0  0  0
 15 33  1  0  0  0  0
 16 34  1  0  0  0  0
 17 18  2  0  0  0  0
 17 35  1  0  0  0  0
 18 36  1  0  0  0  0
 19 28  1  0  0  0  0
 19 34  2  0  0  0  0
 20 29  1  0  0  0  0
 20 33  2  0  0  0  0
 21 36  2  0  0  0  0
 21 37  1  0  0  0  0
 22 38  1  0  0  0  0
 23 38  1  0  0  0  0
 23 39  2  0  0  0  0
 23 40  1  0  0  0  0
 24 26  2  0  0  0  0
 24 45  1  0  0  0  0
 25 29  2  0  0  0  0
 25 46  1  0  0  0  0
 26 55  1  0  0  0  0
 27 28  2  0  0  0  0
 27 56  1  0  0  0  0
 28 47  1  0  0  0  0
 29 48  1  0  0  0  0
 30 31  2  0  0  0  0
 30 60  1  0  0  0  0
 31 67  1  0  0  0  0
 32 89  1  0  0  0  0
 33 90  1  0  0  0  0
 34 91  1  0  0  0  0
 35 37  2  0  0  0  0
 35 89  1  0  0  0  0
 36 93  1  0  0  0  0
 37 94  1  0  0  0  0
 38 74  2  0  0  0  0
 39 75  1  0  0  0  0
 39 78  1  0  0  0  0
 40 79  1  0  0  0  0
 40 84  2  0  0  0  0
 41 57  1  0  0  0  0
 41 80  1  0  0  0  0
 41 85  2  0  0  0  0
 42 70  1  0  0  0  0
 42 76  1  0  0  0  0
 42 86  2  0  0  0  0
 43 71  1  0  0  0  0
 43 81  1  0  0  0  0
 43 87  2  0  0  0  0
 44 77  1  0  0  0  0
 44 82  1  0  0  0  0
 44 88  2  0  0  0  0
 45 49  1  0  0  0  0
 46 57  1  0  0  0  0
 47 58  1  0  0  0  0
 48 76  1  0  0  0  0
 49 51  1  0  0  0  0
 50 52  1  0  0  0  0
 50 53  1  0  0  0  0
 51 55  1  0  0  0  0
 52 59  1  0  0  0  0
 53 77  1  0  0  0  0
 54 59  1  0  0  0  0
 54 77  1  0  0  0  0
 55 80  1  0  0  0  0
 56 58  1  0  0  0  0
 56 82  1  0  0  0  0
 57 76  1  0  0  0  0
 58 72  1  0  0  0  0
 59 75  1  0  0  0  0
 61 71  1  0  0  0  0
 62 73  1  0  0  0  0
 63 73  1  0  0  0  0
 64 73  1  0  0  0  0
 65 83  1  0  0  0  0
 66 92  1  0  0  0  0
 67 72  1  0  0  0  0
 68 69  1  0  0  0  0
 68 90  1  0  0  0  0
 69 91  1  0  0  0  0
 70 73  1  0  0  0  0
 70 81  1  0  0  0  0
 71 83  1  0  0  0  0
 72 92  1  0  0  0  0
 74 75  1  0  0  0  0
M  CHG  1  83   1
M  ISO  4  44 100  68 101  82 100  90 101
M  END
> <Batch ID>
0157

> <Smiles>
CNC(C)C(=O)NC(C(=O)N1Cc2cc([101O:1][101CH2:1]COc3ccc4c(c3)CC(C(Cc3ccccc3C)OC)C4[100NH:0][100C:0](=O)N3CCCC(n4nc(-c5ccc(Oc6ccc(F)cc6F)cc5)c(C(N)=O)c4N)C3)ccc2CC1C(=O)NC1CCCc2ccccc21)C(C)(C)C

> <Shape>
0.226

> <Color>
0.068

> <Negative vol penalty>
0.000

$$$$

  -OEChem-04052321593D

 87 96  0     1  0  0  0  0  0999 V2000
  -21.1703  -35.0812   22.2953 C   0  0  0  0  0  0  0  0  0  0  0  0
  -22.3591  -34.4286   21.9850 C   0  0  0  0  0  0  0  0  0  0  0  0
  -24.6334   -9.2266   21.7902 C   0  0  0  0  0  0  0  0  0  0  0  0
  -23.1219   -9.7926   19.9924 C   0  0  0  0  0  0  0  0  0  0  0  0
  -20.1783  -34.4159   23.0144 C   0  0  0  0  0  0  0  0  0  0  0  0
  -22.5570  -33.1105   22.3948 C   0  0  0  0  0  0  0  0  0  0  0  0
  -25.6118  -28.7387   19.3845 C   0  0  0  0  0  0  0  0  0  0  0  0
  -29.0351  -24.0795   17.9386 C   0  0  0  0  0  0  0  0  0  0  0  0
  -28.4678  -22.8173   17.7641 C   0  0  0  0  0  0  0  0  0  0  0  0
  -23.5843   -8.6209   22.4816 C   0  0  0  0  0  0  0  0  0  0  0  0
  -22.0727   -9.1869   20.6838 C   0  0  0  0  0  0  0  0  0  0  0  0
  -26.9099  -28.2457   19.5095 C   0  0  0  0  0  0  0  0  0  0  0  0
  -21.8946   -5.6940   22.3787 C   0  0  0  0  0  0  0  0  0  0  0  0
  -22.1335   -4.4473   22.9569 C   0  0  0  0  0  0  0  0  0  0  0  0
  -26.0899  -26.4576   20.9057 C   0  0  0  0  0  0  0  0  0  0  0  0
  -29.3578  -22.1219   19.8999 C   0  0  0  0  0  0  0  0  0  0  0  0
  -21.6187   -5.3586   25.1345 C   0  0  0  0  0  0  0  0  0  0  0  0
  -24.4022   -9.8125   20.5456 C   0  0  0  0  0  0  0  0  0  0  0  0
  -26.3572   -9.8325   18.9069 C   0  0  0  0  0  0  0  0  0  0  0  0
  -20.3603  -33.0858   23.4249 C   0  0  0  0  0  0  0  0  0  0  0  0
  -24.5427  -28.1000   20.0292 C   0  0  0  0  0  0  0  0  0  0  0  0
  -21.5671  -32.4272   23.1213 C   0  0  0  0  0  0  0  0  0  0  0  0
  -24.7788  -26.9430   20.7852 C   0  0  0  0  0  0  0  0  0  0  0  0
  -29.7639  -24.3630   19.0937 C   0  0  0  0  0  0  0  0  0  0  0  0
  -28.6291  -21.8385   18.7447 C   0  0  0  0  0  0  0  0  0  0  0  0
  -22.3040   -8.6010   21.9284 C   0  0  0  0  0  0  0  0  0  0  0  0
  -27.1496  -27.1067   20.2725 C   0  0  0  0  0  0  0  0  0  0  0  0
  -21.5177   -6.7730   23.1784 C   0  0  0  0  0  0  0  0  0  0  0  0
  -29.9252  -23.3842   20.0744 C   0  0  0  0  0  0  0  0  0  0  0  0
  -21.9956   -4.2796   24.3348 C   0  0  0  0  0  0  0  0  0  0  0  0
  -21.3798   -6.6053   24.5562 C   0  0  0  0  0  0  0  0  0  0  0  0
  -25.4854  -10.4389   19.8311 C   0  0  0  0  0  0  0  0  0  0  0  0
  -27.2001  -10.8439   18.5155 C   0  0  0  0  0  0  0  0  0  0  0  0
  -26.4011   -8.4764   18.4436 C   0  0  0  0  0  0  0  0  0  0  0  0
  -22.4455  -28.9419   22.2645 C   0  0  0  0  0  0  0  0  0  0  0  0
  -21.1471  -26.0482   21.5839 C   0  0  0  0  0  0  0  0  0  0  0  0
  -21.5828  -22.8932   20.3581 C   0  0  0  0  0  0  0  0  0  0  0  0
  -26.6820  -16.5923   18.1760 C   0  0  0  0  0  0  0  0  0  0  0  0
  -19.2786  -32.4235   24.2410 C   0  0  0  0  0  0  0  0  0  0  0  0
  -23.1446  -28.6290   19.8625 C   0  0  0  0  0  0  0  0  0  0  0  0
  -23.6628  -26.2087   21.4807 C   0  0  0  0  0  0  0  0  0  0  0  0
  -19.4143  -30.9048   24.3140 C   0  0  0  0  0  0  0  0  0  0  0  0
  -29.1321  -14.9301   20.0664 C   0  0  0  0  0  0  0  0  0  0  0  0
  -20.8545  -30.5119   24.6279 C   0  0  0  0  0  0  0  0  0  0  0  0
  -28.5563  -13.5159   20.1337 C   0  0  0  0  0  0  0  0  0  0  0  0
  -28.0488  -15.9981   20.2252 C   0  0  0  0  0  0  0  0  0  0  0  0
  -28.4583  -19.7574   17.4151 C   0  0  0  0  0  0  0  0  0  0  0  0
  -27.6281  -19.8440   19.7708 C   0  0  0  0  0  0  0  0  0  0  0  0
  -27.4114  -18.6909   17.1047 C   0  0  0  0  0  0  0  0  0  0  0  0
  -26.5888  -18.7864   19.4158 C   0  0  0  0  0  0  0  0  0  0  0  0
  -26.3420  -14.4370   19.3491 C   0  0  0  0  0  0  0  0  0  0  0  0
  -21.8090  -30.9894   23.5268 C   0  0  1  0  0  0  0  0  0  0  0  0
  -22.2043  -28.1955   20.9829 C   0  0  1  0  0  0  0  0  0  0  0  0
  -27.3990  -13.3426   19.1341 C   0  0  2  0  0  0  0  0  0  0  0  0
  -31.4086  -26.0305   18.1741 C   0  0  0  0  0  0  0  0  0  0  0  0
  -20.3478  -20.7441   19.9662 C   0  0  0  0  0  0  0  0  0  0  0  0
  -21.3107  -25.4136   24.5639 C   0  0  0  0  0  0  0  0  0  0  0  0
  -20.9795  -22.9977   23.9966 C   0  0  0  0  0  0  0  0  0  0  0  0
  -19.2015  -24.6603   23.4512 C   0  0  0  0  0  0  0  0  0  0  0  0
  -22.0369  -23.0299   17.4368 C   0  0  0  0  0  0  0  0  0  0  0  0
  -30.7491  -22.5870   22.1580 C   0  0  0  0  0  0  0  0  0  0  0  0
  -29.3053  -26.8451   19.3027 C   0  0  0  0  0  0  0  0  0  1  0  0
  -30.3635  -25.7196   19.2636 C   0  0  1  0  0  0  0  0  0  0  0  0
  -21.3384  -24.6425   22.1001 C   0  0  1  0  0  0  0  0  0  0  0  0
  -20.7722  -22.0763   19.3681 C   0  0  2  0  0  0  0  0  0  0  0  0
  -20.7290  -24.4433   23.5166 C   0  0  0  0  0  0  0  0  0  0  0  0
  -25.7501  -11.7349   20.0159 N   0  0  0  0  0  0  0  0  0  0  0  0
  -26.7978  -11.9513   19.2025 N   0  0  0  0  0  0  0  0  0  0  0  0
  -28.0598  -20.5708   18.5690 N   0  0  0  0  0  0  0  0  0  0  0  0
  -22.3142  -26.7685   21.2927 N   0  0  0  0  0  0  0  0  0  0  0  0
  -26.9483  -15.7681   19.2796 N   0  0  0  0  0  0  0  0  0  0  0  0
  -27.0271  -17.9474   18.2985 N   0  0  0  0  0  0  0  0  0  0  0  0
  -28.2388  -10.8850   17.6542 N   0  0  0  0  0  0  0  0  0  0  0  0
  -25.4616   -7.5671   18.9483 N   0  0  0  0  0  0  0  0  0  0  0  0
  -21.7278  -30.1176   22.3745 N   0  0  0  0  0  0  0  0  0  0  0  0
  -20.7865  -23.7552   21.0820 N   0  0  0  0  0  0  0  0  0  0  0  0
  -21.5731  -21.8066   18.1406 N   0  3  0  0  0  0  0  0  0  0  0  0
  -27.2589   -8.0787   17.6192 O   0  0  0  0  0  0  0  0  0  0  0  0
  -23.2240  -28.4842   23.0929 O   0  0  0  0  0  0  0  0  0  0  0  0
  -20.0040  -26.4884   21.4375 O   0  0  0  0  0  0  0  0  0  0  0  0
  -22.8001  -22.7755   20.4799 O   0  0  0  0  0  0  0  0  0  0  0  0
  -26.1701  -16.1461   17.1418 O   0  0  0  0  0  0  0  0  0  0  0  0
  -21.2801   -8.0098   22.6027 O   0  0  0  0  0  0  0  0  0  0  0  0
  -30.6342  -23.6447   21.2084 O   0  0  0  0  0  0  0  0  0  0  0  0
  -28.4241  -26.6206   20.3975 O   0  0  0  0  0  0  0  0  0  1  0  0
  -22.2236   -3.0820   24.8897 F   0  0  0  0  0  0  0  0  0  0  0  0
  -21.0168   -7.6379   25.3295 F   0  0  0  0  0  0  0  0  0  0  0  0
  1  2  1  0  0  0  0
  1  5  2  0  0  0  0
  2  6  2  0  0  0  0
  3 10  2  0  0  0  0
  3 18  1  0  0  0  0
  4 11  1  0  0  0  0
  4 18  2  0  0  0  0
  5 20  1  0  0  0  0
  6 22  1  0  0  0  0
  7 12  2  0  0  0  0
  7 21  1  0  0  0  0
  8  9  2  0  0  0  0
  8 24  1  0  0  0  0
  9 25  1  0  0  0  0
 10 26  1  0  0  0  0
 11 26  2  0  0  0  0
 12 27  1  0  0  0  0
 13 14  2  0  0  0  0
 13 28  1  0  0  0  0
 14 30  1  0  0  0  0
 15 23  1  0  0  0  0
 15 27  2  0  0  0  0
 16 25  2  0  0  0  0
 16 29  1  0  0  0  0
 17 30  2  0  0  0  0
 17 31  1  0  0  0  0
 18 32  1  0  0  0  0
 19 32  1  0  0  0  0
 19 33  2  0  0  0  0
 19 34  1  0  0  0  0
 20 22  2  0  0  0  0
 20 39  1  0  0  0  0
 21 23  2  0  0  0  0
 21 40  1  0  0  0  0
 22 52  1  0  0  0  0
 23 41  1  0  0  0  0
 24 29  2  0  0  0  0
 24 63  1  0  0  0  0
 25 69  1  0  0  0  0
 26 83  1  0  0  0  0
 27 85  1  0  0  0  0
 28 31  2  0  0  0  0
 28 83  1  0  0  0  0
 29 84  1  0  0  0  0
 30 86  1  0  0  0  0
 31 87  1  0  0  0  0
 32 67  2  0  0  0  0
 33 68  1  0  0  0  0
 33 73  1  0  0  0  0
 34 74  1  0  0  0  0
 34 78  2  0  0  0  0
 35 53  1  0  0  0  0
 35 75  1  0  0  0  0
 35 79  2  0  0  0  0
 36 64  1  0  0  0  0
 36 70  1  0  0  0  0
 36 80  2  0  0  0  0
 37 65  1  0  0  0  0
 37 76  1  0  0  0  0
 37 81  2  0  0  0  0
 38 71  1  0  0  0  0
 38 72  1  0  0  0  0
 38 82  2  0  0  0  0
 39 42  1  0  0  0  0
 40 53  1  0  0  0  0
 41 70  1  0  0  0  0
 42 44  1  0  0  0  0
 43 45  1  0  0  0  0
 43 46  1  0  0  0  0
 44 52  1  0  0  0  0
 45 54  1  0  0  0  0
 46 71  1  0  0  0  0
 47 49  1  0  0  0  0
 47 69  1  0  0  0  0
 48 50  1  0  0  0  0
 48 69  1  0  0  0  0
 49 72  1  0  0  0  0
 50 72  1  0  0  0  0
 51 54  1  0  0  0  0
 51 71  1  0  0  0  0
 52 75  1  0  0  0  0
 53 70  1  0  0  0  0
 54 68  1  0  0  0  0
 55 63  1  0  0  0  0
 56 65  1  0  0  0  0
 57 66  1  0  0  0  0
 58 66  1  0  0  0  0
 59 66  1  0  0  0  0
 60 77  1  0  0  0  0
 61 84  1  0  0  0  0
 62 63  1  0  0  0  0
 62 85  1  0  0  0  0
 64 66  1  0  0  0  0
 64 76  1  0  0  0  0
 65 77  1  0  0  0  0
 67 68  1  0  0  0  0
M  CHG  1  77   1
M  ISO  4  38 100  62 101  72 100  85 101
M  END
> <Batch ID>
0157

> <Smiles>
CNC(C)C(=O)NC(C(=O)N1Cc2cc([101O:1][101CH2:1]C(C)c3ccc(N4CC[100N:0]([100C:0](=O)N5CCCC(n6nc(-c7ccc(Oc8ccc(F)cc8F)cc7)c(C(N)=O)c6N)C5)CC4)cc3OC)ccc2CC1C(=O)NC1CCCc2ccccc21)C(C)(C)C

> <Shape>
0.265

> <Color>
0.107

> <Negative vol penalty>
0.000

$$$$

  -OEChem-04052321593D

 92101  0     1  0  0  0  0  0999 V2000
  -17.1448  -30.5487   24.0678 C   0  0  0  0  0  0  0  0  0  0  0  0
  -18.4300  -30.8043   24.5351 C   0  0  0  0  0  0  0  0  0  0  0  0
  -23.2925  -14.1962   22.9256 C   0  0  0  0  0  0  0  0  0  0  0  0
  -22.9084  -12.9472   20.8934 C   0  0  0  0  0  0  0  0  0  0  0  0
  -16.9074  -29.4413   23.2545 C   0  0  0  0  0  0  0  0  0  0  0  0
  -19.4784  -29.9521   24.1903 C   0  0  0  0  0  0  0  0  0  0  0  0
  -26.5102  -30.0208   22.8246 C   0  0  0  0  0  0  0  0  0  0  0  0
  -22.0298  -13.8285   23.3903 C   0  0  0  0  0  0  0  0  0  0  0  0
  -21.6457  -12.5795   21.3581 C   0  0  0  0  0  0  0  0  0  0  0  0
  -27.6889  -29.3849   23.2121 C   0  0  0  0  0  0  0  0  0  0  0  0
  -20.3465  -10.3278   23.5175 C   0  0  0  0  0  0  0  0  0  0  0  0
  -19.9669   -8.9937   23.3710 C   0  0  0  0  0  0  0  0  0  0  0  0
  -27.1755  -27.5471   21.7362 C   0  0  0  0  0  0  0  0  0  0  0  0
  -18.0859   -9.6774   22.0176 C   0  0  0  0  0  0  0  0  0  0  0  0
  -23.7318  -13.7556   21.6771 C   0  0  0  0  0  0  0  0  0  0  0  0
  -26.2477  -13.4461   21.3907 C   0  0  0  0  0  0  0  0  0  0  0  0
  -17.9553  -28.5805   22.8916 C   0  0  0  0  0  0  0  0  0  0  0  0
  -25.6485  -29.4185   21.8967 C   0  0  0  0  0  0  0  0  0  0  0  0
  -19.2546  -28.8314   23.3725 C   0  0  0  0  0  0  0  0  0  0  0  0
  -25.9878  -28.1785   21.3367 C   0  0  0  0  0  0  0  0  0  0  0  0
  -31.5746  -26.8614   21.8560 C   0  0  0  0  0  0  0  0  0  0  0  0
  -31.3978  -27.5350   20.6526 C   0  0  0  0  0  0  0  0  0  0  0  0
  -31.7345  -25.4802   21.8561 C   0  0  0  0  0  0  0  0  0  0  0  0
  -21.2064  -13.0201   22.6066 C   0  0  0  0  0  0  0  0  0  0  0  0
  -28.0203  -28.1465   22.6700 C   0  0  0  0  0  0  0  0  0  0  0  0
  -19.5957  -11.3368   22.9141 C   0  0  0  0  0  0  0  0  0  0  0  0
  -18.8367   -8.6684   22.6211 C   0  0  0  0  0  0  0  0  0  0  0  0
  -18.4655  -11.0116   22.1642 C   0  0  0  0  0  0  0  0  0  0  0  0
  -25.0359  -14.1356   21.1963 C   0  0  0  0  0  0  0  0  0  0  0  0
  -31.3885  -26.7874   19.4861 C   0  0  0  0  0  0  0  0  0  0  0  0
  -31.7100  -24.8245   20.6358 C   0  0  0  0  0  0  0  0  0  0  0  0
  -27.1860  -14.2113   20.7421 C   0  0  0  0  0  0  0  0  0  0  0  0
  -26.5026  -12.2233   22.0946 C   0  0  0  0  0  0  0  0  0  0  0  0
  -22.6431  -28.3858   21.9681 C   0  0  0  0  0  0  0  0  0  0  0  0
  -23.1399  -27.9157   18.7973 C   0  0  0  0  0  0  0  0  0  0  0  0
  -25.3599  -27.3896   16.2592 C   0  0  0  0  0  0  0  0  0  0  0  0
  -29.4988  -18.8886   19.4854 C   0  0  0  0  0  0  0  0  0  0  0  0
  -17.6413  -27.3697   22.0491 C   0  0  0  0  0  0  0  0  0  0  0  0
  -24.3940  -30.1297   21.4690 C   0  0  0  0  0  0  0  0  0  0  0  0
  -25.1067  -27.4991   20.3216 C   0  0  0  0  0  0  0  0  0  0  0  0
  -18.8760  -26.7265   21.4229 C   0  0  0  0  0  0  0  0  0  0  0  0
  -26.6536  -18.1141   17.5791 C   0  0  0  0  0  0  0  0  0  0  0  0
  -19.9843  -26.5773   22.4603 C   0  0  0  0  0  0  0  0  0  0  0  0
  -26.0678  -16.9445   18.3698 C   0  0  0  0  0  0  0  0  0  0  0  0
  -29.7951  -22.3642   19.9552 C   0  0  0  0  0  0  0  0  0  0  0  0
  -32.0303  -21.2522   19.5878 C   0  0  0  0  0  0  0  0  0  0  0  0
  -27.1883  -19.2154   18.4964 C   0  0  0  0  0  0  0  0  0  0  0  0
  -29.1543  -21.3529   19.0001 C   0  0  0  0  0  0  0  0  0  0  0  0
  -31.3530  -20.2842   18.6217 C   0  0  0  0  0  0  0  0  0  0  0  0
  -27.5694  -17.5661   20.3000 C   0  0  0  0  0  0  0  0  0  0  0  0
  -20.4225  -27.9441   23.0000 C   0  0  1  0  0  0  0  0  0  0  0  0
  -23.3363  -29.1873   20.9029 C   0  0  1  0  0  0  0  0  0  0  0  0
  -27.0768  -16.4178   19.4058 C   0  0  1  0  0  0  0  0  0  0  0  0
  -31.2751  -22.5831   19.6323 C   0  0  0  0  0  0  0  0  0  0  0  0
  -31.2243  -29.0166   20.6198 C   0  0  0  0  0  0  0  0  0  0  0  0
  -33.3423  -24.8799   23.6840 C   0  0  0  0  0  0  0  0  0  0  0  0
  -32.7637  -28.6208   23.2059 C   0  0  0  0  0  0  0  0  0  0  0  0
  -29.9244  -26.9859   17.4439 C   0  0  0  0  0  0  0  0  0  0  0  0
  -32.4202  -27.2757   17.2385 C   0  0  0  0  0  0  0  0  0  0  0  0
  -25.4645  -27.0058   13.7815 C   0  0  0  0  0  0  0  0  0  0  0  0
  -22.2143  -25.0372   19.2065 C   0  0  0  0  0  0  0  0  0  0  0  0
  -23.2237  -24.4705   16.9866 C   0  0  0  0  0  0  0  0  0  0  0  0
  -21.3588  -26.1217   17.1217 C   0  0  0  0  0  0  0  0  0  0  0  0
  -26.9580  -29.8432   15.8295 C   0  0  0  0  0  0  0  0  0  0  0  0
  -31.9250  -24.7370   23.1372 C   0  0  0  0  0  0  0  0  0  0  0  0
  -30.2652  -28.3560   23.4266 C   0  0  0  0  0  0  0  0  0  1  0  0
  -31.5937  -27.6207   23.1443 C   0  0  1  0  0  0  0  0  0  0  0  0
  -31.2022  -27.4552   18.1630 C   0  0  0  0  0  0  0  0  0  0  0  0
  -23.6552  -26.7748   17.9535 C   0  0  1  0  0  0  0  0  0  0  0  0
  -25.5033  -28.0405   14.8953 C   0  0  2  0  0  0  0  0  0  0  0  0
  -22.6288  -25.6127   17.8376 C   0  0  0  0  0  0  0  0  0  0  0  0
  -25.1874  -15.2529   20.4803 N   0  0  0  0  0  0  0  0  0  0  0  0
  -31.5406  -25.4447   19.4465 N   0  0  0  0  0  0  0  0  0  0  0  0
  -26.5056  -15.2715   20.2192 N   0  0  0  0  0  0  0  0  0  0  0  0
  -23.8878  -28.2316   19.9403 N   0  0  0  0  0  0  0  0  0  0  0  0
  -28.1149  -18.6590   19.4921 N   0  0  0  0  0  0  0  0  0  0  0  0
  -29.9387  -20.1105   18.9547 N   0  0  0  0  0  0  0  0  0  0  0  0
  -28.5183  -14.0741   20.5737 N   0  0  0  0  0  0  0  0  0  0  0  0
  -25.4249  -11.5658   22.7033 N   0  0  0  0  0  0  0  0  0  0  0  0
  -31.8657  -23.4497   20.6283 N   0  0  0  0  0  0  0  0  0  0  0  0
  -21.2822  -28.6120   22.0464 N   0  0  0  0  0  0  0  0  0  0  0  0
  -24.0453  -27.3572   16.6740 N   0  0  0  0  0  0  0  0  0  0  0  0
  -26.7952  -28.7782   14.8067 N   0  3  0  0  0  0  0  0  0  0  0  0
  -27.6545  -11.7371   22.1951 O   0  0  0  0  0  0  0  0  0  0  0  0
  -23.2945  -27.6178   22.6663 O   0  0  0  0  0  0  0  0  0  0  0  0
  -22.1156  -28.5094   18.4509 O   0  0  0  0  0  0  0  0  0  0  0  0
  -26.3178  -26.9502   16.8916 O   0  0  0  0  0  0  0  0  0  0  0  0
  -30.2952  -18.0512   19.9278 O   0  0  0  0  0  0  0  0  0  0  0  0
  -19.9743  -12.6609   23.0598 O   0  0  0  0  0  0  0  0  0  0  0  0
  -29.1775  -27.5193   23.0495 O   0  0  0  0  0  0  0  0  0  1  0  0
  -18.4732   -7.3870   22.4792 F   0  0  0  0  0  0  0  0  0  0  0  0
  -17.7410  -11.9765   21.5812 F   0  0  0  0  0  0  0  0  0  0  0  0
  1  2  1  0  0  0  0
  1  5  2  0  0  0  0
  2  6  2  0  0  0  0
  3  8  2  0  0  0  0
  3 15  1  0  0  0  0
  4  9  1  0  0  0  0
  4 15  2  0  0  0  0
  5 17  1  0  0  0  0
  6 19  1  0  0  0  0
  7 10  2  0  0  0  0
  7 18  1  0  0  0  0
  8 24  1  0  0  0  0
  9 24  2  0  0  0  0
 10 25  1  0  0  0  0
 11 12  2  0  0  0  0
 11 26  1  0  0  0  0
 12 27  1  0  0  0  0
 13 20  1  0  0  0  0
 13 25  2  0  0  0  0
 14 27  2  0  0  0  0
 14 28  1  0  0  0  0
 15 29  1  0  0  0  0
 16 29  1  0  0  0  0
 16 32  2  0  0  0  0
 16 33  1  0  0  0  0
 17 19  2  0  0  0  0
 17 38  1  0  0  0  0
 18 20  2  0  0  0  0
 18 39  1  0  0  0  0
 19 51  1  0  0  0  0
 20 40  1  0  0  0  0
 21 22  1  0  0  0  0
 21 23  2  0  0  0  0
 21 67  1  0  0  0  0
 22 30  2  0  0  0  0
 22 55  1  0  0  0  0
 23 31  1  0  0  0  0
 23 65  1  0  0  0  0
 24 89  1  0  0  0  0
 25 90  1  0  0  0  0
 26 28  2  0  0  0  0
 26 89  1  0  0  0  0
 27 91  1  0  0  0  0
 28 92  1  0  0  0  0
 29 72  2  0  0  0  0
 30 68  1  0  0  0  0
 30 73  1  0  0  0  0
 31 73  2  0  0  0  0
 31 80  1  0  0  0  0
 32 74  1  0  0  0  0
 32 78  1  0  0  0  0
 33 79  1  0  0  0  0
 33 84  2  0  0  0  0
 34 52  1  0  0  0  0
 34 81  1  0  0  0  0
 34 85  2  0  0  0  0
 35 69  1  0  0  0  0
 35 75  1  0  0  0  0
 35 86  2  0  0  0  0
 36 70  1  0  0  0  0
 36 82  1  0  0  0  0
 36 87  2  0  0  0  0
 37 76  1  0  0  0  0
 37 77  1  0  0  0  0
 37 88  2  0  0  0  0
 38 41  1  0  0  0  0
 39 52  1  0  0  0  0
 40 75  1  0  0  0  0
 41 43  1  0  0  0  0
 42 44  1  0  0  0  0
 42 47  1  0  0  0  0
 43 51  1  0  0  0  0
 44 53  1  0  0  0  0
 45 48  1  0  0  0  0
 45 54  1  0  0  0  0
 46 49  1  0  0  0  0
 46 54  1  0  0  0  0
 47 76  1  0  0  0  0
 48 77  1  0  0  0  0
 49 77  1  0  0  0  0
 50 53  1  0  0  0  0
 50 76  1  0  0  0  0
 51 81  1  0  0  0  0
 52 75  1  0  0  0  0
 53 74  1  0  0  0  0
 54 80  1  0  0  0  0
 56 65  1  0  0  0  0
 57 67  1  0  0  0  0
 58 68  1  0  0  0  0
 59 68  1  0  0  0  0
 60 70  1  0  0  0  0
 61 71  1  0  0  0  0
 62 71  1  0  0  0  0
 63 71  1  0  0  0  0
 64 83  1  0  0  0  0
 66 67  1  0  0  0  0
 66 90  1  0  0  0  0
 69 71  1  0  0  0  0
 69 82  1  0  0  0  0
 70 83  1  0  0  0  0
 72 74  1  0  0  0  0
M  CHG  1  83   1
M  ISO  4  37 100  66 101  77 100  90 101
M  END
> <Batch ID>
0157

> <Smiles>
CCc1c(NC2CC[100N:0]([100C:0](=O)N3CCCC(n4nc(-c5ccc(Oc6ccc(F)cc6F)cc5)c(C(N)=O)c4N)C3)CC2)nc(C(C)C)c(C)c1C(C)[101CH2:1][101O:1]c1ccc2c(c1)CN(C(=O)C(NC(=O)C(C)NC)C(C)(C)C)C(C(=O)NC1CCCc3ccccc31)C2

> <Shape>
0.248

> <Color>
0.091

> <Negative vol penalty>
0.000

$$$$

  -OEChem-04052321593D

 90100  0     1  0  0  0  0  0999 V2000
  -19.3904  -28.3658   16.0591 C   0  0  0  0  0  0  0  0  0  0  0  0
  -20.7780  -28.4506   16.1115 C   0  0  0  0  0  0  0  0  0  0  0  0
  -24.8455   -8.8735   21.8874 C   0  0  0  0  0  0  0  0  0  0  0  0
  -24.5003   -8.3253   19.5599 C   0  0  0  0  0  0  0  0  0  0  0  0
  -18.6108  -29.2314   16.8251 C   0  0  0  0  0  0  0  0  0  0  0  0
  -21.3869  -29.4019   16.9292 C   0  0  0  0  0  0  0  0  0  0  0  0
  -25.2631  -27.4963   19.5728 C   0  0  0  0  0  0  0  0  0  0  0  0
  -23.6207   -8.2875   22.2071 C   0  0  0  0  0  0  0  0  0  0  0  0
  -23.2755   -7.7393   19.8795 C   0  0  0  0  0  0  0  0  0  0  0  0
  -26.4686  -27.3172   18.8958 C   0  0  0  0  0  0  0  0  0  0  0  0
  -20.7517   -6.6158   23.6867 C   0  0  0  0  0  0  0  0  0  0  0  0
  -20.7055   -5.7754   24.7990 C   0  0  0  0  0  0  0  0  0  0  0  0
  -28.3741  -24.1398   19.7651 C   0  0  0  0  0  0  0  0  0  0  0  0
  -27.3043  -29.3673   19.8540 C   0  0  0  0  0  0  0  0  0  0  0  0
  -30.5256  -22.3648   19.7093 C   0  0  0  0  0  0  0  0  0  0  0  0
  -22.3468   -4.3287   23.7742 C   0  0  0  0  0  0  0  0  0  0  0  0
  -25.2852   -8.8925   20.5638 C   0  0  0  0  0  0  0  0  0  0  0  0
  -27.8092   -8.8698   20.1939 C   0  0  0  0  0  0  0  0  0  0  0  0
  -19.2105  -30.1874   17.6600 C   0  0  0  0  0  0  0  0  0  0  0  0
  -25.0648  -28.6197   20.3883 C   0  0  0  0  0  0  0  0  0  0  0  0
  -20.6146  -30.2821   17.7061 C   0  0  0  0  0  0  0  0  0  0  0  0
  -29.6583  -24.6090   19.4890 C   0  0  0  0  0  0  0  0  0  0  0  0
  -26.0963  -29.5570   20.5423 C   0  0  0  0  0  0  0  0  0  0  0  0
  -28.1656  -22.7831   20.0133 C   0  0  0  0  0  0  0  0  0  0  0  0
  -30.7341  -23.7215   19.4611 C   0  0  0  0  0  0  0  0  0  0  0  0
  -22.8358   -7.7204   21.2031 C   0  0  0  0  0  0  0  0  0  0  0  0
  -27.4884  -28.2543   19.0340 C   0  0  0  0  0  0  0  0  0  0  0  0
  -21.5954   -6.3126   22.6180 C   0  0  0  0  0  0  0  0  0  0  0  0
  -29.2413  -21.8956   19.9854 C   0  0  0  0  0  0  0  0  0  0  0  0
  -21.5031   -4.6319   24.8428 C   0  0  0  0  0  0  0  0  0  0  0  0
  -22.3930   -5.1691   22.6618 C   0  0  0  0  0  0  0  0  0  0  0  0
  -26.5501   -9.4981   20.2328 C   0  0  0  0  0  0  0  0  0  0  0  0
  -28.6797   -9.8675   19.8289 C   0  0  0  0  0  0  0  0  0  0  0  0
  -28.1605   -7.5061   20.4634 C   0  0  0  0  0  0  0  0  0  0  0  0
  -23.0487  -31.0771   20.3699 C   0  0  0  0  0  0  0  0  0  0  0  0
  -24.4595  -31.7536   23.2114 C   0  0  0  0  0  0  0  0  0  0  0  0
  -27.1847  -31.4367   25.2412 C   0  0  0  0  0  0  0  0  0  0  0  0
  -28.6970  -15.6105   20.4666 C   0  0  0  0  0  0  0  0  0  0  0  0
  -18.3259  -31.1328   18.4336 C   0  0  0  0  0  0  0  0  0  0  0  0
  -23.7683  -28.7845   21.1329 C   0  0  0  0  0  0  0  0  0  0  0  0
  -25.9410  -30.7697   21.4218 C   0  0  0  0  0  0  0  0  0  0  0  0
  -19.0529  -31.8636   19.5595 C   0  0  0  0  0  0  0  0  0  0  0  0
  -28.8780  -13.9621   17.3727 C   0  0  0  0  0  0  0  0  0  0  0  0
  -20.3863  -32.4148   19.0644 C   0  0  0  0  0  0  0  0  0  0  0  0
  -28.4202  -12.5539   17.7520 C   0  0  0  0  0  0  0  0  0  0  0  0
  -30.5341  -18.7284   19.6600 C   0  0  0  0  0  0  0  0  0  0  0  0
  -28.1935  -18.8807   18.7072 C   0  0  0  0  0  0  0  0  0  0  0  0
  -30.5345  -26.4896   17.9490 C   0  0  0  0  0  0  0  0  0  0  0  0
  -28.0581  -15.0414   18.0817 C   0  0  0  0  0  0  0  0  0  0  0  0
  -30.0371  -17.6734   20.6471 C   0  0  0  0  0  0  0  0  0  0  0  0
  -27.7495  -17.8257   19.7180 C   0  0  0  0  0  0  0  0  0  0  0  0
  -27.5503  -13.4808   19.9319 C   0  0  0  0  0  0  0  0  0  0  0  0
  -29.8590  -26.0646   19.2259 C   0  0  1  0  0  0  0  0  0  0  0  0
  -21.3123  -31.2843   18.5999 C   0  0  1  0  0  0  0  0  0  0  0  0
  -23.4875  -30.2303   21.5309 C   0  0  1  0  0  0  0  0  0  0  0  0
  -28.3941  -12.3742   19.2803 C   0  0  1  0  0  0  0  0  0  0  0  0
  -29.4202  -19.6609   19.1828 C   0  0  0  0  0  0  0  0  0  0  0  0
  -29.0652  -26.7231   18.1257 C   0  0  1  0  0  0  0  0  0  1  0  0
  -32.1188  -24.1988   19.1680 C   0  0  0  0  0  0  0  0  0  0  0  0
  -25.8181  -22.5296   19.1308 C   0  0  0  0  0  0  0  0  0  0  0  0
  -26.2045  -22.9200   21.5912 C   0  0  0  0  0  0  0  0  0  0  0  0
  -28.0585  -32.1317   27.4886 C   0  0  0  0  0  0  0  0  0  0  0  0
  -25.0119  -34.5523   22.1286 C   0  0  0  0  0  0  0  0  0  0  0  0
  -26.6697  -34.8651   23.9785 C   0  0  0  0  0  0  0  0  0  0  0  0
  -24.2630  -34.4855   24.5138 C   0  0  0  0  0  0  0  0  0  0  0  0
  -27.4090  -28.6295   26.1511 C   0  0  0  0  0  0  0  0  0  0  0  0
  -26.7842  -22.2983   20.3073 C   0  0  0  0  0  0  0  0  0  0  0  0
  -25.6573  -32.5642   23.6442 C   0  0  1  0  0  0  0  0  0  0  0  0
  -27.3109  -31.0626   26.7070 C   0  0  2  0  0  0  0  0  0  0  0  0
  -25.4030  -34.0950   23.5481 C   0  0  0  0  0  0  0  0  0  0  0  0
  -26.6109  -10.7947   19.9179 N   0  0  0  0  0  0  0  0  0  0  0  0
  -27.9188  -10.9893   19.6777 N   0  0  0  0  0  0  0  0  0  0  0  0
  -24.6526  -30.8897   22.1241 N   0  0  0  0  0  0  0  0  0  0  0  0
  -28.0298  -14.8052   19.5313 N   0  0  0  0  0  0  0  0  0  0  0  0
  -28.8654  -16.9650   20.1329 N   0  0  0  0  0  0  0  0  0  0  0  0
  -30.0142   -9.8860   19.6259 N   0  0  0  0  0  0  0  0  0  0  0  0
  -27.1428   -6.6130   20.8255 N   0  0  0  0  0  0  0  0  0  0  0  0
  -21.9081  -30.6189   19.7386 N   0  0  0  0  0  0  0  0  0  0  0  0
  -26.0031  -32.0988   24.9830 N   0  0  0  0  0  0  0  0  0  0  0  0
  -28.0461  -29.7744   26.8514 N   0  3  0  0  0  0  0  0  0  0  0  0
  -29.3442   -7.0956   20.4015 O   0  0  0  0  0  0  0  0  0  0  0  0
  -23.6961  -32.0734   20.0700 O   0  0  0  0  0  0  0  0  0  0  0  0
  -23.3939  -31.8770   23.8203 O   0  0  0  0  0  0  0  0  0  0  0  0
  -28.0497  -31.1717   24.4093 O   0  0  0  0  0  0  0  0  0  0  0  0
  -29.1205  -15.1492   21.5338 O   0  0  0  0  0  0  0  0  0  0  0  0
  -21.6407   -7.1483   21.5147 O   0  0  0  0  0  0  0  0  0  0  0  0
  -28.6683  -28.0819   18.3724 O   0  0  0  0  0  0  0  0  0  1  0  0
  -29.0539  -20.5601   20.2271 O   0  0  0  0  0  0  0  0  0  0  0  0
  -21.4598   -3.8259   25.9117 F   0  0  0  0  0  0  0  0  0  0  0  0
  -23.2064   -4.8732   21.6387 F   0  0  0  0  0  0  0  0  0  0  0  0
  1  2  1  0  0  0  0
  1  5  2  0  0  0  0
  2  6  2  0  0  0  0
  3  8  2  0  0  0  0
  3 17  1  0  0  0  0
  4  9  1  0  0  0  0
  4 17  2  0  0  0  0
  5 19  1  0  0  0  0
  6 21  1  0  0  0  0
  7 10  2  0  0  0  0
  7 20  1  0  0  0  0
  8 26  1  0  0  0  0
  9 26  2  0  0  0  0
 10 27  1  0  0  0  0
 11 12  2  0  0  0  0
 11 28  1  0  0  0  0
 12 30  1  0  0  0  0
 13 22  1  0  0  0  0
 13 24  2  0  0  0  0
 14 23  1  0  0  0  0
 14 27  2  0  0  0  0
 15 25  1  0  0  0  0
 15 29  2  0  0  0  0
 16 30  2  0  0  0  0
 16 31  1  0  0  0  0
 17 32  1  0  0  0  0
 18 32  1  0  0  0  0
 18 33  2  0  0  0  0
 18 34  1  0  0  0  0
 19 21  2  0  0  0  0
 19 39  1  0  0  0  0
 20 23  2  0  0  0  0
 20 40  1  0  0  0  0
 21 54  1  0  0  0  0
 22 25  2  0  0  0  0
 22 53  1  0  0  0  0
 23 41  1  0  0  0  0
 24 29  1  0  0  0  0
 24 67  1  0  0  0  0
 25 59  1  0  0  0  0
 26 86  1  0  0  0  0
 27 87  1  0  0  0  0
 28 31  2  0  0  0  0
 28 86  1  0  0  0  0
 29 88  1  0  0  0  0
 30 89  1  0  0  0  0
 31 90  1  0  0  0  0
 32 71  2  0  0  0  0
 33 72  1  0  0  0  0
 33 76  1  0  0  0  0
 34 77  1  0  0  0  0
 34 81  2  0  0  0  0
 35 55  1  0  0  0  0
 35 78  1  0  0  0  0
 35 82  2  0  0  0  0
 36 68  1  0  0  0  0
 36 73  1  0  0  0  0
 36 83  2  0  0  0  0
 37 69  1  0  0  0  0
 37 79  1  0  0  0  0
 37 84  2  0  0  0  0
 38 74  1  0  0  0  0
 38 75  1  0  0  0  0
 38 85  2  0  0  0  0
 39 42  1  0  0  0  0
 40 55  1  0  0  0  0
 41 73  1  0  0  0  0
 42 44  1  0  0  0  0
 43 45  1  0  0  0  0
 43 49  1  0  0  0  0
 44 54  1  0  0  0  0
 45 56  1  0  0  0  0
 46 50  1  0  0  0  0
 46 57  1  0  0  0  0
 47 51  1  0  0  0  0
 47 57  1  0  0  0  0
 48 53  1  0  0  0  0
 48 58  1  0  0  0  0
 49 74  1  0  0  0  0
 50 75  1  0  0  0  0
 51 75  1  0  0  0  0
 52 56  1  0  0  0  0
 52 74  1  0  0  0  0
 53 58  1  0  0  0  0
 54 78  1  0  0  0  0
 55 73  1  0  0  0  0
 56 72  1  0  0  0  0
 57 88  1  0  0  0  0
 58 87  1  0  0  0  0
 60 67  1  0  0  0  0
 61 67  1  0  0  0  0
 62 69  1  0  0  0  0
 63 70  1  0  0  0  0
 64 70  1  0  0  0  0
 65 70  1  0  0  0  0
 66 80  1  0  0  0  0
 68 70  1  0  0  0  0
 68 79  1  0  0  0  0
 69 80  1  0  0  0  0
 71 72  1  0  0  0  0
M  CHG  1  80   1
M  ISO  4  38 100  58 101  75 100  87 101
M  END
> <Batch ID>
0157

> <Smiles>
CNC(C)C(=O)NC(C(=O)N1Cc2cc([101O:1][101CH:1]3CC3c3cc(C(C)C)c(OC4CC[100N:0]([100C:0](=O)N5CCCC(n6nc(-c7ccc(Oc8ccc(F)cc8F)cc7)c(C(N)=O)c6N)C5)CC4)cc3C)ccc2CC1C(=O)NC1CCCc2ccccc21)C(C)(C)C

> <Shape>
0.331

> <Color>
0.114

> <Negative vol penalty>
0.000

$$$$

  -OEChem-04052321593D

 87 96  0     1  0  0  0  0  0999 V2000
  -22.7451   -7.4102   17.8148 C   0  0  0  0  0  0  0  0  0  0  0  0
  -22.6398   -8.7524   17.4642 C   0  0  0  0  0  0  0  0  0  0  0  0
  -23.9706  -31.0650   22.5520 C   0  0  0  0  0  0  0  0  0  0  0  0
  -23.8558  -29.0144   23.8243 C   0  0  0  0  0  0  0  0  0  0  0  0
  -22.9677   -7.0536   19.1442 C   0  0  0  0  0  0  0  0  0  0  0  0
  -22.7560   -9.7387   18.4431 C   0  0  0  0  0  0  0  0  0  0  0  0
  -25.2538  -15.2927   17.7947 C   0  0  0  0  0  0  0  0  0  0  0  0
  -22.5785  -31.1516   22.5659 C   0  0  0  0  0  0  0  0  0  0  0  0
  -22.4637  -29.1010   23.8382 C   0  0  0  0  0  0  0  0  0  0  0  0
  -24.6971  -16.5512   17.5713 C   0  0  0  0  0  0  0  0  0  0  0  0
  -19.9063  -28.4582   21.7223 C   0  0  0  0  0  0  0  0  0  0  0  0
  -19.1820  -27.2989   21.4446 C   0  0  0  0  0  0  0  0  0  0  0  0
  -24.7670  -16.9962   19.9411 C   0  0  0  0  0  0  0  0  0  0  0  0
  -18.1401  -27.4286   23.6205 C   0  0  0  0  0  0  0  0  0  0  0  0
  -26.9798  -20.8669   19.6358 C   0  0  0  0  0  0  0  0  0  0  0  0
  -24.6093  -29.9964   23.1812 C   0  0  0  0  0  0  0  0  0  0  0  0
  -26.9422  -30.4421   24.1118 C   0  0  0  0  0  0  0  0  0  0  0  0
  -23.0963   -8.0364   20.1383 C   0  0  0  0  0  0  0  0  0  0  0  0
  -25.5617  -14.8714   19.0963 C   0  0  0  0  0  0  0  0  0  0  0  0
  -22.9792   -9.3948   19.7872 C   0  0  0  0  0  0  0  0  0  0  0  0
  -25.3299  -15.7328   20.1782 C   0  0  0  0  0  0  0  0  0  0  0  0
  -25.9832  -23.0238   19.7401 C   0  0  0  0  0  0  0  0  0  0  0  0
  -25.0359  -22.5974   18.8159 C   0  0  0  0  0  0  0  0  0  0  0  0
  -21.8251  -30.1696   23.2091 C   0  0  0  0  0  0  0  0  0  0  0  0
  -24.4510  -17.4021   18.6448 C   0  0  0  0  0  0  0  0  0  0  0  0
  -19.7475  -29.1026   22.9492 C   0  0  0  0  0  0  0  0  0  0  0  0
  -26.9770  -22.1482   20.1630 C   0  0  0  0  0  0  0  0  0  0  0  0
  -18.2989  -26.7841   22.3936 C   0  0  0  0  0  0  0  0  0  0  0  0
  -18.8644  -28.5878   23.8982 C   0  0  0  0  0  0  0  0  0  0  0  0
  -26.0472  -29.9061   23.1666 C   0  0  0  0  0  0  0  0  0  0  0  0
  -25.1257  -21.2960   18.3488 C   0  0  0  0  0  0  0  0  0  0  0  0
  -28.1850  -30.0846   23.6492 C   0  0  0  0  0  0  0  0  0  0  0  0
  -26.6742  -31.1959   25.3017 C   0  0  0  0  0  0  0  0  0  0  0  0
  -24.5850  -12.5025   20.9773 C   0  0  0  0  0  0  0  0  0  0  0  0
  -26.9246  -13.6109   22.9318 C   0  0  0  0  0  0  0  0  0  0  0  0
  -28.9040  -16.2202   23.8911 C   0  0  0  0  0  0  0  0  0  0  0  0
  -30.1036  -25.6240   20.1458 C   0  0  0  0  0  0  0  0  0  0  0  0
  -23.2894   -7.6006   21.5692 C   0  0  0  0  0  0  0  0  0  0  0  0
  -26.1864  -13.5213   19.3179 C   0  0  0  0  0  0  0  0  0  0  0  0
  -25.6613  -15.3361   21.5928 C   0  0  0  0  0  0  0  0  0  0  0  0
  -23.7744   -8.7201   22.4866 C   0  0  0  0  0  0  0  0  0  0  0  0
  -30.5355  -29.1151   19.5962 C   0  0  0  0  0  0  0  0  0  0  0  0
  -22.9615   -9.9899   22.2552 C   0  0  0  0  0  0  0  0  0  0  0  0
  -25.7486  -24.6510   22.8901 C   0  0  0  0  0  0  0  0  0  0  0  0
  -25.0101  -25.8184   22.2972 C   0  0  0  0  0  0  0  0  0  0  0  0
  -29.5149  -29.7621   20.5342 C   0  0  0  0  0  0  0  0  0  0  0  0
  -30.0050  -27.8154   18.9951 C   0  0  0  0  0  0  0  0  0  0  0  0
  -28.5010  -27.4766   20.9178 C   0  0  0  0  0  0  0  0  0  0  0  0
  -23.1244  -10.4947   20.8164 C   0  0  1  0  0  0  0  0  0  0  0  0
  -25.9840  -12.9945   20.7353 C   0  0  1  0  0  0  0  0  0  0  0  0
  -25.0915  -24.5197   21.5440 C   0  0  0  0  0  0  0  0  0  0  0  0
  -29.0123  -28.7612   21.5920 C   0  0  2  0  0  0  0  0  0  0  0  0
  -23.9568  -23.5130   18.3440 C   0  0  0  0  0  0  0  0  0  0  0  0
  -30.6925  -16.8333   25.5412 C   0  0  0  0  0  0  0  0  0  0  0  0
  -24.8248  -13.7872   25.1385 C   0  0  0  0  0  0  0  0  0  0  0  0
  -26.3951  -15.2575   26.4194 C   0  0  0  0  0  0  0  0  0  0  0  0
  -27.0465  -12.9106   25.8802 C   0  0  0  0  0  0  0  0  0  0  0  0
  -30.8452  -16.8216   21.7395 C   0  0  0  0  0  0  0  0  0  0  0  0
  -25.9405  -24.4166   20.2811 C   0  0  0  0  0  0  0  0  0  0  0  0
  -24.1274  -20.7763   17.3431 C   0  0  0  0  0  0  0  0  0  0  0  0
  -30.0972  -23.4876   21.4089 C   0  0  0  0  0  0  0  0  0  0  0  0
  -24.2001  -19.2616   17.1836 C   0  0  0  0  0  0  0  0  0  1  0  0
  -29.2857  -22.4592   20.6416 C   0  0  0  0  0  0  0  0  0  0  0  0
  -26.9983  -14.6385   24.0352 C   0  0  1  0  0  0  0  0  0  0  0  0
  -30.3982  -16.3115   24.1434 C   0  0  2  0  0  0  0  0  0  0  0  0
  -26.3080  -14.1555   25.3420 C   0  0  0  0  0  0  0  0  0  0  0  0
  -26.0766  -20.4166   18.7364 N   0  0  0  0  0  0  0  0  0  0  0  0
  -26.6686  -29.2574   22.1781 N   0  0  0  0  0  0  0  0  0  0  0  0
  -27.9674  -29.3837   22.4996 N   0  0  0  0  0  0  0  0  0  0  0  0
  -26.2647  -14.0035   21.7587 N   0  0  0  0  0  0  0  0  0  0  0  0
  -29.5459  -26.9096   20.0509 N   0  0  0  0  0  0  0  0  0  0  0  0
  -29.4319  -30.3045   24.1176 N   0  0  0  0  0  0  0  0  0  0  0  0
  -25.3404  -31.4748   25.6296 N   0  0  0  0  0  0  0  0  0  0  0  0
  -24.3938  -11.1715   20.6589 N   0  0  0  0  0  0  0  0  0  0  0  0
  -28.4107  -14.9684   24.1923 N   0  0  0  0  0  0  0  0  0  0  0  0
  -29.6169  -24.8319   21.1786 N   0  0  0  0  0  0  0  0  0  0  0  0
  -31.0353  -17.2278   23.1558 N   0  3  0  0  0  0  0  0  0  0  0  0
  -27.5911  -31.6238   26.0431 O   0  0  0  0  0  0  0  0  0  0  0  0
  -23.7420  -13.2729   21.4215 O   0  0  0  0  0  0  0  0  0  0  0  0
  -27.4400  -12.5031   23.1017 O   0  0  0  0  0  0  0  0  0  0  0  0
  -28.2402  -17.1661   23.4724 O   0  0  0  0  0  0  0  0  0  0  0  0
  -30.9749  -25.2143   19.3712 O   0  0  0  0  0  0  0  0  0  0  0  0
  -20.4667  -30.2539   23.2231 O   0  0  0  0  0  0  0  0  0  0  0  0
  -23.9071  -18.6308   18.4296 O   0  0  0  0  0  0  0  0  0  1  0  0
  -27.9224  -22.5198   21.0635 O   0  0  0  0  0  0  0  0  0  0  0  0
  -17.6024  -25.6717   22.1262 F   0  0  0  0  0  0  0  0  0  0  0  0
  -18.7067  -29.2032   25.0782 F   0  0  0  0  0  0  0  0  0  0  0  0
  1  2  1  0  0  0  0
  1  5  2  0  0  0  0
  2  6  2  0  0  0  0
  3  8  2  0  0  0  0
  3 16  1  0  0  0  0
  4  9  1  0  0  0  0
  4 16  2  0  0  0  0
  5 18  1  0  0  0  0
  6 20  1  0  0  0  0
  7 10  2  0  0  0  0
  7 19  1  0  0  0  0
  8 24  1  0  0  0  0
  9 24  2  0  0  0  0
 10 25  1  0  0  0  0
 11 12  2  0  0  0  0
 11 26  1  0  0  0  0
 12 28  1  0  0  0  0
 13 21  1  0  0  0  0
 13 25  2  0  0  0  0
 14 28  2  0  0  0  0
 14 29  1  0  0  0  0
 15 27  1  0  0  0  0
 15 67  2  0  0  0  0
 16 30  1  0  0  0  0
 17 30  1  0  0  0  0
 17 32  2  0  0  0  0
 17 33  1  0  0  0  0
 18 20  2  0  0  0  0
 18 38  1  0  0  0  0
 19 21  2  0  0  0  0
 19 39  1  0  0  0  0
 20 49  1  0  0  0  0
 21 40  1  0  0  0  0
 22 23  1  0  0  0  0
 22 27  2  0  0  0  0
 22 59  1  0  0  0  0
 23 31  2  0  0  0  0
 23 53  1  0  0  0  0
 24 83  1  0  0  0  0
 25 84  1  0  0  0  0
 26 29  2  0  0  0  0
 26 83  1  0  0  0  0
 27 85  1  0  0  0  0
 28 86  1  0  0  0  0
 29 87  1  0  0  0  0
 30 68  2  0  0  0  0
 31 60  1  0  0  0  0
 31 67  1  0  0  0  0
 32 69  1  0  0  0  0
 32 72  1  0  0  0  0
 33 73  1  0  0  0  0
 33 78  2  0  0  0  0
 34 50  1  0  0  0  0
 34 74  1  0  0  0  0
 34 79  2  0  0  0  0
 35 64  1  0  0  0  0
 35 70  1  0  0  0  0
 35 80  2  0  0  0  0
 36 65  1  0  0  0  0
 36 75  1  0  0  0  0
 36 81  2  0  0  0  0
 37 71  1  0  0  0  0
 37 76  1  0  0  0  0
 37 82  2  0  0  0  0
 38 41  1  0  0  0  0
 39 50  1  0  0  0  0
 40 70  1  0  0  0  0
 41 43  1  0  0  0  0
 42 46  1  0  0  0  0
 42 47  1  0  0  0  0
 43 49  1  0  0  0  0
 44 45  1  0  0  0  0
 44 51  1  0  0  0  0
 45 51  1  0  0  0  0
 46 52  1  0  0  0  0
 47 71  1  0  0  0  0
 48 52  1  0  0  0  0
 48 71  1  0  0  0  0
 49 74  1  0  0  0  0
 50 70  1  0  0  0  0
 51 59  1  0  0  0  0
 52 69  1  0  0  0  0
 54 65  1  0  0  0  0
 55 66  1  0  0  0  0
 56 66  1  0  0  0  0
 57 66  1  0  0  0  0
 58 77  1  0  0  0  0
 60 62  1  0  0  0  0
 61 63  1  0  0  0  0
 61 76  1  0  0  0  0
 62 84  1  0  0  0  0
 63 85  1  0  0  0  0
 64 66  1  0  0  0  0
 64 75  1  0  0  0  0
 65 77  1  0  0  0  0
 68 69  1  0  0  0  0
M  CHG  1  77   1
M  ISO  4  37 100  62 101  76 100  84 101
M  END
> <Batch ID>
0157

> <Smiles>
CNC(C)C(=O)NC(C(=O)N1Cc2cc([101O:1][101CH2:1]Cc3ncc(OCC[100NH:0][100C:0](=O)N4CCCC(n5nc(-c6ccc(Oc7ccc(F)cc7F)cc6)c(C(N)=O)c5N)C4)c(CC4CC4)c3C)ccc2CC1C(=O)NC1CCCc2ccccc21)C(C)(C)C

> <Shape>
0.260

> <Color>
0.052

> <Negative vol penalty>
0.000

$$$$

  -OEChem-04052321593D

 86 95  0     1  0  0  0  0  0999 V2000
  -26.0858  -35.4045   23.9141 C   0  0  0  0  0  0  0  0  0  0  0  0
  -26.6162  -34.1547   23.6104 C   0  0  0  0  0  0  0  0  0  0  0  0
  -26.4376  -11.1137   21.1609 C   0  0  0  0  0  0  0  0  0  0  0  0
  -25.7316  -13.0600   19.9156 C   0  0  0  0  0  0  0  0  0  0  0  0
  -24.7561  -35.5167   24.3180 C   0  0  0  0  0  0  0  0  0  0  0  0
  -25.8174  -33.0162   23.7115 C   0  0  0  0  0  0  0  0  0  0  0  0
  -26.3396  -29.9175   19.7403 C   0  0  0  0  0  0  0  0  0  0  0  0
  -25.1434  -10.9626   21.6586 C   0  0  0  0  0  0  0  0  0  0  0  0
  -24.4373  -12.9089   20.4132 C   0  0  0  0  0  0  0  0  0  0  0  0
  -27.4751  -29.1092   19.7085 C   0  0  0  0  0  0  0  0  0  0  0  0
  -22.1819   -9.7476   20.5694 C   0  0  0  0  0  0  0  0  0  0  0  0
  -21.6326   -8.4655   20.5684 C   0  0  0  0  0  0  0  0  0  0  0  0
  -26.1673  -27.2505   20.5170 C   0  0  0  0  0  0  0  0  0  0  0  0
  -33.7999  -21.7626   17.0150 C   0  0  0  0  0  0  0  0  0  0  0  0
  -31.2912  -20.7599   17.7103 C   0  0  0  0  0  0  0  0  0  0  0  0
  -21.3899   -8.5676   22.9700 C   0  0  0  0  0  0  0  0  0  0  0  0
  -26.7318  -12.1625   20.2895 C   0  0  0  0  0  0  0  0  0  0  0  0
  -28.7971  -11.3940   19.0043 C   0  0  0  0  0  0  0  0  0  0  0  0
  -23.9378  -34.3801   24.4148 C   0  0  0  0  0  0  0  0  0  0  0  0
  -25.1097  -29.4004   20.1719 C   0  0  0  0  0  0  0  0  0  0  0  0
  -24.4759  -33.1132   24.1184 C   0  0  0  0  0  0  0  0  0  0  0  0
  -25.0171  -28.0536   20.5510 C   0  0  0  0  0  0  0  0  0  0  0  0
  -32.6484  -22.4825   16.6966 C   0  0  0  0  0  0  0  0  0  0  0  0
  -33.6971  -20.5413   17.6809 C   0  0  0  0  0  0  0  0  0  0  0  0
  -31.3941  -21.9812   17.0443 C   0  0  0  0  0  0  0  0  0  0  0  0
  -32.4427  -20.0400   18.0286 C   0  0  0  0  0  0  0  0  0  0  0  0
  -24.1432  -11.8602   21.2847 C   0  0  0  0  0  0  0  0  0  0  0  0
  -27.3897  -27.7762   20.0996 C   0  0  0  0  0  0  0  0  0  0  0  0
  -22.3353  -10.4397   21.7707 C   0  0  0  0  0  0  0  0  0  0  0  0
  -21.2366   -7.8755   21.7687 C   0  0  0  0  0  0  0  0  0  0  0  0
  -21.9393   -9.8497   22.9710 C   0  0  0  0  0  0  0  0  0  0  0  0
  -28.0687  -12.3194   19.7756 C   0  0  0  0  0  0  0  0  0  0  0  0
  -30.0014  -12.0124   18.7729 C   0  0  0  0  0  0  0  0  0  0  0  0
  -28.4188  -10.0918   18.5387 C   0  0  0  0  0  0  0  0  0  0  0  0
  -23.1201  -30.0469   22.5651 C   0  0  0  0  0  0  0  0  0  0  0  0
  -21.2311  -27.8782   21.0648 C   0  0  0  0  0  0  0  0  0  0  0  0
  -21.6657  -24.6900   19.4327 C   0  0  0  0  0  0  0  0  0  0  0  0
  -31.2600  -17.8905   18.6333 C   0  0  0  0  0  0  0  0  0  0  0  0
  -22.5199  -34.5457   24.9013 C   0  0  0  0  0  0  0  0  0  0  0  0
  -23.8884  -30.2783   20.1750 C   0  0  0  0  0  0  0  0  0  0  0  0
  -23.7158  -27.4447   21.0030 C   0  0  0  0  0  0  0  0  0  0  0  0
  -21.6347  -33.3338   24.6221 C   0  0  0  0  0  0  0  0  0  0  0  0
  -32.4102  -15.3711   21.2892 C   0  0  0  0  0  0  0  0  0  0  0  0
  -22.3531  -32.0464   25.0137 C   0  0  0  0  0  0  0  0  0  0  0  0
  -31.9773  -14.0731   20.6116 C   0  0  0  0  0  0  0  0  0  0  0  0
  -28.9375  -26.1875   17.8358 C   0  0  0  0  0  0  0  0  0  0  0  0
  -29.3093  -24.7397   19.8603 C   0  0  0  0  0  0  0  0  0  0  0  0
  -32.6129  -16.5040   20.2909 C   0  0  0  0  0  0  0  0  0  0  0  0
  -30.3899  -15.7125   19.4613 C   0  0  0  0  0  0  0  0  0  0  0  0
  -29.0350  -24.9601   16.9435 C   0  0  0  0  0  0  0  0  0  0  0  0
  -29.4054  -23.5152   18.9640 C   0  0  0  0  0  0  0  0  0  0  0  0
  -23.6341  -31.8577   24.1922 C   0  0  1  0  0  0  0  0  0  0  0  0
  -22.7989  -29.7830   21.1212 C   0  0  1  0  0  0  0  0  0  0  0  0
  -30.9936  -14.2995   19.4465 C   0  0  2  0  0  0  0  0  0  0  0  0
  -28.4471  -25.8327   19.2368 C   0  0  0  0  0  0  0  0  0  1  0  0
  -32.7832  -23.7876   15.9830 C   0  0  0  0  0  0  0  0  0  0  0  0
  -34.9473  -19.7916   18.0094 C   0  0  0  0  0  0  0  0  0  0  0  0
  -20.3260  -23.5900   17.6182 C   0  0  0  0  0  0  0  0  0  0  0  0
  -19.7585  -26.5270   23.3704 C   0  0  0  0  0  0  0  0  0  0  0  0
  -19.6661  -24.4372   21.9948 C   0  0  0  0  0  0  0  0  0  0  0  0
  -18.5287  -26.5075   21.1929 C   0  0  0  0  0  0  0  0  0  0  0  0
  -24.0511  -24.3585   17.7126 C   0  0  0  0  0  0  0  0  0  0  0  0
  -30.1417  -22.7377   16.7121 C   0  0  0  0  0  0  0  0  0  0  0  0
  -21.0533  -26.3811   21.1414 C   0  0  1  0  0  0  0  0  0  0  0  0
  -21.5647  -24.4099   17.9442 C   0  0  2  0  0  0  0  0  0  0  0  0
  -19.7766  -25.9755   21.9308 C   0  0  0  0  0  0  0  0  0  0  0  0
  -28.7532  -13.4404   20.0181 N   0  0  0  0  0  0  0  0  0  0  0  0
  -29.9244  -13.2233   19.3957 N   0  0  0  0  0  0  0  0  0  0  0  0
  -22.5512  -28.3454   20.9947 N   0  0  0  0  0  0  0  0  0  0  0  0
  -31.4391  -16.7383   19.4373 N   0  0  0  0  0  0  0  0  0  0  0  0
  -31.1083  -11.6330   18.0997 N   0  0  0  0  0  0  0  0  0  0  0  0
  -27.7878   -9.9853   17.2917 N   0  0  0  0  0  0  0  0  0  0  0  0
  -32.3175  -18.8011   18.7056 N   0  0  0  0  0  0  0  0  0  0  0  0
  -23.3166  -31.3819   22.8629 N   0  0  0  0  0  0  0  0  0  0  0  0
  -21.0849  -25.8953   19.7661 N   0  0  0  0  0  0  0  0  0  0  0  0
  -29.9179  -23.9277   17.6042 N   0  3  0  0  0  0  0  0  0  0  0  0
  -22.7629  -23.6574   17.4762 N   0  3  0  0  0  0  0  0  0  0  0  0
  -28.6192   -9.0550   19.2158 O   0  0  0  0  0  0  0  0  0  0  0  0
  -23.1835  -29.1090   23.3511 O   0  0  0  0  0  0  0  0  0  0  0  0
  -20.2352  -28.6060   21.0600 O   0  0  0  0  0  0  0  0  0  0  0  0
  -22.2026  -23.9152   20.2214 O   0  0  0  0  0  0  0  0  0  0  0  0
  -30.2568  -18.0423   17.9330 O   0  0  0  0  0  0  0  0  0  0  0  0
  -22.8801  -11.7129   21.7699 O   0  0  0  0  0  0  0  0  0  0  0  0
  -28.4966  -26.9852   20.0700 O   0  0  0  0  0  0  0  0  0  1  0  0
  -20.7077   -6.6449   21.7674 F   0  0  0  0  0  0  0  0  0  0  0  0
  -22.0831  -10.5102   24.1281 F   0  0  0  0  0  0  0  0  0  0  0  0
  1  2  1  0  0  0  0
  1  5  2  0  0  0  0
  2  6  2  0  0  0  0
  3  8  2  0  0  0  0
  3 17  1  0  0  0  0
  4  9  1  0  0  0  0
  4 17  2  0  0  0  0
  5 19  1  0  0  0  0
  6 21  1  0  0  0  0
  7 10  2  0  0  0  0
  7 20  1  0  0  0  0
  8 27  1  0  0  0  0
  9 27  2  0  0  0  0
 10 28  1  0  0  0  0
 11 12  2  0  0  0  0
 11 29  1  0  0  0  0
 12 30  1  0  0  0  0
 13 22  1  0  0  0  0
 13 28  2  0  0  0  0
 14 23  1  0  0  0  0
 14 24  2  0  0  0  0
 15 25  1  0  0  0  0
 15 26  2  0  0  0  0
 16 30  2  0  0  0  0
 16 31  1  0  0  0  0
 17 32  1  0  0  0  0
 18 32  1  0  0  0  0
 18 33  2  0  0  0  0
 18 34  1  0  0  0  0
 19 21  2  0  0  0  0
 19 39  1  0  0  0  0
 20 22  2  0  0  0  0
 20 40  1  0  0  0  0
 21 52  1  0  0  0  0
 22 41  1  0  0  0  0
 23 25  2  0  0  0  0
 23 56  1  0  0  0  0
 24 26  1  0  0  0  0
 24 57  1  0  0  0  0
 25 63  1  0  0  0  0
 26 73  1  0  0  0  0
 27 83  1  0  0  0  0
 28 84  1  0  0  0  0
 29 31  2  0  0  0  0
 29 83  1  0  0  0  0
 30 85  1  0  0  0  0
 31 86  1  0  0  0  0
 32 67  2  0  0  0  0
 33 68  1  0  0  0  0
 33 71  1  0  0  0  0
 34 72  1  0  0  0  0
 34 78  2  0  0  0  0
 35 53  1  0  0  0  0
 35 74  1  0  0  0  0
 35 79  2  0  0  0  0
 36 64  1  0  0  0  0
 36 69  1  0  0  0  0
 36 80  2  0  0  0  0
 37 65  1  0  0  0  0
 37 75  1  0  0  0  0
 37 81  2  0  0  0  0
 38 70  1  0  0  0  0
 38 73  1  0  0  0  0
 38 82  2  0  0  0  0
 39 42  1  0  0  0  0
 40 53  1  0  0  0  0
 41 69  1  0  0  0  0
 42 44  1  0  0  0  0
 43 45  1  0  0  0  0
 43 48  1  0  0  0  0
 44 52  1  0  0  0  0
 45 54  1  0  0  0  0
 46 50  1  0  0  0  0
 46 55  1  0  0  0  0
 47 51  1  0  0  0  0
 47 55  1  0  0  0  0
 48 70  1  0  0  0  0
 49 54  1  0  0  0  0
 49 70  1  0  0  0  0
 50 76  1  0  0  0  0
 51 76  1  0  0  0  0
 52 74  1  0  0  0  0
 53 69  1  0  0  0  0
 54 68  1  0  0  0  0
 55 84  1  0  0  0  0
 58 65  1  0  0  0  0
 59 66  1  0  0  0  0
 60 66  1  0  0  0  0
 61 66  1  0  0  0  0
 62 77  1  0  0  0  0
 63 76  1  0  0  0  0
 64 66  1  0  0  0  0
 64 75  1  0  0  0  0
 65 77  1  0  0  0  0
 67 68  1  0  0  0  0
M  CHG  2  76   1  77   1
M  ISO  4  38 100  55 101  73 100  84 101
M  END
> <Batch ID>
0157

> <Smiles>
CNC(C)C(=O)NC(C(=O)N1Cc2cc([101O:1][101CH:1]3CCN(Cc4cc([100NH:0][100C:0](=O)N5CCCC(n6nc(-c7ccc(Oc8ccc(F)cc8F)cc7)c(C(N)=O)c6N)C5)c(C)cc4C)CC3)ccc2CC1C(=O)NC1CCCc2ccccc21)C(C)(C)C

> <Shape>
0.299

> <Color>
0.083

> <Negative vol penalty>
0.000

$$$$

  -OEChem-04052321593D

 88 97  0     1  0  0  0  0  0999 V2000
  -17.0667  -29.7645   24.8086 C   0  0  0  0  0  0  0  0  0  0  0  0
  -18.3471  -29.5252   25.2972 C   0  0  0  0  0  0  0  0  0  0  0  0
  -26.0318  -13.5397   21.5471 C   0  0  0  0  0  0  0  0  0  0  0  0
  -25.0224  -13.1493   19.3870 C   0  0  0  0  0  0  0  0  0  0  0  0
  -16.7699  -29.4956   23.4731 C   0  0  0  0  0  0  0  0  0  0  0  0
  -19.3312  -29.0157   24.4508 C   0  0  0  0  0  0  0  0  0  0  0  0
  -26.3961  -29.2947   23.2993 C   0  0  0  0  0  0  0  0  0  0  0  0
  -25.0725  -12.7213   22.1433 C   0  0  0  0  0  0  0  0  0  0  0  0
  -24.0631  -12.3308   19.9833 C   0  0  0  0  0  0  0  0  0  0  0  0
  -27.4959  -28.4524   23.1427 C   0  0  0  0  0  0  0  0  0  0  0  0
  -21.8426  -12.9663   23.1088 C   0  0  0  0  0  0  0  0  0  0  0  0
  -21.2430  -13.4213   24.2831 C   0  0  0  0  0  0  0  0  0  0  0  0
  -26.8900  -28.1003   20.8345 C   0  0  0  0  0  0  0  0  0  0  0  0
  -31.6257  -28.8602   20.4736 C   0  0  0  0  0  0  0  0  0  0  0  0
  -31.6370  -27.3809   18.1084 C   0  0  0  0  0  0  0  0  0  0  0  0
  -22.0716  -11.4800   25.4585 C   0  0  0  0  0  0  0  0  0  0  0  0
  -26.0067  -13.7538   20.1690 C   0  0  0  0  0  0  0  0  0  0  0  0
  -28.2479  -14.2085   19.0385 C   0  0  0  0  0  0  0  0  0  0  0  0
  -17.7534  -28.9916   22.6075 C   0  0  0  0  0  0  0  0  0  0  0  0
  -25.5273  -29.5380   22.2258 C   0  0  0  0  0  0  0  0  0  0  0  0
  -19.0469  -28.7384   23.1028 C   0  0  0  0  0  0  0  0  0  0  0  0
  -25.7813  -28.9481   20.9793 C   0  0  0  0  0  0  0  0  0  0  0  0
  -31.8196  -29.5021   19.2505 C   0  0  0  0  0  0  0  0  0  0  0  0
  -31.4375  -27.4786   20.5141 C   0  0  0  0  0  0  0  0  0  0  0  0
  -31.8252  -28.7625   18.0679 C   0  0  0  0  0  0  0  0  0  0  0  0
  -24.0881  -12.1168   21.3614 C   0  0  0  0  0  0  0  0  0  0  0  0
  -27.7414  -27.8527   21.9110 C   0  0  0  0  0  0  0  0  0  0  0  0
  -22.5567  -11.7680   23.1093 C   0  0  0  0  0  0  0  0  0  0  0  0
  -31.4431  -26.7390   19.3315 C   0  0  0  0  0  0  0  0  0  0  0  0
  -21.3575  -12.6782   25.4580 C   0  0  0  0  0  0  0  0  0  0  0  0
  -22.6712  -11.0249   24.2842 C   0  0  0  0  0  0  0  0  0  0  0  0
  -26.9971  -14.5996   19.5526 C   0  0  0  0  0  0  0  0  0  0  0  0
  -28.8045  -15.3723   18.5672 C   0  0  0  0  0  0  0  0  0  0  0  0
  -28.8526  -12.9093   18.9913 C   0  0  0  0  0  0  0  0  0  0  0  0
  -22.4428  -29.0065   21.6715 C   0  0  0  0  0  0  0  0  0  0  0  0
  -23.0381  -30.6950   18.9665 C   0  0  0  0  0  0  0  0  0  0  0  0
  -25.3149  -31.7608   16.6585 C   0  0  0  0  0  0  0  0  0  0  0  0
  -30.0620  -20.5753   18.9680 C   0  0  0  0  0  0  0  0  0  0  0  0
  -17.3725  -28.6718   21.1837 C   0  0  0  0  0  0  0  0  0  0  0  0
  -24.3604  -30.4703   22.4037 C   0  0  0  0  0  0  0  0  0  0  0  0
  -24.8904  -29.1930   19.7898 C   0  0  0  0  0  0  0  0  0  0  0  0
  -18.5729  -28.4858   20.2592 C   0  0  0  0  0  0  0  0  0  0  0  0
  -26.7886  -19.9505   17.8650 C   0  0  0  0  0  0  0  0  0  0  0  0
  -19.6163  -27.5858   20.9135 C   0  0  0  0  0  0  0  0  0  0  0  0
  -26.6467  -18.4586   18.1658 C   0  0  0  0  0  0  0  0  0  0  0  0
  -30.6150  -23.9417   17.5156 C   0  0  0  0  0  0  0  0  0  0  0  0
  -29.1795  -24.1640   19.5892 C   0  0  0  0  0  0  0  0  0  0  0  0
  -27.5310  -20.6913   18.9785 C   0  0  0  0  0  0  0  0  0  0  0  0
  -31.1231  -22.6000   18.0413 C   0  0  0  0  0  0  0  0  0  0  0  0
  -29.7230  -22.8201   20.0688 C   0  0  0  0  0  0  0  0  0  0  0  0
  -28.7026  -18.6103   19.6212 C   0  0  0  0  0  0  0  0  0  0  0  0
  -20.1480  -28.2095   22.2096 C   0  0  1  0  0  0  0  0  0  0  0  0
  -23.2506  -30.2401   21.3826 C   0  0  1  0  0  0  0  0  0  0  0  0
  -28.0123  -17.8284   18.4927 C   0  0  1  0  0  0  0  0  0  0  0  0
  -30.1411  -24.8717   18.6330 C   0  0  0  0  0  0  0  0  0  0  0  0
  -32.0207  -30.9819   19.2315 C   0  0  0  0  0  0  0  0  0  0  0  0
  -32.0308  -29.4273   16.7465 C   0  0  0  0  0  0  0  0  0  0  0  0
  -32.4524  -26.9643   22.7585 C   0  0  0  0  0  0  0  0  0  0  0  0
  -25.4964  -33.0950   14.5409 C   0  0  0  0  0  0  0  0  0  0  0  0
  -21.8462  -28.3644   17.3989 C   0  0  0  0  0  0  0  0  0  0  0  0
  -22.9006  -29.3060   15.3325 C   0  0  0  0  0  0  0  0  0  0  0  0
  -21.1834  -30.6281   16.5678 C   0  0  0  0  0  0  0  0  0  0  0  0
  -27.1396  -33.7235   17.9144 C   0  0  0  0  0  0  0  0  0  0  0  0
  -29.9599  -27.2969   22.5632 C   0  0  0  0  0  0  0  0  0  1  0  0
  -31.2305  -26.8081   21.8321 C   0  0  1  0  0  0  0  0  0  0  0  0
  -23.4887  -30.3493   17.5678 C   0  0  1  0  0  0  0  0  0  0  0  0
  -25.5758  -33.1309   16.0591 C   0  0  2  0  0  0  0  0  0  0  0  0
  -22.3706  -29.6556   16.7395 C   0  0  0  0  0  0  0  0  0  0  0  0
  -26.7720  -15.9095   19.4204 N   0  0  0  0  0  0  0  0  0  0  0  0
  -27.8890  -16.3517   18.8181 N   0  0  0  0  0  0  0  0  0  0  0  0
  -23.7588  -30.1072   20.0157 N   0  0  0  0  0  0  0  0  0  0  0  0
  -28.8076  -20.0309   19.2817 N   0  0  0  0  0  0  0  0  0  0  0  0
  -30.1588  -21.9770   18.9474 N   0  0  0  0  0  0  0  0  0  0  0  0
  -29.9829  -15.6433   17.9668 N   0  0  0  0  0  0  0  0  0  0  0  0
  -28.1431  -11.8225   19.5201 N   0  0  0  0  0  0  0  0  0  0  0  0
  -21.1048  -29.2539   21.9125 N   0  0  0  0  0  0  0  0  0  0  0  0
  -23.9853  -31.5891   16.9808 N   0  0  0  0  0  0  0  0  0  0  0  0
  -26.9300  -33.6169   16.4476 N   0  3  0  0  0  0  0  0  0  0  0  0
  -29.9954  -12.7206   18.5096 O   0  0  0  0  0  0  0  0  0  0  0  0
  -22.9924  -27.9113   21.6741 O   0  0  0  0  0  0  0  0  0  0  0  0
  -22.0863  -31.4641   19.1225 O   0  0  0  0  0  0  0  0  0  0  0  0
  -26.2013  -30.9250   16.8209 O   0  0  0  0  0  0  0  0  0  0  0  0
  -31.0368  -19.8554   18.7177 O   0  0  0  0  0  0  0  0  0  0  0  0
  -23.1520  -11.3180   21.9428 O   0  0  0  0  0  0  0  0  0  0  0  0
  -31.2612  -25.3813   19.3535 O   0  0  0  0  0  0  0  0  0  0  0  0
  -28.8210  -27.0241   21.7546 O   0  0  0  0  0  0  0  0  0  1  0  0
  -20.7830  -13.1161   26.5859 F   0  0  0  0  0  0  0  0  0  0  0  0
  -23.3570   -9.8736   24.2911 F   0  0  0  0  0  0  0  0  0  0  0  0
  1  2  1  0  0  0  0
  1  5  2  0  0  0  0
  2  6  2  0  0  0  0
  3  8  2  0  0  0  0
  3 17  1  0  0  0  0
  4  9  1  0  0  0  0
  4 17  2  0  0  0  0
  5 19  1  0  0  0  0
  6 21  1  0  0  0  0
  7 10  2  0  0  0  0
  7 20  1  0  0  0  0
  8 26  1  0  0  0  0
  9 26  2  0  0  0  0
 10 27  1  0  0  0  0
 11 12  2  0  0  0  0
 11 28  1  0  0  0  0
 12 30  1  0  0  0  0
 13 22  1  0  0  0  0
 13 27  2  0  0  0  0
 14 23  2  0  0  0  0
 14 24  1  0  0  0  0
 15 25  2  0  0  0  0
 15 29  1  0  0  0  0
 16 30  2  0  0  0  0
 16 31  1  0  0  0  0
 17 32  1  0  0  0  0
 18 32  1  0  0  0  0
 18 33  2  0  0  0  0
 18 34  1  0  0  0  0
 19 21  2  0  0  0  0
 19 39  1  0  0  0  0
 20 22  2  0  0  0  0
 20 40  1  0  0  0  0
 21 52  1  0  0  0  0
 22 41  1  0  0  0  0
 23 25  1  0  0  0  0
 23 56  1  0  0  0  0
 24 29  2  0  0  0  0
 24 65  1  0  0  0  0
 25 57  1  0  0  0  0
 26 84  1  0  0  0  0
 27 86  1  0  0  0  0
 28 31  2  0  0  0  0
 28 84  1  0  0  0  0
 29 85  1  0  0  0  0
 30 87  1  0  0  0  0
 31 88  1  0  0  0  0
 32 69  2  0  0  0  0
 33 70  1  0  0  0  0
 33 74  1  0  0  0  0
 34 75  1  0  0  0  0
 34 79  2  0  0  0  0
 35 53  1  0  0  0  0
 35 76  1  0  0  0  0
 35 80  2  0  0  0  0
 36 66  1  0  0  0  0
 36 71  1  0  0  0  0
 36 81  2  0  0  0  0
 37 67  1  0  0  0  0
 37 77  1  0  0  0  0
 37 82  2  0  0  0  0
 38 72  1  0  0  0  0
 38 73  1  0  0  0  0
 38 83  2  0  0  0  0
 39 42  1  0  0  0  0
 40 53  1  0  0  0  0
 41 71  1  0  0  0  0
 42 44  1  0  0  0  0
 43 45  1  0  0  0  0
 43 48  1  0  0  0  0
 44 52  1  0  0  0  0
 45 54  1  0  0  0  0
 46 49  1  0  0  0  0
 46 55  1  0  0  0  0
 47 50  1  0  0  0  0
 47 55  1  0  0  0  0
 48 72  1  0  0  0  0
 49 73  1  0  0  0  0
 50 73  1  0  0  0  0
 51 54  1  0  0  0  0
 51 72  1  0  0  0  0
 52 76  1  0  0  0  0
 53 71  1  0  0  0  0
 54 70  1  0  0  0  0
 55 85  1  0  0  0  0
 58 65  1  0  0  0  0
 59 67  1  0  0  0  0
 60 68  1  0  0  0  0
 61 68  1  0  0  0  0
 62 68  1  0  0  0  0
 63 78  1  0  0  0  0
 64 65  1  0  0  0  0
 64 86  1  0  0  0  0
 66 68  1  0  0  0  0
 66 77  1  0  0  0  0
 67 78  1  0  0  0  0
 69 70  1  0  0  0  0
M  CHG  1  78   1
M  ISO  4  38 100  64 101  73 100  86 101
M  END
> <Batch ID>
0157

> <Smiles>
CNC(C)C(=O)NC(C(=O)N1Cc2cc([101O:1][101CH2:1]C(C)c3cc(C)c(C)cc3OC3CC[100N:0]([100C:0](=O)N4CCCC(n5nc(-c6ccc(Oc7ccc(F)cc7F)cc6)c(C(N)=O)c5N)C4)CC3)ccc2CC1C(=O)NC1CCCc2ccccc21)C(C)(C)C

> <Shape>
0.270

> <Color>
0.082

> <Negative vol penalty>
0.000

$$$$

  -OEChem-04052321593D

 89 98  0     1  0  0  0  0  0999 V2000
  -23.3569  -36.2849   16.7185 C   0  0  0  0  0  0  0  0  0  0  0  0
  -23.6103  -35.0974   17.3975 C   0  0  0  0  0  0  0  0  0  0  0  0
  -23.4907   -9.9284   22.2400 C   0  0  0  0  0  0  0  0  0  0  0  0
  -23.5113   -9.4623   19.8695 C   0  0  0  0  0  0  0  0  0  0  0  0
  -23.8645  -37.4880   17.2072 C   0  0  0  0  0  0  0  0  0  0  0  0
  -24.3723  -35.1122   18.5652 C   0  0  0  0  0  0  0  0  0  0  0  0
  -22.3524  -32.2723   22.2394 C   0  0  0  0  0  0  0  0  0  0  0  0
  -22.6233   -8.8553   22.4435 C   0  0  0  0  0  0  0  0  0  0  0  0
  -22.6438   -8.3891   20.0730 C   0  0  0  0  0  0  0  0  0  0  0  0
  -22.5312  -30.8926   22.1489 C   0  0  0  0  0  0  0  0  0  0  0  0
  -22.8336   -5.4870   22.6510 C   0  0  0  0  0  0  0  0  0  0  0  0
  -23.1081   -4.6237   23.7117 C   0  0  0  0  0  0  0  0  0  0  0  0
  -24.3308  -31.0267   23.7497 C   0  0  0  0  0  0  0  0  0  0  0  0
  -24.5993  -24.8979   21.4259 C   0  0  0  0  0  0  0  0  0  0  0  0
  -20.9651   -5.1505   24.6951 C   0  0  0  0  0  0  0  0  0  0  0  0
  -23.9347  -10.2320   20.9530 C   0  0  0  0  0  0  0  0  0  0  0  0
  -26.2377  -11.3120   20.7597 C   0  0  0  0  0  0  0  0  0  0  0  0
  -24.6250  -37.5188   18.3867 C   0  0  0  0  0  0  0  0  0  0  0  0
  -23.1701  -33.0424   23.0790 C   0  0  0  0  0  0  0  0  0  0  0  0
  -24.8917  -36.3167   19.0694 C   0  0  0  0  0  0  0  0  0  0  0  0
  -24.1587  -32.4157   23.8510 C   0  0  0  0  0  0  0  0  0  0  0  0
  -24.2998  -26.2590   21.3684 C   0  0  0  0  0  0  0  0  0  0  0  0
  -22.3087  -25.8763   22.6824 C   0  0  0  0  0  0  0  0  0  0  0  0
  -23.1545  -26.7482   21.9967 C   0  0  0  0  0  0  0  0  0  0  0  0
  -22.6082  -24.5152   22.7397 C   0  0  0  0  0  0  0  0  0  0  0  0
  -22.1998   -8.0856   21.3601 C   0  0  0  0  0  0  0  0  0  0  0  0
  -23.5224  -30.2700   22.9018 C   0  0  0  0  0  0  0  0  0  0  0  0
  -21.6249   -6.1821   22.6124 C   0  0  0  0  0  0  0  0  0  0  0  0
  -23.7534  -24.0260   22.1115 C   0  0  0  0  0  0  0  0  0  0  0  0
  -22.1739   -4.4555   24.7337 C   0  0  0  0  0  0  0  0  0  0  0  0
  -20.6906   -6.0139   23.6344 C   0  0  0  0  0  0  0  0  0  0  0  0
  -24.8304  -11.3408   20.7420 C   0  0  0  0  0  0  0  0  0  0  0  0
  -26.6109  -12.6095   20.5069 C   0  0  0  0  0  0  0  0  0  0  0  0
  -27.1281  -10.2109   20.9844 C   0  0  0  0  0  0  0  0  0  0  0  0
  -25.2422  -35.4115   22.6346 C   0  0  0  0  0  0  0  0  0  0  0  0
  -25.2929  -35.4545   25.8778 C   0  0  0  0  0  0  0  0  0  0  0  0
  -24.7991  -33.7721   28.8056 C   0  0  0  0  0  0  0  0  0  0  0  0
  -25.2105  -17.8902   21.6012 C   0  0  0  0  0  0  0  0  0  0  0  0
  -25.1923  -38.8371   18.8504 C   0  0  0  0  0  0  0  0  0  0  0  0
  -22.9469  -34.5260   23.1856 C   0  0  0  0  0  0  0  0  0  0  0  0
  -25.0495  -33.1946   24.7828 C   0  0  0  0  0  0  0  0  0  0  0  0
  -25.6754  -38.8167   20.2983 C   0  0  0  0  0  0  0  0  0  0  0  0
  -24.4314  -16.5368   18.4574 C   0  0  0  0  0  0  0  0  0  0  0  0
  -26.5163  -37.5718   20.5630 C   0  0  0  0  0  0  0  0  0  0  0  0
  -24.5927  -15.0402   18.7229 C   0  0  0  0  0  0  0  0  0  0  0  0
  -25.5704  -21.4702   20.7060 C   0  0  0  0  0  0  0  0  0  0  0  0
  -23.1080  -20.8974   20.8399 C   0  0  0  0  0  0  0  0  0  0  0  0
  -23.7558  -17.2565   19.6259 C   0  0  0  0  0  0  0  0  0  0  0  0
  -25.8737  -20.2660   21.5962 C   0  0  0  0  0  0  0  0  0  0  0  0
  -23.4671  -19.7094   21.7294 C   0  0  0  0  0  0  0  0  0  0  0  0
  -24.5724  -15.5309   21.1981 C   0  0  0  0  0  0  0  0  0  0  0  0
  -25.6932  -36.2952   20.3529 C   0  0  1  0  0  0  0  0  0  0  0  0
  -24.1753  -35.2807   23.6845 C   0  0  1  0  0  0  0  0  0  0  0  0
  -25.3015  -14.7905   20.0661 C   0  0  1  0  0  0  0  0  0  0  0  0
  -24.1545  -22.0110   20.9076 C   0  0  0  0  0  0  0  0  0  0  0  0
  -25.2217  -27.1707   20.6267 C   0  0  0  0  0  0  0  0  0  0  0  0
  -21.0802  -26.4005   23.3566 C   0  0  0  0  0  0  0  0  0  0  0  0
  -20.9514  -22.7349   25.7382 C   0  0  0  0  0  0  0  0  0  0  0  0
  -24.9588  -34.0590   31.2935 C   0  0  0  0  0  0  0  0  0  0  0  0
  -28.3295  -35.2083   25.7089 C   0  0  0  0  0  0  0  0  0  0  0  0
  -28.3408  -34.5510   28.1247 C   0  0  0  0  0  0  0  0  0  0  0  0
  -27.5075  -36.8036   27.4507 C   0  0  0  0  0  0  0  0  0  0  0  0
  -21.9067  -33.2599   29.1669 C   0  0  0  0  0  0  0  0  0  0  0  0
  -21.7060  -23.5741   23.4729 C   0  0  0  0  0  0  0  0  0  0  0  0
  -22.8365  -28.2088   21.9339 C   0  0  0  0  0  0  0  0  0  1  0  0
  -21.8925  -23.6683   24.9933 C   0  0  0  0  0  0  0  0  0  0  0  0
  -26.1065  -34.7610   26.9436 C   0  0  1  0  0  0  0  0  0  0  0  0
  -24.0560  -34.1531   30.0733 C   0  0  2  0  0  0  0  0  0  0  0  0
  -27.5557  -35.3163   27.0380 C   0  0  0  0  0  0  0  0  0  0  0  0
  -24.3426  -12.5600   20.4976 N   0  0  0  0  0  0  0  0  0  0  0  0
  -25.4496  -13.3093   20.3594 N   0  0  0  0  0  0  0  0  0  0  0  0
  -24.7964  -34.6435   24.8474 N   0  0  0  0  0  0  0  0  0  0  0  0
  -24.4428  -16.9564   20.8892 N   0  0  0  0  0  0  0  0  0  0  0  0
  -24.8375  -19.2399   21.4847 N   0  0  0  0  0  0  0  0  0  0  0  0
  -27.8158  -13.2086   20.3989 N   0  0  0  0  0  0  0  0  0  0  0  0
  -26.5774   -8.9456   21.2292 N   0  0  0  0  0  0  0  0  0  0  0  0
  -24.8263  -36.0602   21.4876 N   0  0  0  0  0  0  0  0  0  0  0  0
  -25.3411  -34.8750   28.1803 N   0  0  0  0  0  0  0  0  0  0  0  0
  -22.8892  -33.2495   30.2811 N   0  3  0  0  0  0  0  0  0  0  0  0
  -28.3750  -10.3484   20.9848 O   0  0  0  0  0  0  0  0  0  0  0  0
  -26.3604  -34.9587   22.8498 O   0  0  0  0  0  0  0  0  0  0  0  0
  -25.0988  -36.6699   25.9603 O   0  0  0  0  0  0  0  0  0  0  0  0
  -24.8929  -32.6117   28.4117 O   0  0  0  0  0  0  0  0  0  0  0  0
  -26.1733  -17.5424   22.2963 O   0  0  0  0  0  0  0  0  0  0  0  0
  -21.3535   -7.0382   21.5583 O   0  0  0  0  0  0  0  0  0  0  0  0
  -24.0641  -22.6924   22.1570 O   0  0  0  0  0  0  0  0  0  0  0  0
  -23.7007  -28.9136   22.8142 O   0  0  0  0  0  0  0  0  0  1  0  0
  -22.4369   -3.6252   25.7514 F   0  0  0  0  0  0  0  0  0  0  0  0
  -19.5272   -6.6780   23.6021 F   0  0  0  0  0  0  0  0  0  0  0  0
  1  2  1  0  0  0  0
  1  5  2  0  0  0  0
  2  6  2  0  0  0  0
  3  8  2  0  0  0  0
  3 16  1  0  0  0  0
  4  9  1  0  0  0  0
  4 16  2  0  0  0  0
  5 18  1  0  0  0  0
  6 20  1  0  0  0  0
  7 10  2  0  0  0  0
  7 19  1  0  0  0  0
  8 26  1  0  0  0  0
  9 26  2  0  0  0  0
 10 27  1  0  0  0  0
 11 12  2  0  0  0  0
 11 28  1  0  0  0  0
 12 30  1  0  0  0  0
 13 21  1  0  0  0  0
 13 27  2  0  0  0  0
 14 22  1  0  0  0  0
 14 29  2  0  0  0  0
 15 30  2  0  0  0  0
 15 31  1  0  0  0  0
 16 32  1  0  0  0  0
 17 32  1  0  0  0  0
 17 33  2  0  0  0  0
 17 34  1  0  0  0  0
 18 20  2  0  0  0  0
 18 39  1  0  0  0  0
 19 21  2  0  0  0  0
 19 40  1  0  0  0  0
 20 52  1  0  0  0  0
 21 41  1  0  0  0  0
 22 24  2  0  0  0  0
 22 56  1  0  0  0  0
 23 24  1  0  0  0  0
 23 25  2  0  0  0  0
 23 57  1  0  0  0  0
 24 65  1  0  0  0  0
 25 29  1  0  0  0  0
 25 64  1  0  0  0  0
 26 85  1  0  0  0  0
 27 87  1  0  0  0  0
 28 31  2  0  0  0  0
 28 85  1  0  0  0  0
 29 86  1  0  0  0  0
 30 88  1  0  0  0  0
 31 89  1  0  0  0  0
 32 70  2  0  0  0  0
 33 71  1  0  0  0  0
 33 75  1  0  0  0  0
 34 76  1  0  0  0  0
 34 80  2  0  0  0  0
 35 53  1  0  0  0  0
 35 77  1  0  0  0  0
 35 81  2  0  0  0  0
 36 67  1  0  0  0  0
 36 72  1  0  0  0  0
 36 82  2  0  0  0  0
 37 68  1  0  0  0  0
 37 78  1  0  0  0  0
 37 83  2  0  0  0  0
 38 73  1  0  0  0  0
 38 74  1  0  0  0  0
 38 84  2  0  0  0  0
 39 42  1  0  0  0  0
 40 53  1  0  0  0  0
 41 72  1  0  0  0  0
 42 44  1  0  0  0  0
 43 45  1  0  0  0  0
 43 48  1  0  0  0  0
 44 52  1  0  0  0  0
 45 54  1  0  0  0  0
 46 49  1  0  0  0  0
 46 55  1  0  0  0  0
 47 50  1  0  0  0  0
 47 55  1  0  0  0  0
 48 73  1  0  0  0  0
 49 74  1  0  0  0  0
 50 74  1  0  0  0  0
 51 54  1  0  0  0  0
 51 73  1  0  0  0  0
 52 77  1  0  0  0  0
 53 72  1  0  0  0  0
 54 71  1  0  0  0  0
 55 86  1  0  0  0  0
 58 66  1  0  0  0  0
 59 68  1  0  0  0  0
 60 69  1  0  0  0  0
 61 69  1  0  0  0  0
 62 69  1  0  0  0  0
 63 79  1  0  0  0  0
 64 66  1  0  0  0  0
 65 87  1  0  0  0  0
 67 69  1  0  0  0  0
 67 78  1  0  0  0  0
 68 79  1  0  0  0  0
 70 71  1  0  0  0  0
M  CHG  1  79   1
M  ISO  4  38 100  65 101  74 100  87 101
M  END
> <Batch ID>
0157

> <Smiles>
CCCc1c(OC2CC[100N:0]([100C:0](=O)N3CCCC(n4nc(-c5ccc(Oc6ccc(F)cc6F)cc5)c(C(N)=O)c4N)C3)CC2)cc(C)c([101CH2:1][101O:1]c2ccc3c(c2)CN(C(=O)C(NC(=O)C(C)NC)C(C)(C)C)C(C(=O)NC2CCCc4ccccc42)C3)c1C

> <Shape>
0.188

> <Color>
0.101

> <Negative vol penalty>
0.000

$$$$

  -OEChem-04052321593D

 86 95  0     1  0  0  0  0  0999 V2000
  -28.9869  -34.8268   24.6686 C   0  0  0  0  0  0  0  0  0  0  0  0
  -29.0521  -33.5386   24.1474 C   0  0  0  0  0  0  0  0  0  0  0  0
  -27.6248  -11.8451   21.1974 C   0  0  0  0  0  0  0  0  0  0  0  0
  -27.2994  -13.0005   19.1007 C   0  0  0  0  0  0  0  0  0  0  0  0
  -27.8249  -35.2623   25.3043 C   0  0  0  0  0  0  0  0  0  0  0  0
  -27.9558  -32.6847   24.2626 C   0  0  0  0  0  0  0  0  0  0  0  0
  -26.9520  -30.2196   19.9544 C   0  0  0  0  0  0  0  0  0  0  0  0
  -26.6707  -10.8986   20.8240 C   0  0  0  0  0  0  0  0  0  0  0  0
  -26.3454  -12.0539   18.7272 C   0  0  0  0  0  0  0  0  0  0  0  0
  -27.7606  -29.1276   19.6424 C   0  0  0  0  0  0  0  0  0  0  0  0
  -24.0595   -8.3803   20.5734 C   0  0  0  0  0  0  0  0  0  0  0  0
  -23.1074   -8.0076   21.5222 C   0  0  0  0  0  0  0  0  0  0  0  0
  -26.0511  -27.6355   20.4613 C   0  0  0  0  0  0  0  0  0  0  0  0
  -22.3462  -10.2965   21.6574 C   0  0  0  0  0  0  0  0  0  0  0  0
  -27.9391  -12.8961   20.3358 C   0  0  0  0  0  0  0  0  0  0  0  0
  -28.9422  -23.4800   19.1009 C   0  0  0  0  0  0  0  0  0  0  0  0
  -30.3101  -13.8264   20.4794 C   0  0  0  0  0  0  0  0  0  0  0  0
  -26.7103  -34.4166   25.4189 C   0  0  0  0  0  0  0  0  0  0  0  0
  -25.6892  -30.0280   20.5332 C   0  0  0  0  0  0  0  0  0  0  0  0
  -26.7783  -33.1089   24.9017 C   0  0  0  0  0  0  0  0  0  0  0  0
  -25.2274  -28.7267   20.7773 C   0  0  0  0  0  0  0  0  0  0  0  0
  -27.8267  -23.6389   18.2898 C   0  0  0  0  0  0  0  0  0  0  0  0
  -29.1108  -22.3986   19.9461 C   0  0  0  0  0  0  0  0  0  0  0  0
  -26.8219  -22.6846   18.3089 C   0  0  0  0  0  0  0  0  0  0  0  0
  -26.9635  -21.5789   19.1538 C   0  0  0  0  0  0  0  0  0  0  0  0
  -28.1005  -21.4374   19.9666 C   0  0  0  0  0  0  0  0  0  0  0  0
  -26.0311  -11.0030   19.5888 C   0  0  0  0  0  0  0  0  0  0  0  0
  -27.3114  -27.8354   19.8985 C   0  0  0  0  0  0  0  0  0  0  0  0
  -24.1550   -9.7111   20.1666 C   0  0  0  0  0  0  0  0  0  0  0  0
  -22.2508   -8.9657   22.0642 C   0  0  0  0  0  0  0  0  0  0  0  0
  -23.2984  -10.6692   20.7086 C   0  0  0  0  0  0  0  0  0  0  0  0
  -28.9241  -13.8745   20.7213 C   0  0  0  0  0  0  0  0  0  0  0  0
  -30.7968  -14.9821   21.0398 C   0  0  0  0  0  0  0  0  0  0  0  0
  -29.8316  -24.6111   18.8885 C   0  0  0  0  0  0  0  0  0  0  0  0
  -31.0880  -12.8264   19.8082 C   0  0  0  0  0  0  0  0  0  0  0  0
  -24.3350  -30.8556   23.2872 C   0  0  0  0  0  0  0  0  0  0  0  0
  -21.6802  -29.5979   21.9117 C   0  0  0  0  0  0  0  0  0  0  0  0
  -20.3453  -27.4665   19.6047 C   0  0  0  0  0  0  0  0  0  0  0  0
  -28.3406  -20.3036   22.2034 C   0  0  0  0  0  0  0  0  0  0  0  0
  -25.4931  -34.9158   26.1563 C   0  0  0  0  0  0  0  0  0  0  0  0
  -24.8181  -31.2154   20.8391 C   0  0  0  0  0  0  0  0  0  0  0  0
  -27.8735  -24.8876   17.4657 C   0  0  0  0  0  0  0  0  0  0  0  0
  -23.8713  -28.4663   21.3787 C   0  0  0  0  0  0  0  0  0  0  0  0
  -24.2427  -34.0767   25.9060 C   0  0  0  0  0  0  0  0  0  0  0  0
  -29.8888  -18.1148   24.5464 C   0  0  0  0  0  0  0  0  0  0  0  0
  -24.5635  -32.5905   26.0295 C   0  0  0  0  0  0  0  0  0  0  0  0
  -29.9487  -16.7761   23.8071 C   0  0  0  0  0  0  0  0  0  0  0  0
  -28.6083  -18.8833   24.2249 C   0  0  0  0  0  0  0  0  0  0  0  0
  -28.4021  -17.7366   22.0542 C   0  0  0  0  0  0  0  0  0  0  0  0
  -25.6011  -32.1615   24.9850 C   0  0  1  0  0  0  0  0  0  0  0  0
  -23.7614  -30.9237   21.9001 C   0  0  1  0  0  0  0  0  0  0  0  0
  -29.7041  -16.9554   22.2959 C   0  0  2  0  0  0  0  0  0  0  0  0
  -29.2207  -25.5584   17.8595 C   0  0  2  0  0  0  0  0  0  0  0  0
  -30.3225  -22.2587   20.8045 C   0  0  0  0  0  0  0  0  0  0  0  0
  -25.6169  -22.8410   17.4423 C   0  0  0  0  0  0  0  0  0  0  0  0
  -25.8875  -20.5368   19.1879 C   0  0  0  0  0  0  0  0  0  0  0  0
  -30.1564  -25.6741   16.6548 C   0  0  0  0  0  0  0  0  0  0  0  0
  -18.1443  -26.6264   18.7404 C   0  0  0  0  0  0  0  0  0  0  0  0
  -21.3788  -27.8445   24.3906 C   0  0  0  0  0  0  0  0  0  0  0  0
  -19.7906  -26.4066   23.0950 C   0  0  0  0  0  0  0  0  0  0  0  0
  -19.2373  -28.8011   23.5228 C   0  0  0  0  0  0  0  0  0  0  0  0
  -20.8867  -28.5006   16.8850 C   0  0  0  0  0  0  0  0  0  0  0  0
  -28.9958  -26.9136   18.4952 C   0  0  0  0  0  0  0  0  0  1  0  0
  -21.0513  -28.2265   21.8582 C   0  0  1  0  0  0  0  0  0  0  0  0
  -19.2490  -27.6579   18.5722 C   0  0  2  0  0  0  0  0  0  0  0  0
  -20.3909  -27.8243   23.2071 C   0  0  0  0  0  0  0  0  0  0  0  0
  -28.5541  -14.9737   21.3838 N   0  0  0  0  0  0  0  0  0  0  0  0
  -29.7149  -15.6269   21.5631 N   0  0  0  0  0  0  0  0  0  0  0  0
  -23.0592  -29.6602   21.6661 N   0  0  0  0  0  0  0  0  0  0  0  0
  -28.4450  -19.0182   22.7757 N   0  0  0  0  0  0  0  0  0  0  0  0
  -32.0403  -15.4994   21.1310 N   0  0  0  0  0  0  0  0  0  0  0  0
  -30.4291  -11.7023   19.2919 N   0  0  0  0  0  0  0  0  0  0  0  0
  -28.2216  -20.3082   20.8140 N   0  0  0  0  0  0  0  0  0  0  0  0
  -24.9791  -32.0110   23.6870 N   0  0  0  0  0  0  0  0  0  0  0  0
  -20.1331  -28.2424   20.7246 N   0  0  0  0  0  0  0  0  0  0  0  0
  -19.8058  -27.5300   17.1957 N   0  3  0  0  0  0  0  0  0  0  0  0
  -30.8991  -24.7636   19.4562 O   0  0  0  0  0  0  0  0  0  0  0  0
  -32.3329  -12.9188   19.6848 O   0  0  0  0  0  0  0  0  0  0  0  0
  -24.2018  -29.8313   23.9466 O   0  0  0  0  0  0  0  0  0  0  0  0
  -20.9726  -30.5785   22.1552 O   0  0  0  0  0  0  0  0  0  0  0  0
  -21.2930  -26.7023   19.4362 O   0  0  0  0  0  0  0  0  0  0  0  0
  -28.3831  -21.3261   22.8924 O   0  0  0  0  0  0  0  0  0  0  0  0
  -25.1002  -10.0794   19.2240 O   0  0  0  0  0  0  0  0  0  0  0  0
  -28.0990  -26.7677   19.5956 O   0  0  0  0  0  0  0  0  0  1  0  0
  -21.3355   -8.6074   22.9742 F   0  0  0  0  0  0  0  0  0  0  0  0
  -23.3846  -11.9491   20.3209 F   0  0  0  0  0  0  0  0  0  0  0  0
  1  2  1  0  0  0  0
  1  5  2  0  0  0  0
  2  6  2  0  0  0  0
  3  8  2  0  0  0  0
  3 15  1  0  0  0  0
  4  9  1  0  0  0  0
  4 15  2  0  0  0  0
  5 18  1  0  0  0  0
  6 20  1  0  0  0  0
  7 10  2  0  0  0  0
  7 19  1  0  0  0  0
  8 27  1  0  0  0  0
  9 27  2  0  0  0  0
 10 28  1  0  0  0  0
 11 12  2  0  0  0  0
 11 29  1  0  0  0  0
 12 30  1  0  0  0  0
 13 21  1  0  0  0  0
 13 28  2  0  0  0  0
 14 30  2  0  0  0  0
 14 31  1  0  0  0  0
 15 32  1  0  0  0  0
 16 22  2  0  0  0  0
 16 23  1  0  0  0  0
 16 34  1  0  0  0  0
 17 32  1  0  0  0  0
 17 33  2  0  0  0  0
 17 35  1  0  0  0  0
 18 20  2  0  0  0  0
 18 40  1  0  0  0  0
 19 21  2  0  0  0  0
 19 41  1  0  0  0  0
 20 50  1  0  0  0  0
 21 43  1  0  0  0  0
 22 24  1  0  0  0  0
 22 42  1  0  0  0  0
 23 26  2  0  0  0  0
 23 54  1  0  0  0  0
 24 25  2  0  0  0  0
 24 55  1  0  0  0  0
 25 26  1  0  0  0  0
 25 56  1  0  0  0  0
 26 73  1  0  0  0  0
 27 83  1  0  0  0  0
 28 84  1  0  0  0  0
 29 31  2  0  0  0  0
 29 83  1  0  0  0  0
 30 85  1  0  0  0  0
 31 86  1  0  0  0  0
 32 67  2  0  0  0  0
 33 68  1  0  0  0  0
 33 71  1  0  0  0  0
 34 53  1  0  0  0  0
 34 77  2  0  0  0  0
 35 72  1  0  0  0  0
 35 78  2  0  0  0  0
 36 51  1  0  0  0  0
 36 74  1  0  0  0  0
 36 79  2  0  0  0  0
 37 64  1  0  0  0  0
 37 69  1  0  0  0  0
 37 80  2  0  0  0  0
 38 65  1  0  0  0  0
 38 75  1  0  0  0  0
 38 81  2  0  0  0  0
 39 70  1  0  0  0  0
 39 73  1  0  0  0  0
 39 82  2  0  0  0  0
 40 44  1  0  0  0  0
 41 51  1  0  0  0  0
 42 53  1  0  0  0  0
 43 69  1  0  0  0  0
 44 46  1  0  0  0  0
 45 47  1  0  0  0  0
 45 48  1  0  0  0  0
 46 50  1  0  0  0  0
 47 52  1  0  0  0  0
 48 70  1  0  0  0  0
 49 52  1  0  0  0  0
 49 70  1  0  0  0  0
 50 74  1  0  0  0  0
 51 69  1  0  0  0  0
 52 68  1  0  0  0  0
 53 57  1  0  0  0  0
 53 63  1  0  0  0  0
 58 65  1  0  0  0  0
 59 66  1  0  0  0  0
 60 66  1  0  0  0  0
 61 66  1  0  0  0  0
 62 76  1  0  0  0  0
 63 84  1  0  0  0  0
 64 66  1  0  0  0  0
 64 75  1  0  0  0  0
 65 76  1  0  0  0  0
 67 68  1  0  0  0  0
M  CHG  1  76   1
M  ISO  4  39 100  63 101  73 100  84 101
M  END
> <Batch ID>
0157

> <Smiles>
CNC(C)C(=O)NC(C(=O)N1Cc2cc([101O:1][101CH2:1]C3(C)Cc4c(C)c(C)c([100NH:0][100C:0](=O)N5CCCC(n6nc(-c7ccc(Oc8ccc(F)cc8F)cc7)c(C(N)=O)c6N)C5)c(C)c4C3=O)ccc2CC1C(=O)NC1CCCc2ccccc21)C(C)(C)C

> <Shape>
0.348

> <Color>
0.080

> <Negative vol penalty>
0.000

$$$$

  -OEChem-04052321593D

 87 96  0     1  0  0  0  0  0999 V2000
  -20.0002  -34.1501   20.8649 C   0  0  0  0  0  0  0  0  0  0  0  0
  -21.2834  -33.6536   20.6591 C   0  0  0  0  0  0  0  0  0  0  0  0
  -24.4715  -14.0973   20.7093 C   0  0  0  0  0  0  0  0  0  0  0  0
  -26.8295  -13.6635   20.4114 C   0  0  0  0  0  0  0  0  0  0  0  0
  -19.1636  -33.5486   21.8041 C   0  0  0  0  0  0  0  0  0  0  0  0
  -21.7311  -32.5559   21.3933 C   0  0  0  0  0  0  0  0  0  0  0  0
  -25.4867  -28.1201   19.4632 C   0  0  0  0  0  0  0  0  0  0  0  0
  -24.1892  -12.7624   20.4193 C   0  0  0  0  0  0  0  0  0  0  0  0
  -26.5473  -12.3286   20.1215 C   0  0  0  0  0  0  0  0  0  0  0  0
  -26.8560  -27.9141   19.6249 C   0  0  0  0  0  0  0  0  0  0  0  0
  -24.3034   -9.7873   22.0219 C   0  0  0  0  0  0  0  0  0  0  0  0
  -23.3919   -9.1241   22.8435 C   0  0  0  0  0  0  0  0  0  0  0  0
  -26.4105  -26.4690   21.5044 C   0  0  0  0  0  0  0  0  0  0  0  0
  -32.6484  -22.7645   22.0629 C   0  0  0  0  0  0  0  0  0  0  0  0
  -31.4445  -23.2018   19.5845 C   0  0  0  0  0  0  0  0  0  0  0  0
  -21.9654   -8.7211   20.9356 C   0  0  0  0  0  0  0  0  0  0  0  0
  -25.7916  -14.5478   20.7053 C   0  0  0  0  0  0  0  0  0  0  0  0
  -26.3464  -16.4851   22.2695 C   0  0  0  0  0  0  0  0  0  0  0  0
  -19.5978  -32.4369   22.5432 C   0  0  0  0  0  0  0  0  0  0  0  0
  -24.5679  -27.5097   20.3290 C   0  0  0  0  0  0  0  0  0  0  0  0
  -20.9000  -31.9398   22.3442 C   0  0  0  0  0  0  0  0  0  0  0  0
  -25.0299  -26.6668   21.3499 C   0  0  0  0  0  0  0  0  0  0  0  0
  -33.2680  -23.5869   21.1219 C   0  0  0  0  0  0  0  0  0  0  0  0
  -31.4268  -22.1607   21.7646 C   0  0  0  0  0  0  0  0  0  0  0  0
  -32.6661  -23.8055   19.8828 C   0  0  0  0  0  0  0  0  0  0  0  0
  -30.8249  -22.3794   20.5255 C   0  0  0  0  0  0  0  0  0  0  0  0
  -25.2271  -11.8781   20.1254 C   0  0  0  0  0  0  0  0  0  0  0  0
  -27.3183  -27.0907   20.6474 C   0  0  0  0  0  0  0  0  0  0  0  0
  -24.0459   -9.9174   20.6571 C   0  0  0  0  0  0  0  0  0  0  0  0
  -22.2230   -8.5910   22.3004 C   0  0  0  0  0  0  0  0  0  0  0  0
  -22.8769   -9.3843   20.1140 C   0  0  0  0  0  0  0  0  0  0  0  0
  -26.0837  -15.9268   21.0042 C   0  0  0  0  0  0  0  0  0  0  0  0
  -26.5609  -17.8184   22.0187 C   0  0  0  0  0  0  0  0  0  0  0  0
  -26.3926  -15.8549   23.5565 C   0  0  0  0  0  0  0  0  0  0  0  0
  -22.3947  -28.5610   22.3968 C   0  0  0  0  0  0  0  0  0  0  0  0
  -21.6443  -25.4125   22.6121 C   0  0  0  0  0  0  0  0  0  0  0  0
  -22.6355  -22.1668   22.2523 C   0  0  0  0  0  0  0  0  0  0  0  0
  -28.8669  -21.9001   19.0146 C   0  0  0  0  0  0  0  0  0  0  0  0
  -18.6745  -31.8496   23.5811 C   0  0  0  0  0  0  0  0  0  0  0  0
  -23.0927  -27.7208   20.1247 C   0  0  0  0  0  0  0  0  0  0  0  0
  -24.0838  -25.9720   22.2936 C   0  0  0  0  0  0  0  0  0  0  0  0
  -19.0918  -30.4582   24.0501 C   0  0  0  0  0  0  0  0  0  0  0  0
  -25.7974  -20.5451   17.8230 C   0  0  0  0  0  0  0  0  0  0  0  0
  -33.4775  -27.9732   17.6337 C   0  0  0  0  0  0  0  0  0  0  0  0
  -20.5857  -30.4238   24.3564 C   0  0  0  0  0  0  0  0  0  0  0  0
  -25.6199  -19.2687   18.6485 C   0  0  0  0  0  0  0  0  0  0  0  0
  -32.1782  -28.1600   18.3900 C   0  0  0  0  0  0  0  0  0  0  0  0
  -27.2632  -20.7941   17.4718 C   0  0  0  0  0  0  0  0  0  0  0  0
  -28.0073  -19.5136   19.4405 C   0  0  0  0  0  0  0  0  0  0  0  0
  -34.2562  -27.0021   18.5005 C   0  0  0  0  0  0  0  0  0  0  0  0
  -21.4130  -30.7354   23.1034 C   0  0  1  0  0  0  0  0  0  0  0  0
  -22.2716  -27.4586   21.3833 C   0  0  1  0  0  0  0  0  0  0  0  0
  -26.5549  -19.2554   19.8737 C   0  0  2  0  0  0  0  0  0  0  0  0
  -31.8394  -26.7415   18.8246 C   0  0  2  0  0  0  0  0  0  0  0  0
  -34.5758  -24.2223   21.4635 C   0  0  0  0  0  0  0  0  0  0  0  0
  -30.7856  -21.2848   22.7915 C   0  0  0  0  0  0  0  0  0  0  0  0
  -22.4389  -19.6660   22.1848 C   0  0  0  0  0  0  0  0  0  0  0  0
  -21.9814  -25.6672   25.6339 C   0  0  0  0  0  0  0  0  0  0  0  0
  -22.0944  -23.1694   25.7617 C   0  0  0  0  0  0  0  0  0  0  0  0
  -20.0279  -24.2809   24.9153 C   0  0  0  0  0  0  0  0  0  0  0  0
  -21.8672  -22.1884   19.3944 C   0  0  0  0  0  0  0  0  0  0  0  0
  -33.3139  -24.6858   18.8549 C   0  0  0  0  0  0  0  0  0  0  0  0
  -30.9115  -26.6781   20.0238 C   0  0  0  0  0  0  0  0  0  0  0  0
  -29.4659  -26.9487   19.6356 C   0  0  0  0  0  0  0  0  0  1  0  0
  -22.1039  -24.2604   23.4725 C   0  0  1  0  0  0  0  0  0  0  0  0
  -21.9719  -20.9798   21.5777 C   0  0  2  0  0  0  0  0  0  0  0  0
  -21.5701  -24.3589   24.9294 C   0  0  0  0  0  0  0  0  0  0  0  0
  -26.1266  -16.8314   20.0224 N   0  0  0  0  0  0  0  0  0  0  0  0
  -26.4187  -17.9716   20.6709 N   0  0  0  0  0  0  0  0  0  0  0  0
  -22.6511  -26.2150   22.0569 N   0  0  0  0  0  0  0  0  0  0  0  0
  -28.0881  -20.7716   18.6817 N   0  0  0  0  0  0  0  0  0  0  0  0
  -26.8552  -18.8628   22.8217 N   0  0  0  0  0  0  0  0  0  0  0  0
  -26.1483  -14.4770   23.6349 N   0  0  0  0  0  0  0  0  0  0  0  0
  -29.5842  -21.7752   20.2039 N   0  0  0  0  0  0  0  0  0  0  0  0
  -21.4730  -29.5780   22.2366 N   0  0  0  0  0  0  0  0  0  0  0  0
  -21.7070  -23.0439   22.7717 N   0  0  0  0  0  0  0  0  0  0  0  0
  -33.1967  -26.1450   19.1739 N   0  3  1  0  0  0  0  0  0  0  0  0
  -22.2925  -20.9652   20.1224 N   0  3  0  0  0  0  0  0  0  0  0  0
  -26.6269  -16.4977   24.6080 O   0  0  0  0  0  0  0  0  0  0  0  0
  -23.2608  -28.4932   23.2611 O   0  0  0  0  0  0  0  0  0  0  0  0
  -20.4367  -25.5896   22.4331 O   0  0  0  0  0  0  0  0  0  0  0  0
  -23.8556  -22.3005   22.3158 O   0  0  0  0  0  0  0  0  0  0  0  0
  -28.8741  -22.9138   18.3115 O   0  0  0  0  0  0  0  0  0  0  0  0
  -24.9521  -10.5754   19.8426 O   0  0  0  0  0  0  0  0  0  0  0  0
  -28.6544  -26.8885   20.8079 O   0  0  0  0  0  0  0  0  0  1  0  0
  -21.3485   -7.9529   23.0892 F   0  0  0  0  0  0  0  0  0  0  0  0
  -22.6246   -9.5051   18.8035 F   0  0  0  0  0  0  0  0  0  0  0  0
  1  2  1  0  0  0  0
  1  5  2  0  0  0  0
  2  6  2  0  0  0  0
  3  8  2  0  0  0  0
  3 17  1  0  0  0  0
  4  9  1  0  0  0  0
  4 17  2  0  0  0  0
  5 19  1  0  0  0  0
  6 21  1  0  0  0  0
  7 10  2  0  0  0  0
  7 20  1  0  0  0  0
  8 27  1  0  0  0  0
  9 27  2  0  0  0  0
 10 28  1  0  0  0  0
 11 12  2  0  0  0  0
 11 29  1  0  0  0  0
 12 30  1  0  0  0  0
 13 22  1  0  0  0  0
 13 28  2  0  0  0  0
 14 23  1  0  0  0  0
 14 24  2  0  0  0  0
 15 25  1  0  0  0  0
 15 26  2  0  0  0  0
 16 30  2  0  0  0  0
 16 31  1  0  0  0  0
 17 32  1  0  0  0  0
 18 32  1  0  0  0  0
 18 33  2  0  0  0  0
 18 34  1  0  0  0  0
 19 21  2  0  0  0  0
 19 39  1  0  0  0  0
 20 22  2  0  0  0  0
 20 40  1  0  0  0  0
 21 51  1  0  0  0  0
 22 41  1  0  0  0  0
 23 25  2  0  0  0  0
 23 55  1  0  0  0  0
 24 26  1  0  0  0  0
 24 56  1  0  0  0  0
 25 62  1  0  0  0  0
 26 74  1  0  0  0  0
 27 84  1  0  0  0  0
 28 85  1  0  0  0  0
 29 31  2  0  0  0  0
 29 84  1  0  0  0  0
 30 86  1  0  0  0  0
 31 87  1  0  0  0  0
 32 68  2  0  0  0  0
 33 69  1  0  0  0  0
 33 72  1  0  0  0  0
 34 73  1  0  0  0  0
 34 79  2  0  0  0  0
 35 52  1  0  0  0  0
 35 75  1  0  0  0  0
 35 80  2  0  0  0  0
 36 65  1  0  0  0  0
 36 70  1  0  0  0  0
 36 81  2  0  0  0  0
 37 66  1  0  0  0  0
 37 76  1  0  0  0  0
 37 82  2  0  0  0  0
 38 71  1  0  0  0  0
 38 74  1  0  0  0  0
 38 83  2  0  0  0  0
 39 42  1  0  0  0  0
 40 52  1  0  0  0  0
 41 70  1  0  0  0  0
 42 45  1  0  0  0  0
 43 46  1  0  0  0  0
 43 48  1  0  0  0  0
 44 47  1  0  0  0  0
 44 50  1  0  0  0  0
 45 51  1  0  0  0  0
 46 53  1  0  0  0  0
 47 54  1  0  0  0  0
 48 71  1  0  0  0  0
 49 53  1  0  0  0  0
 49 71  1  0  0  0  0
 50 77  1  0  0  0  0
 51 75  1  0  0  0  0
 52 70  1  0  0  0  0
 53 69  1  0  0  0  0
 54 63  1  0  0  0  0
 54 77  1  0  0  0  0
 57 66  1  0  0  0  0
 58 67  1  0  0  0  0
 59 67  1  0  0  0  0
 60 67  1  0  0  0  0
 61 78  1  0  0  0  0
 62 77  1  0  0  0  0
 63 64  1  0  0  0  0
 64 85  1  0  0  0  0
 65 67  1  0  0  0  0
 65 76  1  0  0  0  0
 66 78  1  0  0  0  0
 68 69  1  0  0  0  0
M  CHG  2  77   1  78   1
M  ISO  4  38 100  64 101  74 100  85 101
M  END
> <Batch ID>
0157

> <Smiles>
CNC(C)C(=O)NC(C(=O)N1Cc2cc([101O:1][101CH2:1]CC3CCCN3Cc3cc([100NH:0][100C:0](=O)N4CCCC(n5nc(-c6ccc(Oc7ccc(F)cc7F)cc6)c(C(N)=O)c5N)C4)c(C)cc3C)ccc2CC1C(=O)NC1CCCc2ccccc21)C(C)(C)C

> <Shape>
0.201

> <Color>
0.097

> <Negative vol penalty>
0.000

$$$$

  -OEChem-04052321593D

 90 99  0     1  0  0  0  0  0999 V2000
  -22.1632   -8.6581   20.6216 C   0  0  0  0  0  0  0  0  0  0  0  0
  -22.0165  -10.0411   20.6580 C   0  0  0  0  0  0  0  0  0  0  0  0
  -24.1602  -29.5797   20.0246 C   0  0  0  0  0  0  0  0  0  0  0  0
  -24.1242  -29.1823   22.4074 C   0  0  0  0  0  0  0  0  0  0  0  0
  -23.3088   -8.0657   21.1512 C   0  0  0  0  0  0  0  0  0  0  0  0
  -23.0148  -10.8323   21.2251 C   0  0  0  0  0  0  0  0  0  0  0  0
  -24.1089  -14.8952   18.4072 C   0  0  0  0  0  0  0  0  0  0  0  0
  -22.7658  -29.6124   20.0090 C   0  0  0  0  0  0  0  0  0  0  0  0
  -22.7298  -29.2150   22.3918 C   0  0  0  0  0  0  0  0  0  0  0  0
  -23.2268  -15.9728   18.4742 C   0  0  0  0  0  0  0  0  0  0  0  0
  -20.1982  -27.1368   21.5536 C   0  0  0  0  0  0  0  0  0  0  0  0
  -19.5187  -26.1461   22.2624 C   0  0  0  0  0  0  0  0  0  0  0  0
  -24.7191  -17.0914   20.0043 C   0  0  0  0  0  0  0  0  0  0  0  0
  -26.9262  -22.8985   18.0839 C   0  0  0  0  0  0  0  0  0  0  0  0
  -27.4560  -25.2278   16.6428 C   0  0  0  0  0  0  0  0  0  0  0  0
  -18.4732  -27.8415   23.6297 C   0  0  0  0  0  0  0  0  0  0  0  0
  -24.8394  -29.3645   21.2238 C   0  0  0  0  0  0  0  0  0  0  0  0
  -27.1539  -30.4162   21.4350 C   0  0  0  0  0  0  0  0  0  0  0  0
  -24.3261   -8.8507   21.7164 C   0  0  0  0  0  0  0  0  0  0  0  0
  -25.2995  -14.9029   19.1480 C   0  0  0  0  0  0  0  0  0  0  0  0
  -24.1745  -10.2497   21.7640 C   0  0  0  0  0  0  0  0  0  0  0  0
  -25.6158  -16.0138   19.9429 C   0  0  0  0  0  0  0  0  0  0  0  0
  -25.9297  -23.4717   17.2939 C   0  0  0  0  0  0  0  0  0  0  0  0
  -28.4525  -24.6546   17.4329 C   0  0  0  0  0  0  0  0  0  0  0  0
  -22.0506  -29.4301   21.1926 C   0  0  0  0  0  0  0  0  0  0  0  0
  -23.5305  -17.0699   19.2750 C   0  0  0  0  0  0  0  0  0  0  0  0
  -20.0153  -28.4798   21.8829 C   0  0  0  0  0  0  0  0  0  0  0  0
  -28.1876  -23.4900   18.1534 C   0  0  0  0  0  0  0  0  0  0  0  0
  -26.1946  -24.6363   16.5734 C   0  0  0  0  0  0  0  0  0  0  0  0
  -18.6562  -26.4984   23.3005 C   0  0  0  0  0  0  0  0  0  0  0  0
  -19.1528  -28.8322   22.9209 C   0  0  0  0  0  0  0  0  0  0  0  0
  -26.2798  -29.3300   21.2405 C   0  0  0  0  0  0  0  0  0  0  0  0
  -28.4094  -29.8638   21.3627 C   0  0  0  0  0  0  0  0  0  0  0  0
  -26.8576  -31.8007   21.6610 C   0  0  0  0  0  0  0  0  0  0  0  0
  -26.5101  -13.0974   21.4671 C   0  0  0  0  0  0  0  0  0  0  0  0
  -29.1318  -14.9524   21.0106 C   0  0  0  0  0  0  0  0  0  0  0  0
  -30.4322  -17.9111   19.9143 C   0  0  0  0  0  0  0  0  0  0  0  0
  -30.5583  -25.1797   18.6499 C   0  0  0  0  0  0  0  0  0  0  0  0
  -25.5248   -8.1617   22.3189 C   0  0  0  0  0  0  0  0  0  0  0  0
  -26.2531  -13.7444   19.0440 C   0  0  0  0  0  0  0  0  0  0  0  0
  -26.8908  -16.0800   20.7420 C   0  0  0  0  0  0  0  0  0  0  0  0
  -26.7056   -9.0975   22.5645 C   0  0  0  0  0  0  0  0  0  0  0  0
  -30.7640  -25.7826   22.1481 C   0  0  0  0  0  0  0  0  0  0  0  0
  -26.2368  -10.3830   23.2388 C   0  0  0  0  0  0  0  0  0  0  0  0
  -29.7047  -26.8687   22.3317 C   0  0  0  0  0  0  0  0  0  0  0  0
  -24.7040  -21.4025   16.6589 C   0  0  0  0  0  0  0  0  0  0  0  0
  -23.9432  -22.7923   18.6277 C   0  0  0  0  0  0  0  0  0  0  0  0
  -30.3236  -24.7173   21.1434 C   0  0  0  0  0  0  0  0  0  0  0  0
  -28.8462  -26.3509   20.0152 C   0  0  0  0  0  0  0  0  0  0  0  0
  -23.3603  -20.6849   16.6586 C   0  0  0  0  0  0  0  0  0  0  0  0
  -22.6051  -22.0643   18.6121 C   0  0  0  0  0  0  0  0  0  0  0  0
  -24.5840  -22.8243   17.2308 C   0  0  0  0  0  0  0  0  0  0  0  0
  -25.2467  -11.1436   22.3485 C   0  0  1  0  0  0  0  0  0  0  0  0
  -27.1926  -13.6345   20.2410 C   0  0  1  0  0  0  0  0  0  0  0  0
  -29.2857  -27.4661   20.9768 C   0  0  1  0  0  0  0  0  0  0  0  0
  -32.6036  -19.1516   19.7055 C   0  0  0  0  0  0  0  0  0  0  0  0
  -29.0739  -15.5523   24.0017 C   0  0  0  0  0  0  0  0  0  0  0  0
  -30.6137  -17.4796   23.5741 C   0  0  0  0  0  0  0  0  0  0  0  0
  -31.3569  -15.1542   23.0615 C   0  0  0  0  0  0  0  0  0  0  0  0
  -30.3336  -25.8106   16.2568 C   0  0  0  0  0  0  0  0  0  0  0  0
  -30.2020  -18.0517   16.9670 C   0  0  0  0  0  0  0  0  0  0  0  0
  -28.7871  -21.7260   19.6315 C   0  0  0  0  0  0  0  0  0  0  0  0
  -24.3940  -26.1822   16.4184 C   0  0  0  0  0  0  0  0  0  0  0  0
  -21.5306  -19.8650   18.1399 C   0  0  0  0  0  0  0  0  0  0  0  0
  -21.8793  -18.3904   18.1860 C   0  0  0  0  0  0  0  0  0  1  0  0
  -29.6300  -16.2582   21.5813 C   0  0  1  0  0  0  0  0  0  0  0  0
  -31.6178  -18.2198   19.0179 C   0  0  2  0  0  0  0  0  0  0  0  0
  -30.1436  -16.1093   23.0412 C   0  0  0  0  0  0  0  0  0  0  0  0
  -26.9252  -28.1749   21.0581 N   0  0  0  0  0  0  0  0  0  0  0  0
  -28.2183  -28.5322   21.1377 N   0  0  0  0  0  0  0  0  0  0  0  0
  -27.7879  -14.9199   20.6121 N   0  0  0  0  0  0  0  0  0  0  0  0
  -29.8949  -25.3369   19.8815 N   0  0  0  0  0  0  0  0  0  0  0  0
  -29.6470  -30.3920   21.4702 N   0  0  0  0  0  0  0  0  0  0  0  0
  -25.5142  -32.1977   21.7062 N   0  0  0  0  0  0  0  0  0  0  0  0
  -25.9496  -11.8460   21.2964 N   0  0  0  0  0  0  0  0  0  0  0  0
  -30.6301  -16.7581   20.6441 N   0  0  0  0  0  0  0  0  0  0  0  0
  -29.7535  -25.2783   17.4945 N   0  0  0  0  0  0  0  0  0  0  0  0
  -22.7806  -20.6620   18.0603 N   0  3  0  0  0  0  0  0  0  0  0  0
  -31.1589  -18.8684   17.7571 N   0  3  0  0  0  0  0  0  0  0  0  0
  -27.7577  -32.6630   21.8019 O   0  0  0  0  0  0  0  0  0  0  0  0
  -26.4946  -13.7681   22.4926 O   0  0  0  0  0  0  0  0  0  0  0  0
  -29.9083  -13.9987   20.9151 O   0  0  0  0  0  0  0  0  0  0  0  0
  -29.4321  -18.6238   19.9650 O   0  0  0  0  0  0  0  0  0  0  0  0
  -31.7792  -24.9922   18.5860 O   0  0  0  0  0  0  0  0  0  0  0  0
  -20.6900  -29.4623   21.1777 O   0  0  0  0  0  0  0  0  0  0  0  0
  -29.1477  -22.9146   18.9310 O   0  0  0  0  0  0  0  0  0  0  0  0
  -25.2327  -25.2101   15.7975 O   0  0  0  0  0  0  0  0  0  0  0  0
  -22.6710  -18.1228   19.3428 O   0  0  0  0  0  0  0  0  0  1  0  0
  -18.0026  -25.5471   23.9800 F   0  0  0  0  0  0  0  0  0  0  0  0
  -18.9720  -30.1209   23.2411 F   0  0  0  0  0  0  0  0  0  0  0  0
  1  2  1  0  0  0  0
  1  5  2  0  0  0  0
  2  6  2  0  0  0  0
  3  8  2  0  0  0  0
  3 17  1  0  0  0  0
  4  9  1  0  0  0  0
  4 17  2  0  0  0  0
  5 19  1  0  0  0  0
  6 21  1  0  0  0  0
  7 10  2  0  0  0  0
  7 20  1  0  0  0  0
  8 25  1  0  0  0  0
  9 25  2  0  0  0  0
 10 26  1  0  0  0  0
 11 12  2  0  0  0  0
 11 27  1  0  0  0  0
 12 30  1  0  0  0  0
 13 22  1  0  0  0  0
 13 26  2  0  0  0  0
 14 23  1  0  0  0  0
 14 28  2  0  0  0  0
 15 24  2  0  0  0  0
 15 29  1  0  0  0  0
 16 30  2  0  0  0  0
 16 31  1  0  0  0  0
 17 32  1  0  0  0  0
 18 32  1  0  0  0  0
 18 33  2  0  0  0  0
 18 34  1  0  0  0  0
 19 21  2  0  0  0  0
 19 39  1  0  0  0  0
 20 22  2  0  0  0  0
 20 40  1  0  0  0  0
 21 53  1  0  0  0  0
 22 41  1  0  0  0  0
 23 29  2  0  0  0  0
 23 52  1  0  0  0  0
 24 28  1  0  0  0  0
 24 77  1  0  0  0  0
 25 85  1  0  0  0  0
 26 88  1  0  0  0  0
 27 31  2  0  0  0  0
 27 85  1  0  0  0  0
 28 86  1  0  0  0  0
 29 87  1  0  0  0  0
 30 89  1  0  0  0  0
 31 90  1  0  0  0  0
 32 69  2  0  0  0  0
 33 70  1  0  0  0  0
 33 73  1  0  0  0  0
 34 74  1  0  0  0  0
 34 80  2  0  0  0  0
 35 54  1  0  0  0  0
 35 75  1  0  0  0  0
 35 81  2  0  0  0  0
 36 66  1  0  0  0  0
 36 71  1  0  0  0  0
 36 82  2  0  0  0  0
 37 67  1  0  0  0  0
 37 76  1  0  0  0  0
 37 83  2  0  0  0  0
 38 72  1  0  0  0  0
 38 77  1  0  0  0  0
 38 84  2  0  0  0  0
 39 42  1  0  0  0  0
 40 54  1  0  0  0  0
 41 71  1  0  0  0  0
 42 44  1  0  0  0  0
 43 45  1  0  0  0  0
 43 48  1  0  0  0  0
 44 53  1  0  0  0  0
 45 55  1  0  0  0  0
 46 50  1  0  0  0  0
 46 52  1  0  0  0  0
 47 51  1  0  0  0  0
 47 52  1  0  0  0  0
 48 72  1  0  0  0  0
 49 55  1  0  0  0  0
 49 72  1  0  0  0  0
 50 78  1  0  0  0  0
 51 78  1  0  0  0  0
 53 75  1  0  0  0  0
 54 71  1  0  0  0  0
 55 70  1  0  0  0  0
 56 67  1  0  0  0  0
 57 68  1  0  0  0  0
 58 68  1  0  0  0  0
 59 68  1  0  0  0  0
 60 77  1  0  0  0  0
 61 79  1  0  0  0  0
 62 86  1  0  0  0  0
 63 87  1  0  0  0  0
 64 65  1  0  0  0  0
 64 78  1  0  0  0  0
 65 88  1  0  0  0  0
 66 68  1  0  0  0  0
 66 76  1  0  0  0  0
 67 79  1  0  0  0  0
 69 70  1  0  0  0  0
M  CHG  2  78   1  79   1
M  ISO  4  38 100  65 101  77 100  88 101
M  END
> <Batch ID>
0157

> <Smiles>
CNC(C)C(=O)NC(C(=O)N1Cc2cc([101O:1][101CH2:1]CN3CCC(c4cc(OC)c([100N:0](C)[100C:0](=O)N5CCCC(n6nc(-c7ccc(Oc8ccc(F)cc8F)cc7)c(C(N)=O)c6N)C5)cc4OC)CC3)ccc2CC1C(=O)NC1CCCc2ccccc21)C(C)(C)C

> <Shape>
0.300

> <Color>
0.062

> <Negative vol penalty>
0.000

$$$$

  -OEChem-04052321593D

 89 98  0     1  0  0  0  0  0999 V2000
  -28.3203  -24.5401   16.7345 C   0  0  0  0  0  0  0  0  0  0  0  0
  -27.1352  -24.6957   17.4464 C   0  0  0  0  0  0  0  0  0  0  0  0
  -28.8376  -14.2387   19.5108 C   0  0  0  0  0  0  0  0  0  0  0  0
  -27.8558  -12.0954   20.0399 C   0  0  0  0  0  0  0  0  0  0  0  0
  -29.5017  -25.1002   17.2188 C   0  0  0  0  0  0  0  0  0  0  0  0
  -27.1310  -25.4105   18.6436 C   0  0  0  0  0  0  0  0  0  0  0  0
  -23.2319  -28.6251   18.9733 C   0  0  0  0  0  0  0  0  0  0  0  0
  -30.0008  -13.5999   19.0815 C   0  0  0  0  0  0  0  0  0  0  0  0
  -29.0191  -11.4566   19.6106 C   0  0  0  0  0  0  0  0  0  0  0  0
  -21.9881  -28.0861   19.2992 C   0  0  0  0  0  0  0  0  0  0  0  0
  -33.0927  -12.5126   17.5089 C   0  0  0  0  0  0  0  0  0  0  0  0
  -33.6633  -12.9410   16.3104 C   0  0  0  0  0  0  0  0  0  0  0  0
  -20.6991  -21.5583   21.9797 C   0  0  0  0  0  0  0  0  0  0  0  0
  -22.8375  -21.8479   20.2225 C   0  0  0  0  0  0  0  0  0  0  0  0
  -22.2870  -28.7945   21.5857 C   0  0  0  0  0  0  0  0  0  0  0  0
  -31.6320  -12.3631   15.1369 C   0  0  0  0  0  0  0  0  0  0  0  0
  -27.7650  -13.4864   19.9900 C   0  0  0  0  0  0  0  0  0  0  0  0
  -25.4351  -14.4706   19.6573 C   0  0  0  0  0  0  0  0  0  0  0  0
  -29.5101  -25.8305   18.4176 C   0  0  0  0  0  0  0  0  0  0  0  0
  -24.0187  -29.2443   19.9552 C   0  0  0  0  0  0  0  0  0  0  0  0
  -28.3139  -25.9798   19.1450 C   0  0  0  0  0  0  0  0  0  0  0  0
  -21.9620  -21.0650   22.3483 C   0  0  0  0  0  0  0  0  0  0  0  0
  -23.0418  -21.2162   21.4590 C   0  0  0  0  0  0  0  0  0  0  0  0
  -23.5393  -29.3428   21.2691 C   0  0  0  0  0  0  0  0  0  0  0  0
  -20.5105  -22.1921   20.7518 C   0  0  0  0  0  0  0  0  0  0  0  0
  -30.0916  -12.2088   19.1314 C   0  0  0  0  0  0  0  0  0  0  0  0
  -21.5168  -28.1682   20.6062 C   0  0  0  0  0  0  0  0  0  0  0  0
  -31.7918  -12.0093   17.5215 C   0  0  0  0  0  0  0  0  0  0  0  0
  -21.5797  -22.3375   19.8737 C   0  0  0  0  0  0  0  0  0  0  0  0
  -32.9330  -12.8662   15.1244 C   0  0  0  0  0  0  0  0  0  0  0  0
  -31.0615  -11.9346   16.3355 C   0  0  0  0  0  0  0  0  0  0  0  0
  -26.5633  -14.1458   20.4341 C   0  0  0  0  0  0  0  0  0  0  0  0
  -24.5758  -15.0807   20.5381 C   0  0  0  0  0  0  0  0  0  0  0  0
  -25.1862  -14.2412   18.2640 C   0  0  0  0  0  0  0  0  0  0  0  0
  -26.8858  -28.6901   21.2108 C   0  0  0  0  0  0  0  0  0  0  0  0
  -26.3377  -31.5073   22.7226 C   0  0  0  0  0  0  0  0  0  0  0  0
  -24.0715  -33.7833   23.8762 C   0  0  0  0  0  0  0  0  0  0  0  0
  -23.4521  -18.5064   24.6366 C   0  0  0  0  0  0  0  0  0  0  0  0
  -30.8208  -26.3772   18.9253 C   0  0  0  0  0  0  0  0  0  0  0  0
  -25.3464  -29.8444   19.5817 C   0  0  0  0  0  0  0  0  0  0  0  0
  -24.4045  -20.6566   21.7758 C   0  0  0  0  0  0  0  0  0  0  0  0
  -24.3364  -30.0154   22.3558 C   0  0  0  0  0  0  0  0  0  0  0  0
  -30.6586  -27.4386   20.0105 C   0  0  0  0  0  0  0  0  0  0  0  0
  -24.7071  -15.4388   25.5742 C   0  0  0  0  0  0  0  0  0  0  0  0
  -29.6492  -26.9806   21.0584 C   0  0  0  0  0  0  0  0  0  0  0  0
  -25.2130  -14.8393   24.2624 C   0  0  0  0  0  0  0  0  0  0  0  0
  -24.5803  -20.3060   23.2485 C   0  0  0  0  0  0  0  0  0  0  0  0
  -25.0501  -16.9213   25.6640 C   0  0  0  0  0  0  0  0  0  0  0  0
  -25.0265  -17.1442   23.2021 C   0  0  0  0  0  0  0  0  0  0  0  0
  -28.2642  -26.7695   20.4350 C   0  0  1  0  0  0  0  0  0  0  0  0
  -22.1359  -20.3906   23.6975 C   0  0  2  0  0  0  0  0  0  0  0  0
  -26.2889  -29.9972   20.7715 C   0  0  1  0  0  0  0  0  0  0  0  0
  -24.7008  -15.6440   23.0549 C   0  0  1  0  0  0  0  0  0  0  0  0
  -22.0303  -21.4125   24.8389 C   0  0  0  0  0  0  0  0  0  0  0  0
  -18.1193  -21.5640   20.2812 C   0  0  0  0  0  0  0  0  0  0  0  0
  -23.9230  -35.9673   25.1033 C   0  0  0  0  0  0  0  0  0  0  0  0
  -26.9271  -30.0693   25.3484 C   0  0  0  0  0  0  0  0  0  0  0  0
  -25.8588  -31.9845   26.5564 C   0  0  0  0  0  0  0  0  0  0  0  0
  -27.9009  -32.3663   25.1755 C   0  0  0  0  0  0  0  0  0  0  0  0
  -22.7653  -35.1175   21.5799 C   0  0  0  0  0  0  0  0  0  0  0  0
  -22.5650  -23.0551   17.8316 C   0  0  0  0  0  0  0  0  0  0  0  0
  -19.0933  -26.0561   22.2762 C   0  0  0  0  0  0  0  0  0  0  0  0
  -18.6149  -23.7784   21.3694 C   0  0  0  0  0  0  0  0  0  0  0  0
  -20.1361  -27.1562   22.2571 C   0  0  0  0  0  0  0  0  0  1  0  0
  -19.1543  -22.7048   20.3957 C   0  0  1  0  0  0  0  0  0  0  0  0
  -25.6947  -31.9134   24.0267 C   0  0  1  0  0  0  0  0  0  0  0  0
  -24.0034  -35.2939   23.7421 C   0  0  2  0  0  0  0  0  0  0  0  0
  -26.5810  -31.5689   25.2570 C   0  0  0  0  0  0  0  0  0  0  0  0
  -26.4354  -14.5188   21.7103 N   0  0  0  0  0  0  0  0  0  0  0  0
  -25.2167  -15.0844   21.7420 N   0  0  0  0  0  0  0  0  0  0  0  0
  -25.6312  -30.5812   21.9422 N   0  0  0  0  0  0  0  0  0  0  0  0
  -24.5541  -17.6512   24.4976 N   0  0  0  0  0  0  0  0  0  0  0  0
  -23.3945  -19.6247   23.7835 N   0  0  0  0  0  0  0  0  0  0  0  0
  -23.3421  -15.6090   20.3924 N   0  0  0  0  0  0  0  0  0  0  0  0
  -26.1756  -13.6014   17.5050 N   0  0  0  0  0  0  0  0  0  0  0  0
  -27.6050  -28.0407   20.2257 N   0  0  0  0  0  0  0  0  0  0  0  0
  -25.3738  -33.3308   23.8997 N   0  0  0  0  0  0  0  0  0  0  0  0
  -22.8047  -35.6901   22.9502 N   0  3  0  0  0  0  0  0  0  0  0  0
  -19.5459  -24.9355   21.4088 N   0  3  0  0  0  0  0  0  0  0  0  0
  -24.1247  -14.6078   17.7051 O   0  0  0  0  0  0  0  0  0  0  0  0
  -26.7082  -28.3004   22.3590 O   0  0  0  0  0  0  0  0  0  0  0  0
  -27.4233  -31.9992   22.4046 O   0  0  0  0  0  0  0  0  0  0  0  0
  -23.0696  -33.0759   23.9562 O   0  0  0  0  0  0  0  0  0  0  0  0
  -22.5723  -18.2860   25.4787 O   0  0  0  0  0  0  0  0  0  0  0  0
  -31.2265  -11.5852   18.7123 O   0  0  0  0  0  0  0  0  0  0  0  0
  -21.4146  -22.9499   18.6680 O   0  0  0  0  0  0  0  0  0  0  0  0
  -20.2947  -27.6385   20.9295 O   0  0  0  0  0  0  0  0  0  1  0  0
  -33.4804  -13.2791   13.9737 F   0  0  0  0  0  0  0  0  0  0  0  0
  -29.8109  -11.4532   16.3414 F   0  0  0  0  0  0  0  0  0  0  0  0
  1  2  1  0  0  0  0
  1  5  2  0  0  0  0
  2  6  2  0  0  0  0
  3  8  2  0  0  0  0
  3 17  1  0  0  0  0
  4  9  1  0  0  0  0
  4 17  2  0  0  0  0
  5 19  1  0  0  0  0
  6 21  1  0  0  0  0
  7 10  2  0  0  0  0
  7 20  1  0  0  0  0
  8 26  1  0  0  0  0
  9 26  2  0  0  0  0
 10 27  1  0  0  0  0
 11 12  2  0  0  0  0
 11 28  1  0  0  0  0
 12 30  1  0  0  0  0
 13 22  2  0  0  0  0
 13 25  1  0  0  0  0
 14 23  2  0  0  0  0
 14 29  1  0  0  0  0
 15 24  1  0  0  0  0
 15 27  2  0  0  0  0
 16 30  2  0  0  0  0
 16 31  1  0  0  0  0
 17 32  1  0  0  0  0
 18 32  1  0  0  0  0
 18 33  2  0  0  0  0
 18 34  1  0  0  0  0
 19 21  2  0  0  0  0
 19 39  1  0  0  0  0
 20 24  2  0  0  0  0
 20 40  1  0  0  0  0
 21 50  1  0  0  0  0
 22 23  1  0  0  0  0
 22 51  1  0  0  0  0
 23 41  1  0  0  0  0
 24 42  1  0  0  0  0
 25 29  2  0  0  0  0
 25 65  1  0  0  0  0
 26 85  1  0  0  0  0
 27 87  1  0  0  0  0
 28 31  2  0  0  0  0
 28 85  1  0  0  0  0
 29 86  1  0  0  0  0
 30 88  1  0  0  0  0
 31 89  1  0  0  0  0
 32 69  2  0  0  0  0
 33 70  1  0  0  0  0
 33 74  1  0  0  0  0
 34 75  1  0  0  0  0
 34 80  2  0  0  0  0
 35 52  1  0  0  0  0
 35 76  1  0  0  0  0
 35 81  2  0  0  0  0
 36 66  1  0  0  0  0
 36 71  1  0  0  0  0
 36 82  2  0  0  0  0
 37 67  1  0  0  0  0
 37 77  1  0  0  0  0
 37 83  2  0  0  0  0
 38 72  1  0  0  0  0
 38 73  1  0  0  0  0
 38 84  2  0  0  0  0
 39 43  1  0  0  0  0
 40 52  1  0  0  0  0
 41 47  1  0  0  0  0
 42 71  1  0  0  0  0
 43 45  1  0  0  0  0
 44 46  1  0  0  0  0
 44 48  1  0  0  0  0
 45 50  1  0  0  0  0
 46 53  1  0  0  0  0
 47 73  1  0  0  0  0
 48 72  1  0  0  0  0
 49 53  1  0  0  0  0
 49 72  1  0  0  0  0
 50 76  1  0  0  0  0
 51 54  1  0  0  0  0
 51 73  1  0  0  0  0
 52 71  1  0  0  0  0
 53 70  1  0  0  0  0
 55 65  1  0  0  0  0
 56 67  1  0  0  0  0
 57 68  1  0  0  0  0
 58 68  1  0  0  0  0
 59 68  1  0  0  0  0
 60 78  1  0  0  0  0
 61 86  1  0  0  0  0
 62 64  1  0  0  0  0
 62 79  1  0  0  0  0
 63 65  1  0  0  0  0
 63 79  1  0  0  0  0
 64 87  1  0  0  0  0
 66 68  1  0  0  0  0
 66 77  1  0  0  0  0
 67 78  1  0  0  0  0
 69 70  1  0  0  0  0
M  CHG  2  78   1  79   1
M  ISO  4  38 100  64 101  73 100  87 101
M  END
> <Batch ID>
0157

> <Smiles>
CNC(C)C(=O)NC(C(=O)N1Cc2cc([101O:1][101CH2:1]CNCC(C)c3cc4c(cc3OC)CC[100N:0]([100C:0](=O)N3CCCC(n5nc(-c6ccc(Oc7ccc(F)cc7F)cc6)c(C(N)=O)c5N)C3)C4C)ccc2CC1C(=O)NC1CCCc2ccccc21)C(C)(C)C

> <Shape>
0.258

> <Color>
0.074

> <Negative vol penalty>
0.000

$$$$
