
  -OEChem-04052322043D

 85 93  0     1  0  0  0  0  0999 V2000
  -29.0777  -23.8095   17.2290 C   0  0  0  0  0  0  0  0  0  0  0  0
  -27.8588  -23.9508   17.8847 C   0  0  0  0  0  0  0  0  0  0  0  0
  -23.8871  -10.5306   23.4709 C   0  0  0  0  0  0  0  0  0  0  0  0
  -21.7821  -11.7020   23.2879 C   0  0  0  0  0  0  0  0  0  0  0  0
  -30.2110  -24.4568   17.7195 C   0  0  0  0  0  0  0  0  0  0  0  0
  -27.7728  -24.7388   19.0319 C   0  0  0  0  0  0  0  0  0  0  0  0
  -23.7169  -27.7709   19.0068 C   0  0  0  0  0  0  0  0  0  0  0  0
  -21.3301  -22.1758   21.5297 C   0  0  0  0  0  0  0  0  0  0  0  0
  -22.4423  -21.3684   21.2914 C   0  0  0  0  0  0  0  0  0  0  0  0
  -23.2177   -9.4011   23.9417 C   0  0  0  0  0  0  0  0  0  0  0  0
  -21.1126  -10.5725   23.7586 C   0  0  0  0  0  0  0  0  0  0  0  0
  -22.4877  -27.1927   19.3205 C   0  0  0  0  0  0  0  0  0  0  0  0
  -22.0258   -6.0890   24.8496 C   0  0  0  0  0  0  0  0  0  0  0  0
  -22.3871   -4.8518   24.3165 C   0  0  0  0  0  0  0  0  0  0  0  0
  -22.6606  -28.0579   21.5657 C   0  0  0  0  0  0  0  0  0  0  0  0
  -22.7541  -23.8333   22.5602 C   0  0  0  0  0  0  0  0  0  0  0  0
  -21.7658   -5.6203   22.1119 C   0  0  0  0  0  0  0  0  0  0  0  0
  -23.1693  -11.6811   23.1440 C   0  0  0  0  0  0  0  0  0  0  0  0
  -24.1537  -13.1665   21.3186 C   0  0  0  0  0  0  0  0  0  0  0  0
  -30.1367  -25.2608   18.8679 C   0  0  0  0  0  0  0  0  0  0  0  0
  -24.4335  -28.4890   19.9749 C   0  0  0  0  0  0  0  0  0  0  0  0
  -28.9065  -25.3963   19.5390 C   0  0  0  0  0  0  0  0  0  0  0  0
  -23.8974  -28.6464   21.2610 C   0  0  0  0  0  0  0  0  0  0  0  0
  -21.4860  -23.4083   22.1640 C   0  0  0  0  0  0  0  0  0  0  0  0
  -23.7104  -21.7935   21.6875 C   0  0  0  0  0  0  0  0  0  0  0  0
  -21.8304   -9.4220   24.0855 C   0  0  0  0  0  0  0  0  0  0  0  0
  -21.9607  -27.3336   20.6009 C   0  0  0  0  0  0  0  0  0  0  0  0
  -21.5343   -7.0919   24.0139 C   0  0  0  0  0  0  0  0  0  0  0  0
  -23.8663  -23.0259   22.3219 C   0  0  0  0  0  0  0  0  0  0  0  0
  -22.2571   -4.6174   22.9476 C   0  0  0  0  0  0  0  0  0  0  0  0
  -21.4044   -6.8576   22.6451 C   0  0  0  0  0  0  0  0  0  0  0  0
  -23.8604  -12.8484   22.6582 C   0  0  0  0  0  0  0  0  0  0  0  0
  -24.8154  -14.3681   21.3881 C   0  0  0  0  0  0  0  0  0  0  0  0
  -23.8547  -12.4408   20.1188 C   0  0  0  0  0  0  0  0  0  0  0  0
  -27.2705  -28.1576   21.3698 C   0  0  0  0  0  0  0  0  0  0  0  0
  -26.5302  -31.0340   22.6739 C   0  0  0  0  0  0  0  0  0  0  0  0
  -24.1149  -33.2634   23.5921 C   0  0  0  0  0  0  0  0  0  0  0  0
  -25.3230  -19.5330   23.4404 C   0  0  0  0  0  0  0  0  0  0  0  0
  -31.3988  -25.9026   19.3875 C   0  0  0  0  0  0  0  0  0  0  0  0
  -25.7456  -29.1293   19.6129 C   0  0  0  0  0  0  0  0  0  0  0  0
  -24.6176  -29.4248   22.3305 C   0  0  0  0  0  0  0  0  0  0  0  0
  -31.1433  -27.0210   20.3946 C   0  0  0  0  0  0  0  0  0  0  0  0
  -26.6916  -16.8684   25.3649 C   0  0  0  0  0  0  0  0  0  0  0  0
  -30.1151  -26.5807   21.4318 C   0  0  0  0  0  0  0  0  0  0  0  0
  -26.0965  -15.6124   24.7258 C   0  0  0  0  0  0  0  0  0  0  0  0
  -25.6948  -18.0252   25.3704 C   0  0  0  0  0  0  0  0  0  0  0  0
  -24.5199  -17.0935   23.4146 C   0  0  0  0  0  0  0  0  0  0  0  0
  -28.7677  -26.2624   20.7723 C   0  0  1  0  0  0  0  0  0  0  0  0
  -26.6311  -29.4033   20.8246 C   0  0  1  0  0  0  0  0  0  0  0  0
  -25.5068  -15.9163   23.3354 C   0  0  2  0  0  0  0  0  0  0  0  0
  -19.2993  -23.5902   23.3786 C   0  0  0  0  0  0  0  0  0  0  0  0
  -25.1008  -20.6336   19.9317 C   0  0  0  0  0  0  0  0  0  0  0  0
  -23.8147  -35.5104   24.6683 C   0  0  0  0  0  0  0  0  0  0  0  0
  -27.0801  -29.7955   25.4077 C   0  0  0  0  0  0  0  0  0  0  0  0
  -25.8752  -31.7278   26.4481 C   0  0  0  0  0  0  0  0  0  0  0  0
  -27.9512  -32.1223   25.1223 C   0  0  0  0  0  0  0  0  0  0  0  0
  -22.8412  -34.3838   21.1669 C   0  0  0  0  0  0  0  0  0  0  0  0
  -25.1656  -24.7287   23.3555 C   0  0  0  0  0  0  0  0  0  0  0  0
  -19.5482  -24.7105   21.1312 C   0  0  0  0  0  0  0  0  0  0  0  0
  -20.4061  -25.5761   20.2132 C   0  0  0  0  0  0  0  0  0  1  0  0
  -20.2747  -24.2875   22.4226 C   0  0  2  0  0  0  0  0  0  0  0  0
  -24.8891  -20.9156   21.4256 C   0  0  2  0  0  0  0  0  0  0  0  0
  -25.8168  -31.4892   23.9241 C   0  0  1  0  0  0  0  0  0  0  0  0
  -23.9814  -34.7573   23.3576 C   0  0  2  0  0  0  0  0  0  0  0  0
  -26.6679  -31.2673   25.2062 C   0  0  0  0  0  0  0  0  0  0  0  0
  -24.2999  -13.7731   23.5159 N   0  0  0  0  0  0  0  0  0  0  0  0
  -24.8761  -14.6842   22.7134 N   0  0  0  0  0  0  0  0  0  0  0  0
  -25.9000  -30.0267   21.9296 N   0  0  0  0  0  0  0  0  0  0  0  0
  -25.1745  -18.2629   24.0219 N   0  0  0  0  0  0  0  0  0  0  0  0
  -25.3455  -15.1746   20.4441 N   0  0  0  0  0  0  0  0  0  0  0  0
  -23.1687  -11.2235   20.2276 N   0  0  0  0  0  0  0  0  0  0  0  0
  -28.0585  -27.4837   20.4564 N   0  0  0  0  0  0  0  0  0  0  0  0
  -25.4350  -32.8783   23.6933 N   0  0  0  0  0  0  0  0  0  0  0  0
  -24.8073  -19.6712   22.1576 N   0  0  0  0  0  0  0  0  0  0  0  0
  -22.7983  -35.0430   22.4976 N   0  3  0  0  0  0  0  0  0  0  0  0
  -24.2006  -12.8514   18.9850 O   0  0  0  0  0  0  0  0  0  0  0  0
  -27.0653  -27.8328   22.5334 O   0  0  0  0  0  0  0  0  0  0  0  0
  -27.6034  -31.5580   22.3653 O   0  0  0  0  0  0  0  0  0  0  0  0
  -23.1450  -32.5137   23.6805 O   0  0  0  0  0  0  0  0  0  0  0  0
  -25.8790  -20.4724   24.0194 O   0  0  0  0  0  0  0  0  0  0  0  0
  -21.1768   -8.3200   24.5446 O   0  0  0  0  0  0  0  0  0  0  0  0
  -25.0979  -23.4567   22.7143 O   0  0  0  0  0  0  0  0  0  0  0  0
  -20.7614  -26.7697   20.9100 O   0  0  0  0  0  0  0  0  0  1  0  0
  -22.6056   -3.4298   22.4356 F   0  0  0  0  0  0  0  0  0  0  0  0
  -20.9340   -7.8176   21.8370 F   0  0  0  0  0  0  0  0  0  0  0  0
  1  2  1  0  0  0  0
  1  5  2  0  0  0  0
  2  6  2  0  0  0  0
  3 10  2  0  0  0  0
  3 18  1  0  0  0  0
  4 11  1  0  0  0  0
  4 18  2  0  0  0  0
  5 20  1  0  0  0  0
  6 22  1  0  0  0  0
  7 12  2  0  0  0  0
  7 21  1  0  0  0  0
  8  9  2  0  0  0  0
  8 24  1  0  0  0  0
  9 25  1  0  0  0  0
 10 26  1  0  0  0  0
 11 26  2  0  0  0  0
 12 27  1  0  0  0  0
 13 14  2  0  0  0  0
 13 28  1  0  0  0  0
 14 30  1  0  0  0  0
 15 23  1  0  0  0  0
 15 27  2  0  0  0  0
 16 24  2  0  0  0  0
 16 29  1  0  0  0  0
 17 30  2  0  0  0  0
 17 31  1  0  0  0  0
 18 32  1  0  0  0  0
 19 32  1  0  0  0  0
 19 33  2  0  0  0  0
 19 34  1  0  0  0  0
 20 22  2  0  0  0  0
 20 39  1  0  0  0  0
 21 23  2  0  0  0  0
 21 40  1  0  0  0  0
 22 48  1  0  0  0  0
 23 41  1  0  0  0  0
 24 61  1  0  0  0  0
 25 29  2  0  0  0  0
 25 62  1  0  0  0  0
 26 81  1  0  0  0  0
 27 83  1  0  0  0  0
 28 31  2  0  0  0  0
 28 81  1  0  0  0  0
 29 82  1  0  0  0  0
 30 84  1  0  0  0  0
 31 85  1  0  0  0  0
 32 66  2  0  0  0  0
 33 67  1  0  0  0  0
 33 70  1  0  0  0  0
 34 71  1  0  0  0  0
 34 76  2  0  0  0  0
 35 49  1  0  0  0  0
 35 72  1  0  0  0  0
 35 77  2  0  0  0  0
 36 63  1  0  0  0  0
 36 68  1  0  0  0  0
 36 78  2  0  0  0  0
 37 64  1  0  0  0  0
 37 73  1  0  0  0  0
 37 79  2  0  0  0  0
 38 69  1  0  0  0  0
 38 74  1  0  0  0  0
 38 80  2  0  0  0  0
 39 42  1  0  0  0  0
 40 49  1  0  0  0  0
 41 68  1  0  0  0  0
 42 44  1  0  0  0  0
 43 45  1  0  0  0  0
 43 46  1  0  0  0  0
 44 48  1  0  0  0  0
 45 50  1  0  0  0  0
 46 69  1  0  0  0  0
 47 50  1  0  0  0  0
 47 69  1  0  0  0  0
 48 72  1  0  0  0  0
 49 68  1  0  0  0  0
 50 67  1  0  0  0  0
 51 61  1  0  0  0  0
 52 62  1  0  0  0  0
 53 64  1  0  0  0  0
 54 65  1  0  0  0  0
 55 65  1  0  0  0  0
 56 65  1  0  0  0  0
 57 75  1  0  0  0  0
 58 82  1  0  0  0  0
 59 60  1  0  0  0  0
 59 61  1  0  0  0  0
 60 83  1  0  0  0  0
 62 74  1  0  0  0  0
 63 65  1  0  0  0  0
 63 73  1  0  0  0  0
 64 75  1  0  0  0  0
 66 67  1  0  0  0  0
M  CHG  1  75   1
M  ISO  4  38 100  60 101  74 100  83 101
M  END
> <Batch ID>
0158

> <Smiles>
CNC(C)C(=O)NC(C(=O)N1Cc2cc([101O:1][101CH2:1]CC(C)c3ccc(C(C)[100NH:0][100C:0](=O)N4CCCC(n5nc(-c6ccc(Oc7ccc(F)cc7F)cc6)c(C(N)=O)c5N)C4)c(OC)c3)ccc2CC1C(=O)NC1CCCc2ccccc21)C(C)(C)C

> <Shape>
0.250

> <Color>
0.096

> <Negative vol penalty>
0.000

$$$$

  -OEChem-04052322043D

 85 94  0     1  0  0  0  0  0999 V2000
  -25.5954  -28.1843   24.1636 C   0  0  0  0  0  0  0  0  0  0  0  0
  -26.0152  -27.3002   23.1749 C   0  0  0  0  0  0  0  0  0  0  0  0
  -22.9750  -10.0220   19.9864 C   0  0  0  0  0  0  0  0  0  0  0  0
  -23.7623   -9.9915   22.2703 C   0  0  0  0  0  0  0  0  0  0  0  0
  -24.8813  -29.3300   23.8152 C   0  0  0  0  0  0  0  0  0  0  0  0
  -25.7202  -27.5608   21.8372 C   0  0  0  0  0  0  0  0  0  0  0  0
  -31.6229  -19.1997   19.1125 C   0  0  0  0  0  0  0  0  0  0  0  0
  -29.6908  -26.7987   18.7880 C   0  0  0  0  0  0  0  0  0  0  0  0
  -31.8376  -18.1361   19.9889 C   0  0  0  0  0  0  0  0  0  0  0  0
  -22.1765   -8.9084   20.2468 C   0  0  0  0  0  0  0  0  0  0  0  0
  -22.9638   -8.8779   22.5307 C   0  0  0  0  0  0  0  0  0  0  0  0
  -29.9950  -25.4791   18.4564 C   0  0  0  0  0  0  0  0  0  0  0  0
  -19.7068   -8.2459   23.1736 C   0  0  0  0  0  0  0  0  0  0  0  0
  -18.9632   -8.2452   24.3537 C   0  0  0  0  0  0  0  0  0  0  0  0
  -28.8882  -25.7642   16.3320 C   0  0  0  0  0  0  0  0  0  0  0  0
  -29.6513  -18.4902   20.9543 C   0  0  0  0  0  0  0  0  0  0  0  0
  -20.1133   -6.2474   25.0772 C   0  0  0  0  0  0  0  0  0  0  0  0
  -23.7680  -10.5636   20.9981 C   0  0  0  0  0  0  0  0  0  0  0  0
  -24.2364  -13.0680   20.8710 C   0  0  0  0  0  0  0  0  0  0  0  0
  -24.5857  -29.6097   22.4717 C   0  0  0  0  0  0  0  0  0  0  0  0
  -28.9724  -27.6090   17.8971 C   0  0  0  0  0  0  0  0  0  0  0  0
  -25.0003  -28.7106   21.4706 C   0  0  0  0  0  0  0  0  0  0  0  0
  -30.4224  -19.9087   19.1570 C   0  0  0  0  0  0  0  0  0  0  0  0
  -28.5784  -27.0945   16.6536 C   0  0  0  0  0  0  0  0  0  0  0  0
  -30.8518  -17.7813   20.9098 C   0  0  0  0  0  0  0  0  0  0  0  0
  -29.4366  -19.5539   20.0779 C   0  0  0  0  0  0  0  0  0  0  0  0
  -22.1708   -8.3363   21.5189 C   0  0  0  0  0  0  0  0  0  0  0  0
  -29.5911  -24.9607   17.2295 C   0  0  0  0  0  0  0  0  0  0  0  0
  -20.6536   -7.2473   22.9452 C   0  0  0  0  0  0  0  0  0  0  0  0
  -19.1665   -7.2460   25.3055 C   0  0  0  0  0  0  0  0  0  0  0  0
  -20.8569   -6.2481   23.8971 C   0  0  0  0  0  0  0  0  0  0  0  0
  -24.5934  -11.7136   20.7296 C   0  0  0  0  0  0  0  0  0  0  0  0
  -25.3608  -13.7607   20.4935 C   0  0  0  0  0  0  0  0  0  0  0  0
  -22.9991  -13.6480   21.3048 C   0  0  0  0  0  0  0  0  0  0  0  0
  -26.1699  -29.1061   17.9880 C   0  0  0  0  0  0  0  0  0  0  0  0
  -27.1611  -30.3100   15.1437 C   0  0  0  0  0  0  0  0  0  0  0  0
  -29.1406  -29.9682   12.3847 C   0  0  0  0  0  0  0  0  0  0  0  0
  -30.8912  -14.4992   20.6136 C   0  0  0  0  0  0  0  0  0  0  0  0
  -23.7702  -30.8364   22.1480 C   0  0  0  0  0  0  0  0  0  0  0  0
  -28.6755  -29.0385   18.2586 C   0  0  0  0  0  0  0  0  0  0  0  0
  -27.8226  -27.9293   15.6535 C   0  0  0  0  0  0  0  0  0  0  0  0
  -23.8230  -31.2315   20.6744 C   0  0  0  0  0  0  0  0  0  0  0  0
  -29.6044  -12.1744   18.2437 C   0  0  0  0  0  0  0  0  0  0  0  0
  -23.6139  -30.0092   19.7861 C   0  0  0  0  0  0  0  0  0  0  0  0
  -28.1593  -11.9545   18.6945 C   0  0  0  0  0  0  0  0  0  0  0  0
  -30.7403  -22.3857   18.7279 C   0  0  0  0  0  0  0  0  0  0  0  0
  -30.5463  -12.3489   19.4330 C   0  0  0  0  0  0  0  0  0  0  0  0
  -28.7014  -13.1767   20.8419 C   0  0  0  0  0  0  0  0  0  0  0  0
  -31.5906  -22.0082   16.5651 C   0  0  0  0  0  0  0  0  0  0  0  0
  -24.7210  -28.9713   20.0063 C   0  0  1  0  0  0  0  0  0  0  0  0
  -30.2130  -21.0543   18.1996 C   0  0  1  0  0  0  0  0  0  0  0  0
  -27.4920  -29.6162   17.4886 C   0  0  1  0  0  0  0  0  0  0  0  0
  -27.7052  -13.0513   19.6765 C   0  0  2  0  0  0  0  0  0  0  0  0
  -31.0774  -23.1219   17.4540 C   0  0  1  0  0  0  0  0  0  1  0  0
  -26.9997  -19.5311   19.4884 C   0  0  0  0  0  0  0  0  0  0  0  0
  -29.7049  -31.0930   10.2136 C   0  0  0  0  0  0  0  0  0  0  0  0
  -24.5315  -29.3231   13.9517 C   0  0  0  0  0  0  0  0  0  0  0  0
  -25.5379  -29.6038   11.6765 C   0  0  0  0  0  0  0  0  0  0  0  0
  -25.2498  -31.5854   13.1641 C   0  0  0  0  0  0  0  0  0  0  0  0
  -31.9757  -30.3070   13.1635 C   0  0  0  0  0  0  0  0  0  0  0  0
  -28.1436  -20.2986   20.1443 C   0  0  0  0  0  0  0  0  0  0  0  0
  -31.0816  -16.6443   21.8470 C   0  0  0  0  0  0  0  0  0  0  0  0
  -27.0395  -29.8823   13.7010 C   0  0  1  0  0  0  0  0  0  0  0  0
  -30.0676  -30.9442   11.6830 C   0  0  2  0  0  0  0  0  0  0  0  0
  -25.6022  -30.0821   13.1427 C   0  0  0  0  0  0  0  0  0  0  0  0
  -25.8466  -11.5532   20.2960 N   0  0  0  0  0  0  0  0  0  0  0  0
  -26.2867  -12.8159   20.1616 N   0  0  0  0  0  0  0  0  0  0  0  0
  -27.5507  -29.3191   16.0559 N   0  0  0  0  0  0  0  0  0  0  0  0
  -30.0597  -13.4046   20.3245 N   0  0  0  0  0  0  0  0  0  0  0  0
  -25.6378  -15.0796   20.4163 N   0  0  0  0  0  0  0  0  0  0  0  0
  -21.9464  -12.7918   21.6555 N   0  0  0  0  0  0  0  0  0  0  0  0
  -25.9323  -29.3718   19.3231 N   0  0  0  0  0  0  0  0  0  0  0  0
  -28.0709  -30.6113   12.9708 N   0  0  0  0  0  0  0  0  0  0  0  0
  -30.3505  -15.4578   21.4618 N   0  0  0  0  0  0  0  0  0  0  0  0
  -31.4790  -30.4744   11.7734 N   0  3  0  0  0  0  0  0  0  0  0  0
  -22.8265  -14.8891   21.3635 O   0  0  0  0  0  0  0  0  0  0  0  0
  -25.4201  -28.5165   17.2187 O   0  0  0  0  0  0  0  0  0  0  0  0
  -26.9262  -31.4819   15.4488 O   0  0  0  0  0  0  0  0  0  0  0  0
  -29.3430  -28.7562   12.4074 O   0  0  0  0  0  0  0  0  0  0  0  0
  -32.0289  -14.6164   20.1459 O   0  0  0  0  0  0  0  0  0  0  0  0
  -30.8783  -20.8176   16.9436 O   0  0  0  0  0  0  0  0  0  0  0  0
  -21.3916   -7.2498   21.7735 O   0  0  0  0  0  0  0  0  0  0  0  0
  -29.8861  -23.6728   16.9036 O   0  0  0  0  0  0  0  0  0  1  0  0
  -18.4535   -7.2463   26.4394 F   0  0  0  0  0  0  0  0  0  0  0  0
  -21.7659   -5.2868   23.6838 F   0  0  0  0  0  0  0  0  0  0  0  0
  1  2  1  0  0  0  0
  1  5  2  0  0  0  0
  2  6  2  0  0  0  0
  3 10  2  0  0  0  0
  3 18  1  0  0  0  0
  4 11  1  0  0  0  0
  4 18  2  0  0  0  0
  5 20  1  0  0  0  0
  6 22  1  0  0  0  0
  7  9  2  0  0  0  0
  7 23  1  0  0  0  0
  8 12  2  0  0  0  0
  8 21  1  0  0  0  0
  9 25  1  0  0  0  0
 10 27  1  0  0  0  0
 11 27  2  0  0  0  0
 12 28  1  0  0  0  0
 13 14  2  0  0  0  0
 13 29  1  0  0  0  0
 14 30  1  0  0  0  0
 15 24  1  0  0  0  0
 15 28  2  0  0  0  0
 16 25  2  0  0  0  0
 16 26  1  0  0  0  0
 17 30  2  0  0  0  0
 17 31  1  0  0  0  0
 18 32  1  0  0  0  0
 19 32  1  0  0  0  0
 19 33  2  0  0  0  0
 19 34  1  0  0  0  0
 20 22  2  0  0  0  0
 20 39  1  0  0  0  0
 21 24  2  0  0  0  0
 21 40  1  0  0  0  0
 22 50  1  0  0  0  0
 23 26  2  0  0  0  0
 23 51  1  0  0  0  0
 24 41  1  0  0  0  0
 25 62  1  0  0  0  0
 26 61  1  0  0  0  0
 27 82  1  0  0  0  0
 28 83  1  0  0  0  0
 29 31  2  0  0  0  0
 29 82  1  0  0  0  0
 30 84  1  0  0  0  0
 31 85  1  0  0  0  0
 32 66  2  0  0  0  0
 33 67  1  0  0  0  0
 33 70  1  0  0  0  0
 34 71  1  0  0  0  0
 34 76  2  0  0  0  0
 35 52  1  0  0  0  0
 35 72  1  0  0  0  0
 35 77  2  0  0  0  0
 36 63  1  0  0  0  0
 36 68  1  0  0  0  0
 36 78  2  0  0  0  0
 37 64  1  0  0  0  0
 37 73  1  0  0  0  0
 37 79  2  0  0  0  0
 38 69  1  0  0  0  0
 38 74  1  0  0  0  0
 38 80  2  0  0  0  0
 39 42  1  0  0  0  0
 40 52  1  0  0  0  0
 41 68  1  0  0  0  0
 42 44  1  0  0  0  0
 43 45  1  0  0  0  0
 43 47  1  0  0  0  0
 44 50  1  0  0  0  0
 45 53  1  0  0  0  0
 46 51  1  0  0  0  0
 46 54  1  0  0  0  0
 47 69  1  0  0  0  0
 48 53  1  0  0  0  0
 48 69  1  0  0  0  0
 49 54  1  0  0  0  0
 49 81  1  0  0  0  0
 50 72  1  0  0  0  0
 51 81  1  0  0  0  0
 52 68  1  0  0  0  0
 53 67  1  0  0  0  0
 54 83  1  0  0  0  0
 55 61  1  0  0  0  0
 56 64  1  0  0  0  0
 57 65  1  0  0  0  0
 58 65  1  0  0  0  0
 59 65  1  0  0  0  0
 60 75  1  0  0  0  0
 62 74  1  0  0  0  0
 63 65  1  0  0  0  0
 63 73  1  0  0  0  0
 64 75  1  0  0  0  0
 66 67  1  0  0  0  0
M  CHG  1  75   1
M  ISO  4  38 100  54 101  74 100  83 101
M  END
> <Batch ID>
0158

> <Smiles>
CCc1cc(C[100NH:0][100C:0](=O)N2CCCC(n3nc(-c4ccc(Oc5ccc(F)cc5F)cc4)c(C(N)=O)c3N)C2)ccc1C1C[101CH:1]([101O:1]c2ccc3c(c2)CN(C(=O)C(NC(=O)C(C)NC)C(C)(C)C)C(C(=O)NC2CCCc4ccccc42)C3)CO1

> <Shape>
0.280

> <Color>
0.197

> <Negative vol penalty>
0.000

$$$$

  -OEChem-04052322043D

 91101  0     1  0  0  0  0  0999 V2000
  -26.5028  -38.1126   23.4829 C   0  0  0  0  0  0  0  0  0  0  0  0
  -26.9843  -36.8120   23.3740 C   0  0  0  0  0  0  0  0  0  0  0  0
  -22.3768   -7.3831   20.6263 C   0  0  0  0  0  0  0  0  0  0  0  0
  -21.7688   -7.1813   22.9558 C   0  0  0  0  0  0  0  0  0  0  0  0
  -25.1850  -38.3359   23.8797 C   0  0  0  0  0  0  0  0  0  0  0  0
  -26.1486  -35.7338   23.6630 C   0  0  0  0  0  0  0  0  0  0  0  0
  -26.4941  -32.0319   20.2247 C   0  0  0  0  0  0  0  0  0  0  0  0
  -28.5154  -23.4599   20.3036 C   0  0  0  0  0  0  0  0  0  0  0  0
  -22.2037   -6.0088   20.4621 C   0  0  0  0  0  0  0  0  0  0  0  0
  -21.5957   -5.8070   22.7916 C   0  0  0  0  0  0  0  0  0  0  0  0
  -27.6003  -31.1873   20.3074 C   0  0  0  0  0  0  0  0  0  0  0  0
  -28.3105  -24.7894   19.9346 C   0  0  0  0  0  0  0  0  0  0  0  0
  -19.6297   -3.8519   20.0682 C   0  0  0  0  0  0  0  0  0  0  0  0
  -18.9289   -3.4166   18.9435 C   0  0  0  0  0  0  0  0  0  0  0  0
  -26.2433  -29.5284   21.4146 C   0  0  0  0  0  0  0  0  0  0  0  0
  -30.7004  -25.1336   19.8482 C   0  0  0  0  0  0  0  0  0  0  0  0
  -20.8681   -2.1722   18.2168 C   0  0  0  0  0  0  0  0  0  0  0  0
  -22.1594   -7.9694   21.8732 C   0  0  0  0  0  0  0  0  0  0  0  0
  -21.3674  -10.3943   21.8774 C   0  0  0  0  0  0  0  0  0  0  0  0
  -24.3298  -37.2597   24.1644 C   0  0  0  0  0  0  0  0  0  0  0  0
  -25.2547  -31.6348   20.7470 C   0  0  0  0  0  0  0  0  0  0  0  0
  -24.8185  -35.9430   24.0653 C   0  0  0  0  0  0  0  0  0  0  0  0
  -29.8127  -22.9673   20.4451 C   0  0  0  0  0  0  0  0  0  0  0  0
  -25.1223  -30.3688   21.3350 C   0  0  0  0  0  0  0  0  0  0  0  0
  -30.9052  -23.8041   20.2173 C   0  0  0  0  0  0  0  0  0  0  0  0
  -21.8131   -5.2208   21.5447 C   0  0  0  0  0  0  0  0  0  0  0  0
  -27.4757  -29.9366   20.9050 C   0  0  0  0  0  0  0  0  0  0  0  0
  -29.4030  -25.6262   19.7069 C   0  0  0  0  0  0  0  0  0  0  0  0
  -20.9497   -3.4474   20.2672 C   0  0  0  0  0  0  0  0  0  0  0  0
  -19.5481   -2.5768   18.0178 C   0  0  0  0  0  0  0  0  0  0  0  0
  -21.5689   -2.6075   19.3416 C   0  0  0  0  0  0  0  0  0  0  0  0
  -22.3386   -9.3888   22.0436 C   0  0  0  0  0  0  0  0  0  0  0  0
  -22.0331  -11.5636   22.1532 C   0  0  0  0  0  0  0  0  0  0  0  0
  -19.9870  -10.2814   21.5069 C   0  0  0  0  0  0  0  0  0  0  0  0
  -23.3308  -32.7226   23.0315 C   0  0  0  0  0  0  0  0  0  0  0  0
  -21.3421  -30.4160   21.9147 C   0  0  0  0  0  0  0  0  0  0  0  0
  -20.9822  -27.4527   20.2605 C   0  0  0  0  0  0  0  0  0  0  0  0
  -26.6172  -14.6363   21.2384 C   0  0  0  0  0  0  0  0  0  0  0  0
  -22.9272  -37.5519   24.6353 C   0  0  0  0  0  0  0  0  0  0  0  0
  -24.0647  -32.5467   20.6260 C   0  0  0  0  0  0  0  0  0  0  0  0
  -23.8089  -29.8869   21.8928 C   0  0  0  0  0  0  0  0  0  0  0  0
  -21.9959  -36.3447   24.5613 C   0  0  0  0  0  0  0  0  0  0  0  0
  -26.5983  -12.3653   24.1705 C   0  0  0  0  0  0  0  0  0  0  0  0
  -22.6761  -35.1093   25.1427 C   0  0  0  0  0  0  0  0  0  0  0  0
  -25.4242  -11.4461   23.8306 C   0  0  0  0  0  0  0  0  0  0  0  0
  -28.0925  -17.3155   23.2772 C   0  0  0  0  0  0  0  0  0  0  0  0
  -29.3822  -21.2807   22.2219 C   0  0  0  0  0  0  0  0  0  0  0  0
  -29.3912  -20.6060   19.7864 C   0  0  0  0  0  0  0  0  0  0  0  0
  -27.2898  -12.8566   22.9054 C   0  0  0  0  0  0  0  0  0  0  0  0
  -27.7216  -15.8370   23.2164 C   0  0  0  0  0  0  0  0  0  0  0  0
  -25.2117  -12.6391   21.5972 C   0  0  0  0  0  0  0  0  0  0  0  0
  -27.9970  -16.6799   20.9819 C   0  0  0  0  0  0  0  0  0  0  0  0
  -29.4907  -19.8139   22.6186 C   0  0  0  0  0  0  0  0  0  0  0  0
  -29.4999  -19.1444   20.2018 C   0  0  0  0  0  0  0  0  0  0  0  0
  -30.0070  -21.5392   20.8414 C   0  0  0  0  0  0  0  0  0  0  0  0
  -23.9353  -34.7467   24.3462 C   0  0  1  0  0  0  0  0  0  0  0  0
  -22.9755  -32.2469   21.6512 C   0  0  1  0  0  0  0  0  0  0  0  0
  -24.4607  -12.1184   22.8355 C   0  0  1  0  0  0  0  0  0  0  0  0
  -28.8180  -17.5074   21.9538 C   0  0  1  0  0  0  0  0  0  0  0  0
  -32.3030  -23.2992   20.3638 C   0  0  0  0  0  0  0  0  0  0  0  0
  -19.2383  -25.7995   19.5374 C   0  0  0  0  0  0  0  0  0  0  0  0
  -21.1454  -29.3755   24.7763 C   0  0  0  0  0  0  0  0  0  0  0  0
  -20.2082  -27.2415   23.8619 C   0  0  0  0  0  0  0  0  0  0  0  0
  -18.9832  -29.3874   23.5196 C   0  0  0  0  0  0  0  0  0  0  0  0
  -21.6343  -27.8407   17.3999 C   0  0  0  0  0  0  0  0  0  0  0  0
  -29.5355  -29.2183   19.9578 C   0  0  0  0  0  0  0  0  0  1  0  0
  -30.1942  -27.8686   19.7483 C   0  0  0  0  0  0  0  0  0  0  0  0
  -21.1140  -28.9571   22.2287 C   0  0  1  0  0  0  0  0  0  0  0  0
  -20.0430  -27.0291   19.1457 C   0  0  2  0  0  0  0  0  0  0  0  0
  -20.3881  -28.7499   23.5879 C   0  0  0  0  0  0  0  0  0  0  0  0
  -23.5306   -9.8767   22.3974 N   0  0  0  0  0  0  0  0  0  0  0  0
  -23.3128  -11.2016   22.4557 N   0  0  0  0  0  0  0  0  0  0  0  0
  -22.6761  -30.8174   21.7561 N   0  0  0  0  0  0  0  0  0  0  0  0
  -26.3353  -13.4914   21.9922 N   0  0  0  0  0  0  0  0  0  0  0  0
  -27.4847  -15.5764   21.7926 N   0  0  0  0  0  0  0  0  0  0  0  0
  -21.6428  -12.8559   22.1640 N   0  0  0  0  0  0  0  0  0  0  0  0
  -19.4639   -9.0049   21.2591 N   0  0  0  0  0  0  0  0  0  0  0  0
  -23.5784  -34.0797   23.1125 N   0  0  0  0  0  0  0  0  0  0  0  0
  -20.4061  -28.3986   21.0819 N   0  0  0  0  0  0  0  0  0  0  0  0
  -28.8512  -18.9258   21.5611 N   0  3  0  0  0  0  0  0  0  0  0  0
  -20.8147  -26.7119   17.9108 N   0  3  0  0  0  0  0  0  0  0  0  0
  -19.2436  -11.2842   21.3828 O   0  0  0  0  0  0  0  0  0  0  0  0
  -23.3755  -31.9183   23.9549 O   0  0  0  0  0  0  0  0  0  0  0  0
  -20.3720  -31.1702   21.8068 O   0  0  0  0  0  0  0  0  0  0  0  0
  -22.1125  -26.9882   20.3919 O   0  0  0  0  0  0  0  0  0  0  0  0
  -26.0800  -14.8335   20.1404 O   0  0  0  0  0  0  0  0  0  0  0  0
  -21.6438   -3.8798   21.3848 O   0  0  0  0  0  0  0  0  0  0  0  0
  -28.5613  -29.1049   20.9882 O   0  0  0  0  0  0  0  0  0  1  0  0
  -29.2033  -26.9236   19.3472 O   0  0  0  0  0  0  0  0  0  0  0  0
  -18.8745   -2.1576   16.9385 F   0  0  0  0  0  0  0  0  0  0  0  0
  -22.8364   -2.2146   19.5280 F   0  0  0  0  0  0  0  0  0  0  0  0
  1  2  1  0  0  0  0
  1  5  2  0  0  0  0
  2  6  2  0  0  0  0
  3  9  2  0  0  0  0
  3 18  1  0  0  0  0
  4 10  1  0  0  0  0
  4 18  2  0  0  0  0
  5 20  1  0  0  0  0
  6 22  1  0  0  0  0
  7 11  2  0  0  0  0
  7 21  1  0  0  0  0
  8 12  2  0  0  0  0
  8 23  1  0  0  0  0
  9 26  1  0  0  0  0
 10 26  2  0  0  0  0
 11 27  1  0  0  0  0
 12 28  1  0  0  0  0
 13 14  2  0  0  0  0
 13 29  1  0  0  0  0
 14 30  1  0  0  0  0
 15 24  1  0  0  0  0
 15 27  2  0  0  0  0
 16 25  1  0  0  0  0
 16 28  2  0  0  0  0
 17 30  2  0  0  0  0
 17 31  1  0  0  0  0
 18 32  1  0  0  0  0
 19 32  1  0  0  0  0
 19 33  2  0  0  0  0
 19 34  1  0  0  0  0
 20 22  2  0  0  0  0
 20 39  1  0  0  0  0
 21 24  2  0  0  0  0
 21 40  1  0  0  0  0
 22 56  1  0  0  0  0
 23 25  2  0  0  0  0
 23 55  1  0  0  0  0
 24 41  1  0  0  0  0
 25 60  1  0  0  0  0
 26 87  1  0  0  0  0
 27 88  1  0  0  0  0
 28 89  1  0  0  0  0
 29 31  2  0  0  0  0
 29 87  1  0  0  0  0
 30 90  1  0  0  0  0
 31 91  1  0  0  0  0
 32 71  2  0  0  0  0
 33 72  1  0  0  0  0
 33 76  1  0  0  0  0
 34 77  1  0  0  0  0
 34 82  2  0  0  0  0
 35 57  1  0  0  0  0
 35 78  1  0  0  0  0
 35 83  2  0  0  0  0
 36 68  1  0  0  0  0
 36 73  1  0  0  0  0
 36 84  2  0  0  0  0
 37 69  1  0  0  0  0
 37 79  1  0  0  0  0
 37 85  2  0  0  0  0
 38 74  1  0  0  0  0
 38 75  1  0  0  0  0
 38 86  2  0  0  0  0
 39 42  1  0  0  0  0
 40 57  1  0  0  0  0
 41 73  1  0  0  0  0
 42 44  1  0  0  0  0
 43 45  1  0  0  0  0
 43 49  1  0  0  0  0
 44 56  1  0  0  0  0
 45 58  1  0  0  0  0
 46 50  1  0  0  0  0
 46 59  1  0  0  0  0
 47 53  1  0  0  0  0
 47 55  1  0  0  0  0
 48 54  1  0  0  0  0
 48 55  1  0  0  0  0
 49 74  1  0  0  0  0
 50 75  1  0  0  0  0
 51 58  1  0  0  0  0
 51 74  1  0  0  0  0
 52 59  1  0  0  0  0
 52 75  1  0  0  0  0
 53 80  1  0  0  0  0
 54 80  1  0  0  0  0
 56 78  1  0  0  0  0
 57 73  1  0  0  0  0
 58 72  1  0  0  0  0
 59 80  1  0  0  0  0
 61 69  1  0  0  0  0
 62 70  1  0  0  0  0
 63 70  1  0  0  0  0
 64 70  1  0  0  0  0
 65 81  1  0  0  0  0
 66 67  1  0  0  0  0
 66 88  1  0  0  0  0
 67 89  1  0  0  0  0
 68 70  1  0  0  0  0
 68 79  1  0  0  0  0
 69 81  1  0  0  0  0
 71 72  1  0  0  0  0
M  CHG  2  80   1  81   1
M  ISO  4  38 100  66 101  75 100  88 101
M  END
> <Batch ID>
0158

> <Smiles>
CNC(C)C(=O)NC(C(=O)N1Cc2cc([101O:1][101CH2:1]COc3ccc(C4CCN(C5CC[100N:0]([100C:0](=O)N6CCCC(n7nc(-c8ccc(Oc9ccc(F)cc9F)cc8)c(C(N)=O)c7N)C6)C5)CC4)c(C)c3)ccc2CC1C(=O)NC1CCCc2ccccc21)C(C)(C)C

> <Shape>
0.287

> <Color>
0.052

> <Negative vol penalty>
0.000

$$$$

  -OEChem-04052322043D

 85 94  0     1  0  0  0  0  0999 V2000
  -30.3726  -35.3662   25.2065 C   0  0  0  0  0  0  0  0  0  0  0  0
  -30.5191  -34.5872   24.0631 C   0  0  0  0  0  0  0  0  0  0  0  0
  -28.0773  -11.9906   19.0385 C   0  0  0  0  0  0  0  0  0  0  0  0
  -28.5611  -13.4436   20.9071 C   0  0  0  0  0  0  0  0  0  0  0  0
  -29.5292  -34.9435   26.2332 C   0  0  0  0  0  0  0  0  0  0  0  0
  -29.8231  -33.3845   23.9463 C   0  0  0  0  0  0  0  0  0  0  0  0
  -25.6388  -22.1586   15.9410 C   0  0  0  0  0  0  0  0  0  0  0  0
  -26.7109  -29.1887   19.0448 C   0  0  0  0  0  0  0  0  0  0  0  0
  -25.7925  -23.5040   16.2757 C   0  0  0  0  0  0  0  0  0  0  0  0
  -29.4425  -11.8684   18.7800 C   0  0  0  0  0  0  0  0  0  0  0  0
  -29.9264  -13.3214   20.6486 C   0  0  0  0  0  0  0  0  0  0  0  0
  -26.7086  -27.8658   18.6046 C   0  0  0  0  0  0  0  0  0  0  0  0
  -31.8714  -13.6987   17.3052 C   0  0  0  0  0  0  0  0  0  0  0  0
  -32.2919  -13.8114   15.9800 C   0  0  0  0  0  0  0  0  0  0  0  0
  -27.0738  -21.5365   17.7824 C   0  0  0  0  0  0  0  0  0  0  0  0
  -25.2187  -27.2749   20.4075 C   0  0  0  0  0  0  0  0  0  0  0  0
  -33.2057  -11.5771   16.0800 C   0  0  0  0  0  0  0  0  0  0  0  0
  -27.6366  -12.7782   20.1021 C   0  0  0  0  0  0  0  0  0  0  0  0
  -25.4431  -12.0890   21.2071 C   0  0  0  0  0  0  0  0  0  0  0  0
  -26.2794  -21.1749   16.6944 C   0  0  0  0  0  0  0  0  0  0  0  0
  -28.8152  -33.7398   26.1247 C   0  0  0  0  0  0  0  0  0  0  0  0
  -25.9746  -29.5631   20.1779 C   0  0  0  0  0  0  0  0  0  0  0  0
  -28.9705  -32.9447   24.9731 C   0  0  0  0  0  0  0  0  0  0  0  0
  -25.2113  -28.6037   20.8584 C   0  0  0  0  0  0  0  0  0  0  0  0
  -26.5869  -23.8656   17.3637 C   0  0  0  0  0  0  0  0  0  0  0  0
  -30.3670  -12.5338   19.5850 C   0  0  0  0  0  0  0  0  0  0  0  0
  -25.9647  -26.9081   19.2876 C   0  0  0  0  0  0  0  0  0  0  0  0
  -32.1181  -12.5252   18.0178 C   0  0  0  0  0  0  0  0  0  0  0  0
  -27.2276  -22.8819   18.1171 C   0  0  0  0  0  0  0  0  0  0  0  0
  -32.9590  -12.7506   15.3674 C   0  0  0  0  0  0  0  0  0  0  0  0
  -32.7852  -11.4644   17.4053 C   0  0  0  0  0  0  0  0  0  0  0  0
  -26.2264  -12.9052   20.3694 C   0  0  0  0  0  0  0  0  0  0  0  0
  -24.1798  -12.6213   21.1215 C   0  0  0  0  0  0  0  0  0  0  0  0
  -25.8233  -10.9514   21.9927 C   0  0  0  0  0  0  0  0  0  0  0  0
  -26.7010  -30.7748   23.0254 C   0  0  0  0  0  0  0  0  0  0  0  0
  -23.4771  -30.9338   23.3467 C   0  0  0  0  0  0  0  0  0  0  0  0
  -20.4110  -29.7631   22.4109 C   0  0  0  0  0  0  0  0  0  0  0  0
  -25.0940  -16.3466   17.2060 C   0  0  0  0  0  0  0  0  0  0  0  0
  -27.9519  -33.3011   27.2810 C   0  0  0  0  0  0  0  0  0  0  0  0
  -25.9664  -30.9995   20.6241 C   0  0  0  0  0  0  0  0  0  0  0  0
  -24.3877  -28.9583   22.0685 C   0  0  0  0  0  0  0  0  0  0  0  0
  -26.9614  -32.1979   26.9175 C   0  0  0  0  0  0  0  0  0  0  0  0
  -23.9146  -16.9056   20.6585 C   0  0  0  0  0  0  0  0  0  0  0  0
  -27.6553  -31.0995   26.1182 C   0  0  0  0  0  0  0  0  0  0  0  0
  -22.9300  -15.7573   20.8359 C   0  0  0  0  0  0  0  0  0  0  0  0
  -27.4160  -18.9827   16.0080 C   0  0  0  0  0  0  0  0  0  0  0  0
  -23.9539  -17.4113   19.2191 C   0  0  0  0  0  0  0  0  0  0  0  0
  -25.5166  -18.8484   17.4421 C   0  0  0  0  0  0  0  0  0  0  0  0
  -23.2874  -15.1560   18.3958 C   0  0  0  0  0  0  0  0  0  0  0  0
  -26.1123  -19.7205   16.3326 C   0  0  1  0  0  0  0  0  0  0  0  0
  -28.2133  -31.6461   24.7986 C   0  0  1  0  0  0  0  0  0  0  0  0
  -25.5898  -31.1667   22.0930 C   0  0  1  0  0  0  0  0  0  0  0  0
  -23.1627  -14.6192   19.8321 C   0  0  1  0  0  0  0  0  0  0  0  0
  -27.0109  -17.5074   16.1104 C   0  0  1  0  0  0  0  0  0  0  0  0
  -28.1749  -16.6278   16.5482 C   0  0  0  0  0  0  0  0  0  0  0  0
  -17.9629  -30.0610   22.8752 C   0  0  0  0  0  0  0  0  0  0  0  0
  -23.7864  -29.3857   25.9578 C   0  0  0  0  0  0  0  0  0  0  0  0
  -21.3325  -28.8955   25.8767 C   0  0  0  0  0  0  0  0  0  0  0  0
  -22.1265  -31.2544   26.0433 C   0  0  0  0  0  0  0  0  0  0  0  0
  -19.8616  -30.5746   19.6183 C   0  0  0  0  0  0  0  0  0  0  0  0
  -28.6235  -22.1486   19.8974 C   0  0  0  0  0  0  0  0  0  0  0  0
  -26.7412  -25.3104   17.7064 C   0  0  0  0  0  0  0  0  0  1  0  0
  -22.4071  -30.0031   23.8644 C   0  0  1  0  0  0  0  0  0  0  0  0
  -19.1377  -30.4843   22.0072 C   0  0  2  0  0  0  0  0  0  0  0  0
  -22.4301  -29.8773   25.4139 C   0  0  0  0  0  0  0  0  0  0  0  0
  -25.5199  -13.8817   19.7937 N   0  0  0  0  0  0  0  0  0  0  0  0
  -24.2794  -13.6824   20.2704 N   0  0  0  0  0  0  0  0  0  0  0  0
  -24.4171  -30.3746   22.4696 N   0  0  0  0  0  0  0  0  0  0  0  0
  -24.1536  -16.3300   18.2484 N   0  0  0  0  0  0  0  0  0  0  0  0
  -25.8940  -17.4833   17.0647 N   0  0  0  0  0  0  0  0  0  0  0  0
  -23.0046  -12.2804   21.6917 N   0  0  0  0  0  0  0  0  0  0  0  0
  -27.1624  -10.5386   21.9660 N   0  0  0  0  0  0  0  0  0  0  0  0
  -27.1515  -31.8053   23.8282 N   0  0  0  0  0  0  0  0  0  0  0  0
  -21.1437  -30.4925   23.3233 N   0  0  0  0  0  0  0  0  0  0  0  0
  -18.8027  -30.1874   20.5857 N   0  3  0  0  0  0  0  0  0  0  0  0
  -24.9967  -10.3099   22.6845 O   0  0  0  0  0  0  0  0  0  0  0  0
  -27.1178  -29.6224   23.0180 O   0  0  0  0  0  0  0  0  0  0  0  0
  -23.4745  -32.1151   23.7017 O   0  0  0  0  0  0  0  0  0  0  0  0
  -20.7225  -28.6612   21.9647 O   0  0  0  0  0  0  0  0  0  0  0  0
  -25.2046  -15.3930   16.4235 O   0  0  0  0  0  0  0  0  0  0  0  0
  -31.6993  -12.4146   19.3332 O   0  0  0  0  0  0  0  0  0  0  0  0
  -28.0062  -23.2178   19.1835 O   0  0  0  0  0  0  0  0  0  0  0  0
  -25.9611  -25.6069   18.8575 O   0  0  0  0  0  0  0  0  0  1  0  0
  -33.3614  -12.8583   14.0944 F   0  0  0  0  0  0  0  0  0  0  0  0
  -33.0241  -10.3341   18.0844 F   0  0  0  0  0  0  0  0  0  0  0  0
  1  2  1  0  0  0  0
  1  5  2  0  0  0  0
  2  6  2  0  0  0  0
  3 10  2  0  0  0  0
  3 18  1  0  0  0  0
  4 11  1  0  0  0  0
  4 18  2  0  0  0  0
  5 21  1  0  0  0  0
  6 23  1  0  0  0  0
  7  9  2  0  0  0  0
  7 20  1  0  0  0  0
  8 12  2  0  0  0  0
  8 22  1  0  0  0  0
  9 25  1  0  0  0  0
 10 26  1  0  0  0  0
 11 26  2  0  0  0  0
 12 27  1  0  0  0  0
 13 14  2  0  0  0  0
 13 28  1  0  0  0  0
 14 30  1  0  0  0  0
 15 20  2  0  0  0  0
 15 29  1  0  0  0  0
 16 24  1  0  0  0  0
 16 27  2  0  0  0  0
 17 30  2  0  0  0  0
 17 31  1  0  0  0  0
 18 32  1  0  0  0  0
 19 32  1  0  0  0  0
 19 33  2  0  0  0  0
 19 34  1  0  0  0  0
 20 50  1  0  0  0  0
 21 23  2  0  0  0  0
 21 39  1  0  0  0  0
 22 24  2  0  0  0  0
 22 40  1  0  0  0  0
 23 51  1  0  0  0  0
 24 41  1  0  0  0  0
 25 29  2  0  0  0  0
 25 62  1  0  0  0  0
 26 81  1  0  0  0  0
 27 83  1  0  0  0  0
 28 31  2  0  0  0  0
 28 81  1  0  0  0  0
 29 82  1  0  0  0  0
 30 84  1  0  0  0  0
 31 85  1  0  0  0  0
 32 66  2  0  0  0  0
 33 67  1  0  0  0  0
 33 71  1  0  0  0  0
 34 72  1  0  0  0  0
 34 76  2  0  0  0  0
 35 52  1  0  0  0  0
 35 73  1  0  0  0  0
 35 77  2  0  0  0  0
 36 63  1  0  0  0  0
 36 68  1  0  0  0  0
 36 78  2  0  0  0  0
 37 64  1  0  0  0  0
 37 74  1  0  0  0  0
 37 79  2  0  0  0  0
 38 69  1  0  0  0  0
 38 70  1  0  0  0  0
 38 80  2  0  0  0  0
 39 42  1  0  0  0  0
 40 52  1  0  0  0  0
 41 68  1  0  0  0  0
 42 44  1  0  0  0  0
 43 45  1  0  0  0  0
 43 47  1  0  0  0  0
 44 51  1  0  0  0  0
 45 53  1  0  0  0  0
 46 50  1  0  0  0  0
 46 54  1  0  0  0  0
 47 69  1  0  0  0  0
 48 50  1  0  0  0  0
 48 70  1  0  0  0  0
 49 53  1  0  0  0  0
 49 69  1  0  0  0  0
 51 73  1  0  0  0  0
 52 68  1  0  0  0  0
 53 67  1  0  0  0  0
 54 55  1  0  0  0  0
 54 70  1  0  0  0  0
 56 64  1  0  0  0  0
 57 65  1  0  0  0  0
 58 65  1  0  0  0  0
 59 65  1  0  0  0  0
 60 75  1  0  0  0  0
 61 82  1  0  0  0  0
 62 83  1  0  0  0  0
 63 65  1  0  0  0  0
 63 74  1  0  0  0  0
 64 75  1  0  0  0  0
 66 67  1  0  0  0  0
M  CHG  1  75   1
M  ISO  4  38 100  62 101  70 100  83 101
M  END
> <Batch ID>
0158

> <Smiles>
CNC(C)C(=O)NC(C(=O)N1Cc2cc([101O:1][101CH2:1]c3ccc(C4CC(C)[100N:0]([100C:0](=O)N5CCCC(n6nc(-c7ccc(Oc8ccc(F)cc8F)cc7)c(C(N)=O)c6N)C5)C4)cc3OC)ccc2CC1C(=O)NC1CCCc2ccccc21)C(C)(C)C

> <Shape>
0.229

> <Color>
0.102

> <Negative vol penalty>
0.000

$$$$

  -OEChem-04052322043D

 86 95  0     1  0  0  0  0  0999 V2000
  -25.7037  -37.5700   17.8672 C   0  0  0  0  0  0  0  0  0  0  0  0
  -25.6666  -36.3018   17.2965 C   0  0  0  0  0  0  0  0  0  0  0  0
  -23.1135  -10.4657   21.3868 C   0  0  0  0  0  0  0  0  0  0  0  0
  -24.7585   -8.7003   21.5056 C   0  0  0  0  0  0  0  0  0  0  0  0
  -26.1782  -37.7342   19.1679 C   0  0  0  0  0  0  0  0  0  0  0  0
  -26.1050  -35.1972   18.0259 C   0  0  0  0  0  0  0  0  0  0  0  0
  -24.8014  -28.2072   18.8960 C   0  0  0  0  0  0  0  0  0  0  0  0
  -22.0920   -9.5170   21.4336 C   0  0  0  0  0  0  0  0  0  0  0  0
  -23.7370   -7.7516   21.5524 C   0  0  0  0  0  0  0  0  0  0  0  0
  -25.4627  -26.9798   18.8937 C   0  0  0  0  0  0  0  0  0  0  0  0
  -21.5595   -4.8860   22.0669 C   0  0  0  0  0  0  0  0  0  0  0  0
  -21.6711   -3.8573   23.0022 C   0  0  0  0  0  0  0  0  0  0  0  0
  -26.1878  -27.3730   21.1606 C   0  0  0  0  0  0  0  0  0  0  0  0
  -28.0440  -21.2739   20.8424 C   0  0  0  0  0  0  0  0  0  0  0  0
  -21.7016   -5.4842   24.7880 C   0  0  0  0  0  0  0  0  0  0  0  0
  -24.4468  -10.0573   21.4227 C   0  0  0  0  0  0  0  0  0  0  0  0
  -26.1154  -11.6811   22.4651 C   0  0  0  0  0  0  0  0  0  0  0  0
  -26.6136  -36.6297   19.9170 C   0  0  0  0  0  0  0  0  0  0  0  0
  -24.8376  -29.0330   20.0288 C   0  0  0  0  0  0  0  0  0  0  0  0
  -26.5870  -35.3469   19.3373 C   0  0  0  0  0  0  0  0  0  0  0  0
  -25.5240  -28.6092   21.1756 C   0  0  0  0  0  0  0  0  0  0  0  0
  -27.4179  -22.5067   21.0255 C   0  0  0  0  0  0  0  0  0  0  0  0
  -29.5528  -23.6204   20.8272 C   0  0  0  0  0  0  0  0  0  0  0  0
  -28.1722  -23.6800   21.0179 C   0  0  0  0  0  0  0  0  0  0  0  0
  -30.1789  -22.3875   20.6441 C   0  0  0  0  0  0  0  0  0  0  0  0
  -29.4246  -21.2142   20.6518 C   0  0  0  0  0  0  0  0  0  0  0  0
  -22.4037   -8.1600   21.5164 C   0  0  0  0  0  0  0  0  0  0  0  0
  -26.1584  -26.5638   20.0251 C   0  0  0  0  0  0  0  0  0  0  0  0
  -21.5189   -6.2139   22.4921 C   0  0  0  0  0  0  0  0  0  0  0  0
  -21.7422   -4.1564   24.3628 C   0  0  0  0  0  0  0  0  0  0  0  0
  -21.5900   -6.5130   23.8527 C   0  0  0  0  0  0  0  0  0  0  0  0
  -25.5024  -11.0368   21.3739 C   0  0  0  0  0  0  0  0  0  0  0  0
  -27.0487  -12.5112   21.8937 C   0  0  0  0  0  0  0  0  0  0  0  0
  -25.8637  -11.5418   23.8697 C   0  0  0  0  0  0  0  0  0  0  0  0
  -25.9358  -31.9520   20.6425 C   0  0  0  0  0  0  0  0  0  0  0  0
  -24.5129  -31.4604   23.5159 C   0  0  0  0  0  0  0  0  0  0  0  0
  -23.3729  -29.2386   25.8419 C   0  0  0  0  0  0  0  0  0  0  0  0
  -28.1575  -16.3403   17.8955 C   0  0  0  0  0  0  0  0  0  0  0  0
  -27.1624  -36.8630   21.3023 C   0  0  0  0  0  0  0  0  0  0  0  0
  -24.0968  -30.3420   20.0246 C   0  0  0  0  0  0  0  0  0  0  0  0
  -25.5763  -29.4496   22.4244 C   0  0  0  0  0  0  0  0  0  0  0  0
  -27.2578  -35.5916   22.1418 C   0  0  0  0  0  0  0  0  0  0  0  0
  -28.7510  -12.7975   17.1412 C   0  0  0  0  0  0  0  0  0  0  0  0
  -27.8864  -34.4626   21.3311 C   0  0  0  0  0  0  0  0  0  0  0  0
  -27.9662  -12.0809   18.2410 C   0  0  0  0  0  0  0  0  0  0  0  0
  -30.2456  -17.5382   20.6743 C   0  0  0  0  0  0  0  0  0  0  0  0
  -28.1253  -14.1415   16.7755 C   0  0  0  0  0  0  0  0  0  0  0  0
  -29.4152  -16.3811   20.1288 C   0  0  0  0  0  0  0  0  0  0  0  0
  -27.1126  -14.3241   19.0147 C   0  0  0  0  0  0  0  0  0  0  0  0
  -28.6928  -18.4324   19.1112 C   0  0  0  0  0  0  0  0  0  0  0  0
  -27.0306  -34.1208   20.1054 C   0  0  1  0  0  0  0  0  0  0  0  0
  -24.6298  -31.3335   21.0542 C   0  0  1  0  0  0  0  0  0  0  0  0
  -27.7502  -13.0000   19.4578 C   0  0  1  0  0  0  0  0  0  0  0  0
  -29.3152  -18.7284   20.4675 C   0  0  2  0  0  0  0  0  0  0  0  0
  -25.9382  -22.5433   21.2265 C   0  0  0  0  0  0  0  0  0  0  0  0
  -30.3616  -24.8793   20.8195 C   0  0  0  0  0  0  0  0  0  0  0  0
  -31.6599  -22.3249   20.4364 C   0  0  0  0  0  0  0  0  0  0  0  0
  -22.2940  -29.1360   28.1053 C   0  0  0  0  0  0  0  0  0  0  0  0
  -27.1816  -32.1642   24.8171 C   0  0  0  0  0  0  0  0  0  0  0  0
  -26.3362  -31.1425   26.9407 C   0  0  0  0  0  0  0  0  0  0  0  0
  -25.1767  -33.1234   25.9638 C   0  0  0  0  0  0  0  0  0  0  0  0
  -20.9974  -27.8329   24.7741 C   0  0  0  0  0  0  0  0  0  0  0  0
  -27.4984  -25.0010   21.2159 C   0  0  0  0  0  0  0  0  0  1  0  0
  -24.9464  -30.8720   24.8368 C   0  0  1  0  0  0  0  0  0  0  0  0
  -22.0615  -29.1607   26.6026 C   0  0  2  0  0  0  0  0  0  0  0  0
  -25.9111  -31.8103   25.6155 C   0  0  0  0  0  0  0  0  0  0  0  0
  -26.0039  -11.4243   20.1982 N   0  0  0  0  0  0  0  0  0  0  0  0
  -26.9419  -12.3212   20.5474 N   0  0  0  0  0  0  0  0  0  0  0  0
  -24.8415  -30.7242   22.3688 N   0  0  0  0  0  0  0  0  0  0  0  0
  -27.9154  -14.9641   17.9670 N   0  0  0  0  0  0  0  0  0  0  0  0
  -28.6280  -16.9744   19.0447 N   0  0  0  0  0  0  0  0  0  0  0  0
  -27.9420  -13.3778   22.4166 N   0  0  0  0  0  0  0  0  0  0  0  0
  -24.8700  -10.6448   24.2847 N   0  0  0  0  0  0  0  0  0  0  0  0
  -30.0294  -19.9777   20.4713 N   0  0  0  0  0  0  0  0  0  0  0  0
  -25.8861  -33.3250   20.4942 N   0  0  0  0  0  0  0  0  0  0  0  0
  -23.7220  -30.5420   25.5581 N   0  0  0  0  0  0  0  0  0  0  0  0
  -21.3145  -27.9285   26.2224 N   0  3  0  0  0  0  0  0  0  0  0  0
  -26.4899  -12.2055   24.7305 O   0  0  0  0  0  0  0  0  0  0  0  0
  -26.9164  -31.2368   20.4735 O   0  0  0  0  0  0  0  0  0  0  0  0
  -23.8989  -32.5302   23.5028 O   0  0  0  0  0  0  0  0  0  0  0  0
  -24.0243  -28.2430   25.5338 O   0  0  0  0  0  0  0  0  0  0  0  0
  -28.0053  -16.9670   16.8386 O   0  0  0  0  0  0  0  0  0  0  0  0
  -21.4072   -7.2340   21.5623 O   0  0  0  0  0  0  0  0  0  0  0  0
  -26.8100  -25.3576   20.0253 O   0  0  0  0  0  0  0  0  0  1  0  0
  -21.8479   -3.1683   25.2609 F   0  0  0  0  0  0  0  0  0  0  0  0
  -21.5503   -7.7867   24.2673 F   0  0  0  0  0  0  0  0  0  0  0  0
  1  2  1  0  0  0  0
  1  5  2  0  0  0  0
  2  6  2  0  0  0  0
  3  8  2  0  0  0  0
  3 16  1  0  0  0  0
  4  9  1  0  0  0  0
  4 16  2  0  0  0  0
  5 18  1  0  0  0  0
  6 20  1  0  0  0  0
  7 10  2  0  0  0  0
  7 19  1  0  0  0  0
  8 27  1  0  0  0  0
  9 27  2  0  0  0  0
 10 28  1  0  0  0  0
 11 12  2  0  0  0  0
 11 29  1  0  0  0  0
 12 30  1  0  0  0  0
 13 21  1  0  0  0  0
 13 28  2  0  0  0  0
 14 22  2  0  0  0  0
 14 26  1  0  0  0  0
 15 30  2  0  0  0  0
 15 31  1  0  0  0  0
 16 32  1  0  0  0  0
 17 32  1  0  0  0  0
 17 33  2  0  0  0  0
 17 34  1  0  0  0  0
 18 20  2  0  0  0  0
 18 39  1  0  0  0  0
 19 21  2  0  0  0  0
 19 40  1  0  0  0  0
 20 51  1  0  0  0  0
 21 41  1  0  0  0  0
 22 24  1  0  0  0  0
 22 55  1  0  0  0  0
 23 24  2  0  0  0  0
 23 25  1  0  0  0  0
 23 56  1  0  0  0  0
 24 63  1  0  0  0  0
 25 26  2  0  0  0  0
 25 57  1  0  0  0  0
 26 74  1  0  0  0  0
 27 83  1  0  0  0  0
 28 84  1  0  0  0  0
 29 31  2  0  0  0  0
 29 83  1  0  0  0  0
 30 85  1  0  0  0  0
 31 86  1  0  0  0  0
 32 67  2  0  0  0  0
 33 68  1  0  0  0  0
 33 72  1  0  0  0  0
 34 73  1  0  0  0  0
 34 78  2  0  0  0  0
 35 52  1  0  0  0  0
 35 75  1  0  0  0  0
 35 79  2  0  0  0  0
 36 64  1  0  0  0  0
 36 69  1  0  0  0  0
 36 80  2  0  0  0  0
 37 65  1  0  0  0  0
 37 76  1  0  0  0  0
 37 81  2  0  0  0  0
 38 70  1  0  0  0  0
 38 71  1  0  0  0  0
 38 82  2  0  0  0  0
 39 42  1  0  0  0  0
 40 52  1  0  0  0  0
 41 69  1  0  0  0  0
 42 44  1  0  0  0  0
 43 45  1  0  0  0  0
 43 47  1  0  0  0  0
 44 51  1  0  0  0  0
 45 53  1  0  0  0  0
 46 48  1  0  0  0  0
 46 54  1  0  0  0  0
 47 70  1  0  0  0  0
 48 71  1  0  0  0  0
 49 53  1  0  0  0  0
 49 70  1  0  0  0  0
 50 54  1  0  0  0  0
 50 71  1  0  0  0  0
 51 75  1  0  0  0  0
 52 69  1  0  0  0  0
 53 68  1  0  0  0  0
 54 74  1  0  0  0  0
 58 65  1  0  0  0  0
 59 66  1  0  0  0  0
 60 66  1  0  0  0  0
 61 66  1  0  0  0  0
 62 77  1  0  0  0  0
 63 84  1  0  0  0  0
 64 66  1  0  0  0  0
 64 76  1  0  0  0  0
 65 77  1  0  0  0  0
 67 68  1  0  0  0  0
M  CHG  1  77   1
M  ISO  4  38 100  63 101  71 100  84 101
M  END
> <Batch ID>
0158

> <Smiles>
CNC(C)C(=O)NC(C(=O)N1Cc2cc([101O:1][101CH2:1]c3c(C)cc(NC4CC[100N:0]([100C:0](=O)N5CCCC(n6nc(-c7ccc(Oc8ccc(F)cc8F)cc7)c(C(N)=O)c6N)C5)C4)c(C)c3C)ccc2CC1C(=O)NC1CCCc2ccccc21)C(C)(C)C

> <Shape>
0.311

> <Color>
0.128

> <Negative vol penalty>
0.000

$$$$

  -OEChem-04052322043D

 83 92  0     1  0  0  0  0  0999 V2000
  -25.5590  -11.9446   41.1692 C   0  0  0  0  0  0  0  0  0  0  0  0
  -25.9016  -12.9762   40.3010 C   0  0  0  0  0  0  0  0  0  0  0  0
  -23.1864   -9.8198   19.9315 C   0  0  0  0  0  0  0  0  0  0  0  0
  -23.5622   -9.9995   22.3113 C   0  0  0  0  0  0  0  0  0  0  0  0
  -25.7838  -10.6194   40.7986 C   0  0  0  0  0  0  0  0  0  0  0  0
  -26.4702  -12.6832   39.0620 C   0  0  0  0  0  0  0  0  0  0  0  0
  -26.7050  -15.0880   32.3182 C   0  0  0  0  0  0  0  0  0  0  0  0
  -22.4178   -8.6745   20.1393 C   0  0  0  0  0  0  0  0  0  0  0  0
  -22.7935   -8.8543   22.5192 C   0  0  0  0  0  0  0  0  0  0  0  0
  -27.6251  -15.4378   31.3309 C   0  0  0  0  0  0  0  0  0  0  0  0
  -23.1888   -5.5068   22.2556 C   0  0  0  0  0  0  0  0  0  0  0  0
  -23.6844   -4.5446   23.1354 C   0  0  0  0  0  0  0  0  0  0  0  0
  -27.8942  -13.1084   30.7648 C   0  0  0  0  0  0  0  0  0  0  0  0
  -21.7266   -4.8082   24.5264 C   0  0  0  0  0  0  0  0  0  0  0  0
  -23.7587  -10.4823   21.0175 C   0  0  0  0  0  0  0  0  0  0  0  0
  -24.1023  -12.9983   20.7741 C   0  0  0  0  0  0  0  0  0  0  0  0
  -26.3466  -10.3097   39.5504 C   0  0  0  0  0  0  0  0  0  0  0  0
  -26.3803  -13.7426   32.5439 C   0  0  0  0  0  0  0  0  0  0  0  0
  -26.7040  -11.3527   38.6748 C   0  0  0  0  0  0  0  0  0  0  0  0
  -26.9678  -12.7443   31.7538 C   0  0  0  0  0  0  0  0  0  0  0  0
  -22.2213   -8.1918   21.4331 C   0  0  0  0  0  0  0  0  0  0  0  0
  -28.2220  -14.4478   30.5559 C   0  0  0  0  0  0  0  0  0  0  0  0
  -21.9622   -6.1199   22.5112 C   0  0  0  0  0  0  0  0  0  0  0  0
  -22.9533   -4.1953   24.2708 C   0  0  0  0  0  0  0  0  0  0  0  0
  -21.2311   -5.7705   23.6466 C   0  0  0  0  0  0  0  0  0  0  0  0
  -24.5533  -11.6650   20.8034 C   0  0  0  0  0  0  0  0  0  0  0  0
  -25.2351  -13.7388   20.5401 C   0  0  0  0  0  0  0  0  0  0  0  0
  -22.7778  -13.5206   20.9433 C   0  0  0  0  0  0  0  0  0  0  0  0
  -26.6695  -11.7471   35.0011 C   0  0  0  0  0  0  0  0  0  0  0  0
  -24.9881   -9.7505   33.0753 C   0  0  0  0  0  0  0  0  0  0  0  0
  -24.0603   -8.8791   29.9088 C   0  0  0  0  0  0  0  0  0  0  0  0
  -31.0722  -12.1712   21.5723 C   0  0  0  0  0  0  0  0  0  0  0  0
  -26.6143   -8.8642   39.2134 C   0  0  0  0  0  0  0  0  0  0  0  0
  -25.3658  -13.3837   33.5948 C   0  0  0  0  0  0  0  0  0  0  0  0
  -26.6380  -11.2869   31.9427 C   0  0  0  0  0  0  0  0  0  0  0  0
  -26.8755   -8.6232   37.7289 C   0  0  0  0  0  0  0  0  0  0  0  0
  -29.5307  -13.4829   18.4668 C   0  0  0  0  0  0  0  0  0  0  0  0
  -27.8616   -9.6527   37.1862 C   0  0  0  0  0  0  0  0  0  0  0  0
  -28.0461  -13.2018   18.6911 C   0  0  0  0  0  0  0  0  0  0  0  0
  -32.1908  -15.4011   28.4447 C   0  0  0  0  0  0  0  0  0  0  0  0
  -31.4417  -15.4109   29.7818 C   0  0  0  0  0  0  0  0  0  0  0  0
  -32.2337  -12.1068   24.8408 C   0  0  0  0  0  0  0  0  0  0  0  0
  -30.5126  -13.9361   24.5696 C   0  0  0  0  0  0  0  0  0  0  0  0
  -30.8033  -13.4595   28.4648 C   0  0  0  0  0  0  0  0  0  0  0  0
  -30.4147  -12.4899   19.2148 C   0  0  0  0  0  0  0  0  0  0  0  0
  -31.4435  -11.2610   23.8458 C   0  0  0  0  0  0  0  0  0  0  0  0
  -29.7684  -13.0615   23.5563 C   0  0  0  0  0  0  0  0  0  0  0  0
  -28.6387  -12.1264   20.8988 C   0  0  0  0  0  0  0  0  0  0  0  0
  -27.3001  -11.0741   37.3120 C   0  0  1  0  0  0  0  0  0  0  0  0
  -25.4957  -11.9446   34.0840 C   0  0  1  0  0  0  0  0  0  0  0  0
  -27.7220  -13.1373   20.1935 C   0  0  2  0  0  0  0  0  0  0  0  0
  -31.3250  -14.5448   27.5373 C   0  0  2  0  0  0  0  0  0  0  0  0
  -31.3027  -13.0818   25.5586 C   0  0  0  0  0  0  0  0  0  0  0  0
  -30.4393  -14.2516   29.7186 C   0  0  2  0  0  0  0  0  0  1  0  0
  -22.7103   -7.1798   28.6489 C   0  0  0  0  0  0  0  0  0  0  0  0
  -27.1975   -7.6882   33.4942 C   0  0  0  0  0  0  0  0  0  0  0  0
  -26.3054   -6.4340   31.5195 C   0  0  0  0  0  0  0  0  0  0  0  0
  -24.8776   -6.7554   33.5396 C   0  0  0  0  0  0  0  0  0  0  0  0
  -22.2604  -10.9545   28.8078 C   0  0  0  0  0  0  0  0  0  0  0  0
  -32.8283  -15.0475   25.6541 C   0  0  0  0  0  0  0  0  0  0  0  0
  -25.3446   -8.7257   32.0257 C   0  0  1  0  0  0  0  0  0  0  0  0
  -22.7044   -8.5487   29.3114 C   0  0  2  0  0  0  0  0  0  0  0  0
  -25.9392   -7.4281   32.6422 C   0  0  0  0  0  0  0  0  0  0  0  0
  -25.8699  -11.5615   20.6038 N   0  0  0  0  0  0  0  0  0  0  0  0
  -26.2559  -12.8392   20.4468 N   0  0  0  0  0  0  0  0  0  0  0  0
  -25.6449  -10.9861   32.9871 N   0  0  0  0  0  0  0  0  0  0  0  0
  -30.0569  -12.4108   20.6312 N   0  0  0  0  0  0  0  0  0  0  0  0
  -30.6863  -12.1052   22.9196 N   0  0  0  0  0  0  0  0  0  0  0  0
  -25.4477  -15.0653   20.4071 N   0  0  0  0  0  0  0  0  0  0  0  0
  -21.7292  -12.6203   21.1761 N   0  0  0  0  0  0  0  0  0  0  0  0
  -26.3261  -11.3267   36.2719 N   0  0  0  0  0  0  0  0  0  0  0  0
  -24.1366   -8.5129   31.2359 N   0  0  0  0  0  0  0  0  0  0  0  0
  -22.3278   -9.5644   28.2880 N   0  3  0  0  0  0  0  0  0  0  0  0
  -32.1115  -13.9718   26.4312 N   0  3  1  0  0  0  0  0  0  0  0  0
  -22.5290  -14.7481   20.8733 O   0  0  0  0  0  0  0  0  0  0  0  0
  -27.8029  -11.9588   34.5861 O   0  0  0  0  0  0  0  0  0  0  0  0
  -24.1521   -9.4677   33.9372 O   0  0  0  0  0  0  0  0  0  0  0  0
  -24.9628   -9.4057   29.2617 O   0  0  0  0  0  0  0  0  0  0  0  0
  -32.2520  -12.0273   21.2279 O   0  0  0  0  0  0  0  0  0  0  0  0
  -21.4711   -7.0744   21.6363 O   0  0  0  0  0  0  0  0  0  0  0  0
  -29.1265  -14.7885   29.5861 O   0  0  0  0  0  0  0  0  0  1  0  0
  -23.4285   -3.2701   25.1148 F   0  0  0  0  0  0  0  0  0  0  0  0
  -20.0515   -6.3551   23.8968 F   0  0  0  0  0  0  0  0  0  0  0  0
  1  2  1  0  0  0  0
  1  5  2  0  0  0  0
  2  6  2  0  0  0  0
  3  8  2  0  0  0  0
  3 15  1  0  0  0  0
  4  9  1  0  0  0  0
  4 15  2  0  0  0  0
  5 17  1  0  0  0  0
  6 19  1  0  0  0  0
  7 10  2  0  0  0  0
  7 18  1  0  0  0  0
  8 21  1  0  0  0  0
  9 21  2  0  0  0  0
 10 22  1  0  0  0  0
 11 12  2  0  0  0  0
 11 23  1  0  0  0  0
 12 24  1  0  0  0  0
 13 20  1  0  0  0  0
 13 22  2  0  0  0  0
 14 24  2  0  0  0  0
 14 25  1  0  0  0  0
 15 26  1  0  0  0  0
 16 26  1  0  0  0  0
 16 27  2  0  0  0  0
 16 28  1  0  0  0  0
 17 19  2  0  0  0  0
 17 33  1  0  0  0  0
 18 20  2  0  0  0  0
 18 34  1  0  0  0  0
 19 49  1  0  0  0  0
 20 35  1  0  0  0  0
 21 80  1  0  0  0  0
 22 81  1  0  0  0  0
 23 25  2  0  0  0  0
 23 80  1  0  0  0  0
 24 82  1  0  0  0  0
 25 83  1  0  0  0  0
 26 64  2  0  0  0  0
 27 65  1  0  0  0  0
 27 69  1  0  0  0  0
 28 70  1  0  0  0  0
 28 75  2  0  0  0  0
 29 50  1  0  0  0  0
 29 71  1  0  0  0  0
 29 76  2  0  0  0  0
 30 61  1  0  0  0  0
 30 66  1  0  0  0  0
 30 77  2  0  0  0  0
 31 62  1  0  0  0  0
 31 72  1  0  0  0  0
 31 78  2  0  0  0  0
 32 67  1  0  0  0  0
 32 68  1  0  0  0  0
 32 79  2  0  0  0  0
 33 36  1  0  0  0  0
 34 50  1  0  0  0  0
 35 66  1  0  0  0  0
 36 38  1  0  0  0  0
 37 39  1  0  0  0  0
 37 45  1  0  0  0  0
 38 49  1  0  0  0  0
 39 51  1  0  0  0  0
 40 41  1  0  0  0  0
 40 52  1  0  0  0  0
 41 54  1  0  0  0  0
 42 46  1  0  0  0  0
 42 53  1  0  0  0  0
 43 47  1  0  0  0  0
 43 53  1  0  0  0  0
 44 52  1  0  0  0  0
 44 54  1  0  0  0  0
 45 67  1  0  0  0  0
 46 68  1  0  0  0  0
 47 68  1  0  0  0  0
 48 51  1  0  0  0  0
 48 67  1  0  0  0  0
 49 71  1  0  0  0  0
 50 66  1  0  0  0  0
 51 65  1  0  0  0  0
 52 74  1  0  0  0  0
 53 74  1  0  0  0  0
 54 81  1  0  0  0  0
 55 62  1  0  0  0  0
 56 63  1  0  0  0  0
 57 63  1  0  0  0  0
 58 63  1  0  0  0  0
 59 73  1  0  0  0  0
 60 74  1  0  0  0  0
 61 63  1  0  0  0  0
 61 72  1  0  0  0  0
 62 73  1  0  0  0  0
 64 65  1  0  0  0  0
M  CHG  2  73   1  74   1
M  ISO  4  32 100  54 101  68 100  81 101
M  END
> <Batch ID>
0158

> <Smiles>
CNC(C)C(=O)NC(C(=O)N1Cc2cc([101O:1][101CH:1]3CCC(N(C)C4CC[100N:0]([100C:0](=O)N5CCCC(n6nc(-c7ccc(Oc8ccc(F)cc8F)cc7)c(C(N)=O)c6N)C5)CC4)C3)ccc2CC1C(=O)NC1CCCc2ccccc21)C(C)(C)C

> <Shape>
0.139

> <Color>
0.182

> <Negative vol penalty>
0.000

$$$$

  -OEChem-04052322043D

 89 99  0     1  0  0  0  0  0999 V2000
  -29.7092  -30.7455   26.4371 C   0  0  0  0  0  0  0  0  0  0  0  0
  -29.4163  -29.9641   25.3240 C   0  0  0  0  0  0  0  0  0  0  0  0
  -27.7268   -5.8578   21.2171 C   0  0  0  0  0  0  0  0  0  0  0  0
  -26.7632   -7.4493   22.7584 C   0  0  0  0  0  0  0  0  0  0  0  0
  -28.6766  -31.2262   27.2412 C   0  0  0  0  0  0  0  0  0  0  0  0
  -28.0905  -29.6621   25.0149 C   0  0  0  0  0  0  0  0  0  0  0  0
  -27.0711  -30.2129   20.0851 C   0  0  0  0  0  0  0  0  0  0  0  0
  -26.8140   -4.8928   21.6429 C   0  0  0  0  0  0  0  0  0  0  0  0
  -25.8504   -6.4843   23.1841 C   0  0  0  0  0  0  0  0  0  0  0  0
  -27.4945  -29.1965   19.2299 C   0  0  0  0  0  0  0  0  0  0  0  0
  -22.9590   -5.1317   22.0746 C   0  0  0  0  0  0  0  0  0  0  0  0
  -21.6258   -5.5183   22.2107 C   0  0  0  0  0  0  0  0  0  0  0  0
  -29.2603  -23.0812   19.9801 C   0  0  0  0  0  0  0  0  0  0  0  0
  -25.2596  -28.2888   19.2122 C   0  0  0  0  0  0  0  0  0  0  0  0
  -30.5463  -21.3161   18.2441 C   0  0  0  0  0  0  0  0  0  0  0  0
  -21.6964   -4.9366   24.5546 C   0  0  0  0  0  0  0  0  0  0  0  0
  -27.7014   -7.1360   21.7749 C   0  0  0  0  0  0  0  0  0  0  0  0
  -30.0487   -8.0644   21.4062 C   0  0  0  0  0  0  0  0  0  0  0  0
  -27.3370  -30.9380   26.9362 C   0  0  0  0  0  0  0  0  0  0  0  0
  -25.7390  -30.2687   20.5197 C   0  0  0  0  0  0  0  0  0  0  0  0
  -27.0391  -30.1383   25.8164 C   0  0  0  0  0  0  0  0  0  0  0  0
  -29.7852  -23.5469   18.7747 C   0  0  0  0  0  0  0  0  0  0  0  0
  -24.8212  -29.3084   20.0708 C   0  0  0  0  0  0  0  0  0  0  0  0
  -29.3784  -21.7329   20.3176 C   0  0  0  0  0  0  0  0  0  0  0  0
  -30.4282  -22.6644   17.9067 C   0  0  0  0  0  0  0  0  0  0  0  0
  -25.8758   -5.2061   22.6263 C   0  0  0  0  0  0  0  0  0  0  0  0
  -26.5894  -28.2325   18.7956 C   0  0  0  0  0  0  0  0  0  0  0  0
  -23.6610   -4.6475   23.1785 C   0  0  0  0  0  0  0  0  0  0  0  0
  -30.0214  -20.8504   19.4496 C   0  0  0  0  0  0  0  0  0  0  0  0
  -20.9945   -5.4208   23.4507 C   0  0  0  0  0  0  0  0  0  0  0  0
  -23.0297   -4.5500   24.4185 C   0  0  0  0  0  0  0  0  0  0  0  0
  -28.6444   -8.1331   21.3359 C   0  0  0  0  0  0  0  0  0  0  0  0
  -30.4781   -9.2513   20.8646 C   0  0  0  0  0  0  0  0  0  0  0  0
  -30.8898   -7.0210   21.9155 C   0  0  0  0  0  0  0  0  0  0  0  0
  -24.2924  -30.1008   23.3451 C   0  0  0  0  0  0  0  0  0  0  0  0
  -21.6523  -30.8091   21.5986 C   0  0  0  0  0  0  0  0  0  0  0  0
  -20.0912  -30.7761   18.5640 C   0  0  0  0  0  0  0  0  0  0  0  0
  -30.2926  -14.5839   20.2799 C   0  0  0  0  0  0  0  0  0  0  0  0
  -26.2575  -31.4406   27.8619 C   0  0  0  0  0  0  0  0  0  0  0  0
  -25.2920  -31.3870   21.4209 C   0  0  0  0  0  0  0  0  0  0  0  0
  -23.3754  -29.3354   20.4921 C   0  0  0  0  0  0  0  0  0  0  0  0
  -24.8590  -31.3874   27.2522 C   0  0  0  0  0  0  0  0  0  0  0  0
  -27.9665  -12.8244   18.3267 C   0  0  0  0  0  0  0  0  0  0  0  0
  -24.6202  -30.0386   26.5810 C   0  0  0  0  0  0  0  0  0  0  0  0
  -28.0462  -11.4284   18.9440 C   0  0  0  0  0  0  0  0  0  0  0  0
  -30.6315  -17.6811   18.2698 C   0  0  0  0  0  0  0  0  0  0  0  0
  -28.4711  -17.7846   19.5858 C   0  0  0  0  0  0  0  0  0  0  0  0
  -28.7054  -25.4933   17.2371 C   0  0  0  0  0  0  0  0  0  0  0  0
  -28.7427  -25.9866   19.3039 C   0  0  0  0  0  0  0  0  0  0  0  0
  -28.0144  -13.9242   19.3888 C   0  0  0  0  0  0  0  0  0  0  0  0
  -31.1650  -16.6600   19.2734 C   0  0  0  0  0  0  0  0  0  0  0  0
  -29.0552  -16.7647   20.5606 C   0  0  0  0  0  0  0  0  0  0  0  0
  -29.2523  -12.4294   20.9216 C   0  0  0  0  0  0  0  0  0  0  0  0
  -29.6396  -25.0818   18.4110 C   0  0  0  0  0  0  0  0  0  0  0  0
  -25.6122  -29.8098   25.4342 C   0  0  1  0  0  0  0  0  0  0  0  0
  -24.0307  -31.0503   22.2103 C   0  0  1  0  0  0  0  0  0  0  0  0
  -29.2657  -11.3046   19.8747 C   0  0  1  0  0  0  0  0  0  0  0  0
  -29.5559  -18.5889   18.8674 C   0  0  0  0  0  0  0  0  0  0  0  0
  -28.3664  -26.7747   18.0303 C   0  0  0  0  0  0  0  0  0  1  0  0
  -28.8115  -21.2518   21.6124 C   0  0  0  0  0  0  0  0  0  0  0  0
  -30.9983  -23.1432   16.6125 C   0  0  0  0  0  0  0  0  0  0  0  0
  -17.9238  -31.3878   17.4569 C   0  0  0  0  0  0  0  0  0  0  0  0
  -20.3337  -28.3455   22.8242 C   0  0  0  0  0  0  0  0  0  0  0  0
  -18.6008  -28.4619   21.0210 C   0  0  0  0  0  0  0  0  0  0  0  0
  -18.8420  -30.3442   22.6400 C   0  0  0  0  0  0  0  0  0  0  0  0
  -21.4251  -32.7003   16.7537 C   0  0  0  0  0  0  0  0  0  0  0  0
  -20.6085  -30.0030   20.8638 C   0  0  1  0  0  0  0  0  0  0  0  0
  -19.3279  -31.8515   17.8121 C   0  0  2  0  0  0  0  0  0  0  0  0
  -19.6239  -29.2867   21.8306 C   0  0  0  0  0  0  0  0  0  0  0  0
  -28.2105   -9.2735   20.7925 N   0  0  0  0  0  0  0  0  0  0  0  0
  -29.3488   -9.9324   20.5166 N   0  0  0  0  0  0  0  0  0  0  0  0
  -22.9883  -30.4450   21.3789 N   0  0  0  0  0  0  0  0  0  0  0  0
  -29.1711  -13.7411   20.2757 N   0  0  0  0  0  0  0  0  0  0  0  0
  -30.0795  -15.9263   19.9233 N   0  0  0  0  0  0  0  0  0  0  0  0
  -31.7077   -9.7684   20.6568 N   0  0  0  0  0  0  0  0  0  0  0  0
  -31.2513   -7.0551   23.2692 N   0  0  0  0  0  0  0  0  0  0  0  0
  -25.2148  -30.5633   24.2642 N   0  0  0  0  0  0  0  0  0  0  0  0
  -19.9666  -30.9214   19.9295 N   0  0  0  0  0  0  0  0  0  0  0  0
  -20.0389  -32.2058   16.5512 N   0  3  0  0  0  0  0  0  0  0  0  0
  -31.3219   -6.0951   21.1879 O   0  0  0  0  0  0  0  0  0  0  0  0
  -23.7001  -29.0287   23.3847 O   0  0  0  0  0  0  0  0  0  0  0  0
  -21.2956  -31.7325   22.3346 O   0  0  0  0  0  0  0  0  0  0  0  0
  -20.7307  -29.8931   17.9966 O   0  0  0  0  0  0  0  0  0  0  0  0
  -31.4174  -14.1646   20.5800 O   0  0  0  0  0  0  0  0  0  0  0  0
  -24.9848   -4.2648   23.0419 O   0  0  0  0  0  0  0  0  0  0  0  0
  -27.0049  -27.2274   17.9517 O   0  0  0  0  0  0  0  0  0  1  0  0
  -30.1485  -19.5236   19.7665 O   0  0  0  0  0  0  0  0  0  0  0  0
  -19.7146   -5.7936   23.5817 F   0  0  0  0  0  0  0  0  0  0  0  0
  -23.6992   -4.0867   25.4828 F   0  0  0  0  0  0  0  0  0  0  0  0
  1  2  1  0  0  0  0
  1  5  2  0  0  0  0
  2  6  2  0  0  0  0
  3  8  2  0  0  0  0
  3 17  1  0  0  0  0
  4  9  1  0  0  0  0
  4 17  2  0  0  0  0
  5 19  1  0  0  0  0
  6 21  1  0  0  0  0
  7 10  2  0  0  0  0
  7 20  1  0  0  0  0
  8 26  1  0  0  0  0
  9 26  2  0  0  0  0
 10 27  1  0  0  0  0
 11 12  2  0  0  0  0
 11 28  1  0  0  0  0
 12 30  1  0  0  0  0
 13 22  1  0  0  0  0
 13 24  2  0  0  0  0
 14 23  1  0  0  0  0
 14 27  2  0  0  0  0
 15 25  1  0  0  0  0
 15 29  2  0  0  0  0
 16 30  2  0  0  0  0
 16 31  1  0  0  0  0
 17 32  1  0  0  0  0
 18 32  1  0  0  0  0
 18 33  2  0  0  0  0
 18 34  1  0  0  0  0
 19 21  2  0  0  0  0
 19 39  1  0  0  0  0
 20 23  2  0  0  0  0
 20 40  1  0  0  0  0
 21 55  1  0  0  0  0
 22 25  2  0  0  0  0
 22 54  1  0  0  0  0
 23 41  1  0  0  0  0
 24 29  1  0  0  0  0
 24 60  1  0  0  0  0
 25 61  1  0  0  0  0
 26 85  1  0  0  0  0
 27 86  1  0  0  0  0
 28 31  2  0  0  0  0
 28 85  1  0  0  0  0
 29 87  1  0  0  0  0
 30 88  1  0  0  0  0
 31 89  1  0  0  0  0
 32 70  2  0  0  0  0
 33 71  1  0  0  0  0
 33 75  1  0  0  0  0
 34 76  1  0  0  0  0
 34 80  2  0  0  0  0
 35 56  1  0  0  0  0
 35 77  1  0  0  0  0
 35 81  2  0  0  0  0
 36 67  1  0  0  0  0
 36 72  1  0  0  0  0
 36 82  2  0  0  0  0
 37 68  1  0  0  0  0
 37 78  1  0  0  0  0
 37 83  2  0  0  0  0
 38 73  1  0  0  0  0
 38 74  1  0  0  0  0
 38 84  2  0  0  0  0
 39 42  1  0  0  0  0
 40 56  1  0  0  0  0
 41 72  1  0  0  0  0
 42 44  1  0  0  0  0
 43 45  1  0  0  0  0
 43 50  1  0  0  0  0
 44 55  1  0  0  0  0
 45 57  1  0  0  0  0
 46 51  1  0  0  0  0
 46 58  1  0  0  0  0
 47 52  1  0  0  0  0
 47 58  1  0  0  0  0
 48 54  1  0  0  0  0
 48 59  1  0  0  0  0
 49 54  1  0  0  0  0
 49 59  1  0  0  0  0
 50 73  1  0  0  0  0
 51 74  1  0  0  0  0
 52 74  1  0  0  0  0
 53 57  1  0  0  0  0
 53 73  1  0  0  0  0
 55 77  1  0  0  0  0
 56 72  1  0  0  0  0
 57 71  1  0  0  0  0
 58 87  1  0  0  0  0
 59 86  1  0  0  0  0
 62 68  1  0  0  0  0
 63 69  1  0  0  0  0
 64 69  1  0  0  0  0
 65 69  1  0  0  0  0
 66 79  1  0  0  0  0
 67 69  1  0  0  0  0
 67 78  1  0  0  0  0
 68 79  1  0  0  0  0
 70 71  1  0  0  0  0
M  CHG  1  79   1
M  ISO  4  38 100  59 101  74 100  86 101
M  END
> <Batch ID>
0158

> <Smiles>
CNC(C)C(=O)NC(C(=O)N1Cc2cc([101O:1][101CH:1]3CC(c4cc(C)c(OC5CC[100N:0]([100C:0](=O)N6CCCC(n7nc(-c8ccc(Oc9ccc(F)cc9F)cc8)c(C(N)=O)c7N)C6)CC5)cc4C)C3)ccc2CC1C(=O)NC1CCCc2ccccc21)C(C)(C)C

> <Shape>
0.278

> <Color>
0.080

> <Negative vol penalty>
0.000

$$$$

  -OEChem-04052322043D

 89 99  0     1  0  0  0  0  0999 V2000
  -20.6612  -33.7759   15.4967 C   0  0  0  0  0  0  0  0  0  0  0  0
  -21.6019  -32.7530   15.5606 C   0  0  0  0  0  0  0  0  0  0  0  0
  -26.6271  -11.5867   17.9267 C   0  0  0  0  0  0  0  0  0  0  0  0
  -27.2493  -10.0672   19.6990 C   0  0  0  0  0  0  0  0  0  0  0  0
  -20.6975  -34.8138   16.4270 C   0  0  0  0  0  0  0  0  0  0  0  0
  -22.5801  -32.7679   16.5542 C   0  0  0  0  0  0  0  0  0  0  0  0
  -25.0020  -27.9211   19.4089 C   0  0  0  0  0  0  0  0  0  0  0  0
  -27.5612  -10.9854   17.0832 C   0  0  0  0  0  0  0  0  0  0  0  0
  -28.1833   -9.4658   18.8555 C   0  0  0  0  0  0  0  0  0  0  0  0
  -26.1885  -27.2149   19.2156 C   0  0  0  0  0  0  0  0  0  0  0  0
  -30.9844   -7.7652   17.2833 C   0  0  0  0  0  0  0  0  0  0  0  0
  -32.2512   -7.4996   17.8033 C   0  0  0  0  0  0  0  0  0  0  0  0
  -28.1619  -22.2878   21.7914 C   0  0  0  0  0  0  0  0  0  0  0  0
  -27.2451  -28.5298   20.9400 C   0  0  0  0  0  0  0  0  0  0  0  0
  -28.7518  -23.7446   19.4866 C   0  0  0  0  0  0  0  0  0  0  0  0
  -32.5667   -9.8552   18.2377 C   0  0  0  0  0  0  0  0  0  0  0  0
  -26.4712  -11.1276   19.2346 C   0  0  0  0  0  0  0  0  0  0  0  0
  -24.1559  -11.3896   20.2732 C   0  0  0  0  0  0  0  0  0  0  0  0
  -21.6707  -34.8363   17.4384 C   0  0  0  0  0  0  0  0  0  0  0  0
  -24.9313  -28.9461   20.3633 C   0  0  0  0  0  0  0  0  0  0  0  0
  -22.6303  -33.8077   17.4981 C   0  0  0  0  0  0  0  0  0  0  0  0
  -27.6657  -21.8704   20.5564 C   0  0  0  0  0  0  0  0  0  0  0  0
  -26.0559  -29.2458   21.1454 C   0  0  0  0  0  0  0  0  0  0  0  0
  -29.2480  -24.1621   20.7216 C   0  0  0  0  0  0  0  0  0  0  0  0
  -28.9531  -23.4337   21.8740 C   0  0  0  0  0  0  0  0  0  0  0  0
  -28.3393   -9.9249   17.5475 C   0  0  0  0  0  0  0  0  0  0  0  0
  -27.3111  -27.5211   19.9792 C   0  0  0  0  0  0  0  0  0  0  0  0
  -30.5088   -9.0758   17.2405 C   0  0  0  0  0  0  0  0  0  0  0  0
  -27.9607  -22.5988   19.4040 C   0  0  0  0  0  0  0  0  0  0  0  0
  -33.0423   -8.5446   18.2805 C   0  0  0  0  0  0  0  0  0  0  0  0
  -31.2999  -10.1208   17.7177 C   0  0  0  0  0  0  0  0  0  0  0  0
  -25.5069  -11.7488   20.1066 C   0  0  0  0  0  0  0  0  0  0  0  0
  -23.6767  -12.2782   21.2044 C   0  0  0  0  0  0  0  0  0  0  0  0
  -23.4017  -10.3460   19.6426 C   0  0  0  0  0  0  0  0  0  0  0  0
  -24.3665  -32.0724   20.2598 C   0  0  0  0  0  0  0  0  0  0  0  0
  -24.4396  -31.7978   23.4912 C   0  0  0  0  0  0  0  0  0  0  0  0
  -25.5121  -30.0638   26.2280 C   0  0  0  0  0  0  0  0  0  0  0  0
  -25.1583  -17.7107   22.8591 C   0  0  0  0  0  0  0  0  0  0  0  0
  -21.6990  -36.0039   18.3928 C   0  0  0  0  0  0  0  0  0  0  0  0
  -23.6363  -29.6805   20.5783 C   0  0  0  0  0  0  0  0  0  0  0  0
  -26.0261  -30.3234   22.1971 C   0  0  0  0  0  0  0  0  0  0  0  0
  -22.5381  -35.7490   19.6423 C   0  0  0  0  0  0  0  0  0  0  0  0
  -25.0698  -14.9373   24.9203 C   0  0  0  0  0  0  0  0  0  0  0  0
  -23.8815  -35.1318   19.2664 C   0  0  0  0  0  0  0  0  0  0  0  0
  -25.0378  -13.7607   23.9451 C   0  0  0  0  0  0  0  0  0  0  0  0
  -31.3830  -25.4068   19.9903 C   0  0  0  0  0  0  0  0  0  0  0  0
  -31.4372  -25.2898   21.4814 C   0  0  0  0  0  0  0  0  0  0  0  0
  -27.5786  -19.3655   20.9299 C   0  0  0  0  0  0  0  0  0  0  0  0
  -25.5035  -20.7705   21.2900 C   0  0  0  0  0  0  0  0  0  0  0  0
  -26.0322  -16.0176   24.4405 C   0  0  0  0  0  0  0  0  0  0  0  0
  -26.6970  -18.1140   20.8866 C   0  0  0  0  0  0  0  0  0  0  0  0
  -24.6714  -19.4938   21.2123 C   0  0  0  0  0  0  0  0  0  0  0  0
  -25.6988  -15.3589   22.0798 C   0  0  0  0  0  0  0  0  0  0  0  0
  -26.8075  -20.6214   20.4854 C   0  0  0  0  0  0  0  0  0  0  0  0
  -23.6917  -33.7757   18.5762 C   0  0  1  0  0  0  0  0  0  0  0  0
  -23.8263  -31.0512   21.2206 C   0  0  1  0  0  0  0  0  0  0  0  0
  -24.7336  -14.2370   22.5137 C   0  0  1  0  0  0  0  0  0  0  0  0
  -30.0924  -25.3913   20.7871 C   0  0  0  0  0  0  0  0  0  0  0  0
  -29.4719  -23.8599   23.2082 C   0  0  0  0  0  0  0  0  0  0  0  0
  -25.4455  -30.1044   28.7362 C   0  0  0  0  0  0  0  0  0  0  0  0
  -26.5250  -34.0252   23.5081 C   0  0  0  0  0  0  0  0  0  0  0  0
  -27.1010  -33.3730   25.8557 C   0  0  0  0  0  0  0  0  0  0  0  0
  -24.8067  -34.1911   25.3176 C   0  0  0  0  0  0  0  0  0  0  0  0
  -24.1132  -27.4585   26.3486 C   0  0  0  0  0  0  0  0  0  0  0  0
  -27.8342  -23.0079   17.0647 C   0  0  0  0  0  0  0  0  0  0  0  0
  -29.3283  -26.6785   20.9155 C   0  0  0  0  0  0  0  0  0  1  0  0
  -25.5139  -31.8891   24.5478 C   0  0  1  0  0  0  0  0  0  0  0  0
  -24.7798  -29.5886   27.4699 C   0  0  2  0  0  0  0  0  0  0  0  0
  -25.9881  -33.3505   24.7862 C   0  0  0  0  0  0  0  0  0  0  0  0
  -25.8629  -12.7849   20.8707 N   0  0  0  0  0  0  0  0  0  0  0  0
  -24.7286  -13.0844   21.5262 N   0  0  0  0  0  0  0  0  0  0  0  0
  -24.7386  -31.0174   22.3654 N   0  0  0  0  0  0  0  0  0  0  0  0
  -25.7126  -16.4404   23.0770 N   0  0  0  0  0  0  0  0  0  0  0  0
  -25.4510  -18.3307   21.6350 N   0  0  0  0  0  0  0  0  0  0  0  0
  -22.4623  -12.4408   21.7711 N   0  0  0  0  0  0  0  0  0  0  0  0
  -24.0487   -9.5241   18.7097 N   0  0  0  0  0  0  0  0  0  0  0  0
  -23.3920  -32.7496   19.5519 N   0  0  0  0  0  0  0  0  0  0  0  0
  -24.9753  -31.2344   25.7352 N   0  0  0  0  0  0  0  0  0  0  0  0
  -24.7609  -28.0993   27.5220 N   0  3  0  0  0  0  0  0  0  0  0  0
  -22.1856  -10.1585   19.8865 O   0  0  0  0  0  0  0  0  0  0  0  0
  -25.5776  -32.2350   20.1688 O   0  0  0  0  0  0  0  0  0  0  0  0
  -23.3717  -32.3912   23.6618 O   0  0  0  0  0  0  0  0  0  0  0  0
  -26.4672  -29.4592   25.7456 O   0  0  0  0  0  0  0  0  0  0  0  0
  -24.4434  -18.2589   23.7073 O   0  0  0  0  0  0  0  0  0  0  0  0
  -29.2506   -9.3377   16.7247 O   0  0  0  0  0  0  0  0  0  0  0  0
  -27.4839  -22.2049   18.1901 O   0  0  0  0  0  0  0  0  0  0  0  0
  -28.4808  -26.8277   19.7904 O   0  0  0  0  0  0  0  0  0  1  0  0
  -34.2581   -8.2892   18.7813 F   0  0  0  0  0  0  0  0  0  0  0  0
  -30.8479  -11.3818   17.6802 F   0  0  0  0  0  0  0  0  0  0  0  0
  1  2  1  0  0  0  0
  1  5  2  0  0  0  0
  2  6  2  0  0  0  0
  3  8  2  0  0  0  0
  3 17  1  0  0  0  0
  4  9  1  0  0  0  0
  4 17  2  0  0  0  0
  5 19  1  0  0  0  0
  6 21  1  0  0  0  0
  7 10  2  0  0  0  0
  7 20  1  0  0  0  0
  8 26  1  0  0  0  0
  9 26  2  0  0  0  0
 10 27  1  0  0  0  0
 11 12  2  0  0  0  0
 11 28  1  0  0  0  0
 12 30  1  0  0  0  0
 13 22  2  0  0  0  0
 13 25  1  0  0  0  0
 14 23  1  0  0  0  0
 14 27  2  0  0  0  0
 15 24  1  0  0  0  0
 15 29  2  0  0  0  0
 16 30  2  0  0  0  0
 16 31  1  0  0  0  0
 17 32  1  0  0  0  0
 18 32  1  0  0  0  0
 18 33  2  0  0  0  0
 18 34  1  0  0  0  0
 19 21  2  0  0  0  0
 19 39  1  0  0  0  0
 20 23  2  0  0  0  0
 20 40  1  0  0  0  0
 21 55  1  0  0  0  0
 22 29  1  0  0  0  0
 22 54  1  0  0  0  0
 23 41  1  0  0  0  0
 24 25  2  0  0  0  0
 24 58  1  0  0  0  0
 25 59  1  0  0  0  0
 26 85  1  0  0  0  0
 27 87  1  0  0  0  0
 28 31  2  0  0  0  0
 28 85  1  0  0  0  0
 29 86  1  0  0  0  0
 30 88  1  0  0  0  0
 31 89  1  0  0  0  0
 32 70  2  0  0  0  0
 33 71  1  0  0  0  0
 33 75  1  0  0  0  0
 34 76  1  0  0  0  0
 34 80  2  0  0  0  0
 35 56  1  0  0  0  0
 35 77  1  0  0  0  0
 35 81  2  0  0  0  0
 36 67  1  0  0  0  0
 36 72  1  0  0  0  0
 36 82  2  0  0  0  0
 37 68  1  0  0  0  0
 37 78  1  0  0  0  0
 37 83  2  0  0  0  0
 38 73  1  0  0  0  0
 38 74  1  0  0  0  0
 38 84  2  0  0  0  0
 39 42  1  0  0  0  0
 40 56  1  0  0  0  0
 41 72  1  0  0  0  0
 42 44  1  0  0  0  0
 43 45  1  0  0  0  0
 43 50  1  0  0  0  0
 44 55  1  0  0  0  0
 45 57  1  0  0  0  0
 46 47  1  0  0  0  0
 46 58  1  0  0  0  0
 47 58  1  0  0  0  0
 48 51  1  0  0  0  0
 48 54  1  0  0  0  0
 49 52  1  0  0  0  0
 49 54  1  0  0  0  0
 50 73  1  0  0  0  0
 51 74  1  0  0  0  0
 52 74  1  0  0  0  0
 53 57  1  0  0  0  0
 53 73  1  0  0  0  0
 55 77  1  0  0  0  0
 56 72  1  0  0  0  0
 57 71  1  0  0  0  0
 58 66  1  0  0  0  0
 60 68  1  0  0  0  0
 61 69  1  0  0  0  0
 62 69  1  0  0  0  0
 63 69  1  0  0  0  0
 64 79  1  0  0  0  0
 65 86  1  0  0  0  0
 66 87  1  0  0  0  0
 67 69  1  0  0  0  0
 67 78  1  0  0  0  0
 68 79  1  0  0  0  0
 70 71  1  0  0  0  0
M  CHG  1  79   1
M  ISO  4  38 100  66 101  74 100  87 101
M  END
> <Batch ID>
0158

> <Smiles>
CNC(C)C(=O)NC(C(=O)N1Cc2cc([101O:1][101CH2:1]C3(c4cc(OC)c(C5CC[100N:0]([100C:0](=O)N6CCCC(n7nc(-c8ccc(Oc9ccc(F)cc9F)cc8)c(C(N)=O)c7N)C6)CC5)cc4C)CC3)ccc2CC1C(=O)NC1CCCc2ccccc21)C(C)(C)C

> <Shape>
0.225

> <Color>
0.109

> <Negative vol penalty>
0.000

$$$$

  -OEChem-04052322043D

 92101  0     1  0  0  0  0  0999 V2000
  -18.5884  -22.5522   22.7500 C   0  0  0  0  0  0  0  0  0  0  0  0
  -19.9101  -22.4745   22.3228 C   0  0  0  0  0  0  0  0  0  0  0  0
  -26.2653  -12.7022   21.6973 C   0  0  0  0  0  0  0  0  0  0  0  0
  -25.5438  -13.8134   19.6770 C   0  0  0  0  0  0  0  0  0  0  0  0
  -17.8286  -23.6846   22.4595 C   0  0  0  0  0  0  0  0  0  0  0  0
  -20.4725  -23.5287   21.6040 C   0  0  0  0  0  0  0  0  0  0  0  0
  -26.7136  -26.8982   20.5987 C   0  0  0  0  0  0  0  0  0  0  0  0
  -25.0862  -11.9571   21.7087 C   0  0  0  0  0  0  0  0  0  0  0  0
  -24.3647  -13.0683   19.6883 C   0  0  0  0  0  0  0  0  0  0  0  0
  -27.5659  -27.3033   19.5723 C   0  0  0  0  0  0  0  0  0  0  0  0
  -23.8399   -9.2422   20.1247 C   0  0  0  0  0  0  0  0  0  0  0  0
  -23.9398   -7.8745   20.3793 C   0  0  0  0  0  0  0  0  0  0  0  0
  -26.1823  -29.2434   19.1973 C   0  0  0  0  0  0  0  0  0  0  0  0
  -28.9325  -24.6208   15.6917 C   0  0  0  0  0  0  0  0  0  0  0  0
  -30.9355  -23.8128   16.7743 C   0  0  0  0  0  0  0  0  0  0  0  0
  -22.5281   -8.1331   22.3229 C   0  0  0  0  0  0  0  0  0  0  0  0
  -26.4941  -13.6304   20.6816 C   0  0  0  0  0  0  0  0  0  0  0  0
  -28.9275  -14.0595   20.0475 C   0  0  0  0  0  0  0  0  0  0  0  0
  -18.3849  -24.7574   21.7451 C   0  0  0  0  0  0  0  0  0  0  0  0
  -25.5814  -27.6583   20.9253 C   0  0  0  0  0  0  0  0  0  0  0  0
  -19.7190  -24.6760   21.3026 C   0  0  0  0  0  0  0  0  0  0  0  0
  -25.3187  -28.8472   20.2299 C   0  0  0  0  0  0  0  0  0  0  0  0
  -29.7124  -25.3096   14.7628 C   0  0  0  0  0  0  0  0  0  0  0  0
  -31.1039  -25.2500   14.8396 C   0  0  0  0  0  0  0  0  0  0  0  0
  -29.5440  -23.8724   16.6975 C   0  0  0  0  0  0  0  0  0  0  0  0
  -24.1359  -12.1401   20.7042 C   0  0  0  0  0  0  0  0  0  0  0  0
  -27.2987  -28.4745   18.8695 C   0  0  0  0  0  0  0  0  0  0  0  0
  -23.0842  -10.0555   20.9693 C   0  0  0  0  0  0  0  0  0  0  0  0
  -31.7155  -24.5015   15.8454 C   0  0  0  0  0  0  0  0  0  0  0  0
  -23.2839   -7.3199   21.4783 C   0  0  0  0  0  0  0  0  0  0  0  0
  -22.4283   -9.5009   22.0683 C   0  0  0  0  0  0  0  0  0  0  0  0
  -27.7117  -14.4008   20.6696 C   0  0  0  0  0  0  0  0  0  0  0  0
  -29.7637  -15.1126   20.3271 C   0  0  0  0  0  0  0  0  0  0  0  0
  -29.2703  -12.8948   19.2849 C   0  0  0  0  0  0  0  0  0  0  0  0
  -22.4460  -27.1367   20.9006 C   0  0  0  0  0  0  0  0  0  0  0  0
  -22.3422  -30.0597   22.3032 C   0  0  0  0  0  0  0  0  0  0  0  0
  -23.8486  -33.0768   22.8274 C   0  0  0  0  0  0  0  0  0  0  0  0
  -28.7718  -20.8706   21.6359 C   0  0  0  0  0  0  0  0  0  0  0  0
  -17.5101  -25.9405   21.4141 C   0  0  0  0  0  0  0  0  0  0  0  0
  -24.6867  -27.2218   22.0529 C   0  0  0  0  0  0  0  0  0  0  0  0
  -24.1274  -29.7095   20.5552 C   0  0  0  0  0  0  0  0  0  0  0  0
  -18.2944  -27.1732   20.9718 C   0  0  0  0  0  0  0  0  0  0  0  0
  -30.5481  -18.5011   23.6125 C   0  0  0  0  0  0  0  0  0  0  0  0
  -19.3557  -26.7905   19.9451 C   0  0  0  0  0  0  0  0  0  0  0  0
  -30.1323  -17.1508   23.0263 C   0  0  0  0  0  0  0  0  0  0  0  0
  -26.9421  -22.0876   18.6076 C   0  0  0  0  0  0  0  0  0  0  0  0
  -29.3930  -19.5000   23.6036 C   0  0  0  0  0  0  0  0  0  0  0  0
  -27.3118  -23.1925   17.6181 C   0  0  0  0  0  0  0  0  0  0  0  0
  -28.3339  -18.3408   21.7041 C   0  0  0  0  0  0  0  0  0  0  0  0
  -29.3167  -22.3616   18.6894 C   0  0  0  0  0  0  0  0  0  0  0  0
  -20.3721  -25.8095   20.5418 C   0  0  1  0  0  0  0  0  0  0  0  0
  -23.2794  -27.8031   21.9583 C   0  0  1  0  0  0  0  0  0  0  0  0
  -29.4810  -17.3178   21.6402 C   0  0  2  0  0  0  0  0  0  0  0  0
  -28.1062  -22.1056   19.5887 C   0  0  2  0  0  0  0  0  0  0  0  0
  -32.8191  -25.0401   13.0045 C   0  0  0  0  0  0  0  0  0  0  0  0
  -32.8226  -27.0638   14.5077 C   0  0  0  0  0  0  0  0  0  0  0  0
  -23.5039  -35.2757   23.9864 C   0  0  0  0  0  0  0  0  0  0  0  0
  -20.3755  -30.8965   20.1256 C   0  0  0  0  0  0  0  0  0  0  0  0
  -20.8052  -33.2822   20.7515 C   0  0  0  0  0  0  0  0  0  0  0  0
  -19.8054  -31.7181   22.4178 C   0  0  0  0  0  0  0  0  0  0  0  0
  -26.2485  -32.6946   24.5165 C   0  0  0  0  0  0  0  0  0  0  0  0
  -33.6118  -23.6434   16.9957 C   0  0  0  0  0  0  0  0  0  0  0  0
  -29.0302  -26.1080   13.6899 C   0  0  0  0  0  0  0  0  0  0  0  0
  -29.0580  -27.6141   13.9301 C   0  0  0  0  0  0  0  0  0  0  0  0
  -28.3479  -29.3957   15.5302 C   0  0  0  0  0  0  0  0  0  0  0  0
  -27.5456  -29.6155   16.7976 C   0  0  0  0  0  0  0  0  0  1  0  0
  -31.9450  -25.9864   13.8464 C   0  0  0  0  0  0  0  0  0  0  0  0
  -22.2469  -31.4817   21.8052 C   0  0  1  0  0  0  0  0  0  0  0  0
  -24.0885  -33.8760   24.0955 C   0  0  2  0  0  0  0  0  0  0  0  0
  -20.8297  -31.8276   21.2674 C   0  0  0  0  0  0  0  0  0  0  0  0
  -27.7664  -15.5785   21.2973 N   0  0  0  0  0  0  0  0  0  0  0  0
  -29.0268  -15.9865   21.0710 N   0  0  0  0  0  0  0  0  0  0  0  0
  -28.7733  -23.1917   17.6157 N   0  0  3  0  0  0  0  0  0  0  0  0
  -23.2790  -29.2371   21.6617 N   0  0  0  0  0  0  0  0  0  0  0  0
  -28.8206  -19.6131   22.2599 N   0  0  0  0  0  0  0  0  0  0  0  0
  -31.0502  -15.3671   20.0067 N   0  0  0  0  0  0  0  0  0  0  0  0
  -28.2919  -11.9097   19.0934 N   0  0  0  0  0  0  0  0  0  0  0  0
  -21.3146  -26.5103   21.3875 N   0  0  0  0  0  0  0  0  0  0  0  0
  -22.6920  -32.3301   22.9054 N   0  0  0  0  0  0  0  0  0  0  0  0
  -28.2197  -20.8884   20.3609 N   0  0  0  0  0  0  0  0  0  0  0  0
  -25.5496  -33.9965   24.3632 N   0  3  0  0  0  0  0  0  0  0  0  0
  -28.3246  -27.9532   15.1795 N   0  3  0  0  0  0  0  0  0  0  0  0
  -30.4155  -12.7247   18.8019 O   0  0  0  0  0  0  0  0  0  0  0  0
  -22.8021  -27.1882   19.7292 O   0  0  0  0  0  0  0  0  0  0  0  0
  -21.6173  -29.6944   23.2320 O   0  0  0  0  0  0  0  0  0  0  0  0
  -24.6090  -33.1142   21.8625 O   0  0  0  0  0  0  0  0  0  0  0  0
  -29.1942  -21.9003   22.1729 O   0  0  0  0  0  0  0  0  0  0  0  0
  -22.9853  -11.4131   20.7148 O   0  0  0  0  0  0  0  0  0  0  0  0
  -33.0733  -24.4316   15.9363 O   0  0  0  0  0  0  0  0  0  0  0  0
  -28.1286  -28.8718   17.8668 O   0  0  0  0  0  0  0  0  0  1  0  0
  -23.3787   -6.0061   21.7218 F   0  0  0  0  0  0  0  0  0  0  0  0
  -21.6998  -10.2769   22.8825 F   0  0  0  0  0  0  0  0  0  0  0  0
  1  2  1  0  0  0  0
  1  5  2  0  0  0  0
  2  6  2  0  0  0  0
  3  8  2  0  0  0  0
  3 17  1  0  0  0  0
  4  9  1  0  0  0  0
  4 17  2  0  0  0  0
  5 19  1  0  0  0  0
  6 21  1  0  0  0  0
  7 10  2  0  0  0  0
  7 20  1  0  0  0  0
  8 26  1  0  0  0  0
  9 26  2  0  0  0  0
 10 27  1  0  0  0  0
 11 12  2  0  0  0  0
 11 28  1  0  0  0  0
 12 30  1  0  0  0  0
 13 22  1  0  0  0  0
 13 27  2  0  0  0  0
 14 23  1  0  0  0  0
 14 25  2  0  0  0  0
 15 25  1  0  0  0  0
 15 29  2  0  0  0  0
 16 30  2  0  0  0  0
 16 31  1  0  0  0  0
 17 32  1  0  0  0  0
 18 32  1  0  0  0  0
 18 33  2  0  0  0  0
 18 34  1  0  0  0  0
 19 21  2  0  0  0  0
 19 39  1  0  0  0  0
 20 22  2  0  0  0  0
 20 40  1  0  0  0  0
 21 51  1  0  0  0  0
 22 41  1  0  0  0  0
 23 24  2  0  0  0  0
 23 63  1  0  0  0  0
 24 29  1  0  0  0  0
 24 67  1  0  0  0  0
 25 73  1  0  0  0  0
 26 88  1  0  0  0  0
 27 90  1  0  0  0  0
 28 31  2  0  0  0  0
 28 88  1  0  0  0  0
 29 89  1  0  0  0  0
 30 91  1  0  0  0  0
 31 92  1  0  0  0  0
 32 71  2  0  0  0  0
 33 72  1  0  0  0  0
 33 76  1  0  0  0  0
 34 77  1  0  0  0  0
 34 83  2  0  0  0  0
 35 52  1  0  0  0  0
 35 78  1  0  0  0  0
 35 84  2  0  0  0  0
 36 68  1  0  0  0  0
 36 74  1  0  0  0  0
 36 85  2  0  0  0  0
 37 69  1  0  0  0  0
 37 79  1  0  0  0  0
 37 86  2  0  0  0  0
 38 75  1  0  0  0  0
 38 80  1  0  0  0  0
 38 87  2  0  0  0  0
 39 42  1  0  0  0  0
 40 52  1  0  0  0  0
 41 74  1  0  0  0  0
 42 44  1  0  0  0  0
 43 45  1  0  0  0  0
 43 47  1  0  0  0  0
 44 51  1  0  0  0  0
 45 53  1  0  0  0  0
 46 48  1  0  0  0  0
 46 54  1  0  0  0  0
 47 75  1  0  0  0  0
 48 73  1  0  0  0  0
 49 53  1  0  0  0  0
 49 75  1  0  0  0  0
 50 54  1  0  0  0  0
 50 73  1  0  0  0  0
 51 78  1  0  0  0  0
 52 74  1  0  0  0  0
 53 72  1  0  0  0  0
 54 80  1  0  0  0  0
 55 67  1  0  0  0  0
 56 67  1  0  0  0  0
 57 69  1  0  0  0  0
 58 70  1  0  0  0  0
 59 70  1  0  0  0  0
 60 70  1  0  0  0  0
 61 81  1  0  0  0  0
 62 89  1  0  0  0  0
 63 64  1  0  0  0  0
 64 82  1  0  0  0  0
 65 66  1  0  0  0  0
 65 82  1  0  0  0  0
 66 90  1  0  0  0  0
 68 70  1  0  0  0  0
 68 79  1  0  0  0  0
 69 81  1  0  0  0  0
 71 72  1  0  0  0  0
M  CHG  2  81   1  82   1
M  ISO  4  38 100  66 101  80 100  90 101
M  END
> <Batch ID>
0158

> <Smiles>
CNC(C)C(=O)NC(C(=O)N1Cc2cc([101O:1][101CH2:1]CNCCc3cc(N4CCC([100NH:0][100C:0](=O)N5CCCC(n6nc(-c7ccc(Oc8ccc(F)cc8F)cc7)c(C(N)=O)c6N)C5)C4)cc(OC)c3C(C)C)ccc2CC1C(=O)NC1CCCc2ccccc21)C(C)(C)C

> <Shape>
0.273

> <Color>
0.071

> <Negative vol penalty>
0.000

$$$$

  -OEChem-04052322043D

 94104  0     1  0  0  0  0  0999 V2000
  -16.8634  -27.1712   21.6020 C   0  0  0  0  0  0  0  0  0  0  0  0
  -18.2128  -27.0807   21.9283 C   0  0  0  0  0  0  0  0  0  0  0  0
  -23.1465  -10.6817   21.1329 C   0  0  0  0  0  0  0  0  0  0  0  0
  -24.7588   -8.9545   21.6371 C   0  0  0  0  0  0  0  0  0  0  0  0
  -16.4401  -28.0865   20.6393 C   0  0  0  0  0  0  0  0  0  0  0  0
  -19.1398  -27.9048   21.2911 C   0  0  0  0  0  0  0  0  0  0  0  0
  -22.4653  -29.9466   24.5186 C   0  0  0  0  0  0  0  0  0  0  0  0
  -22.1184   -9.7416   21.1999 C   0  0  0  0  0  0  0  0  0  0  0  0
  -23.7306   -8.0143   21.7042 C   0  0  0  0  0  0  0  0  0  0  0  0
  -23.5057  -29.1310   24.9617 C   0  0  0  0  0  0  0  0  0  0  0  0
  -21.3601   -7.0719   23.9207 C   0  0  0  0  0  0  0  0  0  0  0  0
  -21.3733   -6.1744   24.9883 C   0  0  0  0  0  0  0  0  0  0  0  0
  -28.4731  -20.6656   19.3513 C   0  0  0  0  0  0  0  0  0  0  0  0
  -29.7554  -19.6548   21.6059 C   0  0  0  0  0  0  0  0  0  0  0  0
  -24.9872  -30.1618   23.3611 C   0  0  0  0  0  0  0  0  0  0  0  0
  -21.5060   -4.3287   23.4350 C   0  0  0  0  0  0  0  0  0  0  0  0
  -24.4668  -10.2882   21.3515 C   0  0  0  0  0  0  0  0  0  0  0  0
  -26.0372  -12.0405   22.3367 C   0  0  0  0  0  0  0  0  0  0  0  0
  -17.3611  -28.9290   19.9970 C   0  0  0  0  0  0  0  0  0  0  0  0
  -22.6757  -30.8698   23.4843 C   0  0  0  0  0  0  0  0  0  0  0  0
  -18.7285  -28.8313   20.3179 C   0  0  0  0  0  0  0  0  0  0  0  0
  -28.6661  -19.2791   19.4672 C   0  0  0  0  0  0  0  0  0  0  0  0
  -29.3330  -18.7796   20.5962 C   0  0  0  0  0  0  0  0  0  0  0  0
  -23.9486  -30.9897   22.9085 C   0  0  0  0  0  0  0  0  0  0  0  0
  -28.9111  -21.5332   20.3520 C   0  0  0  0  0  0  0  0  0  0  0  0
  -22.4104   -8.4079   21.4856 C   0  0  0  0  0  0  0  0  0  0  0  0
  -24.7661  -29.2365   24.3809 C   0  0  0  0  0  0  0  0  0  0  0  0
  -21.4197   -6.5978   22.6101 C   0  0  0  0  0  0  0  0  0  0  0  0
  -29.5464  -21.0271   21.4820 C   0  0  0  0  0  0  0  0  0  0  0  0
  -21.4462   -4.8028   24.7455 C   0  0  0  0  0  0  0  0  0  0  0  0
  -21.4927   -5.2262   22.3673 C   0  0  0  0  0  0  0  0  0  0  0  0
  -25.5294  -11.2588   21.2818 C   0  0  0  0  0  0  0  0  0  0  0  0
  -27.0282  -12.7956   21.7584 C   0  0  0  0  0  0  0  0  0  0  0  0
  -25.6480  -12.0805   23.7161 C   0  0  0  0  0  0  0  0  0  0  0  0
  -21.4896  -31.2745   20.5631 C   0  0  0  0  0  0  0  0  0  0  0  0
  -23.2559  -33.9940   20.6452 C   0  0  0  0  0  0  0  0  0  0  0  0
  -25.9124  -35.6847   21.9609 C   0  0  0  0  0  0  0  0  0  0  0  0
  -28.3815  -16.1063   17.3430 C   0  0  0  0  0  0  0  0  0  0  0  0
  -16.8622  -29.8697   18.9289 C   0  0  0  0  0  0  0  0  0  0  0  0
  -21.5499  -31.7610   23.0361 C   0  0  0  0  0  0  0  0  0  0  0  0
  -29.5803  -17.3044   20.7179 C   0  0  0  0  0  0  0  0  0  0  0  0
  -24.2315  -31.9792   21.8089 C   0  0  0  0  0  0  0  0  0  0  0  0
  -17.8599  -30.9679   18.5700 C   0  0  0  0  0  0  0  0  0  0  0  0
  -29.2081  -12.4899   17.2152 C   0  0  0  0  0  0  0  0  0  0  0  0
  -19.2540  -30.3800   18.3759 C   0  0  0  0  0  0  0  0  0  0  0  0
  -28.3003  -11.9101   18.2988 C   0  0  0  0  0  0  0  0  0  0  0  0
  -25.8800  -25.2734   21.3409 C   0  0  0  0  0  0  0  0  0  0  0  0
  -28.3376  -25.7900   21.6499 C   0  0  0  0  0  0  0  0  0  0  0  0
  -28.6242  -13.7615   16.6078 C   0  0  0  0  0  0  0  0  0  0  0  0
  -27.3855  -14.2303   18.6996 C   0  0  0  0  0  0  0  0  0  0  0  0
  -25.7151  -25.2012   22.8545 C   0  0  0  0  0  0  0  0  0  0  0  0
  -28.1532  -25.7139   23.1611 C   0  0  0  0  0  0  0  0  0  0  0  0
  -19.7612  -29.7254   19.6666 C   0  0  1  0  0  0  0  0  0  0  0  0
  -28.1406  -18.3493   18.3856 C   0  0  2  0  0  0  0  0  0  0  0  0
  -21.7452  -32.3065   21.6249 C   0  0  1  0  0  0  0  0  0  0  0  0
  -27.9688  -12.9728   19.3606 C   0  0  1  0  0  0  0  0  0  0  0  0
  -27.3039  -24.9741   20.8756 C   0  0  0  0  0  0  0  0  0  0  0  0
  -29.7950  -16.6642   19.3446 C   0  0  2  0  0  0  0  0  0  0  0  0
  -26.6043  -18.3159   18.4592 C   0  0  0  0  0  0  0  0  0  0  0  0
  -31.1271  -17.0803   18.7012 C   0  0  0  0  0  0  0  0  0  0  0  0
  -27.1268  -37.8751   21.8039 C   0  0  0  0  0  0  0  0  0  0  0  0
  -24.5315  -33.0960   18.0230 C   0  0  0  0  0  0  0  0  0  0  0  0
  -26.3466  -34.7762   18.4113 C   0  0  0  0  0  0  0  0  0  0  0  0
  -23.9859  -35.5340   18.1365 C   0  0  0  0  0  0  0  0  0  0  0  0
  -25.3594  -36.3271   24.7965 C   0  0  0  0  0  0  0  0  0  0  0  0
  -30.6146  -21.2539   23.5946 C   0  0  0  0  0  0  0  0  0  0  0  0
  -28.6834  -23.0007   20.1964 C   0  0  0  0  0  0  0  0  0  0  0  0
  -26.5351  -26.1617   25.0041 C   0  0  0  0  0  0  0  0  0  0  0  0
  -25.4338  -27.1551   25.3177 C   0  0  0  0  0  0  0  0  0  1  0  0
  -24.6709  -34.3615   20.2691 C   0  0  1  0  0  0  0  0  0  0  0  0
  -26.0355  -37.0919   22.5169 C   0  0  2  0  0  0  0  0  0  0  0  0
  -24.8782  -34.4218   18.7293 C   0  0  0  0  0  0  0  0  0  0  0  0
  -26.1467  -11.4955   20.1212 N   0  0  0  0  0  0  0  0  0  0  0  0
  -27.0525  -12.4345   20.4434 N   0  0  0  0  0  0  0  0  0  0  0  0
  -23.0967  -32.8238   21.4009 N   0  0  0  0  0  0  0  0  0  0  0  0
  -28.2689  -14.7364   17.6382 N   0  0  0  0  0  0  0  0  0  0  0  0
  -28.6653  -16.9602   18.4343 N   0  0  0  0  0  0  0  0  0  0  0  0
  -27.8723  -13.7265   22.2515 N   0  0  0  0  0  0  0  0  0  0  0  0
  -24.6118  -11.2388   24.1426 N   0  0  0  0  0  0  0  0  0  0  0  0
  -20.2185  -30.7336   20.5987 N   0  0  0  0  0  0  0  0  0  0  0  0
  -24.9657  -35.6116   20.9611 N   0  0  0  0  0  0  0  0  0  0  0  0
  -26.7360  -26.0968   23.5149 N   0  3  0  0  0  0  0  0  0  0  0  0
  -27.5865  -23.5212   21.0572 N   0  3  0  0  0  0  0  0  0  0  0  0
  -26.3619  -37.0479   23.9703 N   0  3  0  0  0  0  0  0  0  0  0  0
  -26.1917  -12.8521   24.5423 O   0  0  0  0  0  0  0  0  0  0  0  0
  -22.3793  -30.9910   19.7695 O   0  0  0  0  0  0  0  0  0  0  0  0
  -22.3266  -34.7224   20.2880 O   0  0  0  0  0  0  0  0  0  0  0  0
  -26.5911  -34.7452   22.3699 O   0  0  0  0  0  0  0  0  0  0  0  0
  -28.2305  -16.5410   16.1952 O   0  0  0  0  0  0  0  0  0  0  0  0
  -21.4073   -7.4902   21.5513 O   0  0  0  0  0  0  0  0  0  0  0  0
  -29.9737  -21.8584   22.4730 O   0  0  0  0  0  0  0  0  0  0  0  0
  -25.7905  -28.4355   24.8141 O   0  0  0  0  0  0  0  0  0  1  0  0
  -21.4605   -3.9411   25.7709 F   0  0  0  0  0  0  0  0  0  0  0  0
  -21.5515   -4.7649   21.1105 F   0  0  0  0  0  0  0  0  0  0  0  0
  1  2  1  0  0  0  0
  1  5  2  0  0  0  0
  2  6  2  0  0  0  0
  3  8  2  0  0  0  0
  3 17  1  0  0  0  0
  4  9  1  0  0  0  0
  4 17  2  0  0  0  0
  5 19  1  0  0  0  0
  6 21  1  0  0  0  0
  7 10  2  0  0  0  0
  7 20  1  0  0  0  0
  8 26  1  0  0  0  0
  9 26  2  0  0  0  0
 10 27  1  0  0  0  0
 11 12  2  0  0  0  0
 11 28  1  0  0  0  0
 12 30  1  0  0  0  0
 13 22  2  0  0  0  0
 13 25  1  0  0  0  0
 14 23  2  0  0  0  0
 14 29  1  0  0  0  0
 15 24  1  0  0  0  0
 15 27  2  0  0  0  0
 16 30  2  0  0  0  0
 16 31  1  0  0  0  0
 17 32  1  0  0  0  0
 18 32  1  0  0  0  0
 18 33  2  0  0  0  0
 18 34  1  0  0  0  0
 19 21  2  0  0  0  0
 19 39  1  0  0  0  0
 20 24  2  0  0  0  0
 20 40  1  0  0  0  0
 21 53  1  0  0  0  0
 22 23  1  0  0  0  0
 22 54  1  0  0  0  0
 23 41  1  0  0  0  0
 24 42  1  0  0  0  0
 25 29  2  0  0  0  0
 25 67  1  0  0  0  0
 26 90  1  0  0  0  0
 27 92  1  0  0  0  0
 28 31  2  0  0  0  0
 28 90  1  0  0  0  0
 29 91  1  0  0  0  0
 30 93  1  0  0  0  0
 31 94  1  0  0  0  0
 32 73  2  0  0  0  0
 33 74  1  0  0  0  0
 33 78  1  0  0  0  0
 34 79  1  0  0  0  0
 34 85  2  0  0  0  0
 35 55  1  0  0  0  0
 35 80  1  0  0  0  0
 35 86  2  0  0  0  0
 36 70  1  0  0  0  0
 36 75  1  0  0  0  0
 36 87  2  0  0  0  0
 37 71  1  0  0  0  0
 37 81  1  0  0  0  0
 37 88  2  0  0  0  0
 38 76  1  0  0  0  0
 38 77  1  0  0  0  0
 38 89  2  0  0  0  0
 39 43  1  0  0  0  0
 40 55  1  0  0  0  0
 41 58  1  0  0  0  0
 42 75  1  0  0  0  0
 43 45  1  0  0  0  0
 44 46  1  0  0  0  0
 44 49  1  0  0  0  0
 45 53  1  0  0  0  0
 46 56  1  0  0  0  0
 47 51  1  0  0  0  0
 47 57  1  0  0  0  0
 48 52  1  0  0  0  0
 48 57  1  0  0  0  0
 49 76  1  0  0  0  0
 50 56  1  0  0  0  0
 50 76  1  0  0  0  0
 51 82  1  0  0  0  0
 52 82  1  0  0  0  0
 53 80  1  0  0  0  0
 54 59  1  0  0  0  0
 54 77  1  0  0  0  0
 55 75  1  0  0  0  0
 56 74  1  0  0  0  0
 57 83  1  0  0  0  0
 58 60  1  0  0  0  0
 58 77  1  0  0  0  0
 61 71  1  0  0  0  0
 62 72  1  0  0  0  0
 63 72  1  0  0  0  0
 64 72  1  0  0  0  0
 65 84  1  0  0  0  0
 66 91  1  0  0  0  0
 67 83  1  0  0  0  0
 68 69  1  0  0  0  0
 68 82  1  0  0  0  0
 69 92  1  0  0  0  0
 70 72  1  0  0  0  0
 70 81  1  0  0  0  0
 71 84  1  0  0  0  0
 73 74  1  0  0  0  0
M  CHG  3  82   1  83   1  84   1
M  ISO  4  38 100  69 101  77 100  92 101
M  END
> <Batch ID>
0158

> <Smiles>
CNC(C)C(=O)NC(C(=O)N1Cc2cc([101O:1][101CH2:1]CN3CCC(NCc4cc5c(cc4OC)CC(C)[100N:0]([100C:0](=O)N4CCCC(n6nc(-c7ccc(Oc8ccc(F)cc8F)cc7)c(C(N)=O)c6N)C4)C5C)CC3)ccc2CC1C(=O)NC1CCCc2ccccc21)C(C)(C)C

> <Shape>
0.268

> <Color>
0.110

> <Negative vol penalty>
0.000

$$$$

  -OEChem-04052322043D

 88 97  0     1  0  0  0  0  0999 V2000
  -27.0725  -37.9738   19.1303 C   0  0  0  0  0  0  0  0  0  0  0  0
  -27.8324  -36.8093   19.1747 C   0  0  0  0  0  0  0  0  0  0  0  0
  -24.5910   -9.6308   22.5198 C   0  0  0  0  0  0  0  0  0  0  0  0
  -24.6056   -9.3249   20.1233 C   0  0  0  0  0  0  0  0  0  0  0  0
  -25.9442  -38.0997   19.9395 C   0  0  0  0  0  0  0  0  0  0  0  0
  -27.4651  -35.7705   20.0293 C   0  0  0  0  0  0  0  0  0  0  0  0
  -27.5604  -28.6225   20.4908 C   0  0  0  0  0  0  0  0  0  0  0  0
  -24.3988   -8.2602   22.6936 C   0  0  0  0  0  0  0  0  0  0  0  0
  -24.4134   -7.9543   20.2971 C   0  0  0  0  0  0  0  0  0  0  0  0
  -27.9673  -27.6041   21.3516 C   0  0  0  0  0  0  0  0  0  0  0  0
  -21.8385   -6.0613   22.5085 C   0  0  0  0  0  0  0  0  0  0  0  0
  -20.8781   -5.6546   23.4346 C   0  0  0  0  0  0  0  0  0  0  0  0
  -28.8823  -23.2090   23.6326 C   0  0  0  0  0  0  0  0  0  0  0  0
  -25.9535  -27.9016   22.6459 C   0  0  0  0  0  0  0  0  0  0  0  0
  -29.6620  -23.8392   26.2360 C   0  0  0  0  0  0  0  0  0  0  0  0
  -22.5809   -4.4840   24.6866 C   0  0  0  0  0  0  0  0  0  0  0  0
  -24.6944  -10.1631   21.2346 C   0  0  0  0  0  0  0  0  0  0  0  0
  -24.0431  -12.6172   21.4818 C   0  0  0  0  0  0  0  0  0  0  0  0
  -25.5573  -37.0581   20.7974 C   0  0  0  0  0  0  0  0  0  0  0  0
  -26.3500  -29.2966   20.7077 C   0  0  0  0  0  0  0  0  0  0  0  0
  -26.3313  -35.8832   20.8518 C   0  0  0  0  0  0  0  0  0  0  0  0
  -29.1035  -22.1910   24.5601 C   0  0  0  0  0  0  0  0  0  0  0  0
  -25.5322  -28.9264   21.7849 C   0  0  0  0  0  0  0  0  0  0  0  0
  -29.0511  -24.5421   24.0067 C   0  0  0  0  0  0  0  0  0  0  0  0
  -29.4933  -22.5061   25.8618 C   0  0  0  0  0  0  0  0  0  0  0  0
  -29.4409  -24.8572   25.3084 C   0  0  0  0  0  0  0  0  0  0  0  0
  -24.3100   -7.4220   21.5823 C   0  0  0  0  0  0  0  0  0  0  0  0
  -27.1652  -27.2454   22.4310 C   0  0  0  0  0  0  0  0  0  0  0  0
  -23.1702   -5.6793   22.6714 C   0  0  0  0  0  0  0  0  0  0  0  0
  -21.2492   -4.8660   24.5237 C   0  0  0  0  0  0  0  0  0  0  0  0
  -23.5413   -4.8907   23.7604 C   0  0  0  0  0  0  0  0  0  0  0  0
  -24.8923  -11.5789   21.0544 C   0  0  0  0  0  0  0  0  0  0  0  0
  -24.6731  -13.7667   21.0716 C   0  0  0  0  0  0  0  0  0  0  0  0
  -22.7964  -12.5487   22.1865 C   0  0  0  0  0  0  0  0  0  0  0  0
  -25.5391  -32.3061   21.3313 C   0  0  0  0  0  0  0  0  0  0  0  0
  -22.5257  -31.1541   20.9934 C   0  0  0  0  0  0  0  0  0  0  0  0
  -20.4218  -28.4690   21.0974 C   0  0  0  0  0  0  0  0  0  0  0  0
  -29.2899  -16.8515   20.5108 C   0  0  0  0  0  0  0  0  0  0  0  0
  -24.3569  -37.2592   21.6880 C   0  0  0  0  0  0  0  0  0  0  0  0
  -25.9126  -30.3748   19.7545 C   0  0  0  0  0  0  0  0  0  0  0  0
  -24.2141  -29.6053   22.0497 C   0  0  0  0  0  0  0  0  0  0  0  0
  -23.8220  -35.9629   22.2912 C   0  0  0  0  0  0  0  0  0  0  0  0
  -28.6234  -14.4339   17.9835 C   0  0  0  0  0  0  0  0  0  0  0  0
  -24.9655  -35.1237   22.8526 C   0  0  0  0  0  0  0  0  0  0  0  0
  -30.2132  -20.1667   23.5732 C   0  0  0  0  0  0  0  0  0  0  0  0
  -27.5282  -13.5581   18.5948 C   0  0  0  0  0  0  0  0  0  0  0  0
  -29.9881  -18.7517   23.0539 C   0  0  0  0  0  0  0  0  0  0  0  0
  -29.6321  -14.8919   19.0345 C   0  0  0  0  0  0  0  0  0  0  0  0
  -27.9468  -14.6844   20.8207 C   0  0  0  0  0  0  0  0  0  0  0  0
  -25.9509  -34.7244   21.7476 C   0  0  1  0  0  0  0  0  0  0  0  0
  -28.9132  -20.7508   24.1309 C   0  0  2  0  0  0  0  0  0  0  0  0
  -24.9054  -31.3424   20.3684 C   0  0  1  0  0  0  0  0  0  0  0  0
  -26.8746  -14.2439   19.8095 C   0  0  2  0  0  0  0  0  0  0  0  0
  -28.8241  -18.7334   22.0602 C   0  0  2  0  0  0  0  0  0  0  0  0
  -27.5500  -19.3957   22.6414 C   0  0  0  0  0  0  0  0  0  0  0  0
  -29.7351  -21.4331   26.8722 C   0  0  0  0  0  0  0  0  0  0  0  0
  -29.6286  -26.2772   25.7316 C   0  0  0  0  0  0  0  0  0  0  0  0
  -26.8639  -18.5561   23.7328 C   0  0  0  0  0  0  0  0  0  0  0  0
  -26.5279  -19.6471   21.5199 C   0  0  0  0  0  0  0  0  0  0  0  0
  -18.0076  -27.8458   20.8130 C   0  0  0  0  0  0  0  0  0  0  0  0
  -21.8994  -32.3392   23.7344 C   0  0  0  0  0  0  0  0  0  0  0  0
  -19.8487  -30.9049   23.8087 C   0  0  0  0  0  0  0  0  0  0  0  0
  -20.0927  -32.6380   22.0312 C   0  0  0  0  0  0  0  0  0  0  0  0
  -21.0359  -26.6538   18.8420 C   0  0  0  0  0  0  0  0  0  0  0  0
  -28.8083  -25.6200   22.9915 C   0  0  0  0  0  0  0  0  0  1  0  0
  -21.5042  -30.5433   21.9221 C   0  0  1  0  0  0  0  0  0  0  0  0
  -19.3585  -27.9843   20.1284 C   0  0  2  0  0  0  0  0  0  0  0  0
  -20.8619  -31.5947   22.8705 C   0  0  0  0  0  0  0  0  0  0  0  0
  -25.9788  -12.0290   20.4212 N   0  0  0  0  0  0  0  0  0  0  0  0
  -25.8166  -13.3628   20.4476 N   0  0  0  0  0  0  0  0  0  0  0  0
  -23.8331  -30.6576   21.0931 N   0  0  0  0  0  0  0  0  0  0  0  0
  -28.9479  -15.5354   20.1586 N   0  0  0  0  0  0  0  0  0  0  0  0
  -24.3548  -15.0735   21.1875 N   0  0  0  0  0  0  0  0  0  0  0  0
  -21.6119  -12.4647   21.4422 N   0  0  0  0  0  0  0  0  0  0  0  0
  -25.4154  -33.6323   20.9634 N   0  0  0  0  0  0  0  0  0  0  0  0
  -20.5479  -29.8419   21.0725 N   0  0  0  0  0  0  0  0  0  0  0  0
  -28.5891  -17.3886   21.5837 N   0  0  0  0  0  0  0  0  0  0  0  0
  -19.7377  -26.6581   19.5642 N   0  3  0  0  0  0  0  0  0  0  0  0
  -22.7337  -12.5782   23.4390 O   0  0  0  0  0  0  0  0  0  0  0  0
  -26.0976  -31.8783   22.3347 O   0  0  0  0  0  0  0  0  0  0  0  0
  -22.1749  -32.0342   20.2034 O   0  0  0  0  0  0  0  0  0  0  0  0
  -21.0726  -27.7063   21.8082 O   0  0  0  0  0  0  0  0  0  0  0  0
  -30.1519  -17.5017   19.9099 O   0  0  0  0  0  0  0  0  0  0  0  0
  -27.8691  -20.7029   23.1535 O   0  0  0  0  0  0  0  0  0  0  0  0
  -24.1227   -6.0845   21.7515 O   0  0  0  0  0  0  0  0  0  0  0  0
  -27.5604  -26.2522   23.2732 O   0  0  0  0  0  0  0  0  0  1  0  0
  -20.3270   -4.4769   25.4138 F   0  0  0  0  0  0  0  0  0  0  0  0
  -24.8193   -4.5215   23.9228 F   0  0  0  0  0  0  0  0  0  0  0  0
  1  2  1  0  0  0  0
  1  5  2  0  0  0  0
  2  6  2  0  0  0  0
  3  8  2  0  0  0  0
  3 17  1  0  0  0  0
  4  9  1  0  0  0  0
  4 17  2  0  0  0  0
  5 19  1  0  0  0  0
  6 21  1  0  0  0  0
  7 10  2  0  0  0  0
  7 20  1  0  0  0  0
  8 27  1  0  0  0  0
  9 27  2  0  0  0  0
 10 28  1  0  0  0  0
 11 12  2  0  0  0  0
 11 29  1  0  0  0  0
 12 30  1  0  0  0  0
 13 22  2  0  0  0  0
 13 24  1  0  0  0  0
 14 23  1  0  0  0  0
 14 28  2  0  0  0  0
 15 25  2  0  0  0  0
 15 26  1  0  0  0  0
 16 30  2  0  0  0  0
 16 31  1  0  0  0  0
 17 32  1  0  0  0  0
 18 32  1  0  0  0  0
 18 33  2  0  0  0  0
 18 34  1  0  0  0  0
 19 21  2  0  0  0  0
 19 39  1  0  0  0  0
 20 23  2  0  0  0  0
 20 40  1  0  0  0  0
 21 50  1  0  0  0  0
 22 25  1  0  0  0  0
 22 51  1  0  0  0  0
 23 41  1  0  0  0  0
 24 26  2  0  0  0  0
 24 65  1  0  0  0  0
 25 56  1  0  0  0  0
 26 57  1  0  0  0  0
 27 85  1  0  0  0  0
 28 86  1  0  0  0  0
 29 31  2  0  0  0  0
 29 85  1  0  0  0  0
 30 87  1  0  0  0  0
 31 88  1  0  0  0  0
 32 69  2  0  0  0  0
 33 70  1  0  0  0  0
 33 73  1  0  0  0  0
 34 74  1  0  0  0  0
 34 79  2  0  0  0  0
 35 52  1  0  0  0  0
 35 75  1  0  0  0  0
 35 80  2  0  0  0  0
 36 66  1  0  0  0  0
 36 71  1  0  0  0  0
 36 81  2  0  0  0  0
 37 67  1  0  0  0  0
 37 76  1  0  0  0  0
 37 82  2  0  0  0  0
 38 72  1  0  0  0  0
 38 77  1  0  0  0  0
 38 83  2  0  0  0  0
 39 42  1  0  0  0  0
 40 52  1  0  0  0  0
 41 71  1  0  0  0  0
 42 44  1  0  0  0  0
 43 46  1  0  0  0  0
 43 48  1  0  0  0  0
 44 50  1  0  0  0  0
 45 47  1  0  0  0  0
 45 51  1  0  0  0  0
 46 53  1  0  0  0  0
 47 54  1  0  0  0  0
 48 72  1  0  0  0  0
 49 53  1  0  0  0  0
 49 72  1  0  0  0  0
 50 75  1  0  0  0  0
 51 84  1  0  0  0  0
 52 71  1  0  0  0  0
 53 70  1  0  0  0  0
 54 55  1  0  0  0  0
 54 77  1  0  0  0  0
 55 58  1  0  0  0  0
 55 59  1  0  0  0  0
 55 84  1  0  0  0  0
 60 67  1  0  0  0  0
 61 68  1  0  0  0  0
 62 68  1  0  0  0  0
 63 68  1  0  0  0  0
 64 78  1  0  0  0  0
 65 86  1  0  0  0  0
 66 68  1  0  0  0  0
 66 76  1  0  0  0  0
 67 78  1  0  0  0  0
 69 70  1  0  0  0  0
M  CHG  1  78   1
M  ISO  4  38 100  65 101  77 100  86 101
M  END
> <Batch ID>
0158

> <Smiles>
CNC(C)C(=O)NC(C(=O)N1Cc2cc([101O:1][101CH2:1]c3cc(C4CCC([100NH:0][100C:0](=O)N5CCCC(n6nc(-c7ccc(Oc8ccc(F)cc8F)cc7)c(C(N)=O)c6N)C5)C(C)(C)O4)c(C)cc3C)ccc2CC1C(=O)NC1CCCc2ccccc21)C(C)(C)C

> <Shape>
0.241

> <Color>
0.106

> <Negative vol penalty>
0.000

$$$$

  -OEChem-04052322043D

 88 97  0     1  0  0  0  0  0999 V2000
  -30.0961  -33.8438   24.9779 C   0  0  0  0  0  0  0  0  0  0  0  0
  -29.6637  -32.5675   24.6321 C   0  0  0  0  0  0  0  0  0  0  0  0
  -24.2781  -10.3590   22.9911 C   0  0  0  0  0  0  0  0  0  0  0  0
  -24.3585   -8.7325   21.2065 C   0  0  0  0  0  0  0  0  0  0  0  0
  -29.1645  -34.8522   25.2210 C   0  0  0  0  0  0  0  0  0  0  0  0
  -28.2992  -32.2987   24.5302 C   0  0  0  0  0  0  0  0  0  0  0  0
  -27.1520  -29.6119   20.3938 C   0  0  0  0  0  0  0  0  0  0  0  0
  -23.1482   -9.7299   23.5136 C   0  0  0  0  0  0  0  0  0  0  0  0
  -23.2286   -8.1033   21.7290 C   0  0  0  0  0  0  0  0  0  0  0  0
  -27.4117  -28.2426   20.4317 C   0  0  0  0  0  0  0  0  0  0  0  0
  -22.5097   -5.9671   24.2471 C   0  0  0  0  0  0  0  0  0  0  0  0
  -22.5270   -4.5751   24.3343 C   0  0  0  0  0  0  0  0  0  0  0  0
  -25.9306  -21.4610   20.2084 C   0  0  0  0  0  0  0  0  0  0  0  0
  -25.0834  -27.8202   20.9007 C   0  0  0  0  0  0  0  0  0  0  0  0
  -26.9568  -23.3625   21.9730 C   0  0  0  0  0  0  0  0  0  0  0  0
  -20.5977   -4.4602   22.8846 C   0  0  0  0  0  0  0  0  0  0  0  0
  -24.8833   -9.8604   21.8375 C   0  0  0  0  0  0  0  0  0  0  0  0
  -27.3958  -10.2364   21.6069 C   0  0  0  0  0  0  0  0  0  0  0  0
  -27.7882  -34.5980   25.1127 C   0  0  0  0  0  0  0  0  0  0  0  0
  -25.8560  -30.0971   20.6203 C   0  0  0  0  0  0  0  0  0  0  0  0
  -27.3483  -33.3043   24.7734 C   0  0  0  0  0  0  0  0  0  0  0  0
  -26.8954  -21.0932   21.1462 C   0  0  0  0  0  0  0  0  0  0  0  0
  -24.8094  -29.1959   20.8626 C   0  0  0  0  0  0  0  0  0  0  0  0
  -25.4790  -22.7796   20.1528 C   0  0  0  0  0  0  0  0  0  0  0  0
  -27.4085  -22.0439   22.0286 C   0  0  0  0  0  0  0  0  0  0  0  0
  -25.9921  -23.7303   21.0352 C   0  0  0  0  0  0  0  0  0  0  0  0
  -22.6234   -8.6020   22.8826 C   0  0  0  0  0  0  0  0  0  0  0  0
  -26.3779  -27.3467   20.6880 C   0  0  0  0  0  0  0  0  0  0  0  0
  -21.5364   -6.6057   23.4786 C   0  0  0  0  0  0  0  0  0  0  0  0
  -21.5710   -3.8217   23.6531 C   0  0  0  0  0  0  0  0  0  0  0  0
  -20.5804   -5.8523   22.7974 C   0  0  0  0  0  0  0  0  0  0  0  0
  -26.0502  -10.5101   21.2970 C   0  0  0  0  0  0  0  0  0  0  0  0
  -28.1122  -11.1179   20.8346 C   0  0  0  0  0  0  0  0  0  0  0  0
  -27.9489   -9.2715   22.5118 C   0  0  0  0  0  0  0  0  0  0  0  0
  -24.5178  -31.9908   22.7945 C   0  0  0  0  0  0  0  0  0  0  0  0
  -21.9146  -31.6955   20.8818 C   0  0  0  0  0  0  0  0  0  0  0  0
  -20.2371  -29.8753   18.5325 C   0  0  0  0  0  0  0  0  0  0  0  0
  -28.0044  -16.4018   18.7687 C   0  0  0  0  0  0  0  0  0  0  0  0
  -26.8177  -35.7078   25.4312 C   0  0  0  0  0  0  0  0  0  0  0  0
  -25.5873  -31.5754   20.5495 C   0  0  0  0  0  0  0  0  0  0  0  0
  -23.3966  -29.6646   21.0922 C   0  0  0  0  0  0  0  0  0  0  0  0
  -25.3993  -35.4373   24.9361 C   0  0  0  0  0  0  0  0  0  0  0  0
  -27.1983  -13.7205   16.7416 C   0  0  0  0  0  0  0  0  0  0  0  0
  -24.9691  -34.0191   25.2974 C   0  0  0  0  0  0  0  0  0  0  0  0
  -26.9511  -12.5800   17.7288 C   0  0  0  0  0  0  0  0  0  0  0  0
  -26.2547  -18.6658   20.8010 C   0  0  0  0  0  0  0  0  0  0  0  0
  -28.6184  -19.4313   20.3143 C   0  0  0  0  0  0  0  0  0  0  0  0
  -26.6058  -15.0267   17.2574 C   0  0  0  0  0  0  0  0  0  0  0  0
  -26.7501  -17.2169   20.8140 C   0  0  0  0  0  0  0  0  0  0  0  0
  -29.0611  -17.9718   20.3646 C   0  0  0  0  0  0  0  0  0  0  0  0
  -26.8677  -14.2951   19.6056 C   0  0  0  0  0  0  0  0  0  0  0  0
  -27.3705  -19.6531   21.1881 C   0  0  0  0  0  0  0  0  0  0  0  0
  -25.8772  -32.9799   24.6287 C   0  0  1  0  0  0  0  0  0  0  0  0
  -24.3280  -31.9905   21.3040 C   0  0  1  0  0  0  0  0  0  0  0  0
  -27.4538  -12.9480   19.1360 C   0  0  1  0  0  0  0  0  0  0  0  0
  -28.4415  -21.6733   23.0415 C   0  0  0  0  0  0  0  0  0  0  0  0
  -18.1172  -29.8690   17.1895 C   0  0  0  0  0  0  0  0  0  0  0  0
  -24.0364  -21.9183   18.2759 C   0  0  0  0  0  0  0  0  0  0  0  0
  -24.9765  -24.2509   18.1705 C   0  0  0  0  0  0  0  0  0  0  0  0
  -23.1094  -23.7154   19.7225 C   0  0  0  0  0  0  0  0  0  0  0  0
  -20.3555  -30.8125   23.3515 C   0  0  0  0  0  0  0  0  0  0  0  0
  -18.5768  -29.9291   21.8271 C   0  0  0  0  0  0  0  0  0  0  0  0
  -19.1140  -32.3651   21.8341 C   0  0  0  0  0  0  0  0  0  0  0  0
  -21.7210  -29.9713   15.9736 C   0  0  0  0  0  0  0  0  0  0  0  0
  -25.5244  -25.1481   20.9938 C   0  0  0  0  0  0  0  0  0  1  0  0
  -20.7503  -30.7380   20.8011 C   0  0  1  0  0  0  0  0  0  0  0  0
  -19.5811  -30.2795   17.2245 C   0  0  2  0  0  0  0  0  0  0  0  0
  -24.4462  -23.1503   19.1397 C   0  0  0  0  0  0  0  0  0  0  0  0
  -19.7261  -30.9521   21.9511 C   0  0  0  0  0  0  0  0  0  0  0  0
  -25.9169  -11.4890   20.3981 N   0  0  0  0  0  0  0  0  0  0  0  0
  -27.1880  -11.8382   20.1366 N   0  0  0  0  0  0  0  0  0  0  0  0
  -23.1856  -31.1198   21.0192 N   0  0  0  0  0  0  0  0  0  0  0  0
  -27.1045  -15.3392   18.5966 N   0  0  0  0  0  0  0  0  0  0  0  0
  -27.9644  -17.0760   19.9984 N   0  0  0  0  0  0  0  0  0  0  0  0
  -29.4361  -11.3394   20.6914 N   0  0  0  0  0  0  0  0  0  0  0  0
  -27.0706   -8.4454   23.2262 N   0  0  0  0  0  0  0  0  0  0  0  0
  -25.5273  -32.8265   23.2329 N   0  0  0  0  0  0  0  0  0  0  0  0
  -20.1879  -30.8910   19.4637 N   0  0  0  0  0  0  0  0  0  0  0  0
  -20.2774  -29.6354   16.0750 N   0  3  0  0  0  0  0  0  0  0  0  0
  -29.1846   -9.1569   22.6941 O   0  0  0  0  0  0  0  0  0  0  0  0
  -23.8006  -31.2862   23.4950 O   0  0  0  0  0  0  0  0  0  0  0  0
  -21.7048  -32.9094   20.8179 O   0  0  0  0  0  0  0  0  0  0  0  0
  -20.7393  -28.7680   18.7115 O   0  0  0  0  0  0  0  0  0  0  0  0
  -28.7977  -16.7288   17.8771 O   0  0  0  0  0  0  0  0  0  0  0  0
  -21.5210   -7.9877   23.3924 O   0  0  0  0  0  0  0  0  0  0  0  0
  -26.6304  -26.0002   20.7264 O   0  0  0  0  0  0  0  0  0  1  0  0
  -21.5887   -2.4849   23.7357 F   0  0  0  0  0  0  0  0  0  0  0  0
  -19.6435   -6.4601   22.0567 F   0  0  0  0  0  0  0  0  0  0  0  0
  1  2  1  0  0  0  0
  1  5  2  0  0  0  0
  2  6  2  0  0  0  0
  3  8  2  0  0  0  0
  3 17  1  0  0  0  0
  4  9  1  0  0  0  0
  4 17  2  0  0  0  0
  5 19  1  0  0  0  0
  6 21  1  0  0  0  0
  7 10  2  0  0  0  0
  7 20  1  0  0  0  0
  8 27  1  0  0  0  0
  9 27  2  0  0  0  0
 10 28  1  0  0  0  0
 11 12  2  0  0  0  0
 11 29  1  0  0  0  0
 12 30  1  0  0  0  0
 13 22  2  0  0  0  0
 13 24  1  0  0  0  0
 14 23  1  0  0  0  0
 14 28  2  0  0  0  0
 15 25  2  0  0  0  0
 15 26  1  0  0  0  0
 16 30  2  0  0  0  0
 16 31  1  0  0  0  0
 17 32  1  0  0  0  0
 18 32  1  0  0  0  0
 18 33  2  0  0  0  0
 18 34  1  0  0  0  0
 19 21  2  0  0  0  0
 19 39  1  0  0  0  0
 20 23  2  0  0  0  0
 20 40  1  0  0  0  0
 21 53  1  0  0  0  0
 22 25  1  0  0  0  0
 22 52  1  0  0  0  0
 23 41  1  0  0  0  0
 24 26  2  0  0  0  0
 24 68  1  0  0  0  0
 25 56  1  0  0  0  0
 26 65  1  0  0  0  0
 27 85  1  0  0  0  0
 28 86  1  0  0  0  0
 29 31  2  0  0  0  0
 29 85  1  0  0  0  0
 30 87  1  0  0  0  0
 31 88  1  0  0  0  0
 32 70  2  0  0  0  0
 33 71  1  0  0  0  0
 33 75  1  0  0  0  0
 34 76  1  0  0  0  0
 34 80  2  0  0  0  0
 35 54  1  0  0  0  0
 35 77  1  0  0  0  0
 35 81  2  0  0  0  0
 36 66  1  0  0  0  0
 36 72  1  0  0  0  0
 36 82  2  0  0  0  0
 37 67  1  0  0  0  0
 37 78  1  0  0  0  0
 37 83  2  0  0  0  0
 38 73  1  0  0  0  0
 38 74  1  0  0  0  0
 38 84  2  0  0  0  0
 39 42  1  0  0  0  0
 40 54  1  0  0  0  0
 41 72  1  0  0  0  0
 42 44  1  0  0  0  0
 43 45  1  0  0  0  0
 43 48  1  0  0  0  0
 44 53  1  0  0  0  0
 45 55  1  0  0  0  0
 46 49  1  0  0  0  0
 46 52  1  0  0  0  0
 47 50  1  0  0  0  0
 47 52  1  0  0  0  0
 48 73  1  0  0  0  0
 49 74  1  0  0  0  0
 50 74  1  0  0  0  0
 51 55  1  0  0  0  0
 51 73  1  0  0  0  0
 53 77  1  0  0  0  0
 54 72  1  0  0  0  0
 55 71  1  0  0  0  0
 57 67  1  0  0  0  0
 58 68  1  0  0  0  0
 59 68  1  0  0  0  0
 60 68  1  0  0  0  0
 61 69  1  0  0  0  0
 62 69  1  0  0  0  0
 63 69  1  0  0  0  0
 64 79  1  0  0  0  0
 65 86  1  0  0  0  0
 66 69  1  0  0  0  0
 66 78  1  0  0  0  0
 67 79  1  0  0  0  0
 70 71  1  0  0  0  0
M  CHG  1  79   1
M  ISO  4  38 100  65 101  74 100  86 101
M  END
> <Batch ID>
0158

> <Smiles>
CNC(C)C(=O)NC(C(=O)N1Cc2cc([101O:1][101CH2:1]c3cc(C)c(C4CC[100N:0]([100C:0](=O)N5CCCC(n6nc(-c7ccc(Oc8ccc(F)cc8F)cc7)c(C(N)=O)c6N)C5)CC4)cc3C(C)(C)C)ccc2CC1C(=O)NC1CCCc2ccccc21)C(C)(C)C

> <Shape>
0.244

> <Color>
0.079

> <Negative vol penalty>
0.000

$$$$

  -OEChem-04052322043D

 88 97  0     1  0  0  0  0  0999 V2000
  -29.0732  -25.0258   16.5722 C   0  0  0  0  0  0  0  0  0  0  0  0
  -27.8932  -25.0243   17.3091 C   0  0  0  0  0  0  0  0  0  0  0  0
  -25.4502  -13.1693   21.6882 C   0  0  0  0  0  0  0  0  0  0  0  0
  -25.8433  -12.8422   19.3269 C   0  0  0  0  0  0  0  0  0  0  0  0
  -30.1867  -25.7205   17.0428 C   0  0  0  0  0  0  0  0  0  0  0  0
  -27.8263  -25.7166   18.5176 C   0  0  0  0  0  0  0  0  0  0  0  0
  -23.5694  -28.4213   18.9742 C   0  0  0  0  0  0  0  0  0  0  0  0
  -25.0238  -11.8461   21.8006 C   0  0  0  0  0  0  0  0  0  0  0  0
  -25.4169  -11.5189   19.4393 C   0  0  0  0  0  0  0  0  0  0  0  0
  -22.4084  -27.7286   19.3151 C   0  0  0  0  0  0  0  0  0  0  0  0
  -23.4908   -8.6564   22.6371 C   0  0  0  0  0  0  0  0  0  0  0  0
  -22.3320   -8.4071   23.3725 C   0  0  0  0  0  0  0  0  0  0  0  0
  -22.6659  -28.4369   21.6067 C   0  0  0  0  0  0  0  0  0  0  0  0
  -16.8801  -24.7463   22.8596 C   0  0  0  0  0  0  0  0  0  0  0  0
  -21.0722   -9.8116   21.8634 C   0  0  0  0  0  0  0  0  0  0  0  0
  -25.8599  -13.6675   20.4514 C   0  0  0  0  0  0  0  0  0  0  0  0
  -27.6124  -15.5209   20.4854 C   0  0  0  0  0  0  0  0  0  0  0  0
  -30.1305  -26.4297   18.2530 C   0  0  0  0  0  0  0  0  0  0  0  0
  -24.2945  -29.1191   19.9508 C   0  0  0  0  0  0  0  0  0  0  0  0
  -28.9405  -26.4204   19.0055 C   0  0  0  0  0  0  0  0  0  0  0  0
  -23.8344  -29.1397   21.2751 C   0  0  0  0  0  0  0  0  0  0  0  0
  -16.8003  -25.9960   22.2453 C   0  0  0  0  0  0  0  0  0  0  0  0
  -17.9523  -26.7637   22.0739 C   0  0  0  0  0  0  0  0  0  0  0  0
  -19.1840  -26.2817   22.5169 C   0  0  0  0  0  0  0  0  0  0  0  0
  -19.2637  -25.0319   23.1312 C   0  0  0  0  0  0  0  0  0  0  0  0
  -25.0072  -11.0208   20.6762 C   0  0  0  0  0  0  0  0  0  0  0  0
  -21.9581  -27.7340   20.6320 C   0  0  0  0  0  0  0  0  0  0  0  0
  -23.4402   -9.4834   21.5150 C   0  0  0  0  0  0  0  0  0  0  0  0
  -18.1118  -24.2642   23.3026 C   0  0  0  0  0  0  0  0  0  0  0  0
  -21.1227   -8.9846   22.9856 C   0  0  0  0  0  0  0  0  0  0  0  0
  -22.2309  -10.0610   21.1281 C   0  0  0  0  0  0  0  0  0  0  0  0
  -26.3000  -15.0345   20.3345 C   0  0  0  0  0  0  0  0  0  0  0  0
  -27.5028  -16.8743   20.2788 C   0  0  0  0  0  0  0  0  0  0  0  0
  -28.8224  -14.8127   20.7854 C   0  0  0  0  0  0  0  0  0  0  0  0
  -27.2337  -28.9053   21.1421 C   0  0  0  0  0  0  0  0  0  0  0  0
  -26.3753  -31.6123   22.7097 C   0  0  0  0  0  0  0  0  0  0  0  0
  -23.8712  -33.5756   23.9434 C   0  0  0  0  0  0  0  0  0  0  0  0
  -24.1680  -21.2258   21.2805 C   0  0  0  0  0  0  0  0  0  0  0  0
  -31.3744  -27.1268   18.7443 C   0  0  0  0  0  0  0  0  0  0  0  0
  -25.5302  -29.8834   19.5617 C   0  0  0  0  0  0  0  0  0  0  0  0
  -24.5654  -29.8904   22.3571 C   0  0  0  0  0  0  0  0  0  0  0  0
  -31.1058  -28.1450   19.8495 C   0  0  0  0  0  0  0  0  0  0  0  0
  -24.2155  -19.8168   18.0624 C   0  0  0  0  0  0  0  0  0  0  0  0
  -30.1825  -27.5517   20.9090 C   0  0  0  0  0  0  0  0  0  0  0  0
  -24.8919  -18.4726   18.3300 C   0  0  0  0  0  0  0  0  0  0  0  0
  -23.2258  -20.1907   19.1673 C   0  0  0  0  0  0  0  0  0  0  0  0
  -21.9110  -22.2717   20.7942 C   0  0  0  0  0  0  0  0  0  0  0  0
  -23.7648  -23.6348   21.6849 C   0  0  0  0  0  0  0  0  0  0  0  0
  -24.4831  -18.8174   20.7958 C   0  0  0  0  0  0  0  0  0  0  0  0
  -21.0331  -22.6779   21.9735 C   0  0  0  0  0  0  0  0  0  0  0  0
  -22.9271  -24.0403   22.8867 C   0  0  0  0  0  0  0  0  0  0  0  0
  -28.8212  -27.1801   20.3089 C   0  0  1  0  0  0  0  0  0  0  0  0
  -26.4716  -30.1348   20.7356 C   0  0  1  0  0  0  0  0  0  0  0  0
  -25.5265  -18.4430   19.7318 C   0  0  1  0  0  0  0  0  0  0  0  0
  -15.4688  -26.4890   21.7812 C   0  0  0  0  0  0  0  0  0  0  0  0
  -17.8635  -28.1035   21.4140 C   0  0  0  0  0  0  0  0  0  0  0  0
  -23.4811  -35.7075   25.2084 C   0  0  0  0  0  0  0  0  0  0  0  0
  -27.1921  -30.2219   25.3000 C   0  0  0  0  0  0  0  0  0  0  0  0
  -25.9221  -31.9740   26.5592 C   0  0  0  0  0  0  0  0  0  0  0  0
  -27.8722  -32.6236   25.1459 C   0  0  0  0  0  0  0  0  0  0  0  0
  -22.3630  -34.7701   21.6945 C   0  0  0  0  0  0  0  0  0  0  0  0
  -16.9434  -22.3261   24.0335 C   0  0  0  0  0  0  0  0  0  0  0  0
  -20.5849  -24.5067   23.6104 C   0  0  0  0  0  0  0  0  0  0  0  0
  -20.4200  -27.1045   22.3332 C   0  0  0  0  0  0  0  0  0  1  0  0
  -25.7149  -31.9181   24.0324 C   0  0  1  0  0  0  0  0  0  0  0  0
  -23.6151  -35.0680   23.8351 C   0  0  2  0  0  0  0  0  0  0  0  0
  -26.6624  -31.6686   25.2396 C   0  0  0  0  0  0  0  0  0  0  0  0
  -25.4212  -16.0004   20.0539 N   0  0  0  0  0  0  0  0  0  0  0  0
  -26.1828  -17.1073   20.0269 N   0  0  0  0  0  0  0  0  0  0  0  0
  -25.7718  -30.6171   21.9281 N   0  0  0  0  0  0  0  0  0  0  0  0
  -23.8645  -20.1086   20.4882 N   0  0  0  0  0  0  0  0  0  0  0  0
  -23.3335  -22.3456   21.1489 N   0  0  0  0  0  0  0  0  0  0  0  0
  -28.4078  -17.8760   20.2899 N   0  0  0  0  0  0  0  0  0  0  0  0
  -28.7564  -13.4246   20.9675 N   0  0  0  0  0  0  0  0  0  0  0  0
  -28.0065  -28.3631   20.1330 N   0  0  0  0  0  0  0  0  0  0  0  0
  -25.2194  -33.2868   23.9345 N   0  0  0  0  0  0  0  0  0  0  0  0
  -21.4684  -24.0272   22.4929 N   0  3  0  0  0  0  0  0  0  0  0  0
  -22.3604  -35.3243   23.0729 N   0  3  0  0  0  0  0  0  0  0  0  0
  -29.9266  -15.3958   20.9051 O   0  0  0  0  0  0  0  0  0  0  0  0
  -27.1296  -28.4809   22.2870 O   0  0  0  0  0  0  0  0  0  0  0  0
  -27.3852  -32.2387   22.3790 O   0  0  0  0  0  0  0  0  0  0  0  0
  -22.9659  -32.7490   24.0311 O   0  0  0  0  0  0  0  0  0  0  0  0
  -25.1285  -21.2227   22.0608 O   0  0  0  0  0  0  0  0  0  0  0  0
  -24.5914   -9.7294   20.7855 O   0  0  0  0  0  0  0  0  0  0  0  0
  -18.1700  -23.0412   23.9003 O   0  0  0  0  0  0  0  0  0  0  0  0
  -20.8172  -27.0532   20.9701 O   0  0  0  0  0  0  0  0  0  1  0  0
  -20.0098   -8.7439   23.6910 F   0  0  0  0  0  0  0  0  0  0  0  0
  -22.1759  -10.8554   20.0503 F   0  0  0  0  0  0  0  0  0  0  0  0
  1  2  1  0  0  0  0
  1  5  2  0  0  0  0
  2  6  2  0  0  0  0
  3  8  2  0  0  0  0
  3 16  1  0  0  0  0
  4  9  1  0  0  0  0
  4 16  2  0  0  0  0
  5 18  1  0  0  0  0
  6 20  1  0  0  0  0
  7 10  2  0  0  0  0
  7 19  1  0  0  0  0
  8 26  1  0  0  0  0
  9 26  2  0  0  0  0
 10 27  1  0  0  0  0
 11 12  2  0  0  0  0
 11 28  1  0  0  0  0
 12 30  1  0  0  0  0
 13 21  1  0  0  0  0
 13 27  2  0  0  0  0
 14 22  1  0  0  0  0
 14 29  2  0  0  0  0
 15 30  2  0  0  0  0
 15 31  1  0  0  0  0
 16 32  1  0  0  0  0
 17 32  1  0  0  0  0
 17 33  2  0  0  0  0
 17 34  1  0  0  0  0
 18 20  2  0  0  0  0
 18 39  1  0  0  0  0
 19 21  2  0  0  0  0
 19 40  1  0  0  0  0
 20 52  1  0  0  0  0
 21 41  1  0  0  0  0
 22 23  2  0  0  0  0
 22 55  1  0  0  0  0
 23 24  1  0  0  0  0
 23 56  1  0  0  0  0
 24 25  2  0  0  0  0
 24 64  1  0  0  0  0
 25 29  1  0  0  0  0
 25 63  1  0  0  0  0
 26 84  1  0  0  0  0
 27 86  1  0  0  0  0
 28 31  2  0  0  0  0
 28 84  1  0  0  0  0
 29 85  1  0  0  0  0
 30 87  1  0  0  0  0
 31 88  1  0  0  0  0
 32 68  2  0  0  0  0
 33 69  1  0  0  0  0
 33 73  1  0  0  0  0
 34 74  1  0  0  0  0
 34 79  2  0  0  0  0
 35 53  1  0  0  0  0
 35 75  1  0  0  0  0
 35 80  2  0  0  0  0
 36 65  1  0  0  0  0
 36 70  1  0  0  0  0
 36 81  2  0  0  0  0
 37 66  1  0  0  0  0
 37 76  1  0  0  0  0
 37 82  2  0  0  0  0
 38 71  1  0  0  0  0
 38 72  1  0  0  0  0
 38 83  2  0  0  0  0
 39 42  1  0  0  0  0
 40 53  1  0  0  0  0
 41 70  1  0  0  0  0
 42 44  1  0  0  0  0
 43 45  1  0  0  0  0
 43 46  1  0  0  0  0
 44 52  1  0  0  0  0
 45 54  1  0  0  0  0
 46 71  1  0  0  0  0
 47 50  1  0  0  0  0
 47 72  1  0  0  0  0
 48 51  1  0  0  0  0
 48 72  1  0  0  0  0
 49 54  1  0  0  0  0
 49 71  1  0  0  0  0
 50 77  1  0  0  0  0
 51 77  1  0  0  0  0
 52 75  1  0  0  0  0
 53 70  1  0  0  0  0
 54 69  1  0  0  0  0
 57 66  1  0  0  0  0
 58 67  1  0  0  0  0
 59 67  1  0  0  0  0
 60 67  1  0  0  0  0
 61 78  1  0  0  0  0
 62 85  1  0  0  0  0
 63 77  1  0  0  0  0
 64 86  1  0  0  0  0
 65 67  1  0  0  0  0
 65 76  1  0  0  0  0
 66 78  1  0  0  0  0
 68 69  1  0  0  0  0
M  CHG  2  77   1  78   1
M  ISO  4  38 100  64 101  72 100  86 101
M  END
> <Batch ID>
0158

> <Smiles>
CNC(C)C(=O)NC(C(=O)N1Cc2cc([101O:1][101CH2:1]c3c(C)c(C)cc(OC)c3CN3CC[100N:0]([100C:0](=O)N4CCCC(n5nc(-c6ccc(Oc7ccc(F)cc7F)cc6)c(C(N)=O)c5N)C4)CC3)ccc2CC1C(=O)NC1CCCc2ccccc21)C(C)(C)C

> <Shape>
0.298

> <Color>
0.080

> <Negative vol penalty>
0.000

$$$$

  -OEChem-04052322043D

 88 98  0     1  0  0  0  0  0999 V2000
  -27.1281  -36.6979   24.4848 C   0  0  0  0  0  0  0  0  0  0  0  0
  -27.7249  -35.5335   24.0120 C   0  0  0  0  0  0  0  0  0  0  0  0
  -23.3247  -13.1292   23.2649 C   0  0  0  0  0  0  0  0  0  0  0  0
  -22.0992  -13.1101   21.1829 C   0  0  0  0  0  0  0  0  0  0  0  0
  -25.8197  -36.6638   24.9651 C   0  0  0  0  0  0  0  0  0  0  0  0
  -27.0138  -34.3340   24.0203 C   0  0  0  0  0  0  0  0  0  0  0  0
  -27.3668  -29.8164   19.9005 C   0  0  0  0  0  0  0  0  0  0  0  0
  -22.1236  -13.0807   23.9724 C   0  0  0  0  0  0  0  0  0  0  0  0
  -20.8981  -13.0615   21.8904 C   0  0  0  0  0  0  0  0  0  0  0  0
  -28.0599  -28.6067   19.8920 C   0  0  0  0  0  0  0  0  0  0  0  0
  -19.0570  -10.7378   23.5126 C   0  0  0  0  0  0  0  0  0  0  0  0
  -18.0871   -9.8344   23.0785 C   0  0  0  0  0  0  0  0  0  0  0  0
  -29.8899  -22.5601   23.3898 C   0  0  0  0  0  0  0  0  0  0  0  0
  -29.9119  -21.8272   25.6917 C   0  0  0  0  0  0  0  0  0  0  0  0
  -26.0851  -27.4764   20.6930 C   0  0  0  0  0  0  0  0  0  0  0  0
  -16.5506  -11.6618   22.7083 C   0  0  0  0  0  0  0  0  0  0  0  0
  -23.3126  -13.1440   21.8701 C   0  0  0  0  0  0  0  0  0  0  0  0
  -25.3234  -12.1034   20.6950 C   0  0  0  0  0  0  0  0  0  0  0  0
  -25.0889  -35.4652   24.9703 C   0  0  0  0  0  0  0  0  0  0  0  0
  -26.0285  -29.8670   20.3164 C   0  0  0  0  0  0  0  0  0  0  0  0
  -25.6948  -34.2836   24.5024 C   0  0  0  0  0  0  0  0  0  0  0  0
  -29.8009  -21.5357   24.3322 C   0  0  0  0  0  0  0  0  0  0  0  0
  -30.0899  -23.8761   23.8068 C   0  0  0  0  0  0  0  0  0  0  0  0
  -25.3764  -28.6875   20.7035 C   0  0  0  0  0  0  0  0  0  0  0  0
  -30.1119  -23.1432   26.1088 C   0  0  0  0  0  0  0  0  0  0  0  0
  -30.2008  -24.1676   25.1663 C   0  0  0  0  0  0  0  0  0  0  0  0
  -20.9103  -13.0468   23.2851 C   0  0  0  0  0  0  0  0  0  0  0  0
  -27.4200  -27.4370   20.2911 C   0  0  0  0  0  0  0  0  0  0  0  0
  -18.7738  -12.1033   23.5447 C   0  0  0  0  0  0  0  0  0  0  0  0
  -16.8339  -10.2963   22.6763 C   0  0  0  0  0  0  0  0  0  0  0  0
  -17.5206  -12.5653   23.1425 C   0  0  0  0  0  0  0  0  0  0  0  0
  -24.5529  -13.1948   21.1387 C   0  0  0  0  0  0  0  0  0  0  0  0
  -26.3962  -12.6770   20.0573 C   0  0  0  0  0  0  0  0  0  0  0  0
  -25.0903  -10.6967   20.8457 C   0  0  0  0  0  0  0  0  0  0  0  0
  -24.4655  -31.3175   22.6737 C   0  0  0  0  0  0  0  0  0  0  0  0
  -21.8592  -30.1191   21.1594 C   0  0  0  0  0  0  0  0  0  0  0  0
  -20.5532  -27.7587   19.0690 C   0  0  0  0  0  0  0  0  0  0  0  0
  -29.1720  -17.8301   20.4897 C   0  0  0  0  0  0  0  0  0  0  0  0
  -23.6937  -35.4682   25.5431 C   0  0  0  0  0  0  0  0  0  0  0  0
  -25.2869  -31.1754   20.2944 C   0  0  0  0  0  0  0  0  0  0  0  0
  -23.9348  -28.6849   21.1394 C   0  0  0  0  0  0  0  0  0  0  0  0
  -22.8794  -34.2321   25.1698 C   0  0  0  0  0  0  0  0  0  0  0  0
  -27.6678  -16.5925   17.6341 C   0  0  0  0  0  0  0  0  0  0  0  0
  -23.7065  -32.9667   25.3730 C   0  0  0  0  0  0  0  0  0  0  0  0
  -26.7703  -15.4696   18.1537 C   0  0  0  0  0  0  0  0  0  0  0  0
  -28.2423  -19.9291   23.1444 C   0  0  0  0  0  0  0  0  0  0  0  0
  -30.7478  -19.5908   23.0117 C   0  0  0  0  0  0  0  0  0  0  0  0
  -29.8572  -24.6842   21.2356 C   0  0  0  0  0  0  0  0  0  0  0  0
  -29.0438  -26.0727   22.6237 C   0  0  0  0  0  0  0  0  0  0  0  0
  -27.6201  -17.8020   18.5605 C   0  0  0  0  0  0  0  0  0  0  0  0
  -28.0444  -18.4895   22.6610 C   0  0  0  0  0  0  0  0  0  0  0  0
  -30.4921  -18.1563   22.5584 C   0  0  0  0  0  0  0  0  0  0  0  0
  -27.0976  -16.3716   20.5096 C   0  0  0  0  0  0  0  0  0  0  0  0
  -29.5838  -20.1044   23.8785 C   0  0  0  0  0  0  0  0  0  0  0  0
  -30.1875  -25.0223   22.7177 C   0  0  0  0  0  0  0  0  0  0  0  0
  -24.9474  -32.9681   24.4721 C   0  0  1  0  0  0  0  0  0  0  0  0
  -24.0796  -31.1936   21.2268 C   0  0  1  0  0  0  0  0  0  0  0  0
  -27.1133  -15.1175   19.6120 C   0  0  1  0  0  0  0  0  0  0  0  0
  -29.2793  -26.1101   21.0980 C   0  0  0  0  0  0  0  0  0  1  0  0
  -30.2271  -23.4289   27.5704 C   0  0  0  0  0  0  0  0  0  0  0  0
  -30.4148  -25.5793   25.6106 C   0  0  0  0  0  0  0  0  0  0  0  0
  -18.3847  -27.0132   18.0495 C   0  0  0  0  0  0  0  0  0  0  0  0
  -21.0332  -28.8848   23.8247 C   0  0  0  0  0  0  0  0  0  0  0  0
  -19.4435  -27.4122   22.5707 C   0  0  0  0  0  0  0  0  0  0  0  0
  -19.1552  -29.8894   22.5137 C   0  0  0  0  0  0  0  0  0  0  0  0
  -21.5522  -28.2206   16.3217 C   0  0  0  0  0  0  0  0  0  0  0  0
  -21.0701  -28.8349   21.2436 C   0  0  1  0  0  0  0  0  0  0  0  0
  -19.6255  -27.8747   17.8731 C   0  0  2  0  0  0  0  0  0  0  0  0
  -20.2032  -28.7554   22.5319 C   0  0  0  0  0  0  0  0  0  0  0  0
  -25.0906  -14.3727   20.8109 N   0  0  0  0  0  0  0  0  0  0  0  0
  -26.2104  -14.0247   20.1544 N   0  0  0  0  0  0  0  0  0  0  0  0
  -23.2543  -29.9901   21.1066 N   0  0  0  0  0  0  0  0  0  0  0  0
  -27.9479  -17.4260   19.9356 N   0  0  0  0  0  0  0  0  0  0  0  0
  -29.2033  -18.0415   21.8763 N   0  0  0  0  0  0  0  0  0  0  0  0
  -27.4708  -12.1551   19.4287 N   0  0  0  0  0  0  0  0  0  0  0  0
  -23.9393  -10.2796   21.5279 N   0  0  0  0  0  0  0  0  0  0  0  0
  -24.5864  -32.6217   23.1141 N   0  0  0  0  0  0  0  0  0  0  0  0
  -20.3073  -28.7423   20.0035 N   0  0  0  0  0  0  0  0  0  0  0  0
  -20.3254  -27.4419   16.6306 N   0  3  0  0  0  0  0  0  0  0  0  0
  -25.8877   -9.8354   20.4031 O   0  0  0  0  0  0  0  0  0  0  0  0
  -24.6392  -30.3048   23.3415 O   0  0  0  0  0  0  0  0  0  0  0  0
  -21.2595  -31.1968   21.1339 O   0  0  0  0  0  0  0  0  0  0  0  0
  -21.4079  -26.8808   19.1663 O   0  0  0  0  0  0  0  0  0  0  0  0
  -30.1781  -17.9918   19.7877 O   0  0  0  0  0  0  0  0  0  0  0  0
  -19.7381  -12.9991   23.9752 O   0  0  0  0  0  0  0  0  0  0  0  0
  -28.1022  -26.2413   20.2843 O   0  0  0  0  0  0  0  0  0  1  0  0
  -15.9030   -9.4287   22.2579 F   0  0  0  0  0  0  0  0  0  0  0  0
  -17.2430  -13.8760   23.1699 F   0  0  0  0  0  0  0  0  0  0  0  0
  1  2  1  0  0  0  0
  1  5  2  0  0  0  0
  2  6  2  0  0  0  0
  3  8  2  0  0  0  0
  3 17  1  0  0  0  0
  4  9  1  0  0  0  0
  4 17  2  0  0  0  0
  5 19  1  0  0  0  0
  6 21  1  0  0  0  0
  7 10  2  0  0  0  0
  7 20  1  0  0  0  0
  8 27  1  0  0  0  0
  9 27  2  0  0  0  0
 10 28  1  0  0  0  0
 11 12  2  0  0  0  0
 11 29  1  0  0  0  0
 12 30  1  0  0  0  0
 13 22  2  0  0  0  0
 13 23  1  0  0  0  0
 14 22  1  0  0  0  0
 14 25  2  0  0  0  0
 15 24  1  0  0  0  0
 15 28  2  0  0  0  0
 16 30  2  0  0  0  0
 16 31  1  0  0  0  0
 17 32  1  0  0  0  0
 18 32  1  0  0  0  0
 18 33  2  0  0  0  0
 18 34  1  0  0  0  0
 19 21  2  0  0  0  0
 19 39  1  0  0  0  0
 20 24  2  0  0  0  0
 20 40  1  0  0  0  0
 21 56  1  0  0  0  0
 22 54  1  0  0  0  0
 23 26  2  0  0  0  0
 23 55  1  0  0  0  0
 24 41  1  0  0  0  0
 25 26  1  0  0  0  0
 25 60  1  0  0  0  0
 26 61  1  0  0  0  0
 27 85  1  0  0  0  0
 28 86  1  0  0  0  0
 29 31  2  0  0  0  0
 29 85  1  0  0  0  0
 30 87  1  0  0  0  0
 31 88  1  0  0  0  0
 32 70  2  0  0  0  0
 33 71  1  0  0  0  0
 33 75  1  0  0  0  0
 34 76  1  0  0  0  0
 34 80  2  0  0  0  0
 35 57  1  0  0  0  0
 35 77  1  0  0  0  0
 35 81  2  0  0  0  0
 36 67  1  0  0  0  0
 36 72  1  0  0  0  0
 36 82  2  0  0  0  0
 37 68  1  0  0  0  0
 37 78  1  0  0  0  0
 37 83  2  0  0  0  0
 38 73  1  0  0  0  0
 38 74  1  0  0  0  0
 38 84  2  0  0  0  0
 39 42  1  0  0  0  0
 40 57  1  0  0  0  0
 41 72  1  0  0  0  0
 42 44  1  0  0  0  0
 43 45  1  0  0  0  0
 43 50  1  0  0  0  0
 44 56  1  0  0  0  0
 45 58  1  0  0  0  0
 46 51  1  0  0  0  0
 46 54  1  0  0  0  0
 47 52  1  0  0  0  0
 47 54  1  0  0  0  0
 48 55  1  0  0  0  0
 48 59  1  0  0  0  0
 49 55  1  0  0  0  0
 49 59  1  0  0  0  0
 50 73  1  0  0  0  0
 51 74  1  0  0  0  0
 52 74  1  0  0  0  0
 53 58  1  0  0  0  0
 53 73  1  0  0  0  0
 56 77  1  0  0  0  0
 57 72  1  0  0  0  0
 58 71  1  0  0  0  0
 59 86  1  0  0  0  0
 62 68  1  0  0  0  0
 63 69  1  0  0  0  0
 64 69  1  0  0  0  0
 65 69  1  0  0  0  0
 66 79  1  0  0  0  0
 67 69  1  0  0  0  0
 67 78  1  0  0  0  0
 68 79  1  0  0  0  0
 70 71  1  0  0  0  0
M  CHG  1  79   1
M  ISO  4  38 100  59 101  74 100  86 101
M  END
> <Batch ID>
0158

> <Smiles>
CNC(C)C(=O)NC(C(=O)N1Cc2cc([101O:1][101CH:1]3CC(c4cc(C5CC[100N:0]([100C:0](=O)N6CCCC(n7nc(-c8ccc(Oc9ccc(F)cc9F)cc8)c(C(N)=O)c7N)C6)CC5)cc(C)c4C)C3)ccc2CC1C(=O)NC1CCCc2ccccc21)C(C)(C)C

> <Shape>
0.263

> <Color>
0.081

> <Negative vol penalty>
0.000

$$$$

  -OEChem-04052322043D

 88 97  0     1  0  0  0  0  0999 V2000
  -37.2494  -29.2008   16.3466 C   0  0  0  0  0  0  0  0  0  0  0  0
  -36.5377  -28.0253   16.5634 C   0  0  0  0  0  0  0  0  0  0  0  0
  -23.0136   -9.8594   20.0208 C   0  0  0  0  0  0  0  0  0  0  0  0
  -23.7171  -10.0023   22.3277 C   0  0  0  0  0  0  0  0  0  0  0  0
  -37.0179  -30.3136   17.1540 C   0  0  0  0  0  0  0  0  0  0  0  0
  -35.5948  -27.9615   17.5887 C   0  0  0  0  0  0  0  0  0  0  0  0
  -30.3304  -24.8325   17.5593 C   0  0  0  0  0  0  0  0  0  0  0  0
  -22.2526   -8.7302   20.3229 C   0  0  0  0  0  0  0  0  0  0  0  0
  -22.9560   -8.8731   22.6298 C   0  0  0  0  0  0  0  0  0  0  0  0
  -29.9730  -23.5929   18.0879 C   0  0  0  0  0  0  0  0  0  0  0  0
  -23.2278   -5.5207   22.2863 C   0  0  0  0  0  0  0  0  0  0  0  0
  -23.8154   -4.5368   23.0814 C   0  0  0  0  0  0  0  0  0  0  0  0
  -29.1000  -24.6887   20.0516 C   0  0  0  0  0  0  0  0  0  0  0  0
  -27.8890  -20.1117   22.0667 C   0  0  0  0  0  0  0  0  0  0  0  0
  -22.0744   -4.8300   24.7307 C   0  0  0  0  0  0  0  0  0  0  0  0
  -23.7460  -10.4955   21.0233 C   0  0  0  0  0  0  0  0  0  0  0  0
  -24.1155  -13.0054   20.7560 C   0  0  0  0  0  0  0  0  0  0  0  0
  -36.0647  -30.2665   18.1835 C   0  0  0  0  0  0  0  0  0  0  0  0
  -30.0846  -26.0107   18.2789 C   0  0  0  0  0  0  0  0  0  0  0  0
  -35.3512  -29.0743   18.4115 C   0  0  0  0  0  0  0  0  0  0  0  0
  -29.4528  -25.9422   19.5288 C   0  0  0  0  0  0  0  0  0  0  0  0
  -29.7649  -18.0499   21.8977 C   0  0  0  0  0  0  0  0  0  0  0  0
  -28.2940  -19.6589   20.8194 C   0  0  0  0  0  0  0  0  0  0  0  0
  -28.4145  -19.5358   23.2277 C   0  0  0  0  0  0  0  0  0  0  0  0
  -29.2269  -18.6321   20.7340 C   0  0  0  0  0  0  0  0  0  0  0  0
  -29.3575  -18.4889   23.1816 C   0  0  0  0  0  0  0  0  0  0  0  0
  -22.2237   -8.2371   21.6273 C   0  0  0  0  0  0  0  0  0  0  0  0
  -29.3604  -23.5206   19.3355 C   0  0  0  0  0  0  0  0  0  0  0  0
  -22.0635   -6.1593   22.7134 C   0  0  0  0  0  0  0  0  0  0  0  0
  -23.2387   -4.1914   24.3036 C   0  0  0  0  0  0  0  0  0  0  0  0
  -21.4869   -5.8140   23.9356 C   0  0  0  0  0  0  0  0  0  0  0  0
  -24.5328  -11.6617   20.7118 C   0  0  0  0  0  0  0  0  0  0  0  0
  -25.2235  -13.7218   20.3747 C   0  0  0  0  0  0  0  0  0  0  0  0
  -22.8402  -13.5567   21.1103 C   0  0  0  0  0  0  0  0  0  0  0  0
  -31.9035  -28.3132   19.5011 C   0  0  0  0  0  0  0  0  0  0  0  0
  -29.0409  -29.6933   20.1515 C   0  0  0  0  0  0  0  0  0  0  0  0
  -25.6951  -29.3044   20.7004 C   0  0  0  0  0  0  0  0  0  0  0  0
  -30.7108  -14.7050   20.6371 C   0  0  0  0  0  0  0  0  0  0  0  0
  -35.8829  -31.4799   19.0606 C   0  0  0  0  0  0  0  0  0  0  0  0
  -30.4519  -27.3420   17.6830 C   0  0  0  0  0  0  0  0  0  0  0  0
  -29.1487  -27.1792   20.3325 C   0  0  0  0  0  0  0  0  0  0  0  0
  -34.5988  -31.4484   19.8855 C   0  0  0  0  0  0  0  0  0  0  0  0
  -29.6086  -12.1866   18.3745 C   0  0  0  0  0  0  0  0  0  0  0  0
  -34.4228  -30.0854   20.5473 C   0  0  0  0  0  0  0  0  0  0  0  0
  -28.1581  -11.9322   18.7886 C   0  0  0  0  0  0  0  0  0  0  0  0
  -31.6096  -16.7722   23.0033 C   0  0  0  0  0  0  0  0  0  0  0  0
  -30.4981  -12.4739   19.5820 C   0  0  0  0  0  0  0  0  0  0  0  0
  -30.7269  -16.7243   24.2427 C   0  0  0  0  0  0  0  0  0  0  0  0
  -28.5703  -13.3053   20.8727 C   0  0  0  0  0  0  0  0  0  0  0  0
  -34.3023  -28.9739   19.4978 C   0  0  1  0  0  0  0  0  0  0  0  0
  -30.7674  -16.9275   21.7400 C   0  0  1  0  0  0  0  0  0  0  0  0
  -30.6203  -28.4391   18.7296 C   0  0  1  0  0  0  0  0  0  0  0  0
  -27.6236  -13.0661   19.6840 C   0  0  2  0  0  0  0  0  0  0  0  0
  -27.8668  -20.1449   24.4821 C   0  0  0  0  0  0  0  0  0  0  0  0
  -29.6457  -18.1632   19.3728 C   0  0  0  0  0  0  0  0  0  0  0  0
  -23.6230  -30.6115   21.2438 C   0  0  0  0  0  0  0  0  0  0  0  0
  -30.2203  -19.4925   26.1570 C   0  0  0  0  0  0  0  0  0  0  0  0
  -29.5314  -17.1091   26.5934 C   0  0  0  0  0  0  0  0  0  0  0  0
  -29.9599  -29.9404   23.0505 C   0  0  0  0  0  0  0  0  0  0  0  0
  -27.5760  -30.3473   23.6985 C   0  0  0  0  0  0  0  0  0  0  0  0
  -28.7397  -31.9376   22.1691 C   0  0  0  0  0  0  0  0  0  0  0  0
  -24.3766  -28.4835   18.1812 C   0  0  0  0  0  0  0  0  0  0  0  0
  -27.7088  -20.2964   19.5827 C   0  0  0  0  0  0  0  0  0  0  0  0
  -28.6709  -21.2814   18.9275 C   0  0  0  0  0  0  0  0  0  1  0  0
  -28.0741  -29.6548   21.3103 C   0  0  1  0  0  0  0  0  0  0  0  0
  -24.4901  -30.0347   20.1355 C   0  0  2  0  0  0  0  0  0  0  0  0
  -29.4111  -18.3039   25.6588 C   0  0  0  0  0  0  0  0  0  0  0  0
  -28.5948  -30.4464   22.5431 C   0  0  0  0  0  0  0  0  0  0  0  0
  -25.8065  -11.5296   20.3321 N   0  0  0  0  0  0  0  0  0  0  0  0
  -26.1991  -12.7995   20.1342 N   0  0  0  0  0  0  0  0  0  0  0  0
  -29.8911  -17.9199   24.3383 N   0  0  3  0  0  0  0  0  0  0  0  0
  -29.5327  -28.4568   19.7099 N   0  0  0  0  0  0  0  0  0  0  0  0
  -29.9362  -13.5599   20.3887 N   0  0  0  0  0  0  0  0  0  0  0  0
  -25.4487  -15.0444   20.2248 N   0  0  0  0  0  0  0  0  0  0  0  0
  -21.8115  -12.6787   21.4776 N   0  0  0  0  0  0  0  0  0  0  0  0
  -32.9750  -28.9651   18.9211 N   0  0  0  0  0  0  0  0  0  0  0  0
  -26.7959  -30.1297   20.7915 N   0  0  0  0  0  0  0  0  0  0  0  0
  -30.1003  -15.6892   21.4049 N   0  0  0  0  0  0  0  0  0  0  0  0
  -23.6561  -29.1058   19.3216 N   0  3  0  0  0  0  0  0  0  0  0  0
  -22.6148  -14.7905   21.0856 O   0  0  0  0  0  0  0  0  0  0  0  0
  -31.9199  -27.6734   20.5461 O   0  0  0  0  0  0  0  0  0  0  0  0
  -29.3429  -30.7799   19.6518 O   0  0  0  0  0  0  0  0  0  0  0  0
  -25.6620  -28.1213   21.0315 O   0  0  0  0  0  0  0  0  0  0  0  0
  -31.8592  -14.8426   20.2021 O   0  0  0  0  0  0  0  0  0  0  0  0
  -21.4809   -7.1354   21.9224 O   0  0  0  0  0  0  0  0  0  0  0  0
  -29.0112  -22.3119   19.8541 O   0  0  0  0  0  0  0  0  0  1  0  0
  -23.8022   -3.2455   25.0664 F   0  0  0  0  0  0  0  0  0  0  0  0
  -20.3678   -6.4232   24.3506 F   0  0  0  0  0  0  0  0  0  0  0  0
  1  2  1  0  0  0  0
  1  5  2  0  0  0  0
  2  6  2  0  0  0  0
  3  8  2  0  0  0  0
  3 16  1  0  0  0  0
  4  9  1  0  0  0  0
  4 16  2  0  0  0  0
  5 18  1  0  0  0  0
  6 20  1  0  0  0  0
  7 10  2  0  0  0  0
  7 19  1  0  0  0  0
  8 27  1  0  0  0  0
  9 27  2  0  0  0  0
 10 28  1  0  0  0  0
 11 12  2  0  0  0  0
 11 29  1  0  0  0  0
 12 30  1  0  0  0  0
 13 21  1  0  0  0  0
 13 28  2  0  0  0  0
 14 23  1  0  0  0  0
 14 24  2  0  0  0  0
 15 30  2  0  0  0  0
 15 31  1  0  0  0  0
 16 32  1  0  0  0  0
 17 32  1  0  0  0  0
 17 33  2  0  0  0  0
 17 34  1  0  0  0  0
 18 20  2  0  0  0  0
 18 39  1  0  0  0  0
 19 21  2  0  0  0  0
 19 40  1  0  0  0  0
 20 50  1  0  0  0  0
 21 41  1  0  0  0  0
 22 25  1  0  0  0  0
 22 26  2  0  0  0  0
 22 51  1  0  0  0  0
 23 25  2  0  0  0  0
 23 63  1  0  0  0  0
 24 26  1  0  0  0  0
 24 54  1  0  0  0  0
 25 55  1  0  0  0  0
 26 71  1  0  0  0  0
 27 85  1  0  0  0  0
 28 86  1  0  0  0  0
 29 31  2  0  0  0  0
 29 85  1  0  0  0  0
 30 87  1  0  0  0  0
 31 88  1  0  0  0  0
 32 69  2  0  0  0  0
 33 70  1  0  0  0  0
 33 74  1  0  0  0  0
 34 75  1  0  0  0  0
 34 80  2  0  0  0  0
 35 52  1  0  0  0  0
 35 76  1  0  0  0  0
 35 81  2  0  0  0  0
 36 65  1  0  0  0  0
 36 72  1  0  0  0  0
 36 82  2  0  0  0  0
 37 66  1  0  0  0  0
 37 77  1  0  0  0  0
 37 83  2  0  0  0  0
 38 73  1  0  0  0  0
 38 78  1  0  0  0  0
 38 84  2  0  0  0  0
 39 42  1  0  0  0  0
 40 52  1  0  0  0  0
 41 72  1  0  0  0  0
 42 44  1  0  0  0  0
 43 45  1  0  0  0  0
 43 47  1  0  0  0  0
 44 50  1  0  0  0  0
 45 53  1  0  0  0  0
 46 48  1  0  0  0  0
 46 51  1  0  0  0  0
 47 73  1  0  0  0  0
 48 71  1  0  0  0  0
 49 53  1  0  0  0  0
 49 73  1  0  0  0  0
 50 76  1  0  0  0  0
 51 78  1  0  0  0  0
 52 72  1  0  0  0  0
 53 70  1  0  0  0  0
 56 66  1  0  0  0  0
 57 67  1  0  0  0  0
 58 67  1  0  0  0  0
 59 68  1  0  0  0  0
 60 68  1  0  0  0  0
 61 68  1  0  0  0  0
 62 79  1  0  0  0  0
 63 64  1  0  0  0  0
 64 86  1  0  0  0  0
 65 68  1  0  0  0  0
 65 77  1  0  0  0  0
 66 79  1  0  0  0  0
 67 71  1  0  0  0  0
 69 70  1  0  0  0  0
M  CHG  1  79   1
M  ISO  4  38 100  64 101  78 100  86 101
M  END
> <Batch ID>
0158

> <Smiles>
CNC(C)C(=O)NC(C(=O)N1Cc2cc([101O:1][101CH2:1]Cc3cc(C)c4c(c3C)C([100NH:0][100C:0](=O)N3CCCC(n5nc(-c6ccc(Oc7ccc(F)cc7F)cc6)c(C(N)=O)c5N)C3)CCN4C(C)C)ccc2CC1C(=O)NC1CCCc2ccccc21)C(C)(C)C

> <Shape>
0.349

> <Color>
0.202

> <Negative vol penalty>
0.000

$$$$

  -OEChem-04052322043D

 89 98  0     1  0  0  0  0  0999 V2000
  -20.8397  -24.4991   24.2000 C   0  0  0  0  0  0  0  0  0  0  0  0
  -21.7604  -24.7219   23.1812 C   0  0  0  0  0  0  0  0  0  0  0  0
  -23.5348   -9.9197   21.3599 C   0  0  0  0  0  0  0  0  0  0  0  0
  -24.7988   -8.2337   22.5418 C   0  0  0  0  0  0  0  0  0  0  0  0
  -19.8071  -25.4106   24.4165 C   0  0  0  0  0  0  0  0  0  0  0  0
  -21.6484  -25.8559   22.3775 C   0  0  0  0  0  0  0  0  0  0  0  0
  -26.0956  -28.1648   21.6448 C   0  0  0  0  0  0  0  0  0  0  0  0
  -22.5328   -8.9852   21.0984 C   0  0  0  0  0  0  0  0  0  0  0  0
  -23.7968   -7.2992   22.2804 C   0  0  0  0  0  0  0  0  0  0  0  0
  -26.9614  -27.5973   20.7110 C   0  0  0  0  0  0  0  0  0  0  0  0
  -20.7475   -6.5106   23.5053 C   0  0  0  0  0  0  0  0  0  0  0  0
  -20.3389   -5.6896   24.5563 C   0  0  0  0  0  0  0  0  0  0  0  0
  -26.2636  -29.2317   19.0798 C   0  0  0  0  0  0  0  0  0  0  0  0
  -28.4679  -21.1910   17.8978 C   0  0  0  0  0  0  0  0  0  0  0  0
  -20.9958   -3.7403   23.2890 C   0  0  0  0  0  0  0  0  0  0  0  0
  -24.6678   -9.5439   22.0816 C   0  0  0  0  0  0  0  0  0  0  0  0
  -25.8001  -11.3625   23.4666 C   0  0  0  0  0  0  0  0  0  0  0  0
  -19.6880  -26.5612   23.6212 C   0  0  0  0  0  0  0  0  0  0  0  0
  -25.2979  -29.2651   21.2992 C   0  0  0  0  0  0  0  0  0  0  0  0
  -20.6125  -26.7829   22.5827 C   0  0  0  0  0  0  0  0  0  0  0  0
  -25.3904  -29.8130   20.0118 C   0  0  0  0  0  0  0  0  0  0  0  0
  -28.4242  -19.8672   19.9183 C   0  0  0  0  0  0  0  0  0  0  0  0
  -28.7482  -20.0004   18.5681 C   0  0  0  0  0  0  0  0  0  0  0  0
  -27.8199  -20.9247   20.5982 C   0  0  0  0  0  0  0  0  0  0  0  0
  -27.5397  -22.1154   19.9278 C   0  0  0  0  0  0  0  0  0  0  0  0
  -22.6638   -7.6750   21.5586 C   0  0  0  0  0  0  0  0  0  0  0  0
  -27.0434  -28.1290   19.4274 C   0  0  0  0  0  0  0  0  0  0  0  0
  -21.2802   -5.9464   22.3461 C   0  0  0  0  0  0  0  0  0  0  0  0
  -27.8637  -22.2486   18.5777 C   0  0  0  0  0  0  0  0  0  0  0  0
  -20.4630   -4.3045   24.4482 C   0  0  0  0  0  0  0  0  0  0  0  0
  -21.4044   -4.5613   22.2380 C   0  0  0  0  0  0  0  0  0  0  0  0
  -25.7035  -10.5087   22.3515 C   0  0  0  0  0  0  0  0  0  0  0  0
  -26.9538  -12.0767   23.2532 C   0  0  0  0  0  0  0  0  0  0  0  0
  -24.9253  -11.4980   24.5944 C   0  0  0  0  0  0  0  0  0  0  0  0
  -22.1696  -29.8035   21.1321 C   0  0  0  0  0  0  0  0  0  0  0  0
  -23.1199  -32.8465   20.5324 C   0  0  0  0  0  0  0  0  0  0  0  0
  -25.5594  -34.9515   19.4078 C   0  0  0  0  0  0  0  0  0  0  0  0
  -30.4180  -14.8776   20.0633 C   0  0  0  0  0  0  0  0  0  0  0  0
  -18.5274  -27.4936   23.8626 C   0  0  0  0  0  0  0  0  0  0  0  0
  -24.3886  -29.8824   22.3262 C   0  0  0  0  0  0  0  0  0  0  0  0
  -24.5703  -31.0062   19.5970 C   0  0  0  0  0  0  0  0  0  0  0  0
  -18.6989  -28.8619   23.2080 C   0  0  0  0  0  0  0  0  0  0  0  0
  -30.6591  -11.4342   19.8814 C   0  0  0  0  0  0  0  0  0  0  0  0
  -19.1729  -28.7083   21.7663 C   0  0  0  0  0  0  0  0  0  0  0  0
  -29.4021  -10.9435   20.5992 C   0  0  0  0  0  0  0  0  0  0  0  0
  -27.9571  -17.3799   20.0486 C   0  0  0  0  0  0  0  0  0  0  0  0
  -30.2395  -18.2728   20.6834 C   0  0  0  0  0  0  0  0  0  0  0  0
  -30.3499  -12.6410   19.0031 C   0  0  0  0  0  0  0  0  0  0  0  0
  -28.2948  -16.0693   20.7652 C   0  0  0  0  0  0  0  0  0  0  0  0
  -30.5123  -16.9561   21.4048 C   0  0  0  0  0  0  0  0  0  0  0  0
  -28.4688  -13.3060   20.4650 C   0  0  0  0  0  0  0  0  0  0  0  0
  -28.7297  -18.5706   20.6443 C   0  0  0  0  0  0  0  0  0  0  0  0
  -20.5389  -28.0140   21.7056 C   0  0  1  0  0  0  0  0  0  0  0  0
  -23.2447  -30.6808   21.7087 C   0  0  1  0  0  0  0  0  0  0  0  0
  -28.7260  -12.0878   21.3751 C   0  0  1  0  0  0  0  0  0  0  0  0
  -29.3967  -18.8840   17.8169 C   0  0  0  0  0  0  0  0  0  0  0  0
  -27.4719  -20.7824   22.0463 C   0  0  0  0  0  0  0  0  0  0  0  0
  -26.8920  -23.2538   20.6501 C   0  0  0  0  0  0  0  0  0  0  0  0
  -26.0300  -37.3827   19.0013 C   0  0  0  0  0  0  0  0  0  0  0  0
  -21.3901  -32.7588   18.0204 C   0  0  0  0  0  0  0  0  0  0  0  0
  -22.6155  -34.7781   17.1904 C   0  0  0  0  0  0  0  0  0  0  0  0
  -21.2763  -34.9100   19.2909 C   0  0  0  0  0  0  0  0  0  0  0  0
  -27.8128  -34.9555   21.3265 C   0  0  0  0  0  0  0  0  0  0  0  0
  -28.4099  -25.5803   17.2568 C   0  0  0  0  0  0  0  0  0  0  0  0
  -28.1478  -26.1797   18.6295 C   0  0  0  0  0  0  0  0  0  1  0  0
  -28.7084  -24.0912   17.3339 C   0  0  0  0  0  0  0  0  0  0  0  0
  -23.4597  -33.6354   19.2910 C   0  0  1  0  0  0  0  0  0  0  0  0
  -26.1324  -36.2313   19.9895 C   0  0  2  0  0  0  0  0  0  0  0  0
  -22.1996  -33.9969   18.4551 C   0  0  0  0  0  0  0  0  0  0  0  0
  -26.7150  -10.6647   21.4934 N   0  0  0  0  0  0  0  0  0  0  0  0
  -27.4582  -11.6250   22.0693 N   0  0  0  0  0  0  0  0  0  0  0  0
  -23.6915  -31.5703   20.6348 N   0  0  0  0  0  0  0  0  0  0  0  0
  -29.7059  -13.7036   19.7751 N   0  0  0  0  0  0  0  0  0  0  0  0
  -29.7488  -15.8607   20.8077 N   0  0  0  0  0  0  0  0  0  0  0  0
  -27.5758  -13.0407   23.9646 N   0  0  0  0  0  0  0  0  0  0  0  0
  -23.7841  -10.6867   24.6561 N   0  0  0  0  0  0  0  0  0  0  0  0
  -21.5939  -28.9436   22.0478 N   0  0  0  0  0  0  0  0  0  0  0  0
  -24.2308  -34.7899   19.7393 N   0  0  0  0  0  0  0  0  0  0  0  0
  -27.5676  -36.0421   20.3436 N   0  3  0  0  0  0  0  0  0  0  0  0
  -25.1403  -12.3259   25.5120 O   0  0  0  0  0  0  0  0  0  0  0  0
  -21.8826  -29.9008   19.9447 O   0  0  0  0  0  0  0  0  0  0  0  0
  -22.3805  -33.3471   21.3835 O   0  0  0  0  0  0  0  0  0  0  0  0
  -26.2230  -34.1748   18.7244 O   0  0  0  0  0  0  0  0  0  0  0  0
  -31.5832  -15.0384   19.6792 O   0  0  0  0  0  0  0  0  0  0  0  0
  -21.6862   -6.7629   21.3039 O   0  0  0  0  0  0  0  0  0  0  0  0
  -27.8934  -27.5726   18.5071 O   0  0  0  0  0  0  0  0  0  1  0  0
  -27.5976  -23.4039   17.9062 O   0  0  0  0  0  0  0  0  0  0  0  0
  -20.0720   -3.5163   25.4581 F   0  0  0  0  0  0  0  0  0  0  0  0
  -21.9165   -4.0137   21.1273 F   0  0  0  0  0  0  0  0  0  0  0  0
  1  2  1  0  0  0  0
  1  5  2  0  0  0  0
  2  6  2  0  0  0  0
  3  8  2  0  0  0  0
  3 16  1  0  0  0  0
  4  9  1  0  0  0  0
  4 16  2  0  0  0  0
  5 18  1  0  0  0  0
  6 20  1  0  0  0  0
  7 10  2  0  0  0  0
  7 19  1  0  0  0  0
  8 26  1  0  0  0  0
  9 26  2  0  0  0  0
 10 27  1  0  0  0  0
 11 12  2  0  0  0  0
 11 28  1  0  0  0  0
 12 30  1  0  0  0  0
 13 21  1  0  0  0  0
 13 27  2  0  0  0  0
 14 23  2  0  0  0  0
 14 29  1  0  0  0  0
 15 30  2  0  0  0  0
 15 31  1  0  0  0  0
 16 32  1  0  0  0  0
 17 32  1  0  0  0  0
 17 33  2  0  0  0  0
 17 34  1  0  0  0  0
 18 20  2  0  0  0  0
 18 39  1  0  0  0  0
 19 21  2  0  0  0  0
 19 40  1  0  0  0  0
 20 53  1  0  0  0  0
 21 41  1  0  0  0  0
 22 23  1  0  0  0  0
 22 24  2  0  0  0  0
 22 52  1  0  0  0  0
 23 56  1  0  0  0  0
 24 25  1  0  0  0  0
 24 57  1  0  0  0  0
 25 29  2  0  0  0  0
 25 58  1  0  0  0  0
 26 85  1  0  0  0  0
 27 86  1  0  0  0  0
 28 31  2  0  0  0  0
 28 85  1  0  0  0  0
 29 87  1  0  0  0  0
 30 88  1  0  0  0  0
 31 89  1  0  0  0  0
 32 70  2  0  0  0  0
 33 71  1  0  0  0  0
 33 75  1  0  0  0  0
 34 76  1  0  0  0  0
 34 80  2  0  0  0  0
 35 54  1  0  0  0  0
 35 77  1  0  0  0  0
 35 81  2  0  0  0  0
 36 67  1  0  0  0  0
 36 72  1  0  0  0  0
 36 82  2  0  0  0  0
 37 68  1  0  0  0  0
 37 78  1  0  0  0  0
 37 83  2  0  0  0  0
 38 73  1  0  0  0  0
 38 74  1  0  0  0  0
 38 84  2  0  0  0  0
 39 42  1  0  0  0  0
 40 54  1  0  0  0  0
 41 72  1  0  0  0  0
 42 44  1  0  0  0  0
 43 45  1  0  0  0  0
 43 48  1  0  0  0  0
 44 53  1  0  0  0  0
 45 55  1  0  0  0  0
 46 49  1  0  0  0  0
 46 52  1  0  0  0  0
 47 50  1  0  0  0  0
 47 52  1  0  0  0  0
 48 73  1  0  0  0  0
 49 74  1  0  0  0  0
 50 74  1  0  0  0  0
 51 55  1  0  0  0  0
 51 73  1  0  0  0  0
 53 77  1  0  0  0  0
 54 72  1  0  0  0  0
 55 71  1  0  0  0  0
 59 68  1  0  0  0  0
 60 69  1  0  0  0  0
 61 69  1  0  0  0  0
 62 69  1  0  0  0  0
 63 79  1  0  0  0  0
 64 65  1  0  0  0  0
 64 66  1  0  0  0  0
 65 86  1  0  0  0  0
 66 87  1  0  0  0  0
 67 69  1  0  0  0  0
 67 78  1  0  0  0  0
 68 79  1  0  0  0  0
 70 71  1  0  0  0  0
M  CHG  1  79   1
M  ISO  4  38 100  65 101  74 100  86 101
M  END
> <Batch ID>
0158

> <Smiles>
CNC(C)C(=O)NC(C(=O)N1Cc2cc([101O:1][101CH2:1]CCOc3cc(C)c(C4CC[100N:0]([100C:0](=O)N5CCCC(n6nc(-c7ccc(Oc8ccc(F)cc8F)cc7)c(C(N)=O)c6N)C5)CC4)c(C)c3C)ccc2CC1C(=O)NC1CCCc2ccccc21)C(C)(C)C

> <Shape>
0.292

> <Color>
0.134

> <Negative vol penalty>
0.000

$$$$

  -OEChem-04052322043D

 90100  0     1  0  0  0  0  0999 V2000
  -25.5074  -35.0624   24.0184 C   0  0  0  0  0  0  0  0  0  0  0  0
  -26.1500  -33.8804   23.6647 C   0  0  0  0  0  0  0  0  0  0  0  0
  -26.2505  -13.2168   20.2643 C   0  0  0  0  0  0  0  0  0  0  0  0
  -23.8861  -12.9179   20.6610 C   0  0  0  0  0  0  0  0  0  0  0  0
  -24.1899  -35.0291   24.4733 C   0  0  0  0  0  0  0  0  0  0  0  0
  -25.4758  -32.6641   23.7667 C   0  0  0  0  0  0  0  0  0  0  0  0
  -26.1560  -29.7191   19.7035 C   0  0  0  0  0  0  0  0  0  0  0  0
  -26.5067  -11.9821   20.8606 C   0  0  0  0  0  0  0  0  0  0  0  0
  -24.1422  -11.6831   21.2572 C   0  0  0  0  0  0  0  0  0  0  0  0
  -27.3658  -29.0324   19.6102 C   0  0  0  0  0  0  0  0  0  0  0  0
  -24.8283   -8.5295   20.2551 C   0  0  0  0  0  0  0  0  0  0  0  0
  -24.0116   -7.4569   19.8973 C   0  0  0  0  0  0  0  0  0  0  0  0
  -33.6227  -23.6301   18.6892 C   0  0  0  0  0  0  0  0  0  0  0  0
  -26.2862  -27.0327   20.4196 C   0  0  0  0  0  0  0  0  0  0  0  0
  -31.8251  -21.4983   18.6092 C   0  0  0  0  0  0  0  0  0  0  0  0
  -23.3208   -7.2148   22.1998 C   0  0  0  0  0  0  0  0  0  0  0  0
  -24.9402  -13.6847   20.1646 C   0  0  0  0  0  0  0  0  0  0  0  0
  -24.4149  -15.2100   18.1884 C   0  0  0  0  0  0  0  0  0  0  0  0
  -23.4959  -33.8128   24.5717 C   0  0  0  0  0  0  0  0  0  0  0  0
  -25.0028  -29.0696   20.1667 C   0  0  0  0  0  0  0  0  0  0  0  0
  -24.1482  -32.6143   24.2245 C   0  0  0  0  0  0  0  0  0  0  0  0
  -33.8751  -22.5357   17.8621 C   0  0  0  0  0  0  0  0  0  0  0  0
  -25.0625  -27.7127   20.5154 C   0  0  0  0  0  0  0  0  0  0  0  0
  -32.4716  -23.6586   19.4764 C   0  0  0  0  0  0  0  0  0  0  0  0
  -32.9763  -21.4698   17.8221 C   0  0  0  0  0  0  0  0  0  0  0  0
  -31.5727  -22.5927   19.4364 C   0  0  0  0  0  0  0  0  0  0  0  0
  -25.4526  -11.2153   21.3570 C   0  0  0  0  0  0  0  0  0  0  0  0
  -27.4317  -27.6898   19.9710 C   0  0  0  0  0  0  0  0  0  0  0  0
  -24.8914   -8.9448   21.5852 C   0  0  0  0  0  0  0  0  0  0  0  0
  -23.2578   -6.7995   20.8696 C   0  0  0  0  0  0  0  0  0  0  0  0
  -24.1376   -8.2874   22.5576 C   0  0  0  0  0  0  0  0  0  0  0  0
  -24.6750  -14.9603   19.5492 C   0  0  0  0  0  0  0  0  0  0  0  0
  -24.2304  -16.5693   18.1180 C   0  0  0  0  0  0  0  0  0  0  0  0
  -24.3462  -14.2952   17.0866 C   0  0  0  0  0  0  0  0  0  0  0  0
  -23.0522  -29.4583   22.6462 C   0  0  0  0  0  0  0  0  0  0  0  0
  -21.3368  -27.1390   21.1625 C   0  0  0  0  0  0  0  0  0  0  0  0
  -21.2979  -24.4985   19.0009 C   0  0  0  0  0  0  0  0  0  0  0  0
  -26.1943  -20.9411   21.8646 C   0  0  0  0  0  0  0  0  0  0  0  0
  -22.0885  -33.8218   25.1136 C   0  0  0  0  0  0  0  0  0  0  0  0
  -23.6995  -29.8173   20.2362 C   0  0  0  0  0  0  0  0  0  0  0  0
  -23.8485  -26.9642   20.9994 C   0  0  0  0  0  0  0  0  0  0  0  0
  -21.3210  -32.5316   24.8369 C   0  0  0  0  0  0  0  0  0  0  0  0
  -22.7616  -20.2977   20.7353 C   0  0  0  0  0  0  0  0  0  0  0  0
  -35.3684  -23.6770   16.0897 C   0  0  0  0  0  0  0  0  0  0  0  0
  -34.9899  -22.3378   15.5390 C   0  0  0  0  0  0  0  0  0  0  0  0
  -22.1813  -31.3168   25.1699 C   0  0  0  0  0  0  0  0  0  0  0  0
  -22.8364  -18.8569   20.2280 C   0  0  0  0  0  0  0  0  0  0  0  0
  -28.4671  -21.6570   19.0649 C   0  0  0  0  0  0  0  0  0  0  0  0
  -23.7563  -20.5586   21.8641 C   0  0  0  0  0  0  0  0  0  0  0  0
  -27.2943  -20.8130   19.5528 C   0  0  0  0  0  0  0  0  0  0  0  0
  -25.2198  -18.7530   21.0451 C   0  0  0  0  0  0  0  0  0  0  0  0
  -28.5409  -21.6162   21.4412 C   0  0  0  0  0  0  0  0  0  0  0  0
  -35.1129  -22.5274   17.0274 C   0  0  0  0  0  0  0  0  0  0  0  0
  -23.4420  -31.2778   24.2978 C   0  0  1  0  0  0  0  0  0  0  0  0
  -22.7037  -29.1931   21.2088 C   0  0  1  0  0  0  0  0  0  0  0  0
  -24.2820  -18.4710   19.8631 C   0  0  1  0  0  0  0  0  0  0  0  0
  -29.4508  -21.5429   20.2242 C   0  0  2  0  0  0  0  0  0  0  0  0
  -33.2236  -20.2863   16.9449 C   0  0  0  0  0  0  0  0  0  0  0  0
  -19.7562  -22.7789   18.0193 C   0  0  0  0  0  0  0  0  0  0  0  0
  -21.4003  -25.5866   23.7885 C   0  0  0  0  0  0  0  0  0  0  0  0
  -20.7126  -23.5429   22.5163 C   0  0  0  0  0  0  0  0  0  0  0  0
  -19.2036  -25.5277   22.5947 C   0  0  0  0  0  0  0  0  0  0  0  0
  -21.7708  -25.4771   16.2482 C   0  0  0  0  0  0  0  0  0  0  0  0
  -32.2252  -24.8433   20.3531 C   0  0  0  0  0  0  0  0  0  0  0  0
  -30.8682  -26.9088   20.7147 C   0  0  0  0  0  0  0  0  0  0  0  0
  -29.8066  -27.7732   20.0635 C   0  0  0  0  0  0  0  0  0  1  0  0
  -21.3154  -25.6303   21.2084 C   0  0  1  0  0  0  0  0  0  0  0  0
  -20.3755  -24.1568   17.8446 C   0  0  2  0  0  0  0  0  0  0  0  0
  -20.6815  -25.0862   22.5197 C   0  0  0  0  0  0  0  0  0  0  0  0
  -24.6582  -16.0717   20.2898 N   0  0  0  0  0  0  0  0  0  0  0  0
  -24.3855  -17.0330   19.3912 N   0  0  0  0  0  0  0  0  0  0  0  0
  -22.5988  -27.7406   21.0559 N   0  0  0  0  0  0  0  0  0  0  0  0
  -25.1070  -20.1499   21.4781 N   0  0  0  0  0  0  0  0  0  0  0  0
  -27.2921  -20.9946   21.0067 N   0  0  0  0  0  0  0  0  0  0  0  0
  -23.9523  -17.4010   17.0917 N   0  0  0  0  0  0  0  0  0  0  0  0
  -24.5609  -12.9327   17.3351 N   0  0  0  0  0  0  0  0  0  0  0  0
  -30.4222  -22.6046   20.2132 N   0  0  0  0  0  0  0  0  0  0  0  0
  -23.1232  -30.7998   22.9696 N   0  0  0  0  0  0  0  0  0  0  0  0
  -20.6384  -25.1944   19.9918 N   0  0  0  0  0  0  0  0  0  0  0  0
  -21.1287  -24.1740   16.5587 N   0  3  0  0  0  0  0  0  0  0  0  0
  -31.1702  -25.7528   19.8301 N   0  3  0  0  0  0  0  0  0  0  0  0
  -24.1179  -14.6768   15.9137 O   0  0  0  0  0  0  0  0  0  0  0  0
  -23.2412  -28.5155   23.4059 O   0  0  0  0  0  0  0  0  0  0  0  0
  -20.2726  -27.7607   21.2121 O   0  0  0  0  0  0  0  0  0  0  0  0
  -22.4838  -24.1766   19.0245 O   0  0  0  0  0  0  0  0  0  0  0  0
  -26.1670  -21.6081   22.9074 O   0  0  0  0  0  0  0  0  0  0  0  0
  -25.7021  -10.0103   21.9387 O   0  0  0  0  0  0  0  0  0  0  0  0
  -28.6198  -27.0125   19.8809 O   0  0  0  0  0  0  0  0  0  1  0  0
  -22.4723   -5.7705   20.5257 F   0  0  0  0  0  0  0  0  0  0  0  0
  -24.1932   -8.6826   23.8369 F   0  0  0  0  0  0  0  0  0  0  0  0
  1  2  1  0  0  0  0
  1  5  2  0  0  0  0
  2  6  2  0  0  0  0
  3  8  2  0  0  0  0
  3 17  1  0  0  0  0
  4  9  1  0  0  0  0
  4 17  2  0  0  0  0
  5 19  1  0  0  0  0
  6 21  1  0  0  0  0
  7 10  2  0  0  0  0
  7 20  1  0  0  0  0
  8 27  1  0  0  0  0
  9 27  2  0  0  0  0
 10 28  1  0  0  0  0
 11 12  2  0  0  0  0
 11 29  1  0  0  0  0
 12 30  1  0  0  0  0
 13 22  2  0  0  0  0
 13 24  1  0  0  0  0
 14 23  1  0  0  0  0
 14 28  2  0  0  0  0
 15 25  2  0  0  0  0
 15 26  1  0  0  0  0
 16 30  2  0  0  0  0
 16 31  1  0  0  0  0
 17 32  1  0  0  0  0
 18 32  1  0  0  0  0
 18 33  2  0  0  0  0
 18 34  1  0  0  0  0
 19 21  2  0  0  0  0
 19 39  1  0  0  0  0
 20 23  2  0  0  0  0
 20 40  1  0  0  0  0
 21 54  1  0  0  0  0
 22 25  1  0  0  0  0
 22 53  1  0  0  0  0
 23 41  1  0  0  0  0
 24 26  2  0  0  0  0
 24 64  1  0  0  0  0
 25 58  1  0  0  0  0
 26 77  1  0  0  0  0
 27 87  1  0  0  0  0
 28 88  1  0  0  0  0
 29 31  2  0  0  0  0
 29 87  1  0  0  0  0
 30 89  1  0  0  0  0
 31 90  1  0  0  0  0
 32 70  2  0  0  0  0
 33 71  1  0  0  0  0
 33 75  1  0  0  0  0
 34 76  1  0  0  0  0
 34 82  2  0  0  0  0
 35 55  1  0  0  0  0
 35 78  1  0  0  0  0
 35 83  2  0  0  0  0
 36 67  1  0  0  0  0
 36 72  1  0  0  0  0
 36 84  2  0  0  0  0
 37 68  1  0  0  0  0
 37 79  1  0  0  0  0
 37 85  2  0  0  0  0
 38 73  1  0  0  0  0
 38 74  1  0  0  0  0
 38 86  2  0  0  0  0
 39 42  1  0  0  0  0
 40 55  1  0  0  0  0
 41 72  1  0  0  0  0
 42 46  1  0  0  0  0
 43 47  1  0  0  0  0
 43 49  1  0  0  0  0
 44 45  1  0  0  0  0
 44 53  1  0  0  0  0
 45 53  1  0  0  0  0
 46 54  1  0  0  0  0
 47 56  1  0  0  0  0
 48 50  1  0  0  0  0
 48 57  1  0  0  0  0
 49 73  1  0  0  0  0
 50 74  1  0  0  0  0
 51 56  1  0  0  0  0
 51 73  1  0  0  0  0
 52 57  1  0  0  0  0
 52 74  1  0  0  0  0
 54 78  1  0  0  0  0
 55 72  1  0  0  0  0
 56 71  1  0  0  0  0
 57 77  1  0  0  0  0
 59 68  1  0  0  0  0
 60 69  1  0  0  0  0
 61 69  1  0  0  0  0
 62 69  1  0  0  0  0
 63 80  1  0  0  0  0
 64 81  1  0  0  0  0
 65 66  1  0  0  0  0
 65 81  1  0  0  0  0
 66 88  1  0  0  0  0
 67 69  1  0  0  0  0
 67 79  1  0  0  0  0
 68 80  1  0  0  0  0
 70 71  1  0  0  0  0
M  CHG  2  80   1  81   1
M  ISO  4  38 100  66 101  74 100  88 101
M  END
> <Batch ID>
0158

> <Smiles>
CNC(C)C(=O)NC(C(=O)N1Cc2cc([101O:1][101CH2:1]CNCc3cc(C4CC4)c(C)cc3NC3CC[100N:0]([100C:0](=O)N4CCCC(n5nc(-c6ccc(Oc7ccc(F)cc7F)cc6)c(C(N)=O)c5N)C4)C3)ccc2CC1C(=O)NC1CCCc2ccccc21)C(C)(C)C

> <Shape>
0.233

> <Color>
0.076

> <Negative vol penalty>
0.000

$$$$

  -OEChem-04052322043D

 92102  0     1  0  0  0  0  0999 V2000
  -22.2602   -8.1397   20.6813 C   0  0  0  0  0  0  0  0  0  0  0  0
  -21.9473   -9.4941   20.7389 C   0  0  0  0  0  0  0  0  0  0  0  0
  -26.4454  -28.5542   18.9249 C   0  0  0  0  0  0  0  0  0  0  0  0
  -26.4966  -28.4433   21.3378 C   0  0  0  0  0  0  0  0  0  0  0  0
  -23.5012   -7.6924   21.1326 C   0  0  0  0  0  0  0  0  0  0  0  0
  -22.8750  -10.4017   21.2488 C   0  0  0  0  0  0  0  0  0  0  0  0
  -23.7844  -16.1681   19.3973 C   0  0  0  0  0  0  0  0  0  0  0  0
  -25.1557  -29.0830   18.9765 C   0  0  0  0  0  0  0  0  0  0  0  0
  -25.2069  -28.9722   21.3894 C   0  0  0  0  0  0  0  0  0  0  0  0
  -23.3442  -17.3937   19.8954 C   0  0  0  0  0  0  0  0  0  0  0  0
  -22.0414  -27.8656   20.9579 C   0  0  0  0  0  0  0  0  0  0  0  0
  -21.1280  -27.2630   21.8229 C   0  0  0  0  0  0  0  0  0  0  0  0
  -26.0477  -22.0269   24.3943 C   0  0  0  0  0  0  0  0  0  0  0  0
  -25.4208  -17.6443   21.0971 C   0  0  0  0  0  0  0  0  0  0  0  0
  -24.1993  -23.5758   24.5413 C   0  0  0  0  0  0  0  0  0  0  0  0
  -20.8750  -29.3515   23.0109 C   0  0  0  0  0  0  0  0  0  0  0  0
  -27.1158  -28.2343   20.1055 C   0  0  0  0  0  0  0  0  0  0  0  0
  -29.6609  -28.4018   20.0602 C   0  0  0  0  0  0  0  0  0  0  0  0
  -24.4483   -8.5962   21.6393 C   0  0  0  0  0  0  0  0  0  0  0  0
  -25.0438  -15.6655   19.7547 C   0  0  0  0  0  0  0  0  0  0  0  0
  -24.1294   -9.9659   21.7084 C   0  0  0  0  0  0  0  0  0  0  0  0
  -26.9385  -23.0974   24.3158 C   0  0  0  0  0  0  0  0  0  0  0  0
  -25.8757  -16.4134   20.6001 C   0  0  0  0  0  0  0  0  0  0  0  0
  -24.6781  -22.2661   24.5070 C   0  0  0  0  0  0  0  0  0  0  0  0
  -25.0901  -24.6463   24.4628 C   0  0  0  0  0  0  0  0  0  0  0  0
  -24.5365  -29.2920   20.2087 C   0  0  0  0  0  0  0  0  0  0  0  0
  -24.1613  -18.1306   20.7477 C   0  0  0  0  0  0  0  0  0  0  0  0
  -22.3717  -29.2112   21.1195 C   0  0  0  0  0  0  0  0  0  0  0  0
  -26.4597  -24.4071   24.3500 C   0  0  0  0  0  0  0  0  0  0  0  0
  -20.5448  -28.0059   22.8493 C   0  0  0  0  0  0  0  0  0  0  0  0
  -21.7885  -29.9541   22.1459 C   0  0  0  0  0  0  0  0  0  0  0  0
  -28.4479  -27.6875   20.0528 C   0  0  0  0  0  0  0  0  0  0  0  0
  -30.6310  -27.4316   19.9959 C   0  0  0  0  0  0  0  0  0  0  0  0
  -29.8903  -29.8158   20.1198 C   0  0  0  0  0  0  0  0  0  0  0  0
  -26.0740  -13.0797   21.2895 C   0  0  0  0  0  0  0  0  0  0  0  0
  -28.9902  -14.2009   20.4172 C   0  0  0  0  0  0  0  0  0  0  0  0
  -30.9152  -16.8679   19.5072 C   0  0  0  0  0  0  0  0  0  0  0  0
  -30.8859  -21.7742   21.5738 C   0  0  0  0  0  0  0  0  0  0  0  0
  -25.7584   -8.0595   22.1591 C   0  0  0  0  0  0  0  0  0  0  0  0
  -25.5149  -14.3545   19.1876 C   0  0  0  0  0  0  0  0  0  0  0  0
  -27.2447  -15.9276   20.9980 C   0  0  0  0  0  0  0  0  0  0  0  0
  -26.8285   -9.1334   22.3378 C   0  0  0  0  0  0  0  0  0  0  0  0
  -30.4693  -21.7822   25.2534 C   0  0  0  0  0  0  0  0  0  0  0  0
  -31.4124  -23.0038   18.3740 C   0  0  0  0  0  0  0  0  0  0  0  0
  -28.9762  -22.0633   25.4169 C   0  0  0  0  0  0  0  0  0  0  0  0
  -26.2493  -10.3507   23.0514 C   0  0  0  0  0  0  0  0  0  0  0  0
  -23.0960  -27.6544   25.9696 C   0  0  0  0  0  0  0  0  0  0  0  0
  -22.2943  -26.3965   25.7826 C   0  0  0  0  0  0  0  0  0  0  0  0
  -30.8318  -24.4168   18.4265 C   0  0  0  0  0  0  0  0  0  0  0  0
  -30.7724  -21.0707   23.9380 C   0  0  0  0  0  0  0  0  0  0  0  0
  -30.5294  -22.0216   19.1353 C   0  0  0  0  0  0  0  0  0  0  0  0
  -28.7540  -22.0556   22.9016 C   0  0  0  0  0  0  0  0  0  0  0  0
  -29.7135  -23.8159   20.6294 C   0  0  0  0  0  0  0  0  0  0  0  0
  -28.4244  -22.8169   24.1943 C   0  0  1  0  0  0  0  0  0  0  0  0
  -25.1186  -10.9844   22.2319 C   0  0  1  0  0  0  0  0  0  0  0  0
  -26.6060  -13.6977   20.0275 C   0  0  1  0  0  0  0  0  0  0  0  0
  -23.7967  -26.3364   25.7884 C   0  0  0  0  0  0  0  0  0  0  0  0
  -30.5730  -24.8527   19.8792 C   0  0  2  0  0  0  0  0  0  0  0  0
  -33.2707  -17.4794   18.8945 C   0  0  0  0  0  0  0  0  0  0  0  0
  -21.8639  -19.8892   23.4048 C   0  0  0  0  0  0  0  0  0  0  0  0
  -29.7964  -14.0291   23.3549 C   0  0  0  0  0  0  0  0  0  0  0  0
  -31.7497  -15.5059   22.8332 C   0  0  0  0  0  0  0  0  0  0  0  0
  -31.5531  -13.2698   21.7450 C   0  0  0  0  0  0  0  0  0  0  0  0
  -30.0981  -17.7954   16.8181 C   0  0  0  0  0  0  0  0  0  0  0  0
  -27.8493  -25.9558   25.5017 C   0  0  0  0  0  0  0  0  0  0  0  0
  -24.5583  -26.0413   24.4997 C   0  0  0  0  0  0  0  0  0  0  0  0
  -23.7254  -21.1218   24.5899 C   0  0  0  0  0  0  0  0  0  0  0  0
  -24.2199  -19.7160   22.5194 C   0  0  0  0  0  0  0  0  0  1  0  0
  -30.0037  -15.1360   21.0316 C   0  0  1  0  0  0  0  0  0  0  0  0
  -31.9069  -17.0541   18.3730 C   0  0  2  0  0  0  0  0  0  0  0  0
  -23.1987  -20.6226   23.2212 C   0  0  1  0  0  0  0  0  0  0  0  0
  -30.7492  -14.4937   22.2354 C   0  0  0  0  0  0  0  0  0  0  0  0
  -28.6282  -26.3656   19.9888 N   0  0  0  0  0  0  0  0  0  0  0  0
  -29.9660  -26.2415   19.9552 N   0  0  0  0  0  0  0  0  0  0  0  0
  -27.6576  -14.6370   20.4224 N   0  0  0  0  0  0  0  0  0  0  0  0
  -30.1955  -21.7822   22.7970 N   0  0  0  0  0  0  0  0  0  0  0  0
  -30.2985  -22.4723   20.5078 N   0  0  0  0  0  0  0  0  0  0  0  0
  -31.9795  -27.4889   19.9706 N   0  0  0  0  0  0  0  0  0  0  0  0
  -28.7813  -30.6705   20.1819 N   0  0  0  0  0  0  0  0  0  0  0  0
  -25.6616  -11.7689   21.1437 N   0  0  0  0  0  0  0  0  0  0  0  0
  -30.8789  -15.5607   19.9444 N   0  0  0  0  0  0  0  0  0  0  0  0
  -31.4202  -18.0962   17.4252 N   0  3  0  0  0  0  0  0  0  0  0  0
  -31.0442  -30.3075   20.1016 O   0  0  0  0  0  0  0  0  0  0  0  0
  -26.0415  -13.7425   22.3197 O   0  0  0  0  0  0  0  0  0  0  0  0
  -29.3679  -13.1264   19.9434 O   0  0  0  0  0  0  0  0  0  0  0  0
  -30.2430  -17.7906   19.9624 O   0  0  0  0  0  0  0  0  0  0  0  0
  -31.9643  -21.1814   21.4442 O   0  0  0  0  0  0  0  0  0  0  0  0
  -23.2781  -29.8082   20.2595 O   0  0  0  0  0  0  0  0  0  0  0  0
  -27.3304  -25.4539   24.2724 O   0  0  0  0  0  0  0  0  0  0  0  0
  -23.7309  -19.3350   21.2392 O   0  0  0  0  0  0  0  0  0  1  0  0
  -19.6665  -27.4274   23.6789 F   0  0  0  0  0  0  0  0  0  0  0  0
  -22.1009  -31.2475   22.3054 F   0  0  0  0  0  0  0  0  0  0  0  0
  1  2  1  0  0  0  0
  1  5  2  0  0  0  0
  2  6  2  0  0  0  0
  3  8  2  0  0  0  0
  3 17  1  0  0  0  0
  4  9  1  0  0  0  0
  4 17  2  0  0  0  0
  5 19  1  0  0  0  0
  6 21  1  0  0  0  0
  7 10  2  0  0  0  0
  7 20  1  0  0  0  0
  8 26  1  0  0  0  0
  9 26  2  0  0  0  0
 10 27  1  0  0  0  0
 11 12  2  0  0  0  0
 11 28  1  0  0  0  0
 12 30  1  0  0  0  0
 13 22  1  0  0  0  0
 13 24  2  0  0  0  0
 14 23  1  0  0  0  0
 14 27  2  0  0  0  0
 15 24  1  0  0  0  0
 15 25  2  0  0  0  0
 16 30  2  0  0  0  0
 16 31  1  0  0  0  0
 17 32  1  0  0  0  0
 18 32  1  0  0  0  0
 18 33  2  0  0  0  0
 18 34  1  0  0  0  0
 19 21  2  0  0  0  0
 19 39  1  0  0  0  0
 20 23  2  0  0  0  0
 20 40  1  0  0  0  0
 21 55  1  0  0  0  0
 22 29  2  0  0  0  0
 22 54  1  0  0  0  0
 23 41  1  0  0  0  0
 24 67  1  0  0  0  0
 25 29  1  0  0  0  0
 25 66  1  0  0  0  0
 26 88  1  0  0  0  0
 27 90  1  0  0  0  0
 28 31  2  0  0  0  0
 28 88  1  0  0  0  0
 29 89  1  0  0  0  0
 30 91  1  0  0  0  0
 31 92  1  0  0  0  0
 32 73  2  0  0  0  0
 33 74  1  0  0  0  0
 33 78  1  0  0  0  0
 34 79  1  0  0  0  0
 34 83  2  0  0  0  0
 35 56  1  0  0  0  0
 35 80  1  0  0  0  0
 35 84  2  0  0  0  0
 36 69  1  0  0  0  0
 36 75  1  0  0  0  0
 36 85  2  0  0  0  0
 37 70  1  0  0  0  0
 37 81  1  0  0  0  0
 37 86  2  0  0  0  0
 38 76  1  0  0  0  0
 38 77  1  0  0  0  0
 38 87  2  0  0  0  0
 39 42  1  0  0  0  0
 40 56  1  0  0  0  0
 41 75  1  0  0  0  0
 42 46  1  0  0  0  0
 43 45  1  0  0  0  0
 43 50  1  0  0  0  0
 44 49  1  0  0  0  0
 44 51  1  0  0  0  0
 45 54  1  0  0  0  0
 46 55  1  0  0  0  0
 47 48  1  0  0  0  0
 47 57  1  0  0  0  0
 48 57  1  0  0  0  0
 49 58  1  0  0  0  0
 50 76  1  0  0  0  0
 51 77  1  0  0  0  0
 52 54  1  0  0  0  0
 52 76  1  0  0  0  0
 53 58  1  0  0  0  0
 53 77  1  0  0  0  0
 55 80  1  0  0  0  0
 56 75  1  0  0  0  0
 57 66  1  0  0  0  0
 58 74  1  0  0  0  0
 59 70  1  0  0  0  0
 60 71  1  0  0  0  0
 61 72  1  0  0  0  0
 62 72  1  0  0  0  0
 63 72  1  0  0  0  0
 64 82  1  0  0  0  0
 65 89  1  0  0  0  0
 67 71  1  0  0  0  0
 68 71  1  0  0  0  0
 68 90  1  0  0  0  0
 69 72  1  0  0  0  0
 69 81  1  0  0  0  0
 70 82  1  0  0  0  0
 73 74  1  0  0  0  0
M  CHG  1  82   1
M  ISO  4  38 100  68 101  76 100  90 101
M  END
> <Batch ID>
0158

> <Smiles>
CNC(C)C(=O)NC(C(=O)N1Cc2cc([101O:1][101CH2:1]C(C)Cc3cc(CC4CC4)c(OC)c(C4CCC[100N:0]([100C:0](=O)N5CCCC(n6nc(-c7ccc(Oc8ccc(F)cc8F)cc7)c(C(N)=O)c6N)C5)C4)c3)ccc2CC1C(=O)NC1CCCc2ccccc21)C(C)(C)C

> <Shape>
0.253

> <Color>
0.067

> <Negative vol penalty>
0.000

$$$$

  -OEChem-04052322043D

 88 97  0     1  0  0  0  0  0999 V2000
  -26.3413  -22.3053   15.2831 C   0  0  0  0  0  0  0  0  0  0  0  0
  -25.4591  -23.0890   16.0199 C   0  0  0  0  0  0  0  0  0  0  0  0
  -25.7232  -16.4795   19.5095 C   0  0  0  0  0  0  0  0  0  0  0  0
  -23.9602  -15.2515   18.4045 C   0  0  0  0  0  0  0  0  0  0  0  0
  -27.6497  -22.1234   15.7291 C   0  0  0  0  0  0  0  0  0  0  0  0
  -25.8845  -23.6905   17.2038 C   0  0  0  0  0  0  0  0  0  0  0  0
  -24.1467  -29.1381   19.3969 C   0  0  0  0  0  0  0  0  0  0  0  0
  -26.3092  -15.2785   19.9092 C   0  0  0  0  0  0  0  0  0  0  0  0
  -24.5463  -14.0505   18.8042 C   0  0  0  0  0  0  0  0  0  0  0  0
  -23.2055  -29.5056   20.3575 C   0  0  0  0  0  0  0  0  0  0  0  0
  -28.2383  -12.8680   18.5305 C   0  0  0  0  0  0  0  0  0  0  0  0
  -29.6188  -12.7381   18.3786 C   0  0  0  0  0  0  0  0  0  0  0  0
  -24.9488  -29.5951   22.0225 C   0  0  0  0  0  0  0  0  0  0  0  0
  -17.1242  -28.5175   22.8318 C   0  0  0  0  0  0  0  0  0  0  0  0
  -29.8490  -12.3992   20.7596 C   0  0  0  0  0  0  0  0  0  0  0  0
  -24.5486  -16.4660   18.7571 C   0  0  0  0  0  0  0  0  0  0  0  0
  -24.1902  -18.4195   17.1562 C   0  0  0  0  0  0  0  0  0  0  0  0
  -28.0942  -22.7308   16.9141 C   0  0  0  0  0  0  0  0  0  0  0  0
  -25.4965  -28.9854   19.7448 C   0  0  0  0  0  0  0  0  0  0  0  0
  -27.1997  -23.5154   17.6668 C   0  0  0  0  0  0  0  0  0  0  0  0
  -25.9055  -29.2281   21.0638 C   0  0  0  0  0  0  0  0  0  0  0  0
  -19.1588  -29.4763   23.6837 C   0  0  0  0  0  0  0  0  0  0  0  0
  -25.7208  -14.0640   19.5565 C   0  0  0  0  0  0  0  0  0  0  0  0
  -23.6060  -29.7313   21.6712 C   0  0  0  0  0  0  0  0  0  0  0  0
  -27.6632  -12.7635   19.7971 C   0  0  0  0  0  0  0  0  0  0  0  0
  -18.5119  -28.5124   22.9182 C   0  0  0  0  0  0  0  0  0  0  0  0
  -30.4241  -12.5037   19.4930 C   0  0  0  0  0  0  0  0  0  0  0  0
  -28.4686  -12.5291   20.9116 C   0  0  0  0  0  0  0  0  0  0  0  0
  -23.9425  -17.7063   18.3444 C   0  0  0  0  0  0  0  0  0  0  0  0
  -16.4348  -29.4999   23.5242 C   0  0  0  0  0  0  0  0  0  0  0  0
  -18.3783  -30.4159   24.3378 C   0  0  0  0  0  0  0  0  0  0  0  0
  -23.3713  -19.5192   17.2388 C   0  0  0  0  0  0  0  0  0  0  0  0
  -25.0807  -18.1152   16.0745 C   0  0  0  0  0  0  0  0  0  0  0  0
  -27.5607  -26.5684   19.7167 C   0  0  0  0  0  0  0  0  0  0  0  0
  -29.6795  -28.8788   20.5505 C   0  0  0  0  0  0  0  0  0  0  0  0
  -30.2238  -31.9380   21.9619 C   0  0  0  0  0  0  0  0  0  0  0  0
  -21.2024  -23.6797   19.8462 C   0  0  0  0  0  0  0  0  0  0  0  0
  -29.5038  -22.4666   17.3807 C   0  0  0  0  0  0  0  0  0  0  0  0
  -26.5037  -28.6145   18.6910 C   0  0  0  0  0  0  0  0  0  0  0  0
  -27.3459  -29.0974   21.4842 C   0  0  0  0  0  0  0  0  0  0  0  0
  -29.9847  -23.4440   18.4501 C   0  0  0  0  0  0  0  0  0  0  0  0
  -19.6119  -20.6060   20.4328 C   0  0  0  0  0  0  0  0  0  0  0  0
  -28.9215  -23.6196   19.5297 C   0  0  0  0  0  0  0  0  0  0  0  0
  -20.6231  -19.6235   19.8424 C   0  0  0  0  0  0  0  0  0  0  0  0
  -18.4111  -26.0128   20.5623 C   0  0  0  0  0  0  0  0  0  0  0  0
  -19.3801  -25.1898   22.7517 C   0  0  0  0  0  0  0  0  0  0  0  0
  -20.2950  -21.7396   21.1997 C   0  0  0  0  0  0  0  0  0  0  0  0
  -19.7281  -25.6570   19.8742 C   0  0  0  0  0  0  0  0  0  0  0  0
  -20.6752  -24.8567   22.0147 C   0  0  0  0  0  0  0  0  0  0  0  0
  -22.3355  -21.4770   19.8271 C   0  0  0  0  0  0  0  0  0  0  0  0
  -27.6310  -24.2046   18.9432 C   0  0  1  0  0  0  0  0  0  0  0  0
  -27.7689  -27.9873   19.2682 C   0  0  1  0  0  0  0  0  0  0  0  0
  -21.6813  -20.3588   19.0008 C   0  0  1  0  0  0  0  0  0  0  0  0
  -18.5830  -26.2942   22.0555 C   0  0  0  0  0  0  0  0  0  0  0  0
  -14.9448  -29.5357   23.4541 C   0  0  0  0  0  0  0  0  0  0  0  0
  -19.0175  -31.4762   25.1739 C   0  0  0  0  0  0  0  0  0  0  0  0
  -32.0654  -33.5434   22.5351 C   0  0  0  0  0  0  0  0  0  0  0  0
  -30.4639  -27.1282   22.9232 C   0  0  0  0  0  0  0  0  0  0  0  0
  -31.5603  -29.1314   23.9495 C   0  0  0  0  0  0  0  0  0  0  0  0
  -32.3828  -28.2417   21.7689 C   0  0  0  0  0  0  0  0  0  0  0  0
  -29.0927  -34.0405   20.2129 C   0  0  0  0  0  0  0  0  0  0  0  0
  -21.3569  -29.6089   22.4346 C   0  0  0  0  0  0  0  0  0  1  0  0
  -20.6459  -29.4894   23.7932 C   0  0  2  0  0  0  0  0  0  0  0  0
  -30.1691  -29.4601   21.8548 C   0  0  1  0  0  0  0  0  0  0  0  0
  -31.0350  -33.1330   21.4946 C   0  0  2  0  0  0  0  0  0  0  0  0
  -31.1165  -28.4910   22.6169 C   0  0  0  0  0  0  0  0  0  0  0  0
  -23.0373  -18.3028   19.1247 N   0  0  0  0  0  0  0  0  0  0  0  0
  -17.0283  -30.4526   24.2777 N   0  0  0  0  0  0  0  0  0  0  0  0
  -22.7091  -19.4025   18.4254 N   0  0  0  0  0  0  0  0  0  0  0  0
  -28.2919  -28.7265   20.4189 N   0  0  0  0  0  0  0  0  0  0  0  0
  -21.3221  -22.3839   20.3704 N   0  0  0  0  0  0  0  0  0  0  0  0
  -20.4390  -24.5969   20.5882 N   0  0  0  0  0  0  0  0  0  0  0  0
  -23.1605  -20.5649   16.4115 N   0  0  0  0  0  0  0  0  0  0  0  0
  -25.8489  -16.9454   16.1505 N   0  0  0  0  0  0  0  0  0  0  0  0
  -27.7743  -25.6283   18.7267 N   0  0  0  0  0  0  0  0  0  0  0  0
  -30.7698  -30.7487   21.5276 N   0  0  0  0  0  0  0  0  0  0  0  0
  -21.1948  -28.2679   24.4820 N   0  3  0  0  0  0  0  0  0  0  0  0
  -30.1407  -34.2963   21.2344 N   0  3  0  0  0  0  0  0  0  0  0  0
  -25.2040  -18.8670   15.0780 O   0  0  0  0  0  0  0  0  0  0  0  0
  -27.2322  -26.3431   20.8755 O   0  0  0  0  0  0  0  0  0  0  0  0
  -30.4975  -28.5779   19.6776 O   0  0  0  0  0  0  0  0  0  0  0  0
  -29.2095  -32.0483   22.6471 O   0  0  0  0  0  0  0  0  0  0  0  0
  -21.7406  -23.9995   18.7789 O   0  0  0  0  0  0  0  0  0  0  0  0
  -26.2925  -12.8919   19.9462 O   0  0  0  0  0  0  0  0  0  0  0  0
  -19.2232  -27.5541   22.2455 O   0  0  0  0  0  0  0  0  0  0  0  0
  -22.6832  -30.0918   22.6172 O   0  0  0  0  0  0  0  0  0  1  0  0
  -31.7496  -12.3775   19.3467 F   0  0  0  0  0  0  0  0  0  0  0  0
  -27.9217  -12.4266   22.1307 F   0  0  0  0  0  0  0  0  0  0  0  0
  1  2  1  0  0  0  0
  1  5  2  0  0  0  0
  2  6  2  0  0  0  0
  3  8  2  0  0  0  0
  3 16  1  0  0  0  0
  4  9  1  0  0  0  0
  4 16  2  0  0  0  0
  5 18  1  0  0  0  0
  6 20  1  0  0  0  0
  7 10  2  0  0  0  0
  7 19  1  0  0  0  0
  8 23  1  0  0  0  0
  9 23  2  0  0  0  0
 10 24  1  0  0  0  0
 11 12  2  0  0  0  0
 11 25  1  0  0  0  0
 12 27  1  0  0  0  0
 13 21  1  0  0  0  0
 13 24  2  0  0  0  0
 14 26  2  0  0  0  0
 14 30  1  0  0  0  0
 15 27  2  0  0  0  0
 15 28  1  0  0  0  0
 16 29  1  0  0  0  0
 17 29  1  0  0  0  0
 17 32  2  0  0  0  0
 17 33  1  0  0  0  0
 18 20  2  0  0  0  0
 18 38  1  0  0  0  0
 19 21  2  0  0  0  0
 19 39  1  0  0  0  0
 20 51  1  0  0  0  0
 21 40  1  0  0  0  0
 22 26  1  0  0  0  0
 22 31  2  0  0  0  0
 22 63  1  0  0  0  0
 23 84  1  0  0  0  0
 24 86  1  0  0  0  0
 25 28  2  0  0  0  0
 25 84  1  0  0  0  0
 26 85  1  0  0  0  0
 27 87  1  0  0  0  0
 28 88  1  0  0  0  0
 29 67  2  0  0  0  0
 30 55  1  0  0  0  0
 30 68  2  0  0  0  0
 31 56  1  0  0  0  0
 31 68  1  0  0  0  0
 32 69  1  0  0  0  0
 32 73  1  0  0  0  0
 33 74  1  0  0  0  0
 33 79  2  0  0  0  0
 34 52  1  0  0  0  0
 34 75  1  0  0  0  0
 34 80  2  0  0  0  0
 35 64  1  0  0  0  0
 35 70  1  0  0  0  0
 35 81  2  0  0  0  0
 36 65  1  0  0  0  0
 36 76  1  0  0  0  0
 36 82  2  0  0  0  0
 37 71  1  0  0  0  0
 37 72  1  0  0  0  0
 37 83  2  0  0  0  0
 38 41  1  0  0  0  0
 39 52  1  0  0  0  0
 40 70  1  0  0  0  0
 41 43  1  0  0  0  0
 42 44  1  0  0  0  0
 42 47  1  0  0  0  0
 43 51  1  0  0  0  0
 44 53  1  0  0  0  0
 45 48  1  0  0  0  0
 45 54  1  0  0  0  0
 46 49  1  0  0  0  0
 46 54  1  0  0  0  0
 47 71  1  0  0  0  0
 48 72  1  0  0  0  0
 49 72  1  0  0  0  0
 50 53  1  0  0  0  0
 50 71  1  0  0  0  0
 51 75  1  0  0  0  0
 52 70  1  0  0  0  0
 53 69  1  0  0  0  0
 54 85  1  0  0  0  0
 57 65  1  0  0  0  0
 58 66  1  0  0  0  0
 59 66  1  0  0  0  0
 60 66  1  0  0  0  0
 61 78  1  0  0  0  0
 62 63  1  0  0  0  0
 62 86  1  0  0  0  0
 63 77  1  0  0  0  0
 64 66  1  0  0  0  0
 64 76  1  0  0  0  0
 65 78  1  0  0  0  0
 67 69  1  0  0  0  0
M  CHG  2  77   1  78   1
M  ISO  4  37 100  62 101  72 100  86 101
M  END
> <Batch ID>
0158

> <Smiles>
CNC(C)C(=O)NC(C(=O)N1Cc2cc([101O:1][101CH2:1]C(N)c3c(OC4CC[100N:0]([100C:0](=O)N5CCCC(n6nc(-c7ccc(Oc8ccc(F)cc8F)cc7)c(C(N)=O)c6N)C5)CC4)cc(C)nc3C)ccc2CC1C(=O)NC1CCCc2ccccc21)C(C)(C)C

> <Shape>
0.238

> <Color>
0.058

> <Negative vol penalty>
0.000

$$$$

  -OEChem-04052322043D

 89 98  0     1  0  0  0  0  0999 V2000
  -32.2221  -14.8746   20.3722 C   0  0  0  0  0  0  0  0  0  0  0  0
  -31.3474  -15.9484   20.2409 C   0  0  0  0  0  0  0  0  0  0  0  0
  -24.4399  -30.6225   24.8519 C   0  0  0  0  0  0  0  0  0  0  0  0
  -26.1510  -31.2976   26.4183 C   0  0  0  0  0  0  0  0  0  0  0  0
  -31.7388  -13.5693   20.2905 C   0  0  0  0  0  0  0  0  0  0  0  0
  -29.9890  -15.7176   20.0269 C   0  0  0  0  0  0  0  0  0  0  0  0
  -26.9904  -18.6814   22.9791 C   0  0  0  0  0  0  0  0  0  0  0  0
  -23.5109  -30.5664   25.8909 C   0  0  0  0  0  0  0  0  0  0  0  0
  -25.2219  -31.2415   27.4573 C   0  0  0  0  0  0  0  0  0  0  0  0
  -26.8014  -20.0116   22.6067 C   0  0  0  0  0  0  0  0  0  0  0  0
  -21.6440  -32.7422   27.6834 C   0  0  0  0  0  0  0  0  0  0  0  0
  -20.3900  -33.3118   27.4631 C   0  0  0  0  0  0  0  0  0  0  0  0
  -24.6956  -19.4212   21.5892 C   0  0  0  0  0  0  0  0  0  0  0  0
  -19.3476  -31.1673   27.8529 C   0  0  0  0  0  0  0  0  0  0  0  0
  -25.7600  -30.9881   25.1157 C   0  0  0  0  0  0  0  0  0  0  0  0
  -29.3700  -24.4077   17.4398 C   0  0  0  0  0  0  0  0  0  0  0  0
  -27.0241  -32.1562   23.2328 C   0  0  0  0  0  0  0  0  0  0  0  0
  -30.3723  -13.3223   20.0850 C   0  0  0  0  0  0  0  0  0  0  0  0
  -26.0368  -17.7072   22.6499 C   0  0  0  0  0  0  0  0  0  0  0  0
  -29.4872  -14.4078   19.9411 C   0  0  0  0  0  0  0  0  0  0  0  0
  -24.8726  -18.0804   21.9628 C   0  0  0  0  0  0  0  0  0  0  0  0
  -29.3091  -23.9948   16.1004 C   0  0  0  0  0  0  0  0  0  0  0  0
  -30.0431  -24.6915   15.1328 C   0  0  0  0  0  0  0  0  0  0  0  0
  -30.8105  -25.7992   15.4930 C   0  0  0  0  0  0  0  0  0  0  0  0
  -30.8598  -26.2115   16.8232 C   0  0  0  0  0  0  0  0  0  0  0  0
  -23.9019  -30.8759   27.1935 C   0  0  0  0  0  0  0  0  0  0  0  0
  -25.6550  -20.3812   21.9097 C   0  0  0  0  0  0  0  0  0  0  0  0
  -21.7499  -31.3852   27.9884 C   0  0  0  0  0  0  0  0  0  0  0  0
  -30.1452  -25.5164   17.7991 C   0  0  0  0  0  0  0  0  0  0  0  0
  -19.2417  -32.5243   27.5479 C   0  0  0  0  0  0  0  0  0  0  0  0
  -20.6017  -30.5978   28.0732 C   0  0  0  0  0  0  0  0  0  0  0  0
  -26.7202  -31.0458   24.0430 C   0  0  0  0  0  0  0  0  0  0  0  0
  -27.9927  -31.6992   22.3730 C   0  0  0  0  0  0  0  0  0  0  0  0
  -28.6325  -23.6542   18.4901 C   0  0  0  0  0  0  0  0  0  0  0  0
  -26.4795  -33.4823   23.2554 C   0  0  0  0  0  0  0  0  0  0  0  0
  -25.9780  -15.0083   20.9299 C   0  0  0  0  0  0  0  0  0  0  0  0
  -22.9110  -14.8763   22.2064 C   0  0  0  0  0  0  0  0  0  0  0  0
  -22.6782  -11.6307   21.1808 C   0  0  0  0  0  0  0  0  0  0  0  0
  -29.2796  -26.8884   19.4951 C   0  0  0  0  0  0  0  0  0  0  0  0
  -29.9040  -11.8944   19.9566 C   0  0  0  0  0  0  0  0  0  0  0  0
  -26.2455  -16.2827   23.0877 C   0  0  0  0  0  0  0  0  0  0  0  0
  -28.5135  -22.7791   15.7234 C   0  0  0  0  0  0  0  0  0  0  0  0
  -23.8182  -17.0737   21.5895 C   0  0  0  0  0  0  0  0  0  0  0  0
  -28.3930  -11.7335   20.1022 C   0  0  0  0  0  0  0  0  0  0  0  0
  -31.2032  -27.9521   22.3940 C   0  0  0  0  0  0  0  0  0  0  0  0
  -27.6617  -12.7780   19.2648 C   0  0  0  0  0  0  0  0  0  0  0  0
  -30.2445  -28.9406   23.0572 C   0  0  0  0  0  0  0  0  0  0  0  0
  -27.3028  -22.6575   16.6337 C   0  0  0  0  0  0  0  0  0  0  0  0
  -30.4528  -26.7987   21.7339 C   0  0  0  0  0  0  0  0  0  0  0  0
  -28.4538  -28.2328   21.4127 C   0  0  0  0  0  0  0  0  0  0  0  0
  -28.0030  -14.1978   19.7328 C   0  0  1  0  0  0  0  0  0  0  0  0
  -25.4149  -15.2736   22.2974 C   0  0  1  0  0  0  0  0  0  0  0  0
  -29.1757  -29.4253   22.0617 C   0  0  1  0  0  0  0  0  0  0  0  0
  -30.0073  -24.2704   13.6958 C   0  0  0  0  0  0  0  0  0  0  0  0
  -31.5782  -26.5508   14.4507 C   0  0  0  0  0  0  0  0  0  0  0  0
  -31.6781  -27.4045   17.2077 C   0  0  0  0  0  0  0  0  0  0  0  0
  -21.2168   -9.6008   21.3836 C   0  0  0  0  0  0  0  0  0  0  0  0
  -23.4592  -22.6954   20.7202 C   0  0  0  0  0  0  0  0  0  0  0  0
  -23.9728  -14.3976   25.0258 C   0  0  0  0  0  0  0  0  0  0  0  0
  -23.2866  -12.0004   24.8012 C   0  0  0  0  0  0  0  0  0  0  0  0
  -21.5652  -13.8031   24.7026 C   0  0  0  0  0  0  0  0  0  0  0  0
  -22.1787  -11.5562   18.2647 C   0  0  0  0  0  0  0  0  0  0  0  0
  -25.5723  -22.6820   19.3368 C   0  0  0  0  0  0  0  0  0  0  0  0
  -26.8800  -21.9740   18.9876 C   0  0  0  0  0  0  0  0  0  0  0  0
  -23.1459  -13.4908   22.7543 C   0  0  1  0  0  0  0  0  0  0  0  0
  -21.5304  -10.8470   20.5702 C   0  0  2  0  0  0  0  0  0  0  0  0
  -24.7171  -21.9179   20.3556 C   0  0  1  0  0  0  0  0  0  1  0  0
  -23.0104  -13.4347   24.3022 C   0  0  0  0  0  0  0  0  0  0  0  0
  -27.4376  -29.9646   23.7261 N   0  0  0  0  0  0  0  0  0  0  0  0
  -28.2018  -30.3935   22.7072 N   0  0  0  0  0  0  0  0  0  0  0  0
  -27.6834  -22.7313   18.0406 N   0  0  0  0  0  0  0  0  0  0  0  0
  -24.0274  -15.7170   22.1117 N   0  0  0  0  0  0  0  0  0  0  0  0
  -29.4147  -27.2968   20.8261 N   0  0  0  0  0  0  0  0  0  0  0  0
  -28.6774  -32.2907   21.3712 N   0  0  0  0  0  0  0  0  0  0  0  0
  -25.4919  -33.7830   24.2034 N   0  0  0  0  0  0  0  0  0  0  0  0
  -27.2714  -14.5221   20.9386 N   0  0  0  0  0  0  0  0  0  0  0  0
  -22.2277  -12.6090   22.0418 N   0  0  0  0  0  0  0  0  0  0  0  0
  -21.8704  -10.4282   19.1810 N   0  3  0  0  0  0  0  0  0  0  0  0
  -28.8942  -23.8699   19.6712 O   0  0  0  0  0  0  0  0  0  0  0  0
  -26.8456  -34.3696   22.4479 O   0  0  0  0  0  0  0  0  0  0  0  0
  -25.2894  -15.2271   19.9401 O   0  0  0  0  0  0  0  0  0  0  0  0
  -21.7688  -15.2091   21.8780 O   0  0  0  0  0  0  0  0  0  0  0  0
  -23.8567  -11.3960   20.9229 O   0  0  0  0  0  0  0  0  0  0  0  0
  -28.4106  -27.3029   18.7288 O   0  0  0  0  0  0  0  0  0  0  0  0
  -22.9956  -30.8214   28.2075 O   0  0  0  0  0  0  0  0  0  0  0  0
  -30.2471  -25.9501   19.1248 O   0  0  0  0  0  0  0  0  0  0  0  0
  -25.4677  -21.6790   21.5455 O   0  0  0  0  0  0  0  0  0  1  0  0
  -18.0374  -33.0717   27.3379 F   0  0  0  0  0  0  0  0  0  0  0  0
  -20.6970  -29.2938   28.3670 F   0  0  0  0  0  0  0  0  0  0  0  0
  1  2  1  0  0  0  0
  1  5  2  0  0  0  0
  2  6  2  0  0  0  0
  3  8  2  0  0  0  0
  3 15  1  0  0  0  0
  4  9  1  0  0  0  0
  4 15  2  0  0  0  0
  5 18  1  0  0  0  0
  6 20  1  0  0  0  0
  7 10  2  0  0  0  0
  7 19  1  0  0  0  0
  8 26  1  0  0  0  0
  9 26  2  0  0  0  0
 10 27  1  0  0  0  0
 11 12  2  0  0  0  0
 11 28  1  0  0  0  0
 12 30  1  0  0  0  0
 13 21  1  0  0  0  0
 13 27  2  0  0  0  0
 14 30  2  0  0  0  0
 14 31  1  0  0  0  0
 15 32  1  0  0  0  0
 16 22  2  0  0  0  0
 16 29  1  0  0  0  0
 16 34  1  0  0  0  0
 17 32  1  0  0  0  0
 17 33  2  0  0  0  0
 17 35  1  0  0  0  0
 18 20  2  0  0  0  0
 18 40  1  0  0  0  0
 19 21  2  0  0  0  0
 19 41  1  0  0  0  0
 20 51  1  0  0  0  0
 21 43  1  0  0  0  0
 22 23  1  0  0  0  0
 22 42  1  0  0  0  0
 23 24  2  0  0  0  0
 23 54  1  0  0  0  0
 24 25  1  0  0  0  0
 24 55  1  0  0  0  0
 25 29  2  0  0  0  0
 25 56  1  0  0  0  0
 26 85  1  0  0  0  0
 27 87  1  0  0  0  0
 28 31  2  0  0  0  0
 28 85  1  0  0  0  0
 29 86  1  0  0  0  0
 30 88  1  0  0  0  0
 31 89  1  0  0  0  0
 32 69  2  0  0  0  0
 33 70  1  0  0  0  0
 33 74  1  0  0  0  0
 34 71  1  0  0  0  0
 34 79  2  0  0  0  0
 35 75  1  0  0  0  0
 35 80  2  0  0  0  0
 36 52  1  0  0  0  0
 36 76  1  0  0  0  0
 36 81  2  0  0  0  0
 37 65  1  0  0  0  0
 37 72  1  0  0  0  0
 37 82  2  0  0  0  0
 38 66  1  0  0  0  0
 38 77  1  0  0  0  0
 38 83  2  0  0  0  0
 39 73  1  0  0  0  0
 39 84  2  0  0  0  0
 39 86  1  0  0  0  0
 40 44  1  0  0  0  0
 41 52  1  0  0  0  0
 42 48  1  0  0  0  0
 43 72  1  0  0  0  0
 44 46  1  0  0  0  0
 45 47  1  0  0  0  0
 45 49  1  0  0  0  0
 46 51  1  0  0  0  0
 47 53  1  0  0  0  0
 48 71  1  0  0  0  0
 49 73  1  0  0  0  0
 50 53  1  0  0  0  0
 50 73  1  0  0  0  0
 51 76  1  0  0  0  0
 52 72  1  0  0  0  0
 53 70  1  0  0  0  0
 57 66  1  0  0  0  0
 58 67  1  0  0  0  0
 59 68  1  0  0  0  0
 60 68  1  0  0  0  0
 61 68  1  0  0  0  0
 62 78  1  0  0  0  0
 63 64  1  0  0  0  0
 63 67  1  0  0  0  0
 64 71  1  0  0  0  0
 65 68  1  0  0  0  0
 65 77  1  0  0  0  0
 66 78  1  0  0  0  0
 67 87  1  0  0  0  0
 69 70  1  0  0  0  0
M  CHG  1  78   1
M  ISO  4  39 100  67 101  86 100  87 101
M  END
> <Batch ID>
0158

> <Smiles>
CNC(C)C(=O)NC(C(=O)N1Cc2cc([101O:1][101CH:1](C)CCN3CCc4c(C)c(C)c(C)c([100O:0][100C:0](=O)N5CCCC(n6nc(-c7ccc(Oc8ccc(F)cc8F)cc7)c(C(N)=O)c6N)C5)c4C3=O)ccc2CC1C(=O)NC1CCCc2ccccc21)C(C)(C)C

> <Shape>
0.221

> <Color>
0.095

> <Negative vol penalty>
0.000

$$$$

  -OEChem-04052322043D

 89 99  0     1  0  0  0  0  0999 V2000
  -28.7738  -35.8431   26.0056 C   0  0  0  0  0  0  0  0  0  0  0  0
  -28.8608  -34.5620   25.4703 C   0  0  0  0  0  0  0  0  0  0  0  0
  -23.7028  -10.4508   22.5657 C   0  0  0  0  0  0  0  0  0  0  0  0
  -24.7115   -8.4951   21.5684 C   0  0  0  0  0  0  0  0  0  0  0  0
  -27.5299  -36.3703   26.3502 C   0  0  0  0  0  0  0  0  0  0  0  0
  -27.7041  -33.8068   25.2803 C   0  0  0  0  0  0  0  0  0  0  0  0
  -29.5513  -21.7003   22.3220 C   0  0  0  0  0  0  0  0  0  0  0  0
  -29.4799  -23.0747   22.0950 C   0  0  0  0  0  0  0  0  0  0  0  0
  -27.6061  -31.5038   20.7713 C   0  0  0  0  0  0  0  0  0  0  0  0
  -22.4856   -9.7761   22.6580 C   0  0  0  0  0  0  0  0  0  0  0  0
  -23.4942   -7.8202   21.6607 C   0  0  0  0  0  0  0  0  0  0  0  0
  -28.3745  -30.3492   20.6293 C   0  0  0  0  0  0  0  0  0  0  0  0
  -20.7446   -5.4611   21.9643 C   0  0  0  0  0  0  0  0  0  0  0  0
  -20.7636   -4.1496   22.4388 C   0  0  0  0  0  0  0  0  0  0  0  0
  -29.4444  -21.3014   19.9416 C   0  0  0  0  0  0  0  0  0  0  0  0
  -26.3984  -29.0024   20.9463 C   0  0  0  0  0  0  0  0  0  0  0  0
  -21.7211   -4.9165   24.5202 C   0  0  0  0  0  0  0  0  0  0  0  0
  -24.8158   -9.8103   22.0209 C   0  0  0  0  0  0  0  0  0  0  0  0
  -27.0998  -10.5452   22.8875 C   0  0  0  0  0  0  0  0  0  0  0  0
  -29.5337  -20.8136   21.2453 C   0  0  0  0  0  0  0  0  0  0  0  0
  -26.3564  -35.6250   26.1554 C   0  0  0  0  0  0  0  0  0  0  0  0
  -26.2276  -31.4161   21.0132 C   0  0  0  0  0  0  0  0  0  0  0  0
  -26.4435  -34.3241   25.6239 C   0  0  0  0  0  0  0  0  0  0  0  0
  -29.3907  -23.5624   20.7912 C   0  0  0  0  0  0  0  0  0  0  0  0
  -25.6143  -30.1574   21.0885 C   0  0  0  0  0  0  0  0  0  0  0  0
  -22.3812   -8.4608   22.2055 C   0  0  0  0  0  0  0  0  0  0  0  0
  -27.7712  -29.0982   20.7196 C   0  0  0  0  0  0  0  0  0  0  0  0
  -21.2139   -6.5003   22.7678 C   0  0  0  0  0  0  0  0  0  0  0  0
  -29.3729  -22.6758   19.7145 C   0  0  0  0  0  0  0  0  0  0  0  0
  -21.2518   -3.8772   23.7168 C   0  0  0  0  0  0  0  0  0  0  0  0
  -21.7021   -6.2280   24.0457 C   0  0  0  0  0  0  0  0  0  0  0  0
  -26.0734  -10.5070   21.9248 C   0  0  0  0  0  0  0  0  0  0  0  0
  -28.0718  -11.3338   22.3220 C   0  0  0  0  0  0  0  0  0  0  0  0
  -27.1685   -9.9234   24.1776 C   0  0  0  0  0  0  0  0  0  0  0  0
  -24.3028  -32.3199   23.3758 C   0  0  0  0  0  0  0  0  0  0  0  0
  -21.9802  -31.3223   21.3429 C   0  0  0  0  0  0  0  0  0  0  0  0
  -21.0917  -29.3516   18.7022 C   0  0  0  0  0  0  0  0  0  0  0  0
  -29.7377  -15.7307   19.5090 C   0  0  0  0  0  0  0  0  0  0  0  0
  -25.0391  -36.2190   26.5871 C   0  0  0  0  0  0  0  0  0  0  0  0
  -25.4082  -32.6713   21.1374 C   0  0  0  0  0  0  0  0  0  0  0  0
  -24.1345  -30.0093   21.3266 C   0  0  0  0  0  0  0  0  0  0  0  0
  -23.8259  -35.4976   26.0057 C   0  0  0  0  0  0  0  0  0  0  0  0
  -28.5763  -13.0852   17.6115 C   0  0  0  0  0  0  0  0  0  0  0  0
  -30.5253  -25.8470   21.0963 C   0  0  0  0  0  0  0  0  0  0  0  0
  -23.9828  -33.9873   26.1506 C   0  0  0  0  0  0  0  0  0  0  0  0
  -27.9032  -12.1715   18.6354 C   0  0  0  0  0  0  0  0  0  0  0  0
  -29.9688  -26.8119   22.1417 C   0  0  0  0  0  0  0  0  0  0  0  0
  -28.3495  -18.5862   21.0047 C   0  0  0  0  0  0  0  0  0  0  0  0
  -30.8753  -18.6964   20.8708 C   0  0  0  0  0  0  0  0  0  0  0  0
  -28.0733  -25.6902   21.2279 C   0  0  0  0  0  0  0  0  0  0  0  0
  -28.2698  -14.5498   17.9023 C   0  0  0  0  0  0  0  0  0  0  0  0
  -28.4492  -17.0745   21.2281 C   0  0  0  0  0  0  0  0  0  0  0  0
  -30.9166  -17.1919   21.1226 C   0  0  0  0  0  0  0  0  0  0  0  0
  -27.9890  -14.0804   20.3146 C   0  0  0  0  0  0  0  0  0  0  0  0
  -29.6122  -19.3189   21.4928 C   0  0  0  0  0  0  0  0  0  0  0  0
  -29.3125  -25.0556   20.5643 C   0  0  2  0  0  0  0  0  0  0  0  0
  -25.2090  -33.4835   25.3798 C   0  0  1  0  0  0  0  0  0  0  0  0
  -24.1004  -32.4587   21.8935 C   0  0  1  0  0  0  0  0  0  0  0  0
  -28.2721  -12.5840   20.0714 C   0  0  1  0  0  0  0  0  0  0  0  0
  -28.5403  -27.0654   21.6852 C   0  0  2  0  0  0  0  0  0  1  0  0
  -19.1140  -28.7223   17.2914 C   0  0  0  0  0  0  0  0  0  0  0  0
  -20.9281  -29.5663   23.6055 C   0  0  0  0  0  0  0  0  0  0  0  0
  -19.6001  -28.2938   21.9068 C   0  0  0  0  0  0  0  0  0  0  0  0
  -19.1562  -30.7213   22.2712 C   0  0  0  0  0  0  0  0  0  0  0  0
  -22.3764  -30.3735   16.2396 C   0  0  0  0  0  0  0  0  0  0  0  0
  -29.2753  -22.1594   17.3951 C   0  0  0  0  0  0  0  0  0  0  0  0
  -21.2742  -30.0129   21.0862 C   0  0  1  0  0  0  0  0  0  0  0  0
  -20.3067  -29.6543   17.4386 C   0  0  2  0  0  0  0  0  0  0  0  0
  -20.2679  -29.6510   22.2149 C   0  0  0  0  0  0  0  0  0  0  0  0
  -26.3660  -11.2152   20.8308 N   0  0  0  0  0  0  0  0  0  0  0  0
  -27.5872  -11.7059   21.1026 N   0  0  0  0  0  0  0  0  0  0  0  0
  -23.3773  -31.2660   21.4477 N   0  0  0  0  0  0  0  0  0  0  0  0
  -28.6305  -14.9011   19.2757 N   0  0  0  0  0  0  0  0  0  0  0  0
  -29.6925  -16.5453   20.6505 N   0  0  0  0  0  0  0  0  0  0  0  0
  -29.2851  -11.7385   22.7539 N   0  0  0  0  0  0  0  0  0  0  0  0
  -26.0823   -9.1469   24.6037 N   0  0  0  0  0  0  0  0  0  0  0  0
  -24.9197  -33.4077   23.9638 N   0  0  0  0  0  0  0  0  0  0  0  0
  -20.6717  -30.1267   19.7624 N   0  0  0  0  0  0  0  0  0  0  0  0
  -21.1763  -29.4979   16.2385 N   0  3  0  0  0  0  0  0  0  0  0  0
  -28.1566  -10.0659   24.9370 O   0  0  0  0  0  0  0  0  0  0  0  0
  -23.9259  -31.3018   23.9444 O   0  0  0  0  0  0  0  0  0  0  0  0
  -21.3173  -32.3581   21.4396 O   0  0  0  0  0  0  0  0  0  0  0  0
  -21.9854  -28.5090   18.7453 O   0  0  0  0  0  0  0  0  0  0  0  0
  -30.7098  -15.7430   18.7436 O   0  0  0  0  0  0  0  0  0  0  0  0
  -21.1936   -7.8019   22.2956 O   0  0  0  0  0  0  0  0  0  0  0  0
  -28.5241  -27.9618   20.5811 O   0  0  0  0  0  0  0  0  0  1  0  0
  -29.2873  -23.1355   18.4348 O   0  0  0  0  0  0  0  0  0  0  0  0
  -21.2686   -2.6179   24.1729 F   0  0  0  0  0  0  0  0  0  0  0  0
  -22.1532   -7.2224   24.8226 F   0  0  0  0  0  0  0  0  0  0  0  0
  1  2  1  0  0  0  0
  1  5  2  0  0  0  0
  2  6  2  0  0  0  0
  3 10  2  0  0  0  0
  3 18  1  0  0  0  0
  4 11  1  0  0  0  0
  4 18  2  0  0  0  0
  5 21  1  0  0  0  0
  6 23  1  0  0  0  0
  7  8  2  0  0  0  0
  7 20  1  0  0  0  0
  8 24  1  0  0  0  0
  9 12  2  0  0  0  0
  9 22  1  0  0  0  0
 10 26  1  0  0  0  0
 11 26  2  0  0  0  0
 12 27  1  0  0  0  0
 13 14  2  0  0  0  0
 13 28  1  0  0  0  0
 14 30  1  0  0  0  0
 15 20  2  0  0  0  0
 15 29  1  0  0  0  0
 16 25  1  0  0  0  0
 16 27  2  0  0  0  0
 17 30  2  0  0  0  0
 17 31  1  0  0  0  0
 18 32  1  0  0  0  0
 19 32  1  0  0  0  0
 19 33  2  0  0  0  0
 19 34  1  0  0  0  0
 20 55  1  0  0  0  0
 21 23  2  0  0  0  0
 21 39  1  0  0  0  0
 22 25  2  0  0  0  0
 22 40  1  0  0  0  0
 23 57  1  0  0  0  0
 24 29  2  0  0  0  0
 24 56  1  0  0  0  0
 25 41  1  0  0  0  0
 26 85  1  0  0  0  0
 27 86  1  0  0  0  0
 28 31  2  0  0  0  0
 28 85  1  0  0  0  0
 29 87  1  0  0  0  0
 30 88  1  0  0  0  0
 31 89  1  0  0  0  0
 32 70  2  0  0  0  0
 33 71  1  0  0  0  0
 33 75  1  0  0  0  0
 34 76  1  0  0  0  0
 34 80  2  0  0  0  0
 35 58  1  0  0  0  0
 35 77  1  0  0  0  0
 35 81  2  0  0  0  0
 36 67  1  0  0  0  0
 36 72  1  0  0  0  0
 36 82  2  0  0  0  0
 37 68  1  0  0  0  0
 37 78  1  0  0  0  0
 37 83  2  0  0  0  0
 38 73  1  0  0  0  0
 38 74  1  0  0  0  0
 38 84  2  0  0  0  0
 39 42  1  0  0  0  0
 40 58  1  0  0  0  0
 41 72  1  0  0  0  0
 42 45  1  0  0  0  0
 43 46  1  0  0  0  0
 43 51  1  0  0  0  0
 44 47  1  0  0  0  0
 44 56  1  0  0  0  0
 45 57  1  0  0  0  0
 46 59  1  0  0  0  0
 47 60  1  0  0  0  0
 48 52  1  0  0  0  0
 48 55  1  0  0  0  0
 49 53  1  0  0  0  0
 49 55  1  0  0  0  0
 50 56  1  0  0  0  0
 50 60  1  0  0  0  0
 51 73  1  0  0  0  0
 52 74  1  0  0  0  0
 53 74  1  0  0  0  0
 54 59  1  0  0  0  0
 54 73  1  0  0  0  0
 57 77  1  0  0  0  0
 58 72  1  0  0  0  0
 59 71  1  0  0  0  0
 60 86  1  0  0  0  0
 61 68  1  0  0  0  0
 62 69  1  0  0  0  0
 63 69  1  0  0  0  0
 64 69  1  0  0  0  0
 65 79  1  0  0  0  0
 66 87  1  0  0  0  0
 67 69  1  0  0  0  0
 67 78  1  0  0  0  0
 68 79  1  0  0  0  0
 70 71  1  0  0  0  0
M  CHG  1  79   1
M  ISO  4  38 100  60 101  74 100  86 101
M  END
> <Batch ID>
0158

> <Smiles>
CNC(C)C(=O)NC(C(=O)N1Cc2cc([101O:1][101CH:1]3CCC(c4ccc(C5CC[100N:0]([100C:0](=O)N6CCCC(n7nc(-c8ccc(Oc9ccc(F)cc9F)cc8)c(C(N)=O)c7N)C6)CC5)cc4OC)C3)ccc2CC1C(=O)NC1CCCc2ccccc21)C(C)(C)C

> <Shape>
0.322

> <Color>
0.080

> <Negative vol penalty>
0.000

$$$$

  -OEChem-04052322043D

 86 95  0     1  0  0  0  0  0999 V2000
  -21.2436  -32.1566   15.2215 C   0  0  0  0  0  0  0  0  0  0  0  0
  -21.2086  -30.7793   15.4141 C   0  0  0  0  0  0  0  0  0  0  0  0
  -23.2894   -9.7977   19.9070 C   0  0  0  0  0  0  0  0  0  0  0  0
  -23.7069   -9.9426   22.2822 C   0  0  0  0  0  0  0  0  0  0  0  0
  -22.3711  -32.8839   15.6006 C   0  0  0  0  0  0  0  0  0  0  0  0
  -22.3015  -30.1282   15.9849 C   0  0  0  0  0  0  0  0  0  0  0  0
  -22.1585  -25.2659   19.7057 C   0  0  0  0  0  0  0  0  0  0  0  0
  -22.5530   -8.6302   20.1076 C   0  0  0  0  0  0  0  0  0  0  0  0
  -22.9705   -8.7750   22.4829 C   0  0  0  0  0  0  0  0  0  0  0  0
  -22.3432  -23.9033   19.4759 C   0  0  0  0  0  0  0  0  0  0  0  0
  -19.7152   -7.8840   22.6560 C   0  0  0  0  0  0  0  0  0  0  0  0
  -18.7976   -7.8708   23.7064 C   0  0  0  0  0  0  0  0  0  0  0  0
  -25.7762  -18.4920   17.1235 C   0  0  0  0  0  0  0  0  0  0  0  0
  -24.6543  -24.1116   20.1352 C   0  0  0  0  0  0  0  0  0  0  0  0
  -27.2998  -20.3484   17.3361 C   0  0  0  0  0  0  0  0  0  0  0  0
  -19.9779   -6.0193   24.7143 C   0  0  0  0  0  0  0  0  0  0  0  0
  -23.8663  -10.4539   20.9943 C   0  0  0  0  0  0  0  0  0  0  0  0
  -24.1438  -12.9817   20.7923 C   0  0  0  0  0  0  0  0  0  0  0  0
  -23.4746  -32.2427   16.1853 C   0  0  0  0  0  0  0  0  0  0  0  0
  -23.2249  -26.0651   20.1422 C   0  0  0  0  0  0  0  0  0  0  0  0
  -23.4454  -30.8473   16.3710 C   0  0  0  0  0  0  0  0  0  0  0  0
  -26.8526  -17.5923   17.0845 C   0  0  0  0  0  0  0  0  0  0  0  0
  -24.4799  -25.4836   20.3722 C   0  0  0  0  0  0  0  0  0  0  0  0
  -28.1690  -18.0799   17.1806 C   0  0  0  0  0  0  0  0  0  0  0  0
  -22.3936   -8.1188   21.3955 C   0  0  0  0  0  0  0  0  0  0  0  0
  -23.5920  -23.3264   19.6879 C   0  0  0  0  0  0  0  0  0  0  0  0
  -20.7642   -6.9648   22.6347 C   0  0  0  0  0  0  0  0  0  0  0  0
  -25.9995  -19.8627   17.2436 C   0  0  0  0  0  0  0  0  0  0  0  0
  -28.3774  -19.4637   17.3071 C   0  0  0  0  0  0  0  0  0  0  0  0
  -18.9289   -6.9385   24.7356 C   0  0  0  0  0  0  0  0  0  0  0  0
  -20.8956   -6.0325   23.6639 C   0  0  0  0  0  0  0  0  0  0  0  0
  -24.6275  -11.6597   20.7877 C   0  0  0  0  0  0  0  0  0  0  0  0
  -25.2535  -13.7543   20.5510 C   0  0  0  0  0  0  0  0  0  0  0  0
  -22.8105  -13.4680   20.9965 C   0  0  0  0  0  0  0  0  0  0  0  0
  -24.7794  -28.5727   18.9593 C   0  0  0  0  0  0  0  0  0  0  0  0
  -26.2458  -28.5362   21.8525 C   0  0  0  0  0  0  0  0  0  0  0  0
  -27.1654  -26.7514   24.6122 C   0  0  0  0  0  0  0  0  0  0  0  0
  -29.9218  -14.8643   17.9487 C   0  0  0  0  0  0  0  0  0  0  0  0
  -24.6899  -33.0643   16.5355 C   0  0  0  0  0  0  0  0  0  0  0  0
  -23.0025  -27.5282   20.4110 C   0  0  0  0  0  0  0  0  0  0  0  0
  -26.5661  -16.1151   17.0054 C   0  0  0  0  0  0  0  0  0  0  0  0
  -25.6520  -26.2939   20.8600 C   0  0  0  0  0  0  0  0  0  0  0  0
  -25.6565  -32.3511   17.4775 C   0  0  0  0  0  0  0  0  0  0  0  0
  -30.1623  -12.5679   20.5054 C   0  0  0  0  0  0  0  0  0  0  0  0
  -25.9020  -30.9208   17.0078 C   0  0  0  0  0  0  0  0  0  0  0  0
  -28.7066  -12.2252   20.8210 C   0  0  0  0  0  0  0  0  0  0  0  0
  -27.7910  -15.2863   16.6373 C   0  0  0  0  0  0  0  0  0  0  0  0
  -30.3834  -12.6730   19.0008 C   0  0  0  0  0  0  0  0  0  0  0  0
  -28.0296  -13.3339   18.6339 C   0  0  0  0  0  0  0  0  0  0  0  0
  -24.6013  -30.1085   17.0099 C   0  0  1  0  0  0  0  0  0  0  0  0
  -29.3646  -17.1449   17.1404 C   0  0  2  0  0  0  0  0  0  0  0  0
  -24.2887  -28.3471   20.3614 C   0  0  1  0  0  0  0  0  0  0  0  0
  -27.7473  -13.2210   20.1458 C   0  0  1  0  0  0  0  0  0  0  0  0
  -30.1410  -17.3042   15.8251 C   0  0  0  0  0  0  0  0  0  0  0  0
  -28.3869  -26.9844   26.7919 C   0  0  0  0  0  0  0  0  0  0  0  0
  -28.9083  -28.4894   20.3628 C   0  0  0  0  0  0  0  0  0  0  0  0
  -30.0088  -27.7728   22.4943 C   0  0  0  0  0  0  0  0  0  0  0  0
  -28.8607  -29.9838   22.3675 C   0  0  0  0  0  0  0  0  0  0  0  0
  -24.7520  -26.0459   26.1732 C   0  0  0  0  0  0  0  0  0  0  0  0
  -30.1483  -20.1229   18.7511 C   0  0  0  0  0  0  0  0  0  0  0  0
  -22.9673  -21.3903   18.4562 C   0  0  0  0  0  0  0  0  0  1  0  0
  -23.7256  -20.2346   17.8325 C   0  0  0  0  0  0  0  0  0  0  0  0
  -27.4758  -27.8692   22.4194 C   0  0  1  0  0  0  0  0  0  0  0  0
  -27.0370  -27.0516   26.0948 C   0  0  2  0  0  0  0  0  0  0  0  0
  -28.7920  -28.5136   21.8999 C   0  0  0  0  0  0  0  0  0  0  0  0
  -25.9422  -11.5925   20.5612 N   0  0  0  0  0  0  0  0  0  0  0  0
  -26.2939  -12.8820   20.4212 N   0  0  0  0  0  0  0  0  0  0  0  0
  -25.3859  -27.7215   21.1024 N   0  0  0  0  0  0  0  0  0  0  0  0
  -29.4502  -13.6214   18.3932 N   0  0  0  0  0  0  0  0  0  0  0  0
  -28.9832  -15.7372   17.3664 N   0  0  0  0  0  0  0  0  0  0  0  0
  -25.4310  -15.0879   20.4392 N   0  0  0  0  0  0  0  0  0  0  0  0
  -21.7889  -12.5379   21.2321 N   0  0  0  0  0  0  0  0  0  0  0  0
  -24.2609  -29.7029   18.3568 N   0  0  0  0  0  0  0  0  0  0  0  0
  -27.3262  -27.9024   23.8702 N   0  0  0  0  0  0  0  0  0  0  0  0
  -26.1231  -26.0701   26.7447 N   0  3  0  0  0  0  0  0  0  0  0  0
  -22.5305  -14.6900   20.9546 O   0  0  0  0  0  0  0  0  0  0  0  0
  -25.5711  -27.7808   18.4615 O   0  0  0  0  0  0  0  0  0  0  0  0
  -26.0514  -29.7341   22.0734 O   0  0  0  0  0  0  0  0  0  0  0  0
  -27.1306  -25.6099   24.1583 O   0  0  0  0  0  0  0  0  0  0  0  0
  -31.1147  -15.1744   18.0609 O   0  0  0  0  0  0  0  0  0  0  0  0
  -21.6749   -6.9797   21.5916 O   0  0  0  0  0  0  0  0  0  0  0  0
  -29.6343  -19.9815   17.4295 O   0  0  0  0  0  0  0  0  0  0  0  0
  -23.7764  -21.9877   19.4623 O   0  0  0  0  0  0  0  0  0  1  0  0
  -24.9458  -20.7232   17.2773 O   0  0  0  0  0  0  0  0  0  0  0  0
  -18.0485   -6.9270   25.7450 F   0  0  0  0  0  0  0  0  0  0  0  0
  -21.9019   -5.1477   23.6496 F   0  0  0  0  0  0  0  0  0  0  0  0
  1  2  1  0  0  0  0
  1  5  2  0  0  0  0
  2  6  2  0  0  0  0
  3  8  2  0  0  0  0
  3 17  1  0  0  0  0
  4  9  1  0  0  0  0
  4 17  2  0  0  0  0
  5 19  1  0  0  0  0
  6 21  1  0  0  0  0
  7 10  2  0  0  0  0
  7 20  1  0  0  0  0
  8 25  1  0  0  0  0
  9 25  2  0  0  0  0
 10 26  1  0  0  0  0
 11 12  2  0  0  0  0
 11 27  1  0  0  0  0
 12 30  1  0  0  0  0
 13 22  2  0  0  0  0
 13 28  1  0  0  0  0
 14 23  1  0  0  0  0
 14 26  2  0  0  0  0
 15 28  2  0  0  0  0
 15 29  1  0  0  0  0
 16 30  2  0  0  0  0
 16 31  1  0  0  0  0
 17 32  1  0  0  0  0
 18 32  1  0  0  0  0
 18 33  2  0  0  0  0
 18 34  1  0  0  0  0
 19 21  2  0  0  0  0
 19 39  1  0  0  0  0
 20 23  2  0  0  0  0
 20 40  1  0  0  0  0
 21 50  1  0  0  0  0
 22 24  1  0  0  0  0
 22 41  1  0  0  0  0
 23 42  1  0  0  0  0
 24 29  2  0  0  0  0
 24 51  1  0  0  0  0
 25 81  1  0  0  0  0
 26 83  1  0  0  0  0
 27 31  2  0  0  0  0
 27 81  1  0  0  0  0
 28 84  1  0  0  0  0
 29 82  1  0  0  0  0
 30 85  1  0  0  0  0
 31 86  1  0  0  0  0
 32 66  2  0  0  0  0
 33 67  1  0  0  0  0
 33 71  1  0  0  0  0
 34 72  1  0  0  0  0
 34 76  2  0  0  0  0
 35 52  1  0  0  0  0
 35 73  1  0  0  0  0
 35 77  2  0  0  0  0
 36 63  1  0  0  0  0
 36 68  1  0  0  0  0
 36 78  2  0  0  0  0
 37 64  1  0  0  0  0
 37 74  1  0  0  0  0
 37 79  2  0  0  0  0
 38 69  1  0  0  0  0
 38 70  1  0  0  0  0
 38 80  2  0  0  0  0
 39 43  1  0  0  0  0
 40 52  1  0  0  0  0
 41 47  1  0  0  0  0
 42 68  1  0  0  0  0
 43 45  1  0  0  0  0
 44 46  1  0  0  0  0
 44 48  1  0  0  0  0
 45 50  1  0  0  0  0
 46 53  1  0  0  0  0
 47 70  1  0  0  0  0
 48 69  1  0  0  0  0
 49 53  1  0  0  0  0
 49 69  1  0  0  0  0
 50 73  1  0  0  0  0
 51 54  1  0  0  0  0
 51 70  1  0  0  0  0
 52 68  1  0  0  0  0
 53 67  1  0  0  0  0
 55 64  1  0  0  0  0
 56 65  1  0  0  0  0
 57 65  1  0  0  0  0
 58 65  1  0  0  0  0
 59 75  1  0  0  0  0
 60 82  1  0  0  0  0
 61 62  1  0  0  0  0
 61 83  1  0  0  0  0
 62 84  1  0  0  0  0
 63 65  1  0  0  0  0
 63 74  1  0  0  0  0
 64 75  1  0  0  0  0
 66 67  1  0  0  0  0
M  CHG  1  75   1
M  ISO  4  38 100  61 101  70 100  83 101
M  END
> <Batch ID>
0158

> <Smiles>
CNC(C)C(=O)NC(C(=O)N1Cc2cc([101O:1][101CH2:1]COc3cc4c(c(OC)c3)C(C)[100N:0]([100C:0](=O)N3CCCC(n5nc(-c6ccc(Oc7ccc(F)cc7F)cc6)c(C(N)=O)c5N)C3)CC4)ccc2CC1C(=O)NC1CCCc2ccccc21)C(C)(C)C

> <Shape>
0.191

> <Color>
0.174

> <Negative vol penalty>
0.000

$$$$

  -OEChem-04052322043D

 89 99  0     1  0  0  0  0  0999 V2000
  -30.7576  -20.5253   21.8911 C   0  0  0  0  0  0  0  0  0  0  0  0
  -29.3925  -20.7675   21.7764 C   0  0  0  0  0  0  0  0  0  0  0  0
  -28.0997  -26.8555   21.8012 C   0  0  0  0  0  0  0  0  0  0  0  0
  -28.8948  -28.5070   20.2272 C   0  0  0  0  0  0  0  0  0  0  0  0
  -31.2855  -19.3047   21.4720 C   0  0  0  0  0  0  0  0  0  0  0  0
  -28.5546  -19.7896   21.2415 C   0  0  0  0  0  0  0  0  0  0  0  0
  -24.3008  -19.1967   23.9245 C   0  0  0  0  0  0  0  0  0  0  0  0
  -16.6630  -26.3732   20.9013 C   0  0  0  0  0  0  0  0  0  0  0  0
  -28.9095  -25.8923   21.1996 C   0  0  0  0  0  0  0  0  0  0  0  0
  -29.7047  -27.5438   19.6256 C   0  0  0  0  0  0  0  0  0  0  0  0
  -23.2962  -20.1463   23.7434 C   0  0  0  0  0  0  0  0  0  0  0  0
  -32.2531  -25.6060   17.9026 C   0  0  0  0  0  0  0  0  0  0  0  0
  -33.5670  -25.9610   17.5977 C   0  0  0  0  0  0  0  0  0  0  0  0
  -15.5298  -25.7504   20.3902 C   0  0  0  0  0  0  0  0  0  0  0  0
  -22.1377  -18.6305   22.2672 C   0  0  0  0  0  0  0  0  0  0  0  0
  -33.9895  -26.4046   19.9347 C   0  0  0  0  0  0  0  0  0  0  0  0
  -28.0923  -28.1629   21.3149 C   0  0  0  0  0  0  0  0  0  0  0  0
  -27.5970  -30.0108   23.0024 C   0  0  0  0  0  0  0  0  0  0  0  0
  -30.4522  -18.3078   20.9406 C   0  0  0  0  0  0  0  0  0  0  0  0
  -24.2368  -17.9589   23.2686 C   0  0  0  0  0  0  0  0  0  0  0  0
  -29.0720  -18.5551   20.8137 C   0  0  0  0  0  0  0  0  0  0  0  0
  -17.4995  -25.6792   21.7685 C   0  0  0  0  0  0  0  0  0  0  0  0
  -23.1415  -17.6659   22.4436 C   0  0  0  0  0  0  0  0  0  0  0  0
  -29.7121  -26.2364   20.1119 C   0  0  0  0  0  0  0  0  0  0  0  0
  -22.2159  -19.8645   22.9124 C   0  0  0  0  0  0  0  0  0  0  0  0
  -31.8072  -25.6503   19.2236 C   0  0  0  0  0  0  0  0  0  0  0  0
  -34.4353  -26.3603   18.6137 C   0  0  0  0  0  0  0  0  0  0  0  0
  -32.6755  -26.0496   20.2396 C   0  0  0  0  0  0  0  0  0  0  0  0
  -27.2554  -29.1582   21.9355 C   0  0  0  0  0  0  0  0  0  0  0  0
  -15.2795  -24.4428   20.7740 C   0  0  0  0  0  0  0  0  0  0  0  0
  -17.1609  -24.3748   22.0908 C   0  0  0  0  0  0  0  0  0  0  0  0
  -26.4670  -30.7612   23.2176 C   0  0  0  0  0  0  0  0  0  0  0  0
  -28.8260  -30.1152   23.7334 C   0  0  0  0  0  0  0  0  0  0  0  0
  -26.0472  -16.4569   21.1308 C   0  0  0  0  0  0  0  0  0  0  0  0
  -23.9829  -14.0148   21.6759 C   0  0  0  0  0  0  0  0  0  0  0  0
  -20.8897  -13.0124   22.7123 C   0  0  0  0  0  0  0  0  0  0  0  0
  -20.7347  -29.9435   22.2597 C   0  0  0  0  0  0  0  0  0  0  0  0
  -31.0755  -17.0222   20.4574 C   0  0  0  0  0  0  0  0  0  0  0  0
  -25.3150  -16.9350   23.4954 C   0  0  0  0  0  0  0  0  0  0  0  0
  -23.0154  -16.3442   21.7326 C   0  0  0  0  0  0  0  0  0  0  0  0
  -30.0658  -15.8967   20.2484 C   0  0  0  0  0  0  0  0  0  0  0  0
  -22.6410  -32.5174   20.9599 C   0  0  0  0  0  0  0  0  0  0  0  0
  -28.8501  -16.4059   19.4806 C   0  0  0  0  0  0  0  0  0  0  0  0
  -24.0796  -32.0426   21.1632 C   0  0  0  0  0  0  0  0  0  0  0  0
  -19.7286  -26.7485   21.2122 C   0  0  0  0  0  0  0  0  0  0  0  0
  -18.3802  -27.5884   23.1835 C   0  0  0  0  0  0  0  0  0  0  0  0
  -19.1217  -23.0346   24.9101 C   0  0  0  0  0  0  0  0  0  0  0  0
  -21.7464  -31.3695   20.5065 C   0  0  0  0  0  0  0  0  0  0  0  0
  -20.9583  -27.4663   21.7757 C   0  0  0  0  0  0  0  0  0  0  0  0
  -19.6432  -28.2620   23.7122 C   0  0  0  0  0  0  0  0  0  0  0  0
  -17.8302  -23.6733   24.4037 C   0  0  0  0  0  0  0  0  0  0  0  0
  -19.1284  -22.8784   22.5222 C   0  0  0  0  0  0  0  0  0  0  0  0
  -23.1844  -29.7111   21.6467 C   0  0  0  0  0  0  0  0  0  0  0  0
  -18.7354  -26.3623   22.3230 C   0  0  0  0  0  0  0  0  0  0  0  0
  -28.1271  -17.5100   20.2615 C   0  0  1  0  0  0  0  0  0  0  0  0
  -25.4070  -15.9055   22.3733 C   0  0  1  0  0  0  0  0  0  0  0  0
  -19.5091  -22.0870   23.7786 C   0  0  1  0  0  0  0  0  0  0  0  0
  -24.1337  -30.8333   22.1136 C   0  0  1  0  0  0  0  0  0  0  0  0
  -14.0721  -23.7432   20.2454 C   0  0  0  0  0  0  0  0  0  0  0  0
  -19.4823  -10.9562   23.0097 C   0  0  0  0  0  0  0  0  0  0  0  0
  -23.5216  -13.8976   18.6620 C   0  0  0  0  0  0  0  0  0  0  0  0
  -21.4675  -12.5347   19.0996 C   0  0  0  0  0  0  0  0  0  0  0  0
  -23.7059  -11.6664   19.7767 C   0  0  0  0  0  0  0  0  0  0  0  0
  -20.6368  -13.4658   25.6260 C   0  0  0  0  0  0  0  0  0  0  0  0
  -20.9721  -21.6811   23.8116 C   0  0  0  0  0  0  0  0  0  1  0  0
  -22.6700  -13.5709   21.0774 C   0  0  1  0  0  0  0  0  0  0  0  0
  -20.4540  -11.9202   23.6724 C   0  0  2  0  0  0  0  0  0  0  0  0
  -22.8443  -12.9432   19.6656 C   0  0  0  0  0  0  0  0  0  0  0  0
  -26.0061  -29.3484   21.5032 N   0  0  0  0  0  0  0  0  0  0  0  0
  -16.0687  -23.7365   21.6142 N   0  0  0  0  0  0  0  0  0  0  0  0
  -25.5527  -30.3291   22.3024 N   0  0  0  0  0  0  0  0  0  0  0  0
  -17.9866  -23.6832   22.9515 N   0  0  3  0  0  0  0  0  0  0  0  0
  -24.0983  -15.3783   21.9814 N   0  0  0  0  0  0  0  0  0  0  0  0
  -21.8283  -30.2400   21.4323 N   0  0  0  0  0  0  0  0  0  0  0  0
  -20.5562  -28.5995   22.6205 N   0  0  0  0  0  0  0  0  0  0  0  0
  -26.1761  -31.7419   24.0985 N   0  0  0  0  0  0  0  0  0  0  0  0
  -29.8864  -29.2688   23.3821 N   0  0  0  0  0  0  0  0  0  0  0  0
  -27.3283  -16.9374   21.3238 N   0  0  0  0  0  0  0  0  0  0  0  0
  -22.0558  -12.6800   22.0558 N   0  0  0  0  0  0  0  0  0  0  0  0
  -19.7864  -12.5148   24.8648 N   0  3  0  0  0  0  0  0  0  0  0  0
  -28.9738  -30.9235   24.6812 O   0  0  0  0  0  0  0  0  0  0  0  0
  -25.4255  -16.4457   20.0749 O   0  0  0  0  0  0  0  0  0  0  0  0
  -24.8707  -13.1811   21.8719 O   0  0  0  0  0  0  0  0  0  0  0  0
  -20.2568  -14.0545   22.5573 O   0  0  0  0  0  0  0  0  0  0  0  0
  -19.9632  -30.8270   22.6538 O   0  0  0  0  0  0  0  0  0  0  0  0
  -30.5027  -25.2968   19.5248 O   0  0  0  0  0  0  0  0  0  0  0  0
  -21.2262  -20.7975   22.7319 O   0  0  0  0  0  0  0  0  0  1  0  0
  -35.6975  -26.6997   18.3209 F   0  0  0  0  0  0  0  0  0  0  0  0
  -32.2533  -26.0931   21.5107 F   0  0  0  0  0  0  0  0  0  0  0  0
  1  2  1  0  0  0  0
  1  5  2  0  0  0  0
  2  6  2  0  0  0  0
  3  9  2  0  0  0  0
  3 17  1  0  0  0  0
  4 10  1  0  0  0  0
  4 17  2  0  0  0  0
  5 19  1  0  0  0  0
  6 21  1  0  0  0  0
  7 11  2  0  0  0  0
  7 20  1  0  0  0  0
  8 14  2  0  0  0  0
  8 22  1  0  0  0  0
  9 24  1  0  0  0  0
 10 24  2  0  0  0  0
 11 25  1  0  0  0  0
 12 13  2  0  0  0  0
 12 26  1  0  0  0  0
 13 27  1  0  0  0  0
 14 30  1  0  0  0  0
 15 23  1  0  0  0  0
 15 25  2  0  0  0  0
 16 27  2  0  0  0  0
 16 28  1  0  0  0  0
 17 29  1  0  0  0  0
 18 29  1  0  0  0  0
 18 32  2  0  0  0  0
 18 33  1  0  0  0  0
 19 21  2  0  0  0  0
 19 38  1  0  0  0  0
 20 23  2  0  0  0  0
 20 39  1  0  0  0  0
 21 55  1  0  0  0  0
 22 31  2  0  0  0  0
 22 54  1  0  0  0  0
 23 40  1  0  0  0  0
 24 86  1  0  0  0  0
 25 87  1  0  0  0  0
 26 28  2  0  0  0  0
 26 86  1  0  0  0  0
 27 88  1  0  0  0  0
 28 89  1  0  0  0  0
 29 69  2  0  0  0  0
 30 59  1  0  0  0  0
 30 70  2  0  0  0  0
 31 70  1  0  0  0  0
 31 72  1  0  0  0  0
 32 71  1  0  0  0  0
 32 76  1  0  0  0  0
 33 77  1  0  0  0  0
 33 81  2  0  0  0  0
 34 56  1  0  0  0  0
 34 78  1  0  0  0  0
 34 82  2  0  0  0  0
 35 66  1  0  0  0  0
 35 73  1  0  0  0  0
 35 83  2  0  0  0  0
 36 67  1  0  0  0  0
 36 79  1  0  0  0  0
 36 84  2  0  0  0  0
 37 74  1  0  0  0  0
 37 75  1  0  0  0  0
 37 85  2  0  0  0  0
 38 41  1  0  0  0  0
 39 56  1  0  0  0  0
 40 73  1  0  0  0  0
 41 43  1  0  0  0  0
 42 44  1  0  0  0  0
 42 48  1  0  0  0  0
 43 55  1  0  0  0  0
 44 58  1  0  0  0  0
 45 49  1  0  0  0  0
 45 54  1  0  0  0  0
 46 50  1  0  0  0  0
 46 54  1  0  0  0  0
 47 51  1  0  0  0  0
 47 57  1  0  0  0  0
 48 74  1  0  0  0  0
 49 75  1  0  0  0  0
 50 75  1  0  0  0  0
 51 72  1  0  0  0  0
 52 57  1  0  0  0  0
 52 72  1  0  0  0  0
 53 58  1  0  0  0  0
 53 74  1  0  0  0  0
 55 78  1  0  0  0  0
 56 73  1  0  0  0  0
 57 65  1  0  0  0  0
 58 71  1  0  0  0  0
 60 67  1  0  0  0  0
 61 68  1  0  0  0  0
 62 68  1  0  0  0  0
 63 68  1  0  0  0  0
 64 80  1  0  0  0  0
 65 87  1  0  0  0  0
 66 68  1  0  0  0  0
 66 79  1  0  0  0  0
 67 80  1  0  0  0  0
 69 71  1  0  0  0  0
M  CHG  1  80   1
M  ISO  4  37 100  65 101  75 100  87 101
M  END
> <Batch ID>
0158

> <Smiles>
CNC(C)C(=O)NC(C(=O)N1Cc2cc([101O:1][101CH2:1]C3CCN(c4nc(C)ccc4C4CC[100N:0]([100C:0](=O)N5CCCC(n6nc(-c7ccc(Oc8ccc(F)cc8F)cc7)c(C(N)=O)c6N)C5)CC4)C3)ccc2CC1C(=O)NC1CCCc2ccccc21)C(C)(C)C

> <Shape>
0.231

> <Color>
0.057

> <Negative vol penalty>
0.000

$$$$

  -OEChem-04052322043D

 88 98  0     1  0  0  0  0  0999 V2000
  -29.4592  -31.7014   24.4284 C   0  0  0  0  0  0  0  0  0  0  0  0
  -29.0978  -30.4016   24.0891 C   0  0  0  0  0  0  0  0  0  0  0  0
  -22.6099  -12.2944   19.1868 C   0  0  0  0  0  0  0  0  0  0  0  0
  -22.7169  -11.0183   21.2355 C   0  0  0  0  0  0  0  0  0  0  0  0
  -28.4756  -32.6359   24.7497 C   0  0  0  0  0  0  0  0  0  0  0  0
  -27.7525  -30.0351   24.0719 C   0  0  0  0  0  0  0  0  0  0  0  0
  -26.5292  -27.3253   19.9725 C   0  0  0  0  0  0  0  0  0  0  0  0
  -21.3941  -11.6875   18.8722 C   0  0  0  0  0  0  0  0  0  0  0  0
  -21.5010  -10.4114   20.9209 C   0  0  0  0  0  0  0  0  0  0  0  0
  -26.8887  -25.9783   19.9691 C   0  0  0  0  0  0  0  0  0  0  0  0
  -18.2174  -11.1985   21.0571 C   0  0  0  0  0  0  0  0  0  0  0  0
  -17.2656  -11.0937   22.0714 C   0  0  0  0  0  0  0  0  0  0  0  0
  -28.0319  -18.6680   21.3066 C   0  0  0  0  0  0  0  0  0  0  0  0
  -29.1686  -20.3770   19.9995 C   0  0  0  0  0  0  0  0  0  0  0  0
  -24.6332  -25.3810   20.5818 C   0  0  0  0  0  0  0  0  0  0  0  0
  -17.2943   -8.6880   21.8497 C   0  0  0  0  0  0  0  0  0  0  0  0
  -23.2714  -11.9598   20.3684 C   0  0  0  0  0  0  0  0  0  0  0  0
  -24.7216  -13.7738   21.4237 C   0  0  0  0  0  0  0  0  0  0  0  0
  -27.1170  -32.2834   24.7271 C   0  0  0  0  0  0  0  0  0  0  0  0
  -25.2195  -27.7117   20.2918 C   0  0  0  0  0  0  0  0  0  0  0  0
  -26.7499  -30.9654   24.3945 C   0  0  0  0  0  0  0  0  0  0  0  0
  -28.9864  -19.0356   20.3460 C   0  0  0  0  0  0  0  0  0  0  0  0
  -24.2590  -26.7334   20.5860 C   0  0  0  0  0  0  0  0  0  0  0  0
  -27.4430  -20.9633   21.5852 C   0  0  0  0  0  0  0  0  0  0  0  0
  -27.2523  -19.6375   21.9389 C   0  0  0  0  0  0  0  0  0  0  0  0
  -28.3747  -21.3312   20.6119 C   0  0  0  0  0  0  0  0  0  0  0  0
  -20.8396  -10.7460   19.7393 C   0  0  0  0  0  0  0  0  0  0  0  0
  -25.9414  -25.0061   20.2766 C   0  0  0  0  0  0  0  0  0  0  0  0
  -18.7076  -10.0481   20.4391 C   0  0  0  0  0  0  0  0  0  0  0  0
  -16.8041   -9.8385   22.4677 C   0  0  0  0  0  0  0  0  0  0  0  0
  -18.2461   -8.7929   20.8354 C   0  0  0  0  0  0  0  0  0  0  0  0
  -24.5277  -12.5859   20.6936 C   0  0  0  0  0  0  0  0  0  0  0  0
  -26.0848  -13.9384   21.4560 C   0  0  0  0  0  0  0  0  0  0  0  0
  -23.7559  -14.6502   22.0195 C   0  0  0  0  0  0  0  0  0  0  0  0
  -23.8961  -29.4744   22.5819 C   0  0  0  0  0  0  0  0  0  0  0  0
  -21.1994  -29.0146   20.8386 C   0  0  0  0  0  0  0  0  0  0  0  0
  -19.5048  -27.1072   18.5722 C   0  0  0  0  0  0  0  0  0  0  0  0
  -31.0416  -13.8696   19.1450 C   0  0  0  0  0  0  0  0  0  0  0  0
  -26.0926  -33.3151   25.1279 C   0  0  0  0  0  0  0  0  0  0  0  0
  -24.8410  -29.1671   20.2649 C   0  0  0  0  0  0  0  0  0  0  0  0
  -22.8345  -27.0947   20.9157 C   0  0  0  0  0  0  0  0  0  0  0  0
  -24.6675  -32.9482   24.7219 C   0  0  0  0  0  0  0  0  0  0  0  0
  -29.8267  -10.7989   20.1681 C   0  0  0  0  0  0  0  0  0  0  0  0
  -24.3655  -31.4978   25.0854 C   0  0  0  0  0  0  0  0  0  0  0  0
  -28.3515  -11.0728   20.4606 C   0  0  0  0  0  0  0  0  0  0  0  0
  -30.7151  -17.2159   20.6912 C   0  0  0  0  0  0  0  0  0  0  0  0
  -28.9744  -16.9760   18.8710 C   0  0  0  0  0  0  0  0  0  0  0  0
  -30.2777  -11.5255   18.9059 C   0  0  0  0  0  0  0  0  0  0  0  0
  -31.5411  -16.1255   20.0130 C   0  0  0  0  0  0  0  0  0  0  0  0
  -29.8398  -15.8931   18.2333 C   0  0  0  0  0  0  0  0  0  0  0  0
  -28.5763  -13.2892   19.2353 C   0  0  0  0  0  0  0  0  0  0  0  0
  -29.8313  -17.9659   19.6797 C   0  0  0  0  0  0  0  0  0  0  0  0
  -26.7679  -22.1926   22.1284 C   0  0  2  0  0  0  0  0  0  0  0  0
  -25.2996  -30.5365   24.3406 C   0  0  1  0  0  0  0  0  0  0  0  0
  -23.6080  -29.4795   21.1072 C   0  0  1  0  0  0  0  0  0  0  0  0
  -28.0701  -12.5850   20.5100 C   0  0  1  0  0  0  0  0  0  0  0  0
  -27.3246  -23.2941   21.1776 C   0  0  1  0  0  0  0  0  0  1  0  0
  -27.1618  -22.4641   23.5778 C   0  0  0  0  0  0  0  0  0  0  0  0
  -26.8600  -18.4570   24.1158 C   0  0  0  0  0  0  0  0  0  0  0  0
  -17.3063  -26.9634   17.3708 C   0  0  0  0  0  0  0  0  0  0  0  0
  -19.8756  -27.9883   23.3890 C   0  0  0  0  0  0  0  0  0  0  0  0
  -18.0677  -26.9971   21.9687 C   0  0  0  0  0  0  0  0  0  0  0  0
  -18.4274  -29.4655   21.9836 C   0  0  0  0  0  0  0  0  0  0  0  0
  -20.8046  -27.3441   15.9239 C   0  0  0  0  0  0  0  0  0  0  0  0
  -26.2412  -19.2315   22.9539 C   0  0  0  0  0  0  0  0  0  0  0  0
  -20.1044  -27.9757   20.8173 C   0  0  1  0  0  0  0  0  0  0  0  0
  -18.7360  -27.4792   17.3172 C   0  0  2  0  0  0  0  0  0  0  0  0
  -19.1460  -28.0996   22.0354 C   0  0  0  0  0  0  0  0  0  0  0  0
  -25.6759  -12.0349   20.2910 N   0  0  0  0  0  0  0  0  0  0  0  0
  -26.6043  -12.8804   20.7697 N   0  0  0  0  0  0  0  0  0  0  0  0
  -28.4369  -22.7093   20.4398 N   0  0  0  0  0  0  0  0  0  0  0  0
  -22.5149  -28.5314   20.8825 N   0  0  0  0  0  0  0  0  0  0  0  0
  -29.9874  -12.9567   18.9895 N   0  0  0  0  0  0  0  0  0  0  0  0
  -30.6964  -15.2287   19.2251 N   0  0  0  0  0  0  0  0  0  0  0  0
  -26.8779  -14.8834   22.0041 N   0  0  0  0  0  0  0  0  0  0  0  0
  -22.3968  -14.3325   21.8917 N   0  0  0  0  0  0  0  0  0  0  0  0
  -24.8696  -30.3758   22.9681 N   0  0  0  0  0  0  0  0  0  0  0  0
  -19.4447  -28.1044   19.5224 N   0  0  0  0  0  0  0  0  0  0  0  0
  -19.3989  -26.9025   16.1135 N   0  3  0  0  0  0  0  0  0  0  0  0
  -24.0875  -15.6931   22.6326 O   0  0  0  0  0  0  0  0  0  0  0  0
  -23.2796  -28.7104   23.3153 O   0  0  0  0  0  0  0  0  0  0  0  0
  -20.8990  -30.2106   20.8100 O   0  0  0  0  0  0  0  0  0  0  0  0
  -20.0963  -26.0372   18.6984 O   0  0  0  0  0  0  0  0  0  0  0  0
  -32.2190  -13.4958   19.2140 O   0  0  0  0  0  0  0  0  0  0  0  0
  -19.6531  -10.1538   19.4328 O   0  0  0  0  0  0  0  0  0  0  0  0
  -26.2918  -23.6831   20.2746 O   0  0  0  0  0  0  0  0  0  1  0  0
  -15.8913   -9.7379   23.4427 F   0  0  0  0  0  0  0  0  0  0  0  0
  -18.7142   -7.6841   20.2461 F   0  0  0  0  0  0  0  0  0  0  0  0
  1  2  1  0  0  0  0
  1  5  2  0  0  0  0
  2  6  2  0  0  0  0
  3  8  2  0  0  0  0
  3 17  1  0  0  0  0
  4  9  1  0  0  0  0
  4 17  2  0  0  0  0
  5 19  1  0  0  0  0
  6 21  1  0  0  0  0
  7 10  2  0  0  0  0
  7 20  1  0  0  0  0
  8 27  1  0  0  0  0
  9 27  2  0  0  0  0
 10 28  1  0  0  0  0
 11 12  2  0  0  0  0
 11 29  1  0  0  0  0
 12 30  1  0  0  0  0
 13 22  2  0  0  0  0
 13 25  1  0  0  0  0
 14 22  1  0  0  0  0
 14 26  2  0  0  0  0
 15 23  1  0  0  0  0
 15 28  2  0  0  0  0
 16 30  2  0  0  0  0
 16 31  1  0  0  0  0
 17 32  1  0  0  0  0
 18 32  1  0  0  0  0
 18 33  2  0  0  0  0
 18 34  1  0  0  0  0
 19 21  2  0  0  0  0
 19 39  1  0  0  0  0
 20 23  2  0  0  0  0
 20 40  1  0  0  0  0
 21 54  1  0  0  0  0
 22 52  1  0  0  0  0
 23 41  1  0  0  0  0
 24 25  2  0  0  0  0
 24 26  1  0  0  0  0
 24 53  1  0  0  0  0
 25 65  1  0  0  0  0
 26 71  1  0  0  0  0
 27 85  1  0  0  0  0
 28 86  1  0  0  0  0
 29 31  2  0  0  0  0
 29 85  1  0  0  0  0
 30 87  1  0  0  0  0
 31 88  1  0  0  0  0
 32 69  2  0  0  0  0
 33 70  1  0  0  0  0
 33 75  1  0  0  0  0
 34 76  1  0  0  0  0
 34 80  2  0  0  0  0
 35 55  1  0  0  0  0
 35 77  1  0  0  0  0
 35 81  2  0  0  0  0
 36 66  1  0  0  0  0
 36 72  1  0  0  0  0
 36 82  2  0  0  0  0
 37 67  1  0  0  0  0
 37 78  1  0  0  0  0
 37 83  2  0  0  0  0
 38 73  1  0  0  0  0
 38 74  1  0  0  0  0
 38 84  2  0  0  0  0
 39 42  1  0  0  0  0
 40 55  1  0  0  0  0
 41 72  1  0  0  0  0
 42 44  1  0  0  0  0
 43 45  1  0  0  0  0
 43 48  1  0  0  0  0
 44 54  1  0  0  0  0
 45 56  1  0  0  0  0
 46 49  1  0  0  0  0
 46 52  1  0  0  0  0
 47 50  1  0  0  0  0
 47 52  1  0  0  0  0
 48 73  1  0  0  0  0
 49 74  1  0  0  0  0
 50 74  1  0  0  0  0
 51 56  1  0  0  0  0
 51 73  1  0  0  0  0
 53 57  1  0  0  0  0
 53 58  1  0  0  0  0
 54 77  1  0  0  0  0
 55 72  1  0  0  0  0
 56 70  1  0  0  0  0
 57 71  1  0  0  0  0
 57 86  1  0  0  0  0
 59 65  1  0  0  0  0
 60 67  1  0  0  0  0
 61 68  1  0  0  0  0
 62 68  1  0  0  0  0
 63 68  1  0  0  0  0
 64 79  1  0  0  0  0
 66 68  1  0  0  0  0
 66 78  1  0  0  0  0
 67 79  1  0  0  0  0
 69 70  1  0  0  0  0
M  CHG  1  79   1
M  ISO  4  38 100  57 101  74 100  86 101
M  END
> <Batch ID>
0158

> <Smiles>
CCc1cc(C2CC[100N:0]([100C:0](=O)N3CCCC(n4nc(-c5ccc(Oc6ccc(F)cc6F)cc5)c(C(N)=O)c4N)C3)CC2)cc2c1C(C)[101CH:1]([101O:1]c1ccc3c(c1)CN(C(=O)C(NC(=O)C(C)NC)C(C)(C)C)C(C(=O)NC1CCCc4ccccc41)C3)N2

> <Shape>
0.287

> <Color>
0.061

> <Negative vol penalty>
0.000

$$$$

  -OEChem-04052322043D

 90100  0     1  0  0  0  0  0999 V2000
  -26.6967  -33.1337   28.3562 C   0  0  0  0  0  0  0  0  0  0  0  0
  -25.9753  -33.6036   27.2634 C   0  0  0  0  0  0  0  0  0  0  0  0
  -24.7839   -8.4852   21.2122 C   0  0  0  0  0  0  0  0  0  0  0  0
  -23.5231  -10.4364   21.8758 C   0  0  0  0  0  0  0  0  0  0  0  0
  -27.8168  -32.3280   28.1562 C   0  0  0  0  0  0  0  0  0  0  0  0
  -26.3743  -33.2689   25.9699 C   0  0  0  0  0  0  0  0  0  0  0  0
  -23.1813  -20.7990   18.0086 C   0  0  0  0  0  0  0  0  0  0  0  0
  -22.4231  -21.8212   17.4378 C   0  0  0  0  0  0  0  0  0  0  0  0
  -21.9275  -29.7813   21.5028 C   0  0  0  0  0  0  0  0  0  0  0  0
  -23.6386   -7.7001   21.3443 C   0  0  0  0  0  0  0  0  0  0  0  0
  -22.3777   -9.6513   22.0079 C   0  0  0  0  0  0  0  0  0  0  0  0
  -21.0625  -29.3021   20.5189 C   0  0  0  0  0  0  0  0  0  0  0  0
  -21.1291   -5.1184   21.8548 C   0  0  0  0  0  0  0  0  0  0  0  0
  -21.2527   -3.8936   22.5107 C   0  0  0  0  0  0  0  0  0  0  0  0
  -21.8726  -20.9588   20.0332 C   0  0  0  0  0  0  0  0  0  0  0  0
  -22.8784  -29.2712   18.9222 C   0  0  0  0  0  0  0  0  0  0  0  0
  -22.0010   -5.0363   24.5036 C   0  0  0  0  0  0  0  0  0  0  0  0
  -24.7262   -9.8534   21.4780 C   0  0  0  0  0  0  0  0  0  0  0  0
  -27.1242  -10.5193   22.0380 C   0  0  0  0  0  0  0  0  0  0  0  0
  -22.9060  -20.3677   19.3062 C   0  0  0  0  0  0  0  0  0  0  0  0
  -28.2241  -31.9753   26.8600 C   0  0  0  0  0  0  0  0  0  0  0  0
  -23.2764  -29.9929   21.2039 C   0  0  0  0  0  0  0  0  0  0  0  0
  -27.5018  -32.4588   25.7524 C   0  0  0  0  0  0  0  0  0  0  0  0
  -21.3897  -22.4123   18.1647 C   0  0  0  0  0  0  0  0  0  0  0  0
  -23.7523  -29.7392   19.9071 C   0  0  0  0  0  0  0  0  0  0  0  0
  -21.1144  -21.9810   19.4624 C   0  0  0  0  0  0  0  0  0  0  0  0
  -22.4355   -8.2831   21.7422 C   0  0  0  0  0  0  0  0  0  0  0  0
  -21.5367  -29.0479   19.2318 C   0  0  0  0  0  0  0  0  0  0  0  0
  -21.4416   -6.3022   22.5233 C   0  0  0  0  0  0  0  0  0  0  0  0
  -21.6886   -3.8525   23.8351 C   0  0  0  0  0  0  0  0  0  0  0  0
  -21.8775   -6.2611   23.8476 C   0  0  0  0  0  0  0  0  0  0  0  0
  -25.9091  -10.6648   21.3422 C   0  0  0  0  0  0  0  0  0  0  0  0
  -27.9207  -11.5274   21.5524 C   0  0  0  0  0  0  0  0  0  0  0  0
  -27.4994   -9.5588   23.0341 C   0  0  0  0  0  0  0  0  0  0  0  0
  -26.6527  -31.0698   22.4353 C   0  0  0  0  0  0  0  0  0  0  0  0
  -27.1013  -28.6439   20.6121 C   0  0  0  0  0  0  0  0  0  0  0  0
  -28.2611  -25.8193   19.0911 C   0  0  0  0  0  0  0  0  0  0  0  0
  -26.9051  -16.7800   19.1391 C   0  0  0  0  0  0  0  0  0  0  0  0
  -29.4692  -31.1409   26.6921 C   0  0  0  0  0  0  0  0  0  0  0  0
  -24.2309  -30.5665   22.2157 C   0  0  0  0  0  0  0  0  0  0  0  0
  -25.2035  -30.0143   19.6217 C   0  0  0  0  0  0  0  0  0  0  0  0
  -29.6062  -30.5239   25.3025 C   0  0  0  0  0  0  0  0  0  0  0  0
  -28.6465  -14.1900   17.6533 C   0  0  0  0  0  0  0  0  0  0  0  0
  -29.3232  -31.5663   24.2254 C   0  0  0  0  0  0  0  0  0  0  0  0
  -28.2694  -12.9698   18.4930 C   0  0  0  0  0  0  0  0  0  0  0  0
  -23.5901  -17.9324   19.1542 C   0  0  0  0  0  0  0  0  0  0  0  0
  -25.2135  -19.6472   20.0673 C   0  0  0  0  0  0  0  0  0  0  0  0
  -20.9902  -23.9595   16.1177 C   0  0  0  0  0  0  0  0  0  0  0  0
  -27.4351  -15.0839   17.4148 C   0  0  0  0  0  0  0  0  0  0  0  0
  -24.4506  -16.8238   19.7669 C   0  0  0  0  0  0  0  0  0  0  0  0
  -26.0185  -18.5040   20.6787 C   0  0  0  0  0  0  0  0  0  0  0  0
  -26.3805  -14.3286   19.5209 C   0  0  0  0  0  0  0  0  0  0  0  0
  -20.2219  -25.2507   15.9319 C   0  0  0  0  0  0  0  0  0  0  0  0
  -20.6220  -24.8397   18.3059 C   0  0  0  0  0  0  0  0  0  0  0  0
  -23.7312  -19.2562   19.9270 C   0  0  0  0  0  0  0  0  0  0  0  0
  -20.5816  -23.5205   17.5246 C   0  0  2  0  0  0  0  0  0  0  0  0
  -27.8887  -32.0971   24.3348 C   0  0  1  0  0  0  0  0  0  0  0  0
  -25.6573  -30.0024   22.0872 C   0  0  1  0  0  0  0  0  0  0  0  0
  -27.5731  -13.3911   19.7992 C   0  0  1  0  0  0  0  0  0  0  0  0
  -20.0132  -22.5992   20.2599 C   0  0  0  0  0  0  0  0  0  0  0  0
  -30.3244  -24.8548   18.0376 C   0  0  0  0  0  0  0  0  0  0  0  0
  -26.6249  -30.3481   18.1276 C   0  0  0  0  0  0  0  0  0  0  0  0
  -28.0304  -28.7292   16.8344 C   0  0  0  0  0  0  0  0  0  0  0  0
  -29.0319  -30.0180   18.7209 C   0  0  0  0  0  0  0  0  0  0  0  0
  -28.3820  -23.6191   21.0668 C   0  0  0  0  0  0  0  0  0  0  0  0
  -19.1890  -26.8105   17.6155 C   0  0  0  0  0  0  0  0  0  0  0  0
  -19.5987  -27.7676   18.7175 C   0  0  0  0  0  0  0  0  0  1  0  0
  -27.4090  -28.1454   19.2228 C   0  0  1  0  0  0  0  0  0  0  0  0
  -29.5158  -24.9955   19.3179 C   0  0  2  0  0  0  0  0  0  0  0  0
  -27.7511  -29.3013   18.2407 C   0  0  0  0  0  0  0  0  0  0  0  0
  -25.9273  -11.6850   20.4804 N   0  0  0  0  0  0  0  0  0  0  0  0
  -27.1636  -12.1899   20.6315 N   0  0  0  0  0  0  0  0  0  0  0  0
  -26.0339  -29.5410   20.7402 N   0  0  0  0  0  0  0  0  0  0  0  0
  -26.8001  -15.4591   18.6781 N   0  0  0  0  0  0  0  0  0  0  0  0
  -25.8432  -17.2692   19.9146 N   0  0  0  0  0  0  0  0  0  0  0  0
  -29.1878  -11.9030   21.8278 N   0  0  0  0  0  0  0  0  0  0  0  0
  -27.2591   -9.8640   24.3807 N   0  0  0  0  0  0  0  0  0  0  0  0
  -26.9527  -31.1415   23.7823 N   0  0  0  0  0  0  0  0  0  0  0  0
  -28.4686  -27.1535   19.3704 N   0  0  0  0  0  0  0  0  0  0  0  0
  -20.3438  -25.9225   17.2785 N   0  3  2  0  0  0  0  0  0  0  0  0
  -29.1596  -23.6315   19.8011 N   0  3  0  0  0  0  0  0  0  0  0  0
  -28.0470   -8.4692   22.7399 O   0  0  0  0  0  0  0  0  0  0  0  0
  -27.1166  -31.7760   21.5478 O   0  0  0  0  0  0  0  0  0  0  0  0
  -27.7905  -28.2545   21.5590 O   0  0  0  0  0  0  0  0  0  0  0  0
  -27.2037  -25.3288   18.7012 O   0  0  0  0  0  0  0  0  0  0  0  0
  -27.8896  -17.4814   18.8745 O   0  0  0  0  0  0  0  0  0  0  0  0
  -21.3176   -7.5174   21.8710 O   0  0  0  0  0  0  0  0  0  0  0  0
  -20.6816  -28.5725   18.2704 O   0  0  0  0  0  0  0  0  0  1  0  0
  -21.8058   -2.6764   24.4653 F   0  0  0  0  0  0  0  0  0  0  0  0
  -22.1780   -7.3951   24.4953 F   0  0  0  0  0  0  0  0  0  0  0  0
  1  2  1  0  0  0  0
  1  5  2  0  0  0  0
  2  6  2  0  0  0  0
  3 10  2  0  0  0  0
  3 18  1  0  0  0  0
  4 11  1  0  0  0  0
  4 18  2  0  0  0  0
  5 21  1  0  0  0  0
  6 23  1  0  0  0  0
  7  8  2  0  0  0  0
  7 20  1  0  0  0  0
  8 24  1  0  0  0  0
  9 12  2  0  0  0  0
  9 22  1  0  0  0  0
 10 27  1  0  0  0  0
 11 27  2  0  0  0  0
 12 28  1  0  0  0  0
 13 14  2  0  0  0  0
 13 29  1  0  0  0  0
 14 30  1  0  0  0  0
 15 20  2  0  0  0  0
 15 26  1  0  0  0  0
 16 25  1  0  0  0  0
 16 28  2  0  0  0  0
 17 30  2  0  0  0  0
 17 31  1  0  0  0  0
 18 32  1  0  0  0  0
 19 32  1  0  0  0  0
 19 33  2  0  0  0  0
 19 34  1  0  0  0  0
 20 55  1  0  0  0  0
 21 23  2  0  0  0  0
 21 39  1  0  0  0  0
 22 25  2  0  0  0  0
 22 40  1  0  0  0  0
 23 57  1  0  0  0  0
 24 26  2  0  0  0  0
 24 56  1  0  0  0  0
 25 41  1  0  0  0  0
 26 60  1  0  0  0  0
 27 87  1  0  0  0  0
 28 88  1  0  0  0  0
 29 31  2  0  0  0  0
 29 87  1  0  0  0  0
 30 89  1  0  0  0  0
 31 90  1  0  0  0  0
 32 71  2  0  0  0  0
 33 72  1  0  0  0  0
 33 76  1  0  0  0  0
 34 77  1  0  0  0  0
 34 82  2  0  0  0  0
 35 58  1  0  0  0  0
 35 78  1  0  0  0  0
 35 83  2  0  0  0  0
 36 68  1  0  0  0  0
 36 73  1  0  0  0  0
 36 84  2  0  0  0  0
 37 69  1  0  0  0  0
 37 79  1  0  0  0  0
 37 85  2  0  0  0  0
 38 74  1  0  0  0  0
 38 75  1  0  0  0  0
 38 86  2  0  0  0  0
 39 42  1  0  0  0  0
 40 58  1  0  0  0  0
 41 73  1  0  0  0  0
 42 44  1  0  0  0  0
 43 45  1  0  0  0  0
 43 49  1  0  0  0  0
 44 57  1  0  0  0  0
 45 59  1  0  0  0  0
 46 50  1  0  0  0  0
 46 55  1  0  0  0  0
 47 51  1  0  0  0  0
 47 55  1  0  0  0  0
 48 53  1  0  0  0  0
 48 56  1  0  0  0  0
 49 74  1  0  0  0  0
 50 75  1  0  0  0  0
 51 75  1  0  0  0  0
 52 59  1  0  0  0  0
 52 74  1  0  0  0  0
 53 80  1  0  0  0  0
 54 56  1  0  0  0  0
 54 80  1  0  0  0  0
 57 78  1  0  0  0  0
 58 73  1  0  0  0  0
 59 72  1  0  0  0  0
 61 69  1  0  0  0  0
 62 70  1  0  0  0  0
 63 70  1  0  0  0  0
 64 70  1  0  0  0  0
 65 81  1  0  0  0  0
 66 67  1  0  0  0  0
 66 80  1  0  0  0  0
 67 88  1  0  0  0  0
 68 70  1  0  0  0  0
 68 79  1  0  0  0  0
 69 81  1  0  0  0  0
 71 72  1  0  0  0  0
M  CHG  2  80   1  81   1
M  ISO  4  38 100  67 101  75 100  88 101
M  END
> <Batch ID>
0158

> <Smiles>
CNC(C)C(=O)NC(C(=O)N1Cc2cc([101O:1][101CH2:1]CN3CCC(c4ccc(C5CC[100N:0]([100C:0](=O)N6CCCC(n7nc(-c8ccc(Oc9ccc(F)cc9F)cc8)c(C(N)=O)c7N)C6)CC5)cc4C)C3)ccc2CC1C(=O)NC1CCCc2ccccc21)C(C)(C)C

> <Shape>
0.259

> <Color>
0.076

> <Negative vol penalty>
0.000

$$$$

  -OEChem-04052322043D

 87 96  0     1  0  0  0  0  0999 V2000
  -28.7149  -31.9651   27.0305 C   0  0  0  0  0  0  0  0  0  0  0  0
  -28.3003  -30.8638   26.2884 C   0  0  0  0  0  0  0  0  0  0  0  0
  -22.6347  -11.5609   19.0151 C   0  0  0  0  0  0  0  0  0  0  0  0
  -23.1540   -9.7692   20.5504 C   0  0  0  0  0  0  0  0  0  0  0  0
  -27.8959  -33.0895   27.1241 C   0  0  0  0  0  0  0  0  0  0  0  0
  -27.0659  -30.8859   25.6403 C   0  0  0  0  0  0  0  0  0  0  0  0
  -27.3271  -29.1174   20.9023 C   0  0  0  0  0  0  0  0  0  0  0  0
  -21.5677  -10.8185   18.5095 C   0  0  0  0  0  0  0  0  0  0  0  0
  -22.0869   -9.0267   20.0447 C   0  0  0  0  0  0  0  0  0  0  0  0
  -27.3788  -27.7335   20.7411 C   0  0  0  0  0  0  0  0  0  0  0  0
  -18.7259   -8.9473   20.3875 C   0  0  0  0  0  0  0  0  0  0  0  0
  -17.8880   -8.3125   21.3043 C   0  0  0  0  0  0  0  0  0  0  0  0
  -25.0224  -27.7116   20.2256 C   0  0  0  0  0  0  0  0  0  0  0  0
  -27.9101  -23.0482   19.0051 C   0  0  0  0  0  0  0  0  0  0  0  0
  -18.4392   -6.1730   20.3267 C   0  0  0  0  0  0  0  0  0  0  0  0
  -23.4279  -11.0363   20.0356 C   0  0  0  0  0  0  0  0  0  0  0  0
  -24.5003  -12.7131   21.6312 C   0  0  0  0  0  0  0  0  0  0  0  0
  -26.6550  -33.1292   26.4689 C   0  0  0  0  0  0  0  0  0  0  0  0
  -26.1183  -29.8086   20.7367 C   0  0  0  0  0  0  0  0  0  0  0  0
  -26.2288  -32.0114   25.7263 C   0  0  0  0  0  0  0  0  0  0  0  0
  -24.9585  -29.1046   20.3826 C   0  0  0  0  0  0  0  0  0  0  0  0
  -27.4051  -23.5786   20.1923 C   0  0  0  0  0  0  0  0  0  0  0  0
  -27.7999  -21.6814   18.7494 C   0  0  0  0  0  0  0  0  0  0  0  0
  -26.7900  -22.7421   21.1238 C   0  0  0  0  0  0  0  0  0  0  0  0
  -26.6798  -21.3753   20.8681 C   0  0  0  0  0  0  0  0  0  0  0  0
  -21.2938   -9.5513   19.0242 C   0  0  0  0  0  0  0  0  0  0  0  0
  -26.2257  -27.0300   20.4056 C   0  0  0  0  0  0  0  0  0  0  0  0
  -19.4204   -8.1950   19.4402 C   0  0  0  0  0  0  0  0  0  0  0  0
  -27.1848  -20.8449   19.6809 C   0  0  0  0  0  0  0  0  0  0  0  0
  -17.7446   -6.9253   21.2739 C   0  0  0  0  0  0  0  0  0  0  0  0
  -19.2771   -6.8078   19.4098 C   0  0  0  0  0  0  0  0  0  0  0  0
  -24.5306  -11.8026   20.5580 C   0  0  0  0  0  0  0  0  0  0  0  0
  -25.7915  -13.1707   21.7299 C   0  0  0  0  0  0  0  0  0  0  0  0
  -23.4030  -13.1097   22.4645 C   0  0  0  0  0  0  0  0  0  0  0  0
  -24.2744  -31.5858   22.6196 C   0  0  0  0  0  0  0  0  0  0  0  0
  -22.6266  -32.0928   19.8719 C   0  0  0  0  0  0  0  0  0  0  0  0
  -21.8050  -31.0044   16.7434 C   0  0  0  0  0  0  0  0  0  0  0  0
  -30.3717  -15.0445   19.6392 C   0  0  0  0  0  0  0  0  0  0  0  0
  -25.7834  -34.3483   26.6382 C   0  0  0  0  0  0  0  0  0  0  0  0
  -26.0849  -31.3047   20.8878 C   0  0  0  0  0  0  0  0  0  0  0  0
  -23.6402  -29.8021   20.1736 C   0  0  0  0  0  0  0  0  0  0  0  0
  -24.6553  -34.4375   25.6136 C   0  0  0  0  0  0  0  0  0  0  0  0
  -30.0467  -11.5484   19.5442 C   0  0  0  0  0  0  0  0  0  0  0  0
  -23.9452  -33.0938   25.4831 C   0  0  0  0  0  0  0  0  0  0  0  0
  -28.5682  -11.3707   19.8880 C   0  0  0  0  0  0  0  0  0  0  0  0
  -28.7895  -18.2975   20.6038 C   0  0  0  0  0  0  0  0  0  0  0  0
  -28.0671  -17.6147   18.2925 C   0  0  0  0  0  0  0  0  0  0  0  0
  -30.2777  -12.7334   18.6051 C   0  0  0  0  0  0  0  0  0  0  0  0
  -30.0157  -17.4060   20.4566 C   0  0  0  0  0  0  0  0  0  0  0  0
  -29.3019  -16.7275   18.1853 C   0  0  0  0  0  0  0  0  0  0  0  0
  -28.2223  -13.8295   19.4367 C   0  0  0  0  0  0  0  0  0  0  0  0
  -24.9075  -32.0070   24.9887 C   0  0  1  0  0  0  0  0  0  0  0  0
  -24.6918  -31.8429   21.1992 C   0  0  1  0  0  0  0  0  0  0  0  0
  -27.9644  -12.6809   20.4242 C   0  0  1  0  0  0  0  0  0  0  0  0
  -28.2950  -18.7875   19.2443 C   0  0  0  0  0  0  0  0  0  0  0  0
  -28.3461  -21.1326   17.4727 C   0  0  0  0  0  0  0  0  0  0  0  0
  -26.2482  -23.3128   22.3959 C   0  0  0  0  0  0  0  0  0  0  0  0
  -26.0208  -20.4733   21.8625 C   0  0  0  0  0  0  0  0  0  0  0  0
  -20.4072  -31.6125   14.7501 C   0  0  0  0  0  0  0  0  0  0  0  0
  -20.1207  -31.1780   21.3531 C   0  0  0  0  0  0  0  0  0  0  0  0
  -18.9965  -30.8957   19.1339 C   0  0  0  0  0  0  0  0  0  0  0  0
  -19.7842  -33.1507   19.8532 C   0  0  0  0  0  0  0  0  0  0  0  0
  -24.1803  -31.1841   14.9871 C   0  0  0  0  0  0  0  0  0  0  0  0
  -27.5360  -25.0456   20.4418 C   0  0  0  0  0  0  0  0  0  1  0  0
  -21.4806  -31.4049   19.1701 C   0  0  1  0  0  0  0  0  0  0  0  0
  -21.7761  -31.7180   15.4039 C   0  0  2  0  0  0  0  0  0  0  0  0
  -20.1198  -31.6436   19.8833 C   0  0  0  0  0  0  0  0  0  0  0  0
  -25.7449  -11.6874   20.0137 N   0  0  0  0  0  0  0  0  0  0  0  0
  -26.4895  -12.5317   20.7478 N   0  0  0  0  0  0  0  0  0  0  0  0
  -23.6573  -31.2650   20.3390 N   0  0  0  0  0  0  0  0  0  0  0  0
  -29.6508  -13.9502   19.1383 N   0  0  0  0  0  0  0  0  0  0  0  0
  -29.7780  -16.3107   19.5050 N   0  0  0  0  0  0  0  0  0  0  0  0
  -26.3865  -14.0535   22.5600 N   0  0  0  0  0  0  0  0  0  0  0  0
  -22.1439  -12.5418   22.2265 N   0  0  0  0  0  0  0  0  0  0  0  0
  -25.1228  -32.1330   23.5631 N   0  0  0  0  0  0  0  0  0  0  0  0
  -21.5173  -31.8610   17.7849 N   0  0  0  0  0  0  0  0  0  0  0  0
  -22.7850  -31.1267   14.4801 N   0  3  0  0  0  0  0  0  0  0  0  0
  -23.5315  -13.9552   23.3822 O   0  0  0  0  0  0  0  0  0  0  0  0
  -23.2572  -30.9400   22.8429 O   0  0  0  0  0  0  0  0  0  0  0  0
  -22.6113  -33.3201   19.9946 O   0  0  0  0  0  0  0  0  0  0  0  0
  -22.0540  -29.8059   16.8545 O   0  0  0  0  0  0  0  0  0  0  0  0
  -31.4797  -14.9026   20.1713 O   0  0  0  0  0  0  0  0  0  0  0  0
  -20.2525   -8.8266   18.5312 O   0  0  0  0  0  0  0  0  0  0  0  0
  -27.0790  -19.5024   19.4290 O   0  0  0  0  0  0  0  0  0  0  0  0
  -26.2736  -25.6695   20.2472 O   0  0  0  0  0  0  0  0  0  1  0  0
  -16.9412   -6.3157   22.1554 F   0  0  0  0  0  0  0  0  0  0  0  0
  -19.9426   -6.0796   18.5029 F   0  0  0  0  0  0  0  0  0  0  0  0
  1  2  1  0  0  0  0
  1  5  2  0  0  0  0
  2  6  2  0  0  0  0
  3  8  2  0  0  0  0
  3 16  1  0  0  0  0
  4  9  1  0  0  0  0
  4 16  2  0  0  0  0
  5 18  1  0  0  0  0
  6 20  1  0  0  0  0
  7 10  2  0  0  0  0
  7 19  1  0  0  0  0
  8 26  1  0  0  0  0
  9 26  2  0  0  0  0
 10 27  1  0  0  0  0
 11 12  2  0  0  0  0
 11 28  1  0  0  0  0
 12 30  1  0  0  0  0
 13 21  1  0  0  0  0
 13 27  2  0  0  0  0
 14 22  1  0  0  0  0
 14 23  2  0  0  0  0
 15 30  2  0  0  0  0
 15 31  1  0  0  0  0
 16 32  1  0  0  0  0
 17 32  1  0  0  0  0
 17 33  2  0  0  0  0
 17 34  1  0  0  0  0
 18 20  2  0  0  0  0
 18 39  1  0  0  0  0
 19 21  2  0  0  0  0
 19 40  1  0  0  0  0
 20 52  1  0  0  0  0
 21 41  1  0  0  0  0
 22 24  2  0  0  0  0
 22 64  1  0  0  0  0
 23 29  1  0  0  0  0
 23 56  1  0  0  0  0
 24 25  1  0  0  0  0
 24 57  1  0  0  0  0
 25 29  2  0  0  0  0
 25 58  1  0  0  0  0
 26 83  1  0  0  0  0
 27 85  1  0  0  0  0
 28 31  2  0  0  0  0
 28 83  1  0  0  0  0
 29 84  1  0  0  0  0
 30 86  1  0  0  0  0
 31 87  1  0  0  0  0
 32 68  2  0  0  0  0
 33 69  1  0  0  0  0
 33 73  1  0  0  0  0
 34 74  1  0  0  0  0
 34 78  2  0  0  0  0
 35 53  1  0  0  0  0
 35 75  1  0  0  0  0
 35 79  2  0  0  0  0
 36 65  1  0  0  0  0
 36 70  1  0  0  0  0
 36 80  2  0  0  0  0
 37 66  1  0  0  0  0
 37 76  1  0  0  0  0
 37 81  2  0  0  0  0
 38 71  1  0  0  0  0
 38 72  1  0  0  0  0
 38 82  2  0  0  0  0
 39 42  1  0  0  0  0
 40 53  1  0  0  0  0
 41 70  1  0  0  0  0
 42 44  1  0  0  0  0
 43 45  1  0  0  0  0
 43 48  1  0  0  0  0
 44 52  1  0  0  0  0
 45 54  1  0  0  0  0
 46 49  1  0  0  0  0
 46 55  1  0  0  0  0
 47 50  1  0  0  0  0
 47 55  1  0  0  0  0
 48 71  1  0  0  0  0
 49 72  1  0  0  0  0
 50 72  1  0  0  0  0
 51 54  1  0  0  0  0
 51 71  1  0  0  0  0
 52 75  1  0  0  0  0
 53 70  1  0  0  0  0
 54 69  1  0  0  0  0
 55 84  1  0  0  0  0
 59 66  1  0  0  0  0
 60 67  1  0  0  0  0
 61 67  1  0  0  0  0
 62 67  1  0  0  0  0
 63 77  1  0  0  0  0
 64 85  1  0  0  0  0
 65 67  1  0  0  0  0
 65 76  1  0  0  0  0
 66 77  1  0  0  0  0
 68 69  1  0  0  0  0
M  CHG  1  77   1
M  ISO  4  38 100  64 101  72 100  85 101
M  END
> <Batch ID>
0158

> <Smiles>
CNC(C)C(=O)NC(C(=O)N1Cc2cc([101O:1][101CH2:1]c3cc(C)c(OC4CC[100N:0]([100C:0](=O)N5CCCC(n6nc(-c7ccc(Oc8ccc(F)cc8F)cc7)c(C(N)=O)c6N)C5)CC4)c(C)c3C)ccc2CC1C(=O)NC1CCCc2ccccc21)C(C)(C)C

> <Shape>
0.273

> <Color>
0.121

> <Negative vol penalty>
0.000

$$$$

  -OEChem-04052322043D

 91101  0     1  0  0  0  0  0999 V2000
  -27.6309  -31.4203   13.5144 C   0  0  0  0  0  0  0  0  0  0  0  0
  -27.6862  -30.3971   14.4554 C   0  0  0  0  0  0  0  0  0  0  0  0
  -22.6500  -10.2327   20.2097 C   0  0  0  0  0  0  0  0  0  0  0  0
  -24.4207   -9.4307   21.6443 C   0  0  0  0  0  0  0  0  0  0  0  0
  -26.6086  -32.3665   13.5743 C   0  0  0  0  0  0  0  0  0  0  0  0
  -26.7197  -30.3202   15.4576 C   0  0  0  0  0  0  0  0  0  0  0  0
  -24.9872  -25.6092   16.1285 C   0  0  0  0  0  0  0  0  0  0  0  0
  -21.9478   -9.0447   20.4121 C   0  0  0  0  0  0  0  0  0  0  0  0
  -23.7185   -8.2426   21.8468 C   0  0  0  0  0  0  0  0  0  0  0  0
  -25.7945  -24.7306   16.8496 C   0  0  0  0  0  0  0  0  0  0  0  0
  -21.1129   -7.1792   23.7178 C   0  0  0  0  0  0  0  0  0  0  0  0
  -21.0273   -6.6931   25.0224 C   0  0  0  0  0  0  0  0  0  0  0  0
  -24.4446  -25.1105   18.8123 C   0  0  0  0  0  0  0  0  0  0  0  0
  -22.1400   -4.6606   24.3381 C   0  0  0  0  0  0  0  0  0  0  0  0
  -23.8865  -10.4257   20.8257 C   0  0  0  0  0  0  0  0  0  0  0  0
  -24.1854  -12.9571   20.9286 C   0  0  0  0  0  0  0  0  0  0  0  0
  -25.6236  -32.2955   14.5720 C   0  0  0  0  0  0  0  0  0  0  0  0
  -23.9072  -26.2546   16.7479 C   0  0  0  0  0  0  0  0  0  0  0  0
  -25.6841  -31.2671   15.5318 C   0  0  0  0  0  0  0  0  0  0  0  0
  -23.6235  -25.9949   18.0963 C   0  0  0  0  0  0  0  0  0  0  0  0
  -29.3105  -18.0156   20.7852 C   0  0  0  0  0  0  0  0  0  0  0  0
  -30.4256  -18.1486   21.6192 C   0  0  0  0  0  0  0  0  0  0  0  0
  -28.9329  -20.3686   20.9007 C   0  0  0  0  0  0  0  0  0  0  0  0
  -28.5518  -19.1143   20.4201 C   0  0  0  0  0  0  0  0  0  0  0  0
  -30.0551  -20.5053   21.7332 C   0  0  0  0  0  0  0  0  0  0  0  0
  -22.4820   -8.0496   21.2307 C   0  0  0  0  0  0  0  0  0  0  0  0
  -25.5250  -24.4833   18.1925 C   0  0  0  0  0  0  0  0  0  0  0  0
  -21.7120   -6.4060   22.7233 C   0  0  0  0  0  0  0  0  0  0  0  0
  -30.8121  -19.3897   22.0978 C   0  0  0  0  0  0  0  0  0  0  0  0
  -21.5408   -5.4338   25.3325 C   0  0  0  0  0  0  0  0  0  0  0  0
  -22.2256   -5.1467   23.0335 C   0  0  0  0  0  0  0  0  0  0  0  0
  -24.6126  -11.6526   20.6165 C   0  0  0  0  0  0  0  0  0  0  0  0
  -25.2278  -13.7622   20.5392 C   0  0  0  0  0  0  0  0  0  0  0  0
  -22.9562  -13.4014   21.5180 C   0  0  0  0  0  0  0  0  0  0  0  0
  -23.1403  -29.2832   17.3334 C   0  0  0  0  0  0  0  0  0  0  0  0
  -20.3605  -27.9714   18.3700 C   0  0  0  0  0  0  0  0  0  0  0  0
  -19.3675  -25.0906   20.3019 C   0  0  0  0  0  0  0  0  0  0  0  0
  -30.7839  -14.6627   20.5977 C   0  0  0  0  0  0  0  0  0  0  0  0
  -24.5651  -33.3685   14.6246 C   0  0  0  0  0  0  0  0  0  0  0  0
  -23.0298  -27.1790   15.9491 C   0  0  0  0  0  0  0  0  0  0  0  0
  -22.4638  -26.6467   18.8024 C   0  0  0  0  0  0  0  0  0  0  0  0
  -29.0980  -16.5829   20.4207 C   0  0  0  0  0  0  0  0  0  0  0  0
  -23.3659  -32.9990   15.4939 C   0  0  0  0  0  0  0  0  0  0  0  0
  -29.3673  -12.7331   17.8174 C   0  0  0  0  0  0  0  0  0  0  0  0
  -28.9615  -22.5869   19.6848 C   0  0  0  0  0  0  0  0  0  0  0  0
  -27.4858  -22.2875   21.7309 C   0  0  0  0  0  0  0  0  0  0  0  0
  -23.8306  -32.4215   16.8271 C   0  0  0  0  0  0  0  0  0  0  0  0
  -27.9833  -12.3515   18.3471 C   0  0  0  0  0  0  0  0  0  0  0  0
  -28.4923  -24.0417   19.8121 C   0  0  0  0  0  0  0  0  0  0  0  0
  -26.5399  -23.4195   21.3091 C   0  0  0  0  0  0  0  0  0  0  0  0
  -30.3927  -12.8724   18.9408 C   0  0  0  0  0  0  0  0  0  0  0  0
  -28.6076  -13.3812   20.5611 C   0  0  0  0  0  0  0  0  0  0  0  0
  -28.1250  -21.5954   20.5190 C   0  0  0  0  0  0  0  0  0  0  0  0
  -24.6399  -31.1357   16.6193 C   0  0  1  0  0  0  0  0  0  0  0  0
  -31.0679  -16.8118   21.8475 C   0  0  1  0  0  0  0  0  0  0  0  0
  -22.2665  -28.1757   16.8160 C   0  0  1  0  0  0  0  0  0  0  0  0
  -27.5323  -13.3065   19.4691 C   0  0  2  0  0  0  0  0  0  0  0  0
  -26.9895  -24.1581   20.0423 C   0  0  0  0  0  0  0  0  0  1  0  0
  -27.3606  -18.9504   19.5381 C   0  0  0  0  0  0  0  0  0  0  0  0
  -30.4521  -21.8583   22.2360 C   0  0  0  0  0  0  0  0  0  0  0  0
  -31.0461  -16.3911   23.3126 C   0  0  0  0  0  0  0  0  0  0  0  0
  -34.2450  -19.8811   23.2819 C   0  0  0  0  0  0  0  0  0  0  0  0
  -17.2358  -23.7667   20.2790 C   0  0  0  0  0  0  0  0  0  0  0  0
  -19.5274  -29.8204   20.6497 C   0  0  0  0  0  0  0  0  0  0  0  0
  -18.4274  -27.8572   21.7471 C   0  0  0  0  0  0  0  0  0  0  0  0
  -17.6342  -28.6431   19.5164 C   0  0  0  0  0  0  0  0  0  0  0  0
  -20.8110  -22.5559   19.8013 C   0  0  0  0  0  0  0  0  0  0  0  0
  -33.1582  -19.7532   22.2358 C   0  0  0  0  0  0  0  0  0  0  0  0
  -19.8538  -27.4453   19.6912 C   0  0  1  0  0  0  0  0  0  0  0  0
  -18.6716  -23.8449   19.7839 C   0  0  2  0  0  0  0  0  0  0  0  0
  -18.8884  -28.4407   20.3944 C   0  0  0  0  0  0  0  0  0  0  0  0
  -25.8314  -11.6259   20.0706 N   0  0  0  0  0  0  0  0  0  0  0  0
  -26.1788  -12.9237   20.0367 N   0  0  0  0  0  0  0  0  0  0  0  0
  -21.6390  -27.5475   17.9804 N   0  0  0  0  0  0  0  0  0  0  0  0
  -30.2607  -15.8915   21.0148 N   0  0  0  0  0  0  0  0  0  0  0  0
  -29.8996  -13.7676   19.9862 N   0  0  0  0  0  0  0  0  0  0  0  0
  -25.4144  -15.0986   20.5810 N   0  0  0  0  0  0  0  0  0  0  0  0
  -22.8832  -13.5038   22.9139 N   0  0  0  0  0  0  0  0  0  0  0  0
  -23.7577  -30.0224   16.3425 N   0  0  0  0  0  0  0  0  0  0  0  0
  -19.2666  -26.1393   19.4124 N   0  0  0  0  0  0  0  0  0  0  0  0
  -19.3926  -22.6221   20.2378 N   0  3  0  0  0  0  0  0  0  0  0  0
  -21.9471  -13.6830   20.8282 O   0  0  0  0  0  0  0  0  0  0  0  0
  -23.2453  -29.4553   18.5422 O   0  0  0  0  0  0  0  0  0  0  0  0
  -19.6453  -28.7247   17.7046 O   0  0  0  0  0  0  0  0  0  0  0  0
  -19.9399  -25.1305   21.3888 O   0  0  0  0  0  0  0  0  0  0  0  0
  -31.9866  -14.3985   20.7195 O   0  0  0  0  0  0  0  0  0  0  0  0
  -21.7970   -6.8903   21.4287 O   0  0  0  0  0  0  0  0  0  0  0  0
  -26.3169  -23.6211   18.9034 O   0  0  0  0  0  0  0  0  0  1  0  0
  -31.9101  -19.5186   22.8881 O   0  0  0  0  0  0  0  0  0  0  0  0
  -21.4599   -4.9678   26.5857 F   0  0  0  0  0  0  0  0  0  0  0  0
  -22.8033   -4.3998   22.0826 F   0  0  0  0  0  0  0  0  0  0  0  0
  1  2  1  0  0  0  0
  1  5  2  0  0  0  0
  2  6  2  0  0  0  0
  3  8  2  0  0  0  0
  3 15  1  0  0  0  0
  4  9  1  0  0  0  0
  4 15  2  0  0  0  0
  5 17  1  0  0  0  0
  6 19  1  0  0  0  0
  7 10  2  0  0  0  0
  7 18  1  0  0  0  0
  8 26  1  0  0  0  0
  9 26  2  0  0  0  0
 10 27  1  0  0  0  0
 11 12  2  0  0  0  0
 11 28  1  0  0  0  0
 12 30  1  0  0  0  0
 13 20  1  0  0  0  0
 13 27  2  0  0  0  0
 14 30  2  0  0  0  0
 14 31  1  0  0  0  0
 15 32  1  0  0  0  0
 16 32  1  0  0  0  0
 16 33  2  0  0  0  0
 16 34  1  0  0  0  0
 17 19  2  0  0  0  0
 17 39  1  0  0  0  0
 18 20  2  0  0  0  0
 18 40  1  0  0  0  0
 19 54  1  0  0  0  0
 20 41  1  0  0  0  0
 21 22  1  0  0  0  0
 21 24  2  0  0  0  0
 21 42  1  0  0  0  0
 22 29  2  0  0  0  0
 22 55  1  0  0  0  0
 23 24  1  0  0  0  0
 23 25  2  0  0  0  0
 23 53  1  0  0  0  0
 24 59  1  0  0  0  0
 25 29  1  0  0  0  0
 25 60  1  0  0  0  0
 26 87  1  0  0  0  0
 27 88  1  0  0  0  0
 28 31  2  0  0  0  0
 28 87  1  0  0  0  0
 29 89  1  0  0  0  0
 30 90  1  0  0  0  0
 31 91  1  0  0  0  0
 32 72  2  0  0  0  0
 33 73  1  0  0  0  0
 33 77  1  0  0  0  0
 34 78  1  0  0  0  0
 34 82  2  0  0  0  0
 35 56  1  0  0  0  0
 35 79  1  0  0  0  0
 35 83  2  0  0  0  0
 36 69  1  0  0  0  0
 36 74  1  0  0  0  0
 36 84  2  0  0  0  0
 37 70  1  0  0  0  0
 37 80  1  0  0  0  0
 37 85  2  0  0  0  0
 38 75  1  0  0  0  0
 38 76  1  0  0  0  0
 38 86  2  0  0  0  0
 39 43  1  0  0  0  0
 40 56  1  0  0  0  0
 41 74  1  0  0  0  0
 42 75  1  0  0  0  0
 43 47  1  0  0  0  0
 44 48  1  0  0  0  0
 44 51  1  0  0  0  0
 45 49  1  0  0  0  0
 45 53  1  0  0  0  0
 46 50  1  0  0  0  0
 46 53  1  0  0  0  0
 47 54  1  0  0  0  0
 48 57  1  0  0  0  0
 49 58  1  0  0  0  0
 50 58  1  0  0  0  0
 51 76  1  0  0  0  0
 52 57  1  0  0  0  0
 52 76  1  0  0  0  0
 54 79  1  0  0  0  0
 55 61  1  0  0  0  0
 55 75  1  0  0  0  0
 56 74  1  0  0  0  0
 57 73  1  0  0  0  0
 58 88  1  0  0  0  0
 62 68  1  0  0  0  0
 63 70  1  0  0  0  0
 64 71  1  0  0  0  0
 65 71  1  0  0  0  0
 66 71  1  0  0  0  0
 67 81  1  0  0  0  0
 68 89  1  0  0  0  0
 69 71  1  0  0  0  0
 69 80  1  0  0  0  0
 70 81  1  0  0  0  0
 72 73  1  0  0  0  0
M  CHG  1  81   1
M  ISO  4  38 100  58 101  75 100  88 101
M  END
> <Batch ID>
0158

> <Smiles>
CCOc1c(C)c(C2CC[101CH:1]([101O:1]c3ccc4c(c3)CN(C(=O)C(NC(=O)C(C)NC)C(C)(C)C)C(C(=O)NC3CCCc5ccccc53)C4)CC2)c(C)c2c1C(C)[100N:0]([100C:0](=O)N1CCCC(n3nc(-c4ccc(Oc5ccc(F)cc5F)cc4)c(C(N)=O)c3N)C1)C2

> <Shape>
0.268

> <Color>
0.165

> <Negative vol penalty>
0.000

$$$$

  -OEChem-04052322043D

 85 94  0     1  0  0  0  0  0999 V2000
  -22.1456  -11.8396   18.9151 C   0  0  0  0  0  0  0  0  0  0  0  0
  -21.7794  -13.0572   19.4798 C   0  0  0  0  0  0  0  0  0  0  0  0
  -24.7458  -25.1856   16.7688 C   0  0  0  0  0  0  0  0  0  0  0  0
  -27.1192  -25.6312   16.6959 C   0  0  0  0  0  0  0  0  0  0  0  0
  -23.4356  -11.3452   19.1032 C   0  0  0  0  0  0  0  0  0  0  0  0
  -22.7028  -13.7805   20.2339 C   0  0  0  0  0  0  0  0  0  0  0  0
  -23.2174  -19.8740   20.5665 C   0  0  0  0  0  0  0  0  0  0  0  0
  -24.7987  -24.6907   15.4658 C   0  0  0  0  0  0  0  0  0  0  0  0
  -27.1722  -25.1363   15.3929 C   0  0  0  0  0  0  0  0  0  0  0  0
  -22.7634  -20.8040   21.5007 C   0  0  0  0  0  0  0  0  0  0  0  0
  -27.9992  -23.6564   12.1767 C   0  0  0  0  0  0  0  0  0  0  0  0
  -29.0418  -22.7879   11.8539 C   0  0  0  0  0  0  0  0  0  0  0  0
  -23.2076  -24.8163   24.9800 C   0  0  0  0  0  0  0  0  0  0  0  0
  -24.9123  -20.7449   22.5950 C   0  0  0  0  0  0  0  0  0  0  0  0
  -28.2838  -21.2464   13.5528 C   0  0  0  0  0  0  0  0  0  0  0  0
  -25.9061  -25.6559   17.3839 C   0  0  0  0  0  0  0  0  0  0  0  0
  -26.0252  -25.4413   19.9231 C   0  0  0  0  0  0  0  0  0  0  0  0
  -24.3782  -12.0674   19.8519 C   0  0  0  0  0  0  0  0  0  0  0  0
  -24.5209  -19.3633   20.6462 C   0  0  0  0  0  0  0  0  0  0  0  0
  -24.0062  -13.2946   20.4333 C   0  0  0  0  0  0  0  0  0  0  0  0
  -22.5907  -25.7050   25.8535 C   0  0  0  0  0  0  0  0  0  0  0  0
  -25.3813  -19.8103   21.6592 C   0  0  0  0  0  0  0  0  0  0  0  0
  -23.4289  -23.5019   25.3757 C   0  0  0  0  0  0  0  0  0  0  0  0
  -26.0119  -24.6660   14.7778 C   0  0  0  0  0  0  0  0  0  0  0  0
  -23.6099  -21.2374   22.5168 C   0  0  0  0  0  0  0  0  0  0  0  0
  -27.0989  -23.3200   13.1876 C   0  0  0  0  0  0  0  0  0  0  0  0
  -29.1841  -21.5829   12.5419 C   0  0  0  0  0  0  0  0  0  0  0  0
  -27.2412  -22.1150   13.8756 C   0  0  0  0  0  0  0  0  0  0  0  0
  -25.8520  -26.1677   18.7297 C   0  0  0  0  0  0  0  0  0  0  0  0
  -22.2171  -25.2335   27.1017 C   0  0  0  0  0  0  0  0  0  0  0  0
  -23.0180  -23.1290   26.6454 C   0  0  0  0  0  0  0  0  0  0  0  0
  -25.8810  -26.3767   20.9184 C   0  0  0  0  0  0  0  0  0  0  0  0
  -26.2926  -24.0458   20.1147 C   0  0  0  0  0  0  0  0  0  0  0  0
  -25.7761  -16.4744   21.0730 C   0  0  0  0  0  0  0  0  0  0  0  0
  -28.5662  -18.0308   20.5111 C   0  0  0  0  0  0  0  0  0  0  0  0
  -30.2988  -20.9709   20.5324 C   0  0  0  0  0  0  0  0  0  0  0  0
  -23.4095  -30.6793   23.2193 C   0  0  0  0  0  0  0  0  0  0  0  0
  -25.7461  -11.4698   20.0673 C   0  0  0  0  0  0  0  0  0  0  0  0
  -25.0042  -18.3807   19.6150 C   0  0  0  0  0  0  0  0  0  0  0  0
  -26.7964  -19.3082   21.7766 C   0  0  0  0  0  0  0  0  0  0  0  0
  -26.7790  -12.4769   20.5664 C   0  0  0  0  0  0  0  0  0  0  0  0
  -25.6729  -31.4197   20.7132 C   0  0  0  0  0  0  0  0  0  0  0  0
  -26.2032  -13.3122   21.7056 C   0  0  0  0  0  0  0  0  0  0  0  0
  -25.9459  -30.0645   20.0606 C   0  0  0  0  0  0  0  0  0  0  0  0
  -23.5007  -28.0694   25.8414 C   0  0  0  0  0  0  0  0  0  0  0  0
  -22.0740  -27.2548   23.9174 C   0  0  0  0  0  0  0  0  0  0  0  0
  -24.1938  -31.5769   21.0480 C   0  0  0  0  0  0  0  0  0  0  0  0
  -23.2552  -29.5056   25.3851 C   0  0  0  0  0  0  0  0  0  0  0  0
  -21.8592  -28.7084   23.5059 C   0  0  0  0  0  0  0  0  0  0  0  0
  -23.9196  -29.1304   21.2794 C   0  0  0  0  0  0  0  0  0  0  0  0
  -22.3462  -27.1406   25.4278 C   0  0  0  0  0  0  0  0  0  0  0  0
  -24.9871  -14.1204   21.2371 C   0  0  1  0  0  0  0  0  0  0  0  0
  -26.1834  -17.5410   20.0962 C   0  0  1  0  0  0  0  0  0  0  0  0
  -25.4055  -28.9147   20.9290 C   0  0  1  0  0  0  0  0  0  0  0  0
  -21.5517  -26.1427   28.0823 C   0  0  0  0  0  0  0  0  0  0  0  0
  -23.2292  -21.7295   27.1228 C   0  0  0  0  0  0  0  0  0  0  0  0
  -32.2070  -22.5520   20.1372 C   0  0  0  0  0  0  0  0  0  0  0  0
  -29.5997  -16.8654   23.1347 C   0  0  0  0  0  0  0  0  0  0  0  0
  -31.4417  -18.5603   23.0812 C   0  0  0  0  0  0  0  0  0  0  0  0
  -31.2605  -16.8600   21.2649 C   0  0  0  0  0  0  0  0  0  0  0  0
  -29.3512  -21.6159   17.8038 C   0  0  0  0  0  0  0  0  0  0  0  0
  -24.0896  -22.5448   24.4447 C   0  0  0  0  0  0  0  0  0  1  0  0
  -29.5817  -18.7477   21.3676 C   0  0  1  0  0  0  0  0  0  0  0  0
  -31.1924  -21.6210   19.4917 C   0  0  2  0  0  0  0  0  0  0  0  0
  -30.4437  -17.7665   22.2113 C   0  0  0  0  0  0  0  0  0  0  0  0
  -25.6156  -27.4646   18.9451 N   0  0  0  0  0  0  0  0  0  0  0  0
  -22.4156  -23.9639   27.5216 N   0  0  0  0  0  0  0  0  0  0  0  0
  -25.6392  -27.5604   20.2854 N   0  0  0  0  0  0  0  0  0  0  0  0
  -27.2202  -18.3437   20.7482 N   0  0  0  0  0  0  0  0  0  0  0  0
  -23.7177  -30.4628   21.8676 N   0  0  0  0  0  0  0  0  0  0  0  0
  -22.9635  -29.5680   23.9535 N   0  0  0  0  0  0  0  0  0  0  0  0
  -25.9386  -26.2940   22.2646 N   0  0  0  0  0  0  0  0  0  0  0  0
  -26.4110  -23.2267   18.9837 N   0  0  0  0  0  0  0  0  0  0  0  0
  -25.4113  -15.2798   20.4819 N   0  0  0  0  0  0  0  0  0  0  0  0
  -30.3526  -19.5948   20.4640 N   0  0  0  0  0  0  0  0  0  0  0  0
  -30.3752  -22.4118   18.5284 N   0  3  0  0  0  0  0  0  0  0  0  0
  -26.4066  -23.5372   21.2557 O   0  0  0  0  0  0  0  0  0  0  0  0
  -25.7931  -16.7167   22.2741 O   0  0  0  0  0  0  0  0  0  0  0  0
  -28.9532  -17.2282   19.6580 O   0  0  0  0  0  0  0  0  0  0  0  0
  -29.6235  -21.6190   21.3290 O   0  0  0  0  0  0  0  0  0  0  0  0
  -23.5298  -31.7943   23.7419 O   0  0  0  0  0  0  0  0  0  0  0  0
  -26.0639  -24.1830   13.5064 O   0  0  0  0  0  0  0  0  0  0  0  0
  -23.1662  -22.1508   23.4365 O   0  0  0  0  0  0  0  0  0  1  0  0
  -30.1844  -20.7482   12.2307 F   0  0  0  0  0  0  0  0  0  0  0  0
  -26.3786  -21.7858   14.8470 F   0  0  0  0  0  0  0  0  0  0  0  0
  1  2  1  0  0  0  0
  1  5  2  0  0  0  0
  2  6  2  0  0  0  0
  3  8  2  0  0  0  0
  3 16  1  0  0  0  0
  4  9  1  0  0  0  0
  4 16  2  0  0  0  0
  5 18  1  0  0  0  0
  6 20  1  0  0  0  0
  7 10  2  0  0  0  0
  7 19  1  0  0  0  0
  8 24  1  0  0  0  0
  9 24  2  0  0  0  0
 10 25  1  0  0  0  0
 11 12  2  0  0  0  0
 11 26  1  0  0  0  0
 12 27  1  0  0  0  0
 13 21  2  0  0  0  0
 13 23  1  0  0  0  0
 14 22  1  0  0  0  0
 14 25  2  0  0  0  0
 15 27  2  0  0  0  0
 15 28  1  0  0  0  0
 16 29  1  0  0  0  0
 17 29  1  0  0  0  0
 17 32  2  0  0  0  0
 17 33  1  0  0  0  0
 18 20  2  0  0  0  0
 18 38  1  0  0  0  0
 19 22  2  0  0  0  0
 19 39  1  0  0  0  0
 20 52  1  0  0  0  0
 21 30  1  0  0  0  0
 21 51  1  0  0  0  0
 22 40  1  0  0  0  0
 23 31  2  0  0  0  0
 23 62  1  0  0  0  0
 24 82  1  0  0  0  0
 25 83  1  0  0  0  0
 26 28  2  0  0  0  0
 26 82  1  0  0  0  0
 27 84  1  0  0  0  0
 28 85  1  0  0  0  0
 29 66  2  0  0  0  0
 30 55  1  0  0  0  0
 30 67  2  0  0  0  0
 31 56  1  0  0  0  0
 31 67  1  0  0  0  0
 32 68  1  0  0  0  0
 32 72  1  0  0  0  0
 33 73  1  0  0  0  0
 33 77  2  0  0  0  0
 34 53  1  0  0  0  0
 34 74  1  0  0  0  0
 34 78  2  0  0  0  0
 35 63  1  0  0  0  0
 35 69  1  0  0  0  0
 35 79  2  0  0  0  0
 36 64  1  0  0  0  0
 36 75  1  0  0  0  0
 36 80  2  0  0  0  0
 37 70  1  0  0  0  0
 37 71  1  0  0  0  0
 37 81  2  0  0  0  0
 38 41  1  0  0  0  0
 39 53  1  0  0  0  0
 40 69  1  0  0  0  0
 41 43  1  0  0  0  0
 42 44  1  0  0  0  0
 42 47  1  0  0  0  0
 43 52  1  0  0  0  0
 44 54  1  0  0  0  0
 45 48  1  0  0  0  0
 45 51  1  0  0  0  0
 46 49  1  0  0  0  0
 46 51  1  0  0  0  0
 47 70  1  0  0  0  0
 48 71  1  0  0  0  0
 49 71  1  0  0  0  0
 50 54  1  0  0  0  0
 50 70  1  0  0  0  0
 52 74  1  0  0  0  0
 53 69  1  0  0  0  0
 54 68  1  0  0  0  0
 57 64  1  0  0  0  0
 58 65  1  0  0  0  0
 59 65  1  0  0  0  0
 60 65  1  0  0  0  0
 61 76  1  0  0  0  0
 62 83  1  0  0  0  0
 63 65  1  0  0  0  0
 63 75  1  0  0  0  0
 64 76  1  0  0  0  0
 66 68  1  0  0  0  0
M  CHG  1  76   1
M  ISO  4  37 100  62 101  71 100  83 101
M  END
> <Batch ID>
0158

> <Smiles>
CNC(C)C(=O)NC(C(=O)N1Cc2cc([101O:1][101CH2:1]c3cc(C4CC[100N:0]([100C:0](=O)N5CCCC(n6nc(-c7ccc(Oc8ccc(F)cc8F)cc7)c(C(N)=O)c6N)C5)CC4)c(C)nc3C)ccc2CC1C(=O)NC1CCCc2ccccc21)C(C)(C)C

> <Shape>
0.168

> <Color>
0.079

> <Negative vol penalty>
0.000

$$$$

  -OEChem-04052322043D

 87 96  0     1  0  0  0  0  0999 V2000
  -21.1528  -33.3761   26.7801 C   0  0  0  0  0  0  0  0  0  0  0  0
  -21.5236  -34.2733   25.7848 C   0  0  0  0  0  0  0  0  0  0  0  0
  -24.5071   -9.1237   22.0917 C   0  0  0  0  0  0  0  0  0  0  0  0
  -23.5301   -9.6341   19.9418 C   0  0  0  0  0  0  0  0  0  0  0  0
  -22.1191  -32.5785   27.3894 C   0  0  0  0  0  0  0  0  0  0  0  0
  -22.8588  -34.3646   25.3902 C   0  0  0  0  0  0  0  0  0  0  0  0
  -28.0513  -30.6094   21.1249 C   0  0  0  0  0  0  0  0  0  0  0  0
  -23.4383   -8.2737   22.3757 C   0  0  0  0  0  0  0  0  0  0  0  0
  -22.4612   -8.7840   20.2258 C   0  0  0  0  0  0  0  0  0  0  0  0
  -28.1786  -29.2379   20.9097 C   0  0  0  0  0  0  0  0  0  0  0  0
  -22.4677   -5.1369   21.5686 C   0  0  0  0  0  0  0  0  0  0  0  0
  -22.7604   -3.8891   22.1191 C   0  0  0  0  0  0  0  0  0  0  0  0
  -25.7873  -29.0637   20.6444 C   0  0  0  0  0  0  0  0  0  0  0  0
  -21.4425   -4.4398   24.0677 C   0  0  0  0  0  0  0  0  0  0  0  0
  -24.5530   -9.8039   20.8748 C   0  0  0  0  0  0  0  0  0  0  0  0
  -26.8683  -10.3437   19.9497 C   0  0  0  0  0  0  0  0  0  0  0  0
  -23.4685  -32.6697   27.0101 C   0  0  0  0  0  0  0  0  0  0  0  0
  -26.7879  -31.2177   21.1123 C   0  0  0  0  0  0  0  0  0  0  0  0
  -23.8452  -33.5510   25.9764 C   0  0  0  0  0  0  0  0  0  0  0  0
  -25.6469  -30.4436   20.8572 C   0  0  0  0  0  0  0  0  0  0  0  0
  -28.8223  -24.6222   18.9706 C   0  0  0  0  0  0  0  0  0  0  0  0
  -27.9630  -24.2274   21.1937 C   0  0  0  0  0  0  0  0  0  0  0  0
  -28.4213  -25.1089   20.2147 C   0  0  0  0  0  0  0  0  0  0  0  0
  -28.7650  -23.2540   18.7054 C   0  0  0  0  0  0  0  0  0  0  0  0
  -27.9057  -22.8591   20.9286 C   0  0  0  0  0  0  0  0  0  0  0  0
  -28.3067  -22.3724   19.6844 C   0  0  0  0  0  0  0  0  0  0  0  0
  -22.4154   -8.1038   21.4427 C   0  0  0  0  0  0  0  0  0  0  0  0
  -27.0462  -28.4643   20.6723 C   0  0  0  0  0  0  0  0  0  0  0  0
  -21.6626   -6.0362   22.2677 C   0  0  0  0  0  0  0  0  0  0  0  0
  -22.2477   -3.5406   23.3686 C   0  0  0  0  0  0  0  0  0  0  0  0
  -21.1500   -5.6876   23.5172 C   0  0  0  0  0  0  0  0  0  0  0  0
  -25.6566  -10.6826   20.5811 C   0  0  0  0  0  0  0  0  0  0  0  0
  -27.5744  -11.5210   19.9073 C   0  0  0  0  0  0  0  0  0  0  0  0
  -27.3156   -9.0778   19.4464 C   0  0  0  0  0  0  0  0  0  0  0  0
  -25.0412  -32.8052   23.2413 C   0  0  0  0  0  0  0  0  0  0  0  0
  -23.0773  -33.2723   20.7022 C   0  0  0  0  0  0  0  0  0  0  0  0
  -21.9998  -32.2180   17.6404 C   0  0  0  0  0  0  0  0  0  0  0  0
  -28.0235  -16.7962   19.0047 C   0  0  0  0  0  0  0  0  0  0  0  0
  -24.4718  -31.7771   27.6973 C   0  0  0  0  0  0  0  0  0  0  0  0
  -26.6700  -32.7028   21.3197 C   0  0  0  0  0  0  0  0  0  0  0  0
  -24.2696  -31.0516   20.8132 C   0  0  0  0  0  0  0  0  0  0  0  0
  -25.9093  -32.2578   27.5278 C   0  0  0  0  0  0  0  0  0  0  0  0
  -26.7313  -15.9613   22.1627 C   0  0  0  0  0  0  0  0  0  0  0  0
  -26.1897  -32.5516   26.0617 C   0  0  0  0  0  0  0  0  0  0  0  0
  -26.4291  -14.4738   21.9837 C   0  0  0  0  0  0  0  0  0  0  0  0
  -26.3646  -16.7741   20.9199 C   0  0  0  0  0  0  0  0  0  0  0  0
  -29.4142  -20.1588   19.7194 C   0  0  0  0  0  0  0  0  0  0  0  0
  -26.9340  -20.3464   19.4747 C   0  0  0  0  0  0  0  0  0  0  0  0
  -29.3759  -18.8572   18.9230 C   0  0  0  0  0  0  0  0  0  0  0  0
  -26.9414  -19.0498   18.6726 C   0  0  0  0  0  0  0  0  0  0  0  0
  -26.6701  -14.7788   19.4904 C   0  0  0  0  0  0  0  0  0  0  0  0
  -25.2962  -33.6895   25.5521 C   0  0  1  0  0  0  0  0  0  0  0  0
  -25.2853  -33.1317   21.7951 C   0  0  1  0  0  0  0  0  0  0  0  0
  -27.0825  -13.9278   20.7016 C   0  0  2  0  0  0  0  0  0  0  0  0
  -29.3147  -25.5681   17.9206 C   0  0  0  0  0  0  0  0  0  0  0  0
  -27.5318  -24.7501   22.5278 C   0  0  0  0  0  0  0  0  0  0  0  0
  -29.1966  -22.7354   17.3692 C   0  0  0  0  0  0  0  0  0  0  0  0
  -27.4126  -21.9159   21.9817 C   0  0  0  0  0  0  0  0  0  0  0  0
  -20.3581  -32.7821   15.8282 C   0  0  0  0  0  0  0  0  0  0  0  0
  -20.8125  -32.1403   22.4049 C   0  0  0  0  0  0  0  0  0  0  0  0
  -19.4781  -31.8425   20.3076 C   0  0  0  0  0  0  0  0  0  0  0  0
  -20.1846  -34.1262   21.0205 C   0  0  0  0  0  0  0  0  0  0  0  0
  -24.1551  -32.6157   15.6516 C   0  0  0  0  0  0  0  0  0  0  0  0
  -28.4826  -26.5768   20.4990 C   0  0  0  0  0  0  0  0  0  1  0  0
  -21.9116  -32.5252   20.1006 C   0  0  1  0  0  0  0  0  0  0  0  0
  -21.7791  -32.9657   16.3378 C   0  0  2  0  0  0  0  0  0  0  0  0
  -20.6223  -32.6464   20.9611 C   0  0  0  0  0  0  0  0  0  0  0  0
  -25.5932  -11.9740   20.9159 N   0  0  0  0  0  0  0  0  0  0  0  0
  -26.7740  -12.4570   20.4934 N   0  0  0  0  0  0  0  0  0  0  0  0
  -28.2496  -20.9984   19.4183 N   0  0  0  0  0  0  0  0  0  0  0  0
  -24.2057  -32.5067   21.0282 N   0  0  0  0  0  0  0  0  0  0  0  0
  -26.9771  -16.1925   19.7180 N   0  0  0  0  0  0  0  0  0  0  0  0
  -28.0793  -18.1986   19.0260 N   0  0  0  0  0  0  0  0  0  0  0  0
  -28.7957  -11.8365   19.4264 N   0  0  0  0  0  0  0  0  0  0  0  0
  -26.4649   -7.9709   19.5710 N   0  0  0  0  0  0  0  0  0  0  0  0
  -25.4406  -33.7967   24.1170 N   0  0  0  0  0  0  0  0  0  0  0  0
  -21.7685  -33.0221   18.7364 N   0  0  0  0  0  0  0  0  0  0  0  0
  -22.7205  -32.4740   15.2924 N   0  3  0  0  0  0  0  0  0  0  0  0
  -28.4430   -8.9291   18.9170 O   0  0  0  0  0  0  0  0  0  0  0  0
  -24.5271  -31.7338   23.5404 O   0  0  0  0  0  0  0  0  0  0  0  0
  -22.9926  -34.4914   20.8698 O   0  0  0  0  0  0  0  0  0  0  0  0
  -22.3395  -31.0376   17.6816 O   0  0  0  0  0  0  0  0  0  0  0  0
  -28.8601  -16.1248   18.3881 O   0  0  0  0  0  0  0  0  0  0  0  0
  -21.3724   -7.2742   21.7194 O   0  0  0  0  0  0  0  0  0  0  0  0
  -27.1685  -27.1152   20.4610 O   0  0  0  0  0  0  0  0  0  1  0  0
  -22.5276   -2.3417   23.8965 F   0  0  0  0  0  0  0  0  0  0  0  0
  -20.3749   -6.5469   24.1930 F   0  0  0  0  0  0  0  0  0  0  0  0
  1  2  1  0  0  0  0
  1  5  2  0  0  0  0
  2  6  2  0  0  0  0
  3  8  2  0  0  0  0
  3 15  1  0  0  0  0
  4  9  1  0  0  0  0
  4 15  2  0  0  0  0
  5 17  1  0  0  0  0
  6 19  1  0  0  0  0
  7 10  2  0  0  0  0
  7 18  1  0  0  0  0
  8 27  1  0  0  0  0
  9 27  2  0  0  0  0
 10 28  1  0  0  0  0
 11 12  2  0  0  0  0
 11 29  1  0  0  0  0
 12 30  1  0  0  0  0
 13 20  1  0  0  0  0
 13 28  2  0  0  0  0
 14 30  2  0  0  0  0
 14 31  1  0  0  0  0
 15 32  1  0  0  0  0
 16 32  1  0  0  0  0
 16 33  2  0  0  0  0
 16 34  1  0  0  0  0
 17 19  2  0  0  0  0
 17 39  1  0  0  0  0
 18 20  2  0  0  0  0
 18 40  1  0  0  0  0
 19 52  1  0  0  0  0
 20 41  1  0  0  0  0
 21 23  1  0  0  0  0
 21 24  2  0  0  0  0
 21 55  1  0  0  0  0
 22 23  2  0  0  0  0
 22 25  1  0  0  0  0
 22 56  1  0  0  0  0
 23 64  1  0  0  0  0
 24 26  1  0  0  0  0
 24 57  1  0  0  0  0
 25 26  2  0  0  0  0
 25 58  1  0  0  0  0
 26 70  1  0  0  0  0
 27 84  1  0  0  0  0
 28 85  1  0  0  0  0
 29 31  2  0  0  0  0
 29 84  1  0  0  0  0
 30 86  1  0  0  0  0
 31 87  1  0  0  0  0
 32 68  2  0  0  0  0
 33 69  1  0  0  0  0
 33 74  1  0  0  0  0
 34 75  1  0  0  0  0
 34 79  2  0  0  0  0
 35 53  1  0  0  0  0
 35 76  1  0  0  0  0
 35 80  2  0  0  0  0
 36 65  1  0  0  0  0
 36 71  1  0  0  0  0
 36 81  2  0  0  0  0
 37 66  1  0  0  0  0
 37 77  1  0  0  0  0
 37 82  2  0  0  0  0
 38 72  1  0  0  0  0
 38 73  1  0  0  0  0
 38 83  2  0  0  0  0
 39 42  1  0  0  0  0
 40 53  1  0  0  0  0
 41 71  1  0  0  0  0
 42 44  1  0  0  0  0
 43 45  1  0  0  0  0
 43 46  1  0  0  0  0
 44 52  1  0  0  0  0
 45 54  1  0  0  0  0
 46 72  1  0  0  0  0
 47 49  1  0  0  0  0
 47 70  1  0  0  0  0
 48 50  1  0  0  0  0
 48 70  1  0  0  0  0
 49 73  1  0  0  0  0
 50 73  1  0  0  0  0
 51 54  1  0  0  0  0
 51 72  1  0  0  0  0
 52 76  1  0  0  0  0
 53 71  1  0  0  0  0
 54 69  1  0  0  0  0
 59 66  1  0  0  0  0
 60 67  1  0  0  0  0
 61 67  1  0  0  0  0
 62 67  1  0  0  0  0
 63 78  1  0  0  0  0
 64 85  1  0  0  0  0
 65 67  1  0  0  0  0
 65 77  1  0  0  0  0
 66 78  1  0  0  0  0
 68 69  1  0  0  0  0
M  CHG  1  78   1
M  ISO  4  38 100  64 101  73 100  85 101
M  END
> <Batch ID>
0158

> <Smiles>
CNC(C)C(=O)NC(C(=O)N1Cc2cc([101O:1][101CH2:1]c3c(C)c(C)c(N4CC[100N:0]([100C:0](=O)N5CCCC(n6nc(-c7ccc(Oc8ccc(F)cc8F)cc7)c(C(N)=O)c6N)C5)CC4)c(C)c3C)ccc2CC1C(=O)NC1CCCc2ccccc21)C(C)(C)C

> <Shape>
0.280

> <Color>
0.085

> <Negative vol penalty>
0.000

$$$$

  -OEChem-04052322043D

 89 98  0     1  0  0  0  0  0999 V2000
  -29.8055  -12.4936   19.7321 C   0  0  0  0  0  0  0  0  0  0  0  0
  -29.3257  -13.2485   20.7964 C   0  0  0  0  0  0  0  0  0  0  0  0
  -29.6628  -24.1145   19.3621 C   0  0  0  0  0  0  0  0  0  0  0  0
  -27.4071  -23.3604   19.7865 C   0  0  0  0  0  0  0  0  0  0  0  0
  -29.2105  -12.6078   18.4774 C   0  0  0  0  0  0  0  0  0  0  0  0
  -28.2433  -14.1089   20.6093 C   0  0  0  0  0  0  0  0  0  0  0  0
  -24.2615  -19.2279   23.6672 C   0  0  0  0  0  0  0  0  0  0  0  0
  -30.1261  -22.8060   19.4994 C   0  0  0  0  0  0  0  0  0  0  0  0
  -27.8703  -22.0519   19.9237 C   0  0  0  0  0  0  0  0  0  0  0  0
  -23.8234  -20.5467   23.5548 C   0  0  0  0  0  0  0  0  0  0  0  0
  -29.4157  -20.1909   22.2858 C   0  0  0  0  0  0  0  0  0  0  0  0
  -28.9339  -19.4421   23.3594 C   0  0  0  0  0  0  0  0  0  0  0  0
  -22.2109  -19.8633   21.8959 C   0  0  0  0  0  0  0  0  0  0  0  0
  -28.0245  -17.8184   21.8188 C   0  0  0  0  0  0  0  0  0  0  0  0
  -28.3033  -24.3917   19.5058 C   0  0  0  0  0  0  0  0  0  0  0  0
  -27.3911  -26.3726   18.1823 C   0  0  0  0  0  0  0  0  0  0  0  0
  -28.1284  -13.4795   18.2728 C   0  0  0  0  0  0  0  0  0  0  0  0
  -23.6839  -18.2170   22.8856 C   0  0  0  0  0  0  0  0  0  0  0  0
  -27.6140  -14.2204   19.3563 C   0  0  0  0  0  0  0  0  0  0  0  0
  -22.6416  -18.5320   22.0022 C   0  0  0  0  0  0  0  0  0  0  0  0
  -21.5131  -25.0260   24.0569 C   0  0  0  0  0  0  0  0  0  0  0  0
  -22.3859  -24.4651   23.1312 C   0  0  0  0  0  0  0  0  0  0  0  0
  -29.2298  -21.7747   19.7801 C   0  0  0  0  0  0  0  0  0  0  0  0
  -22.8000  -20.8651   22.6670 C   0  0  0  0  0  0  0  0  0  0  0  0
  -29.2019  -19.7535   20.9786 C   0  0  0  0  0  0  0  0  0  0  0  0
  -28.2384  -18.2558   23.1260 C   0  0  0  0  0  0  0  0  0  0  0  0
  -28.5063  -18.5672   20.7451 C   0  0  0  0  0  0  0  0  0  0  0  0
  -20.9443  -26.2691   23.8031 C   0  0  0  0  0  0  0  0  0  0  0  0
  -27.8242  -25.7433   19.3647 C   0  0  0  0  0  0  0  0  0  0  0  0
  -21.2780  -26.9054   22.6183 C   0  0  0  0  0  0  0  0  0  0  0  0
  -22.6549  -25.1820   21.9764 C   0  0  0  0  0  0  0  0  0  0  0  0
  -27.0406  -27.6407   18.5768 C   0  0  0  0  0  0  0  0  0  0  0  0
  -27.3127  -25.8571   16.8467 C   0  0  0  0  0  0  0  0  0  0  0  0
  -24.7533  -16.2152   20.6601 C   0  0  0  0  0  0  0  0  0  0  0  0
  -21.7624  -14.9804   20.8881 C   0  0  0  0  0  0  0  0  0  0  0  0
  -18.4875  -15.4559   21.7220 C   0  0  0  0  0  0  0  0  0  0  0  0
  -25.2764  -29.9391   23.8167 C   0  0  0  0  0  0  0  0  0  0  0  0
  -27.5172  -13.5582   16.8960 C   0  0  0  0  0  0  0  0  0  0  0  0
  -24.1495  -16.7949   23.0382 C   0  0  0  0  0  0  0  0  0  0  0  0
  -21.9746  -17.4802   21.1553 C   0  0  0  0  0  0  0  0  0  0  0  0
  -26.6741  -14.8126   16.6906 C   0  0  0  0  0  0  0  0  0  0  0  0
  -28.0739  -30.9592   21.8648 C   0  0  0  0  0  0  0  0  0  0  0  0
  -25.7028  -14.9815   17.8494 C   0  0  0  0  0  0  0  0  0  0  0  0
  -28.2881  -29.7949   20.8960 C   0  0  0  0  0  0  0  0  0  0  0  0
  -19.8944  -28.3048   21.0016 C   0  0  0  0  0  0  0  0  0  0  0  0
  -27.6260  -30.4729   23.2413 C   0  0  0  0  0  0  0  0  0  0  0  0
  -26.6563  -28.4290   22.2636 C   0  0  0  0  0  0  0  0  0  0  0  0
  -21.1987  -30.3003   21.0417 C   0  0  0  0  0  0  0  0  0  0  0  0
  -26.4574  -15.1856   19.1692 C   0  0  1  0  0  0  0  0  0  0  0  0
  -20.6856  -28.2485   22.3094 C   0  0  2  0  0  0  0  0  0  0  0  0
  -23.8406  -15.9310   21.8193 C   0  0  1  0  0  0  0  0  0  0  0  0
  -19.7945  -29.8001   20.7350 C   0  0  1  0  0  0  0  0  0  0  0  0
  -27.0547  -28.8731   20.8458 C   0  0  2  0  0  0  0  0  0  0  0  0
  -21.1751  -24.3135   25.3246 C   0  0  0  0  0  0  0  0  0  0  0  0
  -23.5859  -24.6314   20.9461 C   0  0  0  0  0  0  0  0  0  0  0  0
  -19.3446  -30.1285   19.3219 C   0  0  0  0  0  0  0  0  0  0  0  0
  -16.2737  -14.2748   21.7634 C   0  0  0  0  0  0  0  0  0  0  0  0
  -21.5251  -15.3246   17.8657 C   0  0  0  0  0  0  0  0  0  0  0  0
  -19.0480  -15.0450   18.0984 C   0  0  0  0  0  0  0  0  0  0  0  0
  -20.5779  -13.1854   18.7496 C   0  0  0  0  0  0  0  0  0  0  0  0
  -18.2553  -15.7482   24.6580 C   0  0  0  0  0  0  0  0  0  0  0  0
  -23.0139  -23.1247   23.3770 C   0  0  0  0  0  0  0  0  0  1  0  0
  -22.9309  -29.2792   24.2882 C   0  0  0  0  0  0  0  0  0  0  0  0
  -21.9902  -30.1109   23.4364 C   0  0  0  0  0  0  0  0  0  0  0  0
  -20.4413  -15.2463   20.2077 C   0  0  1  0  0  0  0  0  0  0  0  0
  -17.5277  -14.6214   22.5509 C   0  0  2  0  0  0  0  0  0  0  0  0
  -20.4117  -14.7207   18.7448 C   0  0  0  0  0  0  0  0  0  0  0  0
  -27.7560  -26.5454   20.4305 N   0  0  0  0  0  0  0  0  0  0  0  0
  -22.1217  -26.3920   21.6952 N   0  0  0  0  0  0  0  0  0  0  0  0
  -27.2761  -27.6918   19.9193 N   0  0  0  0  0  0  0  0  0  0  0  0
  -22.4694  -16.1053   21.3358 N   0  0  0  0  0  0  0  0  0  0  0  0
  -26.4517  -29.6051   23.1237 N   0  0  0  0  0  0  0  0  0  0  0  0
  -26.5570  -28.7057   17.9029 N   0  0  0  0  0  0  0  0  0  0  0  0
  -27.7127  -24.5336   16.6168 N   0  0  0  0  0  0  0  0  0  0  0  0
  -25.5150  -15.1321   20.2650 N   0  0  0  0  0  0  0  0  0  0  0  0
  -19.4149  -14.6709   21.0702 N   0  0  0  0  0  0  0  0  0  0  0  0
  -24.2085  -29.0667   23.6454 N   0  0  0  0  0  0  0  0  0  0  0  0
  -21.6980  -29.3922   22.1542 N   0  3  2  0  0  0  0  0  0  0  0  0
  -17.1220  -15.3642   23.7776 N   0  3  0  0  0  0  0  0  0  0  0  0
  -26.9156  -26.5547   15.8828 O   0  0  0  0  0  0  0  0  0  0  0  0
  -24.7646  -17.3340   20.1601 O   0  0  0  0  0  0  0  0  0  0  0  0
  -22.1494  -13.8170   21.0239 O   0  0  0  0  0  0  0  0  0  0  0  0
  -18.4189  -16.6812   21.6562 O   0  0  0  0  0  0  0  0  0  0  0  0
  -25.1838  -30.9434   24.5306 O   0  0  0  0  0  0  0  0  0  0  0  0
  -29.6815  -20.4977   19.9138 O   0  0  0  0  0  0  0  0  0  0  0  0
  -22.3710  -22.1516   22.5547 O   0  0  0  0  0  0  0  0  0  1  0  0
  -27.7771  -17.5360   24.1571 F   0  0  0  0  0  0  0  0  0  0  0  0
  -28.2988  -18.1413   19.4916 F   0  0  0  0  0  0  0  0  0  0  0  0
  -20.1009  -26.8335   24.6778 F   0  0  0  0  0  0  0  0  0  0  0  0
  1  2  1  0  0  0  0
  1  5  2  0  0  0  0
  2  6  2  0  0  0  0
  3  8  2  0  0  0  0
  3 15  1  0  0  0  0
  4  9  1  0  0  0  0
  4 15  2  0  0  0  0
  5 17  1  0  0  0  0
  6 19  1  0  0  0  0
  7 10  2  0  0  0  0
  7 18  1  0  0  0  0
  8 23  1  0  0  0  0
  9 23  2  0  0  0  0
 10 24  1  0  0  0  0
 11 12  2  0  0  0  0
 11 25  1  0  0  0  0
 12 26  1  0  0  0  0
 13 20  1  0  0  0  0
 13 24  2  0  0  0  0
 14 26  2  0  0  0  0
 14 27  1  0  0  0  0
 15 29  1  0  0  0  0
 16 29  1  0  0  0  0
 16 32  2  0  0  0  0
 16 33  1  0  0  0  0
 17 19  2  0  0  0  0
 17 38  1  0  0  0  0
 18 20  2  0  0  0  0
 18 39  1  0  0  0  0
 19 49  1  0  0  0  0
 20 40  1  0  0  0  0
 21 22  2  0  0  0  0
 21 28  1  0  0  0  0
 21 54  1  0  0  0  0
 22 31  1  0  0  0  0
 22 62  1  0  0  0  0
 23 85  1  0  0  0  0
 24 86  1  0  0  0  0
 25 27  2  0  0  0  0
 25 85  1  0  0  0  0
 26 87  1  0  0  0  0
 27 88  1  0  0  0  0
 28 30  2  0  0  0  0
 28 89  1  0  0  0  0
 29 68  2  0  0  0  0
 30 50  1  0  0  0  0
 30 69  1  0  0  0  0
 31 55  1  0  0  0  0
 31 69  2  0  0  0  0
 32 70  1  0  0  0  0
 32 73  1  0  0  0  0
 33 74  1  0  0  0  0
 33 80  2  0  0  0  0
 34 51  1  0  0  0  0
 34 75  1  0  0  0  0
 34 81  2  0  0  0  0
 35 65  1  0  0  0  0
 35 71  1  0  0  0  0
 35 82  2  0  0  0  0
 36 66  1  0  0  0  0
 36 76  1  0  0  0  0
 36 83  2  0  0  0  0
 37 72  1  0  0  0  0
 37 77  1  0  0  0  0
 37 84  2  0  0  0  0
 38 41  1  0  0  0  0
 39 51  1  0  0  0  0
 40 71  1  0  0  0  0
 41 43  1  0  0  0  0
 42 44  1  0  0  0  0
 42 46  1  0  0  0  0
 43 49  1  0  0  0  0
 44 53  1  0  0  0  0
 45 50  1  0  0  0  0
 45 52  1  0  0  0  0
 46 72  1  0  0  0  0
 47 53  1  0  0  0  0
 47 72  1  0  0  0  0
 48 52  1  0  0  0  0
 48 78  1  0  0  0  0
 49 75  1  0  0  0  0
 50 78  1  0  0  0  0
 51 71  1  0  0  0  0
 52 56  1  0  0  0  0
 53 70  1  0  0  0  0
 57 66  1  0  0  0  0
 58 67  1  0  0  0  0
 59 67  1  0  0  0  0
 60 67  1  0  0  0  0
 61 79  1  0  0  0  0
 62 86  1  0  0  0  0
 63 64  1  0  0  0  0
 63 77  1  0  0  0  0
 64 78  1  0  0  0  0
 65 67  1  0  0  0  0
 65 76  1  0  0  0  0
 66 79  1  0  0  0  0
 68 70  1  0  0  0  0
M  CHG  2  78   1  79   1
M  ISO  4  37 100  62 101  77 100  86 101
M  END
> <Batch ID>
0158

> <Smiles>
CNC(C)C(=O)NC(C(=O)N1Cc2cc([101O:1][101CH2:1]c3c(C)nc(C4CC(C)CN4CC[100NH:0][100C:0](=O)N4CCCC(n5nc(-c6ccc(Oc7ccc(F)cc7F)cc6)c(C(N)=O)c5N)C4)c(F)c3C)ccc2CC1C(=O)NC1CCCc2ccccc21)C(C)(C)C

> <Shape>
0.208

> <Color>
0.082

> <Negative vol penalty>
0.000

$$$$

  -OEChem-04052322043D

 89 99  0     1  0  0  0  0  0999 V2000
  -17.9157  -24.5597   24.3248 C   0  0  0  0  0  0  0  0  0  0  0  0
  -19.2875  -24.3283   24.3352 C   0  0  0  0  0  0  0  0  0  0  0  0
  -24.5594   -9.2853   22.1103 C   0  0  0  0  0  0  0  0  0  0  0  0
  -23.7179   -9.4212   19.8496 C   0  0  0  0  0  0  0  0  0  0  0  0
  -17.4110  -25.7260   23.7514 C   0  0  0  0  0  0  0  0  0  0  0  0
  -20.1553  -25.2626   23.7710 C   0  0  0  0  0  0  0  0  0  0  0  0
  -24.1915  -26.1756   26.6901 C   0  0  0  0  0  0  0  0  0  0  0  0
  -23.4273   -8.5636   22.4884 C   0  0  0  0  0  0  0  0  0  0  0  0
  -22.5858   -8.6994   20.2277 C   0  0  0  0  0  0  0  0  0  0  0  0
  -25.2143  -25.2283   26.6767 C   0  0  0  0  0  0  0  0  0  0  0  0
  -22.3007   -5.3854   22.2379 C   0  0  0  0  0  0  0  0  0  0  0  0
  -22.4883   -4.2540   23.0317 C   0  0  0  0  0  0  0  0  0  0  0  0
  -32.1228  -22.3702   26.8154 C   0  0  0  0  0  0  0  0  0  0  0  0
  -31.4327  -21.1729   24.8337 C   0  0  0  0  0  0  0  0  0  0  0  0
  -26.4680  -26.6123   25.1496 C   0  0  0  0  0  0  0  0  0  0  0  0
  -33.2075  -20.2955   26.2185 C   0  0  0  0  0  0  0  0  0  0  0  0
  -21.1180   -5.2395   24.7603 C   0  0  0  0  0  0  0  0  0  0  0  0
  -24.7047   -9.7142   20.7909 C   0  0  0  0  0  0  0  0  0  0  0  0
  -31.3012  -22.2635   25.6933 C   0  0  0  0  0  0  0  0  0  0  0  0
  -27.0901   -9.9424   19.9158 C   0  0  0  0  0  0  0  0  0  0  0  0
  -18.2738  -26.6797   23.1885 C   0  0  0  0  0  0  0  0  0  0  0  0
  -24.2946  -27.3453   25.9235 C   0  0  0  0  0  0  0  0  0  0  0  0
  -19.6616  -26.4422   23.1883 C   0  0  0  0  0  0  0  0  0  0  0  0
  -25.4462  -27.5741   25.1570 C   0  0  0  0  0  0  0  0  0  0  0  0
  -33.0760  -21.3862   27.0780 C   0  0  0  0  0  0  0  0  0  0  0  0
  -32.3858  -20.1889   25.0963 C   0  0  0  0  0  0  0  0  0  0  0  0
  -22.4404   -8.2707   21.5471 C   0  0  0  0  0  0  0  0  0  0  0  0
  -26.3515  -25.4452   25.9042 C   0  0  0  0  0  0  0  0  0  0  0  0
  -21.5217   -6.4440   22.7052 C   0  0  0  0  0  0  0  0  0  0  0  0
  -21.8970   -4.1810   24.2929 C   0  0  0  0  0  0  0  0  0  0  0  0
  -20.9303   -6.3710   23.9664 C   0  0  0  0  0  0  0  0  0  0  0  0
  -25.8738  -10.4602   20.3999 C   0  0  0  0  0  0  0  0  0  0  0  0
  -27.8698  -11.0506   19.6913 C   0  0  0  0  0  0  0  0  0  0  0  0
  -29.6491  -24.0625   26.3141 C   0  0  0  0  0  0  0  0  0  0  0  0
  -30.2951  -23.3035   25.4149 C   0  0  0  0  0  0  0  0  0  0  0  0
  -27.4801   -8.5814   19.6893 C   0  0  0  0  0  0  0  0  0  0  0  0
  -22.6374  -28.6069   23.5222 C   0  0  0  0  0  0  0  0  0  0  0  0
  -24.6357  -31.1211   23.9781 C   0  0  0  0  0  0  0  0  0  0  0  0
  -27.6345  -32.2654   25.1375 C   0  0  0  0  0  0  0  0  0  0  0  0
  -29.9022  -15.8231   21.0692 C   0  0  0  0  0  0  0  0  0  0  0  0
  -17.6782  -27.9031   22.5380 C   0  0  0  0  0  0  0  0  0  0  0  0
  -23.1943  -28.3698   25.9696 C   0  0  0  0  0  0  0  0  0  0  0  0
  -25.6146  -28.8229   24.3321 C   0  0  0  0  0  0  0  0  0  0  0  0
  -29.8131  -23.6117   24.0254 C   0  0  0  0  0  0  0  0  0  0  0  0
  -18.6918  -29.0185   22.2956 C   0  0  0  0  0  0  0  0  0  0  0  0
  -29.0593  -24.9328   24.1989 C   0  0  0  0  0  0  0  0  0  0  0  0
  -26.6951  -15.9636   19.6464 C   0  0  0  0  0  0  0  0  0  0  0  0
  -19.9656  -28.4562   21.6726 C   0  0  0  0  0  0  0  0  0  0  0  0
  -26.2856  -14.4913   19.6754 C   0  0  0  0  0  0  0  0  0  0  0  0
  -30.3378  -18.3754   23.4533 C   0  0  0  0  0  0  0  0  0  0  0  0
  -32.4217  -17.9721   22.0885 C   0  0  0  0  0  0  0  0  0  0  0  0
  -27.4338  -16.3782   20.9203 C   0  0  0  0  0  0  0  0  0  0  0  0
  -29.4885  -18.0420   22.2232 C   0  0  0  0  0  0  0  0  0  0  0  0
  -31.5348  -17.6754   20.8825 C   0  0  0  0  0  0  0  0  0  0  0  0
  -28.1863  -14.0487   21.2750 C   0  0  0  0  0  0  0  0  0  0  0  0
  -20.6368  -27.4435   22.6084 C   0  0  1  0  0  0  0  0  0  0  0  0
  -28.6757  -24.9961   25.6750 C   0  0  1  0  0  0  0  0  0  1  0  0
  -23.1784  -29.2850   24.7491 C   0  0  1  0  0  0  0  0  0  0  0  0
  -27.4932  -13.5880   19.9833 C   0  0  1  0  0  0  0  0  0  0  0  0
  -31.7115  -18.9216   23.0569 C   0  0  0  0  0  0  0  0  0  0  0  0
  -33.9556  -21.5012   28.2770 C   0  0  0  0  0  0  0  0  0  0  0  0
  -28.9994  -34.3618   25.3366 C   0  0  0  0  0  0  0  0  0  0  0  0
  -25.3203  -30.9544   21.0093 C   0  0  0  0  0  0  0  0  0  0  0  0
  -27.3250  -32.3841   21.4627 C   0  0  0  0  0  0  0  0  0  0  0  0
  -25.0354  -33.2795   21.8853 C   0  0  0  0  0  0  0  0  0  0  0  0
  -27.6721  -32.0987   28.0921 C   0  0  0  0  0  0  0  0  0  0  0  0
  -25.9861  -31.5251   23.4377 C   0  0  1  0  0  0  0  0  0  0  0  0
  -27.9885  -33.4515   26.0164 C   0  0  2  0  0  0  0  0  0  0  0  0
  -25.9130  -32.0112   21.9627 C   0  0  0  0  0  0  0  0  0  0  0  0
  -25.8759  -11.7935   20.4787 N   0  0  0  0  0  0  0  0  0  0  0  0
  -27.1032  -12.1230   20.0412 N   0  0  0  0  0  0  0  0  0  0  0  0
  -24.5085  -29.7918   24.4053 N   0  0  0  0  0  0  0  0  0  0  0  0
  -28.5517  -15.4645   21.1943 N   0  0  0  0  0  0  0  0  0  0  0  0
  -30.2279  -17.1677   21.3015 N   0  0  0  0  0  0  0  0  0  0  0  0
  -29.1297  -11.2026   19.2307 N   0  0  0  0  0  0  0  0  0  0  0  0
  -26.5568   -7.5658   19.9727 N   0  0  0  0  0  0  0  0  0  0  0  0
  -32.5193  -19.1088   24.2419 N   0  0  0  0  0  0  0  0  0  0  0  0
  -21.3493  -28.1278   23.6660 N   0  0  0  0  0  0  0  0  0  0  0  0
  -26.5183  -32.5154   24.3676 N   0  0  0  0  0  0  0  0  0  0  0  0
  -28.5696  -32.9847   27.3069 N   0  3  0  0  0  0  0  0  0  0  0  0
  -28.6195   -8.2742   19.2641 O   0  0  0  0  0  0  0  0  0  0  0  0
  -23.3363  -28.5257   22.5189 O   0  0  0  0  0  0  0  0  0  0  0  0
  -23.7291  -31.9563   24.0262 O   0  0  0  0  0  0  0  0  0  0  0  0
  -28.2855  -31.2229   25.1316 O   0  0  0  0  0  0  0  0  0  0  0  0
  -30.7667  -14.9907   20.7676 O   0  0  0  0  0  0  0  0  0  0  0  0
  -21.3357   -7.5662   21.9156 O   0  0  0  0  0  0  0  0  0  0  0  0
  -27.3594  -24.5141   25.8887 O   0  0  0  0  0  0  0  0  0  1  0  0
  -22.0760   -3.0938   25.0545 F   0  0  0  0  0  0  0  0  0  0  0  0
  -20.1799   -7.3842   24.4203 F   0  0  0  0  0  0  0  0  0  0  0  0
  1  2  1  0  0  0  0
  1  5  2  0  0  0  0
  2  6  2  0  0  0  0
  3  8  2  0  0  0  0
  3 18  1  0  0  0  0
  4  9  1  0  0  0  0
  4 18  2  0  0  0  0
  5 21  1  0  0  0  0
  6 23  1  0  0  0  0
  7 10  2  0  0  0  0
  7 22  1  0  0  0  0
  8 27  1  0  0  0  0
  9 27  2  0  0  0  0
 10 28  1  0  0  0  0
 11 12  2  0  0  0  0
 11 29  1  0  0  0  0
 12 30  1  0  0  0  0
 13 19  1  0  0  0  0
 13 25  2  0  0  0  0
 14 19  2  0  0  0  0
 14 26  1  0  0  0  0
 15 24  1  0  0  0  0
 15 28  2  0  0  0  0
 16 25  1  0  0  0  0
 16 26  2  0  0  0  0
 17 30  2  0  0  0  0
 17 31  1  0  0  0  0
 18 32  1  0  0  0  0
 19 35  1  0  0  0  0
 20 32  1  0  0  0  0
 20 33  2  0  0  0  0
 20 36  1  0  0  0  0
 21 23  2  0  0  0  0
 21 41  1  0  0  0  0
 22 24  2  0  0  0  0
 22 42  1  0  0  0  0
 23 56  1  0  0  0  0
 24 43  1  0  0  0  0
 25 61  1  0  0  0  0
 26 77  1  0  0  0  0
 27 86  1  0  0  0  0
 28 87  1  0  0  0  0
 29 31  2  0  0  0  0
 29 86  1  0  0  0  0
 30 88  1  0  0  0  0
 31 89  1  0  0  0  0
 32 70  2  0  0  0  0
 33 71  1  0  0  0  0
 33 75  1  0  0  0  0
 34 35  2  0  0  0  0
 34 57  1  0  0  0  0
 35 44  1  0  0  0  0
 36 76  1  0  0  0  0
 36 81  2  0  0  0  0
 37 58  1  0  0  0  0
 37 78  1  0  0  0  0
 37 82  2  0  0  0  0
 38 67  1  0  0  0  0
 38 72  1  0  0  0  0
 38 83  2  0  0  0  0
 39 68  1  0  0  0  0
 39 79  1  0  0  0  0
 39 84  2  0  0  0  0
 40 73  1  0  0  0  0
 40 74  1  0  0  0  0
 40 85  2  0  0  0  0
 41 45  1  0  0  0  0
 42 58  1  0  0  0  0
 43 72  1  0  0  0  0
 44 46  1  0  0  0  0
 45 48  1  0  0  0  0
 46 57  1  0  0  0  0
 47 49  1  0  0  0  0
 47 52  1  0  0  0  0
 48 56  1  0  0  0  0
 49 59  1  0  0  0  0
 50 53  1  0  0  0  0
 50 60  1  0  0  0  0
 51 54  1  0  0  0  0
 51 60  1  0  0  0  0
 52 73  1  0  0  0  0
 53 74  1  0  0  0  0
 54 74  1  0  0  0  0
 55 59  1  0  0  0  0
 55 73  1  0  0  0  0
 56 78  1  0  0  0  0
 57 87  1  0  0  0  0
 58 72  1  0  0  0  0
 59 71  1  0  0  0  0
 60 77  1  0  0  0  0
 62 68  1  0  0  0  0
 63 69  1  0  0  0  0
 64 69  1  0  0  0  0
 65 69  1  0  0  0  0
 66 80  1  0  0  0  0
 67 69  1  0  0  0  0
 67 79  1  0  0  0  0
 68 80  1  0  0  0  0
 70 71  1  0  0  0  0
M  CHG  1  80   1
M  ISO  4  40 100  57 101  74 100  87 101
M  END
> <Batch ID>
0158

> <Smiles>
CNC(C)C(=O)NC(C(=O)N1Cc2cc([101O:1][101CH:1]3C=C(c4cc(C)cc(NC5CC[100N:0]([100C:0](=O)N6CCCC(n7nc(-c8ccc(Oc9ccc(F)cc9F)cc8)c(C(N)=O)c7N)C6)CC5)c4)CC3)ccc2CC1C(=O)NC1CCCc2ccccc21)C(C)(C)C

> <Shape>
0.264

> <Color>
0.117

> <Negative vol penalty>
0.000

$$$$

  -OEChem-04052322043D

 86 95  0     1  0  0  0  0  0999 V2000
  -27.0061  -27.8843   35.8276 C   0  0  0  0  0  0  0  0  0  0  0  0
  -27.0605  -26.8728   34.8740 C   0  0  0  0  0  0  0  0  0  0  0  0
  -23.1334   -9.7220   20.1377 C   0  0  0  0  0  0  0  0  0  0  0  0
  -23.7906  -10.0193   22.4435 C   0  0  0  0  0  0  0  0  0  0  0  0
  -26.6317  -29.1741   35.4534 C   0  0  0  0  0  0  0  0  0  0  0  0
  -26.7393  -27.1503   33.5458 C   0  0  0  0  0  0  0  0  0  0  0  0
  -29.2608  -24.6603   28.5510 C   0  0  0  0  0  0  0  0  0  0  0  0
  -22.3965   -8.5923   20.4933 C   0  0  0  0  0  0  0  0  0  0  0  0
  -23.0536   -8.8896   22.7992 C   0  0  0  0  0  0  0  0  0  0  0  0
  -28.8534  -23.6242   27.7118 C   0  0  0  0  0  0  0  0  0  0  0  0
  -19.3990   -7.9161   21.9043 C   0  0  0  0  0  0  0  0  0  0  0  0
  -18.1158   -7.7856   21.3734 C   0  0  0  0  0  0  0  0  0  0  0  0
  -27.8889  -25.2368   26.1989 C   0  0  0  0  0  0  0  0  0  0  0  0
  -25.7950  -19.4151   23.9928 C   0  0  0  0  0  0  0  0  0  0  0  0
  -28.5102  -20.0162   24.2155 C   0  0  0  0  0  0  0  0  0  0  0  0
  -18.7626   -5.7097   20.3201 C   0  0  0  0  0  0  0  0  0  0  0  0
  -23.8305  -10.4354   21.1127 C   0  0  0  0  0  0  0  0  0  0  0  0
  -24.1394  -12.9344   20.7034 C   0  0  0  0  0  0  0  0  0  0  0  0
  -26.3151  -29.4698   34.1181 C   0  0  0  0  0  0  0  0  0  0  0  0
  -28.9752  -25.9941   28.2253 C   0  0  0  0  0  0  0  0  0  0  0  0
  -26.3589  -28.4450   33.1536 C   0  0  0  0  0  0  0  0  0  0  0  0
  -28.2960  -26.2881   27.0344 C   0  0  0  0  0  0  0  0  0  0  0  0
  -26.2333  -20.3113   24.9678 C   0  0  0  0  0  0  0  0  0  0  0  0
  -26.7144  -18.8194   23.1293 C   0  0  0  0  0  0  0  0  0  0  0  0
  -27.5908  -20.6118   25.0791 C   0  0  0  0  0  0  0  0  0  0  0  0
  -28.0719  -19.1200   23.2406 C   0  0  0  0  0  0  0  0  0  0  0  0
  -22.3566   -8.1762   21.8241 C   0  0  0  0  0  0  0  0  0  0  0  0
  -28.1648  -23.9121   26.5370 C   0  0  0  0  0  0  0  0  0  0  0  0
  -20.3641   -6.9434   21.6431 C   0  0  0  0  0  0  0  0  0  0  0  0
  -17.7976   -6.6824   20.5813 C   0  0  0  0  0  0  0  0  0  0  0  0
  -20.0459   -5.8402   20.8510 C   0  0  0  0  0  0  0  0  0  0  0  0
  -24.5923  -11.6021   20.7459 C   0  0  0  0  0  0  0  0  0  0  0  0
  -25.2353  -13.6568   20.2988 C   0  0  0  0  0  0  0  0  0  0  0  0
  -22.8440  -13.4709   21.0029 C   0  0  0  0  0  0  0  0  0  0  0  0
  -27.2848  -28.3210   29.5786 C   0  0  0  0  0  0  0  0  0  0  0  0
  -28.5447  -30.1020   27.1780 C   0  0  0  0  0  0  0  0  0  0  0  0
  -29.9081  -30.1994   24.0510 C   0  0  0  0  0  0  0  0  0  0  0  0
  -30.6894  -14.8017   20.5943 C   0  0  0  0  0  0  0  0  0  0  0  0
  -25.8700  -30.8682   33.7700 C   0  0  0  0  0  0  0  0  0  0  0  0
  -29.4450  -27.1019   29.1278 C   0  0  0  0  0  0  0  0  0  0  0  0
  -27.9827  -27.7045   26.6292 C   0  0  0  0  0  0  0  0  0  0  0  0
  -25.9076  -31.1645   32.2730 C   0  0  0  0  0  0  0  0  0  0  0  0
  -29.6946  -12.1256   18.4668 C   0  0  0  0  0  0  0  0  0  0  0  0
  -25.2727  -30.0220   31.4866 C   0  0  0  0  0  0  0  0  0  0  0  0
  -28.2440  -11.8570   18.8709 C   0  0  0  0  0  0  0  0  0  0  0  0
  -30.5542  -12.5074   19.6700 C   0  0  0  0  0  0  0  0  0  0  0  0
  -28.5820  -13.3609   20.8766 C   0  0  0  0  0  0  0  0  0  0  0  0
  -30.1066  -17.7044   22.8505 C   0  0  0  0  0  0  0  0  0  0  0  0
  -28.9749  -18.6851   20.9401 C   0  0  0  0  0  0  0  0  0  0  0  0
  -26.0418  -28.7123   31.6982 C   0  0  1  0  0  0  0  0  0  0  0  0
  -28.6495  -28.3920   28.9540 C   0  0  1  0  0  0  0  0  0  0  0  0
  -27.6638  -13.0267   19.6885 C   0  0  2  0  0  0  0  0  0  0  0  0
  -30.6681  -17.0859   21.5643 C   0  0  2  0  0  0  0  0  0  0  0  0
  -30.3181  -18.1100   20.4874 C   0  0  2  0  0  0  0  0  0  0  0  0
  -25.2306  -20.9363   25.8814 C   0  0  0  0  0  0  0  0  0  0  0  0
  -26.2176  -17.8612   22.0960 C   0  0  0  0  0  0  0  0  0  0  0  0
  -30.8041  -31.8035   22.3417 C   0  0  0  0  0  0  0  0  0  0  0  0
  -25.6958  -30.9316   26.4668 C   0  0  0  0  0  0  0  0  0  0  0  0
  -26.5535  -31.7226   24.2516 C   0  0  0  0  0  0  0  0  0  0  0  0
  -27.3786  -32.7783   26.3557 C   0  0  0  0  0  0  0  0  0  0  0  0
  -32.5886  -28.9462   24.1101 C   0  0  0  0  0  0  0  0  0  0  0  0
  -28.0854  -21.5720   26.1206 C   0  0  0  0  0  0  0  0  0  1  0  0
  -28.1311  -30.4379   25.7655 C   0  0  1  0  0  0  0  0  0  0  0  0
  -31.1453  -30.8952   23.5128 C   0  0  2  0  0  0  0  0  0  0  0  0
  -26.9438  -31.4407   25.7182 C   0  0  0  0  0  0  0  0  0  0  0  0
  -25.8758  -11.4824   20.3960 N   0  0  0  0  0  0  0  0  0  0  0  0
  -26.2387  -12.7487   20.1298 N   0  0  0  0  0  0  0  0  0  0  0  0
  -28.9946  -18.5395   22.3956 N   0  0  3  0  0  0  0  0  0  0  0  0
  -28.4573  -28.7524   27.5478 N   0  0  0  0  0  0  0  0  0  0  0  0
  -29.9495  -13.6234   20.4013 N   0  0  0  0  0  0  0  0  0  0  0  0
  -25.4287  -14.9739   20.0746 N   0  0  0  0  0  0  0  0  0  0  0  0
  -21.8319  -12.5885   21.4044 N   0  0  0  0  0  0  0  0  0  0  0  0
  -27.2529  -28.7038   30.9060 N   0  0  0  0  0  0  0  0  0  0  0  0
  -29.3355  -30.9054   25.0878 N   0  0  0  0  0  0  0  0  0  0  0  0
  -30.0396  -15.8125   21.2920 N   0  0  0  0  0  0  0  0  0  0  0  0
  -31.3352  -19.2009   20.4976 N   0  3  0  0  0  0  0  0  0  0  0  0
  -32.1456  -29.8909   23.0527 N   0  3  0  0  0  0  0  0  0  0  0  0
  -22.5870  -14.6945   20.9013 O   0  0  0  0  0  0  0  0  0  0  0  0
  -26.3310  -27.9481   28.9056 O   0  0  0  0  0  0  0  0  0  0  0  0
  -28.9377  -31.0029   27.9234 O   0  0  0  0  0  0  0  0  0  0  0  0
  -29.4894  -29.1379   23.5947 O   0  0  0  0  0  0  0  0  0  0  0  0
  -31.8416  -14.9444   20.1712 O   0  0  0  0  0  0  0  0  0  0  0  0
  -21.6374   -7.0740   22.1715 O   0  0  0  0  0  0  0  0  0  0  0  0
  -27.7655  -22.9026   25.7164 O   0  0  0  0  0  0  0  0  0  1  0  0
  -16.5648   -6.5564   20.0729 F   0  0  0  0  0  0  0  0  0  0  0  0
  -20.9685   -4.9020   20.5976 F   0  0  0  0  0  0  0  0  0  0  0  0
  1  2  1  0  0  0  0
  1  5  2  0  0  0  0
  2  6  2  0  0  0  0
  3  8  2  0  0  0  0
  3 17  1  0  0  0  0
  4  9  1  0  0  0  0
  4 17  2  0  0  0  0
  5 19  1  0  0  0  0
  6 21  1  0  0  0  0
  7 10  2  0  0  0  0
  7 20  1  0  0  0  0
  8 27  1  0  0  0  0
  9 27  2  0  0  0  0
 10 28  1  0  0  0  0
 11 12  2  0  0  0  0
 11 29  1  0  0  0  0
 12 30  1  0  0  0  0
 13 22  1  0  0  0  0
 13 28  2  0  0  0  0
 14 23  1  0  0  0  0
 14 24  2  0  0  0  0
 15 25  1  0  0  0  0
 15 26  2  0  0  0  0
 16 30  2  0  0  0  0
 16 31  1  0  0  0  0
 17 32  1  0  0  0  0
 18 32  1  0  0  0  0
 18 33  2  0  0  0  0
 18 34  1  0  0  0  0
 19 21  2  0  0  0  0
 19 39  1  0  0  0  0
 20 22  2  0  0  0  0
 20 40  1  0  0  0  0
 21 50  1  0  0  0  0
 22 41  1  0  0  0  0
 23 25  2  0  0  0  0
 23 55  1  0  0  0  0
 24 26  1  0  0  0  0
 24 56  1  0  0  0  0
 25 62  1  0  0  0  0
 26 68  1  0  0  0  0
 27 83  1  0  0  0  0
 28 84  1  0  0  0  0
 29 31  2  0  0  0  0
 29 83  1  0  0  0  0
 30 85  1  0  0  0  0
 31 86  1  0  0  0  0
 32 66  2  0  0  0  0
 33 67  1  0  0  0  0
 33 71  1  0  0  0  0
 34 72  1  0  0  0  0
 34 78  2  0  0  0  0
 35 51  1  0  0  0  0
 35 73  1  0  0  0  0
 35 79  2  0  0  0  0
 36 63  1  0  0  0  0
 36 69  1  0  0  0  0
 36 80  2  0  0  0  0
 37 64  1  0  0  0  0
 37 74  1  0  0  0  0
 37 81  2  0  0  0  0
 38 70  1  0  0  0  0
 38 75  1  0  0  0  0
 38 82  2  0  0  0  0
 39 42  1  0  0  0  0
 40 51  1  0  0  0  0
 41 69  1  0  0  0  0
 42 44  1  0  0  0  0
 43 45  1  0  0  0  0
 43 46  1  0  0  0  0
 44 50  1  0  0  0  0
 45 52  1  0  0  0  0
 46 70  1  0  0  0  0
 47 52  1  0  0  0  0
 47 70  1  0  0  0  0
 48 53  1  0  0  0  0
 48 68  1  0  0  0  0
 49 54  1  0  0  0  0
 49 68  1  0  0  0  0
 50 73  1  0  0  0  0
 51 69  1  0  0  0  0
 52 67  1  0  0  0  0
 53 54  1  0  0  0  0
 53 75  1  0  0  0  0
 54 76  1  0  0  0  0
 57 64  1  0  0  0  0
 58 65  1  0  0  0  0
 59 65  1  0  0  0  0
 60 65  1  0  0  0  0
 61 77  1  0  0  0  0
 62 84  1  0  0  0  0
 63 65  1  0  0  0  0
 63 74  1  0  0  0  0
 64 77  1  0  0  0  0
 66 67  1  0  0  0  0
M  CHG  2  76   1  77   1
M  ISO  4  38 100  62 101  75 100  84 101
M  END
> <Batch ID>
0158

> <Smiles>
CNC(C)C(=O)NC(C(=O)N1Cc2cc([101O:1][101CH2:1]c3cc(N4CC(N)C([100NH:0][100C:0](=O)N5CCCC(n6nc(-c7ccc(Oc8ccc(F)cc8F)cc7)c(C(N)=O)c6N)C5)C4)c(C)cc3C)ccc2CC1C(=O)NC1CCCc2ccccc21)C(C)(C)C

> <Shape>
0.197

> <Color>
0.196

> <Negative vol penalty>
0.000

$$$$

  -OEChem-04052322043D

 86 95  0     1  0  0  0  0  0999 V2000
  -27.6021  -37.4756   24.4677 C   0  0  0  0  0  0  0  0  0  0  0  0
  -28.2197  -36.4732   23.7266 C   0  0  0  0  0  0  0  0  0  0  0  0
  -28.2520  -13.3695   18.9626 C   0  0  0  0  0  0  0  0  0  0  0  0
  -28.4361  -11.4149   20.3707 C   0  0  0  0  0  0  0  0  0  0  0  0
  -26.4912  -37.1751   25.2549 C   0  0  0  0  0  0  0  0  0  0  0  0
  -27.7273  -35.1694   23.7731 C   0  0  0  0  0  0  0  0  0  0  0  0
  -26.9792  -29.3353   19.6842 C   0  0  0  0  0  0  0  0  0  0  0  0
  -29.5147  -13.1061   18.4318 C   0  0  0  0  0  0  0  0  0  0  0  0
  -29.6989  -11.1515   19.8400 C   0  0  0  0  0  0  0  0  0  0  0  0
  -27.2581  -27.9693   19.6952 C   0  0  0  0  0  0  0  0  0  0  0  0
  -30.8669  -11.0251   16.1353 C   0  0  0  0  0  0  0  0  0  0  0  0
  -31.0217  -11.1210   14.7524 C   0  0  0  0  0  0  0  0  0  0  0  0
  -25.2849  -27.5832   21.0280 C   0  0  0  0  0  0  0  0  0  0  0  0
  -29.0872  -23.2617   20.3595 C   0  0  0  0  0  0  0  0  0  0  0  0
  -26.9482  -23.0333   19.2599 C   0  0  0  0  0  0  0  0  0  0  0  0
  -32.6919  -12.8398   15.0586 C   0  0  0  0  0  0  0  0  0  0  0  0
  -27.7127  -12.5239   19.9321 C   0  0  0  0  0  0  0  0  0  0  0  0
  -25.1698  -12.3318   19.9995 C   0  0  0  0  0  0  0  0  0  0  0  0
  -25.9791  -35.8690   25.3035 C   0  0  0  0  0  0  0  0  0  0  0  0
  -25.8550  -29.8376   20.3553 C   0  0  0  0  0  0  0  0  0  0  0  0
  -26.6093  -34.8509   24.5627 C   0  0  0  0  0  0  0  0  0  0  0  0
  -24.9925  -28.9556   21.0218 C   0  0  0  0  0  0  0  0  0  0  0  0
  -27.9640  -23.8418   19.7700 C   0  0  0  0  0  0  0  0  0  0  0  0
  -29.1947  -21.8732   20.4388 C   0  0  0  0  0  0  0  0  0  0  0  0
  -27.0556  -21.6448   19.3392 C   0  0  0  0  0  0  0  0  0  0  0  0
  -30.2381  -11.9971   18.8705 C   0  0  0  0  0  0  0  0  0  0  0  0
  -26.4125  -27.0934   20.3696 C   0  0  0  0  0  0  0  0  0  0  0  0
  -31.6245  -11.8366   16.9799 C   0  0  0  0  0  0  0  0  0  0  0  0
  -28.1789  -21.0648   19.9287 C   0  0  0  0  0  0  0  0  0  0  0  0
  -31.9342  -12.0283   14.2140 C   0  0  0  0  0  0  0  0  0  0  0  0
  -32.5370  -12.7439   16.4415 C   0  0  0  0  0  0  0  0  0  0  0  0
  -26.4086  -12.7958   20.4812 C   0  0  0  0  0  0  0  0  0  0  0  0
  -24.2441  -12.8654   20.8626 C   0  0  0  0  0  0  0  0  0  0  0  0
  -24.8816  -11.4934   18.8727 C   0  0  0  0  0  0  0  0  0  0  0  0
  -25.3993  -31.8563   22.7680 C   0  0  0  0  0  0  0  0  0  0  0  0
  -22.2736  -31.4636   21.9946 C   0  0  0  0  0  0  0  0  0  0  0  0
  -19.8683  -29.5202   20.5510 C   0  0  0  0  0  0  0  0  0  0  0  0
  -27.6844  -15.7377   23.8359 C   0  0  0  0  0  0  0  0  0  0  0  0
  -24.8049  -35.5827   26.2057 C   0  0  0  0  0  0  0  0  0  0  0  0
  -25.5534  -31.3105   20.3115 C   0  0  0  0  0  0  0  0  0  0  0  0
  -23.7616  -29.4420   21.7407 C   0  0  0  0  0  0  0  0  0  0  0  0
  -24.1176  -34.2527   25.9074 C   0  0  0  0  0  0  0  0  0  0  0  0
  -25.4293  -13.3498   25.0650 C   0  0  0  0  0  0  0  0  0  0  0  0
  -25.1509  -33.1423   25.7456 C   0  0  0  0  0  0  0  0  0  0  0  0
  -24.1841  -13.5088   24.1963 C   0  0  0  0  0  0  0  0  0  0  0  0
  -26.9973  -18.8416   21.8617 C   0  0  0  0  0  0  0  0  0  0  0  0
  -29.2324  -17.8688   21.2324 C   0  0  0  0  0  0  0  0  0  0  0  0
  -26.0515  -14.7028   25.3800 C   0  0  0  0  0  0  0  0  0  0  0  0
  -27.0766  -18.0953   23.1873 C   0  0  0  0  0  0  0  0  0  0  0  0
  -29.2707  -17.1350   22.5676 C   0  0  0  0  0  0  0  0  0  0  0  0
  -25.2039  -15.6712   23.2635 C   0  0  0  0  0  0  0  0  0  0  0  0
  -26.0897  -33.4296   24.5676 C   0  0  1  0  0  0  0  0  0  0  0  0
  -24.6630  -31.7725   21.4609 C   0  0  1  0  0  0  0  0  0  0  0  0
  -24.4087  -14.3843   22.9504 C   0  0  1  0  0  0  0  0  0  0  0  0
  -28.3911  -19.1409   21.3107 C   0  0  0  0  0  0  0  0  0  0  0  0
  -30.4048  -21.2710   21.0737 C   0  0  0  0  0  0  0  0  0  0  0  0
  -25.9576  -20.7961   18.7878 C   0  0  0  0  0  0  0  0  0  0  0  0
  -17.3995  -29.4463   20.1071 C   0  0  0  0  0  0  0  0  0  0  0  0
  -21.7733  -30.7277   24.9132 C   0  0  0  0  0  0  0  0  0  0  0  0
  -19.5679  -29.7665   24.2202 C   0  0  0  0  0  0  0  0  0  0  0  0
  -20.0252  -32.1969   23.8934 C   0  0  0  0  0  0  0  0  0  0  0  0
  -20.2793  -29.4656   17.6206 C   0  0  0  0  0  0  0  0  0  0  0  0
  -27.8491  -25.3262   19.6846 C   0  0  0  0  0  0  0  0  0  1  0  0
  -21.1815  -30.5076   22.4097 C   0  0  1  0  0  0  0  0  0  0  0  0
  -18.7617  -29.8524   19.5664 C   0  0  2  0  0  0  0  0  0  0  0  0
  -20.6612  -30.7904   23.8473 C   0  0  0  0  0  0  0  0  0  0  0  0
  -26.2846  -13.5651   21.5660 N   0  0  0  0  0  0  0  0  0  0  0  0
  -24.9569  -13.5887   21.7731 N   0  0  0  0  0  0  0  0  0  0  0  0
  -23.5130  -30.8916   21.6743 N   0  0  0  0  0  0  0  0  0  0  0  0
  -26.3486  -15.4485   24.1586 N   0  0  0  0  0  0  0  0  0  0  0  0
  -27.9224  -16.8982   23.0837 N   0  0  0  0  0  0  0  0  0  0  0  0
  -22.8982  -12.7819   20.9239 N   0  0  0  0  0  0  0  0  0  0  0  0
  -25.9505  -11.0326   18.0920 N   0  0  0  0  0  0  0  0  0  0  0  0
  -25.4347  -33.1254   23.3135 N   0  0  0  0  0  0  0  0  0  0  0  0
  -20.1549  -30.5870   21.3762 N   0  0  0  0  0  0  0  0  0  0  0  0
  -18.9860  -29.1416   18.2758 N   0  3  0  0  0  0  0  0  0  0  0  0
  -23.7097  -11.1761   18.5575 O   0  0  0  0  0  0  0  0  0  0  0  0
  -25.8972  -30.8441   23.2469 O   0  0  0  0  0  0  0  0  0  0  0  0
  -22.0338  -32.6728   21.9491 O   0  0  0  0  0  0  0  0  0  0  0  0
  -20.4204  -28.4227   20.5871 O   0  0  0  0  0  0  0  0  0  0  0  0
  -28.6111  -14.9909   24.1753 O   0  0  0  0  0  0  0  0  0  0  0  0
  -31.4703  -11.7396   18.3526 O   0  0  0  0  0  0  0  0  0  0  0  0
  -28.2842  -19.7011   20.0073 O   0  0  0  0  0  0  0  0  0  0  0  0
  -26.6847  -25.7505   20.3825 O   0  0  0  0  0  0  0  0  0  1  0  0
  -32.0839  -12.1192   12.8861 F   0  0  0  0  0  0  0  0  0  0  0  0
  -33.2685  -13.5252   17.2478 F   0  0  0  0  0  0  0  0  0  0  0  0
  1  2  1  0  0  0  0
  1  5  2  0  0  0  0
  2  6  2  0  0  0  0
  3  8  2  0  0  0  0
  3 17  1  0  0  0  0
  4  9  1  0  0  0  0
  4 17  2  0  0  0  0
  5 19  1  0  0  0  0
  6 21  1  0  0  0  0
  7 10  2  0  0  0  0
  7 20  1  0  0  0  0
  8 26  1  0  0  0  0
  9 26  2  0  0  0  0
 10 27  1  0  0  0  0
 11 12  2  0  0  0  0
 11 28  1  0  0  0  0
 12 30  1  0  0  0  0
 13 22  1  0  0  0  0
 13 27  2  0  0  0  0
 14 23  1  0  0  0  0
 14 24  2  0  0  0  0
 15 23  2  0  0  0  0
 15 25  1  0  0  0  0
 16 30  2  0  0  0  0
 16 31  1  0  0  0  0
 17 32  1  0  0  0  0
 18 32  1  0  0  0  0
 18 33  2  0  0  0  0
 18 34  1  0  0  0  0
 19 21  2  0  0  0  0
 19 39  1  0  0  0  0
 20 22  2  0  0  0  0
 20 40  1  0  0  0  0
 21 52  1  0  0  0  0
 22 41  1  0  0  0  0
 23 63  1  0  0  0  0
 24 29  1  0  0  0  0
 24 56  1  0  0  0  0
 25 29  2  0  0  0  0
 25 57  1  0  0  0  0
 26 82  1  0  0  0  0
 27 84  1  0  0  0  0
 28 31  2  0  0  0  0
 28 82  1  0  0  0  0
 29 83  1  0  0  0  0
 30 85  1  0  0  0  0
 31 86  1  0  0  0  0
 32 67  2  0  0  0  0
 33 68  1  0  0  0  0
 33 72  1  0  0  0  0
 34 73  1  0  0  0  0
 34 77  2  0  0  0  0
 35 53  1  0  0  0  0
 35 74  1  0  0  0  0
 35 78  2  0  0  0  0
 36 64  1  0  0  0  0
 36 69  1  0  0  0  0
 36 79  2  0  0  0  0
 37 65  1  0  0  0  0
 37 75  1  0  0  0  0
 37 80  2  0  0  0  0
 38 70  1  0  0  0  0
 38 71  1  0  0  0  0
 38 81  2  0  0  0  0
 39 42  1  0  0  0  0
 40 53  1  0  0  0  0
 41 69  1  0  0  0  0
 42 44  1  0  0  0  0
 43 45  1  0  0  0  0
 43 48  1  0  0  0  0
 44 52  1  0  0  0  0
 45 54  1  0  0  0  0
 46 49  1  0  0  0  0
 46 55  1  0  0  0  0
 47 50  1  0  0  0  0
 47 55  1  0  0  0  0
 48 70  1  0  0  0  0
 49 71  1  0  0  0  0
 50 71  1  0  0  0  0
 51 54  1  0  0  0  0
 51 70  1  0  0  0  0
 52 74  1  0  0  0  0
 53 69  1  0  0  0  0
 54 68  1  0  0  0  0
 55 83  1  0  0  0  0
 58 65  1  0  0  0  0
 59 66  1  0  0  0  0
 60 66  1  0  0  0  0
 61 66  1  0  0  0  0
 62 76  1  0  0  0  0
 63 84  1  0  0  0  0
 64 66  1  0  0  0  0
 64 75  1  0  0  0  0
 65 76  1  0  0  0  0
 67 68  1  0  0  0  0
M  CHG  1  76   1
M  ISO  4  38 100  63 101  71 100  84 101
M  END
> <Batch ID>
0158

> <Smiles>
CNC(C)C(=O)NC(C(=O)N1Cc2cc([101O:1][101CH2:1]c3cc(C)c(OC4CC[100N:0]([100C:0](=O)N5CCCC(n6nc(-c7ccc(Oc8ccc(F)cc8F)cc7)c(C(N)=O)c6N)C5)CC4)c(C)c3)ccc2CC1C(=O)NC1CCCc2ccccc21)C(C)(C)C

> <Shape>
0.271

> <Color>
0.079

> <Negative vol penalty>
0.000

$$$$

  -OEChem-04052322043D

 88 97  0     1  0  0  0  0  0999 V2000
  -26.3110  -37.4712   24.9541 C   0  0  0  0  0  0  0  0  0  0  0  0
  -27.1145  -36.6005   24.2249 C   0  0  0  0  0  0  0  0  0  0  0  0
  -26.4081   -7.5321   22.2552 C   0  0  0  0  0  0  0  0  0  0  0  0
  -24.2470   -8.3383   21.5364 C   0  0  0  0  0  0  0  0  0  0  0  0
  -25.1900  -36.9858   25.6261 C   0  0  0  0  0  0  0  0  0  0  0  0
  -26.7980  -35.2437   24.1681 C   0  0  0  0  0  0  0  0  0  0  0  0
  -27.1671  -29.6044   19.7660 C   0  0  0  0  0  0  0  0  0  0  0  0
  -28.7517  -23.5307   18.5196 C   0  0  0  0  0  0  0  0  0  0  0  0
  -25.7968   -6.8024   23.2747 C   0  0  0  0  0  0  0  0  0  0  0  0
  -23.6356   -7.6085   22.5558 C   0  0  0  0  0  0  0  0  0  0  0  0
  -27.6236  -28.2874   19.7388 C   0  0  0  0  0  0  0  0  0  0  0  0
  -29.0374  -22.1657   18.5438 C   0  0  0  0  0  0  0  0  0  0  0  0
  -22.7457   -4.3994   23.1306 C   0  0  0  0  0  0  0  0  0  0  0  0
  -21.6040   -3.6667   22.8061 C   0  0  0  0  0  0  0  0  0  0  0  0
  -25.6180  -27.5750   20.8742 C   0  0  0  0  0  0  0  0  0  0  0  0
  -29.2629  -23.6795   20.8762 C   0  0  0  0  0  0  0  0  0  0  0  0
  -20.3301   -4.9376   24.4182 C   0  0  0  0  0  0  0  0  0  0  0  0
  -25.6332   -8.3002   21.3861 C   0  0  0  0  0  0  0  0  0  0  0  0
  -26.5378   -8.6201   19.0224 C   0  0  0  0  0  0  0  0  0  0  0  0
  -24.8541  -35.6239   25.5696 C   0  0  0  0  0  0  0  0  0  0  0  0
  -25.9354  -29.9187   20.3582 C   0  0  0  0  0  0  0  0  0  0  0  0
  -25.6722  -34.7394   24.8411 C   0  0  0  0  0  0  0  0  0  0  0  0
  -25.1469  -28.8964   20.9053 C   0  0  0  0  0  0  0  0  0  0  0  0
  -28.8645  -24.2877   19.6858 C   0  0  0  0  0  0  0  0  0  0  0  0
  -29.5486  -22.3144   20.9004 C   0  0  0  0  0  0  0  0  0  0  0  0
  -24.4106   -6.8405   23.4250 C   0  0  0  0  0  0  0  0  0  0  0  0
  -26.8504  -27.2728   20.2955 C   0  0  0  0  0  0  0  0  0  0  0  0
  -29.4359  -21.5575   19.7342 C   0  0  0  0  0  0  0  0  0  0  0  0
  -22.6796   -5.4012   24.0990 C   0  0  0  0  0  0  0  0  0  0  0  0
  -20.3962   -3.9358   23.4498 C   0  0  0  0  0  0  0  0  0  0  0  0
  -21.4718   -5.6703   24.7427 C   0  0  0  0  0  0  0  0  0  0  0  0
  -26.2642   -9.0547   20.3331 C   0  0  0  0  0  0  0  0  0  0  0  0
  -27.1392   -9.6989   18.4215 C   0  0  0  0  0  0  0  0  0  0  0  0
  -26.2721   -7.3545   18.4034 C   0  0  0  0  0  0  0  0  0  0  0  0
  -25.0211  -31.7210   22.8116 C   0  0  0  0  0  0  0  0  0  0  0  0
  -22.0485  -30.9738   21.7498 C   0  0  0  0  0  0  0  0  0  0  0  0
  -20.0482  -28.8222   20.0130 C   0  0  0  0  0  0  0  0  0  0  0  0
  -26.7246  -15.5518   20.0149 C   0  0  0  0  0  0  0  0  0  0  0  0
  -23.6593  -35.1378   26.3512 C   0  0  0  0  0  0  0  0  0  0  0  0
  -25.4449  -31.3406   20.3557 C   0  0  0  0  0  0  0  0  0  0  0  0
  -23.8080  -29.1784   21.5350 C   0  0  0  0  0  0  0  0  0  0  0  0
  -23.1817  -33.7496   25.9331 C   0  0  0  0  0  0  0  0  0  0  0  0
  -29.8135  -13.5319   19.3931 C   0  0  0  0  0  0  0  0  0  0  0  0
  -24.3633  -32.7925   25.8119 C   0  0  0  0  0  0  0  0  0  0  0  0
  -29.2648  -12.1126   19.5290 C   0  0  0  0  0  0  0  0  0  0  0  0
  -27.8417  -19.0246   20.6237 C   0  0  0  0  0  0  0  0  0  0  0  0
  -29.0142  -14.5168   20.2379 C   0  0  0  0  0  0  0  0  0  0  0  0
  -26.7515  -17.9957   20.3569 C   0  0  0  0  0  0  0  0  0  0  0  0
  -28.0694  -17.0494   18.4922 C   0  0  0  0  0  0  0  0  0  0  0  0
  -26.9934  -13.0975   20.0787 C   0  0  0  0  0  0  0  0  0  0  0  0
  -25.3477  -33.2650   24.7352 C   0  0  1  0  0  0  0  0  0  0  0  0
  -24.4108  -31.6178   21.4425 C   0  0  1  0  0  0  0  0  0  0  0  0
  -29.2020  -18.0566   18.7265 C   0  0  2  0  0  0  0  0  0  0  0  0
  -27.7580  -12.0742   19.2229 C   0  0  2  0  0  0  0  0  0  0  0  0
  -28.6493  -19.3437   19.3651 C   0  0  2  0  0  0  0  0  0  0  0  0
  -29.9301  -18.3402   17.4103 C   0  0  0  0  0  0  0  0  0  0  0  0
  -28.9504  -21.8537   23.3043 C   0  0  0  0  0  0  0  0  0  0  0  0
  -17.6554  -28.4563   19.3513 C   0  0  0  0  0  0  0  0  0  0  0  0
  -21.4160  -30.0144   24.5763 C   0  0  0  0  0  0  0  0  0  0  0  0
  -19.4216  -28.8182   23.6491 C   0  0  0  0  0  0  0  0  0  0  0  0
  -19.5762  -31.3019   23.4755 C   0  0  0  0  0  0  0  0  0  0  0  0
  -20.6988  -28.9881   17.1306 C   0  0  0  0  0  0  0  0  0  0  0  0
  -28.5603  -25.7473   19.6589 C   0  0  0  0  0  0  0  0  0  1  0  0
  -29.9751  -21.6800   22.1831 C   0  0  2  0  0  0  0  0  0  0  0  0
  -21.0635  -29.8630   22.0231 C   0  0  1  0  0  0  0  0  0  0  0  0
  -18.9906  -29.0646   18.9514 C   0  0  2  0  0  0  0  0  0  0  0  0
  -20.3954  -29.9940   23.4209 C   0  0  0  0  0  0  0  0  0  0  0  0
  -26.6594  -10.3115   20.5527 N   0  0  0  0  0  0  0  0  0  0  0  0
  -27.1876  -10.6759   19.3719 N   0  0  0  0  0  0  0  0  0  0  0  0
  -23.3748  -30.5853   21.5136 N   0  0  0  0  0  0  0  0  0  0  0  0
  -27.5754  -14.4354   19.9535 N   0  0  0  0  0  0  0  0  0  0  0  0
  -27.2966  -16.8000   19.7165 N   0  0  0  0  0  0  0  0  0  0  0  0
  -27.6261   -9.8976   17.1782 N   0  0  0  0  0  0  0  0  0  0  0  0
  -25.6477   -6.3566   19.1641 N   0  0  0  0  0  0  0  0  0  0  0  0
  -24.8428  -32.9509   23.4158 N   0  0  0  0  0  0  0  0  0  0  0  0
  -20.1225  -29.8683   20.9082 N   0  0  0  0  0  0  0  0  0  0  0  0
  -19.4114  -28.4634   17.6543 N   0  3  0  0  0  0  0  0  0  0  0  0
  -26.5942   -7.1100   17.2159 O   0  0  0  0  0  0  0  0  0  0  0  0
  -25.6089  -30.7558   23.2855 O   0  0  0  0  0  0  0  0  0  0  0  0
  -21.6542  -32.1426   21.7389 O   0  0  0  0  0  0  0  0  0  0  0  0
  -20.7369  -27.8047   20.0471 O   0  0  0  0  0  0  0  0  0  0  0  0
  -25.5297  -15.4409   20.3160 O   0  0  0  0  0  0  0  0  0  0  0  0
  -31.2086  -22.2699   22.6074 O   0  0  0  0  0  0  0  0  0  0  0  0
  -23.8137   -6.1283   24.4195 O   0  0  0  0  0  0  0  0  0  0  0  0
  -29.7108  -20.2162   19.7401 O   0  0  0  0  0  0  0  0  0  0  0  0
  -27.2970  -25.9777   20.2706 O   0  0  0  0  0  0  0  0  0  1  0  0
  -19.2996   -3.2331   23.1370 F   0  0  0  0  0  0  0  0  0  0  0  0
  -21.4018   -6.6323   25.6731 F   0  0  0  0  0  0  0  0  0  0  0  0
  1  2  1  0  0  0  0
  1  5  2  0  0  0  0
  2  6  2  0  0  0  0
  3  9  2  0  0  0  0
  3 18  1  0  0  0  0
  4 10  1  0  0  0  0
  4 18  2  0  0  0  0
  5 20  1  0  0  0  0
  6 22  1  0  0  0  0
  7 11  2  0  0  0  0
  7 21  1  0  0  0  0
  8 12  2  0  0  0  0
  8 24  1  0  0  0  0
  9 26  1  0  0  0  0
 10 26  2  0  0  0  0
 11 27  1  0  0  0  0
 12 28  1  0  0  0  0
 13 14  2  0  0  0  0
 13 29  1  0  0  0  0
 14 30  1  0  0  0  0
 15 23  1  0  0  0  0
 15 27  2  0  0  0  0
 16 24  2  0  0  0  0
 16 25  1  0  0  0  0
 17 30  2  0  0  0  0
 17 31  1  0  0  0  0
 18 32  1  0  0  0  0
 19 32  1  0  0  0  0
 19 33  2  0  0  0  0
 19 34  1  0  0  0  0
 20 22  2  0  0  0  0
 20 39  1  0  0  0  0
 21 23  2  0  0  0  0
 21 40  1  0  0  0  0
 22 51  1  0  0  0  0
 23 41  1  0  0  0  0
 24 63  1  0  0  0  0
 25 28  2  0  0  0  0
 25 64  1  0  0  0  0
 26 84  1  0  0  0  0
 27 86  1  0  0  0  0
 28 85  1  0  0  0  0
 29 31  2  0  0  0  0
 29 84  1  0  0  0  0
 30 87  1  0  0  0  0
 31 88  1  0  0  0  0
 32 68  2  0  0  0  0
 33 69  1  0  0  0  0
 33 73  1  0  0  0  0
 34 74  1  0  0  0  0
 34 78  2  0  0  0  0
 35 52  1  0  0  0  0
 35 75  1  0  0  0  0
 35 79  2  0  0  0  0
 36 65  1  0  0  0  0
 36 70  1  0  0  0  0
 36 80  2  0  0  0  0
 37 66  1  0  0  0  0
 37 76  1  0  0  0  0
 37 81  2  0  0  0  0
 38 71  1  0  0  0  0
 38 72  1  0  0  0  0
 38 82  2  0  0  0  0
 39 42  1  0  0  0  0
 40 52  1  0  0  0  0
 41 70  1  0  0  0  0
 42 44  1  0  0  0  0
 43 45  1  0  0  0  0
 43 47  1  0  0  0  0
 44 51  1  0  0  0  0
 45 54  1  0  0  0  0
 46 48  1  0  0  0  0
 46 55  1  0  0  0  0
 47 71  1  0  0  0  0
 48 72  1  0  0  0  0
 49 53  1  0  0  0  0
 49 72  1  0  0  0  0
 50 54  1  0  0  0  0
 50 71  1  0  0  0  0
 51 75  1  0  0  0  0
 52 70  1  0  0  0  0
 53 55  1  0  0  0  0
 53 56  1  0  0  0  0
 54 69  1  0  0  0  0
 55 85  1  0  0  0  0
 57 64  1  0  0  0  0
 58 66  1  0  0  0  0
 59 67  1  0  0  0  0
 60 67  1  0  0  0  0
 61 67  1  0  0  0  0
 62 77  1  0  0  0  0
 63 86  1  0  0  0  0
 64 83  1  0  0  0  0
 65 67  1  0  0  0  0
 65 76  1  0  0  0  0
 66 77  1  0  0  0  0
 68 69  1  0  0  0  0
M  CHG  1  77   1
M  ISO  4  38 100  63 101  72 100  86 101
M  END
> <Batch ID>
0158

> <Smiles>
CNC(C)C(=O)NC(C(=O)N1Cc2cc([101O:1][101CH2:1]c3ccc(OC4CC[100N:0]([100C:0](=O)N5CCCC(n6nc(-c7ccc(Oc8ccc(F)cc8F)cc7)c(C(N)=O)c6N)C5)CC4C)c(C(C)O)c3)ccc2CC1C(=O)NC1CCCc2ccccc21)C(C)(C)C

> <Shape>
0.318

> <Color>
0.098

> <Negative vol penalty>
0.000

$$$$

  -OEChem-04052322043D

 86 95  0     1  0  0  0  0  0999 V2000
  -31.8186  -29.2969   18.2780 C   0  0  0  0  0  0  0  0  0  0  0  0
  -30.6717  -28.8476   18.9247 C   0  0  0  0  0  0  0  0  0  0  0  0
  -24.0779  -11.8258   20.8206 C   0  0  0  0  0  0  0  0  0  0  0  0
  -24.9430  -14.0556   20.4788 C   0  0  0  0  0  0  0  0  0  0  0  0
  -32.5330  -28.4338   17.4482 C   0  0  0  0  0  0  0  0  0  0  0  0
  -30.2379  -27.5352   18.7410 C   0  0  0  0  0  0  0  0  0  0  0  0
  -28.8898  -25.3088   23.0851 C   0  0  0  0  0  0  0  0  0  0  0  0
  -25.2032  -11.2928   20.1920 C   0  0  0  0  0  0  0  0  0  0  0  0
  -26.0683  -13.5226   19.8503 C   0  0  0  0  0  0  0  0  0  0  0  0
  -27.6414  -25.6404   23.6098 C   0  0  0  0  0  0  0  0  0  0  0  0
  -28.9706  -12.0543   20.7676 C   0  0  0  0  0  0  0  0  0  0  0  0
  -30.2159  -12.5719   21.1236 C   0  0  0  0  0  0  0  0  0  0  0  0
  -26.7270  -23.5980   22.7088 C   0  0  0  0  0  0  0  0  0  0  0  0
  -21.1225  -26.0688   22.2647 C   0  0  0  0  0  0  0  0  0  0  0  0
  -30.5877  -13.2513   18.8351 C   0  0  0  0  0  0  0  0  0  0  0  0
  -23.9477  -13.2072   20.9640 C   0  0  0  0  0  0  0  0  0  0  0  0
  -22.3545  -13.5200   22.9316 C   0  0  0  0  0  0  0  0  0  0  0  0
  -32.1132  -27.1073   17.2619 C   0  0  0  0  0  0  0  0  0  0  0  0
  -29.0639  -24.1227   22.3577 C   0  0  0  0  0  0  0  0  0  0  0  0
  -30.9466  -26.6539   17.9069 C   0  0  0  0  0  0  0  0  0  0  0  0
  -27.9792  -23.2525   22.1781 C   0  0  0  0  0  0  0  0  0  0  0  0
  -21.5749  -27.2273   22.9431 C   0  0  0  0  0  0  0  0  0  0  0  0
  -26.1984  -12.1412   19.7069 C   0  0  0  0  0  0  0  0  0  0  0  0
  -26.5591  -24.7863   23.4193 C   0  0  0  0  0  0  0  0  0  0  0  0
  -28.5338  -12.1351   19.4454 C   0  0  0  0  0  0  0  0  0  0  0  0
  -31.0245  -13.1704   20.1574 C   0  0  0  0  0  0  0  0  0  0  0  0
  -29.3424  -12.7336   18.4791 C   0  0  0  0  0  0  0  0  0  0  0  0
  -22.7852  -13.7584   21.6127 C   0  0  0  0  0  0  0  0  0  0  0  0
  -21.6640  -24.9777   22.9077 C   0  0  0  0  0  0  0  0  0  0  0  0
  -22.3794  -26.8089   23.9800 C   0  0  0  0  0  0  0  0  0  0  0  0
  -21.2117  -14.2709   23.0606 C   0  0  0  0  0  0  0  0  0  0  0  0
  -22.9356  -12.6938   23.9491 C   0  0  0  0  0  0  0  0  0  0  0  0
  -29.9144  -23.4243   19.3757 C   0  0  0  0  0  0  0  0  0  0  0  0
  -29.8464  -20.3764   20.4839 C   0  0  0  0  0  0  0  0  0  0  0  0
  -28.6438  -18.1537   22.7774 C   0  0  0  0  0  0  0  0  0  0  0  0
  -19.2289  -19.1892   20.2805 C   0  0  0  0  0  0  0  0  0  0  0  0
  -32.8916  -26.2252   16.3181 C   0  0  0  0  0  0  0  0  0  0  0  0
  -30.4232  -23.7665   21.8211 C   0  0  0  0  0  0  0  0  0  0  0  0
  -28.1183  -21.9572   21.4222 C   0  0  0  0  0  0  0  0  0  0  0  0
  -32.5751  -24.7398   16.4719 C   0  0  0  0  0  0  0  0  0  0  0  0
  -17.5832  -16.0390   20.4918 C   0  0  0  0  0  0  0  0  0  0  0  0
  -31.0672  -24.5193   16.5377 C   0  0  0  0  0  0  0  0  0  0  0  0
  -22.0738  -23.1345   21.2217 C   0  0  0  0  0  0  0  0  0  0  0  0
  -20.0531  -23.0315   22.7485 C   0  0  0  0  0  0  0  0  0  0  0  0
  -18.6909  -15.0758   20.9221 C   0  0  0  0  0  0  0  0  0  0  0  0
  -21.9293  -21.6396   20.9342 C   0  0  0  0  0  0  0  0  0  0  0  0
  -19.9121  -21.5371   22.4569 C   0  0  0  0  0  0  0  0  0  0  0  0
  -18.1060  -17.1101   19.5371 C   0  0  0  0  0  0  0  0  0  0  0  0
  -20.3809  -16.9009   20.4617 C   0  0  0  0  0  0  0  0  0  0  0  0
  -30.4582  -25.2299   17.7524 C   0  0  1  0  0  0  0  0  0  0  0  0
  -21.5123  -23.4976   22.6071 C   0  0  0  0  0  0  0  0  0  0  0  0
  -30.3668  -22.7824   20.6567 C   0  0  1  0  0  0  0  0  0  0  0  0
  -19.9140  -15.8362   21.4691 C   0  0  2  0  0  0  0  0  0  0  0  0
  -20.4768  -21.1798   21.0803 C   0  0  0  0  0  0  0  0  0  0  0  0
  -21.2404  -28.6230   22.5964 C   0  0  0  0  0  0  0  0  0  0  0  0
  -23.1074  -27.5958   24.9981 C   0  0  0  0  0  0  0  0  0  0  0  0
  -28.7373  -15.7257   23.4045 C   0  0  0  0  0  0  0  0  0  0  0  0
  -27.9761  -19.7086   18.1674 C   0  0  0  0  0  0  0  0  0  0  0  0
  -27.3643  -17.5952   19.3621 C   0  0  0  0  0  0  0  0  0  0  0  0
  -29.7193  -17.9769   18.6334 C   0  0  0  0  0  0  0  0  0  0  0  0
  -29.7969  -18.7648   25.4337 C   0  0  0  0  0  0  0  0  0  0  0  0
  -23.1993  -24.5724   24.9124 C   0  0  0  0  0  0  0  0  0  0  0  0
  -24.4843  -24.0267   24.2992 C   0  0  0  0  0  0  0  0  0  1  0  0
  -28.7950  -19.2975   20.5812 C   0  0  1  0  0  0  0  0  0  0  0  0
  -29.3406  -17.1043   23.6245 C   0  0  2  0  0  0  0  0  0  0  0  0
  -28.4603  -18.6698   19.1986 C   0  0  0  0  0  0  0  0  0  0  0  0
  -21.9814  -14.5951   20.9511 N   0  0  0  0  0  0  0  0  0  0  0  0
  -22.4265  -25.4396   23.9486 N   0  0  0  0  0  0  0  0  0  0  0  0
  -21.0340  -14.8890   21.8579 N   0  0  0  0  0  0  0  0  0  0  0  0
  -29.4660  -21.6564   20.9114 N   0  0  0  0  0  0  0  0  0  0  0  0
  -19.2645  -17.7947   20.1160 N   0  0  0  0  0  0  0  0  0  0  0  0
  -20.3514  -14.4560   24.0844 N   0  0  0  0  0  0  0  0  0  0  0  0
  -23.8782  -13.2642   24.8154 N   0  0  0  0  0  0  0  0  0  0  0  0
  -30.7117  -24.4736   18.9600 N   0  0  0  0  0  0  0  0  0  0  0  0
  -29.2819  -18.3411   21.5695 N   0  0  0  0  0  0  0  0  0  0  0  0
  -20.3654  -19.7579   20.8423 N   0  0  0  0  0  0  0  0  0  0  0  0
  -29.2222  -17.4438   25.0708 N   0  3  0  0  0  0  0  0  0  0  0  0
  -22.6402  -11.4812   24.0757 O   0  0  0  0  0  0  0  0  0  0  0  0
  -28.9167  -22.9982   18.8058 O   0  0  0  0  0  0  0  0  0  0  0  0
  -30.9662  -20.0924   20.0513 O   0  0  0  0  0  0  0  0  0  0  0  0
  -27.6324  -18.7453   23.1485 O   0  0  0  0  0  0  0  0  0  0  0  0
  -18.2542  -19.8760   19.9560 O   0  0  0  0  0  0  0  0  0  0  0  0
  -27.2968  -11.6214   19.0937 O   0  0  0  0  0  0  0  0  0  0  0  0
  -25.3393  -25.1078   23.9298 O   0  0  0  0  0  0  0  0  0  1  0  0
  -32.2197  -13.6688   20.4997 F   0  0  0  0  0  0  0  0  0  0  0  0
  -28.9276  -12.8153   17.2074 F   0  0  0  0  0  0  0  0  0  0  0  0
  1  2  1  0  0  0  0
  1  5  2  0  0  0  0
  2  6  2  0  0  0  0
  3  8  2  0  0  0  0
  3 16  1  0  0  0  0
  4  9  1  0  0  0  0
  4 16  2  0  0  0  0
  5 18  1  0  0  0  0
  6 20  1  0  0  0  0
  7 10  2  0  0  0  0
  7 19  1  0  0  0  0
  8 23  1  0  0  0  0
  9 23  2  0  0  0  0
 10 24  1  0  0  0  0
 11 12  2  0  0  0  0
 11 25  1  0  0  0  0
 12 26  1  0  0  0  0
 13 21  1  0  0  0  0
 13 24  2  0  0  0  0
 14 22  1  0  0  0  0
 14 29  2  0  0  0  0
 15 26  2  0  0  0  0
 15 27  1  0  0  0  0
 16 28  1  0  0  0  0
 17 28  1  0  0  0  0
 17 31  2  0  0  0  0
 17 32  1  0  0  0  0
 18 20  2  0  0  0  0
 18 37  1  0  0  0  0
 19 21  2  0  0  0  0
 19 38  1  0  0  0  0
 20 50  1  0  0  0  0
 21 39  1  0  0  0  0
 22 30  2  0  0  0  0
 22 55  1  0  0  0  0
 23 83  1  0  0  0  0
 24 84  1  0  0  0  0
 25 27  2  0  0  0  0
 25 83  1  0  0  0  0
 26 85  1  0  0  0  0
 27 86  1  0  0  0  0
 28 67  2  0  0  0  0
 29 51  1  0  0  0  0
 29 68  1  0  0  0  0
 30 56  1  0  0  0  0
 30 68  1  0  0  0  0
 31 69  1  0  0  0  0
 31 72  1  0  0  0  0
 32 73  1  0  0  0  0
 32 78  2  0  0  0  0
 33 52  1  0  0  0  0
 33 74  1  0  0  0  0
 33 79  2  0  0  0  0
 34 64  1  0  0  0  0
 34 70  1  0  0  0  0
 34 80  2  0  0  0  0
 35 65  1  0  0  0  0
 35 75  1  0  0  0  0
 35 81  2  0  0  0  0
 36 71  1  0  0  0  0
 36 76  1  0  0  0  0
 36 82  2  0  0  0  0
 37 40  1  0  0  0  0
 38 52  1  0  0  0  0
 39 70  1  0  0  0  0
 40 42  1  0  0  0  0
 41 45  1  0  0  0  0
 41 48  1  0  0  0  0
 42 50  1  0  0  0  0
 43 46  1  0  0  0  0
 43 51  1  0  0  0  0
 44 47  1  0  0  0  0
 44 51  1  0  0  0  0
 45 53  1  0  0  0  0
 46 54  1  0  0  0  0
 47 54  1  0  0  0  0
 48 71  1  0  0  0  0
 49 53  1  0  0  0  0
 49 71  1  0  0  0  0
 50 74  1  0  0  0  0
 52 70  1  0  0  0  0
 53 69  1  0  0  0  0
 54 76  1  0  0  0  0
 57 65  1  0  0  0  0
 58 66  1  0  0  0  0
 59 66  1  0  0  0  0
 60 66  1  0  0  0  0
 61 77  1  0  0  0  0
 62 63  1  0  0  0  0
 62 68  1  0  0  0  0
 63 84  1  0  0  0  0
 64 66  1  0  0  0  0
 64 75  1  0  0  0  0
 65 77  1  0  0  0  0
 67 69  1  0  0  0  0
M  CHG  1  77   1
M  ISO  4  36 100  63 101  76 100  84 101
M  END
> <Batch ID>
0158

> <Smiles>
CNC(C)C(=O)NC(C(=O)N1Cc2cc([101O:1][101CH2:1]Cn3c(C4CCC([100NH:0][100C:0](=O)N5CCCC(n6nc(-c7ccc(Oc8ccc(F)cc8F)cc7)c(C(N)=O)c6N)C5)CC4)cc(C)c3C)ccc2CC1C(=O)NC1CCCc2ccccc21)C(C)(C)C

> <Shape>
0.209

> <Color>
0.063

> <Negative vol penalty>
0.000

$$$$

  -OEChem-04052322043D

 88 97  0     1  0  0  0  0  0999 V2000
  -31.6896  -33.3883   14.1983 C   0  0  0  0  0  0  0  0  0  0  0  0
  -31.4677  -32.4335   15.1855 C   0  0  0  0  0  0  0  0  0  0  0  0
  -24.4705   -9.2354   22.0986 C   0  0  0  0  0  0  0  0  0  0  0  0
  -23.8600   -9.0997   19.7649 C   0  0  0  0  0  0  0  0  0  0  0  0
  -31.4207  -34.7318   14.4565 C   0  0  0  0  0  0  0  0  0  0  0  0
  -30.9777  -32.8219   16.4319 C   0  0  0  0  0  0  0  0  0  0  0  0
  -27.2763  -29.7920   18.0945 C   0  0  0  0  0  0  0  0  0  0  0  0
  -23.3330   -8.5033   22.4388 C   0  0  0  0  0  0  0  0  0  0  0  0
  -22.7225   -8.3675   20.1051 C   0  0  0  0  0  0  0  0  0  0  0  0
  -27.6535  -28.5629   18.6338 C   0  0  0  0  0  0  0  0  0  0  0  0
  -22.3559   -5.2663   22.4188 C   0  0  0  0  0  0  0  0  0  0  0  0
  -22.5031   -4.2321   23.3430 C   0  0  0  0  0  0  0  0  0  0  0  0
  -27.4060  -29.4687   20.8558 C   0  0  0  0  0  0  0  0  0  0  0  0
  -20.9278   -5.3229   24.8146 C   0  0  0  0  0  0  0  0  0  0  0  0
  -24.7340   -9.5336   20.7616 C   0  0  0  0  0  0  0  0  0  0  0  0
  -27.1862   -9.7840   20.1047 C   0  0  0  0  0  0  0  0  0  0  0  0
  -30.9181  -35.1356   15.7034 C   0  0  0  0  0  0  0  0  0  0  0  0
  -26.9711  -30.8737   18.9331 C   0  0  0  0  0  0  0  0  0  0  0  0
  -30.7032  -34.1722   16.7075 C   0  0  0  0  0  0  0  0  0  0  0  0
  -27.0227  -30.7098   20.3247 C   0  0  0  0  0  0  0  0  0  0  0  0
  -28.1346  -23.1854   21.9654 C   0  0  0  0  0  0  0  0  0  0  0  0
  -30.3178  -23.1635   20.9307 C   0  0  0  0  0  0  0  0  0  0  0  0
  -27.8115  -24.3440   21.2591 C   0  0  0  0  0  0  0  0  0  0  0  0
  -29.9946  -24.3221   20.2244 C   0  0  0  0  0  0  0  0  0  0  0  0
  -29.3878  -22.5952   21.8012 C   0  0  0  0  0  0  0  0  0  0  0  0
  -28.7415  -24.9124   20.3886 C   0  0  0  0  0  0  0  0  0  0  0  0
  -22.4590   -8.0693   21.4420 C   0  0  0  0  0  0  0  0  0  0  0  0
  -27.7212  -28.4020   20.0146 C   0  0  0  0  0  0  0  0  0  0  0  0
  -21.4947   -6.3290   22.6925 C   0  0  0  0  0  0  0  0  0  0  0  0
  -21.7890   -4.2603   24.5409 C   0  0  0  0  0  0  0  0  0  0  0  0
  -20.7807   -6.3573   23.8904 C   0  0  0  0  0  0  0  0  0  0  0  0
  -25.9085  -10.2904   20.4097 C   0  0  0  0  0  0  0  0  0  0  0  0
  -27.9434  -10.8991   19.8408 C   0  0  0  0  0  0  0  0  0  0  0  0
  -27.6472   -8.4271   20.0634 C   0  0  0  0  0  0  0  0  0  0  0  0
  -28.1916  -33.7732   19.3881 C   0  0  0  0  0  0  0  0  0  0  0  0
  -25.6244  -34.1218   21.3401 C   0  0  0  0  0  0  0  0  0  0  0  0
  -23.2420  -32.6431   23.2854 C   0  0  0  0  0  0  0  0  0  0  0  0
  -28.7721  -16.1534   21.5038 C   0  0  0  0  0  0  0  0  0  0  0  0
  -30.6873  -36.6052   15.9517 C   0  0  0  0  0  0  0  0  0  0  0  0
  -26.5401  -32.1852   18.3360 C   0  0  0  0  0  0  0  0  0  0  0  0
  -26.6854  -31.8339   21.2687 C   0  0  0  0  0  0  0  0  0  0  0  0
  -29.8159  -36.8871   17.1729 C   0  0  0  0  0  0  0  0  0  0  0  0
  -26.9651  -15.5629   18.5492 C   0  0  0  0  0  0  0  0  0  0  0  0
  -30.2762  -36.0499   18.3620 C   0  0  0  0  0  0  0  0  0  0  0  0
  -26.6261  -14.0795   18.6925 C   0  0  0  0  0  0  0  0  0  0  0  0
  -26.8349  -16.3118   19.8767 C   0  0  0  0  0  0  0  0  0  0  0  0
  -28.3355  -18.4382   20.4970 C   0  0  0  0  0  0  0  0  0  0  0  0
  -30.5800  -17.8354   21.3256 C   0  0  0  0  0  0  0  0  0  0  0  0
  -27.2668  -14.2225   21.1287 C   0  0  0  0  0  0  0  0  0  0  0  0
  -28.3053  -19.6453   21.4290 C   0  0  0  0  0  0  0  0  0  0  0  0
  -30.5738  -19.0143   22.2850 C   0  0  0  0  0  0  0  0  0  0  0  0
  -30.1491  -34.5512   18.0637 C   0  0  1  0  0  0  0  0  0  0  0  0
  -26.7491  -33.3676   19.2772 C   0  0  1  0  0  0  0  0  0  0  0  0
  -27.4456  -13.4325   19.8231 C   0  0  1  0  0  0  0  0  0  0  0  0
  -27.1371  -22.5754   22.8991 C   0  0  0  0  0  0  0  0  0  0  0  0
  -31.6621  -22.5305   20.7539 C   0  0  0  0  0  0  0  0  0  0  0  0
  -26.4671  -24.9770   21.4355 C   0  0  0  0  0  0  0  0  0  0  0  0
  -30.9913  -24.9314   19.2891 C   0  0  0  0  0  0  0  0  0  0  0  0
  -21.3063  -33.1896   24.7860 C   0  0  0  0  0  0  0  0  0  0  0  0
  -27.5680  -34.9532   23.5404 C   0  0  0  0  0  0  0  0  0  0  0  0
  -25.7404  -34.5619   25.2063 C   0  0  0  0  0  0  0  0  0  0  0  0
  -25.4650  -36.3030   23.4414 C   0  0  0  0  0  0  0  0  0  0  0  0
  -21.3392  -31.1740   21.5592 C   0  0  0  0  0  0  0  0  0  0  0  0
  -29.7352  -21.3484   22.5601 C   0  0  0  0  0  0  0  0  0  0  0  0
  -28.3934  -26.1536   19.6288 C   0  0  0  0  0  0  0  0  0  1  0  0
  -25.3489  -33.8599   22.8011 C   0  0  1  0  0  0  0  0  0  0  0  0
  -21.7402  -32.8481   23.3690 C   0  0  2  0  0  0  0  0  0  0  0  0
  -26.0389  -34.8987   23.7298 C   0  0  0  0  0  0  0  0  0  0  0  0
  -25.8535  -11.6234   20.3460 N   0  0  0  0  0  0  0  0  0  0  0  0
  -27.1060  -11.9641   19.9981 N   0  0  0  0  0  0  0  0  0  0  0  0
  -26.2754  -33.0987   20.6364 N   0  0  0  0  0  0  0  0  0  0  0  0
  -27.5998  -15.6352   20.9334 N   0  0  0  0  0  0  0  0  0  0  0  0
  -29.2212  -17.3919   21.0219 N   0  0  0  0  0  0  0  0  0  0  0  0
  -29.2373  -11.0628   19.4921 N   0  0  0  0  0  0  0  0  0  0  0  0
  -26.7379   -7.4031   20.3616 N   0  0  0  0  0  0  0  0  0  0  0  0
  -28.7707  -34.1270   18.1843 N   0  0  0  0  0  0  0  0  0  0  0  0
  -23.8976  -33.8058   22.9395 N   0  0  0  0  0  0  0  0  0  0  0  0
  -29.7142  -20.1129   21.7043 N   0  3  0  0  0  0  0  0  0  0  0  0
  -21.0243  -31.6123   22.9433 N   0  3  0  0  0  0  0  0  0  0  0  0
  -28.8347   -8.1323   19.7868 O   0  0  0  0  0  0  0  0  0  0  0  0
  -28.7383  -33.7671   20.4848 O   0  0  0  0  0  0  0  0  0  0  0  0
  -25.2686  -35.1918   20.8399 O   0  0  0  0  0  0  0  0  0  0  0  0
  -23.7800  -31.5609   23.5086 O   0  0  0  0  0  0  0  0  0  0  0  0
  -29.3817  -15.5452   22.3925 O   0  0  0  0  0  0  0  0  0  0  0  0
  -21.3491   -7.3547   21.7736 O   0  0  0  0  0  0  0  0  0  0  0  0
  -28.0924  -27.1946   20.5475 O   0  0  0  0  0  0  0  0  0  1  0  0
  -21.9293   -3.2662   25.4276 F   0  0  0  0  0  0  0  0  0  0  0  0
  -19.9510   -7.3749   24.1584 F   0  0  0  0  0  0  0  0  0  0  0  0
  1  2  1  0  0  0  0
  1  5  2  0  0  0  0
  2  6  2  0  0  0  0
  3  8  2  0  0  0  0
  3 15  1  0  0  0  0
  4  9  1  0  0  0  0
  4 15  2  0  0  0  0
  5 17  1  0  0  0  0
  6 19  1  0  0  0  0
  7 10  2  0  0  0  0
  7 18  1  0  0  0  0
  8 27  1  0  0  0  0
  9 27  2  0  0  0  0
 10 28  1  0  0  0  0
 11 12  2  0  0  0  0
 11 29  1  0  0  0  0
 12 30  1  0  0  0  0
 13 20  1  0  0  0  0
 13 28  2  0  0  0  0
 14 30  2  0  0  0  0
 14 31  1  0  0  0  0
 15 32  1  0  0  0  0
 16 32  1  0  0  0  0
 16 33  2  0  0  0  0
 16 34  1  0  0  0  0
 17 19  2  0  0  0  0
 17 39  1  0  0  0  0
 18 20  2  0  0  0  0
 18 40  1  0  0  0  0
 19 52  1  0  0  0  0
 20 41  1  0  0  0  0
 21 23  2  0  0  0  0
 21 25  1  0  0  0  0
 21 55  1  0  0  0  0
 22 24  1  0  0  0  0
 22 25  2  0  0  0  0
 22 56  1  0  0  0  0
 23 26  1  0  0  0  0
 23 57  1  0  0  0  0
 24 26  2  0  0  0  0
 24 58  1  0  0  0  0
 25 64  1  0  0  0  0
 26 65  1  0  0  0  0
 27 85  1  0  0  0  0
 28 86  1  0  0  0  0
 29 31  2  0  0  0  0
 29 85  1  0  0  0  0
 30 87  1  0  0  0  0
 31 88  1  0  0  0  0
 32 69  2  0  0  0  0
 33 70  1  0  0  0  0
 33 74  1  0  0  0  0
 34 75  1  0  0  0  0
 34 80  2  0  0  0  0
 35 53  1  0  0  0  0
 35 76  1  0  0  0  0
 35 81  2  0  0  0  0
 36 66  1  0  0  0  0
 36 71  1  0  0  0  0
 36 82  2  0  0  0  0
 37 67  1  0  0  0  0
 37 77  1  0  0  0  0
 37 83  2  0  0  0  0
 38 72  1  0  0  0  0
 38 73  1  0  0  0  0
 38 84  2  0  0  0  0
 39 42  1  0  0  0  0
 40 53  1  0  0  0  0
 41 71  1  0  0  0  0
 42 44  1  0  0  0  0
 43 45  1  0  0  0  0
 43 46  1  0  0  0  0
 44 52  1  0  0  0  0
 45 54  1  0  0  0  0
 46 72  1  0  0  0  0
 47 50  1  0  0  0  0
 47 73  1  0  0  0  0
 48 51  1  0  0  0  0
 48 73  1  0  0  0  0
 49 54  1  0  0  0  0
 49 72  1  0  0  0  0
 50 78  1  0  0  0  0
 51 78  1  0  0  0  0
 52 76  1  0  0  0  0
 53 71  1  0  0  0  0
 54 70  1  0  0  0  0
 59 67  1  0  0  0  0
 60 68  1  0  0  0  0
 61 68  1  0  0  0  0
 62 68  1  0  0  0  0
 63 79  1  0  0  0  0
 64 78  1  0  0  0  0
 65 86  1  0  0  0  0
 66 68  1  0  0  0  0
 66 77  1  0  0  0  0
 67 79  1  0  0  0  0
 69 70  1  0  0  0  0
M  CHG  2  78   1  79   1
M  ISO  4  38 100  65 101  73 100  86 101
M  END
> <Batch ID>
0158

> <Smiles>
CNC(C)C(=O)NC(C(=O)N1Cc2cc([101O:1][101CH2:1]c3c(C)c(C)c(CN4CC[100N:0]([100C:0](=O)N5CCCC(n6nc(-c7ccc(Oc8ccc(F)cc8F)cc7)c(C(N)=O)c6N)C5)CC4)c(C)c3C)ccc2CC1C(=O)NC1CCCc2ccccc21)C(C)(C)C

> <Shape>
0.240

> <Color>
0.088

> <Negative vol penalty>
0.000

$$$$

  -OEChem-04052322043D

 91100  0     1  0  0  0  0  0999 V2000
  -29.1974   -8.0673   16.0691 C   0  0  0  0  0  0  0  0  0  0  0  0
  -29.9283   -9.2509   16.0514 C   0  0  0  0  0  0  0  0  0  0  0  0
  -23.3955  -31.1539   20.5563 C   0  0  0  0  0  0  0  0  0  0  0  0
  -22.3221  -31.6242   22.6691 C   0  0  0  0  0  0  0  0  0  0  0  0
  -27.8790   -8.0702   16.5227 C   0  0  0  0  0  0  0  0  0  0  0  0
  -29.3408  -10.4383   16.4864 C   0  0  0  0  0  0  0  0  0  0  0  0
  -30.9649  -16.5954   19.7681 C   0  0  0  0  0  0  0  0  0  0  0  0
  -28.3005  -24.7243   19.3270 C   0  0  0  0  0  0  0  0  0  0  0  0
  -22.3194  -30.3458   20.1895 C   0  0  0  0  0  0  0  0  0  0  0  0
  -21.2460  -30.8160   22.3022 C   0  0  0  0  0  0  0  0  0  0  0  0
  -30.8281  -17.9729   19.6024 C   0  0  0  0  0  0  0  0  0  0  0  0
  -27.5998  -23.8606   18.4853 C   0  0  0  0  0  0  0  0  0  0  0  0
  -18.3821  -28.5901   22.0718 C   0  0  0  0  0  0  0  0  0  0  0  0
  -17.8904  -27.6946   23.0215 C   0  0  0  0  0  0  0  0  0  0  0  0
  -28.5693  -17.8432   20.4392 C   0  0  0  0  0  0  0  0  0  0  0  0
  -20.0497  -26.6155   23.1219 C   0  0  0  0  0  0  0  0  0  0  0  0
  -23.3969  -31.7931   21.7961 C   0  0  0  0  0  0  0  0  0  0  0  0
  -24.6535  -34.0083   21.9426 C   0  0  0  0  0  0  0  0  0  0  0  0
  -27.2782   -9.2565   16.9725 C   0  0  0  0  0  0  0  0  0  0  0  0
  -29.8994  -15.8285   20.2612 C   0  0  0  0  0  0  0  0  0  0  0  0
  -28.0127  -10.4574   16.9452 C   0  0  0  0  0  0  0  0  0  0  0  0
  -28.6960  -16.4565   20.6127 C   0  0  0  0  0  0  0  0  0  0  0  0
  -28.9829  -24.2187   20.4336 C   0  0  0  0  0  0  0  0  0  0  0  0
  -28.9644  -22.8493   20.6984 C   0  0  0  0  0  0  0  0  0  0  0  0
  -28.2637  -21.9856   19.8566 C   0  0  0  0  0  0  0  0  0  0  0  0
  -21.2447  -30.1768   21.0624 C   0  0  0  0  0  0  0  0  0  0  0  0
  -29.6292  -18.5966   19.9352 C   0  0  0  0  0  0  0  0  0  0  0  0
  -27.5814  -22.4912   18.7500 C   0  0  0  0  0  0  0  0  0  0  0  0
  -19.7076  -28.4983   21.6470 C   0  0  0  0  0  0  0  0  0  0  0  0
  -18.7242  -26.7073   23.5466 C   0  0  0  0  0  0  0  0  0  0  0  0
  -20.5414  -27.5110   22.1721 C   0  0  0  0  0  0  0  0  0  0  0  0
  -24.5084  -32.6276   22.1759 C   0  0  0  0  0  0  0  0  0  0  0  0
  -25.8721  -34.3232   22.4925 C   0  0  0  0  0  0  0  0  0  0  0  0
  -23.7662  -34.9242   21.2874 C   0  0  0  0  0  0  0  0  0  0  0  0
  -28.1373  -13.4416   19.1205 C   0  0  0  0  0  0  0  0  0  0  0  0
  -26.9087  -13.4309   22.1227 C   0  0  0  0  0  0  0  0  0  0  0  0
  -26.2979  -15.1460   25.0092 C   0  0  0  0  0  0  0  0  0  0  0  0
  -27.2855  -29.3202   23.9535 C   0  0  0  0  0  0  0  0  0  0  0  0
  -25.8351   -9.2190   17.4094 C   0  0  0  0  0  0  0  0  0  0  0  0
  -30.0720  -14.3475   20.4593 C   0  0  0  0  0  0  0  0  0  0  0  0
  -27.5288  -15.6812   21.1651 C   0  0  0  0  0  0  0  0  0  0  0  0
  -25.4075  -10.4496   18.2052 C   0  0  0  0  0  0  0  0  0  0  0  0
  -27.0990  -32.1191   26.0714 C   0  0  0  0  0  0  0  0  0  0  0  0
  -25.8878  -11.7235   17.5173 C   0  0  0  0  0  0  0  0  0  0  0  0
  -27.5948  -33.2857   25.2212 C   0  0  0  0  0  0  0  0  0  0  0  0
  -27.9046  -30.8595   25.7884 C   0  0  0  0  0  0  0  0  0  0  0  0
  -29.1906  -28.8250   22.3633 C   0  0  0  0  0  0  0  0  0  0  0  0
  -28.3497  -31.5808   23.4582 C   0  0  0  0  0  0  0  0  0  0  0  0
  -29.8725  -27.4639   22.3199 C   0  0  0  0  0  0  0  0  0  0  0  0
  -27.6537  -26.3666   22.0167 C   0  0  0  0  0  0  0  0  0  0  0  0
  -27.4184  -11.7611   17.4323 C   0  0  1  0  0  0  0  0  0  0  0  0
  -28.7481  -13.5899   20.4853 C   0  0  1  0  0  0  0  0  0  0  0  0
  -27.6904  -32.9533   23.7219 C   0  0  1  0  0  0  0  0  0  0  0  0
  -26.9623  -27.7297   22.0723 C   0  0  2  0  0  0  0  0  0  0  0  0
  -29.6975  -22.3091   21.8853 C   0  0  0  0  0  0  0  0  0  0  0  0
  -26.5768  -28.2552   20.6862 C   0  0  0  0  0  0  0  0  0  0  0  0
  -25.2436  -14.8832   27.2713 C   0  0  0  0  0  0  0  0  0  0  0  0
  -31.3265  -26.3490   19.7005 C   0  0  0  0  0  0  0  0  0  0  0  0
  -24.1417  -13.6556   20.8565 C   0  0  0  0  0  0  0  0  0  0  0  0
  -23.2496  -14.3371   23.0943 C   0  0  0  0  0  0  0  0  0  0  0  0
  -24.2766  -12.0834   22.7967 C   0  0  0  0  0  0  0  0  0  0  0  0
  -28.8587  -15.6808   26.3931 C   0  0  0  0  0  0  0  0  0  0  0  0
  -27.6049  -21.1180   16.8085 C   0  0  0  0  0  0  0  0  0  0  0  0
  -28.2392  -20.5161   20.1339 C   0  0  0  0  0  0  0  0  0  1  0  0
  -29.7369  -25.1800   21.3323 C   0  0  1  0  0  0  0  0  0  0  0  0
  -25.7611  -14.1299   22.8107 C   0  0  1  0  0  0  0  0  0  0  0  0
  -26.5291  -14.7827   26.4649 C   0  0  2  0  0  0  0  0  0  0  0  0
  -31.1952  -25.3818   20.8735 C   0  0  1  0  0  0  0  0  0  0  0  0
  -24.3784  -13.5661   22.3773 C   0  0  0  0  0  0  0  0  0  0  0  0
  -25.5515  -32.1016   22.8235 N   0  0  0  0  0  0  0  0  0  0  0  0
  -26.3638  -33.1573   23.0017 N   0  0  0  0  0  0  0  0  0  0  0  0
  -27.7445  -14.2348   21.3345 N   0  0  0  0  0  0  0  0  0  0  0  0
  -27.8857  -30.5211   24.3663 N   0  0  0  0  0  0  0  0  0  0  0  0
  -27.7874  -28.7178   22.7889 N   0  0  0  0  0  0  0  0  0  0  0  0
  -26.5603  -35.4809   22.5853 N   0  0  0  0  0  0  0  0  0  0  0  0
  -22.5550  -34.4340   20.7803 N   0  0  0  0  0  0  0  0  0  0  0  0
  -27.9867  -12.1304   18.7110 N   0  0  0  0  0  0  0  0  0  0  0  0
  -26.0236  -14.0333   24.2425 N   0  0  0  0  0  0  0  0  0  0  0  0
  -29.0569  -26.5128   21.4831 N   0  3  2  0  0  0  0  0  0  0  0  0
  -27.5378  -15.6960   27.0728 N   0  3  0  0  0  0  0  0  0  0  0  0
  -24.0466  -36.1381   21.1410 O   0  0  0  0  0  0  0  0  0  0  0  0
  -27.8243  -14.4425   18.4866 O   0  0  0  0  0  0  0  0  0  0  0  0
  -27.0624  -12.2177   22.2846 O   0  0  0  0  0  0  0  0  0  0  0  0
  -26.3513  -16.3018   24.5945 O   0  0  0  0  0  0  0  0  0  0  0  0
  -26.3417  -28.8232   24.5812 O   0  0  0  0  0  0  0  0  0  0  0  0
  -31.7694  -24.1303   20.4994 O   0  0  0  0  0  0  0  0  0  0  0  0
  -20.1944  -29.3885   20.7047 O   0  0  0  0  0  0  0  0  0  0  0  0
  -26.8914  -21.6634   17.9164 O   0  0  0  0  0  0  0  0  0  0  0  0
  -29.4918  -19.9508   19.7727 O   0  0  0  0  0  0  0  0  0  1  0  0
  -18.2524  -25.8485   24.4597 F   0  0  0  0  0  0  0  0  0  0  0  0
  -21.8160  -27.4185   21.7688 F   0  0  0  0  0  0  0  0  0  0  0  0
  1  2  1  0  0  0  0
  1  5  2  0  0  0  0
  2  6  2  0  0  0  0
  3  9  2  0  0  0  0
  3 17  1  0  0  0  0
  4 10  1  0  0  0  0
  4 17  2  0  0  0  0
  5 19  1  0  0  0  0
  6 21  1  0  0  0  0
  7 11  2  0  0  0  0
  7 20  1  0  0  0  0
  8 12  1  0  0  0  0
  8 23  2  0  0  0  0
  9 26  1  0  0  0  0
 10 26  2  0  0  0  0
 11 27  1  0  0  0  0
 12 28  2  0  0  0  0
 13 14  2  0  0  0  0
 13 29  1  0  0  0  0
 14 30  1  0  0  0  0
 15 22  1  0  0  0  0
 15 27  2  0  0  0  0
 16 30  2  0  0  0  0
 16 31  1  0  0  0  0
 17 32  1  0  0  0  0
 18 32  1  0  0  0  0
 18 33  2  0  0  0  0
 18 34  1  0  0  0  0
 19 21  2  0  0  0  0
 19 39  1  0  0  0  0
 20 22  2  0  0  0  0
 20 40  1  0  0  0  0
 21 51  1  0  0  0  0
 22 41  1  0  0  0  0
 23 24  1  0  0  0  0
 23 65  1  0  0  0  0
 24 25  2  0  0  0  0
 24 55  1  0  0  0  0
 25 28  1  0  0  0  0
 25 64  1  0  0  0  0
 26 87  1  0  0  0  0
 27 89  1  0  0  0  0
 28 88  1  0  0  0  0
 29 31  2  0  0  0  0
 29 87  1  0  0  0  0
 30 90  1  0  0  0  0
 31 91  1  0  0  0  0
 32 70  2  0  0  0  0
 33 71  1  0  0  0  0
 33 75  1  0  0  0  0
 34 76  1  0  0  0  0
 34 81  2  0  0  0  0
 35 52  1  0  0  0  0
 35 77  1  0  0  0  0
 35 82  2  0  0  0  0
 36 66  1  0  0  0  0
 36 72  1  0  0  0  0
 36 83  2  0  0  0  0
 37 67  1  0  0  0  0
 37 78  1  0  0  0  0
 37 84  2  0  0  0  0
 38 73  1  0  0  0  0
 38 74  1  0  0  0  0
 38 85  2  0  0  0  0
 39 42  1  0  0  0  0
 40 52  1  0  0  0  0
 41 72  1  0  0  0  0
 42 44  1  0  0  0  0
 43 45  1  0  0  0  0
 43 46  1  0  0  0  0
 44 51  1  0  0  0  0
 45 53  1  0  0  0  0
 46 73  1  0  0  0  0
 47 49  1  0  0  0  0
 47 74  1  0  0  0  0
 48 53  1  0  0  0  0
 48 73  1  0  0  0  0
 49 79  1  0  0  0  0
 50 54  1  0  0  0  0
 50 79  1  0  0  0  0
 51 77  1  0  0  0  0
 52 72  1  0  0  0  0
 53 71  1  0  0  0  0
 54 56  1  0  0  0  0
 54 74  1  0  0  0  0
 57 67  1  0  0  0  0
 58 68  1  0  0  0  0
 59 69  1  0  0  0  0
 60 69  1  0  0  0  0
 61 69  1  0  0  0  0
 62 80  1  0  0  0  0
 63 88  1  0  0  0  0
 64 89  1  0  0  0  0
 65 68  1  0  0  0  0
 65 79  1  0  0  0  0
 66 69  1  0  0  0  0
 66 78  1  0  0  0  0
 67 80  1  0  0  0  0
 68 86  1  0  0  0  0
 70 71  1  0  0  0  0
M  CHG  2  79   1  80   1
M  ISO  4  38 100  64 101  74 100  89 101
M  END
> <Batch ID>
0158

> <Smiles>
CNC(C)C(=O)NC(C(=O)N1Cc2cc([101O:1][101CH2:1]c3c(OC)ccc(C(C(C)O)N4CC[100N:0]([100C:0](=O)N5CCCC(n6nc(-c7ccc(Oc8ccc(F)cc8F)cc7)c(C(N)=O)c6N)C5)C(C)C4)c3C)ccc2CC1C(=O)NC1CCCc2ccccc21)C(C)(C)C

> <Shape>
0.285

> <Color>
0.045

> <Negative vol penalty>
0.000

$$$$

  -OEChem-04052322043D

 88 98  0     1  0  0  0  0  0999 V2000
  -29.2267  -31.0847   26.6302 C   0  0  0  0  0  0  0  0  0  0  0  0
  -28.9839  -30.0731   25.7066 C   0  0  0  0  0  0  0  0  0  0  0  0
  -23.1980  -10.5289   21.5185 C   0  0  0  0  0  0  0  0  0  0  0  0
  -24.8169   -8.7665   21.8505 C   0  0  0  0  0  0  0  0  0  0  0  0
  -28.1606  -31.7937   27.1822 C   0  0  0  0  0  0  0  0  0  0  0  0
  -27.6746  -29.7692   25.3352 C   0  0  0  0  0  0  0  0  0  0  0  0
  -27.1647  -29.1646   20.3332 C   0  0  0  0  0  0  0  0  0  0  0  0
  -22.1839   -9.5772   21.4111 C   0  0  0  0  0  0  0  0  0  0  0  0
  -23.8028   -7.8147   21.7432 C   0  0  0  0  0  0  0  0  0  0  0  0
  -27.5919  -27.9530   19.7915 C   0  0  0  0  0  0  0  0  0  0  0  0
  -21.5859   -4.9384   21.9164 C   0  0  0  0  0  0  0  0  0  0  0  0
  -21.5687   -3.9001   22.8477 C   0  0  0  0  0  0  0  0  0  0  0  0
  -25.3088  -27.1755   19.7452 C   0  0  0  0  0  0  0  0  0  0  0  0
  -27.9183  -21.2695   17.1129 C   0  0  0  0  0  0  0  0  0  0  0  0
  -27.1784  -23.5537   16.8453 C   0  0  0  0  0  0  0  0  0  0  0  0
  -21.3404   -5.5083   24.6362 C   0  0  0  0  0  0  0  0  0  0  0  0
  -24.5145  -10.1235   21.7381 C   0  0  0  0  0  0  0  0  0  0  0  0
  -26.0129  -11.7405   23.0218 C   0  0  0  0  0  0  0  0  0  0  0  0
  -26.8382  -31.5048   26.8102 C   0  0  0  0  0  0  0  0  0  0  0  0
  -25.8052  -29.3869   20.5956 C   0  0  0  0  0  0  0  0  0  0  0  0
  -26.5898  -30.4741   25.8837 C   0  0  0  0  0  0  0  0  0  0  0  0
  -24.8666  -28.3917   20.2879 C   0  0  0  0  0  0  0  0  0  0  0  0
  -27.4560  -21.2738   18.4289 C   0  0  0  0  0  0  0  0  0  0  0  0
  -26.8548  -22.4181   18.9531 C   0  0  0  0  0  0  0  0  0  0  0  0
  -26.7160  -23.5581   18.1613 C   0  0  0  0  0  0  0  0  0  0  0  0
  -22.4863   -8.2201   21.5235 C   0  0  0  0  0  0  0  0  0  0  0  0
  -26.6643  -26.9572   19.5001 C   0  0  0  0  0  0  0  0  0  0  0  0
  -21.4805   -6.2616   22.3450 C   0  0  0  0  0  0  0  0  0  0  0  0
  -27.7796  -22.4094   16.3211 C   0  0  0  0  0  0  0  0  0  0  0  0
  -21.4459   -4.1851   24.2076 C   0  0  0  0  0  0  0  0  0  0  0  0
  -21.3577   -6.5466   23.7049 C   0  0  0  0  0  0  0  0  0  0  0  0
  -25.5626  -11.1061   21.8485 C   0  0  0  0  0  0  0  0  0  0  0  0
  -27.0141  -12.5789   22.5961 C   0  0  0  0  0  0  0  0  0  0  0  0
  -25.5662  -11.5857   24.3753 C   0  0  0  0  0  0  0  0  0  0  0  0
  -24.0916  -29.9737   23.2077 C   0  0  0  0  0  0  0  0  0  0  0  0
  -21.6850  -30.3657   21.0682 C   0  0  0  0  0  0  0  0  0  0  0  0
  -20.4173  -29.6773   17.9754 C   0  0  0  0  0  0  0  0  0  0  0  0
  -29.1509  -16.2173   19.1008 C   0  0  0  0  0  0  0  0  0  0  0  0
  -25.7157  -32.2665   27.4694 C   0  0  0  0  0  0  0  0  0  0  0  0
  -25.3575  -30.7093   21.1553 C   0  0  0  0  0  0  0  0  0  0  0  0
  -23.3935  -28.5884   20.5318 C   0  0  0  0  0  0  0  0  0  0  0  0
  -24.3805  -32.1349   26.7414 C   0  0  0  0  0  0  0  0  0  0  0  0
  -29.3803  -12.9032   18.1456 C   0  0  0  0  0  0  0  0  0  0  0  0
  -26.8538  -23.4841   21.3063 C   0  0  0  0  0  0  0  0  0  0  0  0
  -27.3108  -22.0685   21.4726 C   0  0  0  0  0  0  0  0  0  0  0  0
  -24.1089  -30.6771   26.3837 C   0  0  0  0  0  0  0  0  0  0  0  0
  -28.4474  -12.1798   19.1164 C   0  0  0  0  0  0  0  0  0  0  0  0
  -26.8430  -18.8279   18.6808 C   0  0  0  0  0  0  0  0  0  0  0  0
  -29.1024  -19.6531   19.4708 C   0  0  0  0  0  0  0  0  0  0  0  0
  -28.7714  -14.2223   17.6842 C   0  0  0  0  0  0  0  0  0  0  0  0
  -27.0404  -17.5578   19.5132 C   0  0  0  0  0  0  0  0  0  0  0  0
  -29.2344  -18.3803   20.3021 C   0  0  0  0  0  0  0  0  0  0  0  0
  -27.4798  -14.4360   19.7828 C   0  0  0  0  0  0  0  0  0  0  0  0
  -27.6212  -20.0198   19.2666 C   0  0  0  0  0  0  0  0  0  0  0  0
  -26.3579  -22.4219   20.3638 C   0  0  0  0  0  0  0  0  0  0  0  0
  -25.1850  -30.1317   25.4371 C   0  0  1  0  0  0  0  0  0  0  0  0
  -24.0068  -30.6333   21.8603 C   0  0  1  0  0  0  0  0  0  0  0  0
  -28.0507  -13.0954   20.2881 C   0  0  1  0  0  0  0  0  0  0  0  0
  -18.4131  -30.1072   16.5275 C   0  0  0  0  0  0  0  0  0  0  0  0
  -20.0829  -28.3356   22.6874 C   0  0  0  0  0  0  0  0  0  0  0  0
  -18.5397  -28.0969   20.7304 C   0  0  0  0  0  0  0  0  0  0  0  0
  -18.7632  -30.3000   21.8788 C   0  0  0  0  0  0  0  0  0  0  0  0
  -22.0505  -31.0430   15.9196 C   0  0  0  0  0  0  0  0  0  0  0  0
  -28.8364  -21.2026   14.5654 C   0  0  0  0  0  0  0  0  0  0  0  0
  -26.0764  -24.7972   18.6973 C   0  0  0  0  0  0  0  0  0  1  0  0
  -20.6594  -29.4571   20.4345 C   0  0  1  0  0  0  0  0  0  0  0  0
  -19.8075  -30.5752   16.9140 C   0  0  2  0  0  0  0  0  0  0  0  0
  -19.5392  -29.0427   21.4299 C   0  0  0  0  0  0  0  0  0  0  0  0
  -26.2234  -11.5072   20.7593 N   0  0  0  0  0  0  0  0  0  0  0  0
  -27.0991  -12.4028   21.2463 N   0  0  0  0  0  0  0  0  0  0  0  0
  -23.0060  -29.8961   21.0862 N   0  0  0  0  0  0  0  0  0  0  0  0
  -28.4051  -15.0613   18.8251 N   0  0  0  0  0  0  0  0  0  0  0  0
  -28.4706  -17.2828   19.7095 N   0  0  0  0  0  0  0  0  0  0  0  0
  -27.8213  -13.4422   23.2485 N   0  0  0  0  0  0  0  0  0  0  0  0
  -24.5275  -10.6819   24.6369 N   0  0  0  0  0  0  0  0  0  0  0  0
  -24.9546  -30.5993   24.0870 N   0  0  0  0  0  0  0  0  0  0  0  0
  -20.1759  -30.1530   19.2469 N   0  0  0  0  0  0  0  0  0  0  0  0
  -20.6574  -30.5810   15.6898 N   0  3  0  0  0  0  0  0  0  0  0  0
  -26.0620  -12.2420   25.3224 O   0  0  0  0  0  0  0  0  0  0  0  0
  -23.4223  -28.9722   23.4333 O   0  0  0  0  0  0  0  0  0  0  0  0
  -21.3285  -31.4551   21.5239 O   0  0  0  0  0  0  0  0  0  0  0  0
  -21.0417  -28.6542   17.7038 O   0  0  0  0  0  0  0  0  0  0  0  0
  -30.3537  -16.2935   18.8207 O   0  0  0  0  0  0  0  0  0  0  0  0
  -21.4970   -7.2912   21.4190 O   0  0  0  0  0  0  0  0  0  0  0  0
  -28.2315  -22.4056   15.0372 O   0  0  0  0  0  0  0  0  0  0  0  0
  -27.0817  -25.7650   18.9681 O   0  0  0  0  0  0  0  0  0  1  0  0
  -21.4278   -3.1879   25.1017 F   0  0  0  0  0  0  0  0  0  0  0  0
  -21.2549   -7.8157   24.1225 F   0  0  0  0  0  0  0  0  0  0  0  0
  1  2  1  0  0  0  0
  1  5  2  0  0  0  0
  2  6  2  0  0  0  0
  3  8  2  0  0  0  0
  3 17  1  0  0  0  0
  4  9  1  0  0  0  0
  4 17  2  0  0  0  0
  5 19  1  0  0  0  0
  6 21  1  0  0  0  0
  7 10  2  0  0  0  0
  7 20  1  0  0  0  0
  8 26  1  0  0  0  0
  9 26  2  0  0  0  0
 10 27  1  0  0  0  0
 11 12  2  0  0  0  0
 11 28  1  0  0  0  0
 12 30  1  0  0  0  0
 13 22  1  0  0  0  0
 13 27  2  0  0  0  0
 14 23  2  0  0  0  0
 14 29  1  0  0  0  0
 15 25  1  0  0  0  0
 15 29  2  0  0  0  0
 16 30  2  0  0  0  0
 16 31  1  0  0  0  0
 17 32  1  0  0  0  0
 18 32  1  0  0  0  0
 18 33  2  0  0  0  0
 18 34  1  0  0  0  0
 19 21  2  0  0  0  0
 19 39  1  0  0  0  0
 20 22  2  0  0  0  0
 20 40  1  0  0  0  0
 21 56  1  0  0  0  0
 22 41  1  0  0  0  0
 23 24  1  0  0  0  0
 23 54  1  0  0  0  0
 24 25  2  0  0  0  0
 24 55  1  0  0  0  0
 25 65  1  0  0  0  0
 26 84  1  0  0  0  0
 27 86  1  0  0  0  0
 28 31  2  0  0  0  0
 28 84  1  0  0  0  0
 29 85  1  0  0  0  0
 30 87  1  0  0  0  0
 31 88  1  0  0  0  0
 32 69  2  0  0  0  0
 33 70  1  0  0  0  0
 33 74  1  0  0  0  0
 34 75  1  0  0  0  0
 34 79  2  0  0  0  0
 35 57  1  0  0  0  0
 35 76  1  0  0  0  0
 35 80  2  0  0  0  0
 36 66  1  0  0  0  0
 36 71  1  0  0  0  0
 36 81  2  0  0  0  0
 37 67  1  0  0  0  0
 37 77  1  0  0  0  0
 37 82  2  0  0  0  0
 38 72  1  0  0  0  0
 38 73  1  0  0  0  0
 38 83  2  0  0  0  0
 39 42  1  0  0  0  0
 40 57  1  0  0  0  0
 41 71  1  0  0  0  0
 42 46  1  0  0  0  0
 43 47  1  0  0  0  0
 43 50  1  0  0  0  0
 44 45  1  0  0  0  0
 44 55  1  0  0  0  0
 45 55  1  0  0  0  0
 46 56  1  0  0  0  0
 47 58  1  0  0  0  0
 48 51  1  0  0  0  0
 48 54  1  0  0  0  0
 49 52  1  0  0  0  0
 49 54  1  0  0  0  0
 50 72  1  0  0  0  0
 51 73  1  0  0  0  0
 52 73  1  0  0  0  0
 53 58  1  0  0  0  0
 53 72  1  0  0  0  0
 56 76  1  0  0  0  0
 57 71  1  0  0  0  0
 58 70  1  0  0  0  0
 59 67  1  0  0  0  0
 60 68  1  0  0  0  0
 61 68  1  0  0  0  0
 62 68  1  0  0  0  0
 63 78  1  0  0  0  0
 64 85  1  0  0  0  0
 65 86  1  0  0  0  0
 66 68  1  0  0  0  0
 66 77  1  0  0  0  0
 67 78  1  0  0  0  0
 69 70  1  0  0  0  0
M  CHG  1  78   1
M  ISO  4  38 100  65 101  73 100  86 101
M  END
> <Batch ID>
0158

> <Smiles>
CNC(C)C(=O)NC(C(=O)N1Cc2cc([101O:1][101CH2:1]c3cc(OC)cc(C4CC[100N:0]([100C:0](=O)N5CCCC(n6nc(-c7ccc(Oc8ccc(F)cc8F)cc7)c(C(N)=O)c6N)C5)CC4)c3C3CC3)ccc2CC1C(=O)NC1CCCc2ccccc21)C(C)(C)C

> <Shape>
0.306

> <Color>
0.127

> <Negative vol penalty>
0.000

$$$$

  -OEChem-04052322043D

 85 94  0     1  0  0  0  0  0999 V2000
  -25.8431   -5.5706   22.0676 C   0  0  0  0  0  0  0  0  0  0  0  0
  -25.3038   -6.8480   22.1809 C   0  0  0  0  0  0  0  0  0  0  0  0
  -22.7375  -29.0849   20.8281 C   0  0  0  0  0  0  0  0  0  0  0  0
  -24.1242  -29.1465   22.8055 C   0  0  0  0  0  0  0  0  0  0  0  0
  -27.2174   -5.3807   22.2057 C   0  0  0  0  0  0  0  0  0  0  0  0
  -26.1384   -7.9361   22.4334 C   0  0  0  0  0  0  0  0  0  0  0  0
  -25.0583  -11.9315   19.5153 C   0  0  0  0  0  0  0  0  0  0  0  0
  -21.6537  -29.5488   21.5736 C   0  0  0  0  0  0  0  0  0  0  0  0
  -23.0404  -29.6105   23.5510 C   0  0  0  0  0  0  0  0  0  0  0  0
  -23.9548  -12.7035   19.8758 C   0  0  0  0  0  0  0  0  0  0  0  0
  -19.3955  -28.2756   23.7425 C   0  0  0  0  0  0  0  0  0  0  0  0
  -18.1654  -27.6444   23.5583 C   0  0  0  0  0  0  0  0  0  0  0  0
  -25.4261  -14.3170   20.9010 C   0  0  0  0  0  0  0  0  0  0  0  0
  -21.9490  -17.5144   18.4194 C   0  0  0  0  0  0  0  0  0  0  0  0
  -17.1959  -29.7407   22.8492 C   0  0  0  0  0  0  0  0  0  0  0  0
  -22.6925  -17.8034   20.6600 C   0  0  0  0  0  0  0  0  0  0  0  0
  -23.9727  -28.8837   21.4440 C   0  0  0  0  0  0  0  0  0  0  0  0
  -25.6827  -29.0223   19.5561 C   0  0  0  0  0  0  0  0  0  0  0  0
  -28.0705   -6.4684   22.4505 C   0  0  0  0  0  0  0  0  0  0  0  0
  -26.3555  -12.3417   19.8551 C   0  0  0  0  0  0  0  0  0  0  0  0
  -27.5253   -7.7604   22.5763 C   0  0  0  0  0  0  0  0  0  0  0  0
  -26.5445  -13.5497   20.5414 C   0  0  0  0  0  0  0  0  0  0  0  0
  -21.9371  -17.0899   19.7434 C   0  0  0  0  0  0  0  0  0  0  0  0
  -22.7052  -18.6237   18.0575 C   0  0  0  0  0  0  0  0  0  0  0  0
  -21.8052  -29.8116   22.9351 C   0  0  0  0  0  0  0  0  0  0  0  0
  -24.1383  -13.8950   20.5713 C   0  0  0  0  0  0  0  0  0  0  0  0
  -19.5258  -29.6395   23.4802 C   0  0  0  0  0  0  0  0  0  0  0  0
  -17.0656  -28.3769   23.1116 C   0  0  0  0  0  0  0  0  0  0  0  0
  -18.4260  -30.3719   23.0335 C   0  0  0  0  0  0  0  0  0  0  0  0
  -25.0925  -28.4039   20.6745 C   0  0  0  0  0  0  0  0  0  0  0  0
  -23.4261  -19.2686   19.0496 C   0  0  0  0  0  0  0  0  0  0  0  0
  -26.7009  -28.1751   19.1928 C   0  0  0  0  0  0  0  0  0  0  0  0
  -25.3412  -30.2527   18.9039 C   0  0  0  0  0  0  0  0  0  0  0  0
  -28.6908  -11.1412   21.6465 C   0  0  0  0  0  0  0  0  0  0  0  0
  -30.3669  -13.6488   20.4529 C   0  0  0  0  0  0  0  0  0  0  0  0
  -30.7100  -17.0903   19.4253 C   0  0  0  0  0  0  0  0  0  0  0  0
  -27.7039  -22.4279   19.8321 C   0  0  0  0  0  0  0  0  0  0  0  0
  -29.5438   -6.2072   22.6393 C   0  0  0  0  0  0  0  0  0  0  0  0
  -27.5372  -11.5110   19.4355 C   0  0  0  0  0  0  0  0  0  0  0  0
  -27.9179  -14.0446   20.9121 C   0  0  0  0  0  0  0  0  0  0  0  0
  -30.4037   -7.4641   22.5335 C   0  0  0  0  0  0  0  0  0  0  0  0
  -29.7389  -24.9643   21.0041 C   0  0  0  0  0  0  0  0  0  0  0  0
  -29.7933   -8.5988   23.3501 C   0  0  0  0  0  0  0  0  0  0  0  0
  -28.8454  -26.2031   20.9462 C   0  0  0  0  0  0  0  0  0  0  0  0
  -24.3225  -21.4887   19.8799 C   0  0  0  0  0  0  0  0  0  0  0  0
  -25.6893  -20.0972   18.2658 C   0  0  0  0  0  0  0  0  0  0  0  0
  -28.9604  -23.7529   21.5042 C   0  0  0  0  0  0  0  0  0  0  0  0
  -25.2006  -22.6982   19.5465 C   0  0  0  0  0  0  0  0  0  0  0  0
  -26.5154  -21.3412   17.9518 C   0  0  0  0  0  0  0  0  0  0  0  0
  -26.8375  -24.6735   20.6302 C   0  0  0  0  0  0  0  0  0  0  0  0
  -28.4009   -8.9692   22.8252 C   0  0  1  0  0  0  0  0  0  0  0  0
  -24.2685  -20.4849   18.7142 C   0  0  0  0  0  0  0  0  0  0  0  0
  -28.7791  -11.7674   20.2835 C   0  0  1  0  0  0  0  0  0  0  0  0
  -27.5741  -25.9300   20.1230 C   0  0  1  0  0  0  0  0  0  0  0  0
  -22.7239  -19.0827   16.6404 C   0  0  0  0  0  0  0  0  0  0  0  0
  -32.6557  -18.3016   18.4034 C   0  0  0  0  0  0  0  0  0  0  0  0
  -31.0294  -14.4147   23.3312 C   0  0  0  0  0  0  0  0  0  0  0  0
  -31.7132  -16.6748   22.4989 C   0  0  0  0  0  0  0  0  0  0  0  0
  -32.9343  -14.6412   21.7267 C   0  0  0  0  0  0  0  0  0  0  0  0
  -29.0888  -17.9868   17.1172 C   0  0  0  0  0  0  0  0  0  0  0  0
  -21.1381  -15.9078   20.1629 C   0  0  0  0  0  0  0  0  0  0  0  0
  -21.9192  -14.5912   20.0749 C   0  0  0  0  0  0  0  0  0  1  0  0
  -30.5947  -15.0803   20.8748 C   0  0  1  0  0  0  0  0  0  0  0  0
  -31.3349  -17.5962   18.1376 C   0  0  2  0  0  0  0  0  0  0  0  0
  -31.5418  -15.1927   22.1027 C   0  0  0  0  0  0  0  0  0  0  0  0
  -23.4394  -18.8857   20.3461 N   0  0  0  0  0  0  0  0  0  0  0  0
  -25.6861  -27.2526   21.0003 N   0  0  0  0  0  0  0  0  0  0  0  0
  -26.6600  -27.1408   20.0809 N   0  0  0  0  0  0  0  0  0  0  0  0
  -29.0411  -13.1939   20.4852 N   0  0  0  0  0  0  0  0  0  0  0  0
  -27.7595  -23.5292   20.6995 N   0  0  0  0  0  0  0  0  0  0  0  0
  -26.5271  -22.2653   19.0855 N   0  0  0  0  0  0  0  0  0  0  0  0
  -27.6183  -28.2214   18.2035 N   0  0  0  0  0  0  0  0  0  0  0  0
  -25.9536  -31.4343   19.3435 N   0  0  0  0  0  0  0  0  0  0  0  0
  -28.5100   -9.7714   21.6256 N   0  0  0  0  0  0  0  0  0  0  0  0
  -31.0683  -15.7851   19.6884 N   0  0  0  0  0  0  0  0  0  0  0  0
  -30.4182  -18.5553   17.4589 N   0  3  0  0  0  0  0  0  0  0  0  0
  -24.5052  -30.3051   17.9702 O   0  0  0  0  0  0  0  0  0  0  0  0
  -28.7814  -11.8482   22.6433 O   0  0  0  0  0  0  0  0  0  0  0  0
  -31.3290  -12.9618   20.1007 O   0  0  0  0  0  0  0  0  0  0  0  0
  -29.9802  -17.7848   20.1292 O   0  0  0  0  0  0  0  0  0  0  0  0
  -28.6496  -21.6365   19.7295 O   0  0  0  0  0  0  0  0  0  0  0  0
  -20.7479  -30.2645   23.6628 O   0  0  0  0  0  0  0  0  0  0  0  0
  -23.0553  -14.6554   20.9274 O   0  0  0  0  0  0  0  0  0  1  0  0
  -15.8848  -27.7702   22.9333 F   0  0  0  0  0  0  0  0  0  0  0  0
  -18.5453  -31.6821   22.7787 F   0  0  0  0  0  0  0  0  0  0  0  0
  1  2  1  0  0  0  0
  1  5  2  0  0  0  0
  2  6  2  0  0  0  0
  3  8  2  0  0  0  0
  3 17  1  0  0  0  0
  4  9  1  0  0  0  0
  4 17  2  0  0  0  0
  5 19  1  0  0  0  0
  6 21  1  0  0  0  0
  7 10  2  0  0  0  0
  7 20  1  0  0  0  0
  8 25  1  0  0  0  0
  9 25  2  0  0  0  0
 10 26  1  0  0  0  0
 11 12  2  0  0  0  0
 11 27  1  0  0  0  0
 12 28  1  0  0  0  0
 13 22  1  0  0  0  0
 13 26  2  0  0  0  0
 14 23  2  0  0  0  0
 14 24  1  0  0  0  0
 15 28  2  0  0  0  0
 15 29  1  0  0  0  0
 16 23  1  0  0  0  0
 16 66  2  0  0  0  0
 17 30  1  0  0  0  0
 18 30  1  0  0  0  0
 18 32  2  0  0  0  0
 18 33  1  0  0  0  0
 19 21  2  0  0  0  0
 19 38  1  0  0  0  0
 20 22  2  0  0  0  0
 20 39  1  0  0  0  0
 21 51  1  0  0  0  0
 22 40  1  0  0  0  0
 23 61  1  0  0  0  0
 24 31  2  0  0  0  0
 24 55  1  0  0  0  0
 25 82  1  0  0  0  0
 26 83  1  0  0  0  0
 27 29  2  0  0  0  0
 27 82  1  0  0  0  0
 28 84  1  0  0  0  0
 29 85  1  0  0  0  0
 30 67  2  0  0  0  0
 31 52  1  0  0  0  0
 31 66  1  0  0  0  0
 32 68  1  0  0  0  0
 32 72  1  0  0  0  0
 33 73  1  0  0  0  0
 33 77  2  0  0  0  0
 34 53  1  0  0  0  0
 34 74  1  0  0  0  0
 34 78  2  0  0  0  0
 35 63  1  0  0  0  0
 35 69  1  0  0  0  0
 35 79  2  0  0  0  0
 36 64  1  0  0  0  0
 36 75  1  0  0  0  0
 36 80  2  0  0  0  0
 37 70  1  0  0  0  0
 37 71  1  0  0  0  0
 37 81  2  0  0  0  0
 38 41  1  0  0  0  0
 39 53  1  0  0  0  0
 40 69  1  0  0  0  0
 41 43  1  0  0  0  0
 42 44  1  0  0  0  0
 42 47  1  0  0  0  0
 43 51  1  0  0  0  0
 44 54  1  0  0  0  0
 45 48  1  0  0  0  0
 45 52  1  0  0  0  0
 46 49  1  0  0  0  0
 46 52  1  0  0  0  0
 47 70  1  0  0  0  0
 48 71  1  0  0  0  0
 49 71  1  0  0  0  0
 50 54  1  0  0  0  0
 50 70  1  0  0  0  0
 51 74  1  0  0  0  0
 53 69  1  0  0  0  0
 54 68  1  0  0  0  0
 56 64  1  0  0  0  0
 57 65  1  0  0  0  0
 58 65  1  0  0  0  0
 59 65  1  0  0  0  0
 60 76  1  0  0  0  0
 61 62  1  0  0  0  0
 62 83  1  0  0  0  0
 63 65  1  0  0  0  0
 63 75  1  0  0  0  0
 64 76  1  0  0  0  0
 67 68  1  0  0  0  0
M  CHG  1  76   1
M  ISO  4  37 100  62 101  71 100  83 101
M  END
> <Batch ID>
0158

> <Smiles>
CNC(C)C(=O)NC(C(=O)N1Cc2cc([101O:1][101CH2:1]Cc3cnc(C4CC[100N:0]([100C:0](=O)N5CCCC(n6nc(-c7ccc(Oc8ccc(F)cc8F)cc7)c(C(N)=O)c6N)C5)CC4)c(C)c3)ccc2CC1C(=O)NC1CCCc2ccccc21)C(C)(C)C

> <Shape>
0.235

> <Color>
0.080

> <Negative vol penalty>
0.000

$$$$

  -OEChem-04052322043D

 94104  0     1  0  0  0  0  0999 V2000
  -22.9695   -5.8307   23.2718 C   0  0  0  0  0  0  0  0  0  0  0  0
  -24.2920   -6.2353   23.4226 C   0  0  0  0  0  0  0  0  0  0  0  0
  -23.6444  -31.4081   22.0941 C   0  0  0  0  0  0  0  0  0  0  0  0
  -24.8134  -31.0578   24.1793 C   0  0  0  0  0  0  0  0  0  0  0  0
  -22.1579   -6.4456   22.3194 C   0  0  0  0  0  0  0  0  0  0  0  0
  -24.8039   -7.2544   22.6203 C   0  0  0  0  0  0  0  0  0  0  0  0
  -29.4932  -12.6674   22.7855 C   0  0  0  0  0  0  0  0  0  0  0  0
  -22.4504  -31.0130   22.6972 C   0  0  0  0  0  0  0  0  0  0  0  0
  -23.6193  -30.6627   24.7824 C   0  0  0  0  0  0  0  0  0  0  0  0
  -30.5790  -13.1739   22.0726 C   0  0  0  0  0  0  0  0  0  0  0  0
  -19.1597  -29.7517   23.5942 C   0  0  0  0  0  0  0  0  0  0  0  0
  -18.3391  -28.8677   22.8937 C   0  0  0  0  0  0  0  0  0  0  0  0
  -29.5567  -20.6762   19.9702 C   0  0  0  0  0  0  0  0  0  0  0  0
  -29.0615  -14.2181   20.5150 C   0  0  0  0  0  0  0  0  0  0  0  0
  -20.1180  -27.2330   22.8729 C   0  0  0  0  0  0  0  0  0  0  0  0
  -24.8260  -31.4304   22.8352 C   0  0  0  0  0  0  0  0  0  0  0  0
  -26.5842  -33.1422   22.1381 C   0  0  0  0  0  0  0  0  0  0  0  0
  -22.6574   -7.4794   21.5116 C   0  0  0  0  0  0  0  0  0  0  0  0
  -28.1813  -12.9237   22.3616 C   0  0  0  0  0  0  0  0  0  0  0  0
  -23.9986   -7.8828   21.6553 C   0  0  0  0  0  0  0  0  0  0  0  0
  -30.8875  -21.0126   20.2174 C   0  0  0  0  0  0  0  0  0  0  0  0
  -27.9607  -13.7158   21.2257 C   0  0  0  0  0  0  0  0  0  0  0  0
  -28.5901  -21.6775   19.8758 C   0  0  0  0  0  0  0  0  0  0  0  0
  -31.2520  -22.3503   20.3704 C   0  0  0  0  0  0  0  0  0  0  0  0
  -30.2854  -23.3516   20.2761 C   0  0  0  0  0  0  0  0  0  0  0  0
  -22.4378  -30.6403   24.0413 C   0  0  0  0  0  0  0  0  0  0  0  0
  -30.3633  -13.9469   20.9355 C   0  0  0  0  0  0  0  0  0  0  0  0
  -20.4595  -29.3765   23.9340 C   0  0  0  0  0  0  0  0  0  0  0  0
  -28.9545  -23.0152   20.0288 C   0  0  0  0  0  0  0  0  0  0  0  0
  -18.8183  -27.6083   22.5331 C   0  0  0  0  0  0  0  0  0  0  0  0
  -20.9387  -28.1171   23.5733 C   0  0  0  0  0  0  0  0  0  0  0  0
  -26.0599  -31.8379   22.2127 C   0  0  0  0  0  0  0  0  0  0  0  0
  -27.7657  -32.9987   21.4526 C   0  0  0  0  0  0  0  0  0  0  0  0
  -26.0510  -34.3735   22.6433 C   0  0  0  0  0  0  0  0  0  0  0  0
  -25.7474  -11.1267   21.3867 C   0  0  0  0  0  0  0  0  0  0  0  0
  -24.1492  -13.9490   21.4404 C   0  0  0  0  0  0  0  0  0  0  0  0
  -24.2813  -17.3564   21.3022 C   0  0  0  0  0  0  0  0  0  0  0  0
  -27.7821  -27.5024   20.9519 C   0  0  0  0  0  0  0  0  0  0  0  0
  -21.7557   -8.0818   20.4634 C   0  0  0  0  0  0  0  0  0  0  0  0
  -27.0204  -12.3924   23.1568 C   0  0  0  0  0  0  0  0  0  0  0  0
  -26.5715  -14.0370   20.7405 C   0  0  0  0  0  0  0  0  0  0  0  0
  -22.2668   -9.4097   19.9105 C   0  0  0  0  0  0  0  0  0  0  0  0
  -27.8603  -29.9760   18.3746 C   0  0  0  0  0  0  0  0  0  0  0  0
  -24.9360  -26.2881   19.0611 C   0  0  0  0  0  0  0  0  0  0  0  0
  -23.7506   -9.3108   19.5708 C   0  0  0  0  0  0  0  0  0  0  0  0
  -28.8011  -31.0557   18.8977 C   0  0  0  0  0  0  0  0  0  0  0  0
  -25.2919  -25.0081   19.8041 C   0  0  0  0  0  0  0  0  0  0  0  0
  -31.5590  -18.9746   21.4756 C   0  0  0  0  0  0  0  0  0  0  0  0
  -31.9776  -19.1444   18.9891 C   0  0  0  0  0  0  0  0  0  0  0  0
  -28.3328  -28.5972   18.8089 C   0  0  0  0  0  0  0  0  0  0  0  0
  -26.2771  -26.9985   18.9619 C   0  0  0  0  0  0  0  0  0  0  0  0
  -29.3169  -29.5356   20.8914 C   0  0  0  0  0  0  0  0  0  0  0  0
  -32.5300  -17.8031   21.5492 C   0  0  0  0  0  0  0  0  0  0  0  0
  -32.9456  -17.9718   19.0818 C   0  0  0  0  0  0  0  0  0  0  0  0
  -31.9030  -19.9212   20.3138 C   0  0  0  0  0  0  0  0  0  0  0  0
  -24.5833   -9.0017   20.8208 C   0  0  1  0  0  0  0  0  0  0  0  0
  -25.7356  -12.2872   22.3411 C   0  0  1  0  0  0  0  0  0  0  0  0
  -29.0037  -30.9742   20.4192 C   0  0  2  0  0  0  0  0  0  0  0  0
  -26.3397  -25.4711   20.8200 C   0  0  1  0  0  0  0  0  0  0  0  0
  -27.1708  -21.2975   19.6103 C   0  0  0  0  0  0  0  0  0  0  0  0
  -32.6799  -22.7092   20.6345 C   0  0  0  0  0  0  0  0  0  0  0  0
  -30.6699  -24.7878   20.4384 C   0  0  0  0  0  0  0  0  0  0  0  0
  -22.8082  -19.3877   21.3332 C   0  0  0  0  0  0  0  0  0  0  0  0
  -23.3354  -13.3998   18.5515 C   0  0  0  0  0  0  0  0  0  0  0  0
  -22.7074  -15.8144   18.3426 C   0  0  0  0  0  0  0  0  0  0  0  0
  -21.5211  -14.3563   19.9825 C   0  0  0  0  0  0  0  0  0  0  0  0
  -25.5601  -18.3891   23.7634 C   0  0  0  0  0  0  0  0  0  0  0  0
  -27.3483  -24.3744   21.1371 C   0  0  0  0  0  0  0  0  0  0  0  0
  -33.3867  -15.8331   20.2843 C   0  0  0  0  0  0  0  0  0  0  0  0
  -32.6090  -14.7287   20.9724 C   0  0  0  0  0  0  0  0  0  1  0  0
  -23.9052  -15.0585   20.4462 C   0  0  1  0  0  0  0  0  0  0  0  0
  -23.6387  -18.4252   22.1677 C   0  0  2  0  0  0  0  0  0  0  0  0
  -22.8936  -14.6498   19.3385 C   0  0  0  0  0  0  0  0  0  0  0  0
  -26.8440  -30.9324   21.6216 N   0  0  0  0  0  0  0  0  0  0  0  0
  -27.8729  -31.6689   21.1690 N   0  0  0  0  0  0  0  0  0  0  0  0
  -25.4693  -13.4892   21.5484 N   0  0  0  0  0  0  0  0  0  0  0  0
  -28.4827  -28.5024   20.2611 N   0  0  0  0  0  0  0  0  0  0  0  0
  -26.9627  -26.6507   20.2075 N   0  0  0  0  0  0  0  0  0  0  0  0
  -28.7129  -33.8815   21.0707 N   0  0  0  0  0  0  0  0  0  0  0  0
  -24.8261  -34.3418   23.3238 N   0  0  0  0  0  0  0  0  0  0  0  0
  -24.7545  -10.1948   21.6218 N   0  0  0  0  0  0  0  0  0  0  0  0
  -23.4995  -16.2231   21.2256 N   0  0  0  0  0  0  0  0  0  0  0  0
  -32.5400  -17.0748   20.2266 N   0  3  0  0  0  0  0  0  0  0  0  0
  -24.6841  -19.2076   22.8861 N   0  3  0  0  0  0  0  0  0  0  0  0
  -26.6351  -35.4717   22.4815 O   0  0  0  0  0  0  0  0  0  0  0  0
  -26.5936  -11.0809   20.5016 O   0  0  0  0  0  0  0  0  0  0  0  0
  -23.2046  -13.5114   22.1021 O   0  0  0  0  0  0  0  0  0  0  0  0
  -25.3663  -17.5126   20.7464 O   0  0  0  0  0  0  0  0  0  0  0  0
  -27.8762  -27.3818   22.1806 O   0  0  0  0  0  0  0  0  0  0  0  0
  -21.2727  -30.2550   24.6301 O   0  0  0  0  0  0  0  0  0  0  0  0
  -28.0018  -23.9992   19.9375 O   0  0  0  0  0  0  0  0  0  0  0  0
  -31.4289  -14.4456   20.2324 O   0  0  0  0  0  0  0  0  0  1  0  0
  -18.0296  -26.7589   21.8618 F   0  0  0  0  0  0  0  0  0  0  0  0
  -22.1861  -27.7505   23.8980 F   0  0  0  0  0  0  0  0  0  0  0  0
  1  2  1  0  0  0  0
  1  5  2  0  0  0  0
  2  6  2  0  0  0  0
  3  8  2  0  0  0  0
  3 16  1  0  0  0  0
  4  9  1  0  0  0  0
  4 16  2  0  0  0  0
  5 18  1  0  0  0  0
  6 20  1  0  0  0  0
  7 10  2  0  0  0  0
  7 19  1  0  0  0  0
  8 26  1  0  0  0  0
  9 26  2  0  0  0  0
 10 27  1  0  0  0  0
 11 12  2  0  0  0  0
 11 28  1  0  0  0  0
 12 30  1  0  0  0  0
 13 21  1  0  0  0  0
 13 23  2  0  0  0  0
 14 22  1  0  0  0  0
 14 27  2  0  0  0  0
 15 30  2  0  0  0  0
 15 31  1  0  0  0  0
 16 32  1  0  0  0  0
 17 32  1  0  0  0  0
 17 33  2  0  0  0  0
 17 34  1  0  0  0  0
 18 20  2  0  0  0  0
 18 39  1  0  0  0  0
 19 22  2  0  0  0  0
 19 40  1  0  0  0  0
 20 56  1  0  0  0  0
 21 24  2  0  0  0  0
 21 55  1  0  0  0  0
 22 41  1  0  0  0  0
 23 29  1  0  0  0  0
 23 60  1  0  0  0  0
 24 25  1  0  0  0  0
 24 61  1  0  0  0  0
 25 29  2  0  0  0  0
 25 62  1  0  0  0  0
 26 90  1  0  0  0  0
 27 92  1  0  0  0  0
 28 31  2  0  0  0  0
 28 90  1  0  0  0  0
 29 91  1  0  0  0  0
 30 93  1  0  0  0  0
 31 94  1  0  0  0  0
 32 74  2  0  0  0  0
 33 75  1  0  0  0  0
 33 79  1  0  0  0  0
 34 80  1  0  0  0  0
 34 85  2  0  0  0  0
 35 57  1  0  0  0  0
 35 81  1  0  0  0  0
 35 86  2  0  0  0  0
 36 71  1  0  0  0  0
 36 76  1  0  0  0  0
 36 87  2  0  0  0  0
 37 72  1  0  0  0  0
 37 82  1  0  0  0  0
 37 88  2  0  0  0  0
 38 77  1  0  0  0  0
 38 78  1  0  0  0  0
 38 89  2  0  0  0  0
 39 42  1  0  0  0  0
 40 57  1  0  0  0  0
 41 76  1  0  0  0  0
 42 45  1  0  0  0  0
 43 46  1  0  0  0  0
 43 50  1  0  0  0  0
 44 47  1  0  0  0  0
 44 51  1  0  0  0  0
 45 56  1  0  0  0  0
 46 58  1  0  0  0  0
 47 59  1  0  0  0  0
 48 53  1  0  0  0  0
 48 55  1  0  0  0  0
 49 54  1  0  0  0  0
 49 55  1  0  0  0  0
 50 77  1  0  0  0  0
 51 78  1  0  0  0  0
 52 58  1  0  0  0  0
 52 77  1  0  0  0  0
 53 83  1  0  0  0  0
 54 83  1  0  0  0  0
 56 81  1  0  0  0  0
 57 76  1  0  0  0  0
 58 75  1  0  0  0  0
 59 68  1  0  0  0  0
 59 78  1  0  0  0  0
 63 72  1  0  0  0  0
 64 73  1  0  0  0  0
 65 73  1  0  0  0  0
 66 73  1  0  0  0  0
 67 84  1  0  0  0  0
 68 91  1  0  0  0  0
 69 70  1  0  0  0  0
 69 83  1  0  0  0  0
 70 92  1  0  0  0  0
 71 73  1  0  0  0  0
 71 82  1  0  0  0  0
 72 84  1  0  0  0  0
 74 75  1  0  0  0  0
M  CHG  2  83   1  84   1
M  ISO  4  38 100  70 101  78 100  92 101
M  END
> <Batch ID>
0158

> <Smiles>
CNC(C)C(=O)NC(C(=O)N1Cc2cc([101O:1][101CH2:1]CN3CCC(c4cc(C)c(OCC5CCC[100N:0]5[100C:0](=O)N5CCCC(n6nc(-c7ccc(Oc8ccc(F)cc8F)cc7)c(C(N)=O)c6N)C5)c(C)c4C)CC3)ccc2CC1C(=O)NC1CCCc2ccccc21)C(C)(C)C

> <Shape>
0.296

> <Color>
0.056

> <Negative vol penalty>
0.000

$$$$

  -OEChem-04052322043D

 89 99  0     1  0  0  0  0  0999 V2000
  -23.6968  -32.4916   19.0818 C   0  0  0  0  0  0  0  0  0  0  0  0
  -24.0644  -31.2266   19.5289 C   0  0  0  0  0  0  0  0  0  0  0  0
  -22.6846  -10.1289   20.2063 C   0  0  0  0  0  0  0  0  0  0  0  0
  -24.2652   -9.4985   21.9214 C   0  0  0  0  0  0  0  0  0  0  0  0
  -22.8204  -33.2694   19.8375 C   0  0  0  0  0  0  0  0  0  0  0  0
  -23.5565  -30.7389   20.7325 C   0  0  0  0  0  0  0  0  0  0  0  0
  -22.0060  -25.9308   20.3808 C   0  0  0  0  0  0  0  0  0  0  0  0
  -21.9437   -8.9758   20.4653 C   0  0  0  0  0  0  0  0  0  0  0  0
  -23.5242   -8.3454   22.1803 C   0  0  0  0  0  0  0  0  0  0  0  0
  -22.9884  -24.9418   20.4029 C   0  0  0  0  0  0  0  0  0  0  0  0
  -20.7035   -7.5216   23.8493 C   0  0  0  0  0  0  0  0  0  0  0  0
  -20.4605   -7.1952   25.1834 C   0  0  0  0  0  0  0  0  0  0  0  0
  -26.7799  -21.8954   23.2121 C   0  0  0  0  0  0  0  0  0  0  0  0
  -22.5179  -24.5350   22.7336 C   0  0  0  0  0  0  0  0  0  0  0  0
  -21.6096   -5.0920   24.8782 C   0  0  0  0  0  0  0  0  0  0  0  0
  -23.8454  -10.3902   20.9344 C   0  0  0  0  0  0  0  0  0  0  0  0
  -24.1735  -12.9148   20.7709 C   0  0  0  0  0  0  0  0  0  0  0  0
  -22.2940  -32.7871   21.0461 C   0  0  0  0  0  0  0  0  0  0  0  0
  -21.2785  -26.2374   21.5397 C   0  0  0  0  0  0  0  0  0  0  0  0
  -22.6733  -31.5114   21.5057 C   0  0  0  0  0  0  0  0  0  0  0  0
  -27.8248  -20.9825   23.0688 C   0  0  0  0  0  0  0  0  0  0  0  0
  -21.5250  -25.5266   22.7229 C   0  0  0  0  0  0  0  0  0  0  0  0
  -25.5244  -21.6082   22.6764 C   0  0  0  0  0  0  0  0  0  0  0  0
  -25.3138  -20.4082   21.9973 C   0  0  0  0  0  0  0  0  0  0  0  0
  -26.3587  -19.4953   21.8539 C   0  0  0  0  0  0  0  0  0  0  0  0
  -27.6141  -19.7824   22.3897 C   0  0  0  0  0  0  0  0  0  0  0  0
  -22.3635   -8.0841   21.4523 C   0  0  0  0  0  0  0  0  0  0  0  0
  -23.2465  -24.2457   21.5802 C   0  0  0  0  0  0  0  0  0  0  0  0
  -21.3995   -6.6331   23.0295 C   0  0  0  0  0  0  0  0  0  0  0  0
  -20.9136   -5.9804   25.6979 C   0  0  0  0  0  0  0  0  0  0  0  0
  -21.8526   -5.4183   23.5440 C   0  0  0  0  0  0  0  0  0  0  0  0
  -24.6114  -11.5809   20.6670 C   0  0  0  0  0  0  0  0  0  0  0  0
  -25.2672  -13.6642   20.4124 C   0  0  0  0  0  0  0  0  0  0  0  0
  -22.8925  -13.4302   21.1570 C   0  0  0  0  0  0  0  0  0  0  0  0
  -20.9338  -28.8253   23.3529 C   0  0  0  0  0  0  0  0  0  0  0  0
  -18.7123  -27.0002   24.8549 C   0  0  0  0  0  0  0  0  0  0  0  0
  -17.5563  -23.8792   25.6097 C   0  0  0  0  0  0  0  0  0  0  0  0
  -30.7402  -14.7229   20.6778 C   0  0  0  0  0  0  0  0  0  0  0  0
  -21.3871  -33.6832   21.8518 C   0  0  0  0  0  0  0  0  0  0  0  0
  -20.2036  -27.2886   21.4925 C   0  0  0  0  0  0  0  0  0  0  0  0
  -20.7577  -25.8036   23.9890 C   0  0  0  0  0  0  0  0  0  0  0  0
  -20.6002  -32.9426   22.9300 C   0  0  0  0  0  0  0  0  0  0  0  0
  -29.6603  -12.2848   18.3185 C   0  0  0  0  0  0  0  0  0  0  0  0
  -29.8252  -22.6062   23.2576 C   0  0  0  0  0  0  0  0  0  0  0  0
  -30.3704  -21.3039   22.7607 C   0  0  0  0  0  0  0  0  0  0  0  0
  -21.5163  -32.0057   23.7109 C   0  0  0  0  0  0  0  0  0  0  0  0
  -28.2173  -11.9901   18.7316 C   0  0  0  0  0  0  0  0  0  0  0  0
  -30.5135  -18.0059   20.8527 C   0  0  0  0  0  0  0  0  0  0  0  0
  -30.3200  -17.3484   23.2612 C   0  0  0  0  0  0  0  0  0  0  0  0
  -30.5545  -12.5351   19.5309 C   0  0  0  0  0  0  0  0  0  0  0  0
  -29.0739  -18.5199   20.8775 C   0  0  0  0  0  0  0  0  0  0  0  0
  -28.8760  -17.8502   23.2812 C   0  0  0  0  0  0  0  0  0  0  0  0
  -28.6238  -13.2805   20.8689 C   0  0  0  0  0  0  0  0  0  0  0  0
  -29.1587  -21.3163   23.6531 C   0  0  0  0  0  0  0  0  0  0  0  0
  -22.1242  -30.9375   22.7938 C   0  0  1  0  0  0  0  0  0  0  0  0
  -19.8792  -27.8734   22.8636 C   0  0  1  0  0  0  0  0  0  0  0  0
  -27.6719  -13.0766   19.6779 C   0  0  2  0  0  0  0  0  0  0  0  0
  -30.7706  -16.8976   21.8732 C   0  0  0  0  0  0  0  0  0  0  0  0
  -23.9660  -20.1031   21.4240 C   0  0  0  0  0  0  0  0  0  0  0  0
  -26.1280  -18.2081   21.1251 C   0  0  0  0  0  0  0  0  0  0  0  0
  -15.7429  -22.7058   26.8873 C   0  0  0  0  0  0  0  0  0  0  0  0
  -20.1696  -27.5984   27.4680 C   0  0  0  0  0  0  0  0  0  0  0  0
  -18.9294  -25.6922   28.5151 C   0  0  0  0  0  0  0  0  0  0  0  0
  -17.6746  -27.6572   27.6280 C   0  0  0  0  0  0  0  0  0  0  0  0
  -16.4916  -22.6081   23.1582 C   0  0  0  0  0  0  0  0  0  0  0  0
  -24.4172  -22.6068   22.8447 C   0  0  0  0  0  0  0  0  0  1  0  0
  -18.7309  -26.0275   26.0092 C   0  0  1  0  0  0  0  0  0  0  0  0
  -16.1644  -23.2770   25.5424 C   0  0  2  0  0  0  0  0  0  0  0  0
  -18.8921  -26.7397   27.3819 C   0  0  0  0  0  0  0  0  0  0  0  0
  -25.8841  -11.4853   20.2731 N   0  0  0  0  0  0  0  0  0  0  0  0
  -26.2552  -12.7686   20.1263 N   0  0  0  0  0  0  0  0  0  0  0  0
  -28.6645  -18.8665   22.2452 N   0  0  0  0  0  0  0  0  0  0  0  0
  -19.7213  -26.8449   23.8939 N   0  0  0  0  0  0  0  0  0  0  0  0
  -29.9818  -13.5771   20.3866 N   0  0  0  0  0  0  0  0  0  0  0  0
  -25.4706  -14.9954   20.3170 N   0  0  0  0  0  0  0  0  0  0  0  0
  -21.8804  -12.5212   21.4941 N   0  0  0  0  0  0  0  0  0  0  0  0
  -21.1542  -29.9007   22.5135 N   0  0  0  0  0  0  0  0  0  0  0  0
  -17.5159  -25.2288   25.8895 N   0  0  0  0  0  0  0  0  0  0  0  0
  -30.1204  -15.6640   21.4907 N   0  0  0  0  0  0  0  0  0  0  0  0
  -16.1221  -22.1819   24.5325 N   0  3  0  0  0  0  0  0  0  0  0  0
  -22.6476  -14.6602   21.1860 O   0  0  0  0  0  0  0  0  0  0  0  0
  -21.5042  -28.6016   24.4141 O   0  0  0  0  0  0  0  0  0  0  0  0
  -17.8307  -27.8615   24.8040 O   0  0  0  0  0  0  0  0  0  0  0  0
  -18.5774  -23.2177   25.4354 O   0  0  0  0  0  0  0  0  0  0  0  0
  -31.8830  -14.8970   20.2410 O   0  0  0  0  0  0  0  0  0  0  0  0
  -21.6406   -6.9589   21.7054 O   0  0  0  0  0  0  0  0  0  0  0  0
  -24.2053  -23.2803   21.6047 O   0  0  0  0  0  0  0  0  0  1  0  0
  -20.6815   -5.6678   26.9796 F   0  0  0  0  0  0  0  0  0  0  0  0
  -22.5228   -4.5613   22.7616 F   0  0  0  0  0  0  0  0  0  0  0  0
  1  2  1  0  0  0  0
  1  5  2  0  0  0  0
  2  6  2  0  0  0  0
  3  8  2  0  0  0  0
  3 16  1  0  0  0  0
  4  9  1  0  0  0  0
  4 16  2  0  0  0  0
  5 18  1  0  0  0  0
  6 20  1  0  0  0  0
  7 10  2  0  0  0  0
  7 19  1  0  0  0  0
  8 27  1  0  0  0  0
  9 27  2  0  0  0  0
 10 28  1  0  0  0  0
 11 12  2  0  0  0  0
 11 29  1  0  0  0  0
 12 30  1  0  0  0  0
 13 21  2  0  0  0  0
 13 23  1  0  0  0  0
 14 22  1  0  0  0  0
 14 28  2  0  0  0  0
 15 30  2  0  0  0  0
 15 31  1  0  0  0  0
 16 32  1  0  0  0  0
 17 32  1  0  0  0  0
 17 33  2  0  0  0  0
 17 34  1  0  0  0  0
 18 20  2  0  0  0  0
 18 39  1  0  0  0  0
 19 22  2  0  0  0  0
 19 40  1  0  0  0  0
 20 55  1  0  0  0  0
 21 26  1  0  0  0  0
 21 54  1  0  0  0  0
 22 41  1  0  0  0  0
 23 24  2  0  0  0  0
 23 66  1  0  0  0  0
 24 25  1  0  0  0  0
 24 59  1  0  0  0  0
 25 26  2  0  0  0  0
 25 60  1  0  0  0  0
 26 72  1  0  0  0  0
 27 86  1  0  0  0  0
 28 87  1  0  0  0  0
 29 31  2  0  0  0  0
 29 86  1  0  0  0  0
 30 88  1  0  0  0  0
 31 89  1  0  0  0  0
 32 70  2  0  0  0  0
 33 71  1  0  0  0  0
 33 75  1  0  0  0  0
 34 76  1  0  0  0  0
 34 81  2  0  0  0  0
 35 56  1  0  0  0  0
 35 77  1  0  0  0  0
 35 82  2  0  0  0  0
 36 67  1  0  0  0  0
 36 73  1  0  0  0  0
 36 83  2  0  0  0  0
 37 68  1  0  0  0  0
 37 78  1  0  0  0  0
 37 84  2  0  0  0  0
 38 74  1  0  0  0  0
 38 79  1  0  0  0  0
 38 85  2  0  0  0  0
 39 42  1  0  0  0  0
 40 56  1  0  0  0  0
 41 73  1  0  0  0  0
 42 46  1  0  0  0  0
 43 47  1  0  0  0  0
 43 50  1  0  0  0  0
 44 45  1  0  0  0  0
 44 54  1  0  0  0  0
 45 54  1  0  0  0  0
 46 55  1  0  0  0  0
 47 57  1  0  0  0  0
 48 51  1  0  0  0  0
 48 58  1  0  0  0  0
 49 52  1  0  0  0  0
 49 58  1  0  0  0  0
 50 74  1  0  0  0  0
 51 72  1  0  0  0  0
 52 72  1  0  0  0  0
 53 57  1  0  0  0  0
 53 74  1  0  0  0  0
 55 77  1  0  0  0  0
 56 73  1  0  0  0  0
 57 71  1  0  0  0  0
 58 79  1  0  0  0  0
 61 68  1  0  0  0  0
 62 69  1  0  0  0  0
 63 69  1  0  0  0  0
 64 69  1  0  0  0  0
 65 80  1  0  0  0  0
 66 87  1  0  0  0  0
 67 69  1  0  0  0  0
 67 78  1  0  0  0  0
 68 80  1  0  0  0  0
 70 71  1  0  0  0  0
M  CHG  1  80   1
M  ISO  4  38 100  66 101  79 100  87 101
M  END
> <Batch ID>
0158

> <Smiles>
CNC(C)C(=O)NC(C(=O)N1Cc2cc([101O:1][101CH2:1]c3cc(C4CC4)c(N4CCC([100NH:0][100C:0](=O)N5CCCC(n6nc(-c7ccc(Oc8ccc(F)cc8F)cc7)c(C(N)=O)c6N)C5)CC4)c(C)c3C)ccc2CC1C(=O)NC1CCCc2ccccc21)C(C)(C)C

> <Shape>
0.277

> <Color>
0.218

> <Negative vol penalty>
0.000

$$$$

  -OEChem-04052322043D

 87 96  0     1  0  0  0  0  0999 V2000
  -28.5102  -33.2312   26.5726 C   0  0  0  0  0  0  0  0  0  0  0  0
  -28.2799  -31.9820   26.0052 C   0  0  0  0  0  0  0  0  0  0  0  0
  -23.7585  -10.4630   22.6846 C   0  0  0  0  0  0  0  0  0  0  0  0
  -24.4049   -8.6929   21.1727 C   0  0  0  0  0  0  0  0  0  0  0  0
  -27.5007  -34.1929   26.5716 C   0  0  0  0  0  0  0  0  0  0  0  0
  -27.0394  -31.6934   25.4376 C   0  0  0  0  0  0  0  0  0  0  0  0
  -27.4469  -29.3650   20.9590 C   0  0  0  0  0  0  0  0  0  0  0  0
  -22.6386   -9.7257   23.0690 C   0  0  0  0  0  0  0  0  0  0  0  0
  -23.2850   -7.9555   21.5572 C   0  0  0  0  0  0  0  0  0  0  0  0
  -27.7486  -28.0040   20.9741 C   0  0  0  0  0  0  0  0  0  0  0  0
  -20.7905   -5.4506   22.4062 C   0  0  0  0  0  0  0  0  0  0  0  0
  -20.9676   -4.0934   22.6748 C   0  0  0  0  0  0  0  0  0  0  0  0
  -25.4196  -27.4899   20.6128 C   0  0  0  0  0  0  0  0  0  0  0  0
  -28.2994  -21.8117   19.8213 C   0  0  0  0  0  0  0  0  0  0  0  0
  -22.5375   -4.6448   24.4265 C   0  0  0  0  0  0  0  0  0  0  0  0
  -24.6416   -9.9466   21.7363 C   0  0  0  0  0  0  0  0  0  0  0  0
  -27.0789  -10.6766   21.9222 C   0  0  0  0  0  0  0  0  0  0  0  0
  -26.2504  -33.9192   25.9951 C   0  0  0  0  0  0  0  0  0  0  0  0
  -26.1254  -29.7992   20.7813 C   0  0  0  0  0  0  0  0  0  0  0  0
  -26.0117  -32.6518   25.4301 C   0  0  0  0  0  0  0  0  0  0  0  0
  -25.1041  -28.8571   20.5933 C   0  0  0  0  0  0  0  0  0  0  0  0
  -28.8028  -21.1714   20.9482 C   0  0  0  0  0  0  0  0  0  0  0  0
  -22.4019   -8.4720   22.5054 C   0  0  0  0  0  0  0  0  0  0  0  0
  -26.7345  -27.0661   20.8039 C   0  0  0  0  0  0  0  0  0  0  0  0
  -21.4869   -6.4050   23.1478 C   0  0  0  0  0  0  0  0  0  0  0  0
  -28.1552  -23.1946   19.8205 C   0  0  0  0  0  0  0  0  0  0  0  0
  -21.8411   -3.6905   23.6849 C   0  0  0  0  0  0  0  0  0  0  0  0
  -22.3603   -6.0021   24.1580 C   0  0  0  0  0  0  0  0  0  0  0  0
  -25.7983  -10.7081   21.3383 C   0  0  0  0  0  0  0  0  0  0  0  0
  -28.5260  -23.8860   20.9626 C   0  0  0  0  0  0  0  0  0  0  0  0
  -29.1448  -21.9534   22.0397 C   0  0  0  0  0  0  0  0  0  0  0  0
  -27.8142  -11.5730   21.1858 C   0  0  0  0  0  0  0  0  0  0  0  0
  -27.5607   -9.9061   23.0312 C   0  0  0  0  0  0  0  0  0  0  0  0
  -24.0554  -31.4597   22.5311 C   0  0  0  0  0  0  0  0  0  0  0  0
  -22.2403  -31.2804   19.8486 C   0  0  0  0  0  0  0  0  0  0  0  0
  -21.5186  -29.6424   16.9429 C   0  0  0  0  0  0  0  0  0  0  0  0
  -28.4671  -16.3533   18.5890 C   0  0  0  0  0  0  0  0  0  0  0  0
  -25.1745  -34.9741   26.0600 C   0  0  0  0  0  0  0  0  0  0  0  0
  -25.8204  -31.2716   20.7407 C   0  0  0  0  0  0  0  0  0  0  0  0
  -23.6722  -29.2719   20.3786 C   0  0  0  0  0  0  0  0  0  0  0  0
  -24.0119  -34.7181   25.1045 C   0  0  0  0  0  0  0  0  0  0  0  0
  -26.7732  -13.9074   16.8293 C   0  0  0  0  0  0  0  0  0  0  0  0
  -23.5593  -33.2640   25.1920 C   0  0  0  0  0  0  0  0  0  0  0  0
  -26.4686  -12.8451   17.8853 C   0  0  0  0  0  0  0  0  0  0  0  0
  -27.6160  -18.9369   20.8068 C   0  0  0  0  0  0  0  0  0  0  0  0
  -29.9651  -19.1809   19.8947 C   0  0  0  0  0  0  0  0  0  0  0  0
  -26.5682  -15.3096   17.3909 C   0  0  0  0  0  0  0  0  0  0  0  0
  -27.7902  -17.4156   20.7877 C   0  0  0  0  0  0  0  0  0  0  0  0
  -30.0930  -17.6605   19.9218 C   0  0  0  0  0  0  0  0  0  0  0  0
  -27.0776  -14.5369   19.6847 C   0  0  0  0  0  0  0  0  0  0  0  0
  -28.9645  -19.6630   20.9607 C   0  0  0  0  0  0  0  0  0  0  0  0
  -24.6875  -32.3095   24.7825 C   0  0  1  0  0  0  0  0  0  0  0  0
  -24.3643  -31.5893   21.0663 C   0  0  1  0  0  0  0  0  0  0  0  0
  -27.2760  -13.0962   19.1712 C   0  0  1  0  0  0  0  0  0  0  0  0
  -19.9585  -29.7102   14.9785 C   0  0  0  0  0  0  0  0  0  0  0  0
  -20.0052  -30.1446   21.5876 C   0  0  0  0  0  0  0  0  0  0  0  0
  -18.8707  -29.3629   19.4972 C   0  0  0  0  0  0  0  0  0  0  0  0
  -19.2523  -31.7996   19.8705 C   0  0  0  0  0  0  0  0  0  0  0  0
  -23.7517  -30.0008   15.0341 C   0  0  0  0  0  0  0  0  0  0  0  0
  -27.3139  -23.0187   17.6031 C   0  0  0  0  0  0  0  0  0  0  0  0
  -29.9751  -22.2204   24.2522 C   0  0  0  0  0  0  0  0  0  0  0  0
  -28.3910  -25.3725   21.0133 C   0  0  0  0  0  0  0  0  0  1  0  0
  -21.2165  -30.3085   19.3135 C   0  0  1  0  0  0  0  0  0  0  0  0
  -21.3075  -30.1480   15.5272 C   0  0  2  0  0  0  0  0  0  0  0  0
  -19.8628  -30.3957   20.0732 C   0  0  0  0  0  0  0  0  0  0  0  0
  -25.7211  -11.5573   20.3102 N   0  0  0  0  0  0  0  0  0  0  0  0
  -29.0189  -23.2989   22.0761 N   0  0  0  0  0  0  0  0  0  0  0  0
  -26.9624  -12.0678   20.2425 N   0  0  0  0  0  0  0  0  0  0  0  0
  -23.4236  -30.7227   20.3533 N   0  0  0  0  0  0  0  0  0  0  0  0
  -27.3481  -15.5073   18.6125 N   0  0  0  0  0  0  0  0  0  0  0  0
  -28.7857  -17.0196   19.7819 N   0  0  0  0  0  0  0  0  0  0  0  0
  -29.0997  -11.9784   21.2596 N   0  0  0  0  0  0  0  0  0  0  0  0
  -26.6725   -9.0333   23.6744 N   0  0  0  0  0  0  0  0  0  0  0  0
  -24.8221  -32.2745   23.3420 N   0  0  0  0  0  0  0  0  0  0  0  0
  -21.1160  -30.5688   17.8815 N   0  0  0  0  0  0  0  0  0  0  0  0
  -22.3734  -29.6254   14.6262 N   0  3  0  0  0  0  0  0  0  0  0  0
  -28.7393  -10.0011   23.4499 O   0  0  0  0  0  0  0  0  0  0  0  0
  -23.1849  -30.6792   22.8982 O   0  0  0  0  0  0  0  0  0  0  0  0
  -22.0020  -32.4902   19.8134 O   0  0  0  0  0  0  0  0  0  0  0  0
  -21.9897  -28.5347   17.1913 O   0  0  0  0  0  0  0  0  0  0  0  0
  -29.1426  -16.5044   17.5633 O   0  0  0  0  0  0  0  0  0  0  0  0
  -21.3094   -7.7521   22.8805 O   0  0  0  0  0  0  0  0  0  0  0  0
  -27.6646  -23.8296   18.7255 O   0  0  0  0  0  0  0  0  0  0  0  0
  -27.0282  -25.7275   20.8189 O   0  0  0  0  0  0  0  0  0  1  0  0
  -29.6447  -21.3593   23.1693 O   0  0  0  0  0  0  0  0  0  0  0  0
  -22.0099   -2.3871   23.9437 F   0  0  0  0  0  0  0  0  0  0  0  0
  -23.0312   -6.9144   24.8745 F   0  0  0  0  0  0  0  0  0  0  0  0
  1  2  1  0  0  0  0
  1  5  2  0  0  0  0
  2  6  2  0  0  0  0
  3  8  2  0  0  0  0
  3 16  1  0  0  0  0
  4  9  1  0  0  0  0
  4 16  2  0  0  0  0
  5 18  1  0  0  0  0
  6 20  1  0  0  0  0
  7 10  2  0  0  0  0
  7 19  1  0  0  0  0
  8 23  1  0  0  0  0
  9 23  2  0  0  0  0
 10 24  1  0  0  0  0
 11 12  2  0  0  0  0
 11 25  1  0  0  0  0
 12 27  1  0  0  0  0
 13 21  1  0  0  0  0
 13 24  2  0  0  0  0
 14 22  2  0  0  0  0
 14 26  1  0  0  0  0
 15 27  2  0  0  0  0
 15 28  1  0  0  0  0
 16 29  1  0  0  0  0
 17 29  1  0  0  0  0
 17 32  2  0  0  0  0
 17 33  1  0  0  0  0
 18 20  2  0  0  0  0
 18 38  1  0  0  0  0
 19 21  2  0  0  0  0
 19 39  1  0  0  0  0
 20 52  1  0  0  0  0
 21 40  1  0  0  0  0
 22 31  1  0  0  0  0
 22 51  1  0  0  0  0
 23 82  1  0  0  0  0
 24 84  1  0  0  0  0
 25 28  2  0  0  0  0
 25 82  1  0  0  0  0
 26 30  2  0  0  0  0
 26 83  1  0  0  0  0
 27 86  1  0  0  0  0
 28 87  1  0  0  0  0
 29 66  2  0  0  0  0
 30 62  1  0  0  0  0
 30 67  1  0  0  0  0
 31 67  2  0  0  0  0
 31 85  1  0  0  0  0
 32 68  1  0  0  0  0
 32 72  1  0  0  0  0
 33 73  1  0  0  0  0
 33 77  2  0  0  0  0
 34 53  1  0  0  0  0
 34 74  1  0  0  0  0
 34 78  2  0  0  0  0
 35 63  1  0  0  0  0
 35 69  1  0  0  0  0
 35 79  2  0  0  0  0
 36 64  1  0  0  0  0
 36 75  1  0  0  0  0
 36 80  2  0  0  0  0
 37 70  1  0  0  0  0
 37 71  1  0  0  0  0
 37 81  2  0  0  0  0
 38 41  1  0  0  0  0
 39 53  1  0  0  0  0
 40 69  1  0  0  0  0
 41 43  1  0  0  0  0
 42 44  1  0  0  0  0
 42 47  1  0  0  0  0
 43 52  1  0  0  0  0
 44 54  1  0  0  0  0
 45 48  1  0  0  0  0
 45 51  1  0  0  0  0
 46 49  1  0  0  0  0
 46 51  1  0  0  0  0
 47 70  1  0  0  0  0
 48 71  1  0  0  0  0
 49 71  1  0  0  0  0
 50 54  1  0  0  0  0
 50 70  1  0  0  0  0
 52 74  1  0  0  0  0
 53 69  1  0  0  0  0
 54 68  1  0  0  0  0
 55 64  1  0  0  0  0
 56 65  1  0  0  0  0
 57 65  1  0  0  0  0
 58 65  1  0  0  0  0
 59 76  1  0  0  0  0
 60 83  1  0  0  0  0
 61 85  1  0  0  0  0
 62 84  1  0  0  0  0
 63 65  1  0  0  0  0
 63 75  1  0  0  0  0
 64 76  1  0  0  0  0
 66 68  1  0  0  0  0
M  CHG  1  76   1
M  ISO  4  37 100  62 101  71 100  84 101
M  END
> <Batch ID>
0158

> <Smiles>
CNC(C)C(=O)NC(C(=O)N1Cc2cc([101O:1][101CH2:1]c3nc(OC)c(C4CC[100N:0]([100C:0](=O)N5CCCC(n6nc(-c7ccc(Oc8ccc(F)cc8F)cc7)c(C(N)=O)c6N)C5)CC4)cc3OC)ccc2CC1C(=O)NC1CCCc2ccccc21)C(C)(C)C

> <Shape>
0.292

> <Color>
0.073

> <Negative vol penalty>
0.000

$$$$

  -OEChem-04052322043D

 89 98  0     1  0  0  0  0  0999 V2000
  -26.5836  -21.9159   14.1854 C   0  0  0  0  0  0  0  0  0  0  0  0
  -27.2166  -22.6687   15.1692 C   0  0  0  0  0  0  0  0  0  0  0  0
  -26.0002  -13.8111   21.4333 C   0  0  0  0  0  0  0  0  0  0  0  0
  -26.2119  -12.9058   19.2033 C   0  0  0  0  0  0  0  0  0  0  0  0
  -25.3572  -22.3339   13.6705 C   0  0  0  0  0  0  0  0  0  0  0  0
  -26.6240  -23.8406   15.6381 C   0  0  0  0  0  0  0  0  0  0  0  0
  -26.7914  -24.2175   20.6854 C   0  0  0  0  0  0  0  0  0  0  0  0
  -24.7267  -13.2520   21.5394 C   0  0  0  0  0  0  0  0  0  0  0  0
  -24.9384  -12.3467   19.3094 C   0  0  0  0  0  0  0  0  0  0  0  0
  -28.0019  -24.6104   21.2547 C   0  0  0  0  0  0  0  0  0  0  0  0
  -21.5992  -13.9602   20.4711 C   0  0  0  0  0  0  0  0  0  0  0  0
  -20.5833  -14.7588   20.9962 C   0  0  0  0  0  0  0  0  0  0  0  0
  -27.1573  -26.8583   21.4845 C   0  0  0  0  0  0  0  0  0  0  0  0
  -31.7924  -28.6907   19.0906 C   0  0  0  0  0  0  0  0  0  0  0  0
  -30.5177  -26.9021   17.3705 C   0  0  0  0  0  0  0  0  0  0  0  0
  -20.2571  -13.1678   22.7849 C   0  0  0  0  0  0  0  0  0  0  0  0
  -26.7428  -13.6380   20.2652 C   0  0  0  0  0  0  0  0  0  0  0  0
  -29.2817  -13.6188   20.5131 C   0  0  0  0  0  0  0  0  0  0  0  0
  -24.7446  -23.5065   14.1402 C   0  0  0  0  0  0  0  0  0  0  0  0
  -25.7570  -25.1462   20.5010 C   0  0  0  0  0  0  0  0  0  0  0  0
  -25.3889  -24.2755   15.1281 C   0  0  0  0  0  0  0  0  0  0  0  0
  -25.9338  -26.4741   20.9149 C   0  0  0  0  0  0  0  0  0  0  0  0
  -31.4111  -29.1027   17.8138 C   0  0  0  0  0  0  0  0  0  0  0  0
  -31.5364  -27.3843   19.5075 C   0  0  0  0  0  0  0  0  0  0  0  0
  -30.7737  -28.2084   16.9537 C   0  0  0  0  0  0  0  0  0  0  0  0
  -24.1958  -12.5198   20.4775 C   0  0  0  0  0  0  0  0  0  0  0  0
  -28.1861  -25.9316   21.6518 C   0  0  0  0  0  0  0  0  0  0  0  0
  -21.9440  -12.7653   21.1029 C   0  0  0  0  0  0  0  0  0  0  0  0
  -30.8990  -26.4901   18.6474 C   0  0  0  0  0  0  0  0  0  0  0  0
  -19.9122  -14.3627   22.1531 C   0  0  0  0  0  0  0  0  0  0  0  0
  -21.2729  -12.3691   22.2597 C   0  0  0  0  0  0  0  0  0  0  0  0
  -28.0581  -14.2158   20.1548 C   0  0  0  0  0  0  0  0  0  0  0  0
  -30.2275  -14.5694   20.2161 C   0  0  0  0  0  0  0  0  0  0  0  0
  -29.5401  -12.3210   21.0650 C   0  0  0  0  0  0  0  0  0  0  0  0
  -24.2056  -26.3048   17.9802 C   0  0  0  0  0  0  0  0  0  0  0  0
  -22.3874  -27.7424   20.2495 C   0  0  0  0  0  0  0  0  0  0  0  0
  -22.1308  -28.9085   23.4465 C   0  0  0  0  0  0  0  0  0  0  0  0
  -30.1704  -20.3411   19.9475 C   0  0  0  0  0  0  0  0  0  0  0  0
  -23.4413  -23.9433   13.5196 C   0  0  0  0  0  0  0  0  0  0  0  0
  -24.4476  -24.7005   19.9098 C   0  0  0  0  0  0  0  0  0  0  0  0
  -24.8473  -27.5052   20.7575 C   0  0  0  0  0  0  0  0  0  0  0  0
  -22.7005  -24.9980   14.3375 C   0  0  0  0  0  0  0  0  0  0  0  0
  -31.0607  -18.2442   17.2769 C   0  0  0  0  0  0  0  0  0  0  0  0
  -23.6580  -26.0999   14.7801 C   0  0  0  0  0  0  0  0  0  0  0  0
  -30.5067  -16.9000   17.7488 C   0  0  0  0  0  0  0  0  0  0  0  0
  -32.1890  -23.3418   19.1299 C   0  0  0  0  0  0  0  0  0  0  0  0
  -30.1449  -23.2914   17.6370 C   0  0  0  0  0  0  0  0  0  0  0  0
  -30.1103  -19.3995   17.5960 C   0  0  0  0  0  0  0  0  0  0  0  0
  -31.4569  -22.4385   20.1211 C   0  0  0  0  0  0  0  0  0  0  0  0
  -29.4587  -22.3930   18.6634 C   0  0  0  0  0  0  0  0  0  0  0  0
  -29.1553  -18.1282   19.4904 C   0  0  0  0  0  0  0  0  0  0  0  0
  -24.7660  -25.5394   15.6800 C   0  0  1  0  0  0  0  0  0  0  0  0
  -23.6476  -25.8462   19.2978 C   0  0  1  0  0  0  0  0  0  0  0  0
  -30.1149  -16.9553   19.2361 C   0  0  1  0  0  0  0  0  0  0  0  0
  -31.2336  -24.1639   18.2641 C   0  0  0  0  0  0  0  0  0  0  0  0
  -31.6968  -30.5055   17.3885 C   0  0  0  0  0  0  0  0  0  0  0  0
  -30.3561  -28.6263   15.5821 C   0  0  0  0  0  0  0  0  0  0  0  0
  -20.5352  -30.0670   24.9988 C   0  0  0  0  0  0  0  0  0  0  0  0
  -31.8524  -27.3074   23.3783 C   0  0  0  0  0  0  0  0  0  0  0  0
  -22.9359  -30.3892   18.8340 C   0  0  0  0  0  0  0  0  0  0  0  0
  -22.1518  -31.5741   20.8955 C   0  0  0  0  0  0  0  0  0  0  0  0
  -20.5836  -30.1013   19.6329 C   0  0  0  0  0  0  0  0  0  0  0  0
  -22.1181  -26.6227   25.3264 C   0  0  0  0  0  0  0  0  0  0  0  0
  -31.9506  -26.9606   20.8780 C   0  0  0  0  0  0  0  0  0  0  0  0
  -29.7716  -27.6699   21.9985 C   0  0  0  0  0  0  0  0  0  1  0  0
  -22.4435  -29.0567   20.9900 C   0  0  1  0  0  0  0  0  0  0  0  0
  -21.0546  -28.7269   24.5017 C   0  0  2  0  0  0  0  0  0  0  0  0
  -31.3031  -27.7754   22.0245 C   0  0  1  0  0  0  0  0  0  0  0  0
  -22.0500  -30.2616   20.0894 C   0  0  0  0  0  0  0  0  0  0  0  0
  -28.2098  -15.4501   19.6676 N   0  0  0  0  0  0  0  0  0  0  0  0
  -29.5398  -15.6365   19.7177 N   0  0  0  0  0  0  0  0  0  0  0  0
  -23.5875  -27.0220   20.1685 N   0  0  0  0  0  0  0  0  0  0  0  0
  -29.7343  -19.3869   19.0160 N   0  0  0  0  0  0  0  0  0  0  0  0
  -30.4319  -21.6324   19.4588 N   0  0  0  0  0  0  0  0  0  0  0  0
  -31.5721  -14.5882   20.3354 N   0  0  0  0  0  0  0  0  0  0  0  0
  -28.4535  -11.4699   21.3082 N   0  0  0  0  0  0  0  0  0  0  0  0
  -24.2643  -25.3141   17.0187 N   0  0  0  0  0  0  0  0  0  0  0  0
  -21.6041  -28.8953   22.1723 N   0  0  0  0  0  0  0  0  0  0  0  0
  -21.5941  -27.9704   25.6669 N   0  3  0  0  0  0  0  0  0  0  0  0
  -30.6988  -11.9340   21.3498 O   0  0  0  0  0  0  0  0  0  0  0  0
  -24.5555  -27.4715   17.8454 O   0  0  0  0  0  0  0  0  0  0  0  0
  -21.3165  -27.3653   19.7671 O   0  0  0  0  0  0  0  0  0  0  0  0
  -23.3193  -29.0518   23.7250 O   0  0  0  0  0  0  0  0  0  0  0  0
  -30.3213  -20.0585   21.1427 O   0  0  0  0  0  0  0  0  0  0  0  0
  -22.9533  -11.9739   20.5807 O   0  0  0  0  0  0  0  0  0  0  0  0
  -30.6413  -25.2031   19.0403 O   0  0  0  0  0  0  0  0  0  0  0  0
  -29.3749  -26.3205   22.2110 O   0  0  0  0  0  0  0  0  0  1  0  0
  -18.9377  -15.1305   22.6581 F   0  0  0  0  0  0  0  0  0  0  0  0
  -21.6006  -11.2229   22.8717 F   0  0  0  0  0  0  0  0  0  0  0  0
  1  2  1  0  0  0  0
  1  5  2  0  0  0  0
  2  6  2  0  0  0  0
  3  8  2  0  0  0  0
  3 17  1  0  0  0  0
  4  9  1  0  0  0  0
  4 17  2  0  0  0  0
  5 19  1  0  0  0  0
  6 21  1  0  0  0  0
  7 10  2  0  0  0  0
  7 20  1  0  0  0  0
  8 26  1  0  0  0  0
  9 26  2  0  0  0  0
 10 27  1  0  0  0  0
 11 12  2  0  0  0  0
 11 28  1  0  0  0  0
 12 30  1  0  0  0  0
 13 22  1  0  0  0  0
 13 27  2  0  0  0  0
 14 23  2  0  0  0  0
 14 24  1  0  0  0  0
 15 25  2  0  0  0  0
 15 29  1  0  0  0  0
 16 30  2  0  0  0  0
 16 31  1  0  0  0  0
 17 32  1  0  0  0  0
 18 32  1  0  0  0  0
 18 33  2  0  0  0  0
 18 34  1  0  0  0  0
 19 21  2  0  0  0  0
 19 39  1  0  0  0  0
 20 22  2  0  0  0  0
 20 40  1  0  0  0  0
 21 52  1  0  0  0  0
 22 41  1  0  0  0  0
 23 25  1  0  0  0  0
 23 56  1  0  0  0  0
 24 29  2  0  0  0  0
 24 64  1  0  0  0  0
 25 57  1  0  0  0  0
 26 85  1  0  0  0  0
 27 87  1  0  0  0  0
 28 31  2  0  0  0  0
 28 85  1  0  0  0  0
 29 86  1  0  0  0  0
 30 88  1  0  0  0  0
 31 89  1  0  0  0  0
 32 70  2  0  0  0  0
 33 71  1  0  0  0  0
 33 75  1  0  0  0  0
 34 76  1  0  0  0  0
 34 80  2  0  0  0  0
 35 53  1  0  0  0  0
 35 77  1  0  0  0  0
 35 81  2  0  0  0  0
 36 66  1  0  0  0  0
 36 72  1  0  0  0  0
 36 82  2  0  0  0  0
 37 67  1  0  0  0  0
 37 78  1  0  0  0  0
 37 83  2  0  0  0  0
 38 73  1  0  0  0  0
 38 74  1  0  0  0  0
 38 84  2  0  0  0  0
 39 42  1  0  0  0  0
 40 53  1  0  0  0  0
 41 72  1  0  0  0  0
 42 44  1  0  0  0  0
 43 45  1  0  0  0  0
 43 48  1  0  0  0  0
 44 52  1  0  0  0  0
 45 54  1  0  0  0  0
 46 49  1  0  0  0  0
 46 55  1  0  0  0  0
 47 50  1  0  0  0  0
 47 55  1  0  0  0  0
 48 73  1  0  0  0  0
 49 74  1  0  0  0  0
 50 74  1  0  0  0  0
 51 54  1  0  0  0  0
 51 73  1  0  0  0  0
 52 77  1  0  0  0  0
 53 72  1  0  0  0  0
 54 71  1  0  0  0  0
 55 86  1  0  0  0  0
 58 67  1  0  0  0  0
 59 68  1  0  0  0  0
 60 69  1  0  0  0  0
 61 69  1  0  0  0  0
 62 69  1  0  0  0  0
 63 79  1  0  0  0  0
 64 68  1  0  0  0  0
 65 68  1  0  0  0  0
 65 87  1  0  0  0  0
 66 69  1  0  0  0  0
 66 78  1  0  0  0  0
 67 79  1  0  0  0  0
 70 71  1  0  0  0  0
M  CHG  1  79   1
M  ISO  4  38 100  65 101  74 100  87 101
M  END
> <Batch ID>
0158

> <Smiles>
CNC(C)C(=O)NC(C(=O)N1Cc2cc([101O:1][101CH2:1]C(C)Cc3cc(C)c(C)cc3OC3CC[100N:0]([100C:0](=O)N4CCCC(n5nc(-c6ccc(Oc7ccc(F)cc7F)cc6)c(C(N)=O)c5N)C4)CC3)ccc2CC1C(=O)NC1CCCc2ccccc21)C(C)(C)C

> <Shape>
0.223

> <Color>
0.078

> <Negative vol penalty>
0.000

$$$$

  -OEChem-04052322043D

 93103  0     1  0  0  0  0  0999 V2000
  -32.4208  -37.5496   22.9776 C   0  0  0  0  0  0  0  0  0  0  0  0
  -32.3847  -36.3496   22.2746 C   0  0  0  0  0  0  0  0  0  0  0  0
  -23.0125   -6.3789   18.5947 C   0  0  0  0  0  0  0  0  0  0  0  0
  -22.4449   -8.2728   17.2062 C   0  0  0  0  0  0  0  0  0  0  0  0
  -31.8056  -37.6440   24.2252 C   0  0  0  0  0  0  0  0  0  0  0  0
  -31.7341  -35.2431   22.8193 C   0  0  0  0  0  0  0  0  0  0  0  0
  -28.6185  -30.9375   19.7761 C   0  0  0  0  0  0  0  0  0  0  0  0
  -22.8725   -5.5313   17.4959 C   0  0  0  0  0  0  0  0  0  0  0  0
  -22.3049   -7.4252   16.1073 C   0  0  0  0  0  0  0  0  0  0  0  0
  -28.9641  -29.6571   19.3463 C   0  0  0  0  0  0  0  0  0  0  0  0
  -24.6849   -4.6544   14.7794 C   0  0  0  0  0  0  0  0  0  0  0  0
  -25.6705   -3.6885   14.5761 C   0  0  0  0  0  0  0  0  0  0  0  0
  -27.4819  -22.4437   20.4862 C   0  0  0  0  0  0  0  0  0  0  0  0
  -27.9569  -28.7257   21.3306 C   0  0  0  0  0  0  0  0  0  0  0  0
  -29.4434  -20.4600   20.4803 C   0  0  0  0  0  0  0  0  0  0  0  0
  -24.0055   -1.9487   14.7709 C   0  0  0  0  0  0  0  0  0  0  0  0
  -22.7987   -7.7497   18.4499 C   0  0  0  0  0  0  0  0  0  0  0  0
  -22.2196   -8.5790   20.7918 C   0  0  0  0  0  0  0  0  0  0  0  0
  -31.1389  -36.5409   24.7812 C   0  0  0  0  0  0  0  0  0  0  0  0
  -27.9480  -31.1229   20.9937 C   0  0  0  0  0  0  0  0  0  0  0  0
  -31.1105  -35.3225   24.0761 C   0  0  0  0  0  0  0  0  0  0  0  0
  -28.7917  -22.7571   20.8490 C   0  0  0  0  0  0  0  0  0  0  0  0
  -27.6017  -30.0094   21.7723 C   0  0  0  0  0  0  0  0  0  0  0  0
  -29.7725  -21.7652   20.8461 C   0  0  0  0  0  0  0  0  0  0  0  0
  -27.1527  -21.1385   20.1205 C   0  0  0  0  0  0  0  0  0  0  0  0
  -22.5187   -6.0544   16.2522 C   0  0  0  0  0  0  0  0  0  0  0  0
  -28.6359  -28.5511   20.1249 C   0  0  0  0  0  0  0  0  0  0  0  0
  -23.3597   -4.2675   14.9786 C   0  0  0  0  0  0  0  0  0  0  0  0
  -28.1334  -20.1466   20.1175 C   0  0  0  0  0  0  0  0  0  0  0  0
  -25.3308   -2.3357   14.5718 C   0  0  0  0  0  0  0  0  0  0  0  0
  -23.0199   -2.9146   14.9743 C   0  0  0  0  0  0  0  0  0  0  0  0
  -22.9426   -8.6257   19.5848 C   0  0  0  0  0  0  0  0  0  0  0  0
  -22.7275   -9.6154   21.5366 C   0  0  0  0  0  0  0  0  0  0  0  0
  -21.1819   -7.6793   21.2031 C   0  0  0  0  0  0  0  0  0  0  0  0
  -28.6154  -32.6210   23.7165 C   0  0  0  0  0  0  0  0  0  0  0  0
  -25.5604  -31.8177   24.4541 C   0  0  0  0  0  0  0  0  0  0  0  0
  -22.9043  -29.7396   23.9310 C   0  0  0  0  0  0  0  0  0  0  0  0
  -25.1982  -14.6700   20.2197 C   0  0  0  0  0  0  0  0  0  0  0  0
  -30.5292  -36.6774   26.1539 C   0  0  0  0  0  0  0  0  0  0  0  0
  -27.5586  -32.5085   21.4303 C   0  0  0  0  0  0  0  0  0  0  0  0
  -26.8641  -30.1530   23.0777 C   0  0  0  0  0  0  0  0  0  0  0  0
  -29.5387  -35.5667   26.4936 C   0  0  0  0  0  0  0  0  0  0  0  0
  -26.7102  -12.1781   22.1757 C   0  0  0  0  0  0  0  0  0  0  0  0
  -30.1187  -34.2040   26.1282 C   0  0  0  0  0  0  0  0  0  0  0  0
  -25.8381  -10.9658   21.8498 C   0  0  0  0  0  0  0  0  0  0  0  0
  -26.8232  -17.6900   21.6292 C   0  0  0  0  0  0  0  0  0  0  0  0
  -28.4451  -16.5348   20.0657 C   0  0  0  0  0  0  0  0  0  0  0  0
  -30.0527  -25.0922   20.3241 C   0  0  0  0  0  0  0  0  0  0  0  0
  -28.0749  -25.3576   21.0552 C   0  0  0  0  0  0  0  0  0  0  0  0
  -26.9918  -13.0307   20.9374 C   0  0  0  0  0  0  0  0  0  0  0  0
  -25.6706  -16.9903   20.9106 C   0  0  0  0  0  0  0  0  0  0  0  0
  -27.2559  -15.8650   19.3810 C   0  0  0  0  0  0  0  0  0  0  0  0
  -24.9034  -12.2343   19.8787 C   0  0  0  0  0  0  0  0  0  0  0  0
  -29.1435  -24.2457   21.2606 C   0  0  0  0  0  0  0  0  0  0  0  0
  -30.3934  -34.1071   24.6227 C   0  0  1  0  0  0  0  0  0  0  0  0
  -27.3321  -32.6194   22.9349 C   0  0  1  0  0  0  0  0  0  0  0  0
  -24.5544  -11.3901   21.1144 C   0  0  1  0  0  0  0  0  0  0  0  0
  -28.0596  -17.8505   20.7439 C   0  0  0  0  0  0  0  0  0  0  0  0
  -29.2306  -26.3321   20.7399 C   0  0  0  0  0  0  0  0  0  1  0  0
  -31.1802  -22.0799   21.2312 C   0  0  0  0  0  0  0  0  0  0  0  0
  -20.5577  -29.3081   24.7086 C   0  0  0  0  0  0  0  0  0  0  0  0
  -24.9056  -22.6455   18.4719 C   0  0  0  0  0  0  0  0  0  0  0  0
  -26.6429  -30.5507   27.0100 C   0  0  0  0  0  0  0  0  0  0  0  0
  -24.4634  -29.3426   27.2514 C   0  0  0  0  0  0  0  0  0  0  0  0
  -24.5175  -31.8360   27.3019 C   0  0  0  0  0  0  0  0  0  0  0  0
  -21.7963  -30.2246   21.2299 C   0  0  0  0  0  0  0  0  0  0  0  0
  -23.4234  -21.1178   19.8151 C   0  0  0  0  0  0  0  0  0  0  0  0
  -24.8956  -30.6322   25.1110 C   0  0  1  0  0  0  0  0  0  0  0  0
  -21.4327  -30.0262   23.6930 C   0  0  2  0  0  0  0  0  0  0  0  0
  -24.7806  -21.8131   19.7413 C   0  0  1  0  0  0  0  0  0  0  0  0
  -25.1455  -30.5875   26.6450 C   0  0  0  0  0  0  0  0  0  0  0  0
  -23.8412   -9.6136   19.5598 N   0  0  0  0  0  0  0  0  0  0  0  0
  -23.6862  -10.1974   20.7604 N   0  0  0  0  0  0  0  0  0  0  0  0
  -26.5109  -31.5288   23.4647 N   0  0  0  0  0  0  0  0  0  0  0  0
  -25.7414  -13.3769   20.2484 N   0  0  0  0  0  0  0  0  0  0  0  0
  -26.1050  -15.7414   20.2856 N   0  0  0  0  0  0  0  0  0  0  0  0
  -22.4430  -10.0765   22.7730 N   0  0  0  0  0  0  0  0  0  0  0  0
  -19.8522   -8.0176   20.9173 N   0  0  0  0  0  0  0  0  0  0  0  0
  -25.8229  -20.8351   19.7552 N   0  0  0  0  0  0  0  0  0  0  0  0
  -29.1619  -33.8771   23.8980 N   0  0  0  0  0  0  0  0  0  0  0  0
  -23.4869  -30.6949   24.7367 N   0  0  0  0  0  0  0  0  0  0  0  0
  -21.0321  -29.5800   22.3287 N   0  3  0  0  0  0  0  0  0  0  0  0
  -21.4254   -6.6150   21.8208 O   0  0  0  0  0  0  0  0  0  0  0  0
  -29.0748  -31.5613   24.1259 O   0  0  0  0  0  0  0  0  0  0  0  0
  -25.2426  -32.9581   24.8007 O   0  0  0  0  0  0  0  0  0  0  0  0
  -23.4786  -28.7637   23.4532 O   0  0  0  0  0  0  0  0  0  0  0  0
  -23.9777  -14.8588   20.1435 O   0  0  0  0  0  0  0  0  0  0  0  0
  -23.3368  -20.3806   21.0293 O   0  0  0  0  0  0  0  0  0  0  0  0
  -22.3822   -5.2276   15.1796 O   0  0  0  0  0  0  0  0  0  0  0  0
  -28.9733  -27.2976   19.7072 O   0  0  0  0  0  0  0  0  0  1  0  0
  -27.8306  -18.8587   19.7618 O   0  0  0  0  0  0  0  0  0  0  0  0
  -26.2770   -1.4083   14.3749 F   0  0  0  0  0  0  0  0  0  0  0  0
  -21.7483   -2.5368   15.1639 F   0  0  0  0  0  0  0  0  0  0  0  0
  1  2  1  0  0  0  0
  1  5  2  0  0  0  0
  2  6  2  0  0  0  0
  3  8  2  0  0  0  0
  3 17  1  0  0  0  0
  4  9  1  0  0  0  0
  4 17  2  0  0  0  0
  5 19  1  0  0  0  0
  6 21  1  0  0  0  0
  7 10  2  0  0  0  0
  7 20  1  0  0  0  0
  8 26  1  0  0  0  0
  9 26  2  0  0  0  0
 10 27  1  0  0  0  0
 11 12  2  0  0  0  0
 11 28  1  0  0  0  0
 12 30  1  0  0  0  0
 13 22  1  0  0  0  0
 13 25  2  0  0  0  0
 14 23  1  0  0  0  0
 14 27  2  0  0  0  0
 15 24  1  0  0  0  0
 15 29  2  0  0  0  0
 16 30  2  0  0  0  0
 16 31  1  0  0  0  0
 17 32  1  0  0  0  0
 18 32  1  0  0  0  0
 18 33  2  0  0  0  0
 18 34  1  0  0  0  0
 19 21  2  0  0  0  0
 19 39  1  0  0  0  0
 20 23  2  0  0  0  0
 20 40  1  0  0  0  0
 21 55  1  0  0  0  0
 22 24  2  0  0  0  0
 22 54  1  0  0  0  0
 23 41  1  0  0  0  0
 24 60  1  0  0  0  0
 25 29  1  0  0  0  0
 25 79  1  0  0  0  0
 26 89  1  0  0  0  0
 27 90  1  0  0  0  0
 28 31  2  0  0  0  0
 28 89  1  0  0  0  0
 29 91  1  0  0  0  0
 30 92  1  0  0  0  0
 31 93  1  0  0  0  0
 32 72  2  0  0  0  0
 33 73  1  0  0  0  0
 33 77  1  0  0  0  0
 34 78  1  0  0  0  0
 34 83  2  0  0  0  0
 35 56  1  0  0  0  0
 35 80  1  0  0  0  0
 35 84  2  0  0  0  0
 36 68  1  0  0  0  0
 36 74  1  0  0  0  0
 36 85  2  0  0  0  0
 37 69  1  0  0  0  0
 37 81  1  0  0  0  0
 37 86  2  0  0  0  0
 38 75  1  0  0  0  0
 38 76  1  0  0  0  0
 38 87  2  0  0  0  0
 39 42  1  0  0  0  0
 40 56  1  0  0  0  0
 41 74  1  0  0  0  0
 42 44  1  0  0  0  0
 43 45  1  0  0  0  0
 43 50  1  0  0  0  0
 44 55  1  0  0  0  0
 45 57  1  0  0  0  0
 46 51  1  0  0  0  0
 46 58  1  0  0  0  0
 47 52  1  0  0  0  0
 47 58  1  0  0  0  0
 48 54  1  0  0  0  0
 48 59  1  0  0  0  0
 49 54  1  0  0  0  0
 49 59  1  0  0  0  0
 50 75  1  0  0  0  0
 51 76  1  0  0  0  0
 52 76  1  0  0  0  0
 53 57  1  0  0  0  0
 53 75  1  0  0  0  0
 55 80  1  0  0  0  0
 56 74  1  0  0  0  0
 57 73  1  0  0  0  0
 58 91  1  0  0  0  0
 59 90  1  0  0  0  0
 61 69  1  0  0  0  0
 62 70  1  0  0  0  0
 63 71  1  0  0  0  0
 64 71  1  0  0  0  0
 65 71  1  0  0  0  0
 66 82  1  0  0  0  0
 67 70  1  0  0  0  0
 67 88  1  0  0  0  0
 68 71  1  0  0  0  0
 68 81  1  0  0  0  0
 69 82  1  0  0  0  0
 70 79  1  0  0  0  0
 72 73  1  0  0  0  0
M  CHG  1  82   1
M  ISO  4  38 100  59 101  76 100  90 101
M  END
> <Batch ID>
0158

> <Smiles>
CNC(C)C(=O)NC(C(=O)N1Cc2cc([101O:1][101CH:1]3CC(c4cc(NC(C)CO)c(OC5CC[100N:0]([100C:0](=O)N6CCCC(n7nc(-c8ccc(Oc9ccc(F)cc9F)cc8)c(C(N)=O)c7N)C6)CC5)cc4C)C3)ccc2CC1C(=O)NC1CCCc2ccccc21)C(C)(C)C

> <Shape>
0.234

> <Color>
0.079

> <Negative vol penalty>
0.000

$$$$

  -OEChem-04052322043D

 86 95  0     1  0  0  0  0  0999 V2000
  -22.4489  -37.1785   17.9113 C   0  0  0  0  0  0  0  0  0  0  0  0
  -22.8547  -35.9723   17.3496 C   0  0  0  0  0  0  0  0  0  0  0  0
  -24.1942   -9.8100   22.1148 C   0  0  0  0  0  0  0  0  0  0  0  0
  -24.1076   -8.9034   19.8771 C   0  0  0  0  0  0  0  0  0  0  0  0
  -22.9274  -37.5586   19.1645 C   0  0  0  0  0  0  0  0  0  0  0  0
  -23.7403  -35.1458   18.0403 C   0  0  0  0  0  0  0  0  0  0  0  0
  -25.2901  -28.2239   19.0413 C   0  0  0  0  0  0  0  0  0  0  0  0
  -23.0489   -9.0887   22.4515 C   0  0  0  0  0  0  0  0  0  0  0  0
  -22.9622   -8.1820   20.2137 C   0  0  0  0  0  0  0  0  0  0  0  0
  -26.3688  -27.3424   18.9839 C   0  0  0  0  0  0  0  0  0  0  0  0
  -22.2644   -5.9076   23.2869 C   0  0  0  0  0  0  0  0  0  0  0  0
  -22.2617   -5.2265   24.5042 C   0  0  0  0  0  0  0  0  0  0  0  0
  -27.0680  -28.0647   21.1767 C   0  0  0  0  0  0  0  0  0  0  0  0
  -32.0166  -24.3402   18.9561 C   0  0  0  0  0  0  0  0  0  0  0  0
  -29.4190  -23.3546   19.2081 C   0  0  0  0  0  0  0  0  0  0  0  0
  -20.3535   -6.5216   25.2245 C   0  0  0  0  0  0  0  0  0  0  0  0
  -24.7236   -9.7175   20.8276 C   0  0  0  0  0  0  0  0  0  0  0  0
  -27.2438  -10.0397   20.5985 C   0  0  0  0  0  0  0  0  0  0  0  0
  -23.8117  -36.7318   19.8752 C   0  0  0  0  0  0  0  0  0  0  0  0
  -25.0982  -29.0416   20.1642 C   0  0  0  0  0  0  0  0  0  0  0  0
  -24.2322  -35.5157   19.3036 C   0  0  0  0  0  0  0  0  0  0  0  0
  -25.9847  -28.9539   21.2470 C   0  0  0  0  0  0  0  0  0  0  0  0
  -30.9279  -25.2026   18.8269 C   0  0  0  0  0  0  0  0  0  0  0  0
  -31.8065  -22.9850   19.2113 C   0  0  0  0  0  0  0  0  0  0  0  0
  -29.6291  -24.7098   18.9529 C   0  0  0  0  0  0  0  0  0  0  0  0
  -22.4329   -8.2747   21.5009 C   0  0  0  0  0  0  0  0  0  0  0  0
  -27.2596  -27.2648   20.0505 C   0  0  0  0  0  0  0  0  0  0  0  0
  -21.3118   -6.8957   23.0384 C   0  0  0  0  0  0  0  0  0  0  0  0
  -30.5077  -22.4923   19.3373 C   0  0  0  0  0  0  0  0  0  0  0  0
  -21.3062   -5.5335   25.4729 C   0  0  0  0  0  0  0  0  0  0  0  0
  -20.3563   -7.2027   24.0072 C   0  0  0  0  0  0  0  0  0  0  0  0
  -25.9064  -10.4628   20.4791 C   0  0  0  0  0  0  0  0  0  0  0  0
  -27.9825  -11.1024   20.1385 C   0  0  0  0  0  0  0  0  0  0  0  0
  -27.7712   -8.7972   21.0820 C   0  0  0  0  0  0  0  0  0  0  0  0
  -25.0394  -32.1791   20.6705 C   0  0  0  0  0  0  0  0  0  0  0  0
  -24.1504  -31.2868   23.6598 C   0  0  0  0  0  0  0  0  0  0  0  0
  -24.1405  -28.8843   26.0836 C   0  0  0  0  0  0  0  0  0  0  0  0
  -29.1638  -16.3298   19.8368 C   0  0  0  0  0  0  0  0  0  0  0  0
  -24.3390  -37.2071   21.2059 C   0  0  0  0  0  0  0  0  0  0  0  0
  -23.9145  -29.9679   20.2220 C   0  0  0  0  0  0  0  0  0  0  0  0
  -25.8114  -29.7955   22.4840 C   0  0  0  0  0  0  0  0  0  0  0  0
  -24.9818  -36.0997   22.0370 C   0  0  0  0  0  0  0  0  0  0  0  0
  -26.5729  -15.2984   17.7048 C   0  0  0  0  0  0  0  0  0  0  0  0
  -25.9275  -35.2673   21.1771 C   0  0  0  0  0  0  0  0  0  0  0  0
  -26.2706  -13.9021   18.2482 C   0  0  0  0  0  0  0  0  0  0  0  0
  -30.3655  -19.3251   18.0115 C   0  0  0  0  0  0  0  0  0  0  0  0
  -28.2362  -19.9128   19.2487 C   0  0  0  0  0  0  0  0  0  0  0  0
  -26.8406  -16.3039   18.8260 C   0  0  0  0  0  0  0  0  0  0  0  0
  -30.5763  -18.1605   18.9778 C   0  0  0  0  0  0  0  0  0  0  0  0
  -28.4976  -18.7378   20.1883 C   0  0  0  0  0  0  0  0  0  0  0  0
  -27.5878  -14.4812   20.3212 C   0  0  0  0  0  0  0  0  0  0  0  0
  -25.1722  -34.5805   20.0328 C   0  0  1  0  0  0  0  0  0  0  0  0
  -24.1080  -31.1246   21.1978 C   0  0  1  0  0  0  0  0  0  0  0  0
  -27.3723  -13.4354   19.2163 C   0  0  1  0  0  0  0  0  0  0  0  0
  -29.5221  -20.4481   18.6163 C   0  0  0  0  0  0  0  0  0  0  0  0
  -31.1769  -26.6493   18.5521 C   0  0  0  0  0  0  0  0  0  0  0  0
  -32.9835  -22.0764   19.3476 C   0  0  0  0  0  0  0  0  0  0  0  0
  -23.3697  -28.4603   28.4338 C   0  0  0  0  0  0  0  0  0  0  0  0
  -26.4410  -33.0024   24.7179 C   0  0  0  0  0  0  0  0  0  0  0  0
  -26.2260  -31.8135   26.9108 C   0  0  0  0  0  0  0  0  0  0  0  0
  -24.3211  -33.1651   26.0348 C   0  0  0  0  0  0  0  0  0  0  0  0
  -22.4074  -26.6408   25.2339 C   0  0  0  0  0  0  0  0  0  0  0  0
  -28.4477  -25.6135   18.8186 C   0  0  0  0  0  0  0  0  0  1  0  0
  -24.8813  -30.9568   24.9388 C   0  0  1  0  0  0  0  0  0  0  0  0
  -23.0251  -28.3397   26.9575 C   0  0  2  0  0  0  0  0  0  0  0  0
  -25.4720  -32.2198   25.6266 C   0  0  0  0  0  0  0  0  0  0  0  0
  -25.7988  -11.6980   19.9823 N   0  0  0  0  0  0  0  0  0  0  0  0
  -27.0779  -12.0602   19.7856 N   0  0  0  0  0  0  0  0  0  0  0  0
  -24.6424  -30.6904   22.4901 N   0  0  0  0  0  0  0  0  0  0  0  0
  -27.8690  -15.7976   19.7446 N   0  0  0  0  0  0  0  0  0  0  0  0
  -29.3108  -17.6966   19.5456 N   0  0  0  0  0  0  0  0  0  0  0  0
  -29.3110  -11.3016   20.0056 N   0  0  0  0  0  0  0  0  0  0  0  0
  -26.8721   -7.8136   21.5161 N   0  0  0  0  0  0  0  0  0  0  0  0
  -24.4555  -33.4229   20.5234 N   0  0  0  0  0  0  0  0  0  0  0  0
  -23.9393  -30.2110   25.7664 N   0  0  0  0  0  0  0  0  0  0  0  0
  -22.7793  -26.9027   26.6481 N   0  3  0  0  0  0  0  0  0  0  0  0
  -29.0037   -8.5723   21.1430 O   0  0  0  0  0  0  0  0  0  0  0  0
  -26.2022  -31.8865   20.4174 O   0  0  0  0  0  0  0  0  0  0  0  0
  -23.1743  -32.0401   23.6981 O   0  0  0  0  0  0  0  0  0  0  0  0
  -25.0966  -28.2021   25.7217 O   0  0  0  0  0  0  0  0  0  0  0  0
  -30.1318  -15.6283   20.1560 O   0  0  0  0  0  0  0  0  0  0  0  0
  -21.3153   -7.5704   21.8291 O   0  0  0  0  0  0  0  0  0  0  0  0
  -30.2835  -21.1639   19.5865 O   0  0  0  0  0  0  0  0  0  0  0  0
  -28.3211  -26.3997   19.9963 O   0  0  0  0  0  0  0  0  0  1  0  0
  -21.3027   -4.8783   26.6412 F   0  0  0  0  0  0  0  0  0  0  0  0
  -19.4378   -8.1502   23.7737 F   0  0  0  0  0  0  0  0  0  0  0  0
  1  2  1  0  0  0  0
  1  5  2  0  0  0  0
  2  6  2  0  0  0  0
  3  8  2  0  0  0  0
  3 17  1  0  0  0  0
  4  9  1  0  0  0  0
  4 17  2  0  0  0  0
  5 19  1  0  0  0  0
  6 21  1  0  0  0  0
  7 10  2  0  0  0  0
  7 20  1  0  0  0  0
  8 26  1  0  0  0  0
  9 26  2  0  0  0  0
 10 27  1  0  0  0  0
 11 12  2  0  0  0  0
 11 28  1  0  0  0  0
 12 30  1  0  0  0  0
 13 22  1  0  0  0  0
 13 27  2  0  0  0  0
 14 23  1  0  0  0  0
 14 24  2  0  0  0  0
 15 25  1  0  0  0  0
 15 29  2  0  0  0  0
 16 30  2  0  0  0  0
 16 31  1  0  0  0  0
 17 32  1  0  0  0  0
 18 32  1  0  0  0  0
 18 33  2  0  0  0  0
 18 34  1  0  0  0  0
 19 21  2  0  0  0  0
 19 39  1  0  0  0  0
 20 22  2  0  0  0  0
 20 40  1  0  0  0  0
 21 52  1  0  0  0  0
 22 41  1  0  0  0  0
 23 25  2  0  0  0  0
 23 56  1  0  0  0  0
 24 29  1  0  0  0  0
 24 57  1  0  0  0  0
 25 63  1  0  0  0  0
 26 82  1  0  0  0  0
 27 84  1  0  0  0  0
 28 31  2  0  0  0  0
 28 82  1  0  0  0  0
 29 83  1  0  0  0  0
 30 85  1  0  0  0  0
 31 86  1  0  0  0  0
 32 67  2  0  0  0  0
 33 68  1  0  0  0  0
 33 72  1  0  0  0  0
 34 73  1  0  0  0  0
 34 77  2  0  0  0  0
 35 53  1  0  0  0  0
 35 74  1  0  0  0  0
 35 78  2  0  0  0  0
 36 64  1  0  0  0  0
 36 69  1  0  0  0  0
 36 79  2  0  0  0  0
 37 65  1  0  0  0  0
 37 75  1  0  0  0  0
 37 80  2  0  0  0  0
 38 70  1  0  0  0  0
 38 71  1  0  0  0  0
 38 81  2  0  0  0  0
 39 42  1  0  0  0  0
 40 53  1  0  0  0  0
 41 69  1  0  0  0  0
 42 44  1  0  0  0  0
 43 45  1  0  0  0  0
 43 48  1  0  0  0  0
 44 52  1  0  0  0  0
 45 54  1  0  0  0  0
 46 49  1  0  0  0  0
 46 55  1  0  0  0  0
 47 50  1  0  0  0  0
 47 55  1  0  0  0  0
 48 70  1  0  0  0  0
 49 71  1  0  0  0  0
 50 71  1  0  0  0  0
 51 54  1  0  0  0  0
 51 70  1  0  0  0  0
 52 74  1  0  0  0  0
 53 69  1  0  0  0  0
 54 68  1  0  0  0  0
 55 83  1  0  0  0  0
 58 65  1  0  0  0  0
 59 66  1  0  0  0  0
 60 66  1  0  0  0  0
 61 66  1  0  0  0  0
 62 76  1  0  0  0  0
 63 84  1  0  0  0  0
 64 66  1  0  0  0  0
 64 75  1  0  0  0  0
 65 76  1  0  0  0  0
 67 68  1  0  0  0  0
M  CHG  1  76   1
M  ISO  4  38 100  63 101  71 100  84 101
M  END
> <Batch ID>
0158

> <Smiles>
CNC(C)C(=O)NC(C(=O)N1Cc2cc([101O:1][101CH2:1]c3cc(OC4CC[100N:0]([100C:0](=O)N5CCCC(n6nc(-c7ccc(Oc8ccc(F)cc8F)cc7)c(C(N)=O)c6N)C5)CC4)c(C)cc3C)ccc2CC1C(=O)NC1CCCc2ccccc21)C(C)(C)C

> <Shape>
0.294

> <Color>
0.125

> <Negative vol penalty>
0.000

$$$$

  -OEChem-04052322043D

 91100  0     1  0  0  0  0  0999 V2000
  -25.4125  -37.5830   19.2912 C   0  0  0  0  0  0  0  0  0  0  0  0
  -26.1725  -36.4243   19.1675 C   0  0  0  0  0  0  0  0  0  0  0  0
  -24.5984   -8.5282   20.5770 C   0  0  0  0  0  0  0  0  0  0  0  0
  -22.8254  -10.1347   20.2414 C   0  0  0  0  0  0  0  0  0  0  0  0
  -24.4717  -37.6923   20.3143 C   0  0  0  0  0  0  0  0  0  0  0  0
  -25.9929  -35.3746   20.0678 C   0  0  0  0  0  0  0  0  0  0  0  0
  -26.4264  -29.3840   18.8718 C   0  0  0  0  0  0  0  0  0  0  0  0
  -23.6719   -7.6081   21.0674 C   0  0  0  0  0  0  0  0  0  0  0  0
  -21.8988   -9.2145   20.7318 C   0  0  0  0  0  0  0  0  0  0  0  0
  -27.4533  -28.4609   19.0645 C   0  0  0  0  0  0  0  0  0  0  0  0
  -22.0085   -7.0472   23.9558 C   0  0  0  0  0  0  0  0  0  0  0  0
  -22.3434   -6.3460   25.1141 C   0  0  0  0  0  0  0  0  0  0  0  0
  -26.4472  -27.7865   21.1507 C   0  0  0  0  0  0  0  0  0  0  0  0
  -24.7998  -21.5205   21.6095 C   0  0  0  0  0  0  0  0  0  0  0  0
  -23.4448  -19.5388   21.8817 C   0  0  0  0  0  0  0  0  0  0  0  0
  -22.1602   -4.2620   23.9055 C   0  0  0  0  0  0  0  0  0  0  0  0
  -24.1752   -9.7916   20.1641 C   0  0  0  0  0  0  0  0  0  0  0  0
  -25.5373  -10.9111   18.3204 C   0  0  0  0  0  0  0  0  0  0  0  0
  -24.2737  -36.6396   21.2217 C   0  0  0  0  0  0  0  0  0  0  0  0
  -25.4064  -29.5231   19.8239 C   0  0  0  0  0  0  0  0  0  0  0  0
  -25.0495  -35.4705   21.1048 C   0  0  0  0  0  0  0  0  0  0  0  0
  -25.4072  -28.7102   20.9664 C   0  0  0  0  0  0  0  0  0  0  0  0
  -25.7025  -20.7963   20.8308 C   0  0  0  0  0  0  0  0  0  0  0  0
  -25.4763  -19.4434   20.5775 C   0  0  0  0  0  0  0  0  0  0  0  0
  -22.3222   -7.9512   21.1447 C   0  0  0  0  0  0  0  0  0  0  0  0
  -27.4654  -27.6640   20.2055 C   0  0  0  0  0  0  0  0  0  0  0  0
  -21.7494   -6.3558   22.7723 C   0  0  0  0  0  0  0  0  0  0  0  0
  -23.6710  -20.8917   22.1350 C   0  0  0  0  0  0  0  0  0  0  0  0
  -24.3474  -18.8147   21.1029 C   0  0  0  0  0  0  0  0  0  0  0  0
  -22.4193   -4.9534   25.0890 C   0  0  0  0  0  0  0  0  0  0  0  0
  -21.8253   -4.9633   22.7472 C   0  0  0  0  0  0  0  0  0  0  0  0
  -25.1319  -10.7428   19.6580 C   0  0  0  0  0  0  0  0  0  0  0  0
  -26.4537  -11.9332   18.3653 C   0  0  0  0  0  0  0  0  0  0  0  0
  -25.1225  -10.2066   17.1425 C   0  0  0  0  0  0  0  0  0  0  0  0
  -24.3928  -31.8829   21.6969 C   0  0  0  0  0  0  0  0  0  0  0  0
  -22.0310  -29.7776   22.4124 C   0  0  0  0  0  0  0  0  0  0  0  0
  -20.9968  -26.5294   22.5761 C   0  0  0  0  0  0  0  0  0  0  0  0
  -27.4731  -16.9024   21.1549 C   0  0  0  0  0  0  0  0  0  0  0  0
  -23.2784  -36.8227   22.3400 C   0  0  0  0  0  0  0  0  0  0  0  0
  -24.2913  -30.5047   19.5883 C   0  0  0  0  0  0  0  0  0  0  0  0
  -24.3244  -28.8065   22.0089 C   0  0  0  0  0  0  0  0  0  0  0  0
  -22.8851  -35.5166   23.0253 C   0  0  0  0  0  0  0  0  0  0  0  0
  -29.2797  -13.9259   21.8987 C   0  0  0  0  0  0  0  0  0  0  0  0
  -24.1238  -34.6814   23.3333 C   0  0  0  0  0  0  0  0  0  0  0  0
  -28.4320  -12.8173   21.2724 C   0  0  0  0  0  0  0  0  0  0  0  0
  -26.4754  -22.6366   19.3465 C   0  0  0  0  0  0  0  0  0  0  0  0
  -27.7798  -22.0292   21.4241 C   0  0  0  0  0  0  0  0  0  0  0  0
  -28.4117  -15.0363   22.4865 C   0  0  0  0  0  0  0  0  0  0  0  0
  -26.5801  -14.5052   20.9254 C   0  0  0  0  0  0  0  0  0  0  0  0
  -27.6768  -23.4197   18.8329 C   0  0  0  0  0  0  0  0  0  0  0  0
  -28.9714  -22.8166   20.8944 C   0  0  0  0  0  0  0  0  0  0  0  0
  -26.9046  -21.4930   20.2797 C   0  0  0  0  0  0  0  0  0  0  0  0
  -24.8662  -34.3004   22.0468 C   0  0  1  0  0  0  0  0  0  0  0  0
  -23.5822  -30.9231   20.8726 C   0  0  1  0  0  0  0  0  0  0  0  0
  -27.4122  -13.3899   20.2696 C   0  0  2  0  0  0  0  0  0  0  0  0
  -26.0969  -18.7021   18.2479 C   0  0  0  0  0  0  0  0  0  0  0  0
  -19.0286  -25.1197   23.2363 C   0  0  0  0  0  0  0  0  0  0  0  0
  -22.7248  -30.1912   25.3547 C   0  0  0  0  0  0  0  0  0  0  0  0
  -21.4305  -28.1135   25.8801 C   0  0  0  0  0  0  0  0  0  0  0  0
  -20.2746  -30.0780   24.8666 C   0  0  0  0  0  0  0  0  0  0  0  0
  -20.6990  -25.4555   19.8344 C   0  0  0  0  0  0  0  0  0  0  0  0
  -23.0817  -22.9779   23.1130 C   0  0  0  0  0  0  0  0  0  0  0  0
  -22.9318  -16.9342   21.4427 C   0  0  0  0  0  0  0  0  0  0  0  0
  -29.6083  -24.8205   19.5552 C   0  0  0  0  0  0  0  0  0  0  0  0
  -29.0627  -26.1969   19.2297 C   0  0  0  0  0  0  0  0  0  1  0  0
  -26.4401  -18.6624   19.7426 C   0  0  2  0  0  0  0  0  0  0  0  0
  -21.8421  -28.6936   23.4459 C   0  0  1  0  0  0  0  0  0  0  0  0
  -19.7245  -25.8522   22.0997 C   0  0  2  0  0  0  0  0  0  0  0  0
  -21.5896  -29.2684   24.8683 C   0  0  0  0  0  0  0  0  0  0  0  0
  -25.7409  -11.5900   20.4918 N   0  0  0  0  0  0  0  0  0  0  0  0
  -26.5384  -12.3004   19.6761 N   0  0  0  0  0  0  0  0  0  0  0  0
  -23.2593  -29.7856   21.7363 N   0  0  0  0  0  0  0  0  0  0  0  0
  -27.4678  -15.5369   21.4844 N   0  0  0  0  0  0  0  0  0  0  0  0
  -27.1872  -12.5445   17.4112 N   0  0  0  0  0  0  0  0  0  0  0  0
  -24.1725   -9.1846   17.2750 N   0  0  0  0  0  0  0  0  0  0  0  0
  -24.1889  -33.2114   21.3761 N   0  0  0  0  0  0  0  0  0  0  0  0
  -20.7705  -27.8376   22.9485 N   0  0  0  0  0  0  0  0  0  0  0  0
  -26.5510  -17.2923   20.1913 N   0  0  0  0  0  0  0  0  0  0  0  0
  -28.4948  -23.9441   19.9980 N   0  3  0  0  0  0  0  0  0  0  0  0
  -20.0332  -24.8670   21.0250 N   0  3  0  0  0  0  0  0  0  0  0  0
  -25.5929  -10.4643   16.0086 O   0  0  0  0  0  0  0  0  0  0  0  0
  -25.1463  -31.4502   22.5610 O   0  0  0  0  0  0  0  0  0  0  0  0
  -21.1195  -30.5831   22.2073 O   0  0  0  0  0  0  0  0  0  0  0  0
  -22.0822  -25.9543   22.6175 O   0  0  0  0  0  0  0  0  0  0  0  0
  -28.2461  -17.7130   21.6768 O   0  0  0  0  0  0  0  0  0  0  0  0
  -21.4178   -7.0535   21.6230 O   0  0  0  0  0  0  0  0  0  0  0  0
  -22.7897  -21.5986   22.8943 O   0  0  0  0  0  0  0  0  0  0  0  0
  -24.1099  -17.4939   20.8662 O   0  0  0  0  0  0  0  0  0  0  0  0
  -28.4669  -26.7627   20.3965 O   0  0  0  0  0  0  0  0  0  1  0  0
  -22.7425   -4.2803   26.2010 F   0  0  0  0  0  0  0  0  0  0  0  0
  -21.5785   -4.2936   21.6129 F   0  0  0  0  0  0  0  0  0  0  0  0
  1  2  1  0  0  0  0
  1  5  2  0  0  0  0
  2  6  2  0  0  0  0
  3  8  2  0  0  0  0
  3 17  1  0  0  0  0
  4  9  1  0  0  0  0
  4 17  2  0  0  0  0
  5 19  1  0  0  0  0
  6 21  1  0  0  0  0
  7 10  2  0  0  0  0
  7 20  1  0  0  0  0
  8 25  1  0  0  0  0
  9 25  2  0  0  0  0
 10 26  1  0  0  0  0
 11 12  2  0  0  0  0
 11 27  1  0  0  0  0
 12 30  1  0  0  0  0
 13 22  1  0  0  0  0
 13 26  2  0  0  0  0
 14 23  1  0  0  0  0
 14 28  2  0  0  0  0
 15 28  1  0  0  0  0
 15 29  2  0  0  0  0
 16 30  2  0  0  0  0
 16 31  1  0  0  0  0
 17 32  1  0  0  0  0
 18 32  1  0  0  0  0
 18 33  2  0  0  0  0
 18 34  1  0  0  0  0
 19 21  2  0  0  0  0
 19 39  1  0  0  0  0
 20 22  2  0  0  0  0
 20 40  1  0  0  0  0
 21 53  1  0  0  0  0
 22 41  1  0  0  0  0
 23 24  2  0  0  0  0
 23 52  1  0  0  0  0
 24 29  1  0  0  0  0
 24 66  1  0  0  0  0
 25 86  1  0  0  0  0
 26 89  1  0  0  0  0
 27 31  2  0  0  0  0
 27 86  1  0  0  0  0
 28 87  1  0  0  0  0
 29 88  1  0  0  0  0
 30 90  1  0  0  0  0
 31 91  1  0  0  0  0
 32 70  2  0  0  0  0
 33 71  1  0  0  0  0
 33 74  1  0  0  0  0
 34 75  1  0  0  0  0
 34 81  2  0  0  0  0
 35 54  1  0  0  0  0
 35 76  1  0  0  0  0
 35 82  2  0  0  0  0
 36 67  1  0  0  0  0
 36 72  1  0  0  0  0
 36 83  2  0  0  0  0
 37 68  1  0  0  0  0
 37 77  1  0  0  0  0
 37 84  2  0  0  0  0
 38 73  1  0  0  0  0
 38 78  1  0  0  0  0
 38 85  2  0  0  0  0
 39 42  1  0  0  0  0
 40 54  1  0  0  0  0
 41 72  1  0  0  0  0
 42 44  1  0  0  0  0
 43 45  1  0  0  0  0
 43 48  1  0  0  0  0
 44 53  1  0  0  0  0
 45 55  1  0  0  0  0
 46 50  1  0  0  0  0
 46 52  1  0  0  0  0
 47 51  1  0  0  0  0
 47 52  1  0  0  0  0
 48 73  1  0  0  0  0
 49 55  1  0  0  0  0
 49 73  1  0  0  0  0
 50 79  1  0  0  0  0
 51 79  1  0  0  0  0
 53 76  1  0  0  0  0
 54 72  1  0  0  0  0
 55 71  1  0  0  0  0
 56 66  1  0  0  0  0
 57 68  1  0  0  0  0
 58 69  1  0  0  0  0
 59 69  1  0  0  0  0
 60 69  1  0  0  0  0
 61 80  1  0  0  0  0
 62 87  1  0  0  0  0
 63 88  1  0  0  0  0
 64 65  1  0  0  0  0
 64 79  1  0  0  0  0
 65 89  1  0  0  0  0
 66 78  1  0  0  0  0
 67 69  1  0  0  0  0
 67 77  1  0  0  0  0
 68 80  1  0  0  0  0
 70 71  1  0  0  0  0
M  CHG  2  79   1  80   1
M  ISO  4  38 100  65 101  78 100  89 101
M  END
> <Batch ID>
0158

> <Smiles>
CNC(C)C(=O)NC(C(=O)N1Cc2cc([101O:1][101CH2:1]CN3CCC(c4cc(OC)cc(OC)c4C(C)[100NH:0][100C:0](=O)N4CCCC(n5nc(-c6ccc(Oc7ccc(F)cc7F)cc6)c(C(N)=O)c5N)C4)CC3)ccc2CC1C(=O)NC1CCCc2ccccc21)C(C)(C)C

> <Shape>
0.281

> <Color>
0.104

> <Negative vol penalty>
0.000

$$$$

  -OEChem-04052322043D

 85 94  0     1  0  0  0  0  0999 V2000
  -16.9256  -29.5499   24.6168 C   0  0  0  0  0  0  0  0  0  0  0  0
  -17.3477  -28.4580   23.8651 C   0  0  0  0  0  0  0  0  0  0  0  0
  -26.4548  -12.1769   21.6376 C   0  0  0  0  0  0  0  0  0  0  0  0
  -25.9269  -13.2915   19.5601 C   0  0  0  0  0  0  0  0  0  0  0  0
  -17.5226  -30.7959   24.4303 C   0  0  0  0  0  0  0  0  0  0  0  0
  -18.3666  -28.6119   22.9256 C   0  0  0  0  0  0  0  0  0  0  0  0
  -22.6539  -24.4996   21.4377 C   0  0  0  0  0  0  0  0  0  0  0  0
  -25.2354  -11.5017   21.5853 C   0  0  0  0  0  0  0  0  0  0  0  0
  -24.7074  -12.6163   19.5077 C   0  0  0  0  0  0  0  0  0  0  0  0
  -22.7587  -23.5934   20.3833 C   0  0  0  0  0  0  0  0  0  0  0  0
  -23.9318   -8.8355   19.9650 C   0  0  0  0  0  0  0  0  0  0  0  0
  -23.9349   -7.4691   20.2450 C   0  0  0  0  0  0  0  0  0  0  0  0
  -26.5858  -21.0931   18.5312 C   0  0  0  0  0  0  0  0  0  0  0  0
  -27.6402  -22.2033   16.1538 C   0  0  0  0  0  0  0  0  0  0  0  0
  -24.1127  -25.1758   19.1659 C   0  0  0  0  0  0  0  0  0  0  0  0
  -22.4231   -7.8441   22.0918 C   0  0  0  0  0  0  0  0  0  0  0  0
  -26.8005  -13.0718   20.6250 C   0  0  0  0  0  0  0  0  0  0  0  0
  -29.2897  -13.3477   20.1394 C   0  0  0  0  0  0  0  0  0  0  0  0
  -18.5559  -30.9630   23.4948 C   0  0  0  0  0  0  0  0  0  0  0  0
  -23.2697  -25.7570   21.3594 C   0  0  0  0  0  0  0  0  0  0  0  0
  -18.9772  -29.8616   22.7254 C   0  0  0  0  0  0  0  0  0  0  0  0
  -27.9196  -21.4613   18.4482 C   0  0  0  0  0  0  0  0  0  0  0  0
  -28.4387  -22.0141   17.2695 C   0  0  0  0  0  0  0  0  0  0  0  0
  -24.0163  -26.0951   20.2217 C   0  0  0  0  0  0  0  0  0  0  0  0
  -25.7765  -21.2684   17.4063 C   0  0  0  0  0  0  0  0  0  0  0  0
  -24.3617  -11.7214   20.5204 C   0  0  0  0  0  0  0  0  0  0  0  0
  -23.4857  -23.9326   19.2460 C   0  0  0  0  0  0  0  0  0  0  0  0
  -23.1744   -9.7063   20.7485 C   0  0  0  0  0  0  0  0  0  0  0  0
  -26.2999  -21.8189   16.2262 C   0  0  0  0  0  0  0  0  0  0  0  0
  -23.1805   -6.9733   21.3084 C   0  0  0  0  0  0  0  0  0  0  0  0
  -22.4200   -9.2105   21.8119 C   0  0  0  0  0  0  0  0  0  0  0  0
  -28.0598  -13.7700   20.6788 C   0  0  0  0  0  0  0  0  0  0  0  0
  -30.1676  -14.3554   20.4560 C   0  0  0  0  0  0  0  0  0  0  0  0
  -29.6099  -12.1515   19.4168 C   0  0  0  0  0  0  0  0  0  0  0  0
  -22.2402  -28.7642   21.3833 C   0  0  0  0  0  0  0  0  0  0  0  0
  -25.4124  -29.4393   21.4447 C   0  0  0  0  0  0  0  0  0  0  0  0
  -28.6014  -28.4382   20.7556 C   0  0  0  0  0  0  0  0  0  0  0  0
  -29.4376  -20.1839   21.6170 C   0  0  0  0  0  0  0  0  0  0  0  0
  -19.1386  -32.3396   23.2948 C   0  0  0  0  0  0  0  0  0  0  0  0
  -23.1695  -26.7128   22.5165 C   0  0  0  0  0  0  0  0  0  0  0  0
  -29.8792  -22.3838   17.4396 C   0  0  0  0  0  0  0  0  0  0  0  0
  -24.7133  -27.4244   20.0968 C   0  0  0  0  0  0  0  0  0  0  0  0
  -20.4682  -32.3353   22.5449 C   0  0  0  0  0  0  0  0  0  0  0  0
  -30.2564  -21.5475   18.6722 C   0  0  0  0  0  0  0  0  0  0  0  0
  -30.9450  -17.7514   23.7354 C   0  0  0  0  0  0  0  0  0  0  0  0
  -20.3850  -31.4355   21.3160 C   0  0  0  0  0  0  0  0  0  0  0  0
  -30.4874  -16.4171   23.1436 C   0  0  0  0  0  0  0  0  0  0  0  0
  -29.8536  -18.8152   23.6394 C   0  0  0  0  0  0  0  0  0  0  0  0
  -28.8479  -17.6853   21.6937 C   0  0  0  0  0  0  0  0  0  0  0  0
  -20.0964  -29.9830   21.7142 C   0  0  1  0  0  0  0  0  0  0  0  0
  -28.9743  -21.4183   19.5144 C   0  0  2  0  0  0  0  0  0  0  0  0
  -23.4081  -28.1649   22.1144 C   0  0  1  0  0  0  0  0  0  0  0  0
  -29.9344  -16.5966   21.7170 C   0  0  2  0  0  0  0  0  0  0  0  0
  -24.1736  -19.3564   17.7332 C   0  0  0  0  0  0  0  0  0  0  0  0
  -30.9824  -29.2207   20.8818 C   0  0  0  0  0  0  0  0  0  0  0  0
  -24.9521  -31.2244   19.0133 C   0  0  0  0  0  0  0  0  0  0  0  0
  -27.4245  -31.2069   18.6195 C   0  0  0  0  0  0  0  0  0  0  0  0
  -26.5057  -32.1756   20.7267 C   0  0  0  0  0  0  0  0  0  0  0  0
  -29.3520  -26.2308   22.5784 C   0  0  0  0  0  0  0  0  0  0  0  0
  -26.1097  -22.5596   13.9743 C   0  0  0  0  0  0  0  0  0  0  0  0
  -23.5470  -21.6618   18.5420 C   0  0  0  0  0  0  0  0  0  1  0  0
  -24.3135  -20.8603   17.4810 C   0  0  1  0  0  0  0  0  0  0  0  0
  -26.4770  -29.6688   20.3993 C   0  0  1  0  0  0  0  0  0  0  0  0
  -29.8686  -28.4661   21.5910 C   0  0  2  0  0  0  0  0  0  0  0  0
  -26.3252  -31.0445   19.6910 C   0  0  0  0  0  0  0  0  0  0  0  0
  -28.1448  -14.9537   21.2917 N   0  0  0  0  0  0  0  0  0  0  0  0
  -29.4387  -15.2838   21.1395 N   0  0  0  0  0  0  0  0  0  0  0  0
  -24.5804  -28.3272   21.2521 N   0  0  0  0  0  0  0  0  0  0  0  0
  -29.3734  -18.9371   22.2608 N   0  0  0  0  0  0  0  0  0  0  0  0
  -31.4842  -14.5291   20.2138 N   0  0  0  0  0  0  0  0  0  0  0  0
  -28.5888  -11.2215   19.1782 N   0  0  0  0  0  0  0  0  0  0  0  0
  -21.2980  -29.3465   22.2096 N   0  0  0  0  0  0  0  0  0  0  0  0
  -27.7575  -29.4815   21.0728 N   0  0  0  0  0  0  0  0  0  0  0  0
  -28.9677  -20.2106   20.3096 N   0  0  0  0  0  0  0  0  0  0  0  0
  -30.3401  -27.0789   21.8633 N   0  3  0  0  0  0  0  0  0  0  0  0
  -30.7708  -11.9067   19.0094 O   0  0  0  0  0  0  0  0  0  0  0  0
  -22.1977  -28.7041   20.1601 O   0  0  0  0  0  0  0  0  0  0  0  0
  -25.3268  -30.2139   22.4009 O   0  0  0  0  0  0  0  0  0  0  0  0
  -28.3837  -27.5791   19.9041 O   0  0  0  0  0  0  0  0  0  0  0  0
  -29.8858  -21.1968   22.1647 O   0  0  0  0  0  0  0  0  0  0  0  0
  -23.1718  -11.0625   20.4688 O   0  0  0  0  0  0  0  0  0  0  0  0
  -25.5025  -21.9946   15.1335 O   0  0  0  0  0  0  0  0  0  0  0  0
  -23.5891  -23.0502   18.2152 O   0  0  0  0  0  0  0  0  0  1  0  0
  -23.1823   -5.6609   21.5761 F   0  0  0  0  0  0  0  0  0  0  0  0
  -21.6895  -10.0420   22.5674 F   0  0  0  0  0  0  0  0  0  0  0  0
  1  2  1  0  0  0  0
  1  5  2  0  0  0  0
  2  6  2  0  0  0  0
  3  8  2  0  0  0  0
  3 17  1  0  0  0  0
  4  9  1  0  0  0  0
  4 17  2  0  0  0  0
  5 19  1  0  0  0  0
  6 21  1  0  0  0  0
  7 10  2  0  0  0  0
  7 20  1  0  0  0  0
  8 26  1  0  0  0  0
  9 26  2  0  0  0  0
 10 27  1  0  0  0  0
 11 12  2  0  0  0  0
 11 28  1  0  0  0  0
 12 30  1  0  0  0  0
 13 22  2  0  0  0  0
 13 25  1  0  0  0  0
 14 23  2  0  0  0  0
 14 29  1  0  0  0  0
 15 24  1  0  0  0  0
 15 27  2  0  0  0  0
 16 30  2  0  0  0  0
 16 31  1  0  0  0  0
 17 32  1  0  0  0  0
 18 32  1  0  0  0  0
 18 33  2  0  0  0  0
 18 34  1  0  0  0  0
 19 21  2  0  0  0  0
 19 39  1  0  0  0  0
 20 24  2  0  0  0  0
 20 40  1  0  0  0  0
 21 50  1  0  0  0  0
 22 23  1  0  0  0  0
 22 51  1  0  0  0  0
 23 41  1  0  0  0  0
 24 42  1  0  0  0  0
 25 29  2  0  0  0  0
 25 62  1  0  0  0  0
 26 81  1  0  0  0  0
 27 83  1  0  0  0  0
 28 31  2  0  0  0  0
 28 81  1  0  0  0  0
 29 82  1  0  0  0  0
 30 84  1  0  0  0  0
 31 85  1  0  0  0  0
 32 66  2  0  0  0  0
 33 67  1  0  0  0  0
 33 70  1  0  0  0  0
 34 71  1  0  0  0  0
 34 76  2  0  0  0  0
 35 52  1  0  0  0  0
 35 72  1  0  0  0  0
 35 77  2  0  0  0  0
 36 63  1  0  0  0  0
 36 68  1  0  0  0  0
 36 78  2  0  0  0  0
 37 64  1  0  0  0  0
 37 73  1  0  0  0  0
 37 79  2  0  0  0  0
 38 69  1  0  0  0  0
 38 74  1  0  0  0  0
 38 80  2  0  0  0  0
 39 43  1  0  0  0  0
 40 52  1  0  0  0  0
 41 44  1  0  0  0  0
 42 68  1  0  0  0  0
 43 46  1  0  0  0  0
 44 51  1  0  0  0  0
 45 47  1  0  0  0  0
 45 48  1  0  0  0  0
 46 50  1  0  0  0  0
 47 53  1  0  0  0  0
 48 69  1  0  0  0  0
 49 53  1  0  0  0  0
 49 69  1  0  0  0  0
 50 72  1  0  0  0  0
 51 74  1  0  0  0  0
 52 68  1  0  0  0  0
 53 67  1  0  0  0  0
 54 62  1  0  0  0  0
 55 64  1  0  0  0  0
 56 65  1  0  0  0  0
 57 65  1  0  0  0  0
 58 65  1  0  0  0  0
 59 75  1  0  0  0  0
 60 82  1  0  0  0  0
 61 62  1  0  0  0  0
 61 83  1  0  0  0  0
 63 65  1  0  0  0  0
 63 73  1  0  0  0  0
 64 75  1  0  0  0  0
 66 67  1  0  0  0  0
M  CHG  1  75   1
M  ISO  4  38 100  61 101  74 100  83 101
M  END
> <Batch ID>
0158

> <Smiles>
CNC(C)C(=O)NC(C(=O)N1Cc2cc([101O:1][101CH2:1]C(C)c3cc4c(cc3OC)CCC4[100NH:0][100C:0](=O)N3CCCC(n4nc(-c5ccc(Oc6ccc(F)cc6F)cc5)c(C(N)=O)c4N)C3)ccc2CC1C(=O)NC1CCCc2ccccc21)C(C)(C)C

> <Shape>
0.278

> <Color>
0.085

> <Negative vol penalty>
0.000

$$$$

  -OEChem-04052322043D

 93103  0     1  0  0  0  0  0999 V2000
  -20.5678  -24.3929   25.0651 C   0  0  0  0  0  0  0  0  0  0  0  0
  -21.9227  -24.5623   24.7989 C   0  0  0  0  0  0  0  0  0  0  0  0
  -22.9432  -11.1822   21.3234 C   0  0  0  0  0  0  0  0  0  0  0  0
  -23.9307   -8.9825   21.1708 C   0  0  0  0  0  0  0  0  0  0  0  0
  -19.6291  -25.2223   24.4528 C   0  0  0  0  0  0  0  0  0  0  0  0
  -22.3397  -25.5606   23.9192 C   0  0  0  0  0  0  0  0  0  0  0  0
  -27.4717  -28.8823   24.2860 C   0  0  0  0  0  0  0  0  0  0  0  0
  -21.6987  -10.6465   20.9923 C   0  0  0  0  0  0  0  0  0  0  0  0
  -22.6862   -8.4468   20.8397 C   0  0  0  0  0  0  0  0  0  0  0  0
  -28.7097  -28.7686   23.6550 C   0  0  0  0  0  0  0  0  0  0  0  0
  -19.8529   -7.5527   22.4502 C   0  0  0  0  0  0  0  0  0  0  0  0
  -19.4651   -6.3751   23.0894 C   0  0  0  0  0  0  0  0  0  0  0  0
  -30.9553  -20.7136   19.7347 C   0  0  0  0  0  0  0  0  0  0  0  0
  -30.1621  -21.5969   21.8388 C   0  0  0  0  0  0  0  0  0  0  0  0
  -28.0054  -30.3738   21.9976 C   0  0  0  0  0  0  0  0  0  0  0  0
  -19.3116   -5.2641   20.9495 C   0  0  0  0  0  0  0  0  0  0  0  0
  -24.0593  -10.3502   21.4126 C   0  0  0  0  0  0  0  0  0  0  0  0
  -25.8890  -11.0576   23.0434 C   0  0  0  0  0  0  0  0  0  0  0  0
  -20.0355  -26.2375   23.5726 C   0  0  0  0  0  0  0  0  0  0  0  0
  -26.4857  -29.7358   23.7705 C   0  0  0  0  0  0  0  0  0  0  0  0
  -21.4055  -26.4035   23.2934 C   0  0  0  0  0  0  0  0  0  0  0  0
  -30.4318  -20.5072   21.0110 C   0  0  0  0  0  0  0  0  0  0  0  0
  -26.7567  -30.4984   22.6255 C   0  0  0  0  0  0  0  0  0  0  0  0
  -30.9396  -23.0996   20.1142 C   0  0  0  0  0  0  0  0  0  0  0  0
  -31.2093  -22.0099   19.2863 C   0  0  0  0  0  0  0  0  0  0  0  0
  -21.5701   -9.2788   20.7505 C   0  0  0  0  0  0  0  0  0  0  0  0
  -28.9757  -29.5122   22.5089 C   0  0  0  0  0  0  0  0  0  0  0  0
  -19.9699   -7.5860   21.0606 C   0  0  0  0  0  0  0  0  0  0  0  0
  -30.4160  -22.8931   21.3905 C   0  0  0  0  0  0  0  0  0  0  0  0
  -19.1945   -5.2308   22.3390 C   0  0  0  0  0  0  0  0  0  0  0  0
  -19.6994   -6.4417   20.3103 C   0  0  0  0  0  0  0  0  0  0  0  0
  -25.3453  -10.9031   21.7541 C   0  0  0  0  0  0  0  0  0  0  0  0
  -27.1217  -11.6248   22.8305 C   0  0  0  0  0  0  0  0  0  0  0  0
  -25.3299  -10.7186   24.3194 C   0  0  0  0  0  0  0  0  0  0  0  0
  -23.5516  -29.3341   22.6158 C   0  0  0  0  0  0  0  0  0  0  0  0
  -23.5470  -32.5775   22.5680 C   0  0  0  0  0  0  0  0  0  0  0  0
  -25.3451  -35.4759   22.4553 C   0  0  0  0  0  0  0  0  0  0  0  0
  -30.4769  -15.1735   20.3463 C   0  0  0  0  0  0  0  0  0  0  0  0
  -18.9809  -27.0787   22.8981 C   0  0  0  0  0  0  0  0  0  0  0  0
  -25.1650  -29.8671   24.4783 C   0  0  0  0  0  0  0  0  0  0  0  0
  -25.7393  -31.4443   22.0436 C   0  0  0  0  0  0  0  0  0  0  0  0
  -19.5313  -28.3555   22.2679 C   0  0  0  0  0  0  0  0  0  0  0  0
  -29.7582  -12.2937   18.5746 C   0  0  0  0  0  0  0  0  0  0  0  0
  -20.7920  -28.0535   21.4640 C   0  0  0  0  0  0  0  0  0  0  0  0
  -28.5899  -11.6765   19.3429 C   0  0  0  0  0  0  0  0  0  0  0  0
  -29.0953  -18.3863   20.6403 C   0  0  0  0  0  0  0  0  0  0  0  0
  -31.4422  -18.2538   21.5805 C   0  0  0  0  0  0  0  0  0  0  0  0
  -29.9048  -25.3038   19.6064 C   0  0  0  0  0  0  0  0  0  0  0  0
  -32.2475  -25.1710   20.5448 C   0  0  0  0  0  0  0  0  0  0  0  0
  -29.6063  -13.8071   18.4739 C   0  0  0  0  0  0  0  0  0  0  0  0
  -28.8465  -16.9529   21.1184 C   0  0  0  0  0  0  0  0  0  0  0  0
  -31.1306  -16.8384   22.0579 C   0  0  0  0  0  0  0  0  0  0  0  0
  -28.3063  -13.8827   20.5768 C   0  0  0  0  0  0  0  0  0  0  0  0
  -30.1582  -26.7511   19.2045 C   0  0  0  0  0  0  0  0  0  0  0  0
  -32.4831  -26.6193   20.1354 C   0  0  0  0  0  0  0  0  0  0  0  0
  -30.1569  -19.0972   21.4988 C   0  0  0  0  0  0  0  0  0  0  0  0
  -31.2091  -24.4914   19.6382 C   0  0  0  0  0  0  0  0  0  0  0  0
  -21.8988  -27.4913   22.3642 C   0  0  1  0  0  0  0  0  0  0  0  0
  -24.0500  -30.3803   23.5722 C   0  0  1  0  0  0  0  0  0  0  0  0
  -28.4127  -12.3504   20.7150 C   0  0  1  0  0  0  0  0  0  0  0  0
  -31.7713  -22.2042   17.9161 C   0  0  0  0  0  0  0  0  0  0  0  0
  -25.0620  -37.9685   22.3900 C   0  0  0  0  0  0  0  0  0  0  0  0
  -22.7569  -32.4083   19.6257 C   0  0  0  0  0  0  0  0  0  0  0  0
  -23.4116  -34.8127   19.3836 C   0  0  0  0  0  0  0  0  0  0  0  0
  -21.5588  -34.1758   20.9277 C   0  0  0  0  0  0  0  0  0  0  0  0
  -26.8044  -35.8249   25.0063 C   0  0  0  0  0  0  0  0  0  0  0  0
  -29.6119  -23.6413   23.4998 C   0  0  0  0  0  0  0  0  0  0  0  0
  -31.3621  -28.8301   19.8702 C   0  0  0  0  0  0  0  0  0  0  0  0
  -30.2126  -29.6080   20.4799 C   0  0  0  0  0  0  0  0  0  1  0  0
  -23.9445  -33.6325   21.5640 C   0  0  1  0  0  0  0  0  0  0  0  0
  -25.2565  -36.7490   23.2775 C   0  0  2  0  0  0  0  0  0  0  0  0
  -22.9366  -33.7381   20.3848 C   0  0  0  0  0  0  0  0  0  0  0  0
  -26.1653  -11.3373   20.7933 N   0  0  0  0  0  0  0  0  0  0  0  0
  -27.2367  -11.7703   21.4793 N   0  0  0  0  0  0  0  0  0  0  0  0
  -24.4607  -31.5330   22.7680 N   0  0  0  0  0  0  0  0  0  0  0  0
  -29.4369  -14.4090   19.7963 N   0  0  0  0  0  0  0  0  0  0  0  0
  -30.1114  -16.2115   21.2166 N   0  0  0  0  0  0  0  0  0  0  0  0
  -28.1075  -12.0084   23.6692 N   0  0  0  0  0  0  0  0  0  0  0  0
  -24.0525  -10.1433   24.3575 N   0  0  0  0  0  0  0  0  0  0  0  0
  -22.5265  -28.5554   23.1180 N   0  0  0  0  0  0  0  0  0  0  0  0
  -24.1142  -34.8700   22.3177 N   0  0  0  0  0  0  0  0  0  0  0  0
  -31.1695  -27.3637   20.1435 N   0  3  0  0  0  0  0  0  0  0  0  0
  -26.5026  -36.9400   24.0723 N   0  3  0  0  0  0  0  0  0  0  0  0
  -25.9381  -10.9350   25.3949 O   0  0  0  0  0  0  0  0  0  0  0  0
  -24.0585  -29.2412   21.5040 O   0  0  0  0  0  0  0  0  0  0  0  0
  -22.4688  -32.6803   23.1584 O   0  0  0  0  0  0  0  0  0  0  0  0
  -26.4002  -35.0626   21.9792 O   0  0  0  0  0  0  0  0  0  0  0  0
  -31.6622  -14.9424   20.0768 O   0  0  0  0  0  0  0  0  0  0  0  0
  -20.3558   -8.7556   20.4276 O   0  0  0  0  0  0  0  0  0  0  0  0
  -30.1453  -23.9453   22.2126 O   0  0  0  0  0  0  0  0  0  0  0  0
  -30.1917  -29.4019   21.8862 O   0  0  0  0  0  0  0  0  0  1  0  0
  -18.8237   -4.0996   22.9531 F   0  0  0  0  0  0  0  0  0  0  0  0
  -19.8113   -6.4673   18.9751 F   0  0  0  0  0  0  0  0  0  0  0  0
  1  2  1  0  0  0  0
  1  5  2  0  0  0  0
  2  6  2  0  0  0  0
  3  8  2  0  0  0  0
  3 17  1  0  0  0  0
  4  9  1  0  0  0  0
  4 17  2  0  0  0  0
  5 19  1  0  0  0  0
  6 21  1  0  0  0  0
  7 10  2  0  0  0  0
  7 20  1  0  0  0  0
  8 26  1  0  0  0  0
  9 26  2  0  0  0  0
 10 27  1  0  0  0  0
 11 12  2  0  0  0  0
 11 28  1  0  0  0  0
 12 30  1  0  0  0  0
 13 22  1  0  0  0  0
 13 25  2  0  0  0  0
 14 22  2  0  0  0  0
 14 29  1  0  0  0  0
 15 23  1  0  0  0  0
 15 27  2  0  0  0  0
 16 30  2  0  0  0  0
 16 31  1  0  0  0  0
 17 32  1  0  0  0  0
 18 32  1  0  0  0  0
 18 33  2  0  0  0  0
 18 34  1  0  0  0  0
 19 21  2  0  0  0  0
 19 39  1  0  0  0  0
 20 23  2  0  0  0  0
 20 40  1  0  0  0  0
 21 58  1  0  0  0  0
 22 56  1  0  0  0  0
 23 41  1  0  0  0  0
 24 25  1  0  0  0  0
 24 29  2  0  0  0  0
 24 57  1  0  0  0  0
 25 61  1  0  0  0  0
 26 89  1  0  0  0  0
 27 91  1  0  0  0  0
 28 31  2  0  0  0  0
 28 89  1  0  0  0  0
 29 90  1  0  0  0  0
 30 92  1  0  0  0  0
 31 93  1  0  0  0  0
 32 73  2  0  0  0  0
 33 74  1  0  0  0  0
 33 78  1  0  0  0  0
 34 79  1  0  0  0  0
 34 84  2  0  0  0  0
 35 59  1  0  0  0  0
 35 80  1  0  0  0  0
 35 85  2  0  0  0  0
 36 70  1  0  0  0  0
 36 75  1  0  0  0  0
 36 86  2  0  0  0  0
 37 71  1  0  0  0  0
 37 81  1  0  0  0  0
 37 87  2  0  0  0  0
 38 76  1  0  0  0  0
 38 77  1  0  0  0  0
 38 88  2  0  0  0  0
 39 42  1  0  0  0  0
 40 59  1  0  0  0  0
 41 75  1  0  0  0  0
 42 44  1  0  0  0  0
 43 45  1  0  0  0  0
 43 50  1  0  0  0  0
 44 58  1  0  0  0  0
 45 60  1  0  0  0  0
 46 51  1  0  0  0  0
 46 56  1  0  0  0  0
 47 52  1  0  0  0  0
 47 56  1  0  0  0  0
 48 54  1  0  0  0  0
 48 57  1  0  0  0  0
 49 55  1  0  0  0  0
 49 57  1  0  0  0  0
 50 76  1  0  0  0  0
 51 77  1  0  0  0  0
 52 77  1  0  0  0  0
 53 60  1  0  0  0  0
 53 76  1  0  0  0  0
 54 82  1  0  0  0  0
 55 82  1  0  0  0  0
 58 80  1  0  0  0  0
 59 75  1  0  0  0  0
 60 74  1  0  0  0  0
 62 71  1  0  0  0  0
 63 72  1  0  0  0  0
 64 72  1  0  0  0  0
 65 72  1  0  0  0  0
 66 83  1  0  0  0  0
 67 90  1  0  0  0  0
 68 69  1  0  0  0  0
 68 82  1  0  0  0  0
 69 91  1  0  0  0  0
 70 72  1  0  0  0  0
 70 81  1  0  0  0  0
 71 83  1  0  0  0  0
 73 74  1  0  0  0  0
M  CHG  2  82   1  83   1
M  ISO  4  38 100  69 101  77 100  91 101
M  END
> <Batch ID>
0158

> <Smiles>
CNC(C)C(=O)NC(C(=O)N1Cc2cc([101O:1][101CH2:1]CN3CCC(c4c(C)cc(C5CC[100N:0]([100C:0](=O)N6CCCC(n7nc(-c8ccc(Oc9ccc(F)cc9F)cc8)c(C(N)=O)c7N)C6)CC5)cc4OC)CC3)ccc2CC1C(=O)NC1CCCc2ccccc21)C(C)(C)C

> <Shape>
0.300

> <Color>
0.120

> <Negative vol penalty>
0.000

$$$$

  -OEChem-04052322043D

 90100  0     1  0  0  0  0  0999 V2000
  -21.7592  -32.6251   14.7698 C   0  0  0  0  0  0  0  0  0  0  0  0
  -22.8016  -31.7931   15.1654 C   0  0  0  0  0  0  0  0  0  0  0  0
  -23.8511   -9.5680   22.0909 C   0  0  0  0  0  0  0  0  0  0  0  0
  -25.1555   -7.6333   21.4644 C   0  0  0  0  0  0  0  0  0  0  0  0
  -21.4663  -33.7721   15.5063 C   0  0  0  0  0  0  0  0  0  0  0  0
  -23.5526  -32.1083   16.2973 C   0  0  0  0  0  0  0  0  0  0  0  0
  -24.3544  -28.0928   19.2769 C   0  0  0  0  0  0  0  0  0  0  0  0
  -22.6771   -8.8499   21.8643 C   0  0  0  0  0  0  0  0  0  0  0  0
  -23.9814   -6.9151   21.2378 C   0  0  0  0  0  0  0  0  0  0  0  0
  -25.3429  -27.1931   18.8805 C   0  0  0  0  0  0  0  0  0  0  0  0
  -21.6534   -5.3044   23.0835 C   0  0  0  0  0  0  0  0  0  0  0  0
  -21.5837   -4.0046   23.5847 C   0  0  0  0  0  0  0  0  0  0  0  0
  -30.3121  -20.6308   21.1234 C   0  0  0  0  0  0  0  0  0  0  0  0
  -26.8773  -28.1976   20.4476 C   0  0  0  0  0  0  0  0  0  0  0  0
  -21.2603   -3.1584   21.3449 C   0  0  0  0  0  0  0  0  0  0  0  0
  -25.0904   -8.9598   21.8908 C   0  0  0  0  0  0  0  0  0  0  0  0
  -27.0235   -9.7959   23.3302 C   0  0  0  0  0  0  0  0  0  0  0  0
  -22.2079  -34.0964   16.6533 C   0  0  0  0  0  0  0  0  0  0  0  0
  -24.6237  -29.0604   20.2555 C   0  0  0  0  0  0  0  0  0  0  0  0
  -23.2702  -33.2615   17.0491 C   0  0  0  0  0  0  0  0  0  0  0  0
  -29.4961  -20.1162   22.1307 C   0  0  0  0  0  0  0  0  0  0  0  0
  -25.8897  -29.1068   20.8565 C   0  0  0  0  0  0  0  0  0  0  0  0
  -29.4319  -22.8419   21.5399 C   0  0  0  0  0  0  0  0  0  0  0  0
  -30.2801  -21.9937   20.8280 C   0  0  0  0  0  0  0  0  0  0  0  0
  -28.6479  -20.9644   22.8426 C   0  0  0  0  0  0  0  0  0  0  0  0
  -22.7422   -7.5234   21.4378 C   0  0  0  0  0  0  0  0  0  0  0  0
  -26.6054  -27.2472   19.4637 C   0  0  0  0  0  0  0  0  0  0  0  0
  -21.5265   -5.5313   21.7130 C   0  0  0  0  0  0  0  0  0  0  0  0
  -28.6157  -22.3272   22.5472 C   0  0  0  0  0  0  0  0  0  0  0  0
  -21.3872   -2.9316   22.7154 C   0  0  0  0  0  0  0  0  0  0  0  0
  -21.3300   -4.4582   20.8438 C   0  0  0  0  0  0  0  0  0  0  0  0
  -26.3036   -9.7013   22.1241 C   0  0  0  0  0  0  0  0  0  0  0  0
  -28.0887  -10.6098   23.0313 C   0  0  0  0  0  0  0  0  0  0  0  0
  -26.7535   -9.2011   24.6065 C   0  0  0  0  0  0  0  0  0  0  0  0
  -24.6509  -32.2383   20.3202 C   0  0  0  0  0  0  0  0  0  0  0  0
  -25.1583  -31.7810   23.4912 C   0  0  0  0  0  0  0  0  0  0  0  0
  -26.2847  -29.7351   25.9796 C   0  0  0  0  0  0  0  0  0  0  0  0
  -30.3277  -15.0132   20.6611 C   0  0  0  0  0  0  0  0  0  0  0  0
  -21.8845  -35.3720   17.3902 C   0  0  0  0  0  0  0  0  0  0  0  0
  -23.5385  -30.0064   20.6912 C   0  0  0  0  0  0  0  0  0  0  0  0
  -26.2234  -30.1134   21.9260 C   0  0  0  0  0  0  0  0  0  0  0  0
  -22.4875  -35.4357   18.7911 C   0  0  0  0  0  0  0  0  0  0  0  0
  -29.8164  -12.2912   18.5929 C   0  0  0  0  0  0  0  0  0  0  0  0
  -23.9511  -35.0070   18.7624 C   0  0  0  0  0  0  0  0  0  0  0  0
  -28.9160  -11.3720   19.4180 C   0  0  0  0  0  0  0  0  0  0  0  0
  -28.4936  -17.8418   21.6371 C   0  0  0  0  0  0  0  0  0  0  0  0
  -30.9539  -18.0442   22.1988 C   0  0  0  0  0  0  0  0  0  0  0  0
  -29.4903  -24.8448   19.7224 C   0  0  0  0  0  0  0  0  0  0  0  0
  -28.0260  -25.1331   21.2354 C   0  0  0  0  0  0  0  0  0  0  0  0
  -29.3964  -13.7483   18.7470 C   0  0  0  0  0  0  0  0  0  0  0  0
  -28.5748  -16.3393   21.9217 C   0  0  0  0  0  0  0  0  0  0  0  0
  -30.9709  -16.5473   22.4945 C   0  0  0  0  0  0  0  0  0  0  0  0
  -28.4768  -13.3136   21.0017 C   0  0  0  0  0  0  0  0  0  0  0  0
  -29.5497  -18.6303   22.4323 C   0  0  0  0  0  0  0  0  0  0  0  0
  -29.3925  -24.3901   21.2069 C   0  0  0  0  0  0  0  0  0  0  0  0
  -24.0918  -33.5564   18.2853 C   0  0  1  0  0  0  0  0  0  0  0  0
  -24.0789  -31.2827   21.3288 C   0  0  1  0  0  0  0  0  0  0  0  0
  -28.8622  -11.8246   20.8879 C   0  0  1  0  0  0  0  0  0  0  0  0
  -28.5437  -26.0129   20.0767 C   0  0  0  0  0  0  0  0  0  1  0  0
  -31.1620  -22.5232   19.7456 C   0  0  0  0  0  0  0  0  0  0  0  0
  -27.7709  -20.4172   23.9236 C   0  0  0  0  0  0  0  0  0  0  0  0
  -26.6069  -29.6518   28.4669 C   0  0  0  0  0  0  0  0  0  0  0  0
  -27.6051  -33.5854   23.2324 C   0  0  0  0  0  0  0  0  0  0  0  0
  -28.3956  -32.7132   25.4421 C   0  0  0  0  0  0  0  0  0  0  0  0
  -26.2427  -33.9648   25.2950 C   0  0  0  0  0  0  0  0  0  0  0  0
  -24.4533  -27.4268   26.2561 C   0  0  0  0  0  0  0  0  0  0  0  0
  -28.3136  -23.7587   24.4222 C   0  0  0  0  0  0  0  0  0  0  0  0
  -26.3776  -31.6172   24.3661 C   0  0  1  0  0  0  0  0  0  0  0  0
  -25.6721  -29.3354   27.3098 C   0  0  2  0  0  0  0  0  0  0  0  0
  -27.1499  -32.9523   24.5624 C   0  0  0  0  0  0  0  0  0  0  0  0
  -26.8640  -10.3995   21.1330 N   0  0  0  0  0  0  0  0  0  0  0  0
  -27.9474  -10.9407   21.7157 N   0  0  0  0  0  0  0  0  0  0  0  0
  -25.1308  -31.0210   22.3134 N   0  0  0  0  0  0  0  0  0  0  0  0
  -29.3539  -14.1384   20.1562 N   0  0  0  0  0  0  0  0  0  0  0  0
  -29.9448  -15.8465   21.7228 N   0  0  0  0  0  0  0  0  0  0  0  0
  -29.1231  -11.0676   23.7681 N   0  0  0  0  0  0  0  0  0  0  0  0
  -25.6166   -8.3924   24.7397 N   0  0  0  0  0  0  0  0  0  0  0  0
  -23.7509  -32.6385   19.3510 N   0  0  0  0  0  0  0  0  0  0  0  0
  -25.9107  -31.0090   25.6073 N   0  0  0  0  0  0  0  0  0  0  0  0
  -25.3802  -27.8741   27.3275 N   0  3  0  0  0  0  0  0  0  0  0  0
  -27.4895   -9.3947   25.6037 O   0  0  0  0  0  0  0  0  0  0  0  0
  -25.8216  -32.5878   20.4151 O   0  0  0  0  0  0  0  0  0  0  0  0
  -24.2600  -32.5495   23.8436 O   0  0  0  0  0  0  0  0  0  0  0  0
  -27.0243  -28.9930   25.3371 O   0  0  0  0  0  0  0  0  0  0  0  0
  -31.4722  -15.0477   20.1919 O   0  0  0  0  0  0  0  0  0  0  0  0
  -21.5967   -6.8222   21.2169 O   0  0  0  0  0  0  0  0  0  0  0  0
  -27.5743  -26.3688   19.0774 O   0  0  0  0  0  0  0  0  0  1  0  0
  -27.7864  -23.1580   23.2418 O   0  0  0  0  0  0  0  0  0  0  0  0
  -21.3218   -1.6833   23.1967 F   0  0  0  0  0  0  0  0  0  0  0  0
  -21.2086   -4.6698   19.5261 F   0  0  0  0  0  0  0  0  0  0  0  0
  1  2  1  0  0  0  0
  1  5  2  0  0  0  0
  2  6  2  0  0  0  0
  3  8  2  0  0  0  0
  3 16  1  0  0  0  0
  4  9  1  0  0  0  0
  4 16  2  0  0  0  0
  5 18  1  0  0  0  0
  6 20  1  0  0  0  0
  7 10  2  0  0  0  0
  7 19  1  0  0  0  0
  8 26  1  0  0  0  0
  9 26  2  0  0  0  0
 10 27  1  0  0  0  0
 11 12  2  0  0  0  0
 11 28  1  0  0  0  0
 12 30  1  0  0  0  0
 13 21  1  0  0  0  0
 13 24  2  0  0  0  0
 14 22  1  0  0  0  0
 14 27  2  0  0  0  0
 15 30  2  0  0  0  0
 15 31  1  0  0  0  0
 16 32  1  0  0  0  0
 17 32  1  0  0  0  0
 17 33  2  0  0  0  0
 17 34  1  0  0  0  0
 18 20  2  0  0  0  0
 18 39  1  0  0  0  0
 19 22  2  0  0  0  0
 19 40  1  0  0  0  0
 20 56  1  0  0  0  0
 21 25  2  0  0  0  0
 21 54  1  0  0  0  0
 22 41  1  0  0  0  0
 23 24  1  0  0  0  0
 23 29  2  0  0  0  0
 23 55  1  0  0  0  0
 24 60  1  0  0  0  0
 25 29  1  0  0  0  0
 25 61  1  0  0  0  0
 26 86  1  0  0  0  0
 27 87  1  0  0  0  0
 28 31  2  0  0  0  0
 28 86  1  0  0  0  0
 29 88  1  0  0  0  0
 30 89  1  0  0  0  0
 31 90  1  0  0  0  0
 32 71  2  0  0  0  0
 33 72  1  0  0  0  0
 33 76  1  0  0  0  0
 34 77  1  0  0  0  0
 34 81  2  0  0  0  0
 35 57  1  0  0  0  0
 35 78  1  0  0  0  0
 35 82  2  0  0  0  0
 36 68  1  0  0  0  0
 36 73  1  0  0  0  0
 36 83  2  0  0  0  0
 37 69  1  0  0  0  0
 37 79  1  0  0  0  0
 37 84  2  0  0  0  0
 38 74  1  0  0  0  0
 38 75  1  0  0  0  0
 38 85  2  0  0  0  0
 39 42  1  0  0  0  0
 40 57  1  0  0  0  0
 41 73  1  0  0  0  0
 42 44  1  0  0  0  0
 43 45  1  0  0  0  0
 43 50  1  0  0  0  0
 44 56  1  0  0  0  0
 45 58  1  0  0  0  0
 46 51  1  0  0  0  0
 46 54  1  0  0  0  0
 47 52  1  0  0  0  0
 47 54  1  0  0  0  0
 48 55  1  0  0  0  0
 48 59  1  0  0  0  0
 49 55  1  0  0  0  0
 49 59  1  0  0  0  0
 50 74  1  0  0  0  0
 51 75  1  0  0  0  0
 52 75  1  0  0  0  0
 53 58  1  0  0  0  0
 53 74  1  0  0  0  0
 56 78  1  0  0  0  0
 57 73  1  0  0  0  0
 58 72  1  0  0  0  0
 59 87  1  0  0  0  0
 62 69  1  0  0  0  0
 63 70  1  0  0  0  0
 64 70  1  0  0  0  0
 65 70  1  0  0  0  0
 66 80  1  0  0  0  0
 67 88  1  0  0  0  0
 68 70  1  0  0  0  0
 68 79  1  0  0  0  0
 69 80  1  0  0  0  0
 71 72  1  0  0  0  0
M  CHG  1  80   1
M  ISO  4  38 100  59 101  75 100  87 101
M  END
> <Batch ID>
0158

> <Smiles>
CNC(C)C(=O)NC(C(=O)N1Cc2cc([101O:1][101CH:1]3CC(c4c(C)cc(C5CC[100N:0]([100C:0](=O)N6CCCC(n7nc(-c8ccc(Oc9ccc(F)cc9F)cc8)c(C(N)=O)c7N)C6)CC5)c(C)c4OC)C3)ccc2CC1C(=O)NC1CCCc2ccccc21)C(C)(C)C

> <Shape>
0.289

> <Color>
0.105

> <Negative vol penalty>
0.000

$$$$

  -OEChem-04052322043D

 86 95  0     1  0  0  0  0  0999 V2000
  -18.8925  -31.2058   23.8724 C   0  0  0  0  0  0  0  0  0  0  0  0
  -20.2651  -31.0424   23.7153 C   0  0  0  0  0  0  0  0  0  0  0  0
  -30.8946  -14.1489   21.0385 C   0  0  0  0  0  0  0  0  0  0  0  0
  -30.0929  -13.8726   23.3008 C   0  0  0  0  0  0  0  0  0  0  0  0
  -18.0295  -30.1458   23.5976 C   0  0  0  0  0  0  0  0  0  0  0  0
  -20.7756  -29.8184   23.2844 C   0  0  0  0  0  0  0  0  0  0  0  0
  -25.6643  -28.9232   19.7059 C   0  0  0  0  0  0  0  0  0  0  0  0
  -32.1272  -13.6118   21.4096 C   0  0  0  0  0  0  0  0  0  0  0  0
  -31.3255  -13.3354   23.6719 C   0  0  0  0  0  0  0  0  0  0  0  0
  -26.9880  -28.5919   19.9919 C   0  0  0  0  0  0  0  0  0  0  0  0
  -33.4395  -10.5480   21.9789 C   0  0  0  0  0  0  0  0  0  0  0  0
  -34.0127   -9.5969   21.1349 C   0  0  0  0  0  0  0  0  0  0  0  0
  -30.3704  -25.0476   18.5896 C   0  0  0  0  0  0  0  0  0  0  0  0
  -26.4887  -26.2678   19.5813 C   0  0  0  0  0  0  0  0  0  0  0  0
  -35.9379  -11.0252   20.8331 C   0  0  0  0  0  0  0  0  0  0  0  0
  -29.8775  -14.2794   21.9840 C   0  0  0  0  0  0  0  0  0  0  0  0
  -27.4821  -14.1350   21.1185 C   0  0  0  0  0  0  0  0  0  0  0  0
  -18.5290  -28.9112   23.1538 C   0  0  0  0  0  0  0  0  0  0  0  0
  -24.7386  -27.9263   19.3655 C   0  0  0  0  0  0  0  0  0  0  0  0
  -19.9186  -28.7405   23.0046 C   0  0  0  0  0  0  0  0  0  0  0  0
  -30.3083  -24.1915   17.4957 C   0  0  0  0  0  0  0  0  0  0  0  0
  -25.1544  -26.5893   19.2889 C   0  0  0  0  0  0  0  0  0  0  0  0
  -30.9522  -26.3028   18.4509 C   0  0  0  0  0  0  0  0  0  0  0  0
  -32.3427  -13.2050   22.7263 C   0  0  0  0  0  0  0  0  0  0  0  0
  -27.3997  -27.2637   19.9324 C   0  0  0  0  0  0  0  0  0  0  0  0
  -34.1154  -11.7377   22.2500 C   0  0  0  0  0  0  0  0  0  0  0  0
  -35.2619   -9.8355   20.5620 C   0  0  0  0  0  0  0  0  0  0  0  0
  -35.3646  -11.9763   21.6772 C   0  0  0  0  0  0  0  0  0  0  0  0
  -28.6042  -14.8347   21.6014 C   0  0  0  0  0  0  0  0  0  0  0  0
  -31.4533  -26.6515   17.2071 C   0  0  0  0  0  0  0  0  0  0  0  0
  -30.8381  -24.6348   16.2946 C   0  0  0  0  0  0  0  0  0  0  0  0
  -26.5371  -15.1081   20.9033 C   0  0  0  0  0  0  0  0  0  0  0  0
  -27.3096  -12.7309   20.8854 C   0  0  0  0  0  0  0  0  0  0  0  0
  -22.0341  -26.8470   20.6399 C   0  0  0  0  0  0  0  0  0  0  0  0
  -21.9176  -25.0761   17.9246 C   0  0  0  0  0  0  0  0  0  0  0  0
  -23.6038  -23.6349   15.3311 C   0  0  0  0  0  0  0  0  0  0  0  0
  -26.7350  -20.8553   19.7303 C   0  0  0  0  0  0  0  0  0  0  0  0
  -17.5605  -27.7800   22.9146 C   0  0  0  0  0  0  0  0  0  0  0  0
  -23.3208  -28.3032   19.0338 C   0  0  0  0  0  0  0  0  0  0  0  0
  -24.2047  -25.4840   18.9086 C   0  0  0  0  0  0  0  0  0  0  0  0
  -18.1540  -26.6315   22.1029 C   0  0  0  0  0  0  0  0  0  0  0  0
  -25.1631  -19.4137   22.4504 C   0  0  0  0  0  0  0  0  0  0  0  0
  -19.5337  -26.2583   22.6358 C   0  0  0  0  0  0  0  0  0  0  0  0
  -25.7495  -18.0032   22.5035 C   0  0  0  0  0  0  0  0  0  0  0  0
  -29.8884  -22.2426   19.0599 C   0  0  0  0  0  0  0  0  0  0  0  0
  -28.1754  -22.8378   17.2933 C   0  0  0  0  0  0  0  0  0  0  0  0
  -26.2404  -20.4404   22.1207 C   0  0  0  0  0  0  0  0  0  0  0  0
  -29.2168  -20.8756   19.2192 C   0  0  0  0  0  0  0  0  0  0  0  0
  -27.5624  -21.4522   17.4747 C   0  0  0  0  0  0  0  0  0  0  0  0
  -27.5621  -18.7543   20.8845 C   0  0  0  0  0  0  0  0  0  0  0  0
  -29.6727  -22.8227   17.6505 C   0  0  0  0  0  0  0  0  0  0  0  0
  -20.5087  -27.4357   22.5154 C   0  0  1  0  0  0  0  0  0  0  0  0
  -22.3405  -27.1461   19.1997 C   0  0  1  0  0  0  0  0  0  0  0  0
  -26.5120  -17.6722   21.2083 C   0  0  1  0  0  0  0  0  0  0  0  0
  -32.0895  -27.9870   17.0000 C   0  0  0  0  0  0  0  0  0  0  0  0
  -23.2426  -22.2192   13.2908 C   0  0  0  0  0  0  0  0  0  0  0  0
  -21.5966  -22.6116   19.6945 C   0  0  0  0  0  0  0  0  0  0  0  0
  -22.1919  -21.1986   17.7153 C   0  0  0  0  0  0  0  0  0  0  0  0
  -20.1482  -22.6276   17.6559 C   0  0  0  0  0  0  0  0  0  0  0  0
  -24.6390  -25.7497   13.5381 C   0  0  0  0  0  0  0  0  0  0  0  0
  -31.0217  -27.2245   19.6192 C   0  0  0  0  0  0  0  0  0  0  0  0
  -29.6869  -27.9153   19.9180 C   0  0  0  0  0  0  0  0  0  1  0  0
  -22.4259  -23.7156   17.5129 C   0  0  1  0  0  0  0  0  0  0  0  0
  -23.3428  -23.6354   13.8356 C   0  0  2  0  0  0  0  0  0  0  0  0
  -21.6083  -22.5587   18.1538 C   0  0  0  0  0  0  0  0  0  0  0  0
  -28.3931  -16.1508   21.6879 N   0  0  0  0  0  0  0  0  0  0  0  0
  -31.4111  -25.8470   16.1215 N   0  0  0  0  0  0  0  0  0  0  0  0
  -27.1276  -16.2858   21.2563 N   0  0  0  0  0  0  0  0  0  0  0  0
  -22.8274  -25.9024   18.5994 N   0  0  0  0  0  0  0  0  0  0  0  0
  -26.9434  -20.0891   20.8870 N   0  0  0  0  0  0  0  0  0  0  0  0
  -27.8029  -20.9427   18.8245 N   0  0  0  0  0  0  0  0  0  0  0  0
  -30.7769  -23.7661   15.1763 N   0  0  0  0  0  0  0  0  0  0  0  0
  -25.2669  -15.0628   20.4485 N   0  0  0  0  0  0  0  0  0  0  0  0
  -28.3821  -11.8713   21.1597 N   0  0  0  0  0  0  0  0  0  0  0  0
  -20.9732  -27.5698   21.1513 N   0  0  0  0  0  0  0  0  0  0  0  0
  -22.4318  -23.7063   16.0540 N   0  0  0  0  0  0  0  0  0  0  0  0
  -24.4438  -24.3382   13.1180 N   0  3  0  0  0  0  0  0  0  0  0  0
  -26.2416  -12.2545   20.4313 O   0  0  0  0  0  0  0  0  0  0  0  0
  -22.7092  -26.0204   21.2422 O   0  0  0  0  0  0  0  0  0  0  0  0
  -20.7583  -25.3968   17.6509 O   0  0  0  0  0  0  0  0  0  0  0  0
  -24.7340  -23.5732   15.8100 O   0  0  0  0  0  0  0  0  0  0  0  0
  -25.6584  -21.4272   19.5182 O   0  0  0  0  0  0  0  0  0  0  0  0
  -33.5452  -12.6806   23.0888 O   0  0  0  0  0  0  0  0  0  0  0  0
  -28.7001  -26.9352   20.2137 O   0  0  0  0  0  0  0  0  0  1  0  0
  -35.8130   -8.9214   19.7527 F   0  0  0  0  0  0  0  0  0  0  0  0
  -36.0192  -13.1168   21.9348 F   0  0  0  0  0  0  0  0  0  0  0  0
  1  2  1  0  0  0  0
  1  5  2  0  0  0  0
  2  6  2  0  0  0  0
  3  8  2  0  0  0  0
  3 16  1  0  0  0  0
  4  9  1  0  0  0  0
  4 16  2  0  0  0  0
  5 18  1  0  0  0  0
  6 20  1  0  0  0  0
  7 10  2  0  0  0  0
  7 19  1  0  0  0  0
  8 24  1  0  0  0  0
  9 24  2  0  0  0  0
 10 25  1  0  0  0  0
 11 12  2  0  0  0  0
 11 26  1  0  0  0  0
 12 27  1  0  0  0  0
 13 21  2  0  0  0  0
 13 23  1  0  0  0  0
 14 22  1  0  0  0  0
 14 25  2  0  0  0  0
 15 27  2  0  0  0  0
 15 28  1  0  0  0  0
 16 29  1  0  0  0  0
 17 29  1  0  0  0  0
 17 32  2  0  0  0  0
 17 33  1  0  0  0  0
 18 20  2  0  0  0  0
 18 38  1  0  0  0  0
 19 22  2  0  0  0  0
 19 39  1  0  0  0  0
 20 52  1  0  0  0  0
 21 31  1  0  0  0  0
 21 51  1  0  0  0  0
 22 40  1  0  0  0  0
 23 30  2  0  0  0  0
 23 61  1  0  0  0  0
 24 83  1  0  0  0  0
 25 84  1  0  0  0  0
 26 28  2  0  0  0  0
 26 83  1  0  0  0  0
 27 85  1  0  0  0  0
 28 86  1  0  0  0  0
 29 66  2  0  0  0  0
 30 55  1  0  0  0  0
 30 67  1  0  0  0  0
 31 67  2  0  0  0  0
 31 72  1  0  0  0  0
 32 68  1  0  0  0  0
 32 73  1  0  0  0  0
 33 74  1  0  0  0  0
 33 78  2  0  0  0  0
 34 53  1  0  0  0  0
 34 75  1  0  0  0  0
 34 79  2  0  0  0  0
 35 63  1  0  0  0  0
 35 69  1  0  0  0  0
 35 80  2  0  0  0  0
 36 64  1  0  0  0  0
 36 76  1  0  0  0  0
 36 81  2  0  0  0  0
 37 70  1  0  0  0  0
 37 71  1  0  0  0  0
 37 82  2  0  0  0  0
 38 41  1  0  0  0  0
 39 53  1  0  0  0  0
 40 69  1  0  0  0  0
 41 43  1  0  0  0  0
 42 44  1  0  0  0  0
 42 47  1  0  0  0  0
 43 52  1  0  0  0  0
 44 54  1  0  0  0  0
 45 48  1  0  0  0  0
 45 51  1  0  0  0  0
 46 49  1  0  0  0  0
 46 51  1  0  0  0  0
 47 70  1  0  0  0  0
 48 71  1  0  0  0  0
 49 71  1  0  0  0  0
 50 54  1  0  0  0  0
 50 70  1  0  0  0  0
 52 75  1  0  0  0  0
 53 69  1  0  0  0  0
 54 68  1  0  0  0  0
 56 64  1  0  0  0  0
 57 65  1  0  0  0  0
 58 65  1  0  0  0  0
 59 65  1  0  0  0  0
 60 77  1  0  0  0  0
 61 62  1  0  0  0  0
 62 84  1  0  0  0  0
 63 65  1  0  0  0  0
 63 76  1  0  0  0  0
 64 77  1  0  0  0  0
 66 68  1  0  0  0  0
M  CHG  1  77   1
M  ISO  4  37 100  62 101  71 100  84 101
M  END
> <Batch ID>
0158

> <Smiles>
CNC(C)C(=O)NC(C(=O)N1Cc2cc([101O:1][101CH2:1]Cc3cc(C4CC[100N:0]([100C:0](=O)N5CCCC(n6nc(-c7ccc(Oc8ccc(F)cc8F)cc7)c(C(N)=O)c6N)C5)CC4)c(N)nc3C)ccc2CC1C(=O)NC1CCCc2ccccc21)C(C)(C)C

> <Shape>
0.218

> <Color>
0.094

> <Negative vol penalty>
0.000

$$$$

  -OEChem-04052322043D

 95105  0     1  0  0  0  0  0999 V2000
  -18.3899  -26.3816   19.9684 C   0  0  0  0  0  0  0  0  0  0  0  0
  -19.5614  -26.9033   19.4289 C   0  0  0  0  0  0  0  0  0  0  0  0
  -23.8795   -9.6963   22.1208 C   0  0  0  0  0  0  0  0  0  0  0  0
  -22.6019   -9.8385   20.0751 C   0  0  0  0  0  0  0  0  0  0  0  0
  -17.7820  -27.0125   21.0530 C   0  0  0  0  0  0  0  0  0  0  0  0
  -20.1249  -28.0569   19.9730 C   0  0  0  0  0  0  0  0  0  0  0  0
  -25.1397  -27.6756   20.5661 C   0  0  0  0  0  0  0  0  0  0  0  0
  -23.4742   -8.3714   22.2818 C   0  0  0  0  0  0  0  0  0  0  0  0
  -22.1967   -8.5136   20.2361 C   0  0  0  0  0  0  0  0  0  0  0  0
  -25.9294  -27.8352   19.4282 C   0  0  0  0  0  0  0  0  0  0  0  0
  -20.7272   -6.7203   23.3552 C   0  0  0  0  0  0  0  0  0  0  0  0
  -20.3035   -6.3226   24.6232 C   0  0  0  0  0  0  0  0  0  0  0  0
  -26.3974  -30.1103   20.0795 C   0  0  0  0  0  0  0  0  0  0  0  0
  -29.9025  -22.3243   20.8084 C   0  0  0  0  0  0  0  0  0  0  0  0
  -22.0601   -4.6652   24.6904 C   0  0  0  0  0  0  0  0  0  0  0  0
  -27.1875  -22.0520   20.8224 C   0  0  0  0  0  0  0  0  0  0  0  0
  -23.4433  -10.4299   21.0175 C   0  0  0  0  0  0  0  0  0  0  0  0
  -25.0028  -12.2622   20.1699 C   0  0  0  0  0  0  0  0  0  0  0  0
  -18.3436  -28.1690   21.6167 C   0  0  0  0  0  0  0  0  0  0  0  0
  -24.9638  -28.7374   21.4650 C   0  0  0  0  0  0  0  0  0  0  0  0
  -19.5232  -28.7046   21.0653 C   0  0  0  0  0  0  0  0  0  0  0  0
  -25.6070  -29.9608   21.2293 C   0  0  0  0  0  0  0  0  0  0  0  0
  -27.9521  -21.0320   21.3653 C   0  0  0  0  0  0  0  0  0  0  0  0
  -22.6329   -7.7800   21.3395 C   0  0  0  0  0  0  0  0  0  0  0  0
  -26.5560  -29.0536   19.1833 C   0  0  0  0  0  0  0  0  0  0  0  0
  -21.8174   -6.0905   22.7547 C   0  0  0  0  0  0  0  0  0  0  0  0
  -29.3347  -21.1785   21.3543 C   0  0  0  0  0  0  0  0  0  0  0  0
  -20.9699   -5.2950   25.2908 C   0  0  0  0  0  0  0  0  0  0  0  0
  -22.4839   -5.0630   23.4223 C   0  0  0  0  0  0  0  0  0  0  0  0
  -23.8612  -11.7987   20.8509 C   0  0  0  0  0  0  0  0  0  0  0  0
  -29.0506  -23.2864   20.2902 C   0  0  0  0  0  0  0  0  0  0  0  0
  -24.9480  -13.6286   20.2981 C   0  0  0  0  0  0  0  0  0  0  0  0
  -26.0216  -11.5236   19.4827 C   0  0  0  0  0  0  0  0  0  0  0  0
  -22.4699  -30.4251   22.4828 C   0  0  0  0  0  0  0  0  0  0  0  0
  -24.6628  -31.7242   24.4892 C   0  0  0  0  0  0  0  0  0  0  0  0
  -27.9377  -32.4368   25.1326 C   0  0  0  0  0  0  0  0  0  0  0  0
  -24.1612  -17.9666   23.8605 C   0  0  0  0  0  0  0  0  0  0  0  0
  -17.6245  -28.8428   22.7585 C   0  0  0  0  0  0  0  0  0  0  0  0
  -24.1304  -28.5408   22.7017 C   0  0  0  0  0  0  0  0  0  0  0  0
  -25.4667  -31.1255   22.1739 C   0  0  0  0  0  0  0  0  0  0  0  0
  -18.4894  -29.8482   23.5144 C   0  0  0  0  0  0  0  0  0  0  0  0
  -21.2662  -16.6612   21.9632 C   0  0  0  0  0  0  0  0  0  0  0  0
  -19.2339  -30.7527   22.5374 C   0  0  0  0  0  0  0  0  0  0  0  0
  -21.7590  -15.2866   21.5113 C   0  0  0  0  0  0  0  0  0  0  0  0
  -29.2392  -24.6364   18.2096 C   0  0  0  0  0  0  0  0  0  0  0  0
  -29.1404  -25.7658   20.4682 C   0  0  0  0  0  0  0  0  0  0  0  0
  -21.9286  -17.1027   23.2653 C   0  0  0  0  0  0  0  0  0  0  0  0
  -27.5554  -19.5681   23.3137 C   0  0  0  0  0  0  0  0  0  0  0  0
  -26.2096  -19.3145   23.9840 C   0  0  0  0  0  0  0  0  0  0  0  0
  -23.9022  -15.6998   22.7789 C   0  0  0  0  0  0  0  0  0  0  0  0
  -25.8649  -17.8984   21.9708 C   0  0  0  0  0  0  0  0  0  0  0  0
  -29.7413  -25.9356   17.5927 C   0  0  0  0  0  0  0  0  0  0  0  0
  -29.6435  -27.0563   19.8342 C   0  0  0  0  0  0  0  0  0  0  0  0
  -20.1784  -29.9401   21.6435 C   0  0  1  0  0  0  0  0  0  0  0  0
  -29.6252  -24.5281   19.6945 C   0  0  0  0  0  0  0  0  0  0  0  0
  -23.6047  -29.8499   23.2822 C   0  0  1  0  0  0  0  0  0  0  0  0
  -23.2960  -15.2499   21.4418 C   0  0  1  0  0  0  0  0  0  0  0  0
  -26.3917  -19.0790   21.1304 C   0  0  2  0  0  0  0  0  0  0  0  0
  -27.0545  -18.5075   19.8710 C   0  0  0  0  0  0  0  0  0  0  0  0
  -31.3515  -18.1924   21.4351 C   0  0  0  0  0  0  0  0  0  0  0  0
  -29.4164  -33.5392   26.8342 C   0  0  0  0  0  0  0  0  0  0  0  0
  -28.9955  -30.9084   17.6636 C   0  0  0  0  0  0  0  0  0  0  0  0
  -23.7837  -34.4642   23.4744 C   0  0  0  0  0  0  0  0  0  0  0  0
  -25.8782  -35.4224   24.4559 C   0  0  0  0  0  0  0  0  0  0  0  0
  -24.1870  -34.3450   25.9397 C   0  0  0  0  0  0  0  0  0  0  0  0
  -29.4039  -29.9205   25.6592 C   0  0  0  0  0  0  0  0  0  0  0  0
  -29.5750  -28.4182   17.7472 C   0  0  0  0  0  0  0  0  0  0  0  0
  -31.0861  -19.6129   20.9839 C   0  0  0  0  0  0  0  0  0  0  0  0
  -25.6058  -32.9013   24.4248 C   0  0  1  0  0  0  0  0  0  0  0  0
  -28.7879  -32.2332   26.3736 C   0  0  2  0  0  0  0  0  0  0  0  0
  -28.7003  -29.5478   18.2813 C   0  0  2  0  0  0  0  0  0  1  0  0
  -24.8650  -34.2621   24.5547 C   0  0  0  0  0  0  0  0  0  0  0  0
  -27.7029  -23.1795   20.2832 N   0  0  0  0  0  0  0  0  0  0  0  0
  -23.1344  -12.7902   21.3731 N   0  0  0  0  0  0  0  0  0  0  0  0
  -23.8209  -13.8903   21.0203 N   0  0  0  0  0  0  0  0  0  0  0  0
  -27.3419  -19.9006   21.9039 N   0  0  3  0  0  0  0  0  0  0  0  0
  -24.6363  -30.8858   23.3658 N   0  0  0  0  0  0  0  0  0  0  0  0
  -23.3865  -17.0163   23.1791 N   0  0  0  0  0  0  0  0  0  0  0  0
  -25.4012  -18.3118   23.2986 N   0  0  0  0  0  0  0  0  0  0  0  0
  -25.7544  -14.6197   19.8625 N   0  0  0  0  0  0  0  0  0  0  0  0
  -25.9246  -10.1259   19.4471 N   0  0  0  0  0  0  0  0  0  0  0  0
  -21.3792  -29.5844   22.3686 N   0  0  0  0  0  0  0  0  0  0  0  0
  -26.6168  -32.6710   25.4511 N   0  0  0  0  0  0  0  0  0  0  0  0
  -29.2139  -27.1060   18.3875 N   0  3  0  0  0  0  0  0  0  0  0  0
  -29.8801  -31.2572   26.0989 N   0  3  0  0  0  0  0  0  0  0  0  0
  -26.9982  -12.0855   18.9312 O   0  0  0  0  0  0  0  0  0  0  0  0
  -22.5755  -31.5491   22.0061 O   0  0  0  0  0  0  0  0  0  0  0  0
  -23.9802  -31.5509   25.5020 O   0  0  0  0  0  0  0  0  0  0  0  0
  -28.3999  -32.3960   23.9945 O   0  0  0  0  0  0  0  0  0  0  0  0
  -23.7600  -18.4938   24.9064 O   0  0  0  0  0  0  0  0  0  0  0  0
  -22.2374   -6.4871   21.4962 O   0  0  0  0  0  0  0  0  0  0  0  0
  -30.1460  -20.2144   21.8719 O   0  0  0  0  0  0  0  0  0  0  0  0
  -27.3313  -29.2131   18.0666 O   0  0  0  0  0  0  0  0  0  1  0  0
  -20.5638   -4.9142   26.5091 F   0  0  0  0  0  0  0  0  0  0  0  0
  -23.5326   -4.4550   22.8511 F   0  0  0  0  0  0  0  0  0  0  0  0
  1  2  1  0  0  0  0
  1  5  2  0  0  0  0
  2  6  2  0  0  0  0
  3  8  2  0  0  0  0
  3 17  1  0  0  0  0
  4  9  1  0  0  0  0
  4 17  2  0  0  0  0
  5 19  1  0  0  0  0
  6 21  1  0  0  0  0
  7 10  2  0  0  0  0
  7 20  1  0  0  0  0
  8 24  1  0  0  0  0
  9 24  2  0  0  0  0
 10 25  1  0  0  0  0
 11 12  2  0  0  0  0
 11 26  1  0  0  0  0
 12 28  1  0  0  0  0
 13 22  1  0  0  0  0
 13 25  2  0  0  0  0
 14 27  1  0  0  0  0
 14 31  2  0  0  0  0
 15 28  2  0  0  0  0
 15 29  1  0  0  0  0
 16 23  1  0  0  0  0
 16 73  2  0  0  0  0
 17 30  1  0  0  0  0
 18 30  1  0  0  0  0
 18 32  2  0  0  0  0
 18 33  1  0  0  0  0
 19 21  2  0  0  0  0
 19 38  1  0  0  0  0
 20 22  2  0  0  0  0
 20 39  1  0  0  0  0
 21 54  1  0  0  0  0
 22 40  1  0  0  0  0
 23 27  2  0  0  0  0
 23 76  1  0  0  0  0
 24 91  1  0  0  0  0
 25 93  1  0  0  0  0
 26 29  2  0  0  0  0
 26 91  1  0  0  0  0
 27 92  1  0  0  0  0
 28 94  1  0  0  0  0
 29 95  1  0  0  0  0
 30 74  2  0  0  0  0
 31 55  1  0  0  0  0
 31 73  1  0  0  0  0
 32 75  1  0  0  0  0
 32 80  1  0  0  0  0
 33 81  1  0  0  0  0
 33 86  2  0  0  0  0
 34 56  1  0  0  0  0
 34 82  1  0  0  0  0
 34 87  2  0  0  0  0
 35 69  1  0  0  0  0
 35 77  1  0  0  0  0
 35 88  2  0  0  0  0
 36 70  1  0  0  0  0
 36 83  1  0  0  0  0
 36 89  2  0  0  0  0
 37 78  1  0  0  0  0
 37 79  1  0  0  0  0
 37 90  2  0  0  0  0
 38 41  1  0  0  0  0
 39 56  1  0  0  0  0
 40 77  1  0  0  0  0
 41 43  1  0  0  0  0
 42 44  1  0  0  0  0
 42 47  1  0  0  0  0
 43 54  1  0  0  0  0
 44 57  1  0  0  0  0
 45 52  1  0  0  0  0
 45 55  1  0  0  0  0
 46 53  1  0  0  0  0
 46 55  1  0  0  0  0
 47 78  1  0  0  0  0
 48 49  1  0  0  0  0
 48 76  1  0  0  0  0
 49 79  1  0  0  0  0
 50 57  1  0  0  0  0
 50 78  1  0  0  0  0
 51 58  1  0  0  0  0
 51 79  1  0  0  0  0
 52 84  1  0  0  0  0
 53 84  1  0  0  0  0
 54 82  1  0  0  0  0
 56 77  1  0  0  0  0
 57 75  1  0  0  0  0
 58 59  1  0  0  0  0
 58 76  1  0  0  0  0
 60 68  1  0  0  0  0
 61 70  1  0  0  0  0
 62 71  1  0  0  0  0
 63 72  1  0  0  0  0
 64 72  1  0  0  0  0
 65 72  1  0  0  0  0
 66 85  1  0  0  0  0
 67 71  1  0  0  0  0
 67 84  1  0  0  0  0
 68 92  1  0  0  0  0
 69 72  1  0  0  0  0
 69 83  1  0  0  0  0
 70 85  1  0  0  0  0
 71 93  1  0  0  0  0
 74 75  1  0  0  0  0
M  CHG  2  84   1  85   1
M  ISO  4  37 100  71 101  79 100  93 101
M  END
> <Batch ID>
0158

> <Smiles>
CCOc1cc(C2CCN(C[101CH:1](C)[101O:1]c3ccc4c(c3)CN(C(=O)C(NC(=O)C(C)NC)C(C)(C)C)C(C(=O)NC3CCCc5ccccc53)C4)CC2)ncc1N1CC[100N:0]([100C:0](=O)N2CCCC(n3nc(-c4ccc(Oc5ccc(F)cc5F)cc4)c(C(N)=O)c3N)C2)CC1C

> <Shape>
0.355

> <Color>
0.100

> <Negative vol penalty>
0.000

$$$$

  -OEChem-04052322043D

 90 99  0     1  0  0  0  0  0999 V2000
  -30.1368  -25.7616   17.0917 C   0  0  0  0  0  0  0  0  0  0  0  0
  -28.7502  -25.8698   17.1258 C   0  0  0  0  0  0  0  0  0  0  0  0
  -25.0365  -14.0694   19.7910 C   0  0  0  0  0  0  0  0  0  0  0  0
  -24.7675  -13.4334   22.1062 C   0  0  0  0  0  0  0  0  0  0  0  0
  -30.8885  -26.0901   18.2191 C   0  0  0  0  0  0  0  0  0  0  0  0
  -28.1145  -26.3056   18.2878 C   0  0  0  0  0  0  0  0  0  0  0  0
  -23.0391  -29.7137   18.6505 C   0  0  0  0  0  0  0  0  0  0  0  0
  -25.2094  -12.7298   19.4431 C   0  0  0  0  0  0  0  0  0  0  0  0
  -24.9404  -12.0937   21.7583 C   0  0  0  0  0  0  0  0  0  0  0  0
  -21.7017  -29.3846   18.8666 C   0  0  0  0  0  0  0  0  0  0  0  0
  -23.0881   -9.6164   20.3973 C   0  0  0  0  0  0  0  0  0  0  0  0
  -22.2087   -8.6859   20.9508 C   0  0  0  0  0  0  0  0  0  0  0  0
  -21.9705  -29.8603   21.2162 C   0  0  0  0  0  0  0  0  0  0  0  0
  -24.0696  -25.3988   24.7472 C   0  0  0  0  0  0  0  0  0  0  0  0
  -24.0692   -7.5419   21.9838 C   0  0  0  0  0  0  0  0  0  0  0  0
  -24.8156  -14.4212   21.1227 C   0  0  0  0  0  0  0  0  0  0  0  0
  -23.4259  -16.5196   21.5387 C   0  0  0  0  0  0  0  0  0  0  0  0
  -30.2622  -26.5393   19.3923 C   0  0  0  0  0  0  0  0  0  0  0  0
  -23.8565  -30.1089   19.7192 C   0  0  0  0  0  0  0  0  0  0  0  0
  -28.8584  -26.6392   19.4324 C   0  0  0  0  0  0  0  0  0  0  0  0
  -23.3173  -30.1964   21.0106 C   0  0  0  0  0  0  0  0  0  0  0  0
  -25.1614  -11.7420   20.4266 C   0  0  0  0  0  0  0  0  0  0  0  0
  -21.1679  -29.4550   20.1500 C   0  0  0  0  0  0  0  0  0  0  0  0
  -24.4581   -9.5096   20.6370 C   0  0  0  0  0  0  0  0  0  0  0  0
  -24.9871  -24.6690   25.5426 C   0  0  0  0  0  0  0  0  0  0  0  0
  -22.6992   -7.6487   21.7441 C   0  0  0  0  0  0  0  0  0  0  0  0
  -24.9486   -8.4724   21.4302 C   0  0  0  0  0  0  0  0  0  0  0  0
  -24.6374  -15.8049   21.4828 C   0  0  0  0  0  0  0  0  0  0  0  0
  -22.9829  -24.5834   24.5199 C   0  0  0  0  0  0  0  0  0  0  0  0
  -24.4332  -23.4297   25.7770 C   0  0  0  0  0  0  0  0  0  0  0  0
  -23.7912  -17.7846   21.9295 C   0  0  0  0  0  0  0  0  0  0  0  0
  -22.0897  -16.0794   21.2620 C   0  0  0  0  0  0  0  0  0  0  0  0
  -26.4946  -28.9596   21.0697 C   0  0  0  0  0  0  0  0  0  0  0  0
  -26.3506  -31.7124   22.7797 C   0  0  0  0  0  0  0  0  0  0  0  0
  -24.4473  -34.2686   24.0004 C   0  0  0  0  0  0  0  0  0  0  0  0
  -26.7488  -21.2035   25.2020 C   0  0  0  0  0  0  0  0  0  0  0  0
  -31.1135  -26.8376   20.6011 C   0  0  0  0  0  0  0  0  0  0  0  0
  -25.2902  -30.4864   19.4652 C   0  0  0  0  0  0  0  0  0  0  0  0
  -24.1474  -30.6345   22.1886 C   0  0  0  0  0  0  0  0  0  0  0  0
  -30.3884  -27.6491   21.6715 C   0  0  0  0  0  0  0  0  0  0  0  0
  -28.3585  -19.9279   22.2936 C   0  0  0  0  0  0  0  0  0  0  0  0
  -29.0003  -27.0720   21.9301 C   0  0  0  0  0  0  0  0  0  0  0  0
  -27.4375  -18.7971   21.8321 C   0  0  0  0  0  0  0  0  0  0  0  0
  -20.9648  -26.0213   24.3707 C   0  0  0  0  0  0  0  0  0  0  0  0
  -22.0692  -25.1336   22.2781 C   0  0  0  0  0  0  0  0  0  0  0  0
  -28.4244  -20.0160   23.8167 C   0  0  0  0  0  0  0  0  0  0  0  0
  -26.1944  -18.9881   24.0268 C   0  0  0  0  0  0  0  0  0  0  0  0
  -19.7205  -26.3586   23.5593 C   0  0  0  0  0  0  0  0  0  0  0  0
  -20.8163  -25.4774   21.4828 C   0  0  0  0  0  0  0  0  0  0  0  0
  -28.1338  -27.1318   20.6663 C   0  0  1  0  0  0  0  0  0  0  0  0
  -21.7404  -24.8471   23.7521 C   0  0  0  0  0  0  0  0  0  0  0  0
  -26.1655  -30.3809   20.7102 C   0  0  1  0  0  0  0  0  0  0  0  0
  -26.0518  -18.8954   22.4980 C   0  0  2  0  0  0  0  0  0  0  0  0
  -21.1520  -22.4521   26.1169 C   0  0  0  0  0  0  0  0  0  0  0  0
  -24.6037  -36.3490   25.3949 C   0  0  0  0  0  0  0  0  0  0  0  0
  -18.3302  -27.8875   18.9545 C   0  0  0  0  0  0  0  0  0  0  0  0
  -26.5072  -30.0056   25.3040 C   0  0  0  0  0  0  0  0  0  0  0  0
  -25.7142  -31.9888   26.6102 C   0  0  0  0  0  0  0  0  0  0  0  0
  -27.8770  -32.0969   25.3720 C   0  0  0  0  0  0  0  0  0  0  0  0
  -23.5469  -35.9783   21.7587 C   0  0  0  0  0  0  0  0  0  0  0  0
  -26.6080  -26.4051   25.6612 C   0  0  0  0  0  0  0  0  0  0  0  0
  -24.9606  -22.2811   26.5436 C   0  0  0  0  0  0  0  0  0  0  0  0
  -22.3114  -22.2578   25.1548 C   0  0  0  0  0  0  0  0  0  0  0  0
  -18.9399  -27.1101   21.3142 C   0  0  0  0  0  0  0  0  0  0  0  0
  -25.7051  -32.1317   24.0783 C   0  0  1  0  0  0  0  0  0  0  0  0
  -24.6534  -35.7725   23.9885 C   0  0  2  0  0  0  0  0  0  0  0  0
  -19.3998  -27.8029   20.0355 C   0  0  2  0  0  0  0  0  0  1  0  0
  -26.4355  -31.5456   25.3195 C   0  0  0  0  0  0  0  0  0  0  0  0
  -25.6934  -16.5537   21.8118 N   0  0  0  0  0  0  0  0  0  0  0  0
  -23.2152  -23.3889   25.1503 N   0  0  0  0  0  0  0  0  0  0  0  0
  -25.1465  -17.7521   22.0779 N   0  0  0  0  0  0  0  0  0  0  0  0
  -25.5453  -30.9871   21.8901 N   0  0  0  0  0  0  0  0  0  0  0  0
  -27.0777  -20.1087   24.3858 N   0  0  0  0  0  0  0  0  0  0  0  0
  -23.0820  -18.9105   22.1572 N   0  0  0  0  0  0  0  0  0  0  0  0
  -21.8922  -14.7476   20.8724 N   0  0  0  0  0  0  0  0  0  0  0  0
  -27.6350  -28.4744   20.4586 N   0  0  0  0  0  0  0  0  0  0  0  0
  -25.6460  -33.5892   24.0528 N   0  0  0  0  0  0  0  0  0  0  0  0
  -25.4499  -21.2174   25.6951 N   0  0  0  0  0  0  0  0  0  0  0  0
  -20.0995  -26.6533   22.1200 N   0  3  0  0  0  0  0  0  0  0  0  0
  -23.5966  -36.4337   23.1719 N   0  3  0  0  0  0  0  0  0  0  0  0
  -21.1021  -16.8486   21.3416 O   0  0  0  0  0  0  0  0  0  0  0  0
  -25.7685  -28.3489   21.8453 O   0  0  0  0  0  0  0  0  0  0  0  0
  -27.5238  -32.0232   22.5594 O   0  0  0  0  0  0  0  0  0  0  0  0
  -23.3341  -33.7485   23.9702 O   0  0  0  0  0  0  0  0  0  0  0  0
  -27.5516  -22.1048   25.4669 O   0  0  0  0  0  0  0  0  0  0  0  0
  -25.3298  -10.4346   20.0874 O   0  0  0  0  0  0  0  0  0  0  0  0
  -26.1796  -25.0768   25.9998 O   0  0  0  0  0  0  0  0  0  0  0  0
  -19.8630  -29.1337   20.3638 O   0  0  0  0  0  0  0  0  0  1  0  0
  -21.8544   -6.7561   22.2768 F   0  0  0  0  0  0  0  0  0  0  0  0
  -26.2636   -8.3653   21.6650 F   0  0  0  0  0  0  0  0  0  0  0  0
  1  2  1  0  0  0  0
  1  5  2  0  0  0  0
  2  6  2  0  0  0  0
  3  8  2  0  0  0  0
  3 16  1  0  0  0  0
  4  9  1  0  0  0  0
  4 16  2  0  0  0  0
  5 18  1  0  0  0  0
  6 20  1  0  0  0  0
  7 10  2  0  0  0  0
  7 19  1  0  0  0  0
  8 22  1  0  0  0  0
  9 22  2  0  0  0  0
 10 23  1  0  0  0  0
 11 12  2  0  0  0  0
 11 24  1  0  0  0  0
 12 26  1  0  0  0  0
 13 21  1  0  0  0  0
 13 23  2  0  0  0  0
 14 25  1  0  0  0  0
 14 29  2  0  0  0  0
 15 26  2  0  0  0  0
 15 27  1  0  0  0  0
 16 28  1  0  0  0  0
 17 28  1  0  0  0  0
 17 31  2  0  0  0  0
 17 32  1  0  0  0  0
 18 20  2  0  0  0  0
 18 37  1  0  0  0  0
 19 21  2  0  0  0  0
 19 38  1  0  0  0  0
 20 50  1  0  0  0  0
 21 39  1  0  0  0  0
 22 86  1  0  0  0  0
 23 88  1  0  0  0  0
 24 27  2  0  0  0  0
 24 86  1  0  0  0  0
 25 30  2  0  0  0  0
 25 87  1  0  0  0  0
 26 89  1  0  0  0  0
 27 90  1  0  0  0  0
 28 69  2  0  0  0  0
 29 51  1  0  0  0  0
 29 70  1  0  0  0  0
 30 62  1  0  0  0  0
 30 70  1  0  0  0  0
 31 71  1  0  0  0  0
 31 74  1  0  0  0  0
 32 75  1  0  0  0  0
 32 81  2  0  0  0  0
 33 52  1  0  0  0  0
 33 76  1  0  0  0  0
 33 82  2  0  0  0  0
 34 65  1  0  0  0  0
 34 72  1  0  0  0  0
 34 83  2  0  0  0  0
 35 66  1  0  0  0  0
 35 77  1  0  0  0  0
 35 84  2  0  0  0  0
 36 73  1  0  0  0  0
 36 78  1  0  0  0  0
 36 85  2  0  0  0  0
 37 40  1  0  0  0  0
 38 52  1  0  0  0  0
 39 72  1  0  0  0  0
 40 42  1  0  0  0  0
 41 43  1  0  0  0  0
 41 46  1  0  0  0  0
 42 50  1  0  0  0  0
 43 53  1  0  0  0  0
 44 48  1  0  0  0  0
 44 51  1  0  0  0  0
 45 49  1  0  0  0  0
 45 51  1  0  0  0  0
 46 73  1  0  0  0  0
 47 53  1  0  0  0  0
 47 73  1  0  0  0  0
 48 79  1  0  0  0  0
 49 79  1  0  0  0  0
 50 76  1  0  0  0  0
 52 72  1  0  0  0  0
 53 71  1  0  0  0  0
 54 63  1  0  0  0  0
 55 66  1  0  0  0  0
 56 67  1  0  0  0  0
 57 68  1  0  0  0  0
 58 68  1  0  0  0  0
 59 68  1  0  0  0  0
 60 80  1  0  0  0  0
 61 87  1  0  0  0  0
 62 78  1  0  0  0  0
 63 70  1  0  0  0  0
 64 67  1  0  0  0  0
 64 79  1  0  0  0  0
 65 68  1  0  0  0  0
 65 77  1  0  0  0  0
 66 80  1  0  0  0  0
 67 88  1  0  0  0  0
 69 71  1  0  0  0  0
M  CHG  2  79   1  80   1
M  ISO  4  36 100  67 101  78 100  88 101
M  END
> <Batch ID>
0158

> <Smiles>
CCn1c(C2CCN(C[101CH:1](C)[101O:1]c3ccc4c(c3)CN(C(=O)C(NC(=O)C(C)NC)C(C)(C)C)C(C(=O)NC3CCCc5ccccc53)C4)CC2)cc(OC)c1C[100NH:0][100C:0](=O)N1CCCC(n2nc(-c3ccc(Oc4ccc(F)cc4F)cc3)c(C(N)=O)c2N)C1

> <Shape>
0.290

> <Color>
0.078

> <Negative vol penalty>
0.000

$$$$

  -OEChem-04052322043D

 83 92  0     1  0  0  0  0  0999 V2000
  -23.4358  -30.2684   20.4327 C   0  0  0  0  0  0  0  0  0  0  0  0
  -24.2060  -29.1709   20.0617 C   0  0  0  0  0  0  0  0  0  0  0  0
  -23.2010   -9.8969   19.8668 C   0  0  0  0  0  0  0  0  0  0  0  0
  -23.8635   -9.7990   22.1881 C   0  0  0  0  0  0  0  0  0  0  0  0
  -24.0390  -31.3683   21.0412 C   0  0  0  0  0  0  0  0  0  0  0  0
  -25.5803  -29.1731   20.2981 C   0  0  0  0  0  0  0  0  0  0  0  0
  -27.2253  -24.7930   22.2355 C   0  0  0  0  0  0  0  0  0  0  0  0
  -22.4777   -8.7146   20.0233 C   0  0  0  0  0  0  0  0  0  0  0  0
  -23.1401   -8.6167   22.3447 C   0  0  0  0  0  0  0  0  0  0  0  0
  -27.3863  -23.7265   21.3521 C   0  0  0  0  0  0  0  0  0  0  0  0
  -21.1730   -5.7652   23.4483 C   0  0  0  0  0  0  0  0  0  0  0  0
  -20.3696   -5.6409   24.5817 C   0  0  0  0  0  0  0  0  0  0  0  0
  -28.0273  -19.2231   19.2237 C   0  0  0  0  0  0  0  0  0  0  0  0
  -29.7586  -24.1570   21.2742 C   0  0  0  0  0  0  0  0  0  0  0  0
  -19.1066   -7.5843   23.8997 C   0  0  0  0  0  0  0  0  0  0  0  0
  -23.8940  -10.4391   20.9492 C   0  0  0  0  0  0  0  0  0  0  0  0
  -24.1744  -12.9745   20.9770 C   0  0  0  0  0  0  0  0  0  0  0  0
  -25.4198  -31.3799   21.2940 C   0  0  0  0  0  0  0  0  0  0  0  0
  -28.3301  -25.5576   22.6371 C   0  0  0  0  0  0  0  0  0  0  0  0
  -26.2028  -30.2747   20.9094 C   0  0  0  0  0  0  0  0  0  0  0  0
  -28.3741  -18.1940   18.3662 C   0  0  0  0  0  0  0  0  0  0  0  0
  -29.6093  -25.2311   22.1648 C   0  0  0  0  0  0  0  0  0  0  0  0
  -28.6994  -18.4442   17.0294 C   0  0  0  0  0  0  0  0  0  0  0  0
  -28.0141  -20.5252   18.7191 C   0  0  0  0  0  0  0  0  0  0  0  0
  -28.6874  -19.7301   16.5191 C   0  0  0  0  0  0  0  0  0  0  0  0
  -28.3416  -20.7768   17.3767 C   0  0  0  0  0  0  0  0  0  0  0  0
  -22.4472   -8.0745   21.2622 C   0  0  0  0  0  0  0  0  0  0  0  0
  -28.6526  -23.4102   20.8690 C   0  0  0  0  0  0  0  0  0  0  0  0
  -20.9433   -6.7992   22.5406 C   0  0  0  0  0  0  0  0  0  0  0  0
  -19.3364   -6.5504   24.8074 C   0  0  0  0  0  0  0  0  0  0  0  0
  -19.9101   -7.7087   22.7663 C   0  0  0  0  0  0  0  0  0  0  0  0
  -24.6418  -11.6601   20.7880 C   0  0  0  0  0  0  0  0  0  0  0  0
  -25.2609  -13.7683   20.7013 C   0  0  0  0  0  0  0  0  0  0  0  0
  -22.8744  -13.4366   21.3670 C   0  0  0  0  0  0  0  0  0  0  0  0
  -29.1728  -28.6083   22.3431 C   0  0  0  0  0  0  0  0  0  0  0  0
  -31.6280  -27.7107   24.2635 C   0  0  0  0  0  0  0  0  0  0  0  0
  -33.6275  -25.2023   25.4284 C   0  0  0  0  0  0  0  0  0  0  0  0
  -29.5301  -14.8966   17.2153 C   0  0  0  0  0  0  0  0  0  0  0  0
  -26.0345  -32.6111   21.9113 C   0  0  0  0  0  0  0  0  0  0  0  0
  -28.1434  -26.6881   23.6116 C   0  0  0  0  0  0  0  0  0  0  0  0
  -28.4416  -16.7289   18.6519 C   0  0  0  0  0  0  0  0  0  0  0  0
  -30.8305  -26.0081   22.5811 C   0  0  0  0  0  0  0  0  0  0  0  0
  -29.0369  -17.1700   16.3315 C   0  0  0  0  0  0  0  0  0  0  0  0
  -27.4373  -32.3786   22.4665 C   0  0  0  0  0  0  0  0  0  0  0  0
  -30.1313  -12.5859   19.9985 C   0  0  0  0  0  0  0  0  0  0  0  0
  -28.2895  -31.6120   21.4600 C   0  0  0  0  0  0  0  0  0  0  0  0
  -28.7127  -12.2160   20.4377 C   0  0  0  0  0  0  0  0  0  0  0  0
  -30.2057  -12.9025   18.5061 C   0  0  0  0  0  0  0  0  0  0  0  0
  -27.8239  -13.5291   18.4790 C   0  0  0  0  0  0  0  0  0  0  0  0
  -27.6925  -30.2293   21.1716 C   0  0  1  0  0  0  0  0  0  0  0  0
  -29.2653  -27.7201   23.5514 C   0  0  1  0  0  0  0  0  0  0  0  0
  -27.6931  -13.2802   19.9873 C   0  0  1  0  0  0  0  0  0  0  0  0
  -29.0383  -19.9801   15.0917 C   0  0  0  0  0  0  0  0  0  0  0  0
  -35.5702  -24.7822   26.9604 C   0  0  0  0  0  0  0  0  0  0  0  0
  -33.5226  -28.8823   22.1783 C   0  0  0  0  0  0  0  0  0  0  0  0
  -35.3896  -27.6167   23.2651 C   0  0  0  0  0  0  0  0  0  0  0  0
  -34.1553  -29.3629   24.5497 C   0  0  0  0  0  0  0  0  0  0  0  0
  -32.0328  -23.3932   27.1439 C   0  0  0  0  0  0  0  0  0  0  0  0
  -28.3194  -22.1819   16.8605 C   0  0  0  0  0  0  0  0  0  0  0  0
  -27.6419  -21.6451   19.6367 C   0  0  0  0  0  0  0  0  0  1  0  0
  -33.0170  -27.1641   24.0380 C   0  0  1  0  0  0  0  0  0  0  0  0
  -34.0552  -24.8263   26.8356 C   0  0  2  0  0  0  0  0  0  0  0  0
  -33.9980  -28.2428   23.4982 C   0  0  0  0  0  0  0  0  0  0  0  0
  -25.9252  -11.6171   20.4205 N   0  0  0  0  0  0  0  0  0  0  0  0
  -26.2735  -12.9143   20.3762 N   0  0  0  0  0  0  0  0  0  0  0  0
  -30.5956  -27.1083   23.5307 N   0  0  0  0  0  0  0  0  0  0  0  0
  -28.9275  -16.1458   17.3837 N   0  0  0  0  0  0  0  0  0  0  0  0
  -29.2005  -13.8976   18.1366 N   0  0  0  0  0  0  0  0  0  0  0  0
  -25.4393  -15.1064   20.7076 N   0  0  0  0  0  0  0  0  0  0  0  0
  -21.8733  -12.4868   21.6118 N   0  0  0  0  0  0  0  0  0  0  0  0
  -27.9887  -29.3152   22.2538 N   0  0  0  0  0  0  0  0  0  0  0  0
  -33.4283  -26.5608   25.3010 N   0  0  0  0  0  0  0  0  0  0  0  0
  -29.6239  -22.8800   17.0069 N   0  3  0  0  0  0  0  0  0  0  0  0
  -33.5144  -23.4864   27.2007 N   0  3  0  0  0  0  0  0  0  0  0  0
  -22.6038  -14.6564   21.4786 O   0  0  0  0  0  0  0  0  0  0  0  0
  -30.1070  -28.6505   21.5512 O   0  0  0  0  0  0  0  0  0  0  0  0
  -31.4641  -28.6333   25.0658 O   0  0  0  0  0  0  0  0  0  0  0  0
  -33.4880  -24.3743   24.5309 O   0  0  0  0  0  0  0  0  0  0  0  0
  -30.3633  -14.6986   16.3218 O   0  0  0  0  0  0  0  0  0  0  0  0
  -21.7413   -6.9209   21.4154 O   0  0  0  0  0  0  0  0  0  0  0  0
  -28.8136  -22.3626   19.9998 O   0  0  0  0  0  0  0  0  0  1  0  0
  -18.5640   -6.4299   25.8951 F   0  0  0  0  0  0  0  0  0  0  0  0
  -19.6839   -8.7034   21.8973 F   0  0  0  0  0  0  0  0  0  0  0  0
  1  2  1  0  0  0  0
  1  5  2  0  0  0  0
  2  6  2  0  0  0  0
  3  8  2  0  0  0  0
  3 16  1  0  0  0  0
  4  9  1  0  0  0  0
  4 16  2  0  0  0  0
  5 18  1  0  0  0  0
  6 20  1  0  0  0  0
  7 10  2  0  0  0  0
  7 19  1  0  0  0  0
  8 27  1  0  0  0  0
  9 27  2  0  0  0  0
 10 28  1  0  0  0  0
 11 12  2  0  0  0  0
 11 29  1  0  0  0  0
 12 30  1  0  0  0  0
 13 21  2  0  0  0  0
 13 24  1  0  0  0  0
 14 22  1  0  0  0  0
 14 28  2  0  0  0  0
 15 30  2  0  0  0  0
 15 31  1  0  0  0  0
 16 32  1  0  0  0  0
 17 32  1  0  0  0  0
 17 33  2  0  0  0  0
 17 34  1  0  0  0  0
 18 20  2  0  0  0  0
 18 39  1  0  0  0  0
 19 22  2  0  0  0  0
 19 40  1  0  0  0  0
 20 50  1  0  0  0  0
 21 23  1  0  0  0  0
 21 41  1  0  0  0  0
 22 42  1  0  0  0  0
 23 25  2  0  0  0  0
 23 43  1  0  0  0  0
 24 26  2  0  0  0  0
 24 60  1  0  0  0  0
 25 26  1  0  0  0  0
 25 53  1  0  0  0  0
 26 59  1  0  0  0  0
 27 80  1  0  0  0  0
 28 81  1  0  0  0  0
 29 31  2  0  0  0  0
 29 80  1  0  0  0  0
 30 82  1  0  0  0  0
 31 83  1  0  0  0  0
 32 64  2  0  0  0  0
 33 65  1  0  0  0  0
 33 69  1  0  0  0  0
 34 70  1  0  0  0  0
 34 75  2  0  0  0  0
 35 51  1  0  0  0  0
 35 71  1  0  0  0  0
 35 76  2  0  0  0  0
 36 61  1  0  0  0  0
 36 66  1  0  0  0  0
 36 77  2  0  0  0  0
 37 62  1  0  0  0  0
 37 72  1  0  0  0  0
 37 78  2  0  0  0  0
 38 67  1  0  0  0  0
 38 68  1  0  0  0  0
 38 79  2  0  0  0  0
 39 44  1  0  0  0  0
 40 51  1  0  0  0  0
 41 67  1  0  0  0  0
 42 66  1  0  0  0  0
 43 67  1  0  0  0  0
 44 46  1  0  0  0  0
 45 47  1  0  0  0  0
 45 48  1  0  0  0  0
 46 50  1  0  0  0  0
 47 52  1  0  0  0  0
 48 68  1  0  0  0  0
 49 52  1  0  0  0  0
 49 68  1  0  0  0  0
 50 71  1  0  0  0  0
 51 66  1  0  0  0  0
 52 65  1  0  0  0  0
 54 62  1  0  0  0  0
 55 63  1  0  0  0  0
 56 63  1  0  0  0  0
 57 63  1  0  0  0  0
 58 74  1  0  0  0  0
 59 73  1  0  0  0  0
 60 81  1  0  0  0  0
 61 63  1  0  0  0  0
 61 72  1  0  0  0  0
 62 74  1  0  0  0  0
 64 65  1  0  0  0  0
M  CHG  2  73   1  74   1
M  ISO  4  38 100  60 101  67 100  81 101
M  END
> <Batch ID>
0158

> <Smiles>
CNC(C)C(=O)NC(C(=O)N1Cc2cc([101O:1][101CH2:1]c3cc4c(c(C)c3CN)C[100N:0]([100C:0](=O)N3CCCC(n5nc(-c6ccc(Oc7ccc(F)cc7F)cc6)c(C(N)=O)c5N)C3)C4)ccc2CC1C(=O)NC1CCCc2ccccc21)C(C)(C)C

> <Shape>
0.249

> <Color>
0.189

> <Negative vol penalty>
0.000

$$$$

  -OEChem-04052322043D

 86 95  0     1  0  0  0  0  0999 V2000
  -24.4115  -35.0664   22.9272 C   0  0  0  0  0  0  0  0  0  0  0  0
  -25.2190  -33.9639   22.6665 C   0  0  0  0  0  0  0  0  0  0  0  0
  -24.4757   -9.2294   22.3568 C   0  0  0  0  0  0  0  0  0  0  0  0
  -23.9903   -9.4353   19.9990 C   0  0  0  0  0  0  0  0  0  0  0  0
  -23.1874  -34.8954   23.5724 C   0  0  0  0  0  0  0  0  0  0  0  0
  -24.8034  -32.6899   23.0520 C   0  0  0  0  0  0  0  0  0  0  0  0
  -25.5400  -29.2277   19.4305 C   0  0  0  0  0  0  0  0  0  0  0  0
  -28.6416  -24.2986   19.1342 C   0  0  0  0  0  0  0  0  0  0  0  0
  -28.3663  -22.9551   18.8798 C   0  0  0  0  0  0  0  0  0  0  0  0
  -23.2913   -8.5156   22.5384 C   0  0  0  0  0  0  0  0  0  0  0  0
  -22.8058   -8.7213   20.1806 C   0  0  0  0  0  0  0  0  0  0  0  0
  -26.8378  -28.7462   19.2644 C   0  0  0  0  0  0  0  0  0  0  0  0
  -20.5736   -6.3274   23.5588 C   0  0  0  0  0  0  0  0  0  0  0  0
  -20.6245   -5.1755   24.3437 C   0  0  0  0  0  0  0  0  0  0  0  0
  -26.2589  -26.7700   20.5208 C   0  0  0  0  0  0  0  0  0  0  0  0
  -28.1614  -22.5478   21.2524 C   0  0  0  0  0  0  0  0  0  0  0  0
  -22.2317   -4.2088   22.8207 C   0  0  0  0  0  0  0  0  0  0  0  0
  -24.8252   -9.6894   21.0871 C   0  0  0  0  0  0  0  0  0  0  0  0
  -27.3184   -9.9038   20.5916 C   0  0  0  0  0  0  0  0  0  0  0  0
  -22.7521  -33.6174   23.9573 C   0  0  0  0  0  0  0  0  0  0  0  0
  -24.5934  -28.4877   20.1535 C   0  0  0  0  0  0  0  0  0  0  0  0
  -23.5730  -32.5018   23.7041 C   0  0  0  0  0  0  0  0  0  0  0  0
  -24.9491  -27.2431   20.6924 C   0  0  0  0  0  0  0  0  0  0  0  0
  -28.6769  -24.7667   20.4477 C   0  0  0  0  0  0  0  0  0  0  0  0
  -28.1262  -22.0797   19.9389 C   0  0  0  0  0  0  0  0  0  0  0  0
  -22.4563   -8.2615   21.4503 C   0  0  0  0  0  0  0  0  0  0  0  0
  -27.1983  -27.5185   19.8121 C   0  0  0  0  0  0  0  0  0  0  0  0
  -21.3516   -6.4200   22.4048 C   0  0  0  0  0  0  0  0  0  0  0  0
  -28.4368  -23.8913   21.5068 C   0  0  0  0  0  0  0  0  0  0  0  0
  -21.4535   -4.1162   23.9747 C   0  0  0  0  0  0  0  0  0  0  0  0
  -22.1807   -5.3607   22.0357 C   0  0  0  0  0  0  0  0  0  0  0  0
  -26.0484  -10.4274   20.8990 C   0  0  0  0  0  0  0  0  0  0  0  0
  -28.1355  -11.0054   20.5187 C   0  0  0  0  0  0  0  0  0  0  0  0
  -27.7234   -8.5432   20.3899 C   0  0  0  0  0  0  0  0  0  0  0  0
  -22.9128  -28.9789   22.8064 C   0  0  0  0  0  0  0  0  0  0  0  0
  -21.5023  -26.1814   21.9656 C   0  0  0  0  0  0  0  0  0  0  0  0
  -21.7061  -23.2311   20.2624 C   0  0  0  0  0  0  0  0  0  0  0  0
  -27.2608  -16.5695   19.2136 C   0  0  0  0  0  0  0  0  0  0  0  0
  -21.4427  -33.4880   24.6944 C   0  0  0  0  0  0  0  0  0  0  0  0
  -23.1900  -29.0086   20.3008 C   0  0  0  0  0  0  0  0  0  0  0  0
  -23.9643  -26.4006   21.4599 C   0  0  0  0  0  0  0  0  0  0  0  0
  -20.9052  -32.0598   24.7350 C   0  0  0  0  0  0  0  0  0  0  0  0
  -28.6261  -15.4343   22.2445 C   0  0  0  0  0  0  0  0  0  0  0  0
  -22.0127  -31.0833   25.1180 C   0  0  0  0  0  0  0  0  0  0  0  0
  -28.2406  -13.9556   22.2165 C   0  0  0  0  0  0  0  0  0  0  0  0
  -27.5005  -16.3300   21.7247 C   0  0  0  0  0  0  0  0  0  0  0  0
  -28.8447  -19.9143   18.9783 C   0  0  0  0  0  0  0  0  0  0  0  0
  -26.9625  -20.0262   20.6187 C   0  0  0  0  0  0  0  0  0  0  0  0
  -28.2007  -18.6806   18.3514 C   0  0  0  0  0  0  0  0  0  0  0  0
  -26.3461  -18.7995   19.9554 C   0  0  0  0  0  0  0  0  0  0  0  0
  -26.6137  -14.4694   20.3573 C   0  0  0  0  0  0  0  0  0  0  0  0
  -23.1455  -31.1009   24.0846 C   0  0  1  0  0  0  0  0  0  0  0  0
  -22.4525  -28.4095   21.4943 C   0  0  1  0  0  0  0  0  0  0  0  0
  -27.7468  -13.5400   20.8193 C   0  0  2  0  0  0  0  0  0  0  0  0
  -30.4701  -26.4901   20.8449 C   0  0  0  0  0  0  0  0  0  0  0  0
  -20.4112  -21.1330   19.7948 C   0  0  0  0  0  0  0  0  0  0  0  0
  -22.1689  -25.1503   24.7589 C   0  0  0  0  0  0  0  0  0  0  0  0
  -21.7332  -22.8284   23.9300 C   0  0  0  0  0  0  0  0  0  0  0  0
  -19.8969  -24.5168   23.9278 C   0  0  0  0  0  0  0  0  0  0  0  0
  -21.6556  -23.7724   17.3532 C   0  0  0  0  0  0  0  0  0  0  0  0
  -28.2108  -23.3700   23.8161 C   0  0  0  0  0  0  0  0  0  0  0  0
  -28.9727  -26.2080   20.7009 C   0  0  1  0  0  0  0  0  0  1  0  0
  -21.7716  -24.7223   22.2440 C   0  0  1  0  0  0  0  0  0  0  0  0
  -20.7342  -22.5418   19.3218 C   0  0  2  0  0  0  0  0  0  0  0  0
  -21.4120  -24.3209   23.7024 C   0  0  0  0  0  0  0  0  0  0  0  0
  -26.0532  -11.7581   21.0137 N   0  0  0  0  0  0  0  0  0  0  0  0
  -27.3364  -12.0800   20.7771 N   0  0  0  0  0  0  0  0  0  0  0  0
  -27.8503  -20.7304   19.6833 N   0  0  0  0  0  0  0  0  0  0  0  0
  -22.6063  -26.9559   21.5822 N   0  0  0  0  0  0  0  0  0  0  0  0
  -27.0353  -15.8708   20.4091 N   0  0  0  0  0  0  0  0  0  0  0  0
  -27.3596  -17.9668   19.3045 N   0  0  0  0  0  0  0  0  0  0  0  0
  -29.4525  -11.1500   20.2594 N   0  0  0  0  0  0  0  0  0  0  0  0
  -26.7566   -7.5348   20.5017 N   0  0  0  0  0  0  0  0  0  0  0  0
  -22.7672  -30.3493   22.9071 N   0  0  0  0  0  0  0  0  0  0  0  0
  -21.0495  -23.9718   21.2224 N   0  0  0  0  0  0  0  0  0  0  0  0
  -21.3124  -22.4564   17.9510 N   0  3  0  0  0  0  0  0  0  0  0  0
  -28.9109   -8.2297   20.1348 O   0  0  0  0  0  0  0  0  0  0  0  0
  -23.3652  -28.2300   23.6646 O   0  0  0  0  0  0  0  0  0  0  0  0
  -20.3534  -26.6163   22.0772 O   0  0  0  0  0  0  0  0  0  0  0  0
  -22.9257  -23.1203   20.1585 O   0  0  0  0  0  0  0  0  0  0  0  0
  -27.3706  -15.9824   18.1301 O   0  0  0  0  0  0  0  0  0  0  0  0
  -21.3006   -7.5646   21.6271 O   0  0  0  0  0  0  0  0  0  0  0  0
  -28.4677  -24.3325   22.7957 O   0  0  0  0  0  0  0  0  0  0  0  0
  -28.4685  -27.0451   19.6515 O   0  0  0  0  0  0  0  0  0  1  0  0
  -21.5035   -3.0107   24.7293 F   0  0  0  0  0  0  0  0  0  0  0  0
  -22.9314   -5.4444   20.9288 F   0  0  0  0  0  0  0  0  0  0  0  0
  1  2  1  0  0  0  0
  1  5  2  0  0  0  0
  2  6  2  0  0  0  0
  3 10  2  0  0  0  0
  3 18  1  0  0  0  0
  4 11  1  0  0  0  0
  4 18  2  0  0  0  0
  5 20  1  0  0  0  0
  6 22  1  0  0  0  0
  7 12  2  0  0  0  0
  7 21  1  0  0  0  0
  8  9  2  0  0  0  0
  8 24  1  0  0  0  0
  9 25  1  0  0  0  0
 10 26  1  0  0  0  0
 11 26  2  0  0  0  0
 12 27  1  0  0  0  0
 13 14  2  0  0  0  0
 13 28  1  0  0  0  0
 14 30  1  0  0  0  0
 15 23  1  0  0  0  0
 15 27  2  0  0  0  0
 16 25  2  0  0  0  0
 16 29  1  0  0  0  0
 17 30  2  0  0  0  0
 17 31  1  0  0  0  0
 18 32  1  0  0  0  0
 19 32  1  0  0  0  0
 19 33  2  0  0  0  0
 19 34  1  0  0  0  0
 20 22  2  0  0  0  0
 20 39  1  0  0  0  0
 21 23  2  0  0  0  0
 21 40  1  0  0  0  0
 22 52  1  0  0  0  0
 23 41  1  0  0  0  0
 24 29  2  0  0  0  0
 24 62  1  0  0  0  0
 25 68  1  0  0  0  0
 26 82  1  0  0  0  0
 27 84  1  0  0  0  0
 28 31  2  0  0  0  0
 28 82  1  0  0  0  0
 29 83  1  0  0  0  0
 30 85  1  0  0  0  0
 31 86  1  0  0  0  0
 32 66  2  0  0  0  0
 33 67  1  0  0  0  0
 33 72  1  0  0  0  0
 34 73  1  0  0  0  0
 34 77  2  0  0  0  0
 35 53  1  0  0  0  0
 35 74  1  0  0  0  0
 35 78  2  0  0  0  0
 36 63  1  0  0  0  0
 36 69  1  0  0  0  0
 36 79  2  0  0  0  0
 37 64  1  0  0  0  0
 37 75  1  0  0  0  0
 37 80  2  0  0  0  0
 38 70  1  0  0  0  0
 38 71  1  0  0  0  0
 38 81  2  0  0  0  0
 39 42  1  0  0  0  0
 40 53  1  0  0  0  0
 41 69  1  0  0  0  0
 42 44  1  0  0  0  0
 43 45  1  0  0  0  0
 43 46  1  0  0  0  0
 44 52  1  0  0  0  0
 45 54  1  0  0  0  0
 46 70  1  0  0  0  0
 47 49  1  0  0  0  0
 47 68  1  0  0  0  0
 48 50  1  0  0  0  0
 48 68  1  0  0  0  0
 49 71  1  0  0  0  0
 50 71  1  0  0  0  0
 51 54  1  0  0  0  0
 51 70  1  0  0  0  0
 52 74  1  0  0  0  0
 53 69  1  0  0  0  0
 54 67  1  0  0  0  0
 55 62  1  0  0  0  0
 56 64  1  0  0  0  0
 57 65  1  0  0  0  0
 58 65  1  0  0  0  0
 59 65  1  0  0  0  0
 60 76  1  0  0  0  0
 61 83  1  0  0  0  0
 62 84  1  0  0  0  0
 63 65  1  0  0  0  0
 63 75  1  0  0  0  0
 64 76  1  0  0  0  0
 66 67  1  0  0  0  0
M  CHG  1  76   1
M  ISO  4  38 100  62 101  71 100  84 101
M  END
> <Batch ID>
0158

> <Smiles>
CNC(C)C(=O)NC(C(=O)N1Cc2cc([101O:1][101CH:1](C)c3ccc(N4CC[100N:0]([100C:0](=O)N5CCCC(n6nc(-c7ccc(Oc8ccc(F)cc8F)cc7)c(C(N)=O)c6N)C5)CC4)cc3OC)ccc2CC1C(=O)NC1CCCc2ccccc21)C(C)(C)C

> <Shape>
0.266

> <Color>
0.106

> <Negative vol penalty>
0.000

$$$$

  -OEChem-04052322043D

 87 96  0     1  0  0  0  0  0999 V2000
  -17.0749  -29.7571   24.8209 C   0  0  0  0  0  0  0  0  0  0  0  0
  -18.3561  -29.5193   25.3080 C   0  0  0  0  0  0  0  0  0  0  0  0
  -26.0279  -13.5467   21.5500 C   0  0  0  0  0  0  0  0  0  0  0  0
  -25.0175  -13.1564   19.3904 C   0  0  0  0  0  0  0  0  0  0  0  0
  -16.7766  -29.4868   23.4860 C   0  0  0  0  0  0  0  0  0  0  0  0
  -19.3396  -29.0101   24.4608 C   0  0  0  0  0  0  0  0  0  0  0  0
  -26.4027  -29.2948   23.3001 C   0  0  0  0  0  0  0  0  0  0  0  0
  -31.8231  -29.5041   19.2452 C   0  0  0  0  0  0  0  0  0  0  0  0
  -31.6291  -28.8628   20.4686 C   0  0  0  0  0  0  0  0  0  0  0  0
  -25.0681  -12.7293   22.1468 C   0  0  0  0  0  0  0  0  0  0  0  0
  -24.0577  -12.3389   19.9872 C   0  0  0  0  0  0  0  0  0  0  0  0
  -27.5032  -28.4533   23.1428 C   0  0  0  0  0  0  0  0  0  0  0  0
  -21.8387  -12.9773   23.1133 C   0  0  0  0  0  0  0  0  0  0  0  0
  -21.2399  -13.4332   24.2877 C   0  0  0  0  0  0  0  0  0  0  0  0
  -26.8947  -28.0989   20.8356 C   0  0  0  0  0  0  0  0  0  0  0  0
  -31.6434  -27.3820   18.1044 C   0  0  0  0  0  0  0  0  0  0  0  0
  -22.0674  -11.4916   25.4635 C   0  0  0  0  0  0  0  0  0  0  0  0
  -26.0026  -13.7603   20.1717 C   0  0  0  0  0  0  0  0  0  0  0  0
  -28.2437  -14.2127   19.0404 C   0  0  0  0  0  0  0  0  0  0  0  0
  -17.7595  -28.9831   22.6195 C   0  0  0  0  0  0  0  0  0  0  0  0
  -25.5324  -29.5364   22.2275 C   0  0  0  0  0  0  0  0  0  0  0  0
  -19.0538  -28.7315   23.1134 C   0  0  0  0  0  0  0  0  0  0  0  0
  -25.7853  -28.9458   20.9812 C   0  0  0  0  0  0  0  0  0  0  0  0
  -31.8302  -28.7637   18.0630 C   0  0  0  0  0  0  0  0  0  0  0  0
  -31.4423  -27.4812   20.5099 C   0  0  0  0  0  0  0  0  0  0  0  0
  -24.0830  -12.1254   21.3654 C   0  0  0  0  0  0  0  0  0  0  0  0
  -27.7476  -27.8529   21.9112 C   0  0  0  0  0  0  0  0  0  0  0  0
  -22.5518  -11.7784   23.1140 C   0  0  0  0  0  0  0  0  0  0  0  0
  -31.4495  -26.7407   19.3278 C   0  0  0  0  0  0  0  0  0  0  0  0
  -21.3543  -12.6904   25.4627 C   0  0  0  0  0  0  0  0  0  0  0  0
  -22.6662  -11.0356   24.2891 C   0  0  0  0  0  0  0  0  0  0  0  0
  -26.9934  -14.6050   19.5547 C   0  0  0  0  0  0  0  0  0  0  0  0
  -28.8011  -15.3759   18.5684 C   0  0  0  0  0  0  0  0  0  0  0  0
  -28.8473  -12.9130   18.9934 C   0  0  0  0  0  0  0  0  0  0  0  0
  -22.4477  -29.0017   21.6776 C   0  0  0  0  0  0  0  0  0  0  0  0
  -23.0379  -30.6887   18.9705 C   0  0  0  0  0  0  0  0  0  0  0  0
  -25.3109  -31.7548   16.6588 C   0  0  0  0  0  0  0  0  0  0  0  0
  -30.0631  -20.5780   18.9670 C   0  0  0  0  0  0  0  0  0  0  0  0
  -17.3771  -28.6619   21.1964 C   0  0  0  0  0  0  0  0  0  0  0  0
  -24.3649  -30.4678   22.4062 C   0  0  0  0  0  0  0  0  0  0  0  0
  -24.8927  -29.1889   19.7926 C   0  0  0  0  0  0  0  0  0  0  0  0
  -18.5765  -28.4763   20.2705 C   0  0  0  0  0  0  0  0  0  0  0  0
  -26.7888  -19.9555   17.8654 C   0  0  0  0  0  0  0  0  0  0  0  0
  -19.6215  -27.5777   20.9243 C   0  0  0  0  0  0  0  0  0  0  0  0
  -26.6457  -18.4638   18.1667 C   0  0  0  0  0  0  0  0  0  0  0  0
  -30.6183  -23.9434   17.5132 C   0  0  0  0  0  0  0  0  0  0  0  0
  -29.1838  -24.1677   19.5872 C   0  0  0  0  0  0  0  0  0  0  0  0
  -27.5322  -20.6961   18.9783 C   0  0  0  0  0  0  0  0  0  0  0  0
  -31.1255  -22.6015   18.0392 C   0  0  0  0  0  0  0  0  0  0  0  0
  -29.7263  -22.8234   20.0671 C   0  0  0  0  0  0  0  0  0  0  0  0
  -28.7022  -18.6143   19.6213 C   0  0  0  0  0  0  0  0  0  0  0  0
  -20.1543  -28.2029   22.2192 C   0  0  1  0  0  0  0  0  0  0  0  0
  -23.2540  -30.2358   21.3867 C   0  0  1  0  0  0  0  0  0  0  0  0
  -28.0109  -17.8327   18.4934 C   0  0  1  0  0  0  0  0  0  0  0  0
  -30.1457  -24.8742   18.6304 C   0  0  0  0  0  0  0  0  0  0  0  0
  -32.0369  -29.4499   16.7551 C   0  0  0  0  0  0  0  0  0  0  0  0
  -32.4605  -26.9696   22.7534 C   0  0  0  0  0  0  0  0  0  0  0  0
  -25.4885  -33.0875   14.5400 C   0  0  0  0  0  0  0  0  0  0  0  0
  -21.8462  -28.3557   17.4062 C   0  0  0  0  0  0  0  0  0  0  0  0
  -22.8971  -29.2967   15.3377 C   0  0  0  0  0  0  0  0  0  0  0  0
  -21.1803  -30.6182   16.5742 C   0  0  0  0  0  0  0  0  0  0  0  0
  -27.1354  -33.7201   17.9110 C   0  0  0  0  0  0  0  0  0  0  0  0
  -29.9674  -27.2997   22.5610 C   0  0  0  0  0  0  0  0  0  1  0  0
  -31.2376  -26.8116   21.8285 C   0  0  1  0  0  0  0  0  0  0  0  0
  -23.4871  -30.3423   17.5715 C   0  0  1  0  0  0  0  0  0  0  0  0
  -25.5698  -33.1246   16.0581 C   0  0  2  0  0  0  0  0  0  0  0  0
  -22.3686  -29.6469   16.7451 C   0  0  0  0  0  0  0  0  0  0  0  0
  -26.7694  -15.9151   19.4222 N   0  0  0  0  0  0  0  0  0  0  0  0
  -27.8866  -16.3561   18.8193 N   0  0  0  0  0  0  0  0  0  0  0  0
  -23.7606  -30.1023   20.0193 N   0  0  0  0  0  0  0  0  0  0  0  0
  -28.8084  -20.0347   19.2813 N   0  0  0  0  0  0  0  0  0  0  0  0
  -30.1610  -21.9796   18.9458 N   0  0  0  0  0  0  0  0  0  0  0  0
  -29.9795  -15.6457   17.9675 N   0  0  0  0  0  0  0  0  0  0  0  0
  -28.1371  -11.8270   19.5228 N   0  0  0  0  0  0  0  0  0  0  0  0
  -21.1097  -29.2480   21.9200 N   0  0  0  0  0  0  0  0  0  0  0  0
  -23.9818  -31.5821   16.9829 N   0  0  0  0  0  0  0  0  0  0  0  0
  -26.9240  -33.6121   16.4444 N   0  3  0  0  0  0  0  0  0  0  0  0
  -29.9898  -12.7232   18.5114 O   0  0  0  0  0  0  0  0  0  0  0  0
  -22.9983  -27.9069   21.6803 O   0  0  0  0  0  0  0  0  0  0  0  0
  -22.0857  -31.4570   19.1271 O   0  0  0  0  0  0  0  0  0  0  0  0
  -26.1982  -30.9199   16.8208 O   0  0  0  0  0  0  0  0  0  0  0  0
  -31.0372  -19.8572   18.7165 O   0  0  0  0  0  0  0  0  0  0  0  0
  -23.1464  -11.3275   21.9475 O   0  0  0  0  0  0  0  0  0  0  0  0
  -31.2664  -25.3831   19.3504 O   0  0  0  0  0  0  0  0  0  0  0  0
  -28.8277  -27.0252   21.7541 O   0  0  0  0  0  0  0  0  0  1  0  0
  -20.7805  -13.1292   26.5908 F   0  0  0  0  0  0  0  0  0  0  0  0
  -23.3510   -9.8837   24.2962 F   0  0  0  0  0  0  0  0  0  0  0  0
  1  2  1  0  0  0  0
  1  5  2  0  0  0  0
  2  6  2  0  0  0  0
  3 10  2  0  0  0  0
  3 18  1  0  0  0  0
  4 11  1  0  0  0  0
  4 18  2  0  0  0  0
  5 20  1  0  0  0  0
  6 22  1  0  0  0  0
  7 12  2  0  0  0  0
  7 21  1  0  0  0  0
  8  9  2  0  0  0  0
  8 24  1  0  0  0  0
  9 25  1  0  0  0  0
 10 26  1  0  0  0  0
 11 26  2  0  0  0  0
 12 27  1  0  0  0  0
 13 14  2  0  0  0  0
 13 28  1  0  0  0  0
 14 30  1  0  0  0  0
 15 23  1  0  0  0  0
 15 27  2  0  0  0  0
 16 24  2  0  0  0  0
 16 29  1  0  0  0  0
 17 30  2  0  0  0  0
 17 31  1  0  0  0  0
 18 32  1  0  0  0  0
 19 32  1  0  0  0  0
 19 33  2  0  0  0  0
 19 34  1  0  0  0  0
 20 22  2  0  0  0  0
 20 39  1  0  0  0  0
 21 23  2  0  0  0  0
 21 40  1  0  0  0  0
 22 52  1  0  0  0  0
 23 41  1  0  0  0  0
 24 56  1  0  0  0  0
 25 29  2  0  0  0  0
 25 64  1  0  0  0  0
 26 83  1  0  0  0  0
 27 85  1  0  0  0  0
 28 31  2  0  0  0  0
 28 83  1  0  0  0  0
 29 84  1  0  0  0  0
 30 86  1  0  0  0  0
 31 87  1  0  0  0  0
 32 68  2  0  0  0  0
 33 69  1  0  0  0  0
 33 73  1  0  0  0  0
 34 74  1  0  0  0  0
 34 78  2  0  0  0  0
 35 53  1  0  0  0  0
 35 75  1  0  0  0  0
 35 79  2  0  0  0  0
 36 65  1  0  0  0  0
 36 70  1  0  0  0  0
 36 80  2  0  0  0  0
 37 66  1  0  0  0  0
 37 76  1  0  0  0  0
 37 81  2  0  0  0  0
 38 71  1  0  0  0  0
 38 72  1  0  0  0  0
 38 82  2  0  0  0  0
 39 42  1  0  0  0  0
 40 53  1  0  0  0  0
 41 70  1  0  0  0  0
 42 44  1  0  0  0  0
 43 45  1  0  0  0  0
 43 48  1  0  0  0  0
 44 52  1  0  0  0  0
 45 54  1  0  0  0  0
 46 49  1  0  0  0  0
 46 55  1  0  0  0  0
 47 50  1  0  0  0  0
 47 55  1  0  0  0  0
 48 71  1  0  0  0  0
 49 72  1  0  0  0  0
 50 72  1  0  0  0  0
 51 54  1  0  0  0  0
 51 71  1  0  0  0  0
 52 75  1  0  0  0  0
 53 70  1  0  0  0  0
 54 69  1  0  0  0  0
 55 84  1  0  0  0  0
 57 64  1  0  0  0  0
 58 66  1  0  0  0  0
 59 67  1  0  0  0  0
 60 67  1  0  0  0  0
 61 67  1  0  0  0  0
 62 77  1  0  0  0  0
 63 64  1  0  0  0  0
 63 85  1  0  0  0  0
 65 67  1  0  0  0  0
 65 76  1  0  0  0  0
 66 77  1  0  0  0  0
 68 69  1  0  0  0  0
M  CHG  1  77   1
M  ISO  4  38 100  63 101  72 100  85 101
M  END
> <Batch ID>
0158

> <Smiles>
CNC(C)C(=O)NC(C(=O)N1Cc2cc([101O:1][101CH2:1]C(C)c3ccc(C)cc3OC3CC[100N:0]([100C:0](=O)N4CCCC(n5nc(-c6ccc(Oc7ccc(F)cc7F)cc6)c(C(N)=O)c5N)C4)CC3)ccc2CC1C(=O)NC1CCCc2ccccc21)C(C)(C)C

> <Shape>
0.271

> <Color>
0.082

> <Negative vol penalty>
0.000

$$$$

  -OEChem-04052322043D

 83 92  0     1  0  0  0  0  0999 V2000
  -26.4447  -35.1388   24.1090 C   0  0  0  0  0  0  0  0  0  0  0  0
  -26.9079  -33.8740   23.7610 C   0  0  0  0  0  0  0  0  0  0  0  0
  -27.4203  -12.1169   19.8492 C   0  0  0  0  0  0  0  0  0  0  0  0
  -29.2798  -13.6537   19.9807 C   0  0  0  0  0  0  0  0  0  0  0  0
  -25.1271  -35.3049   24.5334 C   0  0  0  0  0  0  0  0  0  0  0  0
  -26.0540  -32.7743   23.8383 C   0  0  0  0  0  0  0  0  0  0  0  0
  -27.0333  -23.5292   17.7773 C   0  0  0  0  0  0  0  0  0  0  0  0
  -28.9568  -22.7514   19.0152 C   0  0  0  0  0  0  0  0  0  0  0  0
  -26.3737  -29.7765   19.7694 C   0  0  0  0  0  0  0  0  0  0  0  0
  -26.2745  -22.4809   18.2977 C   0  0  0  0  0  0  0  0  0  0  0  0
  -28.1979  -21.7031   19.5356 C   0  0  0  0  0  0  0  0  0  0  0  0
  -28.2094  -11.2240   19.1243 C   0  0  0  0  0  0  0  0  0  0  0  0
  -30.0690  -12.7607   19.2558 C   0  0  0  0  0  0  0  0  0  0  0  0
  -27.4666  -28.9137   19.6985 C   0  0  0  0  0  0  0  0  0  0  0  0
  -32.4664  -11.0442   17.1307 C   0  0  0  0  0  0  0  0  0  0  0  0
  -33.2486  -11.5612   16.0980 C   0  0  0  0  0  0  0  0  0  0  0  0
  -26.0761  -27.0988   20.4678 C   0  0  0  0  0  0  0  0  0  0  0  0
  -31.2568  -12.3655   14.9920 C   0  0  0  0  0  0  0  0  0  0  0  0
  -27.9554  -13.3318   20.2774 C   0  0  0  0  0  0  0  0  0  0  0  0
  -26.9913  -14.3161   22.4242 C   0  0  0  0  0  0  0  0  0  0  0  0
  -28.3745  -23.6645   18.1361 C   0  0  0  0  0  0  0  0  0  0  0  0
  -24.2538  -34.2083   24.6067 C   0  0  0  0  0  0  0  0  0  0  0  0
  -25.1243  -29.3086   20.2012 C   0  0  0  0  0  0  0  0  0  0  0  0
  -24.7238  -32.9257   24.2654 C   0  0  0  0  0  0  0  0  0  0  0  0
  -24.9683  -27.9571   20.5409 C   0  0  0  0  0  0  0  0  0  0  0  0
  -26.8568  -21.5679   19.1768 C   0  0  0  0  0  0  0  0  0  0  0  0
  -29.5338  -11.5459   18.8276 C   0  0  0  0  0  0  0  0  0  0  0  0
  -27.3186  -27.5753   20.0505 C   0  0  0  0  0  0  0  0  0  0  0  0
  -31.0794  -11.1878   17.0940 C   0  0  0  0  0  0  0  0  0  0  0  0
  -32.6438  -12.2218   15.0286 C   0  0  0  0  0  0  0  0  0  0  0  0
  -30.4746  -11.8485   16.0247 C   0  0  0  0  0  0  0  0  0  0  0  0
  -27.1406  -14.2548   21.0258 C   0  0  0  0  0  0  0  0  0  0  0  0
  -26.1182  -15.3561   22.6311 C   0  0  0  0  0  0  0  0  0  0  0  0
  -27.5884  -13.5055   23.4451 C   0  0  0  0  0  0  0  0  0  0  0  0
  -23.1975  -29.9802   22.6385 C   0  0  0  0  0  0  0  0  0  0  0  0
  -21.1845  -27.9556   21.0985 C   0  0  0  0  0  0  0  0  0  0  0  0
  -20.7949  -25.3607   18.9166 C   0  0  0  0  0  0  0  0  0  0  0  0
  -24.7431  -20.2252   19.4521 C   0  0  0  0  0  0  0  0  0  0  0  0
  -22.8517  -34.4296   25.1164 C   0  0  0  0  0  0  0  0  0  0  0  0
  -23.9489  -30.2460   20.2467 C   0  0  0  0  0  0  0  0  0  0  0  0
  -23.6433  -27.4005   20.9914 C   0  0  0  0  0  0  0  0  0  0  0  0
  -21.9033  -33.2727   24.8125 C   0  0  0  0  0  0  0  0  0  0  0  0
  -22.4974  -17.6804   20.5284 C   0  0  0  0  0  0  0  0  0  0  0  0
  -22.5604  -31.9396   25.1558 C   0  0  0  0  0  0  0  0  0  0  0  0
  -23.4200  -16.5209   20.9111 C   0  0  0  0  0  0  0  0  0  0  0  0
  -31.1216  -25.8120   17.4855 C   0  0  0  0  0  0  0  0  0  0  0  0
  -23.0185  -18.4417   19.3107 C   0  0  0  0  0  0  0  0  0  0  0  0
  -25.3307  -17.7452   19.7987 C   0  0  0  0  0  0  0  0  0  0  0  0
  -29.2105  -24.8193   17.5628 C   0  0  1  0  0  0  0  0  0  0  0  0
  -23.8208  -31.7123   24.3124 C   0  0  1  0  0  0  0  0  0  0  0  0
  -22.8468  -29.7770   21.1916 C   0  0  1  0  0  0  0  0  0  0  0  0
  -30.0208  -25.7105   18.5695 C   0  0  2  0  0  0  0  0  0  0  0  0
  -24.8811  -16.9886   21.0593 C   0  0  2  0  0  0  0  0  0  0  0  0
  -30.5953  -24.4758   16.9248 C   0  0  1  0  0  0  0  0  0  0  0  0
  -19.0329  -23.9003   17.8870 C   0  0  0  0  0  0  0  0  0  0  0  0
  -20.9484  -26.4011   23.7134 C   0  0  0  0  0  0  0  0  0  0  0  0
  -19.9877  -24.4913   22.4103 C   0  0  0  0  0  0  0  0  0  0  0  0
  -18.7973  -26.6827   22.4694 C   0  0  0  0  0  0  0  0  0  0  0  0
  -21.4765  -26.2669   16.1829 C   0  0  0  0  0  0  0  0  0  0  0  0
  -29.3754  -27.0146   18.9964 C   0  0  0  0  0  0  0  0  0  1  0  0
  -20.9323  -26.4676   21.1325 C   0  0  1  0  0  0  0  0  0  0  0  0
  -19.8589  -25.1683   17.7370 C   0  0  2  0  0  0  0  0  0  0  0  0
  -20.1920  -26.0213   22.4248 C   0  0  0  0  0  0  0  0  0  0  0  0
  -26.4200  -15.1819   20.3891 N   0  0  0  0  0  0  0  0  0  0  0  0
  -25.8095  -15.8356   21.3921 N   0  0  0  0  0  0  0  0  0  0  0  0
  -22.5255  -28.3581   21.0253 N   0  0  0  0  0  0  0  0  0  0  0  0
  -24.4065  -18.8569   19.5248 N   0  0  0  0  0  0  0  0  0  0  0  0
  -25.5922  -15.8980   23.7500 N   0  0  0  0  0  0  0  0  0  0  0  0
  -28.4621  -12.4802   23.0582 N   0  0  0  0  0  0  0  0  0  0  0  0
  -26.0859  -20.5029   19.7054 N   0  0  0  0  0  0  0  0  0  0  0  0
  -23.4644  -31.2939   22.9736 N   0  0  0  0  0  0  0  0  0  0  0  0
  -20.2258  -26.1451   19.8975 N   0  0  0  0  0  0  0  0  0  0  0  0
  -30.5640  -24.4303   15.4580 N   0  3  0  0  0  0  0  0  0  0  0  0
  -20.6361  -25.0757   16.4688 N   0  3  0  0  0  0  0  0  0  0  0  0
  -27.3413  -13.6746   24.6632 O   0  0  0  0  0  0  0  0  0  0  0  0
  -23.2226  -29.0165   23.3951 O   0  0  0  0  0  0  0  0  0  0  0  0
  -20.2265  -28.7322   21.1285 O   0  0  0  0  0  0  0  0  0  0  0  0
  -21.9170  -24.8616   18.9648 O   0  0  0  0  0  0  0  0  0  0  0  0
  -23.8965  -21.0898   19.2115 O   0  0  0  0  0  0  0  0  0  0  0  0
  -30.3042  -10.6747   18.1204 O   0  0  0  0  0  0  0  0  0  0  0  0
  -28.3838  -26.7312   19.9828 O   0  0  0  0  0  0  0  0  0  1  0  0
  -33.3952  -12.7196   14.0378 F   0  0  0  0  0  0  0  0  0  0  0  0
  -29.1427  -11.9905   15.9845 F   0  0  0  0  0  0  0  0  0  0  0  0
  1  2  1  0  0  0  0
  1  5  2  0  0  0  0
  2  6  2  0  0  0  0
  3 12  2  0  0  0  0
  3 19  1  0  0  0  0
  4 13  1  0  0  0  0
  4 19  2  0  0  0  0
  5 22  1  0  0  0  0
  6 24  1  0  0  0  0
  7 10  2  0  0  0  0
  7 21  1  0  0  0  0
  8 11  1  0  0  0  0
  8 21  2  0  0  0  0
  9 14  2  0  0  0  0
  9 23  1  0  0  0  0
 10 26  1  0  0  0  0
 11 26  2  0  0  0  0
 12 27  1  0  0  0  0
 13 27  2  0  0  0  0
 14 28  1  0  0  0  0
 15 16  2  0  0  0  0
 15 29  1  0  0  0  0
 16 30  1  0  0  0  0
 17 25  1  0  0  0  0
 17 28  2  0  0  0  0
 18 30  2  0  0  0  0
 18 31  1  0  0  0  0
 19 32  1  0  0  0  0
 20 32  1  0  0  0  0
 20 33  2  0  0  0  0
 20 34  1  0  0  0  0
 21 49  1  0  0  0  0
 22 24  2  0  0  0  0
 22 39  1  0  0  0  0
 23 25  2  0  0  0  0
 23 40  1  0  0  0  0
 24 50  1  0  0  0  0
 25 41  1  0  0  0  0
 26 70  1  0  0  0  0
 27 80  1  0  0  0  0
 28 81  1  0  0  0  0
 29 31  2  0  0  0  0
 29 80  1  0  0  0  0
 30 82  1  0  0  0  0
 31 83  1  0  0  0  0
 32 64  2  0  0  0  0
 33 65  1  0  0  0  0
 33 68  1  0  0  0  0
 34 69  1  0  0  0  0
 34 75  2  0  0  0  0
 35 51  1  0  0  0  0
 35 71  1  0  0  0  0
 35 76  2  0  0  0  0
 36 61  1  0  0  0  0
 36 66  1  0  0  0  0
 36 77  2  0  0  0  0
 37 62  1  0  0  0  0
 37 72  1  0  0  0  0
 37 78  2  0  0  0  0
 38 67  1  0  0  0  0
 38 70  1  0  0  0  0
 38 79  2  0  0  0  0
 39 42  1  0  0  0  0
 40 51  1  0  0  0  0
 41 66  1  0  0  0  0
 42 44  1  0  0  0  0
 43 45  1  0  0  0  0
 43 47  1  0  0  0  0
 44 50  1  0  0  0  0
 45 53  1  0  0  0  0
 46 52  1  0  0  0  0
 46 54  1  0  0  0  0
 47 67  1  0  0  0  0
 48 53  1  0  0  0  0
 48 67  1  0  0  0  0
 49 52  1  0  0  0  0
 49 54  1  0  0  0  0
 50 71  1  0  0  0  0
 51 66  1  0  0  0  0
 52 60  1  0  0  0  0
 53 65  1  0  0  0  0
 54 73  1  0  0  0  0
 55 62  1  0  0  0  0
 56 63  1  0  0  0  0
 57 63  1  0  0  0  0
 58 63  1  0  0  0  0
 59 74  1  0  0  0  0
 60 81  1  0  0  0  0
 61 63  1  0  0  0  0
 61 72  1  0  0  0  0
 62 74  1  0  0  0  0
 64 65  1  0  0  0  0
M  CHG  2  73   1  74   1
M  ISO  4  38 100  60 101  70 100  81 101
M  END
> <Batch ID>
0158

> <Smiles>
CNC(C)C(=O)NC(C(=O)N1Cc2cc([101O:1][101CH2:1]C3CC(N)C3c3ccc([100NH:0][100C:0](=O)N4CCCC(n5nc(-c6ccc(Oc7ccc(F)cc7F)cc6)c(C(N)=O)c5N)C4)cc3)ccc2CC1C(=O)NC1CCCc2ccccc21)C(C)(C)C

> <Shape>
0.247

> <Color>
0.078

> <Negative vol penalty>
0.000

$$$$

  -OEChem-04052322043D

 89 99  0     1  0  0  0  0  0999 V2000
  -29.2969  -36.0465   25.3764 C   0  0  0  0  0  0  0  0  0  0  0  0
  -29.2968  -34.7693   24.8249 C   0  0  0  0  0  0  0  0  0  0  0  0
  -23.7264  -10.6477   22.4506 C   0  0  0  0  0  0  0  0  0  0  0  0
  -24.5570   -8.7147   21.2630 C   0  0  0  0  0  0  0  0  0  0  0  0
  -28.1252  -36.5687   25.9227 C   0  0  0  0  0  0  0  0  0  0  0  0
  -28.1253  -34.0131   24.8204 C   0  0  0  0  0  0  0  0  0  0  0  0
  -27.2965  -31.7411   20.3711 C   0  0  0  0  0  0  0  0  0  0  0  0
  -22.5394   -9.9689   22.7255 C   0  0  0  0  0  0  0  0  0  0  0  0
  -23.3699   -8.0358   21.5379 C   0  0  0  0  0  0  0  0  0  0  0  0
  -28.0326  -30.5891   20.0975 C   0  0  0  0  0  0  0  0  0  0  0  0
  -20.7028   -5.6655   22.2357 C   0  0  0  0  0  0  0  0  0  0  0  0
  -20.7968   -4.3446   22.6739 C   0  0  0  0  0  0  0  0  0  0  0  0
  -28.8744  -22.9385   18.9662 C   0  0  0  0  0  0  0  0  0  0  0  0
  -29.3678  -23.2903   21.3050 C   0  0  0  0  0  0  0  0  0  0  0  0
  -26.1358  -29.2360   20.7224 C   0  0  0  0  0  0  0  0  0  0  0  0
  -22.0807   -5.0708   24.5874 C   0  0  0  0  0  0  0  0  0  0  0  0
  -24.7352  -10.0207   21.7193 C   0  0  0  0  0  0  0  0  0  0  0  0
  -27.1307  -10.7421   22.2184 C   0  0  0  0  0  0  0  0  0  0  0  0
  -26.9364  -35.8223   25.9162 C   0  0  0  0  0  0  0  0  0  0  0  0
  -25.9759  -31.6489   20.8336 C   0  0  0  0  0  0  0  0  0  0  0  0
  -26.9369  -34.5252   25.3684 C   0  0  0  0  0  0  0  0  0  0  0  0
  -29.0681  -23.8036   20.0431 C   0  0  0  0  0  0  0  0  0  0  0  0
  -25.3843  -30.3884   20.9987 C   0  0  0  0  0  0  0  0  0  0  0  0
  -29.2799  -21.0467   20.4132 C   0  0  0  0  0  0  0  0  0  0  0  0
  -28.9802  -21.5600   19.1513 C   0  0  0  0  0  0  0  0  0  0  0  0
  -29.4737  -21.9118   21.4900 C   0  0  0  0  0  0  0  0  0  0  0  0
  -22.3611   -8.6629   22.2692 C   0  0  0  0  0  0  0  0  0  0  0  0
  -27.4532  -29.3363   20.2759 C   0  0  0  0  0  0  0  0  0  0  0  0
  -21.2978   -6.6891   22.9733 C   0  0  0  0  0  0  0  0  0  0  0  0
  -21.4857   -4.0472   23.8497 C   0  0  0  0  0  0  0  0  0  0  0  0
  -21.9867   -6.3917   24.1492 C   0  0  0  0  0  0  0  0  0  0  0  0
  -25.9615  -10.7216   21.4346 C   0  0  0  0  0  0  0  0  0  0  0  0
  -27.9990  -11.5440   21.5188 C   0  0  0  0  0  0  0  0  0  0  0  0
  -27.4071  -10.0942   23.4672 C   0  0  0  0  0  0  0  0  0  0  0  0
  -24.4607  -32.5321   23.4846 C   0  0  0  0  0  0  0  0  0  0  0  0
  -21.8390  -31.5438   21.8499 C   0  0  0  0  0  0  0  0  0  0  0  0
  -20.5342  -29.5895   19.3750 C   0  0  0  0  0  0  0  0  0  0  0  0
  -29.1921  -16.0007   18.5632 C   0  0  0  0  0  0  0  0  0  0  0  0
  -25.7063  -36.4105   26.5610 C   0  0  0  0  0  0  0  0  0  0  0  0
  -25.1865  -32.9015   21.0986 C   0  0  0  0  0  0  0  0  0  0  0  0
  -23.9632  -30.2354   21.4736 C   0  0  0  0  0  0  0  0  0  0  0  0
  -24.4154  -35.6906   26.1797 C   0  0  0  0  0  0  0  0  0  0  0  0
  -27.7343  -13.3922   16.8257 C   0  0  0  0  0  0  0  0  0  0  0  0
  -30.2351  -26.0884   20.1757 C   0  0  0  0  0  0  0  0  0  0  0  0
  -24.5952  -34.1796   26.2863 C   0  0  0  0  0  0  0  0  0  0  0  0
  -27.2351  -12.4565   17.9264 C   0  0  0  0  0  0  0  0  0  0  0  0
  -29.8553  -27.0449   21.3047 C   0  0  0  0  0  0  0  0  0  0  0  0
  -28.0693  -18.8223   20.3225 C   0  0  0  0  0  0  0  0  0  0  0  0
  -30.5399  -18.9401   19.7825 C   0  0  0  0  0  0  0  0  0  0  0  0
  -27.8374  -25.9255   20.7037 C   0  0  0  0  0  0  0  0  0  0  0  0
  -27.4812  -14.8499   17.1923 C   0  0  0  0  0  0  0  0  0  0  0  0
  -28.2018  -17.3065   20.4957 C   0  0  0  0  0  0  0  0  0  0  0  0
  -30.6195  -17.4309   19.9934 C   0  0  0  0  0  0  0  0  0  0  0  0
  -27.5951  -14.3308   19.6080 C   0  0  0  0  0  0  0  0  0  0  0  0
  -28.9526  -25.2982   19.8426 C   0  0  2  0  0  0  0  0  0  0  0  0
  -29.3955  -19.5474   20.6140 C   0  0  0  0  0  0  0  0  0  0  0  0
  -25.6800  -33.6838   25.3225 C   0  0  1  0  0  0  0  0  0  0  0  0
  -24.0194  -32.6809   22.0560 C   0  0  1  0  0  0  0  0  0  0  0  0
  -27.8329  -12.8402   19.2916 C   0  0  1  0  0  0  0  0  0  0  0  0
  -28.3713  -27.2985   21.0888 C   0  0  2  0  0  0  0  0  0  1  0  0
  -28.7693  -20.6552   17.9815 C   0  0  0  0  0  0  0  0  0  0  0  0
  -29.7957  -21.3874   22.8513 C   0  0  0  0  0  0  0  0  0  0  0  0
  -18.3537  -28.9658   18.3007 C   0  0  0  0  0  0  0  0  0  0  0  0
  -21.1711  -29.7699   24.2410 C   0  0  0  0  0  0  0  0  0  0  0  0
  -19.5854  -28.5064   22.7722 C   0  0  0  0  0  0  0  0  0  0  0  0
  -19.2044  -30.9304   23.2214 C   0  0  0  0  0  0  0  0  0  0  0  0
  -21.3997  -30.6312   16.7435 C   0  0  0  0  0  0  0  0  0  0  0  0
  -21.1018  -30.2347   21.7023 C   0  0  1  0  0  0  0  0  0  0  0  0
  -19.5535  -29.8993   18.2584 C   0  0  2  0  0  0  0  0  0  0  0  0
  -20.2931  -29.8628   22.9771 C   0  0  0  0  0  0  0  0  0  0  0  0
  -26.0735  -11.4525   20.3223 N   0  0  0  0  0  0  0  0  0  0  0  0
  -27.3234  -11.9399   20.4022 N   0  0  0  0  0  0  0  0  0  0  0  0
  -23.2345  -31.4897   21.7254 N   0  0  0  0  0  0  0  0  0  0  0  0
  -28.0607  -15.1738   18.4958 N   0  0  0  0  0  0  0  0  0  0  0  0
  -29.3341  -16.7917   19.7132 N   0  0  0  0  0  0  0  0  0  0  0  0
  -29.2669  -11.9421   21.7561 N   0  0  0  0  0  0  0  0  0  0  0  0
  -26.4034   -9.3071   24.0481 N   0  0  0  0  0  0  0  0  0  0  0  0
  -25.1640  -33.6171   23.9720 N   0  0  0  0  0  0  0  0  0  0  0  0
  -20.2917  -30.3563   20.4951 N   0  0  0  0  0  0  0  0  0  0  0  0
  -20.2162  -29.7531   16.9316 N   0  3  0  0  0  0  0  0  0  0  0  0
  -28.5057  -10.2232   24.0588 O   0  0  0  0  0  0  0  0  0  0  0  0
  -24.1824  -31.5094   24.0996 O   0  0  0  0  0  0  0  0  0  0  0  0
  -21.1996  -32.5774   22.0607 O   0  0  0  0  0  0  0  0  0  0  0  0
  -21.4238  -28.7486   19.2660 O   0  0  0  0  0  0  0  0  0  0  0  0
  -30.0271  -16.0304   17.6504 O   0  0  0  0  0  0  0  0  0  0  0  0
  -21.2030   -8.0000   22.5374 O   0  0  0  0  0  0  0  0  0  0  0  0
  -28.1747  -28.2025   20.0085 O   0  0  0  0  0  0  0  0  0  1  0  0
  -21.5746   -2.7789   24.2712 F   0  0  0  0  0  0  0  0  0  0  0  0
  -22.5594   -7.3709   24.8627 F   0  0  0  0  0  0  0  0  0  0  0  0
  1  2  1  0  0  0  0
  1  5  2  0  0  0  0
  2  6  2  0  0  0  0
  3  8  2  0  0  0  0
  3 17  1  0  0  0  0
  4  9  1  0  0  0  0
  4 17  2  0  0  0  0
  5 19  1  0  0  0  0
  6 21  1  0  0  0  0
  7 10  2  0  0  0  0
  7 20  1  0  0  0  0
  8 27  1  0  0  0  0
  9 27  2  0  0  0  0
 10 28  1  0  0  0  0
 11 12  2  0  0  0  0
 11 29  1  0  0  0  0
 12 30  1  0  0  0  0
 13 22  1  0  0  0  0
 13 25  2  0  0  0  0
 14 22  2  0  0  0  0
 14 26  1  0  0  0  0
 15 23  1  0  0  0  0
 15 28  2  0  0  0  0
 16 30  2  0  0  0  0
 16 31  1  0  0  0  0
 17 32  1  0  0  0  0
 18 32  1  0  0  0  0
 18 33  2  0  0  0  0
 18 34  1  0  0  0  0
 19 21  2  0  0  0  0
 19 39  1  0  0  0  0
 20 23  2  0  0  0  0
 20 40  1  0  0  0  0
 21 57  1  0  0  0  0
 22 55  1  0  0  0  0
 23 41  1  0  0  0  0
 24 25  1  0  0  0  0
 24 26  2  0  0  0  0
 24 56  1  0  0  0  0
 25 61  1  0  0  0  0
 26 62  1  0  0  0  0
 27 86  1  0  0  0  0
 28 87  1  0  0  0  0
 29 31  2  0  0  0  0
 29 86  1  0  0  0  0
 30 88  1  0  0  0  0
 31 89  1  0  0  0  0
 32 71  2  0  0  0  0
 33 72  1  0  0  0  0
 33 76  1  0  0  0  0
 34 77  1  0  0  0  0
 34 81  2  0  0  0  0
 35 58  1  0  0  0  0
 35 78  1  0  0  0  0
 35 82  2  0  0  0  0
 36 68  1  0  0  0  0
 36 73  1  0  0  0  0
 36 83  2  0  0  0  0
 37 69  1  0  0  0  0
 37 79  1  0  0  0  0
 37 84  2  0  0  0  0
 38 74  1  0  0  0  0
 38 75  1  0  0  0  0
 38 85  2  0  0  0  0
 39 42  1  0  0  0  0
 40 58  1  0  0  0  0
 41 73  1  0  0  0  0
 42 45  1  0  0  0  0
 43 46  1  0  0  0  0
 43 51  1  0  0  0  0
 44 47  1  0  0  0  0
 44 55  1  0  0  0  0
 45 57  1  0  0  0  0
 46 59  1  0  0  0  0
 47 60  1  0  0  0  0
 48 52  1  0  0  0  0
 48 56  1  0  0  0  0
 49 53  1  0  0  0  0
 49 56  1  0  0  0  0
 50 55  1  0  0  0  0
 50 60  1  0  0  0  0
 51 74  1  0  0  0  0
 52 75  1  0  0  0  0
 53 75  1  0  0  0  0
 54 59  1  0  0  0  0
 54 74  1  0  0  0  0
 57 78  1  0  0  0  0
 58 73  1  0  0  0  0
 59 72  1  0  0  0  0
 60 87  1  0  0  0  0
 63 69  1  0  0  0  0
 64 70  1  0  0  0  0
 65 70  1  0  0  0  0
 66 70  1  0  0  0  0
 67 80  1  0  0  0  0
 68 70  1  0  0  0  0
 68 79  1  0  0  0  0
 69 80  1  0  0  0  0
 71 72  1  0  0  0  0
M  CHG  1  80   1
M  ISO  4  38 100  60 101  75 100  87 101
M  END
> <Batch ID>
0158

> <Smiles>
CNC(C)C(=O)NC(C(=O)N1Cc2cc([101O:1][101CH:1]3CCC(c4cc(C)c(C5CC[100N:0]([100C:0](=O)N6CCCC(n7nc(-c8ccc(Oc9ccc(F)cc9F)cc8)c(C(N)=O)c7N)C6)CC5)c(C)c4)C3)ccc2CC1C(=O)NC1CCCc2ccccc21)C(C)(C)C

> <Shape>
0.326

> <Color>
0.072

> <Negative vol penalty>
0.000

$$$$

  -OEChem-04052322043D

 86 95  0     1  0  0  0  0  0999 V2000
  -14.9512  -30.1675   20.5282 C   0  0  0  0  0  0  0  0  0  0  0  0
  -15.7247  -29.1155   20.0482 C   0  0  0  0  0  0  0  0  0  0  0  0
  -23.0669  -10.0081   19.9222 C   0  0  0  0  0  0  0  0  0  0  0  0
  -23.9389   -9.7133   22.1560 C   0  0  0  0  0  0  0  0  0  0  0  0
  -15.2727  -30.7696   21.7439 C   0  0  0  0  0  0  0  0  0  0  0  0
  -16.8209  -28.6656   20.7833 C   0  0  0  0  0  0  0  0  0  0  0  0
  -18.8449  -22.9022   21.2215 C   0  0  0  0  0  0  0  0  0  0  0  0
  -22.3003   -8.8521   20.0688 C   0  0  0  0  0  0  0  0  0  0  0  0
  -23.1722   -8.5573   22.3027 C   0  0  0  0  0  0  0  0  0  0  0  0
  -19.8719  -22.2169   20.5738 C   0  0  0  0  0  0  0  0  0  0  0  0
  -19.9542   -7.7730   22.9733 C   0  0  0  0  0  0  0  0  0  0  0  0
  -19.2550   -7.6083   24.1689 C   0  0  0  0  0  0  0  0  0  0  0  0
  -24.7076  -18.4257   18.9533 C   0  0  0  0  0  0  0  0  0  0  0  0
  -21.3434  -22.6821   22.4278 C   0  0  0  0  0  0  0  0  0  0  0  0
  -23.5951  -20.5590   17.5412 C   0  0  0  0  0  0  0  0  0  0  0  0
  -20.4696   -5.5641   24.5974 C   0  0  0  0  0  0  0  0  0  0  0  0
  -23.8862  -10.4387   20.9657 C   0  0  0  0  0  0  0  0  0  0  0  0
  -24.3011  -12.9500   21.1361 C   0  0  0  0  0  0  0  0  0  0  0  0
  -16.3677  -30.3205   22.4989 C   0  0  0  0  0  0  0  0  0  0  0  0
  -19.0630  -23.4929   22.4744 C   0  0  0  0  0  0  0  0  0  0  0  0
  -17.1582  -29.2632   22.0097 C   0  0  0  0  0  0  0  0  0  0  0  0
  -25.2713  -18.8308   17.7434 C   0  0  0  0  0  0  0  0  0  0  0  0
  -20.3168  -23.3722   23.0905 C   0  0  0  0  0  0  0  0  0  0  0  0
  -23.5876  -19.0872   19.4571 C   0  0  0  0  0  0  0  0  0  0  0  0
  -23.0314  -20.1539   18.7510 C   0  0  0  0  0  0  0  0  0  0  0  0
  -22.3529   -8.1267   21.2591 C   0  0  0  0  0  0  0  0  0  0  0  0
  -21.1222  -22.1093   21.1757 C   0  0  0  0  0  0  0  0  0  0  0  0
  -20.9110   -6.8333   22.5896 C   0  0  0  0  0  0  0  0  0  0  0  0
  -24.7151  -19.8975   17.0374 C   0  0  0  0  0  0  0  0  0  0  0  0
  -19.5128   -6.5038   24.9810 C   0  0  0  0  0  0  0  0  0  0  0  0
  -21.1687   -5.7289   23.4017 C   0  0  0  0  0  0  0  0  0  0  0  0
  -24.6788  -11.6325   20.8146 C   0  0  0  0  0  0  0  0  0  0  0  0
  -25.3971  -13.7107   20.8096 C   0  0  0  0  0  0  0  0  0  0  0  0
  -23.0698  -13.4421   21.6813 C   0  0  0  0  0  0  0  0  0  0  0  0
  -18.9725  -26.4644   23.5997 C   0  0  0  0  0  0  0  0  0  0  0  0
  -19.4463  -24.9851   26.4474 C   0  0  0  0  0  0  0  0  0  0  0  0
  -20.6077  -22.2570   28.1372 C   0  0  0  0  0  0  0  0  0  0  0  0
  -29.5497  -15.0889   17.5277 C   0  0  0  0  0  0  0  0  0  0  0  0
  -16.7044  -31.0338   23.7845 C   0  0  0  0  0  0  0  0  0  0  0  0
  -17.9371  -24.2058   23.1720 C   0  0  0  0  0  0  0  0  0  0  0  0
  -20.5964  -23.9711   24.4438 C   0  0  0  0  0  0  0  0  0  0  0  0
  -17.6585  -30.2514   24.6832 C   0  0  0  0  0  0  0  0  0  0  0  0
  -30.1098  -12.3670   19.5842 C   0  0  0  0  0  0  0  0  0  0  0  0
  -18.8276  -29.7028   23.8713 C   0  0  0  0  0  0  0  0  0  0  0  0
  -28.7198  -12.0290   20.1233 C   0  0  0  0  0  0  0  0  0  0  0  0
  -27.6979  -18.2308   18.1560 C   0  0  0  0  0  0  0  0  0  0  0  0
  -26.1914  -16.6204   16.9159 C   0  0  0  0  0  0  0  0  0  0  0  0
  -30.0484  -12.7324   18.1054 C   0  0  0  0  0  0  0  0  0  0  0  0
  -28.9103  -17.4710   17.6230 C   0  0  0  0  0  0  0  0  0  0  0  0
  -27.4368  -15.8985   16.4097 C   0  0  0  0  0  0  0  0  0  0  0  0
  -27.7196  -13.5317   18.3329 C   0  0  0  0  0  0  0  0  0  0  0  0
  -26.4904  -18.1007   17.2117 C   0  0  0  0  0  0  0  0  0  0  0  0
  -18.3403  -28.7306   22.7901 C   0  0  1  0  0  0  0  0  0  0  0  0
  -18.4202  -25.2095   24.2144 C   0  0  1  0  0  0  0  0  0  0  0  0
  -27.7230  -13.1642   19.8303 C   0  0  1  0  0  0  0  0  0  0  0  0
  -23.0004  -18.6338   20.7533 C   0  0  0  0  0  0  0  0  0  0  0  0
  -20.8934  -21.3538   30.4610 C   0  0  0  0  0  0  0  0  0  0  0  0
  -21.8290  -26.8427   26.8739 C   0  0  0  0  0  0  0  0  0  0  0  0
  -22.6160  -25.3034   28.6849 C   0  0  0  0  0  0  0  0  0  0  0  0
  -20.4213  -26.4682   28.9067 C   0  0  0  0  0  0  0  0  0  0  0  0
  -18.8581  -19.9371   27.5753 C   0  0  0  0  0  0  0  0  0  0  0  0
  -24.6209  -21.4035   15.1993 C   0  0  0  0  0  0  0  0  0  0  0  0
  -21.8313  -20.8754   19.2702 C   0  0  0  0  0  0  0  0  0  1  0  0
  -20.6568  -24.5732   27.2498 C   0  0  1  0  0  0  0  0  0  0  0  0
  -19.9892  -21.4166   29.2398 C   0  0  2  0  0  0  0  0  0  0  0  0
  -21.3764  -25.7871   27.9024 C   0  0  0  0  0  0  0  0  0  0  0  0
  -25.9178  -11.5570   20.3215 N   0  0  0  0  0  0  0  0  0  0  0  0
  -26.3282  -12.8367   20.3307 N   0  0  0  0  0  0  0  0  0  0  0  0
  -19.4653  -24.6637   25.0828 N   0  0  0  0  0  0  0  0  0  0  0  0
  -29.0868  -13.8087   17.8679 N   0  0  0  0  0  0  0  0  0  0  0  0
  -28.5766  -16.0800   17.3189 N   0  0  0  0  0  0  0  0  0  0  0  0
  -25.6455  -15.0353   20.8882 N   0  0  0  0  0  0  0  0  0  0  0  0
  -22.0476  -12.5242   21.9583 N   0  0  0  0  0  0  0  0  0  0  0  0
  -18.0246  -27.4439   23.3725 N   0  0  0  0  0  0  0  0  0  0  0  0
  -20.1931  -23.5704   28.2026 N   0  0  0  0  0  0  0  0  0  0  0  0
  -19.7509  -20.0261   28.7594 N   0  3  0  0  0  0  0  0  0  0  0  0
  -22.8755  -14.6619   21.9004 O   0  0  0  0  0  0  0  0  0  0  0  0
  -20.1701  -26.5390   23.3512 O   0  0  0  0  0  0  0  0  0  0  0  0
  -18.5149  -25.5642   27.0121 O   0  0  0  0  0  0  0  0  0  0  0  0
  -21.3841  -21.7954   27.3037 O   0  0  0  0  0  0  0  0  0  0  0  0
  -30.7576  -15.3354   17.4220 O   0  0  0  0  0  0  0  0  0  0  0  0
  -21.6048   -6.9987   21.4026 O   0  0  0  0  0  0  0  0  0  0  0  0
  -25.2529  -20.3054   15.8539 O   0  0  0  0  0  0  0  0  0  0  0  0
  -22.1337  -21.4367   20.5409 O   0  0  0  0  0  0  0  0  0  1  0  0
  -18.8424   -6.3465   26.1300 F   0  0  0  0  0  0  0  0  0  0  0  0
  -22.0876   -4.8234   23.0389 F   0  0  0  0  0  0  0  0  0  0  0  0
  1  2  1  0  0  0  0
  1  5  2  0  0  0  0
  2  6  2  0  0  0  0
  3  8  2  0  0  0  0
  3 17  1  0  0  0  0
  4  9  1  0  0  0  0
  4 17  2  0  0  0  0
  5 19  1  0  0  0  0
  6 21  1  0  0  0  0
  7 10  2  0  0  0  0
  7 20  1  0  0  0  0
  8 26  1  0  0  0  0
  9 26  2  0  0  0  0
 10 27  1  0  0  0  0
 11 12  2  0  0  0  0
 11 28  1  0  0  0  0
 12 30  1  0  0  0  0
 13 22  2  0  0  0  0
 13 24  1  0  0  0  0
 14 23  1  0  0  0  0
 14 27  2  0  0  0  0
 15 25  1  0  0  0  0
 15 29  2  0  0  0  0
 16 30  2  0  0  0  0
 16 31  1  0  0  0  0
 17 32  1  0  0  0  0
 18 32  1  0  0  0  0
 18 33  2  0  0  0  0
 18 34  1  0  0  0  0
 19 21  2  0  0  0  0
 19 39  1  0  0  0  0
 20 23  2  0  0  0  0
 20 40  1  0  0  0  0
 21 53  1  0  0  0  0
 22 29  1  0  0  0  0
 22 52  1  0  0  0  0
 23 41  1  0  0  0  0
 24 25  2  0  0  0  0
 24 56  1  0  0  0  0
 25 63  1  0  0  0  0
 26 82  1  0  0  0  0
 27 84  1  0  0  0  0
 28 31  2  0  0  0  0
 28 82  1  0  0  0  0
 29 83  1  0  0  0  0
 30 85  1  0  0  0  0
 31 86  1  0  0  0  0
 32 67  2  0  0  0  0
 33 68  1  0  0  0  0
 33 72  1  0  0  0  0
 34 73  1  0  0  0  0
 34 77  2  0  0  0  0
 35 54  1  0  0  0  0
 35 74  1  0  0  0  0
 35 78  2  0  0  0  0
 36 64  1  0  0  0  0
 36 69  1  0  0  0  0
 36 79  2  0  0  0  0
 37 65  1  0  0  0  0
 37 75  1  0  0  0  0
 37 80  2  0  0  0  0
 38 70  1  0  0  0  0
 38 71  1  0  0  0  0
 38 81  2  0  0  0  0
 39 42  1  0  0  0  0
 40 54  1  0  0  0  0
 41 69  1  0  0  0  0
 42 44  1  0  0  0  0
 43 45  1  0  0  0  0
 43 48  1  0  0  0  0
 44 53  1  0  0  0  0
 45 55  1  0  0  0  0
 46 49  1  0  0  0  0
 46 52  1  0  0  0  0
 47 50  1  0  0  0  0
 47 52  1  0  0  0  0
 48 70  1  0  0  0  0
 49 71  1  0  0  0  0
 50 71  1  0  0  0  0
 51 55  1  0  0  0  0
 51 70  1  0  0  0  0
 53 74  1  0  0  0  0
 54 69  1  0  0  0  0
 55 68  1  0  0  0  0
 57 65  1  0  0  0  0
 58 66  1  0  0  0  0
 59 66  1  0  0  0  0
 60 66  1  0  0  0  0
 61 76  1  0  0  0  0
 62 83  1  0  0  0  0
 63 84  1  0  0  0  0
 64 66  1  0  0  0  0
 64 75  1  0  0  0  0
 65 76  1  0  0  0  0
 67 68  1  0  0  0  0
M  CHG  1  76   1
M  ISO  4  38 100  63 101  71 100  84 101
M  END
> <Batch ID>
0158

> <Smiles>
CNC(C)C(=O)NC(C(=O)N1Cc2cc([101O:1][101CH2:1]c3cc(OC)c(C4CC[100N:0]([100C:0](=O)N5CCCC(n6nc(-c7ccc(Oc8ccc(F)cc8F)cc7)c(C(N)=O)c6N)C5)CC4)cc3C)ccc2CC1C(=O)NC1CCCc2ccccc21)C(C)(C)C

> <Shape>
0.188

> <Color>
0.165

> <Negative vol penalty>
0.000

$$$$

  -OEChem-04052322043D

 83 92  0     1  0  0  0  0  0999 V2000
  -22.5938  -28.7977   20.5097 C   0  0  0  0  0  0  0  0  0  0  0  0
  -23.1364  -27.5908   20.9393 C   0  0  0  0  0  0  0  0  0  0  0  0
  -23.0564   -9.8938   19.9384 C   0  0  0  0  0  0  0  0  0  0  0  0
  -23.8456   -9.8627   22.2216 C   0  0  0  0  0  0  0  0  0  0  0  0
  -21.2207  -28.9055   20.2933 C   0  0  0  0  0  0  0  0  0  0  0  0
  -22.3060  -26.4914   21.1539 C   0  0  0  0  0  0  0  0  0  0  0  0
  -24.2031  -22.2158   19.2135 C   0  0  0  0  0  0  0  0  0  0  0  0
  -22.3115   -8.7396   20.1801 C   0  0  0  0  0  0  0  0  0  0  0  0
  -23.1006   -8.7084   22.4634 C   0  0  0  0  0  0  0  0  0  0  0  0
  -25.2148  -21.5833   19.9347 C   0  0  0  0  0  0  0  0  0  0  0  0
  -22.8751   -5.4150   20.4125 C   0  0  0  0  0  0  0  0  0  0  0  0
  -22.9261   -4.3998   19.4574 C   0  0  0  0  0  0  0  0  0  0  0  0
  -29.0172  -18.6592   21.5106 C   0  0  0  0  0  0  0  0  0  0  0  0
  -23.6000  -20.0270   20.8233 C   0  0  0  0  0  0  0  0  0  0  0  0
  -28.1648  -19.7051   23.5364 C   0  0  0  0  0  0  0  0  0  0  0  0
  -20.5379   -4.5794   19.1390 C   0  0  0  0  0  0  0  0  0  0  0  0
  -23.8235  -10.4553   20.9591 C   0  0  0  0  0  0  0  0  0  0  0  0
  -24.1732  -12.9808   20.8736 C   0  0  0  0  0  0  0  0  0  0  0  0
  -20.3743  -27.8041   20.4960 C   0  0  0  0  0  0  0  0  0  0  0  0
  -22.8782  -21.7647   19.3004 C   0  0  0  0  0  0  0  0  0  0  0  0
  -20.9201  -26.5850   20.9413 C   0  0  0  0  0  0  0  0  0  0  0  0
  -29.8729  -17.9113   22.3005 C   0  0  0  0  0  0  0  0  0  0  0  0
  -22.5737  -20.6540   20.1003 C   0  0  0  0  0  0  0  0  0  0  0  0
  -28.1596  -19.5660   22.1388 C   0  0  0  0  0  0  0  0  0  0  0  0
  -29.0298  -18.9422   24.3225 C   0  0  0  0  0  0  0  0  0  0  0  0
  -29.8757  -18.0593   23.6791 C   0  0  0  0  0  0  0  0  0  0  0  0
  -22.3336   -8.1469   21.4426 C   0  0  0  0  0  0  0  0  0  0  0  0
  -24.9128  -20.4905   20.7420 C   0  0  0  0  0  0  0  0  0  0  0  0
  -21.6555   -6.0124   20.7310 C   0  0  0  0  0  0  0  0  0  0  0  0
  -21.7575   -3.9820   18.8206 C   0  0  0  0  0  0  0  0  0  0  0  0
  -20.4869   -5.5946   20.0942 C   0  0  0  0  0  0  0  0  0  0  0  0
  -24.5937  -11.6473   20.7099 C   0  0  0  0  0  0  0  0  0  0  0  0
  -25.2634  -13.7320   20.5079 C   0  0  0  0  0  0  0  0  0  0  0  0
  -22.9101  -13.4946   21.3167 C   0  0  0  0  0  0  0  0  0  0  0  0
  -20.1377  -23.0323   20.2937 C   0  0  0  0  0  0  0  0  0  0  0  0
  -18.8916  -20.2684   19.1404 C   0  0  0  0  0  0  0  0  0  0  0  0
  -19.3794  -16.9937   18.3125 C   0  0  0  0  0  0  0  0  0  0  0  0
  -30.7528  -14.7286   20.6414 C   0  0  0  0  0  0  0  0  0  0  0  0
  -18.8903  -27.9822   20.2944 C   0  0  0  0  0  0  0  0  0  0  0  0
  -21.8028  -22.4414   18.4953 C   0  0  0  0  0  0  0  0  0  0  0  0
  -21.1706  -20.1181   20.2122 C   0  0  0  0  0  0  0  0  0  0  0  0
  -18.1279  -26.6643   20.1847 C   0  0  0  0  0  0  0  0  0  0  0  0
  -29.5759  -12.3852   18.2331 C   0  0  0  0  0  0  0  0  0  0  0  0
  -18.5647  -25.7018   21.2845 C   0  0  0  0  0  0  0  0  0  0  0  0
  -28.1430  -12.0899   18.6799 C   0  0  0  0  0  0  0  0  0  0  0  0
  -30.5092  -12.5843   19.4253 C   0  0  0  0  0  0  0  0  0  0  0  0
  -28.6280  -13.3006   20.8473 C   0  0  0  0  0  0  0  0  0  0  0  0
  -20.0551  -25.3629   21.1612 C   0  0  1  0  0  0  0  0  0  0  0  0
  -30.8425  -16.8596   21.9103 C   0  0  1  0  0  0  0  0  0  0  0  0
  -20.4034  -22.2171   19.0598 C   0  0  1  0  0  0  0  0  0  0  0  0
  -27.6383  -13.1476   19.6798 C   0  0  2  0  0  0  0  0  0  0  0  0
  -31.5883  -16.6863   23.2501 C   0  0  1  0  0  0  0  0  0  0  0  0
  -29.0350  -19.0889   25.8034 C   0  0  0  0  0  0  0  0  0  0  0  0
  -32.9428  -17.3948   23.2583 C   0  0  0  0  0  0  0  0  0  0  0  0
  -18.1644  -14.9826   17.4312 C   0  0  0  0  0  0  0  0  0  0  0  0
  -17.5836  -19.8664   21.8676 C   0  0  0  0  0  0  0  0  0  0  0  0
  -17.2038  -17.4689   21.2544 C   0  0  0  0  0  0  0  0  0  0  0  0
  -16.1311  -19.2814   19.9175 C   0  0  0  0  0  0  0  0  0  0  0  0
  -21.1313  -16.8341   15.9326 C   0  0  0  0  0  0  0  0  0  0  0  0
  -27.2193  -20.3946   21.3138 C   0  0  0  0  0  0  0  0  0  1  0  0
  -18.6215  -18.8972   19.7113 C   0  0  1  0  0  0  0  0  0  0  0  0
  -19.0019  -16.2008   17.0743 C   0  0  2  0  0  0  0  0  0  0  0  0
  -17.4112  -18.8896   20.6873 C   0  0  0  0  0  0  0  0  0  0  0  0
  -25.8527  -11.5535   20.2740 N   0  0  0  0  0  0  0  0  0  0  0  0
  -26.2327  -12.8376   20.1606 N   0  0  0  0  0  0  0  0  0  0  0  0
  -20.1530  -20.8176   19.4106 N   0  0  0  0  0  0  0  0  0  0  0  0
  -29.9738  -13.6009   20.3340 N   0  0  0  0  0  0  0  0  0  0  0  0
  -25.4778  -15.0636   20.4527 N   0  0  0  0  0  0  0  0  0  0  0  0
  -21.8992  -12.5839   21.6529 N   0  0  0  0  0  0  0  0  0  0  0  0
  -20.2678  -24.3952   20.1063 N   0  0  0  0  0  0  0  0  0  0  0  0
  -18.4739  -18.0014   18.5693 N   0  0  0  0  0  0  0  0  0  0  0  0
  -30.1680  -15.6464   21.5053 N   0  0  0  0  0  0  0  0  0  0  0  0
  -20.2266  -15.7371   16.3629 N   0  3  0  0  0  0  0  0  0  0  0  0
  -22.6792  -14.7250   21.3960 O   0  0  0  0  0  0  0  0  0  0  0  0
  -19.8355  -22.4669   21.3380 O   0  0  0  0  0  0  0  0  0  0  0  0
  -18.0182  -20.8284   18.4730 O   0  0  0  0  0  0  0  0  0  0  0  0
  -20.3756  -16.7419   18.9867 O   0  0  0  0  0  0  0  0  0  0  0  0
  -31.8836  -14.9070   20.1760 O   0  0  0  0  0  0  0  0  0  0  0  0
  -30.7780  -17.2481   24.3178 O   0  0  0  0  0  0  0  0  0  0  0  0
  -21.6066   -7.0207   21.6789 O   0  0  0  0  0  0  0  0  0  0  0  0
  -25.8983  -19.8717   21.4475 O   0  0  0  0  0  0  0  0  0  1  0  0
  -21.8069   -3.0081   17.9023 F   0  0  0  0  0  0  0  0  0  0  0  0
  -19.3125   -6.1656   20.3950 F   0  0  0  0  0  0  0  0  0  0  0  0
  1  2  1  0  0  0  0
  1  5  2  0  0  0  0
  2  6  2  0  0  0  0
  3  8  2  0  0  0  0
  3 17  1  0  0  0  0
  4  9  1  0  0  0  0
  4 17  2  0  0  0  0
  5 19  1  0  0  0  0
  6 21  1  0  0  0  0
  7 10  2  0  0  0  0
  7 20  1  0  0  0  0
  8 27  1  0  0  0  0
  9 27  2  0  0  0  0
 10 28  1  0  0  0  0
 11 12  2  0  0  0  0
 11 29  1  0  0  0  0
 12 30  1  0  0  0  0
 13 22  1  0  0  0  0
 13 24  2  0  0  0  0
 14 23  1  0  0  0  0
 14 28  2  0  0  0  0
 15 24  1  0  0  0  0
 15 25  2  0  0  0  0
 16 30  2  0  0  0  0
 16 31  1  0  0  0  0
 17 32  1  0  0  0  0
 18 32  1  0  0  0  0
 18 33  2  0  0  0  0
 18 34  1  0  0  0  0
 19 21  2  0  0  0  0
 19 39  1  0  0  0  0
 20 23  2  0  0  0  0
 20 40  1  0  0  0  0
 21 48  1  0  0  0  0
 22 26  2  0  0  0  0
 22 49  1  0  0  0  0
 23 41  1  0  0  0  0
 24 60  1  0  0  0  0
 25 26  1  0  0  0  0
 25 53  1  0  0  0  0
 26 79  1  0  0  0  0
 27 80  1  0  0  0  0
 28 81  1  0  0  0  0
 29 31  2  0  0  0  0
 29 80  1  0  0  0  0
 30 82  1  0  0  0  0
 31 83  1  0  0  0  0
 32 64  2  0  0  0  0
 33 65  1  0  0  0  0
 33 68  1  0  0  0  0
 34 69  1  0  0  0  0
 34 74  2  0  0  0  0
 35 50  1  0  0  0  0
 35 70  1  0  0  0  0
 35 75  2  0  0  0  0
 36 61  1  0  0  0  0
 36 66  1  0  0  0  0
 36 76  2  0  0  0  0
 37 62  1  0  0  0  0
 37 71  1  0  0  0  0
 37 77  2  0  0  0  0
 38 67  1  0  0  0  0
 38 72  1  0  0  0  0
 38 78  2  0  0  0  0
 39 42  1  0  0  0  0
 40 50  1  0  0  0  0
 41 66  1  0  0  0  0
 42 44  1  0  0  0  0
 43 45  1  0  0  0  0
 43 46  1  0  0  0  0
 44 48  1  0  0  0  0
 45 51  1  0  0  0  0
 46 67  1  0  0  0  0
 47 51  1  0  0  0  0
 47 67  1  0  0  0  0
 48 70  1  0  0  0  0
 49 52  1  0  0  0  0
 49 72  1  0  0  0  0
 50 66  1  0  0  0  0
 51 65  1  0  0  0  0
 52 54  1  0  0  0  0
 52 79  1  0  0  0  0
 55 62  1  0  0  0  0
 56 63  1  0  0  0  0
 57 63  1  0  0  0  0
 58 63  1  0  0  0  0
 59 73  1  0  0  0  0
 60 81  1  0  0  0  0
 61 63  1  0  0  0  0
 61 71  1  0  0  0  0
 62 73  1  0  0  0  0
 64 65  1  0  0  0  0
M  CHG  1  73   1
M  ISO  4  38 100  60 101  72 100  81 101
M  END
> <Batch ID>
0158

> <Smiles>
CNC(C)C(=O)NC(C(=O)N1Cc2cc([101O:1][101CH2:1]c3cc(C)c4c(c3)C([100NH:0][100C:0](=O)N3CCCC(n5nc(-c6ccc(Oc7ccc(F)cc7F)cc6)c(C(N)=O)c5N)C3)C(C)O4)ccc2CC1C(=O)NC1CCCc2ccccc21)C(C)(C)C

> <Shape>
0.201

> <Color>
0.191

> <Negative vol penalty>
0.000

$$$$

  -OEChem-04052322043D

 86 95  0     1  0  0  0  0  0999 V2000
  -22.4489  -37.1785   17.9113 C   0  0  0  0  0  0  0  0  0  0  0  0
  -22.8547  -35.9723   17.3496 C   0  0  0  0  0  0  0  0  0  0  0  0
  -24.1942   -9.8100   22.1148 C   0  0  0  0  0  0  0  0  0  0  0  0
  -24.1076   -8.9034   19.8771 C   0  0  0  0  0  0  0  0  0  0  0  0
  -22.9274  -37.5586   19.1645 C   0  0  0  0  0  0  0  0  0  0  0  0
  -23.7403  -35.1458   18.0403 C   0  0  0  0  0  0  0  0  0  0  0  0
  -25.2901  -28.2239   19.0413 C   0  0  0  0  0  0  0  0  0  0  0  0
  -23.0489   -9.0887   22.4515 C   0  0  0  0  0  0  0  0  0  0  0  0
  -22.9622   -8.1820   20.2137 C   0  0  0  0  0  0  0  0  0  0  0  0
  -26.3688  -27.3424   18.9839 C   0  0  0  0  0  0  0  0  0  0  0  0
  -22.2644   -5.9076   23.2869 C   0  0  0  0  0  0  0  0  0  0  0  0
  -22.2617   -5.2265   24.5042 C   0  0  0  0  0  0  0  0  0  0  0  0
  -27.0680  -28.0647   21.1767 C   0  0  0  0  0  0  0  0  0  0  0  0
  -32.0166  -24.3402   18.9561 C   0  0  0  0  0  0  0  0  0  0  0  0
  -29.4190  -23.3546   19.2081 C   0  0  0  0  0  0  0  0  0  0  0  0
  -20.3535   -6.5216   25.2245 C   0  0  0  0  0  0  0  0  0  0  0  0
  -24.7236   -9.7175   20.8276 C   0  0  0  0  0  0  0  0  0  0  0  0
  -27.2438  -10.0397   20.5985 C   0  0  0  0  0  0  0  0  0  0  0  0
  -23.8117  -36.7318   19.8752 C   0  0  0  0  0  0  0  0  0  0  0  0
  -25.0982  -29.0416   20.1642 C   0  0  0  0  0  0  0  0  0  0  0  0
  -24.2322  -35.5157   19.3036 C   0  0  0  0  0  0  0  0  0  0  0  0
  -25.9847  -28.9539   21.2470 C   0  0  0  0  0  0  0  0  0  0  0  0
  -30.9279  -25.2026   18.8269 C   0  0  0  0  0  0  0  0  0  0  0  0
  -31.8065  -22.9850   19.2113 C   0  0  0  0  0  0  0  0  0  0  0  0
  -29.6291  -24.7098   18.9529 C   0  0  0  0  0  0  0  0  0  0  0  0
  -22.4329   -8.2747   21.5009 C   0  0  0  0  0  0  0  0  0  0  0  0
  -27.2596  -27.2648   20.0505 C   0  0  0  0  0  0  0  0  0  0  0  0
  -21.3118   -6.8957   23.0384 C   0  0  0  0  0  0  0  0  0  0  0  0
  -30.5077  -22.4923   19.3373 C   0  0  0  0  0  0  0  0  0  0  0  0
  -21.3062   -5.5335   25.4729 C   0  0  0  0  0  0  0  0  0  0  0  0
  -20.3563   -7.2027   24.0072 C   0  0  0  0  0  0  0  0  0  0  0  0
  -25.9064  -10.4628   20.4791 C   0  0  0  0  0  0  0  0  0  0  0  0
  -27.9825  -11.1024   20.1385 C   0  0  0  0  0  0  0  0  0  0  0  0
  -27.7712   -8.7972   21.0820 C   0  0  0  0  0  0  0  0  0  0  0  0
  -25.0394  -32.1791   20.6705 C   0  0  0  0  0  0  0  0  0  0  0  0
  -24.1504  -31.2868   23.6598 C   0  0  0  0  0  0  0  0  0  0  0  0
  -24.1405  -28.8843   26.0836 C   0  0  0  0  0  0  0  0  0  0  0  0
  -29.1638  -16.3298   19.8368 C   0  0  0  0  0  0  0  0  0  0  0  0
  -24.3390  -37.2071   21.2059 C   0  0  0  0  0  0  0  0  0  0  0  0
  -23.9145  -29.9679   20.2220 C   0  0  0  0  0  0  0  0  0  0  0  0
  -25.8114  -29.7955   22.4840 C   0  0  0  0  0  0  0  0  0  0  0  0
  -24.9818  -36.0997   22.0370 C   0  0  0  0  0  0  0  0  0  0  0  0
  -26.5729  -15.2984   17.7048 C   0  0  0  0  0  0  0  0  0  0  0  0
  -25.9275  -35.2673   21.1771 C   0  0  0  0  0  0  0  0  0  0  0  0
  -26.2706  -13.9021   18.2482 C   0  0  0  0  0  0  0  0  0  0  0  0
  -30.3655  -19.3251   18.0115 C   0  0  0  0  0  0  0  0  0  0  0  0
  -28.2362  -19.9128   19.2487 C   0  0  0  0  0  0  0  0  0  0  0  0
  -26.8406  -16.3039   18.8260 C   0  0  0  0  0  0  0  0  0  0  0  0
  -30.5763  -18.1605   18.9778 C   0  0  0  0  0  0  0  0  0  0  0  0
  -28.4976  -18.7378   20.1883 C   0  0  0  0  0  0  0  0  0  0  0  0
  -27.5878  -14.4812   20.3212 C   0  0  0  0  0  0  0  0  0  0  0  0
  -25.1722  -34.5805   20.0328 C   0  0  1  0  0  0  0  0  0  0  0  0
  -24.1080  -31.1246   21.1978 C   0  0  1  0  0  0  0  0  0  0  0  0
  -27.3723  -13.4354   19.2163 C   0  0  1  0  0  0  0  0  0  0  0  0
  -29.5221  -20.4481   18.6163 C   0  0  0  0  0  0  0  0  0  0  0  0
  -31.1769  -26.6493   18.5521 C   0  0  0  0  0  0  0  0  0  0  0  0
  -32.9835  -22.0764   19.3476 C   0  0  0  0  0  0  0  0  0  0  0  0
  -23.3697  -28.4603   28.4338 C   0  0  0  0  0  0  0  0  0  0  0  0
  -26.4410  -33.0024   24.7179 C   0  0  0  0  0  0  0  0  0  0  0  0
  -26.2260  -31.8135   26.9108 C   0  0  0  0  0  0  0  0  0  0  0  0
  -24.3211  -33.1651   26.0348 C   0  0  0  0  0  0  0  0  0  0  0  0
  -22.4074  -26.6408   25.2339 C   0  0  0  0  0  0  0  0  0  0  0  0
  -28.4477  -25.6135   18.8186 C   0  0  0  0  0  0  0  0  0  1  0  0
  -24.8813  -30.9568   24.9388 C   0  0  1  0  0  0  0  0  0  0  0  0
  -23.0251  -28.3397   26.9575 C   0  0  2  0  0  0  0  0  0  0  0  0
  -25.4720  -32.2198   25.6266 C   0  0  0  0  0  0  0  0  0  0  0  0
  -25.7988  -11.6980   19.9823 N   0  0  0  0  0  0  0  0  0  0  0  0
  -27.0779  -12.0602   19.7856 N   0  0  0  0  0  0  0  0  0  0  0  0
  -24.6424  -30.6904   22.4901 N   0  0  0  0  0  0  0  0  0  0  0  0
  -27.8690  -15.7976   19.7446 N   0  0  0  0  0  0  0  0  0  0  0  0
  -29.3108  -17.6966   19.5456 N   0  0  0  0  0  0  0  0  0  0  0  0
  -29.3110  -11.3016   20.0056 N   0  0  0  0  0  0  0  0  0  0  0  0
  -26.8721   -7.8136   21.5161 N   0  0  0  0  0  0  0  0  0  0  0  0
  -24.4555  -33.4229   20.5234 N   0  0  0  0  0  0  0  0  0  0  0  0
  -23.9393  -30.2110   25.7664 N   0  0  0  0  0  0  0  0  0  0  0  0
  -22.7793  -26.9027   26.6481 N   0  3  0  0  0  0  0  0  0  0  0  0
  -29.0037   -8.5723   21.1430 O   0  0  0  0  0  0  0  0  0  0  0  0
  -26.2022  -31.8865   20.4174 O   0  0  0  0  0  0  0  0  0  0  0  0
  -23.1743  -32.0401   23.6981 O   0  0  0  0  0  0  0  0  0  0  0  0
  -25.0966  -28.2021   25.7217 O   0  0  0  0  0  0  0  0  0  0  0  0
  -30.1318  -15.6283   20.1560 O   0  0  0  0  0  0  0  0  0  0  0  0
  -21.3153   -7.5704   21.8291 O   0  0  0  0  0  0  0  0  0  0  0  0
  -30.2835  -21.1639   19.5865 O   0  0  0  0  0  0  0  0  0  0  0  0
  -28.3211  -26.3997   19.9963 O   0  0  0  0  0  0  0  0  0  1  0  0
  -21.3027   -4.8783   26.6412 F   0  0  0  0  0  0  0  0  0  0  0  0
  -19.4378   -8.1502   23.7737 F   0  0  0  0  0  0  0  0  0  0  0  0
  1  2  1  0  0  0  0
  1  5  2  0  0  0  0
  2  6  2  0  0  0  0
  3  8  2  0  0  0  0
  3 17  1  0  0  0  0
  4  9  1  0  0  0  0
  4 17  2  0  0  0  0
  5 19  1  0  0  0  0
  6 21  1  0  0  0  0
  7 10  2  0  0  0  0
  7 20  1  0  0  0  0
  8 26  1  0  0  0  0
  9 26  2  0  0  0  0
 10 27  1  0  0  0  0
 11 12  2  0  0  0  0
 11 28  1  0  0  0  0
 12 30  1  0  0  0  0
 13 22  1  0  0  0  0
 13 27  2  0  0  0  0
 14 23  1  0  0  0  0
 14 24  2  0  0  0  0
 15 25  1  0  0  0  0
 15 29  2  0  0  0  0
 16 30  2  0  0  0  0
 16 31  1  0  0  0  0
 17 32  1  0  0  0  0
 18 32  1  0  0  0  0
 18 33  2  0  0  0  0
 18 34  1  0  0  0  0
 19 21  2  0  0  0  0
 19 39  1  0  0  0  0
 20 22  2  0  0  0  0
 20 40  1  0  0  0  0
 21 52  1  0  0  0  0
 22 41  1  0  0  0  0
 23 25  2  0  0  0  0
 23 56  1  0  0  0  0
 24 29  1  0  0  0  0
 24 57  1  0  0  0  0
 25 63  1  0  0  0  0
 26 82  1  0  0  0  0
 27 84  1  0  0  0  0
 28 31  2  0  0  0  0
 28 82  1  0  0  0  0
 29 83  1  0  0  0  0
 30 85  1  0  0  0  0
 31 86  1  0  0  0  0
 32 67  2  0  0  0  0
 33 68  1  0  0  0  0
 33 72  1  0  0  0  0
 34 73  1  0  0  0  0
 34 77  2  0  0  0  0
 35 53  1  0  0  0  0
 35 74  1  0  0  0  0
 35 78  2  0  0  0  0
 36 64  1  0  0  0  0
 36 69  1  0  0  0  0
 36 79  2  0  0  0  0
 37 65  1  0  0  0  0
 37 75  1  0  0  0  0
 37 80  2  0  0  0  0
 38 70  1  0  0  0  0
 38 71  1  0  0  0  0
 38 81  2  0  0  0  0
 39 42  1  0  0  0  0
 40 53  1  0  0  0  0
 41 69  1  0  0  0  0
 42 44  1  0  0  0  0
 43 45  1  0  0  0  0
 43 48  1  0  0  0  0
 44 52  1  0  0  0  0
 45 54  1  0  0  0  0
 46 49  1  0  0  0  0
 46 55  1  0  0  0  0
 47 50  1  0  0  0  0
 47 55  1  0  0  0  0
 48 70  1  0  0  0  0
 49 71  1  0  0  0  0
 50 71  1  0  0  0  0
 51 54  1  0  0  0  0
 51 70  1  0  0  0  0
 52 74  1  0  0  0  0
 53 69  1  0  0  0  0
 54 68  1  0  0  0  0
 55 83  1  0  0  0  0
 58 65  1  0  0  0  0
 59 66  1  0  0  0  0
 60 66  1  0  0  0  0
 61 66  1  0  0  0  0
 62 76  1  0  0  0  0
 63 84  1  0  0  0  0
 64 66  1  0  0  0  0
 64 75  1  0  0  0  0
 65 76  1  0  0  0  0
 67 68  1  0  0  0  0
M  CHG  1  76   1
M  ISO  4  38 100  63 101  71 100  84 101
M  END
> <Batch ID>
0158

> <Smiles>
CNC(C)C(=O)NC(C(=O)N1Cc2cc([101O:1][101CH2:1]c3cc(OC4CC[100N:0]([100C:0](=O)N5CCCC(n6nc(-c7ccc(Oc8ccc(F)cc8F)cc7)c(C(N)=O)c6N)C5)CC4)c(C)cc3C)ccc2CC1C(=O)NC1CCCc2ccccc21)C(C)(C)C

> <Shape>
0.294

> <Color>
0.125

> <Negative vol penalty>
0.000

$$$$

  -OEChem-04052322043D

 91101  0     1  0  0  0  0  0999 V2000
  -17.2487  -30.4421   24.6092 C   0  0  0  0  0  0  0  0  0  0  0  0
  -18.5524  -30.5402   25.0850 C   0  0  0  0  0  0  0  0  0  0  0  0
  -26.5883  -13.5520   21.2939 C   0  0  0  0  0  0  0  0  0  0  0  0
  -25.1774  -13.0930   19.3871 C   0  0  0  0  0  0  0  0  0  0  0  0
  -16.9619  -29.6033   23.5331 C   0  0  0  0  0  0  0  0  0  0  0  0
  -19.5697  -29.7985   24.4856 C   0  0  0  0  0  0  0  0  0  0  0  0
  -25.4072  -31.4914   23.7347 C   0  0  0  0  0  0  0  0  0  0  0  0
  -26.4342  -12.2344   21.7251 C   0  0  0  0  0  0  0  0  0  0  0  0
  -25.0233  -11.7754   19.8182 C   0  0  0  0  0  0  0  0  0  0  0  0
  -26.5664  -31.2073   24.4555 C   0  0  0  0  0  0  0  0  0  0  0  0
  -23.9654   -8.3891   20.6080 C   0  0  0  0  0  0  0  0  0  0  0  0
  -22.6819   -7.8440   20.5807 C   0  0  0  0  0  0  0  0  0  0  0  0
  -27.1871  -25.6290   24.6633 C   0  0  0  0  0  0  0  0  0  0  0  0
  -29.5919  -25.4411   24.5275 C   0  0  0  0  0  0  0  0  0  0  0  0
  -27.0770  -29.4199   22.9181 C   0  0  0  0  0  0  0  0  0  0  0  0
  -21.9206   -9.5601   22.1014 C   0  0  0  0  0  0  0  0  0  0  0  0
  -25.9598  -13.9813   20.1250 C   0  0  0  0  0  0  0  0  0  0  0  0
  -27.1142  -15.8454   18.8211 C   0  0  0  0  0  0  0  0  0  0  0  0
  -17.9780  -28.8584   22.9140 C   0  0  0  0  0  0  0  0  0  0  0  0
  -25.0681  -30.7335   22.6047 C   0  0  0  0  0  0  0  0  0  0  0  0
  -19.2960  -28.9479   23.4010 C   0  0  0  0  0  0  0  0  0  0  0  0
  -28.3236  -25.0527   24.0961 C   0  0  0  0  0  0  0  0  0  0  0  0
  -25.9144  -29.6980   22.1833 C   0  0  0  0  0  0  0  0  0  0  0  0
  -27.3189  -26.5939   25.6621 C   0  0  0  0  0  0  0  0  0  0  0  0
  -28.5872  -26.9823   26.0935 C   0  0  0  0  0  0  0  0  0  0  0  0
  -25.6518  -11.3461   20.9873 C   0  0  0  0  0  0  0  0  0  0  0  0
  -27.4000  -30.1696   24.0489 C   0  0  0  0  0  0  0  0  0  0  0  0
  -24.2267   -9.5198   21.3821 C   0  0  0  0  0  0  0  0  0  0  0  0
  -29.7238  -26.4059   25.5263 C   0  0  0  0  0  0  0  0  0  0  0  0
  -21.6594   -8.4295   21.3274 C   0  0  0  0  0  0  0  0  0  0  0  0
  -23.2042  -10.1053   22.1287 C   0  0  0  0  0  0  0  0  0  0  0  0
  -26.1182  -15.3424   19.6794 C   0  0  0  0  0  0  0  0  0  0  0  0
  -26.8276  -17.1841   18.7099 C   0  0  0  0  0  0  0  0  0  0  0  0
  -28.2013  -15.1637   18.1814 C   0  0  0  0  0  0  0  0  0  0  0  0
  -22.6319  -28.8506   21.8151 C   0  0  0  0  0  0  0  0  0  0  0  0
  -24.1152  -28.7963   18.9308 C   0  0  0  0  0  0  0  0  0  0  0  0
  -27.0061  -29.1530   17.1525 C   0  0  0  0  0  0  0  0  0  0  0  0
  -25.3460  -22.0284   20.7976 C   0  0  0  0  0  0  0  0  0  0  0  0
  -17.6112  -27.9291   21.7841 C   0  0  0  0  0  0  0  0  0  0  0  0
  -23.8281  -31.0698   21.8226 C   0  0  0  0  0  0  0  0  0  0  0  0
  -25.6057  -28.8676   20.9652 C   0  0  0  0  0  0  0  0  0  0  0  0
  -18.8119  -27.4626   20.9650 C   0  0  0  0  0  0  0  0  0  0  0  0
  -22.7664  -19.8218   20.1457 C   0  0  0  0  0  0  0  0  0  0  0  0
  -19.9450  -27.0181   21.8844 C   0  0  0  0  0  0  0  0  0  0  0  0
  -23.4796  -18.4939   19.8920 C   0  0  0  0  0  0  0  0  0  0  0  0
  -32.8615  -26.1935   27.4421 C   0  0  0  0  0  0  0  0  0  0  0  0
  -31.6420  -25.4785   27.9461 C   0  0  0  0  0  0  0  0  0  0  0  0
  -27.4487  -22.7466   23.5142 C   0  0  0  0  0  0  0  0  0  0  0  0
  -27.4903  -24.5647   21.7529 C   0  0  0  0  0  0  0  0  0  0  0  0
  -23.4085  -20.5730   21.3062 C   0  0  0  0  0  0  0  0  0  0  0  0
  -27.2787  -21.7056   22.4041 C   0  0  0  0  0  0  0  0  0  0  0  0
  -27.3463  -23.4827   20.6866 C   0  0  0  0  0  0  0  0  0  0  0  0
  -25.5975  -19.5062   20.8722 C   0  0  0  0  0  0  0  0  0  0  0  0
  -28.1800  -24.0036   23.0096 C   0  0  0  0  0  0  0  0  0  0  0  0
  -20.4312  -28.1782   22.7614 C   0  0  1  0  0  0  0  0  0  0  0  0
  -23.3140  -29.9020   20.9863 C   0  0  1  0  0  0  0  0  0  0  0  0
  -24.9919  -18.7060   19.7011 C   0  0  1  0  0  0  0  0  0  0  0  0
  -31.8014  -25.7458   26.4768 C   0  0  0  0  0  0  0  0  0  0  0  0
  -26.0839  -27.1935   26.2520 C   0  0  0  0  0  0  0  0  0  0  0  0
  -27.9123  -29.0105   14.8167 C   0  0  0  0  0  0  0  0  0  0  0  0
  -29.8336  -29.7539   28.2535 C   0  0  0  0  0  0  0  0  0  0  0  0
  -24.0434  -25.7502   19.0914 C   0  0  0  0  0  0  0  0  0  0  0  0
  -25.7567  -25.6832   17.2670 C   0  0  0  0  0  0  0  0  0  0  0  0
  -23.5152  -26.6886   16.8342 C   0  0  0  0  0  0  0  0  0  0  0  0
  -27.8258  -31.9967   17.1728 C   0  0  0  0  0  0  0  0  0  0  0  0
  -28.5126  -30.1684   26.1509 C   0  0  0  0  0  0  0  0  0  1  0  0
  -25.1705  -27.9295   18.2875 C   0  0  1  0  0  0  0  0  0  0  0  0
  -27.3180  -29.9205   15.8804 C   0  0  2  0  0  0  0  0  0  0  0  0
  -29.4173  -29.1927   26.9003 C   0  0  2  0  0  0  0  0  0  0  0  0
  -24.6266  -26.5271   17.8942 C   0  0  0  0  0  0  0  0  0  0  0  0
  -25.2628  -16.2847   20.0848 N   0  0  0  0  0  0  0  0  0  0  0  0
  -25.7206  -17.3933   19.4787 N   0  0  0  0  0  0  0  0  0  0  0  0
  -24.3786  -29.2312   20.2375 N   0  0  0  0  0  0  0  0  0  0  0  0
  -24.8441  -20.7511   21.0890 N   0  0  0  0  0  0  0  0  0  0  0  0
  -26.6548  -22.3085   21.2181 N   0  0  0  0  0  0  0  0  0  0  0  0
  -27.4170  -18.1908   18.0306 N   0  0  0  0  0  0  0  0  0  0  0  0
  -28.3502  -13.7878   18.4033 N   0  0  0  0  0  0  0  0  0  0  0  0
  -28.7252  -27.9603   27.1054 N   0  0  0  0  0  0  0  0  0  0  0  0
  -21.2796  -29.0680   21.9979 N   0  0  0  0  0  0  0  0  0  0  0  0
  -25.7043  -28.6988   17.1687 N   0  0  0  0  0  0  0  0  0  0  0  0
  -28.2911  -31.0139   16.1606 N   0  3  0  0  0  0  0  0  0  0  0  0
  -29.0261  -15.7601   17.4483 O   0  0  0  0  0  0  0  0  0  0  0  0
  -23.2839  -27.9108   22.2549 O   0  0  0  0  0  0  0  0  0  0  0  0
  -23.0980  -29.0831   18.2948 O   0  0  0  0  0  0  0  0  0  0  0  0
  -27.8354  -28.9712   18.0411 O   0  0  0  0  0  0  0  0  0  0  0  0
  -24.6657  -22.8693   20.1965 O   0  0  0  0  0  0  0  0  0  0  0  0
  -25.5014  -10.0603   21.4075 O   0  0  0  0  0  0  0  0  0  0  0  0
  -30.9725  -26.7707   25.9330 O   0  0  0  0  0  0  0  0  0  0  0  0
  -28.5390  -29.8880   24.7556 O   0  0  0  0  0  0  0  0  0  1  0  0
  -20.4265   -7.9067   21.2998 F   0  0  0  0  0  0  0  0  0  0  0  0
  -23.4489  -11.1923   22.8733 F   0  0  0  0  0  0  0  0  0  0  0  0
  1  2  1  0  0  0  0
  1  5  2  0  0  0  0
  2  6  2  0  0  0  0
  3  8  2  0  0  0  0
  3 17  1  0  0  0  0
  4  9  1  0  0  0  0
  4 17  2  0  0  0  0
  5 19  1  0  0  0  0
  6 21  1  0  0  0  0
  7 10  2  0  0  0  0
  7 20  1  0  0  0  0
  8 26  1  0  0  0  0
  9 26  2  0  0  0  0
 10 27  1  0  0  0  0
 11 12  2  0  0  0  0
 11 28  1  0  0  0  0
 12 30  1  0  0  0  0
 13 22  1  0  0  0  0
 13 24  2  0  0  0  0
 14 22  2  0  0  0  0
 14 29  1  0  0  0  0
 15 23  1  0  0  0  0
 15 27  2  0  0  0  0
 16 30  2  0  0  0  0
 16 31  1  0  0  0  0
 17 32  1  0  0  0  0
 18 32  1  0  0  0  0
 18 33  2  0  0  0  0
 18 34  1  0  0  0  0
 19 21  2  0  0  0  0
 19 39  1  0  0  0  0
 20 23  2  0  0  0  0
 20 40  1  0  0  0  0
 21 55  1  0  0  0  0
 22 54  1  0  0  0  0
 23 41  1  0  0  0  0
 24 25  1  0  0  0  0
 24 59  1  0  0  0  0
 25 29  2  0  0  0  0
 25 78  1  0  0  0  0
 26 87  1  0  0  0  0
 27 89  1  0  0  0  0
 28 31  2  0  0  0  0
 28 87  1  0  0  0  0
 29 88  1  0  0  0  0
 30 90  1  0  0  0  0
 31 91  1  0  0  0  0
 32 71  2  0  0  0  0
 33 72  1  0  0  0  0
 33 76  1  0  0  0  0
 34 77  1  0  0  0  0
 34 82  2  0  0  0  0
 35 56  1  0  0  0  0
 35 79  1  0  0  0  0
 35 83  2  0  0  0  0
 36 67  1  0  0  0  0
 36 73  1  0  0  0  0
 36 84  2  0  0  0  0
 37 68  1  0  0  0  0
 37 80  1  0  0  0  0
 37 85  2  0  0  0  0
 38 74  1  0  0  0  0
 38 75  1  0  0  0  0
 38 86  2  0  0  0  0
 39 42  1  0  0  0  0
 40 56  1  0  0  0  0
 41 73  1  0  0  0  0
 42 44  1  0  0  0  0
 43 45  1  0  0  0  0
 43 50  1  0  0  0  0
 44 55  1  0  0  0  0
 45 57  1  0  0  0  0
 46 47  1  0  0  0  0
 46 58  1  0  0  0  0
 47 58  1  0  0  0  0
 48 51  1  0  0  0  0
 48 54  1  0  0  0  0
 49 52  1  0  0  0  0
 49 54  1  0  0  0  0
 50 74  1  0  0  0  0
 51 75  1  0  0  0  0
 52 75  1  0  0  0  0
 53 57  1  0  0  0  0
 53 74  1  0  0  0  0
 55 79  1  0  0  0  0
 56 73  1  0  0  0  0
 57 72  1  0  0  0  0
 58 88  1  0  0  0  0
 60 68  1  0  0  0  0
 61 69  1  0  0  0  0
 62 70  1  0  0  0  0
 63 70  1  0  0  0  0
 64 70  1  0  0  0  0
 65 81  1  0  0  0  0
 66 69  1  0  0  0  0
 66 89  1  0  0  0  0
 67 70  1  0  0  0  0
 67 80  1  0  0  0  0
 68 81  1  0  0  0  0
 69 78  1  0  0  0  0
 71 72  1  0  0  0  0
M  CHG  1  81   1
M  ISO  4  38 100  66 101  75 100  89 101
M  END
> <Batch ID>
0158

> <Smiles>
CNC(C)C(=O)NC(C(=O)N1Cc2cc([101O:1][101CH2:1]C(C)Nc3c(C)cc(C4CC[100N:0]([100C:0](=O)N5CCCC(n6nc(-c7ccc(Oc8ccc(F)cc8F)cc7)c(C(N)=O)c6N)C5)CC4)cc3OC3CC3)ccc2CC1C(=O)NC1CCCc2ccccc21)C(C)(C)C

> <Shape>
0.222

> <Color>
0.095

> <Negative vol penalty>
0.000

$$$$

  -OEChem-04052322043D

 89 99  0     1  0  0  0  0  0999 V2000
  -20.8474  -24.9820   25.1353 C   0  0  0  0  0  0  0  0  0  0  0  0
  -21.9058  -25.0284   24.2336 C   0  0  0  0  0  0  0  0  0  0  0  0
  -25.6954  -12.9890   20.7968 C   0  0  0  0  0  0  0  0  0  0  0  0
  -26.6734  -11.0030   19.8290 C   0  0  0  0  0  0  0  0  0  0  0  0
  -19.7308  -25.7938   24.9401 C   0  0  0  0  0  0  0  0  0  0  0  0
  -21.8478  -25.8859   23.1356 C   0  0  0  0  0  0  0  0  0  0  0  0
  -26.1785  -28.4083   22.4093 C   0  0  0  0  0  0  0  0  0  0  0  0
  -24.5323  -12.2755   21.0857 C   0  0  0  0  0  0  0  0  0  0  0  0
  -25.5102  -10.2894   20.1180 C   0  0  0  0  0  0  0  0  0  0  0  0
  -27.2253  -27.7149   21.8034 C   0  0  0  0  0  0  0  0  0  0  0  0
  -24.0954   -8.8216   22.8132 C   0  0  0  0  0  0  0  0  0  0  0  0
  -24.2379   -7.5542   23.3779 C   0  0  0  0  0  0  0  0  0  0  0  0
  -30.5160  -26.1507   17.4216 C   0  0  0  0  0  0  0  0  0  0  0  0
  -26.6924  -28.7631   19.6971 C   0  0  0  0  0  0  0  0  0  0  0  0
  -23.0796   -6.5839   21.4927 C   0  0  0  0  0  0  0  0  0  0  0  0
  -26.7660  -12.3528   20.1683 C   0  0  0  0  0  0  0  0  0  0  0  0
  -29.0978  -13.2439   20.6940 C   0  0  0  0  0  0  0  0  0  0  0  0
  -19.6632  -26.6688   23.8444 C   0  0  0  0  0  0  0  0  0  0  0  0
  -25.3726  -29.2775   21.6601 C   0  0  0  0  0  0  0  0  0  0  0  0
  -20.7287  -26.7092   22.9248 C   0  0  0  0  0  0  0  0  0  0  0  0
  -30.4129  -25.1982   16.4007 C   0  0  0  0  0  0  0  0  0  0  0  0
  -25.6376  -29.4683   20.2965 C   0  0  0  0  0  0  0  0  0  0  0  0
  -30.5439  -23.8326   16.7062 C   0  0  0  0  0  0  0  0  0  0  0  0
  -30.8129  -23.4413   18.0235 C   0  0  0  0  0  0  0  0  0  0  0  0
  -30.7746  -25.7504   18.7323 C   0  0  0  0  0  0  0  0  0  0  0  0
  -30.9253  -24.3979   19.0324 C   0  0  0  0  0  0  0  0  0  0  0  0
  -24.4397  -10.9257   20.7464 C   0  0  0  0  0  0  0  0  0  0  0  0
  -27.4806  -27.8900   20.4464 C   0  0  0  0  0  0  0  0  0  0  0  0
  -23.4449   -8.9702   21.5882 C   0  0  0  0  0  0  0  0  0  0  0  0
  -23.7300   -6.4353   22.7177 C   0  0  0  0  0  0  0  0  0  0  0  0
  -22.9371   -7.8513   20.9279 C   0  0  0  0  0  0  0  0  0  0  0  0
  -27.9675  -13.0895   19.8690 C   0  0  0  0  0  0  0  0  0  0  0  0
  -29.9560  -14.0240   19.9582 C   0  0  0  0  0  0  0  0  0  0  0  0
  -29.3495  -12.7281   22.0078 C   0  0  0  0  0  0  0  0  0  0  0  0
  -22.2848  -29.3901   20.9138 C   0  0  0  0  0  0  0  0  0  0  0  0
  -23.1016  -32.2503   19.6197 C   0  0  0  0  0  0  0  0  0  0  0  0
  -25.5371  -34.2431   18.2991 C   0  0  0  0  0  0  0  0  0  0  0  0
  -31.0586  -18.2504   16.6502 C   0  0  0  0  0  0  0  0  0  0  0  0
  -18.4151  -27.4925   23.6491 C   0  0  0  0  0  0  0  0  0  0  0  0
  -24.2641  -30.0384   22.3344 C   0  0  0  0  0  0  0  0  0  0  0  0
  -30.0978  -25.6229   14.9910 C   0  0  0  0  0  0  0  0  0  0  0  0
  -24.8145  -30.4054   19.4522 C   0  0  0  0  0  0  0  0  0  0  0  0
  -30.4536  -22.7986   15.6136 C   0  0  0  0  0  0  0  0  0  0  0  0
  -18.5945  -28.6465   22.6661 C   0  0  0  0  0  0  0  0  0  0  0  0
  -29.8116  -15.4203   15.1063 C   0  0  0  0  0  0  0  0  0  0  0  0
  -19.3104  -28.1686   21.4068 C   0  0  0  0  0  0  0  0  0  0  0  0
  -29.3103  -14.5633   16.2685 C   0  0  0  0  0  0  0  0  0  0  0  0
  -29.7193  -21.1564   18.0920 C   0  0  0  0  0  0  0  0  0  0  0  0
  -32.2029  -21.3565   17.6433 C   0  0  0  0  0  0  0  0  0  0  0  0
  -29.4702  -16.8897   15.3249 C   0  0  0  0  0  0  0  0  0  0  0  0
  -29.9189  -19.6720   18.4111 C   0  0  0  0  0  0  0  0  0  0  0  0
  -32.3475  -19.8792   17.9971 C   0  0  0  0  0  0  0  0  0  0  0  0
  -29.5009  -16.5996   17.7811 C   0  0  0  0  0  0  0  0  0  0  0  0
  -30.4530  -24.5238   13.9969 C   0  0  0  0  0  0  0  0  0  0  0  0
  -30.9934  -21.9749   18.3678 C   0  0  0  0  0  0  0  0  0  0  0  0
  -20.7136  -27.6444   21.7352 C   0  0  1  0  0  0  0  0  0  0  0  0
  -23.1842  -30.5065   21.3639 C   0  0  1  0  0  0  0  0  0  0  0  0
  -29.8263  -15.1013   17.6149 C   0  0  1  0  0  0  0  0  0  0  0  0
  -31.2089  -23.9757   20.4398 C   0  0  0  0  0  0  0  0  0  0  0  0
  -25.8937  -36.5146   17.2939 C   0  0  0  0  0  0  0  0  0  0  0  0
  -21.8224  -31.2973   17.0187 C   0  0  0  0  0  0  0  0  0  0  0  0
  -23.0209  -33.1480   15.8326 C   0  0  0  0  0  0  0  0  0  0  0  0
  -21.3465  -33.6820   17.6029 C   0  0  0  0  0  0  0  0  0  0  0  0
  -27.4355  -35.0173   20.4335 C   0  0  0  0  0  0  0  0  0  0  0  0
  -30.8850  -26.7931   19.7964 C   0  0  0  0  0  0  0  0  0  0  0  0
  -29.6284  -26.8926   20.6650 C   0  0  0  0  0  0  0  0  0  1  0  0
  -23.5851  -32.7123   18.2663 C   0  0  1  0  0  0  0  0  0  0  0  0
  -25.9130  -35.6886   18.5706 C   0  0  2  0  0  0  0  0  0  0  0  0
  -22.4582  -32.6907   17.1953 C   0  0  0  0  0  0  0  0  0  0  0  0
  -28.0932  -13.7211   18.6988 N   0  0  0  0  0  0  0  0  0  0  0  0
  -29.3125  -14.2799   18.7831 N   0  0  0  0  0  0  0  0  0  0  0  0
  -23.7380  -31.1219   20.1560 N   0  0  0  0  0  0  0  0  0  0  0  0
  -29.9737  -17.3615   16.6147 N   0  0  0  0  0  0  0  0  0  0  0  0
  -31.1093  -19.1493   17.7262 N   0  0  0  0  0  0  0  0  0  0  0  0
  -31.1906  -14.5093   20.2081 N   0  0  0  0  0  0  0  0  0  0  0  0
  -28.3609  -11.9445   22.6187 N   0  0  0  0  0  0  0  0  0  0  0  0
  -21.6283  -28.7460   21.9452 N   0  0  0  0  0  0  0  0  0  0  0  0
  -24.1869  -34.0250   18.4741 N   0  0  0  0  0  0  0  0  0  0  0  0
  -27.2795  -35.7664   19.1601 N   0  3  0  0  0  0  0  0  0  0  0  0
  -30.4126  -12.9689   22.6286 O   0  0  0  0  0  0  0  0  0  0  0  0
  -22.1922  -29.1331   19.7192 O   0  0  0  0  0  0  0  0  0  0  0  0
  -22.1976  -32.8720   20.1836 O   0  0  0  0  0  0  0  0  0  0  0  0
  -26.3584  -33.3933   17.9616 O   0  0  0  0  0  0  0  0  0  0  0  0
  -31.9313  -18.2415   15.7730 O   0  0  0  0  0  0  0  0  0  0  0  0
  -29.8492  -23.3001   14.4164 O   0  0  0  0  0  0  0  0  0  0  0  0
  -23.3049  -10.2290   21.0284 O   0  0  0  0  0  0  0  0  0  0  0  0
  -28.5084  -27.2092   19.8482 O   0  0  0  0  0  0  0  0  0  1  0  0
  -23.8683   -5.2181   23.2594 F   0  0  0  0  0  0  0  0  0  0  0  0
  -22.3123   -7.9877   19.7503 F   0  0  0  0  0  0  0  0  0  0  0  0
  1  2  1  0  0  0  0
  1  5  2  0  0  0  0
  2  6  2  0  0  0  0
  3  8  2  0  0  0  0
  3 16  1  0  0  0  0
  4  9  1  0  0  0  0
  4 16  2  0  0  0  0
  5 18  1  0  0  0  0
  6 20  1  0  0  0  0
  7 10  2  0  0  0  0
  7 19  1  0  0  0  0
  8 27  1  0  0  0  0
  9 27  2  0  0  0  0
 10 28  1  0  0  0  0
 11 12  2  0  0  0  0
 11 29  1  0  0  0  0
 12 30  1  0  0  0  0
 13 21  2  0  0  0  0
 13 25  1  0  0  0  0
 14 22  1  0  0  0  0
 14 28  2  0  0  0  0
 15 30  2  0  0  0  0
 15 31  1  0  0  0  0
 16 32  1  0  0  0  0
 17 32  1  0  0  0  0
 17 33  2  0  0  0  0
 17 34  1  0  0  0  0
 18 20  2  0  0  0  0
 18 39  1  0  0  0  0
 19 22  2  0  0  0  0
 19 40  1  0  0  0  0
 20 56  1  0  0  0  0
 21 23  1  0  0  0  0
 21 41  1  0  0  0  0
 22 42  1  0  0  0  0
 23 24  2  0  0  0  0
 23 43  1  0  0  0  0
 24 26  1  0  0  0  0
 24 55  1  0  0  0  0
 25 26  2  0  0  0  0
 25 65  1  0  0  0  0
 26 59  1  0  0  0  0
 27 86  1  0  0  0  0
 28 87  1  0  0  0  0
 29 31  2  0  0  0  0
 29 86  1  0  0  0  0
 30 88  1  0  0  0  0
 31 89  1  0  0  0  0
 32 70  2  0  0  0  0
 33 71  1  0  0  0  0
 33 75  1  0  0  0  0
 34 76  1  0  0  0  0
 34 80  2  0  0  0  0
 35 57  1  0  0  0  0
 35 77  1  0  0  0  0
 35 81  2  0  0  0  0
 36 67  1  0  0  0  0
 36 72  1  0  0  0  0
 36 82  2  0  0  0  0
 37 68  1  0  0  0  0
 37 78  1  0  0  0  0
 37 83  2  0  0  0  0
 38 73  1  0  0  0  0
 38 74  1  0  0  0  0
 38 84  2  0  0  0  0
 39 44  1  0  0  0  0
 40 57  1  0  0  0  0
 41 54  1  0  0  0  0
 42 72  1  0  0  0  0
 43 85  1  0  0  0  0
 44 46  1  0  0  0  0
 45 47  1  0  0  0  0
 45 50  1  0  0  0  0
 46 56  1  0  0  0  0
 47 58  1  0  0  0  0
 48 51  1  0  0  0  0
 48 55  1  0  0  0  0
 49 52  1  0  0  0  0
 49 55  1  0  0  0  0
 50 73  1  0  0  0  0
 51 74  1  0  0  0  0
 52 74  1  0  0  0  0
 53 58  1  0  0  0  0
 53 73  1  0  0  0  0
 54 85  1  0  0  0  0
 56 77  1  0  0  0  0
 57 72  1  0  0  0  0
 58 71  1  0  0  0  0
 60 68  1  0  0  0  0
 61 69  1  0  0  0  0
 62 69  1  0  0  0  0
 63 69  1  0  0  0  0
 64 79  1  0  0  0  0
 65 66  1  0  0  0  0
 66 87  1  0  0  0  0
 67 69  1  0  0  0  0
 67 78  1  0  0  0  0
 68 79  1  0  0  0  0
 70 71  1  0  0  0  0
M  CHG  1  79   1
M  ISO  4  38 100  66 101  74 100  87 101
M  END
> <Batch ID>
0158

> <Smiles>
CNC(C)C(=O)NC(C(=O)N1Cc2cc([101O:1][101CH2:1]Cc3cc4c(c(C5CC[100N:0]([100C:0](=O)N6CCCC(n7nc(-c8ccc(Oc9ccc(F)cc9F)cc8)c(C(N)=O)c7N)C6)CC5)c3C)COCC4)ccc2CC1C(=O)NC1CCCc2ccccc21)C(C)(C)C

> <Shape>
0.266

> <Color>
0.097

> <Negative vol penalty>
0.000

$$$$

  -OEChem-04052322043D

 90 99  0     1  0  0  0  0  0999 V2000
  -21.8429  -35.0703   15.7410 C   0  0  0  0  0  0  0  0  0  0  0  0
  -22.6470  -33.9350   15.7353 C   0  0  0  0  0  0  0  0  0  0  0  0
  -26.4272  -12.6927   21.3323 C   0  0  0  0  0  0  0  0  0  0  0  0
  -24.7912  -14.4212   20.9168 C   0  0  0  0  0  0  0  0  0  0  0  0
  -21.8919  -35.9524   16.8196 C   0  0  0  0  0  0  0  0  0  0  0  0
  -23.5014  -33.6817   16.8078 C   0  0  0  0  0  0  0  0  0  0  0  0
  -25.0132  -28.2063   19.0970 C   0  0  0  0  0  0  0  0  0  0  0  0
  -30.2236  -26.4610   23.2866 C   0  0  0  0  0  0  0  0  0  0  0  0
  -25.4044  -11.8045   21.6646 C   0  0  0  0  0  0  0  0  0  0  0  0
  -23.7683  -13.5330   21.2491 C   0  0  0  0  0  0  0  0  0  0  0  0
  -26.1252  -27.3863   18.9107 C   0  0  0  0  0  0  0  0  0  0  0  0
  -31.1093  -26.6203   22.2154 C   0  0  0  0  0  0  0  0  0  0  0  0
  -23.1377   -9.8943   20.0378 C   0  0  0  0  0  0  0  0  0  0  0  0
  -23.1994   -8.6064   19.5059 C   0  0  0  0  0  0  0  0  0  0  0  0
  -27.1229  -28.2952   20.9102 C   0  0  0  0  0  0  0  0  0  0  0  0
  -23.2628   -7.6871   21.7393 C   0  0  0  0  0  0  0  0  0  0  0  0
  -26.1206  -14.0011   20.9585 C   0  0  0  0  0  0  0  0  0  0  0  0
  -28.1213  -14.7806   19.5810 C   0  0  0  0  0  0  0  0  0  0  0  0
  -22.7403  -35.7048   17.9103 C   0  0  0  0  0  0  0  0  0  0  0  0
  -24.9523  -29.0863   20.1872 C   0  0  0  0  0  0  0  0  0  0  0  0
  -23.5628  -34.5620   17.9014 C   0  0  0  0  0  0  0  0  0  0  0  0
  -26.0078  -29.1234   21.1095 C   0  0  0  0  0  0  0  0  0  0  0  0
  -29.0200  -24.7764   22.0534 C   0  0  0  0  0  0  0  0  0  0  0  0
  -29.9245  -24.9365   20.9867 C   0  0  0  0  0  0  0  0  0  0  0  0
  -29.1777  -25.5218   23.2442 C   0  0  0  0  0  0  0  0  0  0  0  0
  -24.0749  -12.2246   21.6230 C   0  0  0  0  0  0  0  0  0  0  0  0
  -27.1815  -27.4328   19.8157 C   0  0  0  0  0  0  0  0  0  0  0  0
  -30.9669  -25.8516   21.0694 C   0  0  0  0  0  0  0  0  0  0  0  0
  -23.1387  -10.0787   21.4204 C   0  0  0  0  0  0  0  0  0  0  0  0
  -23.2619   -7.5028   20.3566 C   0  0  0  0  0  0  0  0  0  0  0  0
  -23.2012   -8.9751   22.2712 C   0  0  0  0  0  0  0  0  0  0  0  0
  -27.1768  -14.9193   20.6157 C   0  0  0  0  0  0  0  0  0  0  0  0
  -28.8986  -15.9093   19.6721 C   0  0  0  0  0  0  0  0  0  0  0  0
  -28.2815  -13.7259   18.6231 C   0  0  0  0  0  0  0  0  0  0  0  0
  -24.7644  -32.2424   20.5145 C   0  0  0  0  0  0  0  0  0  0  0  0
  -28.5925  -25.7445   25.6684 C   0  0  0  0  0  0  0  0  0  0  0  0
  -24.4385  -31.5061   23.6568 C   0  0  0  0  0  0  0  0  0  0  0  0
  -24.9880  -29.2776   26.1824 C   0  0  0  0  0  0  0  0  0  0  0  0
  -27.7675  -21.3040   21.7870 C   0  0  0  0  0  0  0  0  0  0  0  0
  -22.7935  -36.7117   19.0319 C   0  0  0  0  0  0  0  0  0  0  0  0
  -23.7339  -29.9450   20.3888 C   0  0  0  0  0  0  0  0  0  0  0  0
  -25.9824  -30.0360   22.3075 C   0  0  0  0  0  0  0  0  0  0  0  0
  -23.4507  -36.1757   20.3011 C   0  0  0  0  0  0  0  0  0  0  0  0
  -30.4627  -19.1330   22.8452 C   0  0  0  0  0  0  0  0  0  0  0  0
  -24.7485  -35.4485   19.9640 C   0  0  0  0  0  0  0  0  0  0  0  0
  -30.0044  -17.7846   22.2866 C   0  0  0  0  0  0  0  0  0  0  0  0
  -26.6938  -24.2902   22.6625 C   0  0  0  0  0  0  0  0  0  0  0  0
  -29.2803  -19.9495   23.3584 C   0  0  0  0  0  0  0  0  0  0  0  0
  -27.0442  -24.5420   24.1203 C   0  0  0  0  0  0  0  0  0  0  0  0
  -27.7431  -18.8258   21.7939 C   0  0  0  0  0  0  0  0  0  0  0  0
  -24.4844  -34.2400   19.0577 C   0  0  1  0  0  0  0  0  0  0  0  0
  -27.9011  -23.7795   21.8941 C   0  0  2  0  0  0  0  0  0  0  0  0
  -24.0054  -31.1745   21.2502 C   0  0  1  0  0  0  0  0  0  0  0  0
  -28.8900  -17.9621   21.2383 C   0  0  2  0  0  0  0  0  0  0  0  0
  -27.4208  -25.9566   26.6036 C   0  0  0  0  0  0  0  0  0  0  0  0
  -31.0259  -23.2233   19.5243 C   0  0  0  0  0  0  0  0  0  0  0  0
  -24.6423  -28.9710   28.6490 C   0  0  0  0  0  0  0  0  0  0  0  0
  -26.7496  -33.4183   24.2159 C   0  0  0  0  0  0  0  0  0  0  0  0
  -26.9771  -32.3710   26.4786 C   0  0  0  0  0  0  0  0  0  0  0  0
  -24.8674  -33.5485   25.8575 C   0  0  0  0  0  0  0  0  0  0  0  0
  -23.2956  -26.8857   25.7656 C   0  0  0  0  0  0  0  0  0  0  0  0
  -32.8947  -26.9657   20.2338 C   0  0  0  0  0  0  0  0  0  0  0  0
  -29.5699  -24.9885   18.4604 C   0  0  0  0  0  0  0  0  0  0  0  0
  -28.2614  -25.7723   18.4994 C   0  0  0  0  0  0  0  0  0  1  0  0
  -29.7986  -24.1309   19.7292 C   0  0  2  0  0  0  0  0  0  0  0  0
  -25.3894  -31.3064   24.8123 C   0  0  1  0  0  0  0  0  0  0  0  0
  -24.0700  -28.7306   27.2607 C   0  0  2  0  0  0  0  0  0  0  0  0
  -25.9975  -32.6451   25.3175 C   0  0  0  0  0  0  0  0  0  0  0  0
  -27.3378  -16.0471   21.3130 N   0  0  0  0  0  0  0  0  0  0  0  0
  -28.3924  -16.6273   20.7154 N   0  0  0  0  0  0  0  0  0  0  0  0
  -28.2687  -25.3295   24.3564 N   0  0  0  0  0  0  0  0  0  0  0  0
  -24.7720  -30.8607   22.4577 N   0  0  0  0  0  0  0  0  0  0  0  0
  -28.2643  -20.0972   22.3068 N   0  0  0  0  0  0  0  0  0  0  0  0
  -29.9589  -16.3477   18.9608 N   0  0  0  0  0  0  0  0  0  0  0  0
  -27.5960  -13.8203   17.4043 N   0  0  0  0  0  0  0  0  0  0  0  0
  -23.9604  -33.1339   19.8302 N   0  0  0  0  0  0  0  0  0  0  0  0
  -24.6482  -30.5659   25.8275 N   0  0  0  0  0  0  0  0  0  0  0  0
  -28.3081  -22.4626   22.3314 N   0  0  0  0  0  0  0  0  0  0  0  0
  -23.8750  -27.2642   27.0801 N   0  3  0  0  0  0  0  0  0  0  0  0
  -28.9981  -12.7212   18.8482 O   0  0  0  0  0  0  0  0  0  0  0  0
  -25.9887  -32.2574   20.5653 O   0  0  0  0  0  0  0  0  0  0  0  0
  -29.7261  -25.9238   26.1181 O   0  0  0  0  0  0  0  0  0  0  0  0
  -23.4331  -32.2031   23.8146 O   0  0  0  0  0  0  0  0  0  0  0  0
  -25.9162  -28.6283   25.7055 O   0  0  0  0  0  0  0  0  0  0  0  0
  -26.9091  -21.3462   20.8990 O   0  0  0  0  0  0  0  0  0  0  0  0
  -23.0766  -11.3580   21.9469 O   0  0  0  0  0  0  0  0  0  0  0  0
  -31.8605  -25.9999   20.0528 O   0  0  0  0  0  0  0  0  0  0  0  0
  -28.2761  -26.6283   19.6346 O   0  0  0  0  0  0  0  0  0  1  0  0
  -23.3196   -6.2659   19.8457 F   0  0  0  0  0  0  0  0  0  0  0  0
  -23.2012   -9.1459   23.6003 F   0  0  0  0  0  0  0  0  0  0  0  0
  1  2  1  0  0  0  0
  1  5  2  0  0  0  0
  2  6  2  0  0  0  0
  3  9  2  0  0  0  0
  3 17  1  0  0  0  0
  4 10  1  0  0  0  0
  4 17  2  0  0  0  0
  5 19  1  0  0  0  0
  6 21  1  0  0  0  0
  7 11  2  0  0  0  0
  7 20  1  0  0  0  0
  8 12  1  0  0  0  0
  8 25  2  0  0  0  0
  9 26  1  0  0  0  0
 10 26  2  0  0  0  0
 11 27  1  0  0  0  0
 12 28  2  0  0  0  0
 13 14  2  0  0  0  0
 13 29  1  0  0  0  0
 14 30  1  0  0  0  0
 15 22  1  0  0  0  0
 15 27  2  0  0  0  0
 16 30  2  0  0  0  0
 16 31  1  0  0  0  0
 17 32  1  0  0  0  0
 18 32  1  0  0  0  0
 18 33  2  0  0  0  0
 18 34  1  0  0  0  0
 19 21  2  0  0  0  0
 19 40  1  0  0  0  0
 20 22  2  0  0  0  0
 20 41  1  0  0  0  0
 21 51  1  0  0  0  0
 22 42  1  0  0  0  0
 23 24  2  0  0  0  0
 23 25  1  0  0  0  0
 23 52  1  0  0  0  0
 24 28  1  0  0  0  0
 24 65  1  0  0  0  0
 25 71  1  0  0  0  0
 26 86  1  0  0  0  0
 27 88  1  0  0  0  0
 28 87  1  0  0  0  0
 29 31  2  0  0  0  0
 29 86  1  0  0  0  0
 30 89  1  0  0  0  0
 31 90  1  0  0  0  0
 32 69  2  0  0  0  0
 33 70  1  0  0  0  0
 33 74  1  0  0  0  0
 34 75  1  0  0  0  0
 34 80  2  0  0  0  0
 35 53  1  0  0  0  0
 35 76  1  0  0  0  0
 35 81  2  0  0  0  0
 36 55  1  0  0  0  0
 36 71  1  0  0  0  0
 36 82  2  0  0  0  0
 37 66  1  0  0  0  0
 37 72  1  0  0  0  0
 37 83  2  0  0  0  0
 38 67  1  0  0  0  0
 38 77  1  0  0  0  0
 38 84  2  0  0  0  0
 39 73  1  0  0  0  0
 39 78  1  0  0  0  0
 39 85  2  0  0  0  0
 40 43  1  0  0  0  0
 41 53  1  0  0  0  0
 42 72  1  0  0  0  0
 43 45  1  0  0  0  0
 44 46  1  0  0  0  0
 44 48  1  0  0  0  0
 45 51  1  0  0  0  0
 46 54  1  0  0  0  0
 47 49  1  0  0  0  0
 47 52  1  0  0  0  0
 48 73  1  0  0  0  0
 49 71  1  0  0  0  0
 50 54  1  0  0  0  0
 50 73  1  0  0  0  0
 51 76  1  0  0  0  0
 52 78  1  0  0  0  0
 53 72  1  0  0  0  0
 54 70  1  0  0  0  0
 56 65  1  0  0  0  0
 57 67  1  0  0  0  0
 58 68  1  0  0  0  0
 59 68  1  0  0  0  0
 60 68  1  0  0  0  0
 61 79  1  0  0  0  0
 62 87  1  0  0  0  0
 63 64  1  0  0  0  0
 63 65  1  0  0  0  0
 64 88  1  0  0  0  0
 66 68  1  0  0  0  0
 66 77  1  0  0  0  0
 67 79  1  0  0  0  0
 69 70  1  0  0  0  0
M  CHG  1  79   1
M  ISO  4  39 100  64 101  78 100  88 101
M  END
> <Batch ID>
0158

> <Smiles>
CNC(C)C(=O)NC(C(=O)N1Cc2cc([101O:1][101CH2:1]CC(C)c3c(OC)ccc4c3C([100NH:0][100C:0](=O)N3CCCC(n5nc(-c6ccc(Oc7ccc(F)cc7F)cc6)c(C(N)=O)c5N)C3)CCN4C(C)=O)ccc2CC1C(=O)NC1CCCc2ccccc21)C(C)(C)C

> <Shape>
0.271

> <Color>
0.099

> <Negative vol penalty>
0.000

$$$$

  -OEChem-04052322043D

 91101  0     1  0  0  0  0  0999 V2000
  -25.5661  -31.5449   20.2545 C   0  0  0  0  0  0  0  0  0  0  0  0
  -25.4511  -30.3381   20.9371 C   0  0  0  0  0  0  0  0  0  0  0  0
  -28.6586  -13.1981   20.9707 C   0  0  0  0  0  0  0  0  0  0  0  0
  -28.2367  -12.0970   18.8619 C   0  0  0  0  0  0  0  0  0  0  0  0
  -24.5888  -32.5273   20.4083 C   0  0  0  0  0  0  0  0  0  0  0  0
  -24.3592  -30.1135   21.7748 C   0  0  0  0  0  0  0  0  0  0  0  0
  -21.4967  -24.7868   22.7436 C   0  0  0  0  0  0  0  0  0  0  0  0
  -30.0222  -13.2334   20.6795 C   0  0  0  0  0  0  0  0  0  0  0  0
  -29.6004  -12.1324   18.5707 C   0  0  0  0  0  0  0  0  0  0  0  0
  -21.5958  -23.8405   23.7627 C   0  0  0  0  0  0  0  0  0  0  0  0
  -32.1163  -15.0872   18.7793 C   0  0  0  0  0  0  0  0  0  0  0  0
  -32.7997  -16.2793   19.0190 C   0  0  0  0  0  0  0  0  0  0  0  0
  -21.6266  -15.2526   24.6188 C   0  0  0  0  0  0  0  0  0  0  0  0
  -19.7076  -24.8492   24.8747 C   0  0  0  0  0  0  0  0  0  0  0  0
  -34.2558  -15.1330   20.5690 C   0  0  0  0  0  0  0  0  0  0  0  0
  -27.7658  -12.6298   20.0619 C   0  0  0  0  0  0  0  0  0  0  0  0
  -25.5094  -13.6908   20.6011 C   0  0  0  0  0  0  0  0  0  0  0  0
  -23.4794  -32.3108   21.2407 C   0  0  0  0  0  0  0  0  0  0  0  0
  -20.5075  -25.7797   22.7881 C   0  0  0  0  0  0  0  0  0  0  0  0
  -23.3668  -31.0945   21.9408 C   0  0  0  0  0  0  0  0  0  0  0  0
  -20.5931  -14.6042   25.2949 C   0  0  0  0  0  0  0  0  0  0  0  0
  -19.5965  -25.8054   23.8537 C   0  0  0  0  0  0  0  0  0  0  0  0
  -21.7431  -16.6408   24.6894 C   0  0  0  0  0  0  0  0  0  0  0  0
  -19.6762  -15.3439   26.0416 C   0  0  0  0  0  0  0  0  0  0  0  0
  -19.7926  -16.7321   26.1122 C   0  0  0  0  0  0  0  0  0  0  0  0
  -20.8261  -17.3806   25.4362 C   0  0  0  0  0  0  0  0  0  0  0  0
  -30.4931  -12.7006   19.4795 C   0  0  0  0  0  0  0  0  0  0  0  0
  -20.7030  -23.8733   24.8299 C   0  0  0  0  0  0  0  0  0  0  0  0
  -32.5026  -13.9180   19.4345 C   0  0  0  0  0  0  0  0  0  0  0  0
  -33.8695  -16.3022   19.9138 C   0  0  0  0  0  0  0  0  0  0  0  0
  -33.5724  -13.9408   20.3293 C   0  0  0  0  0  0  0  0  0  0  0  0
  -26.3571  -12.5925   20.3624 C   0  0  0  0  0  0  0  0  0  0  0  0
  -24.2781  -13.1295   20.8363 C   0  0  0  0  0  0  0  0  0  0  0  0
  -25.8083  -15.0931   20.6093 C   0  0  0  0  0  0  0  0  0  0  0  0
  -20.5214  -28.9551   22.9308 C   0  0  0  0  0  0  0  0  0  0  0  0
  -17.3175  -28.5967   22.5718 C   0  0  0  0  0  0  0  0  0  0  0  0
  -14.5678  -26.6058   22.9215 C   0  0  0  0  0  0  0  0  0  0  0  0
  -21.0026   -9.3756   23.0931 C   0  0  0  0  0  0  0  0  0  0  0  0
  -22.4728  -33.4209   21.4121 C   0  0  0  0  0  0  0  0  0  0  0  0
  -20.3972  -26.7770   21.6675 C   0  0  0  0  0  0  0  0  0  0  0  0
  -18.5037  -26.8384   23.9381 C   0  0  0  0  0  0  0  0  0  0  0  0
  -21.1545  -32.9581   22.0271 C   0  0  0  0  0  0  0  0  0  0  0  0
  -22.6233   -8.3995   20.1996 C   0  0  0  0  0  0  0  0  0  0  0  0
  -21.4139  -32.0682   23.2385 C   0  0  0  0  0  0  0  0  0  0  0  0
  -23.6762   -9.4879   19.9901 C   0  0  0  0  0  0  0  0  0  0  0  0
  -19.5673  -12.6489   24.0524 C   0  0  0  0  0  0  0  0  0  0  0  0
  -21.8706  -12.4276   25.0754 C   0  0  0  0  0  0  0  0  0  0  0  0
  -21.3252  -20.8166   26.8299 C   0  0  0  0  0  0  0  0  0  0  0  0
  -20.4155  -20.9651   24.5066 C   0  0  0  0  0  0  0  0  0  0  0  0
  -22.5138   -8.0214   21.6725 C   0  0  0  0  0  0  0  0  0  0  0  0
  -19.4908  -11.1273   23.9523 C   0  0  0  0  0  0  0  0  0  0  0  0
  -21.7416  -10.9121   24.9540 C   0  0  0  0  0  0  0  0  0  0  0  0
  -21.7529  -19.3743   26.5730 C   0  0  0  0  0  0  0  0  0  0  0  0
  -20.8465  -19.5251   24.2456 C   0  0  0  0  0  0  0  0  0  0  0  0
  -23.2609  -10.2721   22.3727 C   0  0  0  0  0  0  0  0  0  0  0  0
  -20.4889  -13.0934   25.2013 C   0  0  0  0  0  0  0  0  0  0  0  0
  -22.1842  -30.8038   22.8393 C   0  0  1  0  0  0  0  0  0  0  0  0
  -19.6737  -28.0566   22.0755 C   0  0  1  0  0  0  0  0  0  0  0  0
  -23.4052  -10.7001   20.8986 C   0  0  1  0  0  0  0  0  0  0  0  0
  -21.3026  -21.6384   25.5474 C   0  0  0  0  0  0  0  0  0  1  0  0
  -22.8607  -17.3073   23.9547 C   0  0  0  0  0  0  0  0  0  0  0  0
  -18.5688  -14.6452   26.7653 C   0  0  0  0  0  0  0  0  0  0  0  0
  -18.8063  -17.5224   26.9144 C   0  0  0  0  0  0  0  0  0  0  0  0
  -12.0819  -26.6022   22.5782 C   0  0  0  0  0  0  0  0  0  0  0  0
  -16.9719  -30.3071   25.0748 C   0  0  0  0  0  0  0  0  0  0  0  0
  -14.6100  -29.4897   25.2226 C   0  0  0  0  0  0  0  0  0  0  0  0
  -15.3503  -30.8068   23.2376 C   0  0  0  0  0  0  0  0  0  0  0  0
  -14.7216  -24.3720   20.9862 C   0  0  0  0  0  0  0  0  0  0  0  0
  -16.1491  -28.4238   23.5120 C   0  0  1  0  0  0  0  0  0  0  0  0
  -13.4352  -26.2756   21.9661 C   0  0  2  0  0  0  0  0  0  0  0  0
  -15.7920  -29.7384   24.2614 C   0  0  0  0  0  0  0  0  0  0  0  0
  -25.7184  -11.4220   20.4392 N   0  0  0  0  0  0  0  0  0  0  0  0
  -24.4563  -11.7816   20.7288 N   0  0  0  0  0  0  0  0  0  0  0  0
  -20.9445  -18.7746   25.5055 N   0  0  0  0  0  0  0  0  0  0  0  0
  -18.4409  -27.7956   22.8213 N   0  0  0  0  0  0  0  0  0  0  0  0
  -22.2629   -9.1999   22.5019 N   0  0  0  0  0  0  0  0  0  0  0  0
  -20.8234  -10.5304   23.8723 N   0  0  0  0  0  0  0  0  0  0  0  0
  -23.0713  -13.6623   21.1226 N   0  0  0  0  0  0  0  0  0  0  0  0
  -25.6893  -15.8086   19.4101 N   0  0  0  0  0  0  0  0  0  0  0  0
  -21.2963  -29.8471   22.2143 N   0  0  0  0  0  0  0  0  0  0  0  0
  -15.0586  -27.8771   22.7117 N   0  0  0  0  0  0  0  0  0  0  0  0
  -13.4565  -24.8265   21.6186 N   0  3  0  0  0  0  0  0  0  0  0  0
  -26.1859  -15.6904   21.6457 O   0  0  0  0  0  0  0  0  0  0  0  0
  -20.4748  -28.8481   24.1507 O   0  0  0  0  0  0  0  0  0  0  0  0
  -17.2338  -29.4072   21.6457 O   0  0  0  0  0  0  0  0  0  0  0  0
  -14.9738  -25.8164   23.7715 O   0  0  0  0  0  0  0  0  0  0  0  0
  -20.0900   -8.5557   22.9318 O   0  0  0  0  0  0  0  0  0  0  0  0
  -31.8237  -12.7351   19.1949 O   0  0  0  0  0  0  0  0  0  0  0  0
  -20.7995  -22.9358   25.8429 O   0  0  0  0  0  0  0  0  0  1  0  0
  -34.5266  -17.4467   20.1427 F   0  0  0  0  0  0  0  0  0  0  0  0
  -33.9489  -12.8205   20.9609 F   0  0  0  0  0  0  0  0  0  0  0  0
  1  2  1  0  0  0  0
  1  5  2  0  0  0  0
  2  6  2  0  0  0  0
  3  8  2  0  0  0  0
  3 16  1  0  0  0  0
  4  9  1  0  0  0  0
  4 16  2  0  0  0  0
  5 18  1  0  0  0  0
  6 20  1  0  0  0  0
  7 10  2  0  0  0  0
  7 19  1  0  0  0  0
  8 27  1  0  0  0  0
  9 27  2  0  0  0  0
 10 28  1  0  0  0  0
 11 12  2  0  0  0  0
 11 29  1  0  0  0  0
 12 30  1  0  0  0  0
 13 21  1  0  0  0  0
 13 23  2  0  0  0  0
 14 22  1  0  0  0  0
 14 28  2  0  0  0  0
 15 30  2  0  0  0  0
 15 31  1  0  0  0  0
 16 32  1  0  0  0  0
 17 32  1  0  0  0  0
 17 33  2  0  0  0  0
 17 34  1  0  0  0  0
 18 20  2  0  0  0  0
 18 39  1  0  0  0  0
 19 22  2  0  0  0  0
 19 40  1  0  0  0  0
 20 57  1  0  0  0  0
 21 24  2  0  0  0  0
 21 56  1  0  0  0  0
 22 41  1  0  0  0  0
 23 26  1  0  0  0  0
 23 61  1  0  0  0  0
 24 25  1  0  0  0  0
 24 62  1  0  0  0  0
 25 26  2  0  0  0  0
 25 63  1  0  0  0  0
 26 74  1  0  0  0  0
 27 88  1  0  0  0  0
 28 89  1  0  0  0  0
 29 31  2  0  0  0  0
 29 88  1  0  0  0  0
 30 90  1  0  0  0  0
 31 91  1  0  0  0  0
 32 72  2  0  0  0  0
 33 73  1  0  0  0  0
 33 78  1  0  0  0  0
 34 79  1  0  0  0  0
 34 83  2  0  0  0  0
 35 58  1  0  0  0  0
 35 80  1  0  0  0  0
 35 84  2  0  0  0  0
 36 69  1  0  0  0  0
 36 75  1  0  0  0  0
 36 85  2  0  0  0  0
 37 70  1  0  0  0  0
 37 81  1  0  0  0  0
 37 86  2  0  0  0  0
 38 76  1  0  0  0  0
 38 77  1  0  0  0  0
 38 87  2  0  0  0  0
 39 42  1  0  0  0  0
 40 58  1  0  0  0  0
 41 75  1  0  0  0  0
 42 44  1  0  0  0  0
 43 45  1  0  0  0  0
 43 50  1  0  0  0  0
 44 57  1  0  0  0  0
 45 59  1  0  0  0  0
 46 51  1  0  0  0  0
 46 56  1  0  0  0  0
 47 52  1  0  0  0  0
 47 56  1  0  0  0  0
 48 53  1  0  0  0  0
 48 60  1  0  0  0  0
 49 54  1  0  0  0  0
 49 60  1  0  0  0  0
 50 76  1  0  0  0  0
 51 77  1  0  0  0  0
 52 77  1  0  0  0  0
 53 74  1  0  0  0  0
 54 74  1  0  0  0  0
 55 59  1  0  0  0  0
 55 76  1  0  0  0  0
 57 80  1  0  0  0  0
 58 75  1  0  0  0  0
 59 73  1  0  0  0  0
 60 89  1  0  0  0  0
 64 70  1  0  0  0  0
 65 71  1  0  0  0  0
 66 71  1  0  0  0  0
 67 71  1  0  0  0  0
 68 82  1  0  0  0  0
 69 71  1  0  0  0  0
 69 81  1  0  0  0  0
 70 82  1  0  0  0  0
 72 73  1  0  0  0  0
M  CHG  1  82   1
M  ISO  4  38 100  60 101  77 100  89 101
M  END
> <Batch ID>
0158

> <Smiles>
CNC(C)C(=O)NC(C(=O)N1Cc2cc([101O:1][101CH:1]3CCN(c4c(C)cc(C5CC[100N:0]([100C:0](=O)N6CCCC(n7nc(-c8ccc(Oc9ccc(F)cc9F)cc8)c(C(N)=O)c7N)C6)CC5)c(C)c4C)CC3)ccc2CC1C(=O)NC1CCCc2ccccc21)C(C)(C)C

> <Shape>
0.221

> <Color>
0.119

> <Negative vol penalty>
0.000

$$$$

  -OEChem-04052322043D

 90 99  0     1  0  0  0  0  0999 V2000
  -16.7687  -26.6165   25.2846 C   0  0  0  0  0  0  0  0  0  0  0  0
  -17.9816  -25.9366   25.2416 C   0  0  0  0  0  0  0  0  0  0  0  0
  -24.8733   -8.8382   22.3712 C   0  0  0  0  0  0  0  0  0  0  0  0
  -25.1896   -7.9150   20.1611 C   0  0  0  0  0  0  0  0  0  0  0  0
  -16.6091  -27.8011   24.5668 C   0  0  0  0  0  0  0  0  0  0  0  0
  -19.0354  -26.4403   24.4799 C   0  0  0  0  0  0  0  0  0  0  0  0
  -25.0098  -26.1050   25.7837 C   0  0  0  0  0  0  0  0  0  0  0  0
  -23.6116   -8.2472   22.4375 C   0  0  0  0  0  0  0  0  0  0  0  0
  -23.9279   -7.3239   20.2274 C   0  0  0  0  0  0  0  0  0  0  0  0
  -26.0174  -25.2441   25.3509 C   0  0  0  0  0  0  0  0  0  0  0  0
  -22.3269   -5.1792   23.0455 C   0  0  0  0  0  0  0  0  0  0  0  0
  -21.9814   -4.5192   24.2247 C   0  0  0  0  0  0  0  0  0  0  0  0
  -26.6601  -26.8511   23.6704 C   0  0  0  0  0  0  0  0  0  0  0  0
  -30.3623  -23.8382   20.0672 C   0  0  0  0  0  0  0  0  0  0  0  0
  -29.1979  -21.9987   18.3228 C   0  0  0  0  0  0  0  0  0  0  0  0
  -20.1100   -6.0193   24.5160 C   0  0  0  0  0  0  0  0  0  0  0  0
  -25.6623   -8.6721   21.2329 C   0  0  0  0  0  0  0  0  0  0  0  0
  -28.1900   -8.7219   21.5730 C   0  0  0  0  0  0  0  0  0  0  0  0
  -17.6645  -28.3247   23.8036 C   0  0  0  0  0  0  0  0  0  0  0  0
  -24.8123  -27.3428   25.1550 C   0  0  0  0  0  0  0  0  0  0  0  0
  -18.8893  -27.6323   23.7501 C   0  0  0  0  0  0  0  0  0  0  0  0
  -25.6508  -27.7269   24.0989 C   0  0  0  0  0  0  0  0  0  0  0  0
  -30.0175  -24.2265   18.7726 C   0  0  0  0  0  0  0  0  0  0  0  0
  -30.1250  -22.5302   20.4896 C   0  0  0  0  0  0  0  0  0  0  0  0
  -29.4352  -23.3067   17.9004 C   0  0  0  0  0  0  0  0  0  0  0  0
  -23.1389   -7.4900   21.3656 C   0  0  0  0  0  0  0  0  0  0  0  0
  -26.8409  -25.6159   24.2922 C   0  0  0  0  0  0  0  0  0  0  0  0
  -21.5640   -6.2593   22.6015 C   0  0  0  0  0  0  0  0  0  0  0  0
  -29.5427  -21.6104   19.6174 C   0  0  0  0  0  0  0  0  0  0  0  0
  -20.8729   -4.9393   24.9600 C   0  0  0  0  0  0  0  0  0  0  0  0
  -20.4556   -6.6793   23.3367 C   0  0  0  0  0  0  0  0  0  0  0  0
  -26.9655   -9.2829   21.1636 C   0  0  0  0  0  0  0  0  0  0  0  0
  -29.1213   -9.6937   21.2994 C   0  0  0  0  0  0  0  0  0  0  0  0
  -28.4615   -7.4373   22.1489 C   0  0  0  0  0  0  0  0  0  0  0  0
  -22.4257  -28.6821   23.5383 C   0  0  0  0  0  0  0  0  0  0  0  0
  -24.3502  -31.2920   23.6229 C   0  0  0  0  0  0  0  0  0  0  0  0
  -27.5070  -32.5557   23.9125 C   0  0  0  0  0  0  0  0  0  0  0  0
  -28.9256  -15.4587   20.9617 C   0  0  0  0  0  0  0  0  0  0  0  0
  -17.4294  -29.5834   23.0068 C   0  0  0  0  0  0  0  0  0  0  0  0
  -23.7382  -28.2714   25.6513 C   0  0  0  0  0  0  0  0  0  0  0  0
  -25.4933  -29.0536   23.4035 C   0  0  0  0  0  0  0  0  0  0  0  0
  -18.7161  -30.2477   22.5235 C   0  0  0  0  0  0  0  0  0  0  0  0
  -29.9665  -13.3574   18.3497 C   0  0  0  0  0  0  0  0  0  0  0  0
  -19.6562  -29.2114   21.9160 C   0  0  0  0  0  0  0  0  0  0  0  0
  -29.4305  -12.0043   18.8168 C   0  0  0  0  0  0  0  0  0  0  0  0
  -30.8948  -18.5023   20.1830 C   0  0  0  0  0  0  0  0  0  0  0  0
  -28.9086  -18.3825   18.6176 C   0  0  0  0  0  0  0  0  0  0  0  0
  -28.9757  -14.4908   18.6208 C   0  0  0  0  0  0  0  0  0  0  0  0
  -30.1504  -17.5908   21.1574 C   0  0  0  0  0  0  0  0  0  0  0  0
  -28.2087  -17.4775   19.6289 C   0  0  0  0  0  0  0  0  0  0  0  0
  -27.9852  -13.2153   20.4939 C   0  0  0  0  0  0  0  0  0  0  0  0
  -20.0639  -28.1599   22.9551 C   0  0  1  0  0  0  0  0  0  0  0  0
  -23.2959  -29.2877   24.6031 C   0  0  1  0  0  0  0  0  0  0  0  0
  -28.9833  -12.0653   20.2882 C   0  0  1  0  0  0  0  0  0  0  0  0
  -29.9508  -19.2898   19.2737 C   0  0  0  0  0  0  0  0  0  0  0  0
  -30.2824  -25.6317   18.3416 C   0  0  0  0  0  0  0  0  0  0  0  0
  -29.0574  -23.6988   16.5098 C   0  0  0  0  0  0  0  0  0  0  0  0
  -31.9908  -22.3216   22.1831 C   0  0  0  0  0  0  0  0  0  0  0  0
  -28.7689  -34.7248   23.9055 C   0  0  0  0  0  0  0  0  0  0  0  0
  -24.0674  -31.4439   20.5886 C   0  0  0  0  0  0  0  0  0  0  0  0
  -26.0461  -32.9774   20.5508 C   0  0  0  0  0  0  0  0  0  0  0  0
  -23.9698  -33.6528   21.7573 C   0  0  0  0  0  0  0  0  0  0  0  0
  -28.4848  -32.1296   26.6732 C   0  0  0  0  0  0  0  0  0  0  0  0
  -28.2701  -22.6201   22.8940 C   0  0  0  0  0  0  0  0  0  0  0  0
  -27.5991  -23.3780   24.0225 C   0  0  0  0  0  0  0  0  0  1  0  0
  -30.4996  -22.1321   21.8791 C   0  0  1  0  0  0  0  0  0  0  0  0
  -25.4408  -31.8453   22.7378 C   0  0  1  0  0  0  0  0  0  0  0  0
  -28.0670  -33.6824   24.7619 C   0  0  2  0  0  0  0  0  0  0  0  0
  -24.8830  -32.4539   21.4202 C   0  0  0  0  0  0  0  0  0  0  0  0
  -27.1030  -10.5155   20.6678 N   0  0  0  0  0  0  0  0  0  0  0  0
  -28.4251  -10.7371   20.7640 N   0  0  0  0  0  0  0  0  0  0  0  0
  -24.4247  -29.9241   23.9212 N   0  0  0  0  0  0  0  0  0  0  0  0
  -28.5485  -14.4836   20.0262 N   0  0  0  0  0  0  0  0  0  0  0  0
  -29.1714  -16.7511   20.4679 N   0  0  0  0  0  0  0  0  0  0  0  0
  -30.4597   -9.7489   21.4671 N   0  0  0  0  0  0  0  0  0  0  0  0
  -27.3889   -6.5607   22.3624 N   0  0  0  0  0  0  0  0  0  0  0  0
  -21.0775  -28.6914   23.8410 N   0  0  0  0  0  0  0  0  0  0  0  0
  -26.1945  -32.7867   23.5587 N   0  0  0  0  0  0  0  0  0  0  0  0
  -29.0469  -33.1486   25.7498 N   0  3  0  0  0  0  0  0  0  0  0  0
  -29.7289  -22.8691   22.9376 N   0  3  0  0  0  0  0  0  0  0  0  0
  -29.6186   -7.0838   22.4801 O   0  0  0  0  0  0  0  0  0  0  0  0
  -22.9393  -28.2406   22.5171 O   0  0  0  0  0  0  0  0  0  0  0  0
  -23.4687  -32.0473   24.0403 O   0  0  0  0  0  0  0  0  0  0  0  0
  -28.1690  -31.5712   23.5917 O   0  0  0  0  0  0  0  0  0  0  0  0
  -29.0399  -15.1930   22.1648 O   0  0  0  0  0  0  0  0  0  0  0  0
  -21.9079   -6.9130   21.4301 O   0  0  0  0  0  0  0  0  0  0  0  0
  -29.3040  -20.3215   20.0157 O   0  0  0  0  0  0  0  0  0  0  0  0
  -27.8318  -24.7713   23.8642 O   0  0  0  0  0  0  0  0  0  1  0  0
  -20.5403   -4.3044   26.0916 F   0  0  0  0  0  0  0  0  0  0  0  0
  -19.7182   -7.7156   22.9146 F   0  0  0  0  0  0  0  0  0  0  0  0
  1  2  1  0  0  0  0
  1  5  2  0  0  0  0
  2  6  2  0  0  0  0
  3  8  2  0  0  0  0
  3 17  1  0  0  0  0
  4  9  1  0  0  0  0
  4 17  2  0  0  0  0
  5 19  1  0  0  0  0
  6 21  1  0  0  0  0
  7 10  2  0  0  0  0
  7 20  1  0  0  0  0
  8 26  1  0  0  0  0
  9 26  2  0  0  0  0
 10 27  1  0  0  0  0
 11 12  2  0  0  0  0
 11 28  1  0  0  0  0
 12 30  1  0  0  0  0
 13 22  1  0  0  0  0
 13 27  2  0  0  0  0
 14 23  2  0  0  0  0
 14 24  1  0  0  0  0
 15 25  2  0  0  0  0
 15 29  1  0  0  0  0
 16 30  2  0  0  0  0
 16 31  1  0  0  0  0
 17 32  1  0  0  0  0
 18 32  1  0  0  0  0
 18 33  2  0  0  0  0
 18 34  1  0  0  0  0
 19 21  2  0  0  0  0
 19 39  1  0  0  0  0
 20 22  2  0  0  0  0
 20 40  1  0  0  0  0
 21 52  1  0  0  0  0
 22 41  1  0  0  0  0
 23 25  1  0  0  0  0
 23 56  1  0  0  0  0
 24 29  2  0  0  0  0
 24 66  1  0  0  0  0
 25 57  1  0  0  0  0
 26 86  1  0  0  0  0
 27 88  1  0  0  0  0
 28 31  2  0  0  0  0
 28 86  1  0  0  0  0
 29 87  1  0  0  0  0
 30 89  1  0  0  0  0
 31 90  1  0  0  0  0
 32 70  2  0  0  0  0
 33 71  1  0  0  0  0
 33 75  1  0  0  0  0
 34 76  1  0  0  0  0
 34 81  2  0  0  0  0
 35 53  1  0  0  0  0
 35 77  1  0  0  0  0
 35 82  2  0  0  0  0
 36 67  1  0  0  0  0
 36 72  1  0  0  0  0
 36 83  2  0  0  0  0
 37 68  1  0  0  0  0
 37 78  1  0  0  0  0
 37 84  2  0  0  0  0
 38 73  1  0  0  0  0
 38 74  1  0  0  0  0
 38 85  2  0  0  0  0
 39 42  1  0  0  0  0
 40 53  1  0  0  0  0
 41 72  1  0  0  0  0
 42 44  1  0  0  0  0
 43 45  1  0  0  0  0
 43 48  1  0  0  0  0
 44 52  1  0  0  0  0
 45 54  1  0  0  0  0
 46 49  1  0  0  0  0
 46 55  1  0  0  0  0
 47 50  1  0  0  0  0
 47 55  1  0  0  0  0
 48 73  1  0  0  0  0
 49 74  1  0  0  0  0
 50 74  1  0  0  0  0
 51 54  1  0  0  0  0
 51 73  1  0  0  0  0
 52 77  1  0  0  0  0
 53 72  1  0  0  0  0
 54 71  1  0  0  0  0
 55 87  1  0  0  0  0
 58 66  1  0  0  0  0
 59 68  1  0  0  0  0
 60 69  1  0  0  0  0
 61 69  1  0  0  0  0
 62 69  1  0  0  0  0
 63 79  1  0  0  0  0
 64 65  1  0  0  0  0
 64 80  1  0  0  0  0
 65 88  1  0  0  0  0
 66 80  1  0  0  0  0
 67 69  1  0  0  0  0
 67 78  1  0  0  0  0
 68 79  1  0  0  0  0
 70 71  1  0  0  0  0
M  CHG  2  79   1  80   1
M  ISO  4  38 100  65 101  74 100  88 101
M  END
> <Batch ID>
0158

> <Smiles>
CNC(C)C(=O)NC(C(=O)N1Cc2cc([101O:1][101CH2:1]CNC(C)c3cc(C)c(C)cc3OC3CC[100N:0]([100C:0](=O)N4CCCC(n5nc(-c6ccc(Oc7ccc(F)cc7F)cc6)c(C(N)=O)c5N)C4)CC3)ccc2CC1C(=O)NC1CCCc2ccccc21)C(C)(C)C

> <Shape>
0.292

> <Color>
0.103

> <Negative vol penalty>
0.000

$$$$

  -OEChem-04052322043D

 88 97  0     1  0  0  0  0  0999 V2000
  -34.3626  -10.9016   18.7994 C   0  0  0  0  0  0  0  0  0  0  0  0
  -33.9625  -12.2154   19.0211 C   0  0  0  0  0  0  0  0  0  0  0  0
  -22.1642  -30.3972   19.1053 C   0  0  0  0  0  0  0  0  0  0  0  0
  -21.6929  -32.5244   20.1495 C   0  0  0  0  0  0  0  0  0  0  0  0
  -33.4708   -9.9874   18.2402 C   0  0  0  0  0  0  0  0  0  0  0  0
  -32.6704  -12.6160   18.6828 C   0  0  0  0  0  0  0  0  0  0  0  0
  -29.1936  -16.7060   21.6307 C   0  0  0  0  0  0  0  0  0  0  0  0
  -21.0470  -29.8430   19.7299 C   0  0  0  0  0  0  0  0  0  0  0  0
  -20.5756  -31.9702   20.7741 C   0  0  0  0  0  0  0  0  0  0  0  0
  -28.9315  -18.0554   21.3980 C   0  0  0  0  0  0  0  0  0  0  0  0
  -18.5232  -27.7746   21.3349 C   0  0  0  0  0  0  0  0  0  0  0  0
  -18.6664  -26.5217   21.9310 C   0  0  0  0  0  0  0  0  0  0  0  0
  -26.9110  -17.4545   20.2251 C   0  0  0  0  0  0  0  0  0  0  0  0
  -26.7843  -22.5255   21.1546 C   0  0  0  0  0  0  0  0  0  0  0  0
  -28.8067  -22.9201   19.8932 C   0  0  0  0  0  0  0  0  0  0  0  0
  -20.3752  -27.4107   23.3893 C   0  0  0  0  0  0  0  0  0  0  0  0
  -22.4872  -31.7379   19.3151 C   0  0  0  0  0  0  0  0  0  0  0  0
  -23.6879  -32.9393   17.4118 C   0  0  0  0  0  0  0  0  0  0  0  0
  -32.1640  -10.3745   17.9038 C   0  0  0  0  0  0  0  0  0  0  0  0
  -28.3205  -15.7185   21.1521 C   0  0  0  0  0  0  0  0  0  0  0  0
  -31.7606  -11.7064   18.1174 C   0  0  0  0  0  0  0  0  0  0  0  0
  -27.1630  -16.0934   20.4552 C   0  0  0  0  0  0  0  0  0  0  0  0
  -28.0113  -22.0753   20.6675 C   0  0  0  0  0  0  0  0  0  0  0  0
  -26.3525  -23.8204   20.8673 C   0  0  0  0  0  0  0  0  0  0  0  0
  -28.3749  -24.2150   19.6059 C   0  0  0  0  0  0  0  0  0  0  0  0
  -20.2526  -30.6295   20.5643 C   0  0  0  0  0  0  0  0  0  0  0  0
  -27.7916  -18.4297   20.6926 C   0  0  0  0  0  0  0  0  0  0  0  0
  -19.3061  -28.8456   21.7660 C   0  0  0  0  0  0  0  0  0  0  0  0
  -27.1478  -24.6651   20.0930 C   0  0  0  0  0  0  0  0  0  0  0  0
  -19.5923  -26.3397   22.9582 C   0  0  0  0  0  0  0  0  0  0  0  0
  -20.2320  -28.6637   22.7932 C   0  0  0  0  0  0  0  0  0  0  0  0
  -23.6416  -32.3108   18.6706 C   0  0  0  0  0  0  0  0  0  0  0  0
  -25.0026  -33.3063   17.2594 C   0  0  0  0  0  0  0  0  0  0  0  0
  -22.6365  -33.1707   16.4648 C   0  0  0  0  0  0  0  0  0  0  0  0
  -28.5763  -13.2977   19.1080 C   0  0  0  0  0  0  0  0  0  0  0  0
  -25.5676  -12.6332   20.1222 C   0  0  0  0  0  0  0  0  0  0  0  0
  -22.6601  -13.7652   21.5048 C   0  0  0  0  0  0  0  0  0  0  0  0
  -26.8397  -31.1062   21.8103 C   0  0  0  0  0  0  0  0  0  0  0  0
  -31.2507   -9.3628   17.2581 C   0  0  0  0  0  0  0  0  0  0  0  0
  -28.6036  -14.2685   21.4346 C   0  0  0  0  0  0  0  0  0  0  0  0
  -26.1834  -15.0730   19.9378 C   0  0  0  0  0  0  0  0  0  0  0  0
  -29.7801   -9.7721   17.2742 C   0  0  0  0  0  0  0  0  0  0  0  0
  -27.2191  -34.4636   20.8715 C   0  0  0  0  0  0  0  0  0  0  0  0
  -29.6251  -11.2237   16.8319 C   0  0  0  0  0  0  0  0  0  0  0  0
  -27.4262  -34.4228   19.3596 C   0  0  0  0  0  0  0  0  0  0  0  0
  -27.9434  -28.0117   20.0185 C   0  0  0  0  0  0  0  0  0  0  0  0
  -25.8349  -27.5750   21.3230 C   0  0  0  0  0  0  0  0  0  0  0  0
  -27.9385  -33.3080   21.5525 C   0  0  0  0  0  0  0  0  0  0  0  0
  -28.2296  -29.1973   20.9312 C   0  0  0  0  0  0  0  0  0  0  0  0
  -26.1553  -28.7718   22.2105 C   0  0  0  0  0  0  0  0  0  0  0  0
  -27.7050  -31.8783   19.5432 C   0  0  0  0  0  0  0  0  0  0  0  0
  -30.3594  -12.1728   17.7867 C   0  0  1  0  0  0  0  0  0  0  0  0
  -27.9132  -13.3233   20.4561 C   0  0  1  0  0  0  0  0  0  0  0  0
  -27.1152  -33.0526   18.7312 C   0  0  1  0  0  0  0  0  0  0  0  0
  -27.0992  -26.9557   20.7313 C   0  0  0  0  0  0  0  0  0  0  0  0
  -25.0359  -24.2842   21.3979 C   0  0  0  0  0  0  0  0  0  0  0  0
  -29.5565  -24.5155   17.4009 C   0  0  0  0  0  0  0  0  0  0  0  0
  -20.3673  -12.9963   22.1750 C   0  0  0  0  0  0  0  0  0  0  0  0
  -24.7156  -12.6279   17.1923 C   0  0  0  0  0  0  0  0  0  0  0  0
  -22.3381  -12.8091   17.9557 C   0  0  0  0  0  0  0  0  0  0  0  0
  -23.6973  -10.8122   18.5782 C   0  0  0  0  0  0  0  0  0  0  0  0
  -23.1294  -14.4620   24.3426 C   0  0  0  0  0  0  0  0  0  0  0  0
  -28.4729  -20.6908   20.9741 C   0  0  0  0  0  0  0  0  0  1  0  0
  -29.2405  -25.1046   18.7757 C   0  0  2  0  0  0  0  0  0  0  0  0
  -24.1793  -13.0336   19.6851 C   0  0  1  0  0  0  0  0  0  0  0  0
  -21.8008  -13.2195   22.6310 C   0  0  2  0  0  0  0  0  0  0  0  0
  -23.7518  -12.3401   18.3608 C   0  0  0  0  0  0  0  0  0  0  0  0
  -24.8323  -32.2785   19.2749 N   0  0  0  0  0  0  0  0  0  0  0  0
  -25.6392  -32.8912   18.3920 N   0  0  0  0  0  0  0  0  0  0  0  0
  -26.5075  -13.6677   20.2340 N   0  0  0  0  0  0  0  0  0  0  0  0
  -27.5245  -32.0218   20.9951 N   0  0  0  0  0  0  0  0  0  0  0  0
  -26.9948  -29.7441   21.5101 N   0  0  0  0  0  0  0  0  0  0  0  0
  -25.6648  -33.9403   16.2684 N   0  0  0  0  0  0  0  0  0  0  0  0
  -21.3443  -32.7288   16.7800 N   0  0  0  0  0  0  0  0  0  0  0  0
  -29.5908  -12.3659   18.9976 N   0  0  0  0  0  0  0  0  0  0  0  0
  -23.2996  -12.7566   20.8156 N   0  0  0  0  0  0  0  0  0  0  0  0
  -21.7864  -14.1699   23.7788 N   0  3  0  0  0  0  0  0  0  0  0  0
  -22.8402  -33.7374   15.3645 O   0  0  0  0  0  0  0  0  0  0  0  0
  -28.1948  -14.0654   18.2324 O   0  0  0  0  0  0  0  0  0  0  0  0
  -25.8075  -11.4474   20.3627 O   0  0  0  0  0  0  0  0  0  0  0  0
  -22.7516  -14.9658   21.2586 O   0  0  0  0  0  0  0  0  0  0  0  0
  -26.1098  -31.4807   22.7369 O   0  0  0  0  0  0  0  0  0  0  0  0
  -30.4762  -25.3264   19.4636 O   0  0  0  0  0  0  0  0  0  0  0  0
  -19.1622  -30.0891   21.1738 O   0  0  0  0  0  0  0  0  0  0  0  0
  -26.7239  -25.9372   19.8116 O   0  0  0  0  0  0  0  0  0  0  0  0
  -27.5320  -19.7551   20.4620 O   0  0  0  0  0  0  0  0  0  1  0  0
  -19.7286  -25.1369   23.5315 F   0  0  0  0  0  0  0  0  0  0  0  0
  -20.9861  -29.6891   23.2125 F   0  0  0  0  0  0  0  0  0  0  0  0
  1  2  1  0  0  0  0
  1  5  2  0  0  0  0
  2  6  2  0  0  0  0
  3  8  2  0  0  0  0
  3 17  1  0  0  0  0
  4  9  1  0  0  0  0
  4 17  2  0  0  0  0
  5 19  1  0  0  0  0
  6 21  1  0  0  0  0
  7 10  2  0  0  0  0
  7 20  1  0  0  0  0
  8 26  1  0  0  0  0
  9 26  2  0  0  0  0
 10 27  1  0  0  0  0
 11 12  2  0  0  0  0
 11 28  1  0  0  0  0
 12 30  1  0  0  0  0
 13 22  1  0  0  0  0
 13 27  2  0  0  0  0
 14 23  1  0  0  0  0
 14 24  2  0  0  0  0
 15 23  2  0  0  0  0
 15 25  1  0  0  0  0
 16 30  2  0  0  0  0
 16 31  1  0  0  0  0
 17 32  1  0  0  0  0
 18 32  1  0  0  0  0
 18 33  2  0  0  0  0
 18 34  1  0  0  0  0
 19 21  2  0  0  0  0
 19 39  1  0  0  0  0
 20 22  2  0  0  0  0
 20 40  1  0  0  0  0
 21 52  1  0  0  0  0
 22 41  1  0  0  0  0
 23 63  1  0  0  0  0
 24 29  1  0  0  0  0
 24 56  1  0  0  0  0
 25 29  2  0  0  0  0
 25 64  1  0  0  0  0
 26 84  1  0  0  0  0
 27 86  1  0  0  0  0
 28 31  2  0  0  0  0
 28 84  1  0  0  0  0
 29 85  1  0  0  0  0
 30 87  1  0  0  0  0
 31 88  1  0  0  0  0
 32 68  2  0  0  0  0
 33 69  1  0  0  0  0
 33 73  1  0  0  0  0
 34 74  1  0  0  0  0
 34 78  2  0  0  0  0
 35 53  1  0  0  0  0
 35 75  1  0  0  0  0
 35 79  2  0  0  0  0
 36 65  1  0  0  0  0
 36 70  1  0  0  0  0
 36 80  2  0  0  0  0
 37 66  1  0  0  0  0
 37 76  1  0  0  0  0
 37 81  2  0  0  0  0
 38 71  1  0  0  0  0
 38 72  1  0  0  0  0
 38 82  2  0  0  0  0
 39 42  1  0  0  0  0
 40 53  1  0  0  0  0
 41 70  1  0  0  0  0
 42 44  1  0  0  0  0
 43 45  1  0  0  0  0
 43 48  1  0  0  0  0
 44 52  1  0  0  0  0
 45 54  1  0  0  0  0
 46 49  1  0  0  0  0
 46 55  1  0  0  0  0
 47 50  1  0  0  0  0
 47 55  1  0  0  0  0
 48 71  1  0  0  0  0
 49 72  1  0  0  0  0
 50 72  1  0  0  0  0
 51 54  1  0  0  0  0
 51 71  1  0  0  0  0
 52 75  1  0  0  0  0
 53 70  1  0  0  0  0
 54 69  1  0  0  0  0
 55 85  1  0  0  0  0
 57 64  1  0  0  0  0
 58 66  1  0  0  0  0
 59 67  1  0  0  0  0
 60 67  1  0  0  0  0
 61 67  1  0  0  0  0
 62 77  1  0  0  0  0
 63 86  1  0  0  0  0
 64 83  1  0  0  0  0
 65 67  1  0  0  0  0
 65 76  1  0  0  0  0
 66 77  1  0  0  0  0
 68 69  1  0  0  0  0
M  CHG  1  77   1
M  ISO  4  38 100  63 101  72 100  86 101
M  END
> <Batch ID>
0158

> <Smiles>
CNC(C)C(=O)NC(C(=O)N1Cc2cc([101O:1][101CH2:1]c3cc(C)c(OC4CC[100N:0]([100C:0](=O)N5CCCC(n6nc(-c7ccc(Oc8ccc(F)cc8F)cc7)c(C(N)=O)c6N)C5)CC4)c(C(C)O)c3)ccc2CC1C(=O)NC1CCCc2ccccc21)C(C)(C)C

> <Shape>
0.251

> <Color>
0.066

> <Negative vol penalty>
0.000

$$$$

  -OEChem-04052322043D

 86 95  0     1  0  0  0  0  0999 V2000
  -27.0435  -37.6811   24.1651 C   0  0  0  0  0  0  0  0  0  0  0  0
  -27.7468  -36.6819   23.5000 C   0  0  0  0  0  0  0  0  0  0  0  0
  -23.6470  -10.4797   22.4291 C   0  0  0  0  0  0  0  0  0  0  0  0
  -24.4906   -8.6131   21.1482 C   0  0  0  0  0  0  0  0  0  0  0  0
  -25.9102  -37.3567   24.9097 C   0  0  0  0  0  0  0  0  0  0  0  0
  -27.3179  -35.3575   23.5801 C   0  0  0  0  0  0  0  0  0  0  0  0
  -27.0686  -29.3271   19.7216 C   0  0  0  0  0  0  0  0  0  0  0  0
  -22.5041   -9.7456   22.7463 C   0  0  0  0  0  0  0  0  0  0  0  0
  -23.3478   -7.8789   21.4654 C   0  0  0  0  0  0  0  0  0  0  0  0
  -27.4140  -27.9790   19.8065 C   0  0  0  0  0  0  0  0  0  0  0  0
  -20.8182   -5.3835   22.2352 C   0  0  0  0  0  0  0  0  0  0  0  0
  -20.9880   -4.0571   22.6319 C   0  0  0  0  0  0  0  0  0  0  0  0
  -25.3970  -27.5474   21.0574 C   0  0  0  0  0  0  0  0  0  0  0  0
  -28.7054  -23.3730   21.3304 C   0  0  0  0  0  0  0  0  0  0  0  0
  -28.1048  -23.0509   19.0125 C   0  0  0  0  0  0  0  0  0  0  0  0
  -22.3406   -4.7877   24.4957 C   0  0  0  0  0  0  0  0  0  0  0  0
  -24.6402   -9.9135   21.6300 C   0  0  0  0  0  0  0  0  0  0  0  0
  -27.0277  -10.7208   22.0244 C   0  0  0  0  0  0  0  0  0  0  0  0
  -25.4616  -36.0290   24.9911 C   0  0  0  0  0  0  0  0  0  0  0  0
  -25.8883  -29.7982   20.3143 C   0  0  0  0  0  0  0  0  0  0  0  0
  -26.1783  -35.0149   24.3276 C   0  0  0  0  0  0  0  0  0  0  0  0
  -25.0377  -28.9014   20.9764 C   0  0  0  0  0  0  0  0  0  0  0  0
  -28.6647  -21.1474   20.3911 C   0  0  0  0  0  0  0  0  0  0  0  0
  -28.3186  -23.9001   20.0983 C   0  0  0  0  0  0  0  0  0  0  0  0
  -28.8785  -21.9966   21.4768 C   0  0  0  0  0  0  0  0  0  0  0  0
  -22.3545   -8.4452   22.2645 C   0  0  0  0  0  0  0  0  0  0  0  0
  -26.5796  -27.0894   20.4770 C   0  0  0  0  0  0  0  0  0  0  0  0
  -21.4097   -6.4121   22.9687 C   0  0  0  0  0  0  0  0  0  0  0  0
  -28.2779  -21.6745   19.1589 C   0  0  0  0  0  0  0  0  0  0  0  0
  -21.7491   -3.7592   23.7622 C   0  0  0  0  0  0  0  0  0  0  0  0
  -22.1709   -6.1141   24.0989 C   0  0  0  0  0  0  0  0  0  0  0  0
  -25.8207  -10.6715   21.3016 C   0  0  0  0  0  0  0  0  0  0  0  0
  -27.8253  -11.5752   21.3030 C   0  0  0  0  0  0  0  0  0  0  0  0
  -27.3952  -10.0538   23.2392 C   0  0  0  0  0  0  0  0  0  0  0  0
  -25.2110  -31.8895   22.6103 C   0  0  0  0  0  0  0  0  0  0  0  0
  -22.1520  -31.3040   21.7037 C   0  0  0  0  0  0  0  0  0  0  0  0
  -19.9224  -29.1804   20.2320 C   0  0  0  0  0  0  0  0  0  0  0  0
  -28.6818  -16.1500   18.4118 C   0  0  0  0  0  0  0  0  0  0  0  0
  -24.2586  -35.7204   25.8468 C   0  0  0  0  0  0  0  0  0  0  0  0
  -25.5167  -31.2505   20.1907 C   0  0  0  0  0  0  0  0  0  0  0  0
  -23.7492  -29.3531   21.6122 C   0  0  0  0  0  0  0  0  0  0  0  0
  -23.6541  -34.3453   25.5745 C   0  0  0  0  0  0  0  0  0  0  0  0
  -27.2402  -13.5276   16.6816 C   0  0  0  0  0  0  0  0  0  0  0  0
  -24.7480  -33.2840   25.5125 C   0  0  0  0  0  0  0  0  0  0  0  0
  -26.8375  -12.5448   17.7808 C   0  0  0  0  0  0  0  0  0  0  0  0
  -27.5410  -18.8778   20.3026 C   0  0  0  0  0  0  0  0  0  0  0  0
  -29.9731  -19.1112   19.6394 C   0  0  0  0  0  0  0  0  0  0  0  0
  -26.9486  -14.9640   17.1003 C   0  0  0  0  0  0  0  0  0  0  0  0
  -27.7431  -17.3650   20.4276 C   0  0  0  0  0  0  0  0  0  0  0  0
  -30.1241  -17.6018   19.8049 C   0  0  0  0  0  0  0  0  0  0  0  0
  -27.2102  -14.3898   19.4919 C   0  0  0  0  0  0  0  0  0  0  0  0
  -28.8506  -19.6496   20.5449 C   0  0  0  0  0  0  0  0  0  0  0  0
  -25.7301  -33.5701   24.3701 C   0  0  1  0  0  0  0  0  0  0  0  0
  -24.5472  -31.7134   21.2738 C   0  0  1  0  0  0  0  0  0  0  0  0
  -27.4905  -12.9187   19.1233 C   0  0  1  0  0  0  0  0  0  0  0  0
  -29.2944  -21.4572   22.8062 C   0  0  0  0  0  0  0  0  0  0  0  0
  -17.4861  -28.9606   19.6721 C   0  0  0  0  0  0  0  0  0  0  0  0
  -21.5409  -30.6655   24.6241 C   0  0  0  0  0  0  0  0  0  0  0  0
  -19.4239  -29.5636   23.8677 C   0  0  0  0  0  0  0  0  0  0  0  0
  -19.7763  -31.9986   23.4564 C   0  0  0  0  0  0  0  0  0  0  0  0
  -20.4842  -29.0249   17.3304 C   0  0  0  0  0  0  0  0  0  0  0  0
  -27.6705  -21.4853   16.8674 C   0  0  0  0  0  0  0  0  0  0  0  0
  -28.1349  -25.3718   19.9417 C   0  0  0  0  0  0  0  0  0  1  0  0
  -21.0889  -30.3109   22.1070 C   0  0  1  0  0  0  0  0  0  0  0  0
  -18.8522  -29.4136   19.1809 C   0  0  2  0  0  0  0  0  0  0  0  0
  -20.4827  -30.6262   23.5036 C   0  0  0  0  0  0  0  0  0  0  0  0
  -25.8447  -11.4340   20.2052 N   0  0  0  0  0  0  0  0  0  0  0  0
  -27.0765  -11.9706   20.2338 N   0  0  0  0  0  0  0  0  0  0  0  0
  -23.4329  -30.7839   21.4698 N   0  0  0  0  0  0  0  0  0  0  0  0
  -27.5824  -15.2789   18.3804 N   0  0  0  0  0  0  0  0  0  0  0  0
  -28.8523  -16.9171   19.5740 N   0  0  0  0  0  0  0  0  0  0  0  0
  -29.0870  -12.0194   21.4853 N   0  0  0  0  0  0  0  0  0  0  0  0
  -26.4558   -9.2115   23.8494 N   0  0  0  0  0  0  0  0  0  0  0  0
  -25.1556  -33.1804   23.1002 N   0  0  0  0  0  0  0  0  0  0  0  0
  -20.1135  -30.2941   21.0222 N   0  0  0  0  0  0  0  0  0  0  0  0
  -19.1769  -28.6622   17.9355 N   0  3  0  0  0  0  0  0  0  0  0  0
  -28.5174  -10.2133   23.7767 O   0  0  0  0  0  0  0  0  0  0  0  0
  -25.7334  -30.9253   23.1571 O   0  0  0  0  0  0  0  0  0  0  0  0
  -21.8552  -32.4962   21.5931 O   0  0  0  0  0  0  0  0  0  0  0  0
  -20.5257  -28.1154   20.3435 O   0  0  0  0  0  0  0  0  0  0  0  0
  -29.4658  -16.2371   17.4584 O   0  0  0  0  0  0  0  0  0  0  0  0
  -21.2396   -7.7285   22.5740 O   0  0  0  0  0  0  0  0  0  0  0  0
  -28.0635  -20.8604   18.0876 O   0  0  0  0  0  0  0  0  0  0  0  0
  -26.9169  -25.7642   20.5626 O   0  0  0  0  0  0  0  0  0  1  0  0
  -21.9108   -2.4855   24.1439 F   0  0  0  0  0  0  0  0  0  0  0  0
  -22.7406   -7.0980   24.8083 F   0  0  0  0  0  0  0  0  0  0  0  0
  1  2  1  0  0  0  0
  1  5  2  0  0  0  0
  2  6  2  0  0  0  0
  3  8  2  0  0  0  0
  3 17  1  0  0  0  0
  4  9  1  0  0  0  0
  4 17  2  0  0  0  0
  5 19  1  0  0  0  0
  6 21  1  0  0  0  0
  7 10  2  0  0  0  0
  7 20  1  0  0  0  0
  8 26  1  0  0  0  0
  9 26  2  0  0  0  0
 10 27  1  0  0  0  0
 11 12  2  0  0  0  0
 11 28  1  0  0  0  0
 12 30  1  0  0  0  0
 13 22  1  0  0  0  0
 13 27  2  0  0  0  0
 14 24  1  0  0  0  0
 14 25  2  0  0  0  0
 15 24  2  0  0  0  0
 15 29  1  0  0  0  0
 16 30  2  0  0  0  0
 16 31  1  0  0  0  0
 17 32  1  0  0  0  0
 18 32  1  0  0  0  0
 18 33  2  0  0  0  0
 18 34  1  0  0  0  0
 19 21  2  0  0  0  0
 19 39  1  0  0  0  0
 20 22  2  0  0  0  0
 20 40  1  0  0  0  0
 21 53  1  0  0  0  0
 22 41  1  0  0  0  0
 23 25  1  0  0  0  0
 23 29  2  0  0  0  0
 23 52  1  0  0  0  0
 24 63  1  0  0  0  0
 25 56  1  0  0  0  0
 26 82  1  0  0  0  0
 27 84  1  0  0  0  0
 28 31  2  0  0  0  0
 28 82  1  0  0  0  0
 29 83  1  0  0  0  0
 30 85  1  0  0  0  0
 31 86  1  0  0  0  0
 32 67  2  0  0  0  0
 33 68  1  0  0  0  0
 33 72  1  0  0  0  0
 34 73  1  0  0  0  0
 34 77  2  0  0  0  0
 35 54  1  0  0  0  0
 35 74  1  0  0  0  0
 35 78  2  0  0  0  0
 36 64  1  0  0  0  0
 36 69  1  0  0  0  0
 36 79  2  0  0  0  0
 37 65  1  0  0  0  0
 37 75  1  0  0  0  0
 37 80  2  0  0  0  0
 38 70  1  0  0  0  0
 38 71  1  0  0  0  0
 38 81  2  0  0  0  0
 39 42  1  0  0  0  0
 40 54  1  0  0  0  0
 41 69  1  0  0  0  0
 42 44  1  0  0  0  0
 43 45  1  0  0  0  0
 43 48  1  0  0  0  0
 44 53  1  0  0  0  0
 45 55  1  0  0  0  0
 46 49  1  0  0  0  0
 46 52  1  0  0  0  0
 47 50  1  0  0  0  0
 47 52  1  0  0  0  0
 48 70  1  0  0  0  0
 49 71  1  0  0  0  0
 50 71  1  0  0  0  0
 51 55  1  0  0  0  0
 51 70  1  0  0  0  0
 53 74  1  0  0  0  0
 54 69  1  0  0  0  0
 55 68  1  0  0  0  0
 57 65  1  0  0  0  0
 58 66  1  0  0  0  0
 59 66  1  0  0  0  0
 60 66  1  0  0  0  0
 61 76  1  0  0  0  0
 62 83  1  0  0  0  0
 63 84  1  0  0  0  0
 64 66  1  0  0  0  0
 64 75  1  0  0  0  0
 65 76  1  0  0  0  0
 67 68  1  0  0  0  0
M  CHG  1  76   1
M  ISO  4  38 100  63 101  71 100  84 101
M  END
> <Batch ID>
0158

> <Smiles>
CNC(C)C(=O)NC(C(=O)N1Cc2cc([101O:1][101CH2:1]c3cc(C)c(C4CC[100N:0]([100C:0](=O)N5CCCC(n6nc(-c7ccc(Oc8ccc(F)cc8F)cc7)c(C(N)=O)c6N)C5)CC4)c(OC)c3)ccc2CC1C(=O)NC1CCCc2ccccc21)C(C)(C)C

> <Shape>
0.328

> <Color>
0.087

> <Negative vol penalty>
0.000

$$$$

  -OEChem-04052322043D

 90 99  0     1  0  0  0  0  0999 V2000
  -21.0318  -24.4342   19.2079 C   0  0  0  0  0  0  0  0  0  0  0  0
  -22.2949  -24.5406   19.7813 C   0  0  0  0  0  0  0  0  0  0  0  0
  -24.0633   -9.5853   21.7389 C   0  0  0  0  0  0  0  0  0  0  0  0
  -21.9670  -10.5428   21.0137 C   0  0  0  0  0  0  0  0  0  0  0  0
  -20.3740  -25.5775   18.7563 C   0  0  0  0  0  0  0  0  0  0  0  0
  -22.9013  -25.7903   19.9023 C   0  0  0  0  0  0  0  0  0  0  0  0
  -25.0186  -26.4902   24.4490 C   0  0  0  0  0  0  0  0  0  0  0  0
  -23.4791   -8.3188   21.7555 C   0  0  0  0  0  0  0  0  0  0  0  0
  -21.3828   -9.2763   21.0303 C   0  0  0  0  0  0  0  0  0  0  0  0
  -26.2501  -25.8784   24.6789 C   0  0  0  0  0  0  0  0  0  0  0  0
  -21.4484   -6.5394   23.7887 C   0  0  0  0  0  0  0  0  0  0  0  0
  -21.7005   -5.7246   24.8924 C   0  0  0  0  0  0  0  0  0  0  0  0
  -27.3648  -27.9737   24.2476 C   0  0  0  0  0  0  0  0  0  0  0  0
  -27.9136  -20.9276   20.8118 C   0  0  0  0  0  0  0  0  0  0  0  0
  -27.7231  -19.1379   19.2001 C   0  0  0  0  0  0  0  0  0  0  0  0
  -22.6938   -4.0673   23.4419 C   0  0  0  0  0  0  0  0  0  0  0  0
  -23.3073  -10.6974   21.3681 C   0  0  0  0  0  0  0  0  0  0  0  0
  -24.5665  -12.6258   20.2712 C   0  0  0  0  0  0  0  0  0  0  0  0
  -20.9686  -26.8430   18.8806 C   0  0  0  0  0  0  0  0  0  0  0  0
  -24.9516  -27.8481   24.1054 C   0  0  0  0  0  0  0  0  0  0  0  0
  -22.2514  -26.9515   19.4506 C   0  0  0  0  0  0  0  0  0  0  0  0
  -26.1311  -28.6011   24.0163 C   0  0  0  0  0  0  0  0  0  0  0  0
  -29.2457  -21.1170   20.4441 C   0  0  0  0  0  0  0  0  0  0  0  0
  -29.0552  -19.3273   18.8323 C   0  0  0  0  0  0  0  0  0  0  0  0
  -29.8165  -20.3169   19.4544 C   0  0  0  0  0  0  0  0  0  0  0  0
  -22.1389   -8.1643   21.4011 C   0  0  0  0  0  0  0  0  0  0  0  0
  -27.4236  -26.6194   24.5754 C   0  0  0  0  0  0  0  0  0  0  0  0
  -21.8189   -6.1181   22.5116 C   0  0  0  0  0  0  0  0  0  0  0  0
  -27.1523  -19.9380   20.1898 C   0  0  0  0  0  0  0  0  0  0  0  0
  -22.3232   -4.4886   24.7190 C   0  0  0  0  0  0  0  0  0  0  0  0
  -22.4416   -4.8821   22.3382 C   0  0  0  0  0  0  0  0  0  0  0  0
  -23.9100  -12.0060   21.3513 C   0  0  0  0  0  0  0  0  0  0  0  0
  -24.9546  -13.8487   20.7613 C   0  0  0  0  0  0  0  0  0  0  0  0
  -24.8042  -12.1395   18.9435 C   0  0  0  0  0  0  0  0  0  0  0  0
  -23.9101  -29.4744   21.5807 C   0  0  0  0  0  0  0  0  0  0  0  0
  -24.5557  -32.0410   23.4563 C   0  0  0  0  0  0  0  0  0  0  0  0
  -26.3149  -33.3485   26.0721 C   0  0  0  0  0  0  0  0  0  0  0  0
  -23.8773  -18.4951   23.6589 C   0  0  0  0  0  0  0  0  0  0  0  0
  -20.2389  -28.0448   18.3347 C   0  0  0  0  0  0  0  0  0  0  0  0
  -23.6136  -28.4997   23.8868 C   0  0  0  0  0  0  0  0  0  0  0  0
  -26.1121  -30.0668   23.6703 C   0  0  0  0  0  0  0  0  0  0  0  0
  -20.7916  -29.3747   18.8407 C   0  0  0  0  0  0  0  0  0  0  0  0
  -24.9736  -15.6451   25.4899 C   0  0  0  0  0  0  0  0  0  0  0  0
  -22.3141  -29.3902   18.7473 C   0  0  0  0  0  0  0  0  0  0  0  0
  -24.8428  -14.4952   24.4896 C   0  0  0  0  0  0  0  0  0  0  0  0
  -29.4047  -23.5623   20.8711 C   0  0  0  0  0  0  0  0  0  0  0  0
  -30.1270  -21.9016   22.6338 C   0  0  0  0  0  0  0  0  0  0  0  0
  -23.8484  -16.6648   25.3279 C   0  0  0  0  0  0  0  0  0  0  0  0
  -23.5539  -16.0446   22.9610 C   0  0  0  0  0  0  0  0  0  0  0  0
  -30.1423  -24.6643   21.6209 C   0  0  0  0  0  0  0  0  0  0  0  0
  -30.8593  -23.0163   23.3699 C   0  0  0  0  0  0  0  0  0  0  0  0
  -30.0387  -22.1852   21.1256 C   0  0  0  0  0  0  0  0  0  0  0  0
  -22.9317  -28.2924   19.6219 C   0  0  1  0  0  0  0  0  0  0  0  0
  -23.6968  -29.7655   23.0392 C   0  0  1  0  0  0  0  0  0  0  0  0
  -24.6975  -15.0196   23.0483 C   0  0  2  0  0  0  0  0  0  0  0  0
  -29.6439  -18.4563   17.7712 C   0  0  0  0  0  0  0  0  0  0  0  0
  -31.2452  -20.5199   19.0607 C   0  0  0  0  0  0  0  0  0  0  0  0
  -26.6574  -35.4843   27.3442 C   0  0  0  0  0  0  0  0  0  0  0  0
  -26.2532  -33.1298   21.1666 C   0  0  0  0  0  0  0  0  0  0  0  0
  -27.3004  -34.7204   22.7918 C   0  0  0  0  0  0  0  0  0  0  0  0
  -24.8517  -34.8421   22.3319 C   0  0  0  0  0  0  0  0  0  0  0  0
  -25.3665  -32.1320   28.5979 C   0  0  0  0  0  0  0  0  0  0  0  0
  -23.8975  -20.2150   21.8699 C   0  0  0  0  0  0  0  0  0  0  0  0
  -30.7818  -25.4514   23.8982 C   0  0  0  0  0  0  0  0  0  0  0  0
  -25.3342  -20.6040   21.5708 C   0  0  0  0  0  0  0  0  0  0  0  0
  -29.7506  -26.5459   24.0901 C   0  0  0  0  0  0  0  0  0  1  0  0
  -25.7631  -32.9159   23.6924 C   0  0  1  0  0  0  0  0  0  0  0  0
  -25.8781  -34.1809   27.2640 C   0  0  2  0  0  0  0  0  0  0  0  0
  -26.0429  -33.8740   22.5003 C   0  0  0  0  0  0  0  0  0  0  0  0
  -23.8809  -12.7719   22.4452 N   0  0  0  0  0  0  0  0  0  0  0  0
  -24.5240  -13.8856   22.0549 N   0  0  0  0  0  0  0  0  0  0  0  0
  -24.7798  -30.6569   23.4595 N   0  0  0  0  0  0  0  0  0  0  0  0
  -23.7651  -17.1233   23.9391 N   0  0  0  0  0  0  0  0  0  0  0  0
  -25.6188  -14.8854   20.2077 N   0  0  0  0  0  0  0  0  0  0  0  0
  -24.3378  -10.8615   18.6066 N   0  0  0  0  0  0  0  0  0  0  0  0
  -22.9236  -28.6904   21.0133 N   0  0  0  0  0  0  0  0  0  0  0  0
  -25.5331  -33.5945   24.9632 N   0  0  0  0  0  0  0  0  0  0  0  0
  -23.7937  -18.8437   22.3164 N   0  0  0  0  0  0  0  0  0  0  0  0
  -30.1839  -24.3485   23.1041 N   0  3  0  0  0  0  0  0  0  0  0  0
  -26.0940  -33.4255   28.5304 N   0  3  0  0  0  0  0  0  0  0  0  0
  -25.4265  -12.8117   18.0865 O   0  0  0  0  0  0  0  0  0  0  0  0
  -24.8958  -29.9287   21.0117 O   0  0  0  0  0  0  0  0  0  0  0  0
  -23.4530  -32.5660   23.2828 O   0  0  0  0  0  0  0  0  0  0  0  0
  -27.2579  -32.5617   26.1189 O   0  0  0  0  0  0  0  0  0  0  0  0
  -24.0451  -19.3457   24.5394 O   0  0  0  0  0  0  0  0  0  0  0  0
  -21.5686   -6.9286   21.4169 O   0  0  0  0  0  0  0  0  0  0  0  0
  -28.6270  -26.0245   24.7986 O   0  0  0  0  0  0  0  0  0  1  0  0
  -25.8532  -19.7522   20.5505 O   0  0  0  0  0  0  0  0  0  0  0  0
  -22.5667   -3.7069   25.7791 F   0  0  0  0  0  0  0  0  0  0  0  0
  -22.8010   -4.4725   21.1139 F   0  0  0  0  0  0  0  0  0  0  0  0
  1  2  1  0  0  0  0
  1  5  2  0  0  0  0
  2  6  2  0  0  0  0
  3  8  2  0  0  0  0
  3 17  1  0  0  0  0
  4  9  1  0  0  0  0
  4 17  2  0  0  0  0
  5 19  1  0  0  0  0
  6 21  1  0  0  0  0
  7 10  2  0  0  0  0
  7 20  1  0  0  0  0
  8 26  1  0  0  0  0
  9 26  2  0  0  0  0
 10 27  1  0  0  0  0
 11 12  2  0  0  0  0
 11 28  1  0  0  0  0
 12 30  1  0  0  0  0
 13 22  1  0  0  0  0
 13 27  2  0  0  0  0
 14 23  1  0  0  0  0
 14 29  2  0  0  0  0
 15 24  2  0  0  0  0
 15 29  1  0  0  0  0
 16 30  2  0  0  0  0
 16 31  1  0  0  0  0
 17 32  1  0  0  0  0
 18 32  1  0  0  0  0
 18 33  2  0  0  0  0
 18 34  1  0  0  0  0
 19 21  2  0  0  0  0
 19 39  1  0  0  0  0
 20 22  2  0  0  0  0
 20 40  1  0  0  0  0
 21 53  1  0  0  0  0
 22 41  1  0  0  0  0
 23 25  2  0  0  0  0
 23 52  1  0  0  0  0
 24 25  1  0  0  0  0
 24 56  1  0  0  0  0
 25 57  1  0  0  0  0
 26 86  1  0  0  0  0
 27 87  1  0  0  0  0
 28 31  2  0  0  0  0
 28 86  1  0  0  0  0
 29 88  1  0  0  0  0
 30 89  1  0  0  0  0
 31 90  1  0  0  0  0
 32 70  2  0  0  0  0
 33 71  1  0  0  0  0
 33 74  1  0  0  0  0
 34 75  1  0  0  0  0
 34 81  2  0  0  0  0
 35 54  1  0  0  0  0
 35 76  1  0  0  0  0
 35 82  2  0  0  0  0
 36 67  1  0  0  0  0
 36 72  1  0  0  0  0
 36 83  2  0  0  0  0
 37 68  1  0  0  0  0
 37 77  1  0  0  0  0
 37 84  2  0  0  0  0
 38 73  1  0  0  0  0
 38 78  1  0  0  0  0
 38 85  2  0  0  0  0
 39 42  1  0  0  0  0
 40 54  1  0  0  0  0
 41 72  1  0  0  0  0
 42 44  1  0  0  0  0
 43 45  1  0  0  0  0
 43 48  1  0  0  0  0
 44 53  1  0  0  0  0
 45 55  1  0  0  0  0
 46 50  1  0  0  0  0
 46 52  1  0  0  0  0
 47 51  1  0  0  0  0
 47 52  1  0  0  0  0
 48 73  1  0  0  0  0
 49 55  1  0  0  0  0
 49 73  1  0  0  0  0
 50 79  1  0  0  0  0
 51 79  1  0  0  0  0
 53 76  1  0  0  0  0
 54 72  1  0  0  0  0
 55 71  1  0  0  0  0
 58 68  1  0  0  0  0
 59 69  1  0  0  0  0
 60 69  1  0  0  0  0
 61 69  1  0  0  0  0
 62 80  1  0  0  0  0
 63 65  1  0  0  0  0
 63 78  1  0  0  0  0
 64 66  1  0  0  0  0
 64 79  1  0  0  0  0
 65 88  1  0  0  0  0
 66 87  1  0  0  0  0
 67 69  1  0  0  0  0
 67 77  1  0  0  0  0
 68 80  1  0  0  0  0
 70 71  1  0  0  0  0
M  CHG  2  79   1  80   1
M  ISO  4  38 100  66 101  78 100  87 101
M  END
> <Batch ID>
0158

> <Smiles>
CNC(C)C(=O)NC(C(=O)N1Cc2cc([101O:1][101CH2:1]CN3CCC(c4cc(OCC[100NH:0][100C:0](=O)N5CCCC(n6nc(-c7ccc(Oc8ccc(F)cc8F)cc7)c(C(N)=O)c6N)C5)cc(C)c4C)CC3)ccc2CC1C(=O)NC1CCCc2ccccc21)C(C)(C)C

> <Shape>
0.241

> <Color>
0.108

> <Negative vol penalty>
0.000

$$$$

  -OEChem-04052322043D

 87 96  0     1  0  0  0  0  0999 V2000
  -41.9275  -19.2011   15.5401 C   0  0  0  0  0  0  0  0  0  0  0  0
  -41.2868  -19.3889   16.7606 C   0  0  0  0  0  0  0  0  0  0  0  0
  -23.1034   -9.8426   19.9131 C   0  0  0  0  0  0  0  0  0  0  0  0
  -23.7945   -9.8509   22.2281 C   0  0  0  0  0  0  0  0  0  0  0  0
  -41.4646  -19.8607   14.4023 C   0  0  0  0  0  0  0  0  0  0  0  0
  -40.1834  -20.2374   16.8443 C   0  0  0  0  0  0  0  0  0  0  0  0
  -36.3986  -18.2412   19.5527 C   0  0  0  0  0  0  0  0  0  0  0  0
  -22.3490   -8.6920   20.1424 C   0  0  0  0  0  0  0  0  0  0  0  0
  -23.0400   -8.7003   22.4574 C   0  0  0  0  0  0  0  0  0  0  0  0
  -36.5216  -18.2762   20.9410 C   0  0  0  0  0  0  0  0  0  0  0  0
  -19.7930   -7.9128   22.9645 C   0  0  0  0  0  0  0  0  0  0  0  0
  -19.0013   -7.8769   24.1123 C   0  0  0  0  0  0  0  0  0  0  0  0
  -33.2774  -17.5031   24.5722 C   0  0  0  0  0  0  0  0  0  0  0  0
  -35.0675  -20.1996   21.0153 C   0  0  0  0  0  0  0  0  0  0  0  0
  -32.2872  -19.8169   25.7758 C   0  0  0  0  0  0  0  0  0  0  0  0
  -20.2144   -5.9370   24.8883 C   0  0  0  0  0  0  0  0  0  0  0  0
  -23.8262  -10.4220   20.9559 C   0  0  0  0  0  0  0  0  0  0  0  0
  -24.1790  -12.9459   20.8425 C   0  0  0  0  0  0  0  0  0  0  0  0
  -40.3490  -20.7101   14.4701 C   0  0  0  0  0  0  0  0  0  0  0  0
  -35.6164  -19.1933   18.8832 C   0  0  0  0  0  0  0  0  0  0  0  0
  -39.7059  -20.9100   15.7066 C   0  0  0  0  0  0  0  0  0  0  0  0
  -31.9043  -17.7475   24.5891 C   0  0  0  0  0  0  0  0  0  0  0  0
  -34.9340  -20.1729   19.6187 C   0  0  0  0  0  0  0  0  0  0  0  0
  -34.1555  -18.4156   25.1571 C   0  0  0  0  0  0  0  0  0  0  0  0
  -33.6604  -19.5724   25.7589 C   0  0  0  0  0  0  0  0  0  0  0  0
  -22.3173   -8.1208   21.4145 C   0  0  0  0  0  0  0  0  0  0  0  0
  -35.8584  -19.2573   21.6723 C   0  0  0  0  0  0  0  0  0  0  0  0
  -20.7954   -6.9608   22.7785 C   0  0  0  0  0  0  0  0  0  0  0  0
  -31.4091  -18.9044   25.1908 C   0  0  0  0  0  0  0  0  0  0  0  0
  -19.2120   -6.8890   25.0742 C   0  0  0  0  0  0  0  0  0  0  0  0
  -21.0061   -5.9729   23.7404 C   0  0  0  0  0  0  0  0  0  0  0  0
  -24.6062  -11.6102   20.7195 C   0  0  0  0  0  0  0  0  0  0  0  0
  -25.2837  -13.6917   20.5109 C   0  0  0  0  0  0  0  0  0  0  0  0
  -22.8981  -13.4661   21.2225 C   0  0  0  0  0  0  0  0  0  0  0  0
  -36.1924  -21.4468   16.7166 C   0  0  0  0  0  0  0  0  0  0  0  0
  -32.9633  -21.7539   16.7473 C   0  0  0  0  0  0  0  0  0  0  0  0
  -30.0284  -21.3272   18.4356 C   0  0  0  0  0  0  0  0  0  0  0  0
  -30.7644  -14.6508   20.8842 C   0  0  0  0  0  0  0  0  0  0  0  0
  -39.9142  -21.4383   13.2229 C   0  0  0  0  0  0  0  0  0  0  0  0
  -35.4724  -19.1257   17.3875 C   0  0  0  0  0  0  0  0  0  0  0  0
  -34.0657  -21.2056   18.9494 C   0  0  0  0  0  0  0  0  0  0  0  0
  -38.5098  -22.0284   13.3205 C   0  0  0  0  0  0  0  0  0  0  0  0
  -29.6752  -12.3543   18.4302 C   0  0  0  0  0  0  0  0  0  0  0  0
  -38.3296  -22.7612   14.6462 C   0  0  0  0  0  0  0  0  0  0  0  0
  -28.2369  -12.0333   18.8272 C   0  0  0  0  0  0  0  0  0  0  0  0
  -31.0178  -15.3077   24.4840 C   0  0  0  0  0  0  0  0  0  0  0  0
  -30.5539  -12.5140   19.6635 C   0  0  0  0  0  0  0  0  0  0  0  0
  -30.3011  -14.5134   23.4003 C   0  0  0  0  0  0  0  0  0  0  0  0
  -31.2079  -16.5174   22.4497 C   0  0  0  0  0  0  0  0  0  0  0  0
  -28.6214  -13.2888   21.0108 C   0  0  0  0  0  0  0  0  0  0  0  0
  -30.9671  -16.7477   23.9483 C   0  0  2  0  0  0  0  0  0  0  0  0
  -38.4908  -21.8031   15.8326 C   0  0  1  0  0  0  0  0  0  0  0  0
  -35.0628  -20.4572   16.7658 C   0  0  1  0  0  0  0  0  0  0  0  0
  -27.6922  -13.0954   19.7947 C   0  0  2  0  0  0  0  0  0  0  0  0
  -34.5815  -20.5622   26.3930 C   0  0  0  0  0  0  0  0  0  0  0  0
  -35.9750  -16.8435   25.8985 C   0  0  0  0  0  0  0  0  0  0  0  0
  -27.5574  -21.7075   18.2182 C   0  0  0  0  0  0  0  0  0  0  0  0
  -33.3767  -24.7293   17.2823 C   0  0  0  0  0  0  0  0  0  0  0  0
  -30.9785  -24.8643   17.9885 C   0  0  0  0  0  0  0  0  0  0  0  0
  -31.5537  -24.2058   15.6522 C   0  0  0  0  0  0  0  0  0  0  0  0
  -29.4450  -18.4355   18.6734 C   0  0  0  0  0  0  0  0  0  0  0  0
  -29.5297  -19.8950   24.1222 C   0  0  0  0  0  0  0  0  0  0  0  0
  -36.1908  -18.0505   23.6945 C   0  0  0  0  0  0  0  0  0  1  0  0
  -35.6214  -18.1309   25.1286 C   0  0  1  0  0  0  0  0  0  0  0  0
  -31.9751  -22.5762   17.5386 C   0  0  1  0  0  0  0  0  0  0  0  0
  -28.7005  -20.7260   18.0115 C   0  0  2  0  0  0  0  0  0  0  0  0
  -31.9888  -24.0758   17.1281 C   0  0  0  0  0  0  0  0  0  0  0  0
  -25.8827  -11.5100   20.3393 N   0  0  0  0  0  0  0  0  0  0  0  0
  -26.2670  -12.7923   20.2205 N   0  0  0  0  0  0  0  0  0  0  0  0
  -33.9617  -21.1016   17.4846 N   0  0  0  0  0  0  0  0  0  0  0  0
  -30.0122  -13.5076   20.5924 N   0  0  0  0  0  0  0  0  0  0  0  0
  -30.6429  -15.2037   22.1584 N   0  0  0  0  0  0  0  0  0  0  0  0
  -25.5001  -15.0224   20.4423 N   0  0  0  0  0  0  0  0  0  0  0  0
  -21.8739  -12.5604   21.5308 N   0  0  0  0  0  0  0  0  0  0  0  0
  -37.2938  -21.0084   16.0066 N   0  0  0  0  0  0  0  0  0  0  0  0
  -30.6799  -21.9243   17.3773 N   0  0  0  0  0  0  0  0  0  0  0  0
  -28.4127  -19.4960   18.8023 N   0  3  0  0  0  0  0  0  0  0  0  0
  -22.6639  -14.6975   21.2710 O   0  0  0  0  0  0  0  0  0  0  0  0
  -36.0730  -22.5285   17.2798 O   0  0  0  0  0  0  0  0  0  0  0  0
  -32.8493  -21.6869   15.5208 O   0  0  0  0  0  0  0  0  0  0  0  0
  -30.4441  -21.2758   19.5911 O   0  0  0  0  0  0  0  0  0  0  0  0
  -31.5455  -15.1354   20.0543 O   0  0  0  0  0  0  0  0  0  0  0  0
  -21.5810   -6.9982   21.6387 O   0  0  0  0  0  0  0  0  0  0  0  0
  -30.0707  -19.1579   25.2166 O   0  0  0  0  0  0  0  0  0  0  0  0
  -35.9781  -19.2944   23.0363 O   0  0  0  0  0  0  0  0  0  1  0  0
  -18.4527   -6.8556   26.1772 F   0  0  0  0  0  0  0  0  0  0  0  0
  -21.9683   -5.0563   23.5678 F   0  0  0  0  0  0  0  0  0  0  0  0
  1  2  1  0  0  0  0
  1  5  2  0  0  0  0
  2  6  2  0  0  0  0
  3  8  2  0  0  0  0
  3 17  1  0  0  0  0
  4  9  1  0  0  0  0
  4 17  2  0  0  0  0
  5 19  1  0  0  0  0
  6 21  1  0  0  0  0
  7 10  2  0  0  0  0
  7 20  1  0  0  0  0
  8 26  1  0  0  0  0
  9 26  2  0  0  0  0
 10 27  1  0  0  0  0
 11 12  2  0  0  0  0
 11 28  1  0  0  0  0
 12 30  1  0  0  0  0
 13 22  2  0  0  0  0
 13 24  1  0  0  0  0
 14 23  1  0  0  0  0
 14 27  2  0  0  0  0
 15 25  1  0  0  0  0
 15 29  2  0  0  0  0
 16 30  2  0  0  0  0
 16 31  1  0  0  0  0
 17 32  1  0  0  0  0
 18 32  1  0  0  0  0
 18 33  2  0  0  0  0
 18 34  1  0  0  0  0
 19 21  2  0  0  0  0
 19 39  1  0  0  0  0
 20 23  2  0  0  0  0
 20 40  1  0  0  0  0
 21 52  1  0  0  0  0
 22 29  1  0  0  0  0
 22 51  1  0  0  0  0
 23 41  1  0  0  0  0
 24 25  2  0  0  0  0
 24 64  1  0  0  0  0
 25 55  1  0  0  0  0
 26 83  1  0  0  0  0
 27 85  1  0  0  0  0
 28 31  2  0  0  0  0
 28 83  1  0  0  0  0
 29 84  1  0  0  0  0
 30 86  1  0  0  0  0
 31 87  1  0  0  0  0
 32 68  2  0  0  0  0
 33 69  1  0  0  0  0
 33 73  1  0  0  0  0
 34 74  1  0  0  0  0
 34 78  2  0  0  0  0
 35 53  1  0  0  0  0
 35 75  1  0  0  0  0
 35 79  2  0  0  0  0
 36 65  1  0  0  0  0
 36 70  1  0  0  0  0
 36 80  2  0  0  0  0
 37 66  1  0  0  0  0
 37 76  1  0  0  0  0
 37 81  2  0  0  0  0
 38 71  1  0  0  0  0
 38 72  1  0  0  0  0
 38 82  2  0  0  0  0
 39 42  1  0  0  0  0
 40 53  1  0  0  0  0
 41 70  1  0  0  0  0
 42 44  1  0  0  0  0
 43 45  1  0  0  0  0
 43 47  1  0  0  0  0
 44 52  1  0  0  0  0
 45 54  1  0  0  0  0
 46 48  1  0  0  0  0
 46 51  1  0  0  0  0
 47 71  1  0  0  0  0
 48 72  1  0  0  0  0
 49 51  1  0  0  0  0
 49 72  1  0  0  0  0
 50 54  1  0  0  0  0
 50 71  1  0  0  0  0
 52 75  1  0  0  0  0
 53 70  1  0  0  0  0
 54 69  1  0  0  0  0
 56 64  1  0  0  0  0
 57 66  1  0  0  0  0
 58 67  1  0  0  0  0
 59 67  1  0  0  0  0
 60 67  1  0  0  0  0
 61 77  1  0  0  0  0
 62 84  1  0  0  0  0
 63 64  1  0  0  0  0
 63 85  1  0  0  0  0
 65 67  1  0  0  0  0
 65 76  1  0  0  0  0
 66 77  1  0  0  0  0
 68 69  1  0  0  0  0
M  CHG  1  77   1
M  ISO  4  38 100  63 101  72 100  85 101
M  END
> <Batch ID>
0158

> <Smiles>
CNC(C)C(=O)NC(C(=O)N1Cc2cc([101O:1][101CH2:1]C(C)c3cc(C4CC[100N:0]([100C:0](=O)N5CCCC(n6nc(-c7ccc(Oc8ccc(F)cc8F)cc7)c(C(N)=O)c6N)C5)C4)c(OC)cc3C)ccc2CC1C(=O)NC1CCCc2ccccc21)C(C)(C)C

> <Shape>
0.193

> <Color>
0.191

> <Negative vol penalty>
0.000

$$$$

  -OEChem-04052322043D

 90100  0     1  0  0  0  0  0999 V2000
  -29.8250  -30.5152   23.1252 C   0  0  0  0  0  0  0  0  0  0  0  0
  -29.1516  -29.6467   22.2722 C   0  0  0  0  0  0  0  0  0  0  0  0
  -23.2755  -10.1520   22.2692 C   0  0  0  0  0  0  0  0  0  0  0  0
  -23.5277   -9.7274   19.9042 C   0  0  0  0  0  0  0  0  0  0  0  0
  -29.1961  -30.9867   24.2767 C   0  0  0  0  0  0  0  0  0  0  0  0
  -27.8491  -29.2483   22.5709 C   0  0  0  0  0  0  0  0  0  0  0  0
  -24.7933  -29.4141   18.5360 C   0  0  0  0  0  0  0  0  0  0  0  0
  -22.4708   -9.0187   22.3868 C   0  0  0  0  0  0  0  0  0  0  0  0
  -22.7230   -8.5941   20.0218 C   0  0  0  0  0  0  0  0  0  0  0  0
  -24.8943  -28.3702   17.6175 C   0  0  0  0  0  0  0  0  0  0  0  0
  -22.8970   -5.6698   22.5758 C   0  0  0  0  0  0  0  0  0  0  0  0
  -23.1408   -4.8100   23.6468 C   0  0  0  0  0  0  0  0  0  0  0  0
  -24.5891  -18.1639   18.5627 C   0  0  0  0  0  0  0  0  0  0  0  0
  -22.9443  -27.3346   18.5893 C   0  0  0  0  0  0  0  0  0  0  0  0
  -23.2969  -20.2000   18.7089 C   0  0  0  0  0  0  0  0  0  0  0  0
  -20.8911   -5.1726   24.4499 C   0  0  0  0  0  0  0  0  0  0  0  0
  -23.8039  -10.5064   21.0278 C   0  0  0  0  0  0  0  0  0  0  0  0
  -24.2789  -13.0067   21.2015 C   0  0  0  0  0  0  0  0  0  0  0  0
  -27.8818  -30.6015   24.5847 C   0  0  0  0  0  0  0  0  0  0  0  0
  -23.7718  -29.4206   19.4967 C   0  0  0  0  0  0  0  0  0  0  0  0
  -27.2024  -29.7141   23.7283 C   0  0  0  0  0  0  0  0  0  0  0  0
  -25.5613  -18.8341   17.8203 C   0  0  0  0  0  0  0  0  0  0  0  0
  -22.8311  -28.3811   19.5173 C   0  0  0  0  0  0  0  0  0  0  0  0
  -23.4569  -18.8468   19.0070 C   0  0  0  0  0  0  0  0  0  0  0  0
  -25.4014  -20.1874   17.5222 C   0  0  0  0  0  0  0  0  0  0  0  0
  -24.2692  -20.8703   17.9666 C   0  0  0  0  0  0  0  0  0  0  0  0
  -22.1946   -8.2398   21.2632 C   0  0  0  0  0  0  0  0  0  0  0  0
  -23.9715  -27.3287   17.6459 C   0  0  0  0  0  0  0  0  0  0  0  0
  -21.6503   -6.2810   22.4419 C   0  0  0  0  0  0  0  0  0  0  0  0
  -22.1378   -4.5614   24.5838 C   0  0  0  0  0  0  0  0  0  0  0  0
  -20.6474   -6.0324   23.3789 C   0  0  0  0  0  0  0  0  0  0  0  0
  -24.6347  -11.6772   20.9055 C   0  0  0  0  0  0  0  0  0  0  0  0
  -25.4088  -13.7352   20.9204 C   0  0  0  0  0  0  0  0  0  0  0  0
  -23.0380  -13.5359   21.6871 C   0  0  0  0  0  0  0  0  0  0  0  0
  -23.6796  -29.3545   22.6733 C   0  0  0  0  0  0  0  0  0  0  0  0
  -20.5001  -29.7916   22.2016 C   0  0  0  0  0  0  0  0  0  0  0  0
  -17.8072  -29.4686   20.1302 C   0  0  0  0  0  0  0  0  0  0  0  0
  -29.7416  -14.9769   17.8221 C   0  0  0  0  0  0  0  0  0  0  0  0
  -27.2604  -31.1000   25.8653 C   0  0  0  0  0  0  0  0  0  0  0  0
  -23.6608  -30.5677   20.4634 C   0  0  0  0  0  0  0  0  0  0  0  0
  -21.7037  -28.3514   20.5155 C   0  0  0  0  0  0  0  0  0  0  0  0
  -25.7447  -30.9255   25.9151 C   0  0  0  0  0  0  0  0  0  0  0  0
  -30.1338  -12.2561   19.9185 C   0  0  0  0  0  0  0  0  0  0  0  0
  -25.3533  -29.5240   25.4576 C   0  0  0  0  0  0  0  0  0  0  0  0
  -28.7121  -11.9596   20.3960 C   0  0  0  0  0  0  0  0  0  0  0  0
  -27.9496  -18.1720   18.3463 C   0  0  0  0  0  0  0  0  0  0  0  0
  -26.4574  -16.5937   17.0489 C   0  0  0  0  0  0  0  0  0  0  0  0
  -23.7713  -24.0332   16.0311 C   0  0  0  0  0  0  0  0  0  0  0  0
  -24.3867  -24.5697   18.3934 C   0  0  0  0  0  0  0  0  0  0  0  0
  -30.1493  -12.6121   18.4362 C   0  0  0  0  0  0  0  0  0  0  0  0
  -29.1637  -17.3759   17.8736 C   0  0  0  0  0  0  0  0  0  0  0  0
  -27.7043  -15.8348   16.6043 C   0  0  0  0  0  0  0  0  0  0  0  0
  -23.3879  -22.6166   16.4499 C   0  0  0  0  0  0  0  0  0  0  0  0
  -23.9995  -23.1558   18.8156 C   0  0  0  0  0  0  0  0  0  0  0  0
  -27.8352  -13.4755   18.5529 C   0  0  0  0  0  0  0  0  0  0  0  0
  -26.7829  -18.0676   17.3489 C   0  0  0  0  0  0  0  0  0  0  0  0
  -25.7798  -29.2786   24.0052 C   0  0  1  0  0  0  0  0  0  0  0  0
  -22.8854  -30.2106   21.7278 C   0  0  1  0  0  0  0  0  0  0  0  0
  -27.7609  -13.1190   20.0510 C   0  0  1  0  0  0  0  0  0  0  0  0
  -23.5988  -25.0282   17.1717 C   0  0  0  0  0  0  0  0  0  1  0  0
  -22.4161  -18.1292   19.7980 C   0  0  0  0  0  0  0  0  0  0  0  0
  -26.4465  -20.9024   16.7248 C   0  0  0  0  0  0  0  0  0  0  0  0
  -15.3333  -29.8790   20.0370 C   0  0  0  0  0  0  0  0  0  0  0  0
  -20.0299  -27.3411   23.9577 C   0  0  0  0  0  0  0  0  0  0  0  0
  -17.6923  -27.2377   23.0668 C   0  0  0  0  0  0  0  0  0  0  0  0
  -18.4450  -29.2331   24.3609 C   0  0  0  0  0  0  0  0  0  0  0  0
  -18.0867  -31.3443   17.8581 C   0  0  0  0  0  0  0  0  0  0  0  0
  -19.3121  -28.8796   22.0125 C   0  0  1  0  0  0  0  0  0  0  0  0
  -16.7130  -30.4461   19.7408 C   0  0  2  0  0  0  0  0  0  0  0  0
  -18.8921  -28.1722   23.3318 C   0  0  0  0  0  0  0  0  0  0  0  0
  -25.8923  -11.5648   20.4697 N   0  0  0  0  0  0  0  0  0  0  0  0
  -26.3365  -12.8330   20.4896 N   0  0  0  0  0  0  0  0  0  0  0  0
  -24.0910  -22.2294   17.6782 N   0  0  0  0  0  0  0  0  0  0  0  0
  -21.6413  -29.4923   21.4439 N   0  0  0  0  0  0  0  0  0  0  0  0
  -29.2291  -13.7122   18.1487 N   0  0  0  0  0  0  0  0  0  0  0  0
  -28.8063  -15.9923   17.5632 N   0  0  0  0  0  0  0  0  0  0  0  0
  -25.6894  -15.0532   21.0021 N   0  0  0  0  0  0  0  0  0  0  0  0
  -22.0719  -13.9367   20.7542 N   0  0  0  0  0  0  0  0  0  0  0  0
  -24.8642  -29.9292   23.0927 N   0  0  0  0  0  0  0  0  0  0  0  0
  -18.2626  -29.6957   21.4118 N   0  0  0  0  0  0  0  0  0  0  0  0
  -16.7906  -30.7576   18.2856 N   0  3  0  0  0  0  0  0  0  0  0  0
  -22.7997  -13.6652   22.9118 O   0  0  0  0  0  0  0  0  0  0  0  0
  -23.2487  -28.2546   22.9995 O   0  0  0  0  0  0  0  0  0  0  0  0
  -20.4163  -30.7390   22.9871 O   0  0  0  0  0  0  0  0  0  0  0  0
  -18.2145  -28.5890   19.3746 O   0  0  0  0  0  0  0  0  0  0  0  0
  -30.9593  -15.1900   17.7698 O   0  0  0  0  0  0  0  0  0  0  0  0
  -21.4096   -7.1338   21.3777 O   0  0  0  0  0  0  0  0  0  0  0  0
  -24.0688  -26.3011   16.7448 O   0  0  0  0  0  0  0  0  0  1  0  0
  -22.3716   -3.7345   25.6113 F   0  0  0  0  0  0  0  0  0  0  0  0
  -19.4474   -6.6158   23.2549 F   0  0  0  0  0  0  0  0  0  0  0  0
  1  2  1  0  0  0  0
  1  5  2  0  0  0  0
  2  6  2  0  0  0  0
  3  8  2  0  0  0  0
  3 17  1  0  0  0  0
  4  9  1  0  0  0  0
  4 17  2  0  0  0  0
  5 19  1  0  0  0  0
  6 21  1  0  0  0  0
  7 10  2  0  0  0  0
  7 20  1  0  0  0  0
  8 27  1  0  0  0  0
  9 27  2  0  0  0  0
 10 28  1  0  0  0  0
 11 12  2  0  0  0  0
 11 29  1  0  0  0  0
 12 30  1  0  0  0  0
 13 22  2  0  0  0  0
 13 24  1  0  0  0  0
 14 23  1  0  0  0  0
 14 28  2  0  0  0  0
 15 24  2  0  0  0  0
 15 26  1  0  0  0  0
 16 30  2  0  0  0  0
 16 31  1  0  0  0  0
 17 32  1  0  0  0  0
 18 32  1  0  0  0  0
 18 33  2  0  0  0  0
 18 34  1  0  0  0  0
 19 21  2  0  0  0  0
 19 39  1  0  0  0  0
 20 23  2  0  0  0  0
 20 40  1  0  0  0  0
 21 57  1  0  0  0  0
 22 25  1  0  0  0  0
 22 56  1  0  0  0  0
 23 41  1  0  0  0  0
 24 61  1  0  0  0  0
 25 26  2  0  0  0  0
 25 62  1  0  0  0  0
 26 73  1  0  0  0  0
 27 87  1  0  0  0  0
 28 88  1  0  0  0  0
 29 31  2  0  0  0  0
 29 87  1  0  0  0  0
 30 89  1  0  0  0  0
 31 90  1  0  0  0  0
 32 71  2  0  0  0  0
 33 72  1  0  0  0  0
 33 77  1  0  0  0  0
 34 78  1  0  0  0  0
 34 82  2  0  0  0  0
 35 58  1  0  0  0  0
 35 79  1  0  0  0  0
 35 83  2  0  0  0  0
 36 68  1  0  0  0  0
 36 74  1  0  0  0  0
 36 84  2  0  0  0  0
 37 69  1  0  0  0  0
 37 80  1  0  0  0  0
 37 85  2  0  0  0  0
 38 75  1  0  0  0  0
 38 76  1  0  0  0  0
 38 86  2  0  0  0  0
 39 42  1  0  0  0  0
 40 58  1  0  0  0  0
 41 74  1  0  0  0  0
 42 44  1  0  0  0  0
 43 45  1  0  0  0  0
 43 50  1  0  0  0  0
 44 57  1  0  0  0  0
 45 59  1  0  0  0  0
 46 51  1  0  0  0  0
 46 56  1  0  0  0  0
 47 52  1  0  0  0  0
 47 56  1  0  0  0  0
 48 53  1  0  0  0  0
 48 60  1  0  0  0  0
 49 54  1  0  0  0  0
 49 60  1  0  0  0  0
 50 75  1  0  0  0  0
 51 76  1  0  0  0  0
 52 76  1  0  0  0  0
 53 73  1  0  0  0  0
 54 73  1  0  0  0  0
 55 59  1  0  0  0  0
 55 75  1  0  0  0  0
 57 79  1  0  0  0  0
 58 74  1  0  0  0  0
 59 72  1  0  0  0  0
 60 88  1  0  0  0  0
 63 69  1  0  0  0  0
 64 70  1  0  0  0  0
 65 70  1  0  0  0  0
 66 70  1  0  0  0  0
 67 81  1  0  0  0  0
 68 70  1  0  0  0  0
 68 80  1  0  0  0  0
 69 81  1  0  0  0  0
 71 72  1  0  0  0  0
M  CHG  1  81   1
M  ISO  4  38 100  60 101  76 100  88 101
M  END
> <Batch ID>
0158

> <Smiles>
CNC(C)C(=O)NC(C(=O)N1Cc2cc([101O:1][101CH:1]3CCN(c4cc(C)cc(C5CC[100N:0]([100C:0](=O)N6CCCC(n7nc(-c8ccc(Oc9ccc(F)cc9F)cc8)c(C(N)=O)c7N)C6)CC5)c4C)CC3)ccc2CC1C(=O)NC1CCCc2ccccc21)C(C)(C)C

> <Shape>
0.279

> <Color>
0.159

> <Negative vol penalty>
0.000

$$$$

  -OEChem-04052322043D

 83 91  0     1  0  0  0  0  0999 V2000
  -21.4381  -12.5487   21.0753 C   0  0  0  0  0  0  0  0  0  0  0  0
  -21.6048  -13.8604   21.5078 C   0  0  0  0  0  0  0  0  0  0  0  0
  -29.7072  -27.0955   18.6574 C   0  0  0  0  0  0  0  0  0  0  0  0
  -29.3039  -25.8278   20.6742 C   0  0  0  0  0  0  0  0  0  0  0  0
  -22.5498  -11.7872   20.7175 C   0  0  0  0  0  0  0  0  0  0  0  0
  -22.8837  -14.4110   21.5837 C   0  0  0  0  0  0  0  0  0  0  0  0
  -23.0980  -19.0963   19.6740 C   0  0  0  0  0  0  0  0  0  0  0  0
  -31.0480  -26.7120   18.6844 C   0  0  0  0  0  0  0  0  0  0  0  0
  -30.6448  -25.4442   20.7012 C   0  0  0  0  0  0  0  0  0  0  0  0
  -22.6127  -20.1318   20.4716 C   0  0  0  0  0  0  0  0  0  0  0  0
  -33.6060  -26.7996   21.6095 C   0  0  0  0  0  0  0  0  0  0  0  0
  -34.2752  -26.8684   22.8314 C   0  0  0  0  0  0  0  0  0  0  0  0
  -24.8707  -20.6881   21.1128 C   0  0  0  0  0  0  0  0  0  0  0  0
  -22.1450  -26.6965   25.9213 C   0  0  0  0  0  0  0  0  0  0  0  0
  -34.7110  -24.4943   22.7263 C   0  0  0  0  0  0  0  0  0  0  0  0
  -21.9156  -27.5829   23.7263 C   0  0  0  0  0  0  0  0  0  0  0  0
  -28.8351  -26.6535   19.6524 C   0  0  0  0  0  0  0  0  0  0  0  0
  -26.3864  -26.3798   18.9918 C   0  0  0  0  0  0  0  0  0  0  0  0
  -23.8421  -12.3319   20.7799 C   0  0  0  0  0  0  0  0  0  0  0  0
  -24.4749  -18.8416   19.5983 C   0  0  0  0  0  0  0  0  0  0  0  0
  -24.0139  -13.6556   21.2277 C   0  0  0  0  0  0  0  0  0  0  0  0
  -25.3711  -19.6504   20.3116 C   0  0  0  0  0  0  0  0  0  0  0  0
  -22.0408  -27.8048   25.0882 C   0  0  0  0  0  0  0  0  0  0  0  0
  -22.1211  -25.4182   25.3748 C   0  0  0  0  0  0  0  0  0  0  0  0
  -31.5168  -25.8863   19.7062 C   0  0  0  0  0  0  0  0  0  0  0  0
  -23.4988  -20.9260   21.1934 C   0  0  0  0  0  0  0  0  0  0  0  0
  -33.4891  -25.5782   20.9461 C   0  0  0  0  0  0  0  0  0  0  0  0
  -34.8278  -25.7158   23.3898 C   0  0  0  0  0  0  0  0  0  0  0  0
  -34.0417  -24.4256   21.5044 C   0  0  0  0  0  0  0  0  0  0  0  0
  -27.4501  -27.0498   19.6254 C   0  0  0  0  0  0  0  0  0  0  0  0
  -21.9921  -25.3031   24.0000 C   0  0  0  0  0  0  0  0  0  0  0  0
  -25.2844  -27.1547   19.2596 C   0  0  0  0  0  0  0  0  0  0  0  0
  -26.3937  -25.1655   18.2294 C   0  0  0  0  0  0  0  0  0  0  0  0
  -26.3457  -16.3828   20.3455 C   0  0  0  0  0  0  0  0  0  0  0  0
  -28.6371  -18.2027   18.9456 C   0  0  0  0  0  0  0  0  0  0  0  0
  -29.7129  -21.3103   18.0331 C   0  0  0  0  0  0  0  0  0  0  0  0
  -23.9851  -31.0187   23.6450 C   0  0  0  0  0  0  0  0  0  0  0  0
  -25.0174  -11.4547   20.4278 C   0  0  0  0  0  0  0  0  0  0  0  0
  -24.9843  -17.7378   18.7126 C   0  0  0  0  0  0  0  0  0  0  0  0
  -26.8599  -19.4312   20.2486 C   0  0  0  0  0  0  0  0  0  0  0  0
  -26.3063  -12.2340   20.1795 C   0  0  0  0  0  0  0  0  0  0  0  0
  -24.0165  -31.6819   20.1471 C   0  0  0  0  0  0  0  0  0  0  0  0
  -26.5230  -13.2710   21.2769 C   0  0  0  0  0  0  0  0  0  0  0  0
  -24.8041  -30.5095   19.5595 C   0  0  0  0  0  0  0  0  0  0  0  0
  -24.5733  -32.1132   21.5020 C   0  0  0  0  0  0  0  0  0  0  0  0
  -25.4795  -29.8577   21.9085 C   0  0  0  0  0  0  0  0  0  0  0  0
  -25.3830  -14.2964   21.2999 C   0  0  1  0  0  0  0  0  0  0  0  0
  -26.3703  -17.2419   19.1130 C   0  0  1  0  0  0  0  0  0  0  0  0
  -24.9206  -29.3508   20.5680 C   0  0  2  0  0  0  0  0  0  0  0  0
  -22.2307  -24.2235   26.2571 C   0  0  0  0  0  0  0  0  0  0  0  0
  -31.1725  -23.0472   16.9608 C   0  0  0  0  0  0  0  0  0  0  0  0
  -30.2792  -17.8750   21.4963 C   0  0  0  0  0  0  0  0  0  0  0  0
  -31.7042  -19.7903   20.7419 C   0  0  0  0  0  0  0  0  0  0  0  0
  -31.5974  -17.7046   19.3778 C   0  0  0  0  0  0  0  0  0  0  0  0
  -28.2443  -21.1292   15.4700 C   0  0  0  0  0  0  0  0  0  0  0  0
  -22.0646  -29.1850   25.6417 C   0  0  0  0  0  0  0  0  0  0  0  0
  -23.4729  -29.7882   25.7385 C   0  0  0  0  0  0  0  0  0  0  0  0
  -21.8160  -22.5663   21.5585 C   0  0  0  0  0  0  0  0  0  1  0  0
  -21.8314  -24.0146   22.0076 C   0  0  0  0  0  0  0  0  0  0  0  0
  -29.6039  -19.2589   19.4239 C   0  0  1  0  0  0  0  0  0  0  0  0
  -30.2831  -21.8359   16.7281 C   0  0  2  0  0  0  0  0  0  0  0  0
  -30.7680  -18.6604   20.2629 C   0  0  0  0  0  0  0  0  0  0  0  0
  -21.8885  -26.3562   23.1587 N   0  0  0  0  0  0  0  0  0  0  0  0
  -27.0592  -28.1646   20.2486 N   0  0  0  0  0  0  0  0  0  0  0  0
  -25.7375  -28.2011   20.0078 N   0  0  0  0  0  0  0  0  0  0  0  0
  -27.3085  -18.3356   19.3735 N   0  0  0  0  0  0  0  0  0  0  0  0
  -24.6567  -30.9686   22.4124 N   0  0  0  0  0  0  0  0  0  0  0  0
  -23.9818  -27.0363   18.9255 N   0  0  0  0  0  0  0  0  0  0  0  0
  -27.6120  -24.4959   18.0512 N   0  0  0  0  0  0  0  0  0  0  0  0
  -25.5482  -15.2599   20.2328 N   0  0  0  0  0  0  0  0  0  0  0  0
  -30.0362  -19.9851   18.2348 N   0  0  0  0  0  0  0  0  0  0  0  0
  -24.1109  -29.8895   24.4449 N   0  0  0  0  0  0  0  0  0  0  0  0
  -29.1827  -22.2314   15.8040 N   0  3  0  0  0  0  0  0  0  0  0  0
  -25.3536  -24.6972   17.7075 O   0  0  0  0  0  0  0  0  0  0  0  0
  -27.0027  -16.7134   21.3256 O   0  0  0  0  0  0  0  0  0  0  0  0
  -29.0441  -17.2974   18.2133 O   0  0  0  0  0  0  0  0  0  0  0  0
  -29.0502  -22.0067   18.7989 O   0  0  0  0  0  0  0  0  0  0  0  0
  -23.3182  -31.9951   24.0037 O   0  0  0  0  0  0  0  0  0  0  0  0
  -32.8250  -25.5117   19.7327 O   0  0  0  0  0  0  0  0  0  0  0  0
  -23.0277  -21.9369   21.9731 O   0  0  0  0  0  0  0  0  0  1  0  0
  -21.9659  -24.0608   23.4229 O   0  0  0  0  0  0  0  0  0  0  0  0
  -35.4718  -25.7822   24.5624 F   0  0  0  0  0  0  0  0  0  0  0  0
  -33.9337  -23.2495   20.8712 F   0  0  0  0  0  0  0  0  0  0  0  0
  1  2  1  0  0  0  0
  1  5  2  0  0  0  0
  2  6  2  0  0  0  0
  3  8  2  0  0  0  0
  3 17  1  0  0  0  0
  4  9  1  0  0  0  0
  4 17  2  0  0  0  0
  5 19  1  0  0  0  0
  6 21  1  0  0  0  0
  7 10  2  0  0  0  0
  7 20  1  0  0  0  0
  8 25  1  0  0  0  0
  9 25  2  0  0  0  0
 10 26  1  0  0  0  0
 11 12  2  0  0  0  0
 11 27  1  0  0  0  0
 12 28  1  0  0  0  0
 13 22  1  0  0  0  0
 13 26  2  0  0  0  0
 14 23  2  0  0  0  0
 14 24  1  0  0  0  0
 15 28  2  0  0  0  0
 15 29  1  0  0  0  0
 16 23  1  0  0  0  0
 16 63  2  0  0  0  0
 17 30  1  0  0  0  0
 18 30  1  0  0  0  0
 18 32  2  0  0  0  0
 18 33  1  0  0  0  0
 19 21  2  0  0  0  0
 19 38  1  0  0  0  0
 20 22  2  0  0  0  0
 20 39  1  0  0  0  0
 21 47  1  0  0  0  0
 22 40  1  0  0  0  0
 23 56  1  0  0  0  0
 24 31  2  0  0  0  0
 24 50  1  0  0  0  0
 25 79  1  0  0  0  0
 26 80  1  0  0  0  0
 27 29  2  0  0  0  0
 27 79  1  0  0  0  0
 28 82  1  0  0  0  0
 29 83  1  0  0  0  0
 30 64  2  0  0  0  0
 31 63  1  0  0  0  0
 31 81  1  0  0  0  0
 32 65  1  0  0  0  0
 32 68  1  0  0  0  0
 33 69  1  0  0  0  0
 33 74  2  0  0  0  0
 34 48  1  0  0  0  0
 34 70  1  0  0  0  0
 34 75  2  0  0  0  0
 35 60  1  0  0  0  0
 35 66  1  0  0  0  0
 35 76  2  0  0  0  0
 36 61  1  0  0  0  0
 36 71  1  0  0  0  0
 36 77  2  0  0  0  0
 37 67  1  0  0  0  0
 37 72  1  0  0  0  0
 37 78  2  0  0  0  0
 38 41  1  0  0  0  0
 39 48  1  0  0  0  0
 40 66  1  0  0  0  0
 41 43  1  0  0  0  0
 42 44  1  0  0  0  0
 42 45  1  0  0  0  0
 43 47  1  0  0  0  0
 44 49  1  0  0  0  0
 45 67  1  0  0  0  0
 46 49  1  0  0  0  0
 46 67  1  0  0  0  0
 47 70  1  0  0  0  0
 48 66  1  0  0  0  0
 49 65  1  0  0  0  0
 51 61  1  0  0  0  0
 52 62  1  0  0  0  0
 53 62  1  0  0  0  0
 54 62  1  0  0  0  0
 55 73  1  0  0  0  0
 56 57  1  0  0  0  0
 57 72  1  0  0  0  0
 58 59  1  0  0  0  0
 58 80  1  0  0  0  0
 59 81  1  0  0  0  0
 60 62  1  0  0  0  0
 60 71  1  0  0  0  0
 61 73  1  0  0  0  0
 64 65  1  0  0  0  0
M  CHG  1  73   1
M  ISO  4  37 100  58 101  72 100  80 101
M  END
> <Batch ID>
0158

> <Smiles>
CNC(C)C(=O)NC(C(=O)N1Cc2cc([101O:1][101CH2:1]COc3ncc(CC[100NH:0][100C:0](=O)N4CCCC(n5nc(-c6ccc(Oc7ccc(F)cc7F)cc6)c(C(N)=O)c5N)C4)cc3C)ccc2CC1C(=O)NC1CCCc2ccccc21)C(C)(C)C

> <Shape>
0.218

> <Color>
0.081

> <Negative vol penalty>
0.000

$$$$

  -OEChem-04052322043D

 84 93  0     1  0  0  0  0  0999 V2000
  -32.0800  -30.0684   19.0446 C   0  0  0  0  0  0  0  0  0  0  0  0
  -31.3853  -28.8954   18.7672 C   0  0  0  0  0  0  0  0  0  0  0  0
  -24.5142   -9.6932   21.3459 C   0  0  0  0  0  0  0  0  0  0  0  0
  -24.8780  -10.6977   23.5129 C   0  0  0  0  0  0  0  0  0  0  0  0
  -31.8623  -30.7382   20.2479 C   0  0  0  0  0  0  0  0  0  0  0  0
  -30.4733  -28.3909   19.6935 C   0  0  0  0  0  0  0  0  0  0  0  0
  -26.1391  -26.9014   17.5392 C   0  0  0  0  0  0  0  0  0  0  0  0
  -24.2164   -8.4766   21.9597 C   0  0  0  0  0  0  0  0  0  0  0  0
  -24.5802   -9.4810   24.1268 C   0  0  0  0  0  0  0  0  0  0  0  0
  -26.1436  -25.6707   16.8842 C   0  0  0  0  0  0  0  0  0  0  0  0
  -21.5879   -7.0681   23.5534 C   0  0  0  0  0  0  0  0  0  0  0  0
  -20.4738   -6.3658   23.0940 C   0  0  0  0  0  0  0  0  0  0  0  0
  -26.5250  -20.6307   18.1224 C   0  0  0  0  0  0  0  0  0  0  0  0
  -25.1076  -24.6496   18.8086 C   0  0  0  0  0  0  0  0  0  0  0  0
  -29.2454  -20.4524   18.7145 C   0  0  0  0  0  0  0  0  0  0  0  0
  -21.8913   -4.4977   22.5126 C   0  0  0  0  0  0  0  0  0  0  0  0
  -24.8450  -10.8038   22.1224 C   0  0  0  0  0  0  0  0  0  0  0  0
  -24.2520  -13.0917   21.1625 C   0  0  0  0  0  0  0  0  0  0  0  0
  -30.9400  -30.2468   21.1853 C   0  0  0  0  0  0  0  0  0  0  0  0
  -25.6278  -27.0135   18.8402 C   0  0  0  0  0  0  0  0  0  0  0  0
  -30.2440  -29.0540   20.9111 C   0  0  0  0  0  0  0  0  0  0  0  0
  -27.4703  -21.0808   17.2008 C   0  0  0  0  0  0  0  0  0  0  0  0
  -25.0953  -25.8834   19.4769 C   0  0  0  0  0  0  0  0  0  0  0  0
  -26.9399  -20.0915   19.3401 C   0  0  0  0  0  0  0  0  0  0  0  0
  -28.8305  -20.9917   17.4968 C   0  0  0  0  0  0  0  0  0  0  0  0
  -28.3000  -20.0023   19.6362 C   0  0  0  0  0  0  0  0  0  0  0  0
  -24.2494   -8.3705   23.3502 C   0  0  0  0  0  0  0  0  0  0  0  0
  -25.6305  -24.5439   17.5200 C   0  0  0  0  0  0  0  0  0  0  0  0
  -22.8537   -6.4853   23.4923 C   0  0  0  0  0  0  0  0  0  0  0  0
  -20.6255   -5.0806   22.5736 C   0  0  0  0  0  0  0  0  0  0  0  0
  -23.0054   -5.2001   22.9719 C   0  0  0  0  0  0  0  0  0  0  0  0
  -25.1532  -12.0606   21.4889 C   0  0  0  0  0  0  0  0  0  0  0  0
  -25.0341  -14.0607   20.5830 C   0  0  0  0  0  0  0  0  0  0  0  0
  -22.8346  -13.1668   21.3652 C   0  0  0  0  0  0  0  0  0  0  0  0
  -26.8364  -27.8385   21.6619 C   0  0  0  0  0  0  0  0  0  0  0  0
  -23.7462  -27.5975   22.6186 C   0  0  0  0  0  0  0  0  0  0  0  0
  -20.6483  -26.2634   22.0993 C   0  0  0  0  0  0  0  0  0  0  0  0
  -29.6744  -17.1598   20.4930 C   0  0  0  0  0  0  0  0  0  0  0  0
  -30.7732  -30.9800   22.4927 C   0  0  0  0  0  0  0  0  0  0  0  0
  -25.6057  -28.3536   19.5228 C   0  0  0  0  0  0  0  0  0  0  0  0
  -24.5162  -25.9546   20.8654 C   0  0  0  0  0  0  0  0  0  0  0  0
  -29.5140  -30.5815   23.2582 C   0  0  0  0  0  0  0  0  0  0  0  0
  -29.8474  -13.9164   19.0348 C   0  0  0  0  0  0  0  0  0  0  0  0
  -29.3694  -29.0634   23.2945 C   0  0  0  0  0  0  0  0  0  0  0  0
  -28.5710  -13.2280   19.5213 C   0  0  0  0  0  0  0  0  0  0  0  0
  -26.1808  -20.7668   14.9915 C   0  0  0  0  0  0  0  0  0  0  0  0
  -27.5957  -21.0907   14.6267 C   0  0  0  0  0  0  0  0  0  0  0  0
  -30.4357  -14.8350   20.1035 C   0  0  0  0  0  0  0  0  0  0  0  0
  -28.2191  -15.1435   21.1356 C   0  0  0  0  0  0  0  0  0  0  0  0
  -29.2282  -28.4886   21.8799 C   0  0  1  0  0  0  0  0  0  0  0  0
  -25.5302  -28.2487   21.0429 C   0  0  1  0  0  0  0  0  0  0  0  0
  -27.5581  -14.2496   20.0724 C   0  0  2  0  0  0  0  0  0  0  0  0
  -27.0051  -21.6544   15.9066 C   0  0  0  0  0  0  0  0  0  0  0  0
  -25.9098  -19.6157   20.3113 C   0  0  0  0  0  0  0  0  0  0  0  0
  -29.8624  -21.4657   16.5263 C   0  0  0  0  0  0  0  0  0  0  0  0
  -18.3343  -26.2201   23.0694 C   0  0  0  0  0  0  0  0  0  0  0  0
  -24.7037  -25.7044   24.8117 C   0  0  0  0  0  0  0  0  0  0  0  0
  -22.3295  -24.9714   25.1189 C   0  0  0  0  0  0  0  0  0  0  0  0
  -22.9636  -27.3473   25.5381 C   0  0  0  0  0  0  0  0  0  0  0  0
  -19.4736  -27.4356   19.6488 C   0  0  0  0  0  0  0  0  0  0  0  0
  -28.7683  -19.4280   20.9329 C   0  0  0  0  0  0  0  0  0  0  0  0
  -26.6809  -23.1083   15.9416 C   0  0  0  0  0  0  0  0  0  1  0  0
  -22.8787  -26.4879   23.1619 C   0  0  1  0  0  0  0  0  0  0  0  0
  -19.2690  -26.8973   22.0792 C   0  0  2  0  0  0  0  0  0  0  0  0
  -23.2315  -26.1257   24.6322 C   0  0  0  0  0  0  0  0  0  0  0  0
  -26.4116  -12.3477   21.1451 N   0  0  0  0  0  0  0  0  0  0  0  0
  -26.3066  -13.5701   20.5966 N   0  0  0  0  0  0  0  0  0  0  0  0
  -24.5230  -27.2861   21.4937 N   0  0  0  0  0  0  0  0  0  0  0  0
  -29.4247  -15.7805   20.5829 N   0  0  0  0  0  0  0  0  0  0  0  0
  -24.7505  -15.2759   20.0681 N   0  0  0  0  0  0  0  0  0  0  0  0
  -22.1885  -12.0829   21.9752 N   0  0  0  0  0  0  0  0  0  0  0  0
  -27.8847  -28.6943   21.3826 N   0  0  0  0  0  0  0  0  0  0  0  0
  -21.4979  -26.9166   22.9669 N   0  0  0  0  0  0  0  0  0  0  0  0
  -28.6616  -17.9864   20.9640 N   0  0  0  0  0  0  0  0  0  0  0  0
  -18.6698  -26.7908   20.7189 N   0  3  0  0  0  0  0  0  0  0  0  0
  -22.1585  -14.1586   21.0008 O   0  0  0  0  0  0  0  0  0  0  0  0
  -26.8889  -26.8216   22.3438 O   0  0  0  0  0  0  0  0  0  0  0  0
  -23.7297  -28.7020   23.1676 O   0  0  0  0  0  0  0  0  0  0  0  0
  -20.9414  -25.2844   21.4167 O   0  0  0  0  0  0  0  0  0  0  0  0
  -30.7200  -17.6207   20.0227 O   0  0  0  0  0  0  0  0  0  0  0  0
  -23.9587   -7.1836   23.9495 O   0  0  0  0  0  0  0  0  0  0  0  0
  -25.6343  -23.3413   16.8832 O   0  0  0  0  0  0  0  0  0  1  0  0
  -19.5553   -4.4056   22.1340 F   0  0  0  0  0  0  0  0  0  0  0  0
  -24.2188   -4.6345   22.9118 F   0  0  0  0  0  0  0  0  0  0  0  0
  1  2  1  0  0  0  0
  1  5  2  0  0  0  0
  2  6  2  0  0  0  0
  3  8  2  0  0  0  0
  3 17  1  0  0  0  0
  4  9  1  0  0  0  0
  4 17  2  0  0  0  0
  5 19  1  0  0  0  0
  6 21  1  0  0  0  0
  7 10  2  0  0  0  0
  7 20  1  0  0  0  0
  8 27  1  0  0  0  0
  9 27  2  0  0  0  0
 10 28  1  0  0  0  0
 11 12  2  0  0  0  0
 11 29  1  0  0  0  0
 12 30  1  0  0  0  0
 13 22  1  0  0  0  0
 13 24  2  0  0  0  0
 14 23  1  0  0  0  0
 14 28  2  0  0  0  0
 15 25  1  0  0  0  0
 15 26  2  0  0  0  0
 16 30  2  0  0  0  0
 16 31  1  0  0  0  0
 17 32  1  0  0  0  0
 18 32  1  0  0  0  0
 18 33  2  0  0  0  0
 18 34  1  0  0  0  0
 19 21  2  0  0  0  0
 19 39  1  0  0  0  0
 20 23  2  0  0  0  0
 20 40  1  0  0  0  0
 21 50  1  0  0  0  0
 22 25  2  0  0  0  0
 22 53  1  0  0  0  0
 23 41  1  0  0  0  0
 24 26  1  0  0  0  0
 24 54  1  0  0  0  0
 25 55  1  0  0  0  0
 26 61  1  0  0  0  0
 27 81  1  0  0  0  0
 28 82  1  0  0  0  0
 29 31  2  0  0  0  0
 29 81  1  0  0  0  0
 30 83  1  0  0  0  0
 31 84  1  0  0  0  0
 32 66  2  0  0  0  0
 33 67  1  0  0  0  0
 33 70  1  0  0  0  0
 34 71  1  0  0  0  0
 34 76  2  0  0  0  0
 35 51  1  0  0  0  0
 35 72  1  0  0  0  0
 35 77  2  0  0  0  0
 36 63  1  0  0  0  0
 36 68  1  0  0  0  0
 36 78  2  0  0  0  0
 37 64  1  0  0  0  0
 37 73  1  0  0  0  0
 37 79  2  0  0  0  0
 38 69  1  0  0  0  0
 38 74  1  0  0  0  0
 38 80  2  0  0  0  0
 39 42  1  0  0  0  0
 40 51  1  0  0  0  0
 41 68  1  0  0  0  0
 42 44  1  0  0  0  0
 43 45  1  0  0  0  0
 43 48  1  0  0  0  0
 44 50  1  0  0  0  0
 45 52  1  0  0  0  0
 46 47  1  0  0  0  0
 46 53  1  0  0  0  0
 47 53  1  0  0  0  0
 48 69  1  0  0  0  0
 49 52  1  0  0  0  0
 49 69  1  0  0  0  0
 50 72  1  0  0  0  0
 51 68  1  0  0  0  0
 52 67  1  0  0  0  0
 53 62  1  0  0  0  0
 56 64  1  0  0  0  0
 57 65  1  0  0  0  0
 58 65  1  0  0  0  0
 59 65  1  0  0  0  0
 60 75  1  0  0  0  0
 61 74  1  0  0  0  0
 62 82  1  0  0  0  0
 63 65  1  0  0  0  0
 63 73  1  0  0  0  0
 64 75  1  0  0  0  0
 66 67  1  0  0  0  0
M  CHG  1  75   1
M  ISO  4  38 100  62 101  74 100  82 101
M  END
> <Batch ID>
0158

> <Smiles>
CNC(C)C(=O)NC(C(=O)N1Cc2cc([101O:1][101CH2:1]C3(c4cc(C)c(C[100NH:0][100C:0](=O)N5CCCC(n6nc(-c7ccc(Oc8ccc(F)cc8F)cc7)c(C(N)=O)c6N)C5)cc4C)CC3)ccc2CC1C(=O)NC1CCCc2ccccc21)C(C)(C)C

> <Shape>
0.244

> <Color>
0.124

> <Negative vol penalty>
0.000

$$$$

  -OEChem-04052322043D

 90 99  0     1  0  0  0  0  0999 V2000
  -26.6916  -21.4183   27.2096 C   0  0  0  0  0  0  0  0  0  0  0  0
  -27.2561  -21.7915   25.9942 C   0  0  0  0  0  0  0  0  0  0  0  0
  -24.6308  -11.7534   25.0333 C   0  0  0  0  0  0  0  0  0  0  0  0
  -25.0247   -9.9152   23.5157 C   0  0  0  0  0  0  0  0  0  0  0  0
  -25.3628  -21.7366   27.4868 C   0  0  0  0  0  0  0  0  0  0  0  0
  -26.4918  -22.4824   25.0546 C   0  0  0  0  0  0  0  0  0  0  0  0
  -29.0182  -26.4648   22.9931 C   0  0  0  0  0  0  0  0  0  0  0  0
  -24.2976  -10.8493   26.0418 C   0  0  0  0  0  0  0  0  0  0  0  0
  -24.6916   -9.0111   24.5243 C   0  0  0  0  0  0  0  0  0  0  0  0
  -29.9650  -26.2076   22.0025 C   0  0  0  0  0  0  0  0  0  0  0  0
  -23.5973   -6.2304   26.5931 C   0  0  0  0  0  0  0  0  0  0  0  0
  -22.7505   -5.1727   26.2619 C   0  0  0  0  0  0  0  0  0  0  0  0
  -28.3357  -26.7575   20.3110 C   0  0  0  0  0  0  0  0  0  0  0  0
  -30.4113  -19.5033   20.5919 C   0  0  0  0  0  0  0  0  0  0  0  0
  -27.6266  -19.4268   20.7411 C   0  0  0  0  0  0  0  0  0  0  0  0
  -21.0307   -6.7477   25.6299 C   0  0  0  0  0  0  0  0  0  0  0  0
  -24.9943  -11.2863   23.7701 C   0  0  0  0  0  0  0  0  0  0  0  0
  -24.5191  -13.2284   22.1858 C   0  0  0  0  0  0  0  0  0  0  0  0
  -24.5846  -22.4402   26.5540 C   0  0  0  0  0  0  0  0  0  0  0  0
  -27.7175  -26.8610   22.6496 C   0  0  0  0  0  0  0  0  0  0  0  0
  -25.1509  -22.8093   25.3189 C   0  0  0  0  0  0  0  0  0  0  0  0
  -27.3758  -27.0237   21.2992 C   0  0  0  0  0  0  0  0  0  0  0  0
  -29.6467  -20.3619   19.8021 C   0  0  0  0  0  0  0  0  0  0  0  0
  -28.2544  -20.3237   19.8767 C   0  0  0  0  0  0  0  0  0  0  0  0
  -28.3912  -18.5682   21.5309 C   0  0  0  0  0  0  0  0  0  0  0  0
  -24.3280   -9.4782   25.7874 C   0  0  0  0  0  0  0  0  0  0  0  0
  -29.6231  -26.3517   20.6612 C   0  0  0  0  0  0  0  0  0  0  0  0
  -23.1609   -7.5467   26.4428 C   0  0  0  0  0  0  0  0  0  0  0  0
  -29.7835  -18.6064   21.4562 C   0  0  0  0  0  0  0  0  0  0  0  0
  -21.4672   -5.4313   25.7803 C   0  0  0  0  0  0  0  0  0  0  0  0
  -21.8776   -7.8053   25.9612 C   0  0  0  0  0  0  0  0  0  0  0  0
  -25.3381  -12.2197   22.7277 C   0  0  0  0  0  0  0  0  0  0  0  0
  -25.3035  -13.8335   21.2345 C   0  0  0  0  0  0  0  0  0  0  0  0
  -23.1698  -13.5864   22.5130 C   0  0  0  0  0  0  0  0  0  0  0  0
  -24.7569  -25.7233   23.0815 C   0  0  0  0  0  0  0  0  0  0  0  0
  -23.9926  -28.6336   21.6675 C   0  0  0  0  0  0  0  0  0  0  0  0
  -20.7448  -28.1808   22.6091 C   0  0  0  0  0  0  0  0  0  0  0  0
  -31.2313  -14.3281   20.5504 C   0  0  0  0  0  0  0  0  0  0  0  0
  -23.1388  -22.7205   26.8791 C   0  0  0  0  0  0  0  0  0  0  0  0
  -26.7197  -27.1629   23.7348 C   0  0  0  0  0  0  0  0  0  0  0  0
  -25.9951  -27.4501   20.8792 C   0  0  0  0  0  0  0  0  0  0  0  0
  -22.5077  -23.7827   25.9827 C   0  0  0  0  0  0  0  0  0  0  0  0
  -28.9183  -12.9286   18.2335 C   0  0  0  0  0  0  0  0  0  0  0  0
  -22.8474  -23.5170   24.5196 C   0  0  0  0  0  0  0  0  0  0  0  0
  -27.6645  -12.6792   19.0737 C   0  0  0  0  0  0  0  0  0  0  0  0
  -31.8730  -21.2414   18.9150 C   0  0  0  0  0  0  0  0  0  0  0  0
  -30.1937  -12.6685   19.0320 C   0  0  0  0  0  0  0  0  0  0  0  0
  -29.0299  -13.1490   21.1506 C   0  0  0  0  0  0  0  0  0  0  0  0
  -32.2874  -22.5124   18.2036 C   0  0  0  0  0  0  0  0  0  0  0  0
  -30.0505  -22.7977   19.1538 C   0  0  0  0  0  0  0  0  0  0  0  0
  -30.3485  -21.3228   18.8739 C   0  0  2  0  0  0  0  0  0  0  0  0
  -24.3614  -23.5814   24.2842 C   0  0  1  0  0  0  0  0  0  0  0  0
  -25.2692  -27.1247   23.2579 C   0  0  1  0  0  0  0  0  0  0  0  0
  -27.7189  -13.4522   20.4052 C   0  0  2  0  0  0  0  0  0  0  0  0
  -27.4154  -21.2339   19.0411 C   0  0  0  0  0  0  0  0  0  0  0  0
  -27.7025  -17.6136   22.4496 C   0  0  0  0  0  0  0  0  0  0  0  0
  -18.5399  -29.3744   22.7150 C   0  0  0  0  0  0  0  0  0  0  0  0
  -32.4024  -25.3624   17.5333 C   0  0  0  0  0  0  0  0  0  0  0  0
  -24.9647  -30.2070   24.0934 C   0  0  0  0  0  0  0  0  0  0  0  0
  -22.5701  -30.6083   24.7042 C   0  0  0  0  0  0  0  0  0  0  0  0
  -23.4700  -31.4870   22.5500 C   0  0  0  0  0  0  0  0  0  0  0  0
  -19.4637  -26.2175   20.8028 C   0  0  0  0  0  0  0  0  0  0  0  0
  -32.1394  -15.9770   22.1676 C   0  0  0  0  0  0  0  0  0  0  0  0
  -31.8071  -17.3786   21.6878 C   0  0  0  0  0  0  0  0  0  0  0  0
  -30.0581  -25.6234   18.4394 C   0  0  0  0  0  0  0  0  0  1  0  0
  -23.0771  -29.0028   22.8078 C   0  0  1  0  0  0  0  0  0  0  0  0
  -19.4384  -28.4658   21.8904 C   0  0  2  0  0  0  0  0  0  0  0  0
  -31.0702  -24.6803   17.7987 C   0  0  2  0  0  0  0  0  0  0  0  0
  -23.5303  -30.2998   23.5357 C   0  0  0  0  0  0  0  0  0  0  0  0
  -26.5499  -12.1829   22.1672 N   0  0  0  0  0  0  0  0  0  0  0  0
  -26.4981  -13.1759   21.2631 N   0  0  0  0  0  0  0  0  0  0  0  0
  -25.0860  -27.8134   21.9740 N   0  0  0  0  0  0  0  0  0  0  0  0
  -30.1833  -13.4322   20.2820 N   0  0  0  0  0  0  0  0  0  0  0  0
  -25.0811  -14.8585   20.3846 N   0  0  0  0  0  0  0  0  0  0  0  0
  -22.1254  -12.9606   21.8188 N   0  0  0  0  0  0  0  0  0  0  0  0
  -24.8064  -24.9575   24.2306 N   0  0  0  0  0  0  0  0  0  0  0  0
  -21.7325  -29.0718   22.2458 N   0  0  0  0  0  0  0  0  0  0  0  0
  -31.1409  -15.0164   21.7540 N   0  0  0  0  0  0  0  0  0  0  0  0
  -31.3096  -23.5371   18.7311 N   0  3  2  0  0  0  0  0  0  0  0  0
  -18.7056  -27.1957   21.6246 N   0  3  0  0  0  0  0  0  0  0  0  0
  -22.8989  -14.4479   23.3836 O   0  0  0  0  0  0  0  0  0  0  0  0
  -24.3457  -25.3639   21.9845 O   0  0  0  0  0  0  0  0  0  0  0  0
  -23.7516  -29.0654   20.5367 O   0  0  0  0  0  0  0  0  0  0  0  0
  -20.8750  -27.2622   23.4151 O   0  0  0  0  0  0  0  0  0  0  0  0
  -32.1747  -14.5056   19.7723 O   0  0  0  0  0  0  0  0  0  0  0  0
  -24.0032   -8.5957   26.7714 O   0  0  0  0  0  0  0  0  0  0  0  0
  -30.5455  -26.1019   19.6923 O   0  0  0  0  0  0  0  0  0  1  0  0
  -30.5453  -17.7751   22.2212 O   0  0  0  0  0  0  0  0  0  0  0  0
  -20.6546   -4.4156   25.4608 F   0  0  0  0  0  0  0  0  0  0  0  0
  -21.4532   -9.0678   25.8135 F   0  0  0  0  0  0  0  0  0  0  0  0
  1  2  1  0  0  0  0
  1  5  2  0  0  0  0
  2  6  2  0  0  0  0
  3  8  2  0  0  0  0
  3 17  1  0  0  0  0
  4  9  1  0  0  0  0
  4 17  2  0  0  0  0
  5 19  1  0  0  0  0
  6 21  1  0  0  0  0
  7 10  2  0  0  0  0
  7 20  1  0  0  0  0
  8 26  1  0  0  0  0
  9 26  2  0  0  0  0
 10 27  1  0  0  0  0
 11 12  2  0  0  0  0
 11 28  1  0  0  0  0
 12 30  1  0  0  0  0
 13 22  1  0  0  0  0
 13 27  2  0  0  0  0
 14 23  1  0  0  0  0
 14 29  2  0  0  0  0
 15 24  1  0  0  0  0
 15 25  2  0  0  0  0
 16 30  2  0  0  0  0
 16 31  1  0  0  0  0
 17 32  1  0  0  0  0
 18 32  1  0  0  0  0
 18 33  2  0  0  0  0
 18 34  1  0  0  0  0
 19 21  2  0  0  0  0
 19 39  1  0  0  0  0
 20 22  2  0  0  0  0
 20 40  1  0  0  0  0
 21 52  1  0  0  0  0
 22 41  1  0  0  0  0
 23 24  2  0  0  0  0
 23 51  1  0  0  0  0
 24 55  1  0  0  0  0
 25 29  1  0  0  0  0
 25 56  1  0  0  0  0
 26 86  1  0  0  0  0
 27 87  1  0  0  0  0
 28 31  2  0  0  0  0
 28 86  1  0  0  0  0
 29 88  1  0  0  0  0
 30 89  1  0  0  0  0
 31 90  1  0  0  0  0
 32 70  2  0  0  0  0
 33 71  1  0  0  0  0
 33 74  1  0  0  0  0
 34 75  1  0  0  0  0
 34 81  2  0  0  0  0
 35 53  1  0  0  0  0
 35 76  1  0  0  0  0
 35 82  2  0  0  0  0
 36 66  1  0  0  0  0
 36 72  1  0  0  0  0
 36 83  2  0  0  0  0
 37 67  1  0  0  0  0
 37 77  1  0  0  0  0
 37 84  2  0  0  0  0
 38 73  1  0  0  0  0
 38 78  1  0  0  0  0
 38 85  2  0  0  0  0
 39 42  1  0  0  0  0
 40 53  1  0  0  0  0
 41 72  1  0  0  0  0
 42 44  1  0  0  0  0
 43 45  1  0  0  0  0
 43 47  1  0  0  0  0
 44 52  1  0  0  0  0
 45 54  1  0  0  0  0
 46 49  1  0  0  0  0
 46 51  1  0  0  0  0
 47 73  1  0  0  0  0
 48 54  1  0  0  0  0
 48 73  1  0  0  0  0
 49 79  1  0  0  0  0
 50 51  1  0  0  0  0
 50 79  1  0  0  0  0
 52 76  1  0  0  0  0
 53 72  1  0  0  0  0
 54 71  1  0  0  0  0
 57 67  1  0  0  0  0
 58 68  1  0  0  0  0
 59 69  1  0  0  0  0
 60 69  1  0  0  0  0
 61 69  1  0  0  0  0
 62 80  1  0  0  0  0
 63 64  1  0  0  0  0
 63 78  1  0  0  0  0
 64 88  1  0  0  0  0
 65 68  1  0  0  0  0
 65 87  1  0  0  0  0
 66 69  1  0  0  0  0
 66 77  1  0  0  0  0
 67 80  1  0  0  0  0
 68 79  1  0  0  0  0
 70 71  1  0  0  0  0
M  CHG  2  79   1  80   1
M  ISO  4  38 100  65 101  78 100  87 101
M  END
> <Batch ID>
0158

> <Smiles>
CNC(C)C(=O)NC(C(=O)N1Cc2cc([101O:1][101CH2:1]C(C)N3CCC(c4cc(OCC[100NH:0][100C:0](=O)N5CCCC(n6nc(-c7ccc(Oc8ccc(F)cc8F)cc7)c(C(N)=O)c6N)C5)c(C)cc4C)C3)ccc2CC1C(=O)NC1CCCc2ccccc21)C(C)(C)C

> <Shape>
0.278

> <Color>
0.110

> <Negative vol penalty>
0.000

$$$$

  -OEChem-04052322043D

 87 96  0     1  0  0  0  0  0999 V2000
  -29.0325  -37.3431   20.6822 C   0  0  0  0  0  0  0  0  0  0  0  0
  -29.5696  -36.0987   20.9957 C   0  0  0  0  0  0  0  0  0  0  0  0
  -23.7310   -9.7102   21.2744 C   0  0  0  0  0  0  0  0  0  0  0  0
  -24.2807  -10.6838   23.4161 C   0  0  0  0  0  0  0  0  0  0  0  0
  -27.7699  -37.6958   21.1569 C   0  0  0  0  0  0  0  0  0  0  0  0
  -28.8447  -35.2065   21.7850 C   0  0  0  0  0  0  0  0  0  0  0  0
  -28.7770  -29.1000   21.3242 C   0  0  0  0  0  0  0  0  0  0  0  0
  -23.1858   -8.5998   21.9190 C   0  0  0  0  0  0  0  0  0  0  0  0
  -23.7355   -9.5734   24.0608 C   0  0  0  0  0  0  0  0  0  0  0  0
  -29.4494  -28.0990   22.0240 C   0  0  0  0  0  0  0  0  0  0  0  0
  -20.3145   -7.8101   23.5203 C   0  0  0  0  0  0  0  0  0  0  0  0
  -19.0825   -7.3379   23.0678 C   0  0  0  0  0  0  0  0  0  0  0  0
  -27.5347  -27.8297   23.4665 C   0  0  0  0  0  0  0  0  0  0  0  0
  -32.7283  -21.5401   22.8675 C   0  0  0  0  0  0  0  0  0  0  0  0
  -20.0890   -5.2017   22.5568 C   0  0  0  0  0  0  0  0  0  0  0  0
  -24.2785  -10.7521   22.0230 C   0  0  0  0  0  0  0  0  0  0  0  0
  -24.1742  -13.0829   20.9912 C   0  0  0  0  0  0  0  0  0  0  0  0
  -27.0250  -36.8037   21.9443 C   0  0  0  0  0  0  0  0  0  0  0  0
  -27.4803  -29.4816   21.6978 C   0  0  0  0  0  0  0  0  0  0  0  0
  -27.5714  -35.5480   22.2717 C   0  0  0  0  0  0  0  0  0  0  0  0
  -26.8471  -28.8340   22.7682 C   0  0  0  0  0  0  0  0  0  0  0  0
  -30.6846  -20.2775   22.6109 C   0  0  0  0  0  0  0  0  0  0  0  0
  -32.0776  -20.3229   22.6659 C   0  0  0  0  0  0  0  0  0  0  0  0
  -31.9860  -22.7120   23.0141 C   0  0  0  0  0  0  0  0  0  0  0  0
  -29.9422  -21.4493   22.7575 C   0  0  0  0  0  0  0  0  0  0  0  0
  -23.1881   -8.5314   23.3122 C   0  0  0  0  0  0  0  0  0  0  0  0
  -28.8294  -27.4657   23.0971 C   0  0  0  0  0  0  0  0  0  0  0  0
  -21.4337   -6.9782   23.4911 C   0  0  0  0  0  0  0  0  0  0  0  0
  -30.5930  -22.6666   22.9591 C   0  0  0  0  0  0  0  0  0  0  0  0
  -18.9697   -6.0337   22.5860 C   0  0  0  0  0  0  0  0  0  0  0  0
  -21.3210   -5.6740   23.0094 C   0  0  0  0  0  0  0  0  0  0  0  0
  -24.8422  -11.8991   21.3576 C   0  0  0  0  0  0  0  0  0  0  0  0
  -25.1422  -13.8526   20.3938 C   0  0  0  0  0  0  0  0  0  0  0  0
  -22.8014  -13.4536   21.1745 C   0  0  0  0  0  0  0  0  0  0  0  0
  -26.1469  -32.1713   22.7422 C   0  0  0  0  0  0  0  0  0  0  0  0
  -23.4030  -30.4663   22.4482 C   0  0  0  0  0  0  0  0  0  0  0  0
  -21.8883  -27.4099   22.3439 C   0  0  0  0  0  0  0  0  0  0  0  0
  -30.3298  -15.8970   20.3088 C   0  0  0  0  0  0  0  0  0  0  0  0
  -25.6845  -37.2479   22.4737 C   0  0  0  0  0  0  0  0  0  0  0  0
  -26.7584  -30.5445   20.9159 C   0  0  0  0  0  0  0  0  0  0  0  0
  -25.4483  -29.1927   23.1964 C   0  0  0  0  0  0  0  0  0  0  0  0
  -24.8234  -36.0991   22.9925 C   0  0  0  0  0  0  0  0  0  0  0  0
  -29.8110  -12.7083   18.8785 C   0  0  0  0  0  0  0  0  0  0  0  0
  -25.6467  -35.1757   23.8849 C   0  0  0  0  0  0  0  0  0  0  0  0
  -28.4350  -12.2872   19.3868 C   0  0  0  0  0  0  0  0  0  0  0  0
  -30.2616  -17.8441   23.4166 C   0  0  0  0  0  0  0  0  0  0  0  0
  -30.5771  -13.4651   19.9551 C   0  0  0  0  0  0  0  0  0  0  0  0
  -29.7612  -16.5924   22.7083 C   0  0  0  0  0  0  0  0  0  0  0  0
  -30.3412  -18.2505   21.0785 C   0  0  0  0  0  0  0  0  0  0  0  0
  -28.4651  -14.2946   20.9559 C   0  0  0  0  0  0  0  0  0  0  0  0
  -29.9806  -18.9564   22.3932 C   0  0  2  0  0  0  0  0  0  0  0  0
  -26.8054  -34.5432   23.1045 C   0  0  1  0  0  0  0  0  0  0  0  0
  -25.6362  -31.2097   21.7068 C   0  0  1  0  0  0  0  0  0  0  0  0
  -27.6546  -13.5037   19.9083 C   0  0  2  0  0  0  0  0  0  0  0  0
  -32.8960  -19.0827   22.5119 C   0  0  0  0  0  0  0  0  0  0  0  0
  -32.7007  -24.0051   23.2295 C   0  0  0  0  0  0  0  0  0  0  0  0
  -28.4483  -21.4072   22.7002 C   0  0  0  0  0  0  0  0  0  0  0  0
  -19.6296  -26.3370   22.1324 C   0  0  0  0  0  0  0  0  0  0  0  0
  -22.7917  -31.1870   25.3494 C   0  0  0  0  0  0  0  0  0  0  0  0
  -21.0790  -29.3610   25.3692 C   0  0  0  0  0  0  0  0  0  0  0  0
  -20.8226  -31.2922   23.8112 C   0  0  0  0  0  0  0  0  0  0  0  0
  -22.6538  -26.0206   19.8454 C   0  0  0  0  0  0  0  0  0  0  0  0
  -28.6861  -25.4644   24.3738 C   0  0  0  0  0  0  0  0  0  1  0  0
  -29.4817  -24.1744   24.4244 C   0  0  0  0  0  0  0  0  0  0  0  0
  -22.6057  -29.5592   23.3540 C   0  0  1  0  0  0  0  0  0  0  0  0
  -20.8628  -26.8260   21.3889 C   0  0  2  0  0  0  0  0  0  0  0  0
  -21.8518  -30.3442   24.4644 C   0  0  0  0  0  0  0  0  0  0  0  0
  -26.1347  -11.9111   21.0210 N   0  0  0  0  0  0  0  0  0  0  0  0
  -26.2866  -13.1118   20.4367 N   0  0  0  0  0  0  0  0  0  0  0  0
  -24.7864  -30.2426   22.4045 N   0  0  0  0  0  0  0  0  0  0  0  0
  -29.8141  -14.6057   20.4656 N   0  0  0  0  0  0  0  0  0  0  0  0
  -30.0402  -16.8390   21.2952 N   0  0  0  0  0  0  0  0  0  0  0  0
  -25.1177  -15.0840   19.8411 N   0  0  0  0  0  0  0  0  0  0  0  0
  -21.9426  -12.5445   21.8073 N   0  0  0  0  0  0  0  0  0  0  0  0
  -26.3240  -33.4596   22.2748 N   0  0  0  0  0  0  0  0  0  0  0  0
  -21.7378  -28.7734   22.4835 N   0  0  0  0  0  0  0  0  0  0  0  0
  -21.4470  -25.6771   20.6408 N   0  3  0  0  0  0  0  0  0  0  0  0
  -22.3458  -14.5515   20.7739 O   0  0  0  0  0  0  0  0  0  0  0  0
  -26.3628  -31.7743   23.8813 O   0  0  0  0  0  0  0  0  0  0  0  0
  -22.8189  -31.3366   21.7978 O   0  0  0  0  0  0  0  0  0  0  0  0
  -22.7354  -26.7245   22.9122 O   0  0  0  0  0  0  0  0  0  0  0  0
  -31.0548  -16.1873   19.3476 O   0  0  0  0  0  0  0  0  0  0  0  0
  -22.6560   -7.4482   23.9415 O   0  0  0  0  0  0  0  0  0  0  0  0
  -29.4881  -26.4822   23.7870 O   0  0  0  0  0  0  0  0  0  1  0  0
  -29.8686  -23.8138   23.1008 O   0  0  0  0  0  0  0  0  0  0  0  0
  -17.7863   -5.5798   22.1529 F   0  0  0  0  0  0  0  0  0  0  0  0
  -22.3925   -4.8697   22.9800 F   0  0  0  0  0  0  0  0  0  0  0  0
  1  2  1  0  0  0  0
  1  5  2  0  0  0  0
  2  6  2  0  0  0  0
  3  8  2  0  0  0  0
  3 16  1  0  0  0  0
  4  9  1  0  0  0  0
  4 16  2  0  0  0  0
  5 18  1  0  0  0  0
  6 20  1  0  0  0  0
  7 10  2  0  0  0  0
  7 19  1  0  0  0  0
  8 26  1  0  0  0  0
  9 26  2  0  0  0  0
 10 27  1  0  0  0  0
 11 12  2  0  0  0  0
 11 28  1  0  0  0  0
 12 30  1  0  0  0  0
 13 21  1  0  0  0  0
 13 27  2  0  0  0  0
 14 23  1  0  0  0  0
 14 24  2  0  0  0  0
 15 30  2  0  0  0  0
 15 31  1  0  0  0  0
 16 32  1  0  0  0  0
 17 32  1  0  0  0  0
 17 33  2  0  0  0  0
 17 34  1  0  0  0  0
 18 20  2  0  0  0  0
 18 39  1  0  0  0  0
 19 21  2  0  0  0  0
 19 40  1  0  0  0  0
 20 52  1  0  0  0  0
 21 41  1  0  0  0  0
 22 23  2  0  0  0  0
 22 25  1  0  0  0  0
 22 51  1  0  0  0  0
 23 55  1  0  0  0  0
 24 29  1  0  0  0  0
 24 56  1  0  0  0  0
 25 29  2  0  0  0  0
 25 57  1  0  0  0  0
 26 83  1  0  0  0  0
 27 84  1  0  0  0  0
 28 31  2  0  0  0  0
 28 83  1  0  0  0  0
 29 85  1  0  0  0  0
 30 86  1  0  0  0  0
 31 87  1  0  0  0  0
 32 68  2  0  0  0  0
 33 69  1  0  0  0  0
 33 73  1  0  0  0  0
 34 74  1  0  0  0  0
 34 78  2  0  0  0  0
 35 53  1  0  0  0  0
 35 75  1  0  0  0  0
 35 79  2  0  0  0  0
 36 65  1  0  0  0  0
 36 70  1  0  0  0  0
 36 80  2  0  0  0  0
 37 66  1  0  0  0  0
 37 76  1  0  0  0  0
 37 81  2  0  0  0  0
 38 71  1  0  0  0  0
 38 72  1  0  0  0  0
 38 82  2  0  0  0  0
 39 42  1  0  0  0  0
 40 53  1  0  0  0  0
 41 70  1  0  0  0  0
 42 44  1  0  0  0  0
 43 45  1  0  0  0  0
 43 47  1  0  0  0  0
 44 52  1  0  0  0  0
 45 54  1  0  0  0  0
 46 48  1  0  0  0  0
 46 51  1  0  0  0  0
 47 71  1  0  0  0  0
 48 72  1  0  0  0  0
 49 51  1  0  0  0  0
 49 72  1  0  0  0  0
 50 54  1  0  0  0  0
 50 71  1  0  0  0  0
 52 75  1  0  0  0  0
 53 70  1  0  0  0  0
 54 69  1  0  0  0  0
 58 66  1  0  0  0  0
 59 67  1  0  0  0  0
 60 67  1  0  0  0  0
 61 67  1  0  0  0  0
 62 77  1  0  0  0  0
 63 64  1  0  0  0  0
 63 84  1  0  0  0  0
 64 85  1  0  0  0  0
 65 67  1  0  0  0  0
 65 76  1  0  0  0  0
 66 77  1  0  0  0  0
 68 69  1  0  0  0  0
M  CHG  1  77   1
M  ISO  4  38 100  63 101  72 100  84 101
M  END
> <Batch ID>
0158

> <Smiles>
CNC(C)C(=O)NC(C(=O)N1Cc2cc([101O:1][101CH2:1]COc3c(C)cc(C)c(C4CC[100N:0]([100C:0](=O)N5CCCC(n6nc(-c7ccc(Oc8ccc(F)cc8F)cc7)c(C(N)=O)c6N)C5)C4)c3C)ccc2CC1C(=O)NC1CCCc2ccccc21)C(C)(C)C

> <Shape>
0.300

> <Color>
0.129

> <Negative vol penalty>
0.000

$$$$

  -OEChem-04052322043D

 87 97  0     1  0  0  0  0  0999 V2000
  -21.9552  -11.7985   21.3640 C   0  0  0  0  0  0  0  0  0  0  0  0
  -22.1170  -12.8838   22.2192 C   0  0  0  0  0  0  0  0  0  0  0  0
  -20.1935  -26.7221   23.8187 C   0  0  0  0  0  0  0  0  0  0  0  0
  -19.4962  -26.5172   21.5146 C   0  0  0  0  0  0  0  0  0  0  0  0
  -22.9693  -11.4607   20.4688 C   0  0  0  0  0  0  0  0  0  0  0  0
  -23.2934  -13.6314   22.1804 C   0  0  0  0  0  0  0  0  0  0  0  0
  -23.8563  -19.6603   23.0973 C   0  0  0  0  0  0  0  0  0  0  0  0
  -18.8652  -26.6137   24.2304 C   0  0  0  0  0  0  0  0  0  0  0  0
  -18.1679  -26.4087   21.9263 C   0  0  0  0  0  0  0  0  0  0  0  0
  -24.2319  -20.4085   24.2122 C   0  0  0  0  0  0  0  0  0  0  0  0
  -15.6943  -26.0286   25.9091 C   0  0  0  0  0  0  0  0  0  0  0  0
  -15.4156  -25.1861   26.9852 C   0  0  0  0  0  0  0  0  0  0  0  0
  -27.2571  -26.1496   25.9076 C   0  0  0  0  0  0  0  0  0  0  0  0
  -26.4924  -20.5086   23.3758 C   0  0  0  0  0  0  0  0  0  0  0  0
  -16.3071  -23.3118   25.7485 C   0  0  0  0  0  0  0  0  0  0  0  0
  -20.5090  -26.6740   22.4608 C   0  0  0  0  0  0  0  0  0  0  0  0
  -22.8021  -25.7384   21.8492 C   0  0  0  0  0  0  0  0  0  0  0  0
  -24.1549  -12.2104   20.4123 C   0  0  0  0  0  0  0  0  0  0  0  0
  -24.7999  -19.3208   22.1171 C   0  0  0  0  0  0  0  0  0  0  0  0
  -24.3249  -13.3025   21.2845 C   0  0  0  0  0  0  0  0  0  0  0  0
  -28.2571  -27.0885   26.1352 C   0  0  0  0  0  0  0  0  0  0  0  0
  -27.3330  -24.9005   26.5135 C   0  0  0  0  0  0  0  0  0  0  0  0
  -26.1256  -19.7583   22.2482 C   0  0  0  0  0  0  0  0  0  0  0  0
  -17.8524  -26.4569   23.2842 C   0  0  0  0  0  0  0  0  0  0  0  0
  -25.5507  -20.8303   24.3530 C   0  0  0  0  0  0  0  0  0  0  0  0
  -16.2794  -25.5128   24.7527 C   0  0  0  0  0  0  0  0  0  0  0  0
  -15.7220  -23.8277   26.9049 C   0  0  0  0  0  0  0  0  0  0  0  0
  -16.5858  -24.1544   24.6724 C   0  0  0  0  0  0  0  0  0  0  0  0
  -21.8809  -26.7865   22.0349 C   0  0  0  0  0  0  0  0  0  0  0  0
  -29.3035  -26.7319   26.9705 C   0  0  0  0  0  0  0  0  0  0  0  0
  -28.4209  -24.6418   27.3317 C   0  0  0  0  0  0  0  0  0  0  0  0
  -23.9560  -26.3632   21.4435 C   0  0  0  0  0  0  0  0  0  0  0  0
  -22.6301  -24.3261   22.0273 C   0  0  0  0  0  0  0  0  0  0  0  0
  -25.9780  -16.5936   20.9868 C   0  0  0  0  0  0  0  0  0  0  0  0
  -27.4453  -18.5596   18.8644 C   0  0  0  0  0  0  0  0  0  0  0  0
  -28.6191  -21.6810   18.1393 C   0  0  0  0  0  0  0  0  0  0  0  0
  -27.0434  -31.0471   22.2352 C   0  0  0  0  0  0  0  0  0  0  0  0
  -25.2424  -11.7782   19.4608 C   0  0  0  0  0  0  0  0  0  0  0  0
  -24.3728  -18.5360   20.9072 C   0  0  0  0  0  0  0  0  0  0  0  0
  -27.1724  -19.4376   21.2139 C   0  0  0  0  0  0  0  0  0  0  0  0
  -26.3039  -12.8490   19.2223 C   0  0  0  0  0  0  0  0  0  0  0  0
  -25.0446  -30.7382   19.4314 C   0  0  0  0  0  0  0  0  0  0  0  0
  -26.7484  -13.4641   20.5455 C   0  0  0  0  0  0  0  0  0  0  0  0
  -24.1061  -29.5835   19.7818 C   0  0  0  0  0  0  0  0  0  0  0  0
  -28.9273  -28.4891   24.1332 C   0  0  0  0  0  0  0  0  0  0  0  0
  -26.7263  -28.9266   25.3014 C   0  0  0  0  0  0  0  0  0  0  0  0
  -25.4507  -23.9676   25.0094 C   0  0  0  0  0  0  0  0  0  0  0  0
  -25.2558  -31.6543   20.6317 C   0  0  0  0  0  0  0  0  0  0  0  0
  -28.8210  -29.8598   23.4692 C   0  0  0  0  0  0  0  0  0  0  0  0
  -26.6704  -30.2873   24.6129 C   0  0  0  0  0  0  0  0  0  0  0  0
  -24.8409  -29.7938   22.2067 C   0  0  0  0  0  0  0  0  0  0  0  0
  -28.1800  -28.4536   25.4775 C   0  0  0  0  0  0  0  0  0  0  0  0
  -26.2657  -23.8889   26.2748 C   0  0  1  0  0  0  0  0  0  0  0  0
  -25.5764  -14.1528   21.2551 C   0  0  1  0  0  0  0  0  0  0  0  0
  -25.5294  -17.8099   20.2271 C   0  0  1  0  0  0  0  0  0  0  0  0
  -24.6008  -28.8289   21.0284 C   0  0  1  0  0  0  0  0  0  0  0  0
  -26.4553  -22.8691   25.1783 C   0  0  1  0  0  0  0  0  0  1  0  0
  -30.4060  -27.7001   27.2506 C   0  0  0  0  0  0  0  0  0  0  0  0
  -28.5575  -23.3168   28.0083 C   0  0  0  0  0  0  0  0  0  0  0  0
  -29.8030  -22.9720   16.3423 C   0  0  0  0  0  0  0  0  0  0  0  0
  -30.0819  -17.2473   19.6620 C   0  0  0  0  0  0  0  0  0  0  0  0
  -31.2808  -19.1657   18.5896 C   0  0  0  0  0  0  0  0  0  0  0  0
  -29.8298  -17.6767   17.2112 C   0  0  0  0  0  0  0  0  0  0  0  0
  -26.3362  -23.5345   17.8054 C   0  0  0  0  0  0  0  0  0  0  0  0
  -28.7596  -19.3012   18.8261 C   0  0  1  0  0  0  0  0  0  0  0  0
  -28.4548  -22.5589   16.9118 C   0  0  2  0  0  0  0  0  0  0  0  0
  -29.9689  -18.3523   18.5929 C   0  0  0  0  0  0  0  0  0  0  0  0
  -22.4044  -27.9863   21.7693 N   0  0  0  0  0  0  0  0  0  0  0  0
  -29.4116  -25.5284   27.5767 N   0  0  0  0  0  0  0  0  0  0  0  0
  -23.6671  -27.6958   21.4125 N   0  0  0  0  0  0  0  0  0  0  0  0
  -26.7071  -18.6623   20.0520 N   0  0  0  0  0  0  0  0  0  0  0  0
  -25.7190  -30.8993   21.7958 N   0  0  0  0  0  0  0  0  0  0  0  0
  -27.4281  -30.2901   23.3541 N   0  0  0  0  0  0  0  0  0  0  0  0
  -25.1794  -25.8973   21.1140 N   0  0  0  0  0  0  0  0  0  0  0  0
  -21.3798  -23.8532   22.4485 N   0  0  0  0  0  0  0  0  0  0  0  0
  -25.3020  -15.4372   20.6473 N   0  0  0  0  0  0  0  0  0  0  0  0
  -28.6121  -20.3411   17.8135 N   0  0  0  0  0  0  0  0  0  0  0  0
  -27.6920  -23.7922   17.2555 N   0  3  0  0  0  0  0  0  0  0  0  0
  -23.5624  -23.5093   21.8349 O   0  0  0  0  0  0  0  0  0  0  0  0
  -26.8724  -16.6963   21.8182 O   0  0  0  0  0  0  0  0  0  0  0  0
  -27.0834  -17.9187   17.8745 O   0  0  0  0  0  0  0  0  0  0  0  0
  -28.7452  -22.1380   19.2731 O   0  0  0  0  0  0  0  0  0  0  0  0
  -27.8369  -31.8036   21.6618 O   0  0  0  0  0  0  0  0  0  0  0  0
  -16.5562  -26.3508   23.6855 O   0  0  0  0  0  0  0  0  0  0  0  0
  -25.9210  -21.5617   25.4428 O   0  0  0  0  0  0  0  0  0  1  0  0
  -15.4558  -23.0189   27.9389 F   0  0  0  0  0  0  0  0  0  0  0  0
  -17.1491  -23.6533   23.5645 F   0  0  0  0  0  0  0  0  0  0  0  0
  1  2  1  0  0  0  0
  1  5  2  0  0  0  0
  2  6  2  0  0  0  0
  3  8  2  0  0  0  0
  3 16  1  0  0  0  0
  4  9  1  0  0  0  0
  4 16  2  0  0  0  0
  5 18  1  0  0  0  0
  6 20  1  0  0  0  0
  7 10  2  0  0  0  0
  7 19  1  0  0  0  0
  8 24  1  0  0  0  0
  9 24  2  0  0  0  0
 10 25  1  0  0  0  0
 11 12  2  0  0  0  0
 11 26  1  0  0  0  0
 12 27  1  0  0  0  0
 13 21  2  0  0  0  0
 13 22  1  0  0  0  0
 14 23  1  0  0  0  0
 14 25  2  0  0  0  0
 15 27  2  0  0  0  0
 15 28  1  0  0  0  0
 16 29  1  0  0  0  0
 17 29  1  0  0  0  0
 17 32  2  0  0  0  0
 17 33  1  0  0  0  0
 18 20  2  0  0  0  0
 18 38  1  0  0  0  0
 19 23  2  0  0  0  0
 19 39  1  0  0  0  0
 20 54  1  0  0  0  0
 21 30  1  0  0  0  0
 21 52  1  0  0  0  0
 22 31  2  0  0  0  0
 22 53  1  0  0  0  0
 23 40  1  0  0  0  0
 24 84  1  0  0  0  0
 25 85  1  0  0  0  0
 26 28  2  0  0  0  0
 26 84  1  0  0  0  0
 27 86  1  0  0  0  0
 28 87  1  0  0  0  0
 29 68  2  0  0  0  0
 30 58  1  0  0  0  0
 30 69  2  0  0  0  0
 31 59  1  0  0  0  0
 31 69  1  0  0  0  0
 32 70  1  0  0  0  0
 32 74  1  0  0  0  0
 33 75  1  0  0  0  0
 33 79  2  0  0  0  0
 34 55  1  0  0  0  0
 34 76  1  0  0  0  0
 34 80  2  0  0  0  0
 35 65  1  0  0  0  0
 35 71  1  0  0  0  0
 35 81  2  0  0  0  0
 36 66  1  0  0  0  0
 36 77  1  0  0  0  0
 36 82  2  0  0  0  0
 37 72  1  0  0  0  0
 37 73  1  0  0  0  0
 37 83  2  0  0  0  0
 38 41  1  0  0  0  0
 39 55  1  0  0  0  0
 40 71  1  0  0  0  0
 41 43  1  0  0  0  0
 42 44  1  0  0  0  0
 42 48  1  0  0  0  0
 43 54  1  0  0  0  0
 44 56  1  0  0  0  0
 45 49  1  0  0  0  0
 45 52  1  0  0  0  0
 46 50  1  0  0  0  0
 46 52  1  0  0  0  0
 47 53  1  0  0  0  0
 47 57  1  0  0  0  0
 48 72  1  0  0  0  0
 49 73  1  0  0  0  0
 50 73  1  0  0  0  0
 51 56  1  0  0  0  0
 51 72  1  0  0  0  0
 53 57  1  0  0  0  0
 54 76  1  0  0  0  0
 55 71  1  0  0  0  0
 56 70  1  0  0  0  0
 57 85  1  0  0  0  0
 60 66  1  0  0  0  0
 61 67  1  0  0  0  0
 62 67  1  0  0  0  0
 63 67  1  0  0  0  0
 64 78  1  0  0  0  0
 65 67  1  0  0  0  0
 65 77  1  0  0  0  0
 66 78  1  0  0  0  0
 68 70  1  0  0  0  0
M  CHG  1  78   1
M  ISO  4  37 100  57 101  73 100  85 101
M  END
> <Batch ID>
0158

> <Smiles>
CNC(C)C(=O)NC(C(=O)N1Cc2cc([101O:1][101CH:1]3CC3c3cc(C4CC[100N:0]([100C:0](=O)N5CCCC(n6nc(-c7ccc(Oc8ccc(F)cc8F)cc7)c(C(N)=O)c6N)C5)CC4)c(C)nc3C)ccc2CC1C(=O)NC1CCCc2ccccc21)C(C)(C)C

> <Shape>
0.196

> <Color>
0.064

> <Negative vol penalty>
0.000

$$$$

  -OEChem-04052322043D

 86 95  0     1  0  0  0  0  0999 V2000
  -29.5202  -26.9810   12.9077 C   0  0  0  0  0  0  0  0  0  0  0  0
  -29.3362  -26.0089   13.8858 C   0  0  0  0  0  0  0  0  0  0  0  0
  -23.1918   -9.8040   19.9353 C   0  0  0  0  0  0  0  0  0  0  0  0
  -23.5641   -9.9966   22.3147 C   0  0  0  0  0  0  0  0  0  0  0  0
  -30.0863  -28.2096   13.2454 C   0  0  0  0  0  0  0  0  0  0  0  0
  -29.7194  -26.2645   15.2020 C   0  0  0  0  0  0  0  0  0  0  0  0
  -26.9546  -24.2783   20.2929 C   0  0  0  0  0  0  0  0  0  0  0  0
  -22.4277   -8.6566   20.1477 C   0  0  0  0  0  0  0  0  0  0  0  0
  -22.8000   -8.8491   22.5271 C   0  0  0  0  0  0  0  0  0  0  0  0
  -27.2216  -23.2117   21.1501 C   0  0  0  0  0  0  0  0  0  0  0  0
  -23.2094   -5.5022   22.2798 C   0  0  0  0  0  0  0  0  0  0  0  0
  -23.7080   -4.5462   23.1647 C   0  0  0  0  0  0  0  0  0  0  0  0
  -28.4399  -24.6971   22.6091 C   0  0  0  0  0  0  0  0  0  0  0  0
  -31.3607  -17.1140   21.8389 C   0  0  0  0  0  0  0  0  0  0  0  0
  -21.7476   -4.8082   24.5523 C   0  0  0  0  0  0  0  0  0  0  0  0
  -31.2465  -17.2870   24.2082 C   0  0  0  0  0  0  0  0  0  0  0  0
  -23.7601  -10.4740   21.0188 C   0  0  0  0  0  0  0  0  0  0  0  0
  -24.0935  -12.9903   20.7639 C   0  0  0  0  0  0  0  0  0  0  0  0
  -30.4677  -28.4839   14.5682 C   0  0  0  0  0  0  0  0  0  0  0  0
  -27.4384  -25.5623   20.5822 C   0  0  0  0  0  0  0  0  0  0  0  0
  -30.2924  -27.4974   15.5574 C   0  0  0  0  0  0  0  0  0  0  0  0
  -28.1755  -25.7788   21.7552 C   0  0  0  0  0  0  0  0  0  0  0  0
  -30.9035  -18.4242   21.7516 C   0  0  0  0  0  0  0  0  0  0  0  0
  -22.2317   -8.1792   21.4436 C   0  0  0  0  0  0  0  0  0  0  0  0
  -27.9668  -23.4204   22.3069 C   0  0  0  0  0  0  0  0  0  0  0  0
  -21.9800   -6.1113   22.5311 C   0  0  0  0  0  0  0  0  0  0  0  0
  -31.5382  -16.5272   23.0869 C   0  0  0  0  0  0  0  0  0  0  0  0
  -22.9771   -4.1992   24.3009 C   0  0  0  0  0  0  0  0  0  0  0  0
  -21.2491   -5.7643   23.6673 C   0  0  0  0  0  0  0  0  0  0  0  0
  -24.5499  -11.6590   20.8000 C   0  0  0  0  0  0  0  0  0  0  0  0
  -30.6400  -19.0990   22.9327 C   0  0  0  0  0  0  0  0  0  0  0  0
  -25.2235  -13.7344   20.5277 C   0  0  0  0  0  0  0  0  0  0  0  0
  -22.7667  -13.5079   20.9292 C   0  0  0  0  0  0  0  0  0  0  0  0
  -29.4255  -27.5867   19.1481 C   0  0  0  0  0  0  0  0  0  0  0  0
  -28.4851  -29.5840   21.5248 C   0  0  0  0  0  0  0  0  0  0  0  0
  -27.2093  -29.9469   24.6692 C   0  0  0  0  0  0  0  0  0  0  0  0
  -31.0382  -12.7629   21.5750 C   0  0  0  0  0  0  0  0  0  0  0  0
  -31.1191  -29.8089   14.8760 C   0  0  0  0  0  0  0  0  0  0  0  0
  -27.1190  -26.7076   19.6610 C   0  0  0  0  0  0  0  0  0  0  0  0
  -28.7003  -27.1421   22.1218 C   0  0  0  0  0  0  0  0  0  0  0  0
  -31.1533  -30.1393   16.3659 C   0  0  0  0  0  0  0  0  0  0  0  0
  -29.5164  -13.4619   18.4330 C   0  0  0  0  0  0  0  0  0  0  0  0
  -29.3638  -19.6499   20.0779 C   0  0  0  0  0  0  0  0  0  0  0  0
  -29.8202  -18.3929   19.4056 C   0  0  0  0  0  0  0  0  0  0  0  0
  -31.6288  -28.9330   17.1694 C   0  0  0  0  0  0  0  0  0  0  0  0
  -28.0298  -13.1992   18.6800 C   0  0  0  0  0  0  0  0  0  0  0  0
  -30.3982  -12.4781   19.1989 C   0  0  0  0  0  0  0  0  0  0  0  0
  -28.6416  -12.1393   20.8939 C   0  0  0  0  0  0  0  0  0  0  0  0
  -30.7094  -19.0640   20.4206 C   0  0  0  0  0  0  0  0  0  0  0  0
  -30.6725  -27.7462   17.0009 C   0  0  1  0  0  0  0  0  0  0  0  0
  -28.0978  -27.8705   19.7918 C   0  0  1  0  0  0  0  0  0  0  0  0
  -27.7134  -13.1416   20.1866 C   0  0  2  0  0  0  0  0  0  0  0  0
  -26.5899  -31.7011   26.3535 C   0  0  0  0  0  0  0  0  0  0  0  0
  -31.4375  -30.0015   22.1721 C   0  0  0  0  0  0  0  0  0  0  0  0
  -30.7464  -30.9566   24.3808 C   0  0  0  0  0  0  0  0  0  0  0  0
  -30.0454  -32.0770   22.2652 C   0  0  0  0  0  0  0  0  0  0  0  0
  -24.3737  -29.0995   24.6812 C   0  0  0  0  0  0  0  0  0  0  0  0
  -31.5221  -13.0266   23.9947 C   0  0  0  0  0  0  0  0  0  0  0  0
  -31.5441  -14.5052   24.3388 C   0  0  0  0  0  0  0  0  0  0  0  0
  -29.4462  -22.4373   23.8883 C   0  0  0  0  0  0  0  0  0  1  0  0
  -29.9394  -21.0253   24.1387 C   0  0  0  0  0  0  0  0  0  0  0  0
  -28.9697  -29.8855   22.9224 C   0  0  1  0  0  0  0  0  0  0  0  0
  -26.0976  -30.8280   25.2097 C   0  0  2  0  0  0  0  0  0  0  0  0
  -30.2917  -30.7040   22.9275 C   0  0  0  0  0  0  0  0  0  0  0  0
  -30.8005  -18.5624   24.1631 N   0  0  0  0  0  0  0  0  0  0  0  0
  -25.8672  -11.5601   20.6023 N   0  0  0  0  0  0  0  0  0  0  0  0
  -26.2481  -12.8386   20.4397 N   0  0  0  0  0  0  0  0  0  0  0  0
  -28.3670  -28.2286   21.1859 N   0  0  0  0  0  0  0  0  0  0  0  0
  -30.0484  -12.4729   20.6214 N   0  0  0  0  0  0  0  0  0  0  0  0
  -25.4307  -15.0611   20.3886 N   0  0  0  0  0  0  0  0  0  0  0  0
  -21.7216  -12.6043   21.1651 N   0  0  0  0  0  0  0  0  0  0  0  0
  -29.4882  -27.9323   17.8117 N   0  0  0  0  0  0  0  0  0  0  0  0
  -27.8597  -30.5389   23.6073 N   0  0  0  0  0  0  0  0  0  0  0  0
  -30.6209  -12.7428   22.9002 N   0  0  0  0  0  0  0  0  0  0  0  0
  -24.9699  -29.9913   25.7090 N   0  3  0  0  0  0  0  0  0  0  0  0
  -22.5128  -14.7340   20.8531 O   0  0  0  0  0  0  0  0  0  0  0  0
  -30.3269  -27.0922   19.8150 O   0  0  0  0  0  0  0  0  0  0  0  0
  -28.2142  -30.5167   20.7643 O   0  0  0  0  0  0  0  0  0  0  0  0
  -27.4767  -28.8453   25.1442 O   0  0  0  0  0  0  0  0  0  0  0  0
  -32.2058  -13.0258   21.2678 O   0  0  0  0  0  0  0  0  0  0  0  0
  -21.4860   -7.0597   21.6512 O   0  0  0  0  0  0  0  0  0  0  0  0
  -28.2294  -22.3809   23.1450 O   0  0  0  0  0  0  0  0  0  1  0  0
  -31.9817  -15.2509   23.2009 O   0  0  0  0  0  0  0  0  0  0  0  0
  -30.1899  -20.3923   22.8897 O   0  0  0  0  0  0  0  0  0  0  0  0
  -23.4553   -3.2800   25.1498 F   0  0  0  0  0  0  0  0  0  0  0  0
  -20.0668   -6.3451   23.9135 F   0  0  0  0  0  0  0  0  0  0  0  0
  1  2  1  0  0  0  0
  1  5  2  0  0  0  0
  2  6  2  0  0  0  0
  3  8  2  0  0  0  0
  3 17  1  0  0  0  0
  4  9  1  0  0  0  0
  4 17  2  0  0  0  0
  5 19  1  0  0  0  0
  6 21  1  0  0  0  0
  7 10  2  0  0  0  0
  7 20  1  0  0  0  0
  8 24  1  0  0  0  0
  9 24  2  0  0  0  0
 10 25  1  0  0  0  0
 11 12  2  0  0  0  0
 11 26  1  0  0  0  0
 12 28  1  0  0  0  0
 13 22  1  0  0  0  0
 13 25  2  0  0  0  0
 14 23  1  0  0  0  0
 14 27  2  0  0  0  0
 15 28  2  0  0  0  0
 15 29  1  0  0  0  0
 16 27  1  0  0  0  0
 16 65  2  0  0  0  0
 17 30  1  0  0  0  0
 18 30  1  0  0  0  0
 18 32  2  0  0  0  0
 18 33  1  0  0  0  0
 19 21  2  0  0  0  0
 19 38  1  0  0  0  0
 20 22  2  0  0  0  0
 20 39  1  0  0  0  0
 21 50  1  0  0  0  0
 22 40  1  0  0  0  0
 23 31  2  0  0  0  0
 23 49  1  0  0  0  0
 24 81  1  0  0  0  0
 25 82  1  0  0  0  0
 26 29  2  0  0  0  0
 26 81  1  0  0  0  0
 27 83  1  0  0  0  0
 28 85  1  0  0  0  0
 29 86  1  0  0  0  0
 30 66  2  0  0  0  0
 31 65  1  0  0  0  0
 31 84  1  0  0  0  0
 32 67  1  0  0  0  0
 32 70  1  0  0  0  0
 33 71  1  0  0  0  0
 33 76  2  0  0  0  0
 34 51  1  0  0  0  0
 34 72  1  0  0  0  0
 34 77  2  0  0  0  0
 35 62  1  0  0  0  0
 35 68  1  0  0  0  0
 35 78  2  0  0  0  0
 36 63  1  0  0  0  0
 36 73  1  0  0  0  0
 36 79  2  0  0  0  0
 37 69  1  0  0  0  0
 37 74  1  0  0  0  0
 37 80  2  0  0  0  0
 38 41  1  0  0  0  0
 39 51  1  0  0  0  0
 40 68  1  0  0  0  0
 41 45  1  0  0  0  0
 42 46  1  0  0  0  0
 42 47  1  0  0  0  0
 43 44  1  0  0  0  0
 43 49  1  0  0  0  0
 44 49  1  0  0  0  0
 45 50  1  0  0  0  0
 46 52  1  0  0  0  0
 47 69  1  0  0  0  0
 48 52  1  0  0  0  0
 48 69  1  0  0  0  0
 50 72  1  0  0  0  0
 51 68  1  0  0  0  0
 52 67  1  0  0  0  0
 53 63  1  0  0  0  0
 54 64  1  0  0  0  0
 55 64  1  0  0  0  0
 56 64  1  0  0  0  0
 57 75  1  0  0  0  0
 58 59  1  0  0  0  0
 58 74  1  0  0  0  0
 59 83  1  0  0  0  0
 60 61  1  0  0  0  0
 60 82  1  0  0  0  0
 61 84  1  0  0  0  0
 62 64  1  0  0  0  0
 62 73  1  0  0  0  0
 63 75  1  0  0  0  0
 66 67  1  0  0  0  0
M  CHG  1  75   1
M  ISO  4  37 100  60 101  74 100  82 101
M  END
> <Batch ID>
0158

> <Smiles>
CNC(C)C(=O)NC(C(=O)N1Cc2cc([101O:1][101CH2:1]COc3ncc(OCC[100NH:0][100C:0](=O)N4CCCC(n5nc(-c6ccc(Oc7ccc(F)cc7F)cc6)c(C(N)=O)c5N)C4)cc3C3CC3)ccc2CC1C(=O)NC1CCCc2ccccc21)C(C)(C)C

> <Shape>
0.271

> <Color>
0.179

> <Negative vol penalty>
0.000

$$$$

  -OEChem-04052322043D

 89 99  0     1  0  0  0  0  0999 V2000
  -28.9352  -32.4132   26.5028 C   0  0  0  0  0  0  0  0  0  0  0  0
  -28.6587  -31.2180   25.8467 C   0  0  0  0  0  0  0  0  0  0  0  0
  -25.8873   -9.8190   23.1720 C   0  0  0  0  0  0  0  0  0  0  0  0
  -25.5146   -8.1870   21.4299 C   0  0  0  0  0  0  0  0  0  0  0  0
  -27.9171  -33.3416   26.7162 C   0  0  0  0  0  0  0  0  0  0  0  0
  -27.3637  -30.9500   25.4047 C   0  0  0  0  0  0  0  0  0  0  0  0
  -27.2654  -29.0731   20.7022 C   0  0  0  0  0  0  0  0  0  0  0  0
  -25.2340   -8.9924   24.0861 C   0  0  0  0  0  0  0  0  0  0  0  0
  -24.8613   -7.3604   22.3440 C   0  0  0  0  0  0  0  0  0  0  0  0
  -27.5893  -27.7259   20.5475 C   0  0  0  0  0  0  0  0  0  0  0  0
  -21.8134   -7.1697   23.7949 C   0  0  0  0  0  0  0  0  0  0  0  0
  -20.6145   -6.5804   23.3940 C   0  0  0  0  0  0  0  0  0  0  0  0
  -28.0924  -21.6638   18.7073 C   0  0  0  0  0  0  0  0  0  0  0  0
  -29.0720  -22.8898   21.0138 C   0  0  0  0  0  0  0  0  0  0  0  0
  -25.2425  -27.1830   20.4164 C   0  0  0  0  0  0  0  0  0  0  0  0
  -21.5771   -4.3907   23.7342 C   0  0  0  0  0  0  0  0  0  0  0  0
  -26.0276   -9.4163   21.8439 C   0  0  0  0  0  0  0  0  0  0  0  0
  -28.0761  -10.2816   20.5938 C   0  0  0  0  0  0  0  0  0  0  0  0
  -26.6110  -33.0890   26.2680 C   0  0  0  0  0  0  0  0  0  0  0  0
  -25.9251  -29.4847   20.7262 C   0  0  0  0  0  0  0  0  0  0  0  0
  -26.3269  -31.8752   25.6135 C   0  0  0  0  0  0  0  0  0  0  0  0
  -28.7364  -20.9020   19.6821 C   0  0  0  0  0  0  0  0  0  0  0  0
  -29.2262  -21.5150   20.8354 C   0  0  0  0  0  0  0  0  0  0  0  0
  -24.9043  -28.5363   20.5691 C   0  0  0  0  0  0  0  0  0  0  0  0
  -27.9382  -23.0387   18.8856 C   0  0  0  0  0  0  0  0  0  0  0  0
  -28.4280  -23.6516   20.0389 C   0  0  0  0  0  0  0  0  0  0  0  0
  -24.7210   -7.7632   23.6721 C   0  0  0  0  0  0  0  0  0  0  0  0
  -26.5777  -26.7802   20.4075 C   0  0  0  0  0  0  0  0  0  0  0  0
  -22.8943   -6.3696   24.1654 C   0  0  0  0  0  0  0  0  0  0  0  0
  -20.4963   -5.1909   23.3636 C   0  0  0  0  0  0  0  0  0  0  0  0
  -22.7761   -4.9801   24.1350 C   0  0  0  0  0  0  0  0  0  0  0  0
  -26.7018  -10.2699   20.8990 C   0  0  0  0  0  0  0  0  0  0  0  0
  -28.2085  -11.2644   19.6436 C   0  0  0  0  0  0  0  0  0  0  0  0
  -29.1380   -9.4759   21.1220 C   0  0  0  0  0  0  0  0  0  0  0  0
  -24.0545  -30.9109   22.8641 C   0  0  0  0  0  0  0  0  0  0  0  0
  -21.9317  -30.9377   20.4115 C   0  0  0  0  0  0  0  0  0  0  0  0
  -20.8913  -29.5653   17.4651 C   0  0  0  0  0  0  0  0  0  0  0  0
  -27.1070  -16.2249   17.5937 C   0  0  0  0  0  0  0  0  0  0  0  0
  -25.5335  -34.1020   26.5637 C   0  0  0  0  0  0  0  0  0  0  0  0
  -25.5930  -30.9449   20.8672 C   0  0  0  0  0  0  0  0  0  0  0  0
  -23.4503  -28.9290   20.5677 C   0  0  0  0  0  0  0  0  0  0  0  0
  -24.2683  -33.9057   25.7324 C   0  0  0  0  0  0  0  0  0  0  0  0
  -24.7253  -13.7913   16.9990 C   0  0  0  0  0  0  0  0  0  0  0  0
  -23.8538  -32.4377   25.7295 C   0  0  0  0  0  0  0  0  0  0  0  0
  -25.1312  -12.6501   17.9314 C   0  0  0  0  0  0  0  0  0  0  0  0
  -27.7314  -18.6117   20.0898 C   0  0  0  0  0  0  0  0  0  0  0  0
  -29.0543  -19.0542   17.9770 C   0  0  0  0  0  0  0  0  0  0  0  0
  -31.4325  -20.6386   21.6998 C   0  0  0  0  0  0  0  0  0  0  0  0
  -24.8826  -15.1415   17.6887 C   0  0  0  0  0  0  0  0  0  0  0  0
  -27.8777  -17.1079   19.8403 C   0  0  0  0  0  0  0  0  0  0  0  0
  -29.1914  -17.5457   17.7920 C   0  0  0  0  0  0  0  0  0  0  0  0
  -26.6801  -14.2635   19.1433 C   0  0  0  0  0  0  0  0  0  0  0  0
  -31.9588  -21.8128   22.4989 C   0  0  0  0  0  0  0  0  0  0  0  0
  -29.8384  -21.2810   23.3193 C   0  0  0  0  0  0  0  0  0  0  0  0
  -28.8916  -19.4084   19.4663 C   0  0  0  0  0  0  0  0  0  0  0  0
  -29.9321  -20.7041   21.9136 C   0  0  1  0  0  0  0  0  0  0  0  0
  -24.9399  -31.5591   25.0972 C   0  0  1  0  0  0  0  0  0  0  0  0
  -24.1818  -31.1887   21.3929 C   0  0  1  0  0  0  0  0  0  0  0  0
  -26.5470  -12.8715   18.4926 C   0  0  1  0  0  0  0  0  0  0  0  0
  -27.2460  -23.8340   17.8278 C   0  0  0  0  0  0  0  0  0  0  0  0
  -19.1042  -29.7765   15.7161 C   0  0  0  0  0  0  0  0  0  0  0  0
  -19.9424  -29.5780   22.2834 C   0  0  0  0  0  0  0  0  0  0  0  0
  -18.5766  -28.9680   20.2757 C   0  0  0  0  0  0  0  0  0  0  0  0
  -18.9600  -31.3677   20.8389 C   0  0  0  0  0  0  0  0  0  0  0  0
  -22.8710  -30.1677   15.3493 C   0  0  0  0  0  0  0  0  0  0  0  0
  -28.2753  -25.1220   20.2513 C   0  0  0  0  0  0  0  0  0  1  0  0
  -20.8670  -29.9929   19.9087 C   0  0  1  0  0  0  0  0  0  0  0  0
  -20.5022  -30.1979   16.1411 C   0  0  2  0  0  0  0  0  0  0  0  0
  -19.6137  -29.9687   20.8286 C   0  0  0  0  0  0  0  0  0  0  0  0
  -26.0106  -11.1738   20.1995 N   0  0  0  0  0  0  0  0  0  0  0  0
  -26.9544  -11.7626   19.4453 N   0  0  0  0  0  0  0  0  0  0  0  0
  -23.1764  -30.3681   20.7148 N   0  0  0  0  0  0  0  0  0  0  0  0
  -26.2384  -15.3120   18.2107 N   0  0  0  0  0  0  0  0  0  0  0  0
  -28.0715  -16.8356   18.4093 N   0  0  0  0  0  0  0  0  0  0  0  0
  -29.2741  -11.7426   18.9667 N   0  0  0  0  0  0  0  0  0  0  0  0
  -28.8271   -8.5129   22.0917 N   0  0  0  0  0  0  0  0  0  0  0  0
  -24.9000  -31.6659   23.6545 N   0  0  0  0  0  0  0  0  0  0  0  0
  -20.5898  -30.3860   18.5314 N   0  0  0  0  0  0  0  0  0  0  0  0
  -21.4599  -29.7942   15.0730 N   0  3  0  0  0  0  0  0  0  0  0  0
  -30.3298   -9.6173   20.7572 O   0  0  0  0  0  0  0  0  0  0  0  0
  -23.2478  -30.0746   23.2534 O   0  0  0  0  0  0  0  0  0  0  0  0
  -21.6708  -32.1381   20.5240 O   0  0  0  0  0  0  0  0  0  0  0  0
  -21.4073  -28.4528   17.5457 O   0  0  0  0  0  0  0  0  0  0  0  0
  -27.0268  -16.4791   16.3854 O   0  0  0  0  0  0  0  0  0  0  0  0
  -31.0102  -22.0807   23.5386 O   0  0  0  0  0  0  0  0  0  0  0  0
  -24.0837   -6.9562   24.5639 O   0  0  0  0  0  0  0  0  0  0  0  0
  -26.8933  -25.4552   20.2559 O   0  0  0  0  0  0  0  0  0  1  0  0
  -19.3444   -4.6250   22.9801 F   0  0  0  0  0  0  0  0  0  0  0  0
  -23.8106   -4.2062   24.4910 F   0  0  0  0  0  0  0  0  0  0  0  0
  1  2  1  0  0  0  0
  1  5  2  0  0  0  0
  2  6  2  0  0  0  0
  3  8  2  0  0  0  0
  3 17  1  0  0  0  0
  4  9  1  0  0  0  0
  4 17  2  0  0  0  0
  5 19  1  0  0  0  0
  6 21  1  0  0  0  0
  7 10  2  0  0  0  0
  7 20  1  0  0  0  0
  8 27  1  0  0  0  0
  9 27  2  0  0  0  0
 10 28  1  0  0  0  0
 11 12  2  0  0  0  0
 11 29  1  0  0  0  0
 12 30  1  0  0  0  0
 13 22  2  0  0  0  0
 13 25  1  0  0  0  0
 14 23  2  0  0  0  0
 14 26  1  0  0  0  0
 15 24  1  0  0  0  0
 15 28  2  0  0  0  0
 16 30  2  0  0  0  0
 16 31  1  0  0  0  0
 17 32  1  0  0  0  0
 18 32  1  0  0  0  0
 18 33  2  0  0  0  0
 18 34  1  0  0  0  0
 19 21  2  0  0  0  0
 19 39  1  0  0  0  0
 20 24  2  0  0  0  0
 20 40  1  0  0  0  0
 21 57  1  0  0  0  0
 22 23  1  0  0  0  0
 22 55  1  0  0  0  0
 23 56  1  0  0  0  0
 24 41  1  0  0  0  0
 25 26  2  0  0  0  0
 25 60  1  0  0  0  0
 26 66  1  0  0  0  0
 27 86  1  0  0  0  0
 28 87  1  0  0  0  0
 29 31  2  0  0  0  0
 29 86  1  0  0  0  0
 30 88  1  0  0  0  0
 31 89  1  0  0  0  0
 32 70  2  0  0  0  0
 33 71  1  0  0  0  0
 33 75  1  0  0  0  0
 34 76  1  0  0  0  0
 34 80  2  0  0  0  0
 35 58  1  0  0  0  0
 35 77  1  0  0  0  0
 35 81  2  0  0  0  0
 36 67  1  0  0  0  0
 36 72  1  0  0  0  0
 36 82  2  0  0  0  0
 37 68  1  0  0  0  0
 37 78  1  0  0  0  0
 37 83  2  0  0  0  0
 38 73  1  0  0  0  0
 38 74  1  0  0  0  0
 38 84  2  0  0  0  0
 39 42  1  0  0  0  0
 40 58  1  0  0  0  0
 41 72  1  0  0  0  0
 42 44  1  0  0  0  0
 43 45  1  0  0  0  0
 43 49  1  0  0  0  0
 44 57  1  0  0  0  0
 45 59  1  0  0  0  0
 46 50  1  0  0  0  0
 46 55  1  0  0  0  0
 47 51  1  0  0  0  0
 47 55  1  0  0  0  0
 48 53  1  0  0  0  0
 48 56  1  0  0  0  0
 49 73  1  0  0  0  0
 50 74  1  0  0  0  0
 51 74  1  0  0  0  0
 52 59  1  0  0  0  0
 52 73  1  0  0  0  0
 53 85  1  0  0  0  0
 54 56  1  0  0  0  0
 54 85  1  0  0  0  0
 57 77  1  0  0  0  0
 58 72  1  0  0  0  0
 59 71  1  0  0  0  0
 61 68  1  0  0  0  0
 62 69  1  0  0  0  0
 63 69  1  0  0  0  0
 64 69  1  0  0  0  0
 65 79  1  0  0  0  0
 66 87  1  0  0  0  0
 67 69  1  0  0  0  0
 67 78  1  0  0  0  0
 68 79  1  0  0  0  0
 70 71  1  0  0  0  0
M  CHG  1  79   1
M  ISO  4  38 100  66 101  74 100  87 101
M  END
> <Batch ID>
0158

> <Smiles>
CNC(C)C(=O)NC(C(=O)N1Cc2cc([101O:1][101CH2:1]c3cc(C4CCOC4)c(C4CC[100N:0]([100C:0](=O)N5CCCC(n6nc(-c7ccc(Oc8ccc(F)cc8F)cc7)c(C(N)=O)c6N)C5)CC4)cc3C)ccc2CC1C(=O)NC1CCCc2ccccc21)C(C)(C)C

> <Shape>
0.260

> <Color>
0.062

> <Negative vol penalty>
0.000

$$$$

  -OEChem-04052322043D

 91100  0     1  0  0  0  0  0999 V2000
  -26.0982  -19.3394   16.1837 C   0  0  0  0  0  0  0  0  0  0  0  0
  -25.3858  -20.4416   16.6454 C   0  0  0  0  0  0  0  0  0  0  0  0
  -24.8166  -17.2793   20.7927 C   0  0  0  0  0  0  0  0  0  0  0  0
  -24.9755  -15.3222   22.2004 C   0  0  0  0  0  0  0  0  0  0  0  0
  -27.3023  -18.9850   16.7906 C   0  0  0  0  0  0  0  0  0  0  0  0
  -25.8767  -21.1895   17.7150 C   0  0  0  0  0  0  0  0  0  0  0  0
  -25.3464  -27.2360   18.5301 C   0  0  0  0  0  0  0  0  0  0  0  0
  -25.4700  -16.5951   19.7677 C   0  0  0  0  0  0  0  0  0  0  0  0
  -25.6289  -14.6380   21.1753 C   0  0  0  0  0  0  0  0  0  0  0  0
  -24.4677  -28.0064   19.2903 C   0  0  0  0  0  0  0  0  0  0  0  0
  -28.7413  -14.4982   19.8623 C   0  0  0  0  0  0  0  0  0  0  0  0
  -29.8728  -13.7548   20.1978 C   0  0  0  0  0  0  0  0  0  0  0  0
  -26.0929  -28.0924   21.0709 C   0  0  0  0  0  0  0  0  0  0  0  0
  -18.1473  -26.8025   23.5465 C   0  0  0  0  0  0  0  0  0  0  0  0
  -20.4393  -26.9179   21.9603 C   0  0  0  0  0  0  0  0  0  0  0  0
  -28.7933  -11.7487   19.3932 C   0  0  0  0  0  0  0  0  0  0  0  0
  -24.5694  -16.6428   22.0091 C   0  0  0  0  0  0  0  0  0  0  0  0
  -22.5084  -17.4059   23.3042 C   0  0  0  0  0  0  0  0  0  0  0  0
  -27.8131  -19.7346   17.8620 C   0  0  0  0  0  0  0  0  0  0  0  0
  -26.6029  -26.8781   19.0398 C   0  0  0  0  0  0  0  0  0  0  0  0
  -27.0882  -20.8440   18.3377 C   0  0  0  0  0  0  0  0  0  0  0  0
  -26.9868  -27.3195   20.3141 C   0  0  0  0  0  0  0  0  0  0  0  0
  -18.5897  -28.0280   23.0483 C   0  0  0  0  0  0  0  0  0  0  0  0
  -18.8510  -25.6348   23.2516 C   0  0  0  0  0  0  0  0  0  0  0  0
  -19.7356  -28.0857   22.2552 C   0  0  0  0  0  0  0  0  0  0  0  0
  -25.8761  -15.2745   19.9590 C   0  0  0  0  0  0  0  0  0  0  0  0
  -24.8397  -28.4324   20.5620 C   0  0  0  0  0  0  0  0  0  0  0  0
  -27.6357  -13.8669   19.2922 C   0  0  0  0  0  0  0  0  0  0  0  0
  -19.9969  -25.6925   22.4585 C   0  0  0  0  0  0  0  0  0  0  0  0
  -29.8988  -12.3800   19.9633 C   0  0  0  0  0  0  0  0  0  0  0  0
  -27.6618  -12.4921   19.0577 C   0  0  0  0  0  0  0  0  0  0  0  0
  -23.8951  -17.3492   23.0685 C   0  0  0  0  0  0  0  0  0  0  0  0
  -22.3817  -18.1970   24.4198 C   0  0  0  0  0  0  0  0  0  0  0  0
  -21.4310  -16.7978   22.5795 C   0  0  0  0  0  0  0  0  0  0  0  0
  -28.0436  -24.1303   19.7307 C   0  0  0  0  0  0  0  0  0  0  0  0
  -30.5964  -26.0554   20.2778 C   0  0  0  0  0  0  0  0  0  0  0  0
  -31.7650  -29.1630   21.0676 C   0  0  0  0  0  0  0  0  0  0  0  0
  -25.3808  -22.0648   23.7790 C   0  0  0  0  0  0  0  0  0  0  0  0
  -29.0952  -19.2849   18.5167 C   0  0  0  0  0  0  0  0  0  0  0  0
  -27.5498  -26.0690   18.1966 C   0  0  0  0  0  0  0  0  0  0  0  0
  -28.3324  -26.9794   20.8991 C   0  0  0  0  0  0  0  0  0  0  0  0
  -29.7338  -20.3518   19.4021 C   0  0  0  0  0  0  0  0  0  0  0  0
  -26.6334  -19.5501   25.8777 C   0  0  0  0  0  0  0  0  0  0  0  0
  -28.6855  -20.9934   20.3055 C   0  0  0  0  0  0  0  0  0  0  0  0
  -25.4012  -18.9724   26.5694 C   0  0  0  0  0  0  0  0  0  0  0  0
  -22.1419  -23.9269   23.9939 C   0  0  0  0  0  0  0  0  0  0  0  0
  -22.8567  -23.6681   21.5939 C   0  0  0  0  0  0  0  0  0  0  0  0
  -26.5199  -21.0610   25.7326 C   0  0  0  0  0  0  0  0  0  0  0  0
  -23.5897  -23.7173   24.4188 C   0  0  0  0  0  0  0  0  0  0  0  0
  -24.2921  -23.4580   22.0610 C   0  0  0  0  0  0  0  0  0  0  0  0
  -24.0476  -20.9428   25.6359 C   0  0  0  0  0  0  0  0  0  0  0  0
  -27.6004  -21.6948   19.4795 C   0  0  1  0  0  0  0  0  0  0  0  0
  -28.6010  -25.3308   19.0196 C   0  0  1  0  0  0  0  0  0  0  0  0
  -24.0714  -19.4290   25.9431 C   0  0  1  0  0  0  0  0  0  0  0  0
  -22.0579  -24.5122   22.5846 C   0  0  0  0  0  0  0  0  0  0  0  0
  -17.8213  -29.2654   23.3783 C   0  0  0  0  0  0  0  0  0  0  0  0
  -18.3626  -24.3315   23.7925 C   0  0  0  0  0  0  0  0  0  0  0  0
  -33.8978  -30.4195   21.4800 C   0  0  0  0  0  0  0  0  0  0  0  0
  -21.2703  -31.7779   20.8466 C   0  0  0  0  0  0  0  0  0  0  0  0
  -30.8231  -24.7619   23.0320 C   0  0  0  0  0  0  0  0  0  0  0  0
  -32.3014  -26.6600   23.7249 C   0  0  0  0  0  0  0  0  0  0  0  0
  -33.0075  -25.1425   21.8752 C   0  0  0  0  0  0  0  0  0  0  0  0
  -31.2509  -31.0072   18.8107 C   0  0  0  0  0  0  0  0  0  0  0  0
  -21.0941  -30.5132   23.7550 C   0  0  0  0  0  0  0  0  0  0  0  0
  -20.2287  -29.3858   21.7103 C   0  0  0  0  0  0  0  0  0  0  0  0
  -23.0824  -30.0344   20.5989 C   0  0  0  0  0  0  0  0  0  1  0  0
  -31.1385  -26.7975   21.4755 C   0  0  1  0  0  0  0  0  0  0  0  0
  -32.8566  -30.0164   20.4474 C   0  0  2  0  0  0  0  0  0  0  0  0
  -22.2362  -30.8522   21.5681 C   0  0  2  0  0  0  0  0  0  0  0  0
  -31.7914  -25.8454   22.5169 C   0  0  0  0  0  0  0  0  0  0  0  0
  -24.5991  -18.0487   23.9624 N   0  0  0  0  0  0  0  0  0  0  0  0
  -23.6509  -18.5525   24.7707 N   0  0  0  0  0  0  0  0  0  0  0  0
  -29.2206  -26.1809   20.0383 N   0  0  0  0  0  0  0  0  0  0  0  0
  -25.2934  -21.4370   25.0320 N   0  0  0  0  0  0  0  0  0  0  0  0
  -24.3362  -22.9327   23.4258 N   0  0  0  0  0  0  0  0  0  0  0  0
  -21.3097  -18.6163   25.1250 N   0  0  0  0  0  0  0  0  0  0  0  0
  -21.7378  -16.0164   21.4572 N   0  0  0  0  0  0  0  0  0  0  0  0
  -28.0837  -22.9667   18.9864 N   0  0  0  0  0  0  0  0  0  0  0  0
  -32.0402  -27.8170   20.9501 N   0  0  0  0  0  0  0  0  0  0  0  0
  -32.2740  -31.2554   19.8589 N   0  3  0  0  0  0  0  0  0  0  0  0
  -21.4311  -29.9031   22.4185 N   0  3  1  0  0  0  0  0  0  0  0  0
  -20.2307  -16.9564   22.9075 O   0  0  0  0  0  0  0  0  0  0  0  0
  -27.6106  -24.2504   20.8707 O   0  0  0  0  0  0  0  0  0  0  0  0
  -31.3665  -25.3947   19.5764 O   0  0  0  0  0  0  0  0  0  0  0  0
  -30.7697  -29.6426   21.6061 O   0  0  0  0  0  0  0  0  0  0  0  0
  -26.3223  -21.8450   23.0064 O   0  0  0  0  0  0  0  0  0  0  0  0
  -26.5134  -14.6065   18.9589 O   0  0  0  0  0  0  0  0  0  0  0  0
  -20.7006  -24.5553   22.1605 O   0  0  0  0  0  0  0  0  0  0  0  0
  -23.9778  -29.1891   21.3114 O   0  0  0  0  0  0  0  0  0  1  0  0
  -30.9860  -11.6665   20.2841 F   0  0  0  0  0  0  0  0  0  0  0  0
  -26.6032  -11.8802   18.5092 F   0  0  0  0  0  0  0  0  0  0  0  0
  1  2  1  0  0  0  0
  1  5  2  0  0  0  0
  2  6  2  0  0  0  0
  3  8  2  0  0  0  0
  3 17  1  0  0  0  0
  4  9  1  0  0  0  0
  4 17  2  0  0  0  0
  5 19  1  0  0  0  0
  6 21  1  0  0  0  0
  7 10  2  0  0  0  0
  7 20  1  0  0  0  0
  8 26  1  0  0  0  0
  9 26  2  0  0  0  0
 10 27  1  0  0  0  0
 11 12  2  0  0  0  0
 11 28  1  0  0  0  0
 12 30  1  0  0  0  0
 13 22  1  0  0  0  0
 13 27  2  0  0  0  0
 14 23  1  0  0  0  0
 14 24  2  0  0  0  0
 15 25  1  0  0  0  0
 15 29  2  0  0  0  0
 16 30  2  0  0  0  0
 16 31  1  0  0  0  0
 17 32  1  0  0  0  0
 18 32  1  0  0  0  0
 18 33  2  0  0  0  0
 18 34  1  0  0  0  0
 19 21  2  0  0  0  0
 19 39  1  0  0  0  0
 20 22  2  0  0  0  0
 20 40  1  0  0  0  0
 21 52  1  0  0  0  0
 22 41  1  0  0  0  0
 23 25  2  0  0  0  0
 23 56  1  0  0  0  0
 24 29  1  0  0  0  0
 24 57  1  0  0  0  0
 25 65  1  0  0  0  0
 26 87  1  0  0  0  0
 27 89  1  0  0  0  0
 28 31  2  0  0  0  0
 28 87  1  0  0  0  0
 29 88  1  0  0  0  0
 30 90  1  0  0  0  0
 31 91  1  0  0  0  0
 32 71  2  0  0  0  0
 33 72  1  0  0  0  0
 33 76  1  0  0  0  0
 34 77  1  0  0  0  0
 34 82  2  0  0  0  0
 35 53  1  0  0  0  0
 35 78  1  0  0  0  0
 35 83  2  0  0  0  0
 36 67  1  0  0  0  0
 36 73  1  0  0  0  0
 36 84  2  0  0  0  0
 37 68  1  0  0  0  0
 37 79  1  0  0  0  0
 37 85  2  0  0  0  0
 38 74  1  0  0  0  0
 38 75  1  0  0  0  0
 38 86  2  0  0  0  0
 39 42  1  0  0  0  0
 40 53  1  0  0  0  0
 41 73  1  0  0  0  0
 42 44  1  0  0  0  0
 43 45  1  0  0  0  0
 43 48  1  0  0  0  0
 44 52  1  0  0  0  0
 45 54  1  0  0  0  0
 46 49  1  0  0  0  0
 46 55  1  0  0  0  0
 47 50  1  0  0  0  0
 47 55  1  0  0  0  0
 48 74  1  0  0  0  0
 49 75  1  0  0  0  0
 50 75  1  0  0  0  0
 51 54  1  0  0  0  0
 51 74  1  0  0  0  0
 52 78  1  0  0  0  0
 53 73  1  0  0  0  0
 54 72  1  0  0  0  0
 55 88  1  0  0  0  0
 58 68  1  0  0  0  0
 59 69  1  0  0  0  0
 60 70  1  0  0  0  0
 61 70  1  0  0  0  0
 62 70  1  0  0  0  0
 63 80  1  0  0  0  0
 64 81  1  0  0  0  0
 65 81  1  0  0  0  0
 66 69  1  0  0  0  0
 66 89  1  0  0  0  0
 67 70  1  0  0  0  0
 67 79  1  0  0  0  0
 68 80  1  0  0  0  0
 69 81  1  0  0  0  0
 71 72  1  0  0  0  0
M  CHG  2  80   1  81   1
M  ISO  4  38 100  66 101  75 100  89 101
M  END
> <Batch ID>
0158

> <Smiles>
CNC(C)C(=O)NC(C(=O)N1Cc2cc([101O:1][101CH2:1]C(C)N(C)Cc3cc(OC4CC[100N:0]([100C:0](=O)N5CCCC(n6nc(-c7ccc(Oc8ccc(F)cc8F)cc7)c(C(N)=O)c6N)C5)CC4)c(C)cc3C)ccc2CC1C(=O)NC1CCCc2ccccc21)C(C)(C)C

> <Shape>
0.220

> <Color>
0.063

> <Negative vol penalty>
0.000

$$$$

  -OEChem-04052322043D

 89 98  0     1  0  0  0  0  0999 V2000
  -27.1088  -37.6823   23.7168 C   0  0  0  0  0  0  0  0  0  0  0  0
  -27.8165  -36.6379   23.1306 C   0  0  0  0  0  0  0  0  0  0  0  0
  -27.4531   -7.3826   23.5530 C   0  0  0  0  0  0  0  0  0  0  0  0
  -26.4043   -6.7516   21.4700 C   0  0  0  0  0  0  0  0  0  0  0  0
  -25.9438  -37.4167   24.4353 C   0  0  0  0  0  0  0  0  0  0  0  0
  -27.3603  -35.3269   23.2636 C   0  0  0  0  0  0  0  0  0  0  0  0
  -27.1358  -29.1070   19.7169 C   0  0  0  0  0  0  0  0  0  0  0  0
  -26.5412   -6.5917   24.2518 C   0  0  0  0  0  0  0  0  0  0  0  0
  -25.4924   -5.9606   22.1688 C   0  0  0  0  0  0  0  0  0  0  0  0
  -27.4526  -27.7597   19.8843 C   0  0  0  0  0  0  0  0  0  0  0  0
  -22.6685   -6.4155   23.9714 C   0  0  0  0  0  0  0  0  0  0  0  0
  -21.3241   -6.5034   23.6101 C   0  0  0  0  0  0  0  0  0  0  0  0
  -25.3846  -27.4284   21.0813 C   0  0  0  0  0  0  0  0  0  0  0  0
  -29.3606  -23.2283   21.1624 C   0  0  0  0  0  0  0  0  0  0  0  0
  -27.4947  -21.4110   20.1631 C   0  0  0  0  0  0  0  0  0  0  0  0
  -21.3157   -4.1488   23.0689 C   0  0  0  0  0  0  0  0  0  0  0  0
  -27.3847   -7.4626   22.1621 C   0  0  0  0  0  0  0  0  0  0  0  0
  -29.5773   -7.8860   20.9289 C   0  0  0  0  0  0  0  0  0  0  0  0
  -25.4678  -36.1028   24.5690 C   0  0  0  0  0  0  0  0  0  0  0  0
  -25.9442  -29.6285   20.2408 C   0  0  0  0  0  0  0  0  0  0  0  0
  -26.1886  -35.0433   23.9857 C   0  0  0  0  0  0  0  0  0  0  0  0
  -25.0538  -28.7822   20.9170 C   0  0  0  0  0  0  0  0  0  0  0  0
  -28.2682  -23.6848   20.4249 C   0  0  0  0  0  0  0  0  0  0  0  0
  -29.5201  -21.8631   21.4001 C   0  0  0  0  0  0  0  0  0  0  0  0
  -27.3352  -22.7762   19.9253 C   0  0  0  0  0  0  0  0  0  0  0  0
  -25.5608   -5.8806   23.5597 C   0  0  0  0  0  0  0  0  0  0  0  0
  -26.5783  -26.9208   20.5691 C   0  0  0  0  0  0  0  0  0  0  0  0
  -23.3365   -5.1943   23.8814 C   0  0  0  0  0  0  0  0  0  0  0  0
  -28.5871  -20.9545   20.9005 C   0  0  0  0  0  0  0  0  0  0  0  0
  -20.6477   -5.3700   23.1588 C   0  0  0  0  0  0  0  0  0  0  0  0
  -22.6601   -4.0609   23.4302 C   0  0  0  0  0  0  0  0  0  0  0  0
  -28.3261   -8.2800   21.4397 C   0  0  0  0  0  0  0  0  0  0  0  0
  -30.0770   -9.0183   20.3333 C   0  0  0  0  0  0  0  0  0  0  0  0
  -30.2295   -6.6105   20.9874 C   0  0  0  0  0  0  0  0  0  0  0  0
  -25.2248  -31.8487   22.3988 C   0  0  0  0  0  0  0  0  0  0  0  0
  -22.1896  -31.2679   21.4125 C   0  0  0  0  0  0  0  0  0  0  0  0
  -19.9745  -29.1077   19.9725 C   0  0  0  0  0  0  0  0  0  0  0  0
  -29.3347  -14.6798   21.2185 C   0  0  0  0  0  0  0  0  0  0  0  0
  -24.2296  -35.8599   25.3950 C   0  0  0  0  0  0  0  0  0  0  0  0
  -25.6045  -31.0783   20.0285 C   0  0  0  0  0  0  0  0  0  0  0  0
  -23.7522  -29.2883   21.4809 C   0  0  0  0  0  0  0  0  0  0  0  0
  -23.6095  -34.4828   25.1725 C   0  0  0  0  0  0  0  0  0  0  0  0
  -28.6863  -13.0503   18.1778 C   0  0  0  0  0  0  0  0  0  0  0  0
  -24.6848  -33.4014   25.2058 C   0  0  0  0  0  0  0  0  0  0  0  0
  -28.6415  -11.5881   18.6207 C   0  0  0  0  0  0  0  0  0  0  0  0
  -30.2029  -18.0649   19.9796 C   0  0  0  0  0  0  0  0  0  0  0  0
  -27.6874  -17.7847   19.9186 C   0  0  0  0  0  0  0  0  0  0  0  0
  -27.9992  -13.9751   19.1839 C   0  0  0  0  0  0  0  0  0  0  0  0
  -30.2769  -16.9510   21.0227 C   0  0  0  0  0  0  0  0  0  0  0  0
  -27.8186  -16.6806   20.9652 C   0  0  0  0  0  0  0  0  0  0  0  0
  -28.4561  -12.3730   21.0118 C   0  0  0  0  0  0  0  0  0  0  0  0
  -25.7122  -33.6105   24.0867 C   0  0  1  0  0  0  0  0  0  0  0  0
  -24.6059  -31.6138   21.0499 C   0  0  1  0  0  0  0  0  0  0  0  0
  -29.1903  -11.4264   20.0495 C   0  0  1  0  0  0  0  0  0  0  0  0
  -28.8499  -18.7774   19.9725 C   0  0  0  0  0  0  0  0  0  0  0  0
  -26.1576  -23.2410   19.1331 C   0  0  0  0  0  0  0  0  0  0  0  0
  -29.5361  -21.5366   24.4720 C   0  0  0  0  0  0  0  0  0  0  0  0
  -32.0227  -21.7152   21.4762 C   0  0  0  0  0  0  0  0  0  0  0  0
  -17.5560  -28.8999   19.3361 C   0  0  0  0  0  0  0  0  0  0  0  0
  -21.4629  -30.7942   24.3379 C   0  0  0  0  0  0  0  0  0  0  0  0
  -19.3539  -29.6899   23.5628 C   0  0  0  0  0  0  0  0  0  0  0  0
  -19.7664  -32.0936   23.0388 C   0  0  0  0  0  0  0  0  0  0  0  0
  -20.6363  -28.7906   17.1054 C   0  0  0  0  0  0  0  0  0  0  0  0
  -28.1187  -25.1507   20.1814 C   0  0  0  0  0  0  0  0  0  1  0  0
  -30.7450  -21.9489   23.6409 C   0  0  0  0  0  0  0  0  0  0  0  0
  -30.6948  -21.3921   22.1923 C   0  0  1  0  0  0  0  0  0  0  0  0
  -21.0944  -30.3155   21.8277 C   0  0  1  0  0  0  0  0  0  0  0  0
  -18.9470  -29.3034   18.8723 C   0  0  2  0  0  0  0  0  0  0  0  0
  -20.4448  -30.7139   23.1829 C   0  0  0  0  0  0  0  0  0  0  0  0
  -28.0480   -9.5624   21.1906 N   0  0  0  0  0  0  0  0  0  0  0  0
  -29.1317   -9.9841   20.5168 N   0  0  0  0  0  0  0  0  0  0  0  0
  -23.4680  -30.7147   21.2529 N   0  0  0  0  0  0  0  0  0  0  0  0
  -28.5277  -13.7564   20.5370 N   0  0  0  0  0  0  0  0  0  0  0  0
  -29.1390  -16.0383   20.9170 N   0  0  0  0  0  0  0  0  0  0  0  0
  -31.2284   -9.2720   19.6759 N   0  0  0  0  0  0  0  0  0  0  0  0
  -29.5756   -5.5549   21.6373 N   0  0  0  0  0  0  0  0  0  0  0  0
  -25.1762  -33.1643   22.8187 N   0  0  0  0  0  0  0  0  0  0  0  0
  -20.1581  -30.2580   20.7103 N   0  0  0  0  0  0  0  0  0  0  0  0
  -19.3017  -28.4822   17.6804 N   0  3  0  0  0  0  0  0  0  0  0  0
  -31.3659   -6.4171   20.4928 O   0  0  0  0  0  0  0  0  0  0  0  0
  -25.7092  -30.9059   23.0137 O   0  0  0  0  0  0  0  0  0  0  0  0
  -21.9193  -32.4575   21.2295 O   0  0  0  0  0  0  0  0  0  0  0  0
  -20.5533  -28.0401   20.1612 O   0  0  0  0  0  0  0  0  0  0  0  0
  -30.1815  -14.3155   22.0439 O   0  0  0  0  0  0  0  0  0  0  0  0
  -24.6710   -5.1085   24.2413 O   0  0  0  0  0  0  0  0  0  0  0  0
  -28.7295  -19.6102   21.1237 O   0  0  0  0  0  0  0  0  0  0  0  0
  -26.8876  -25.5960   20.7357 O   0  0  0  0  0  0  0  0  0  1  0  0
  -19.3563   -5.4543   22.8133 F   0  0  0  0  0  0  0  0  0  0  0  0
  -23.2962   -2.8847   23.3427 F   0  0  0  0  0  0  0  0  0  0  0  0
  1  2  1  0  0  0  0
  1  5  2  0  0  0  0
  2  6  2  0  0  0  0
  3  8  2  0  0  0  0
  3 17  1  0  0  0  0
  4  9  1  0  0  0  0
  4 17  2  0  0  0  0
  5 19  1  0  0  0  0
  6 21  1  0  0  0  0
  7 10  2  0  0  0  0
  7 20  1  0  0  0  0
  8 26  1  0  0  0  0
  9 26  2  0  0  0  0
 10 27  1  0  0  0  0
 11 12  2  0  0  0  0
 11 28  1  0  0  0  0
 12 30  1  0  0  0  0
 13 22  1  0  0  0  0
 13 27  2  0  0  0  0
 14 23  2  0  0  0  0
 14 24  1  0  0  0  0
 15 25  2  0  0  0  0
 15 29  1  0  0  0  0
 16 30  2  0  0  0  0
 16 31  1  0  0  0  0
 17 32  1  0  0  0  0
 18 32  1  0  0  0  0
 18 33  2  0  0  0  0
 18 34  1  0  0  0  0
 19 21  2  0  0  0  0
 19 39  1  0  0  0  0
 20 22  2  0  0  0  0
 20 40  1  0  0  0  0
 21 52  1  0  0  0  0
 22 41  1  0  0  0  0
 23 25  1  0  0  0  0
 23 64  1  0  0  0  0
 24 29  2  0  0  0  0
 24 66  1  0  0  0  0
 25 56  1  0  0  0  0
 26 85  1  0  0  0  0
 27 87  1  0  0  0  0
 28 31  2  0  0  0  0
 28 85  1  0  0  0  0
 29 86  1  0  0  0  0
 30 88  1  0  0  0  0
 31 89  1  0  0  0  0
 32 70  2  0  0  0  0
 33 71  1  0  0  0  0
 33 75  1  0  0  0  0
 34 76  1  0  0  0  0
 34 80  2  0  0  0  0
 35 53  1  0  0  0  0
 35 77  1  0  0  0  0
 35 81  2  0  0  0  0
 36 67  1  0  0  0  0
 36 72  1  0  0  0  0
 36 82  2  0  0  0  0
 37 68  1  0  0  0  0
 37 78  1  0  0  0  0
 37 83  2  0  0  0  0
 38 73  1  0  0  0  0
 38 74  1  0  0  0  0
 38 84  2  0  0  0  0
 39 42  1  0  0  0  0
 40 53  1  0  0  0  0
 41 72  1  0  0  0  0
 42 44  1  0  0  0  0
 43 45  1  0  0  0  0
 43 48  1  0  0  0  0
 44 52  1  0  0  0  0
 45 54  1  0  0  0  0
 46 49  1  0  0  0  0
 46 55  1  0  0  0  0
 47 50  1  0  0  0  0
 47 55  1  0  0  0  0
 48 73  1  0  0  0  0
 49 74  1  0  0  0  0
 50 74  1  0  0  0  0
 51 54  1  0  0  0  0
 51 73  1  0  0  0  0
 52 77  1  0  0  0  0
 53 72  1  0  0  0  0
 54 71  1  0  0  0  0
 55 86  1  0  0  0  0
 57 65  1  0  0  0  0
 58 66  1  0  0  0  0
 59 68  1  0  0  0  0
 60 69  1  0  0  0  0
 61 69  1  0  0  0  0
 62 69  1  0  0  0  0
 63 79  1  0  0  0  0
 64 87  1  0  0  0  0
 65 66  1  0  0  0  0
 67 69  1  0  0  0  0
 67 78  1  0  0  0  0
 68 79  1  0  0  0  0
 70 71  1  0  0  0  0
M  CHG  1  79   1
M  ISO  4  38 100  64 101  74 100  87 101
M  END
> <Batch ID>
0158

> <Smiles>
CCC(C)c1cc([101CH2:1][101O:1]c2ccc3c(c2)CN(C(=O)C(NC(=O)C(C)NC)C(C)(C)C)C(C(=O)NC2CCCc4ccccc42)C3)c(C)cc1OC1CC[100N:0]([100C:0](=O)N2CCCC(n3nc(-c4ccc(Oc5ccc(F)cc5F)cc4)c(C(N)=O)c3N)C2)CC1

> <Shape>
0.282

> <Color>
0.070

> <Negative vol penalty>
0.000

$$$$

  -OEChem-04052322043D

 90 99  0     1  0  0  0  0  0999 V2000
  -16.8013  -25.1646   22.4109 C   0  0  0  0  0  0  0  0  0  0  0  0
  -17.7628  -24.2603   22.8506 C   0  0  0  0  0  0  0  0  0  0  0  0
  -28.5738  -23.4113   21.3912 C   0  0  0  0  0  0  0  0  0  0  0  0
  -27.4735  -23.5629   19.2456 C   0  0  0  0  0  0  0  0  0  0  0  0
  -17.1494  -26.4956   22.1851 C   0  0  0  0  0  0  0  0  0  0  0  0
  -19.0733  -24.6865   23.0638 C   0  0  0  0  0  0  0  0  0  0  0  0
  -22.9392  -22.6886   27.3730 C   0  0  0  0  0  0  0  0  0  0  0  0
  -28.6924  -24.8006   21.4286 C   0  0  0  0  0  0  0  0  0  0  0  0
  -27.5921  -24.9523   19.2830 C   0  0  0  0  0  0  0  0  0  0  0  0
  -23.9775  -21.7586   27.3434 C   0  0  0  0  0  0  0  0  0  0  0  0
  -27.2821  -28.5620   18.9804 C   0  0  0  0  0  0  0  0  0  0  0  0
  -26.1665  -29.3187   18.6220 C   0  0  0  0  0  0  0  0  0  0  0  0
  -29.1493  -12.9438   20.4686 C   0  0  0  0  0  0  0  0  0  0  0  0
  -25.5616  -23.5468   27.0087 C   0  0  0  0  0  0  0  0  0  0  0  0
  -30.1762  -10.4083   21.0155 C   0  0  0  0  0  0  0  0  0  0  0  0
  -24.9031  -28.3051   20.4147 C   0  0  0  0  0  0  0  0  0  0  0  0
  -27.9644  -22.7924   20.2997 C   0  0  0  0  0  0  0  0  0  0  0  0
  -26.7756  -20.5812   20.7520 C   0  0  0  0  0  0  0  0  0  0  0  0
  -18.4626  -26.9405   22.4049 C   0  0  0  0  0  0  0  0  0  0  0  0
  -23.2036  -24.0560   27.2095 C   0  0  0  0  0  0  0  0  0  0  0  0
  -19.4395  -26.0245   22.8395 C   0  0  0  0  0  0  0  0  0  0  0  0
  -29.9819  -12.7515   21.5710 C   0  0  0  0  0  0  0  0  0  0  0  0
  -24.5252  -24.4924   27.0392 C   0  0  0  0  0  0  0  0  0  0  0  0
  -28.8300  -11.8683   19.6397 C   0  0  0  0  0  0  0  0  0  0  0  0
  -30.4954  -11.4838   21.8445 C   0  0  0  0  0  0  0  0  0  0  0  0
  -29.3435  -10.6006   19.9131 C   0  0  0  0  0  0  0  0  0  0  0  0
  -28.2015  -25.5711   20.3745 C   0  0  0  0  0  0  0  0  0  0  0  0
  -25.2886  -22.1874   27.1584 C   0  0  0  0  0  0  0  0  0  0  0  0
  -27.2082  -27.6768   20.0558 C   0  0  0  0  0  0  0  0  0  0  0  0
  -24.9770  -29.1903   19.3392 C   0  0  0  0  0  0  0  0  0  0  0  0
  -26.0187  -27.5483   20.7730 C   0  0  0  0  0  0  0  0  0  0  0  0
  -27.8421  -21.3573   20.2602 C   0  0  0  0  0  0  0  0  0  0  0  0
  -27.1370  -19.2856   20.4741 C   0  0  0  0  0  0  0  0  0  0  0  0
  -25.5662  -20.9944   21.4019 C   0  0  0  0  0  0  0  0  0  0  0  0
  -22.3675  -26.2635   25.0807 C   0  0  0  0  0  0  0  0  0  0  0  0
  -23.8846  -28.2618   27.1368 C   0  0  0  0  0  0  0  0  0  0  0  0
  -26.2089  -28.6623   29.6034 C   0  0  0  0  0  0  0  0  0  0  0  0
  -31.0903  -15.4283   20.5526 C   0  0  0  0  0  0  0  0  0  0  0  0
  -18.8023  -28.3783   22.1018 C   0  0  0  0  0  0  0  0  0  0  0  0
  -22.0754  -25.0490   27.2706 C   0  0  0  0  0  0  0  0  0  0  0  0
  -24.8643  -25.9511   26.8793 C   0  0  0  0  0  0  0  0  0  0  0  0
  -20.1262  -28.8328   22.7107 C   0  0  0  0  0  0  0  0  0  0  0  0
  -30.8765  -17.5669   17.6580 C   0  0  0  0  0  0  0  0  0  0  0  0
  -21.2158  -27.7969   22.4531 C   0  0  0  0  0  0  0  0  0  0  0  0
  -29.9590  -18.6934   18.1291 C   0  0  0  0  0  0  0  0  0  0  0  0
  -31.7701  -17.0843   18.7936 C   0  0  0  0  0  0  0  0  0  0  0  0
  -29.3739  -16.1349   22.2817 C   0  0  0  0  0  0  0  0  0  0  0  0
  -30.0771  -17.7288   20.4822 C   0  0  0  0  0  0  0  0  0  0  0  0
  -30.3104  -13.9181   22.4439 C   0  0  2  0  0  0  0  0  0  0  0  0
  -20.8659  -26.4542   23.1059 C   0  0  1  0  0  0  0  0  0  0  0  0
  -22.4030  -26.3688   26.5792 C   0  0  1  0  0  0  0  0  0  0  0  0
  -29.1944  -15.6316   23.7108 C   0  0  2  0  0  0  0  0  0  0  0  0
  -29.1550  -18.2607   19.3662 C   0  0  1  0  0  0  0  0  0  0  0  0
  -29.2407  -14.1095   23.5324 C   0  0  2  0  0  0  0  0  0  0  0  0
  -27.9359  -12.0981   18.4657 C   0  0  0  0  0  0  0  0  0  0  0  0
  -31.3893  -11.2541   23.0186 C   0  0  0  0  0  0  0  0  0  0  0  0
  -29.0150   -9.4340   19.0403 C   0  0  0  0  0  0  0  0  0  0  0  0
  -27.2532  -30.4190   31.0596 C   0  0  0  0  0  0  0  0  0  0  0  0
  -25.5495  -29.2304   24.7704 C   0  0  0  0  0  0  0  0  0  0  0  0
  -27.1598  -30.2342   26.4036 C   0  0  0  0  0  0  0  0  0  0  0  0
  -24.7995  -31.0378   26.3276 C   0  0  0  0  0  0  0  0  0  0  0  0
  -25.2522  -27.3466   32.0758 C   0  0  0  0  0  0  0  0  0  0  0  0
  -27.9091  -16.1235   24.3579 C   0  0  0  0  0  0  0  0  0  0  0  0
  -27.2177  -19.3721   25.9637 C   0  0  0  0  0  0  0  0  0  0  0  0
  -25.9981  -19.9772   26.6411 C   0  0  0  0  0  0  0  0  0  1  0  0
  -26.9414  -17.9712   25.4406 C   0  0  0  0  0  0  0  0  0  0  0  0
  -25.3017  -28.7572   27.2964 C   0  0  1  0  0  0  0  0  0  0  0  0
  -26.1472  -29.3823   30.9383 C   0  0  2  0  0  0  0  0  0  0  0  0
  -25.6963  -29.7871   26.2005 C   0  0  0  0  0  0  0  0  0  0  0  0
  -28.8087  -20.6166   19.7116 N   0  0  0  0  0  0  0  0  0  0  0  0
  -28.3510  -19.3615   19.8571 N   0  0  0  0  0  0  0  0  0  0  0  0
  -23.7259  -26.8827   26.9398 N   0  0  0  0  0  0  0  0  0  0  0  0
  -30.9845  -16.6956   19.9654 N   0  0  0  0  0  0  0  0  0  0  0  0
  -30.3090  -15.1786   21.6845 N   0  0  0  0  0  0  0  0  0  0  0  0
  -26.5318  -18.1002   20.6999 N   0  0  0  0  0  0  0  0  0  0  0  0
  -25.3533  -22.3642   21.6087 N   0  0  0  0  0  0  0  0  0  0  0  0
  -21.1231  -26.5020   24.5293 N   0  0  0  0  0  0  0  0  0  0  0  0
  -25.4051  -29.2661   28.6597 N   0  0  0  0  0  0  0  0  0  0  0  0
  -26.2897  -28.4098   32.0585 N   0  3  0  0  0  0  0  0  0  0  0  0
  -24.7076  -20.1723   21.8025 O   0  0  0  0  0  0  0  0  0  0  0  0
  -23.3934  -25.9877   24.4699 O   0  0  0  0  0  0  0  0  0  0  0  0
  -22.9524  -29.0677   27.1923 O   0  0  0  0  0  0  0  0  0  0  0  0
  -26.9038  -27.6661   29.4154 O   0  0  0  0  0  0  0  0  0  0  0  0
  -31.8607  -14.5702   20.1031 O   0  0  0  0  0  0  0  0  0  0  0  0
  -29.6395  -13.4702   24.7336 O   0  0  0  0  0  0  0  0  0  0  0  0
  -28.3169  -26.9268   20.4108 O   0  0  0  0  0  0  0  0  0  0  0  0
  -26.3112  -21.2751   27.1282 O   0  0  0  0  0  0  0  0  0  1  0  0
  -28.1104  -17.4478   24.8215 O   0  0  0  0  0  0  0  0  0  0  0  0
  -23.9063  -29.9182   18.9959 F   0  0  0  0  0  0  0  0  0  0  0  0
  -25.9420  -26.7004   21.8078 F   0  0  0  0  0  0  0  0  0  0  0  0
  1  2  1  0  0  0  0
  1  5  2  0  0  0  0
  2  6  2  0  0  0  0
  3  8  2  0  0  0  0
  3 17  1  0  0  0  0
  4  9  1  0  0  0  0
  4 17  2  0  0  0  0
  5 19  1  0  0  0  0
  6 21  1  0  0  0  0
  7 10  2  0  0  0  0
  7 20  1  0  0  0  0
  8 27  1  0  0  0  0
  9 27  2  0  0  0  0
 10 28  1  0  0  0  0
 11 12  2  0  0  0  0
 11 29  1  0  0  0  0
 12 30  1  0  0  0  0
 13 22  1  0  0  0  0
 13 24  2  0  0  0  0
 14 23  1  0  0  0  0
 14 28  2  0  0  0  0
 15 25  1  0  0  0  0
 15 26  2  0  0  0  0
 16 30  2  0  0  0  0
 16 31  1  0  0  0  0
 17 32  1  0  0  0  0
 18 32  1  0  0  0  0
 18 33  2  0  0  0  0
 18 34  1  0  0  0  0
 19 21  2  0  0  0  0
 19 39  1  0  0  0  0
 20 23  2  0  0  0  0
 20 40  1  0  0  0  0
 21 50  1  0  0  0  0
 22 25  2  0  0  0  0
 22 49  1  0  0  0  0
 23 41  1  0  0  0  0
 24 26  1  0  0  0  0
 24 55  1  0  0  0  0
 25 56  1  0  0  0  0
 26 57  1  0  0  0  0
 27 86  1  0  0  0  0
 28 87  1  0  0  0  0
 29 31  2  0  0  0  0
 29 86  1  0  0  0  0
 30 89  1  0  0  0  0
 31 90  1  0  0  0  0
 32 70  2  0  0  0  0
 33 71  1  0  0  0  0
 33 75  1  0  0  0  0
 34 76  1  0  0  0  0
 34 80  2  0  0  0  0
 35 51  1  0  0  0  0
 35 77  1  0  0  0  0
 35 81  2  0  0  0  0
 36 67  1  0  0  0  0
 36 72  1  0  0  0  0
 36 82  2  0  0  0  0
 37 68  1  0  0  0  0
 37 78  1  0  0  0  0
 37 83  2  0  0  0  0
 38 73  1  0  0  0  0
 38 74  1  0  0  0  0
 38 84  2  0  0  0  0
 39 42  1  0  0  0  0
 40 51  1  0  0  0  0
 41 72  1  0  0  0  0
 42 44  1  0  0  0  0
 43 45  1  0  0  0  0
 43 46  1  0  0  0  0
 44 50  1  0  0  0  0
 45 53  1  0  0  0  0
 46 73  1  0  0  0  0
 47 52  1  0  0  0  0
 47 74  1  0  0  0  0
 48 53  1  0  0  0  0
 48 73  1  0  0  0  0
 49 54  1  0  0  0  0
 49 74  1  0  0  0  0
 50 77  1  0  0  0  0
 51 72  1  0  0  0  0
 52 54  1  0  0  0  0
 52 63  1  0  0  0  0
 53 71  1  0  0  0  0
 54 85  1  0  0  0  0
 58 68  1  0  0  0  0
 59 69  1  0  0  0  0
 60 69  1  0  0  0  0
 61 69  1  0  0  0  0
 62 79  1  0  0  0  0
 63 88  1  0  0  0  0
 64 65  1  0  0  0  0
 64 66  1  0  0  0  0
 65 87  1  0  0  0  0
 66 88  1  0  0  0  0
 67 69  1  0  0  0  0
 67 78  1  0  0  0  0
 68 79  1  0  0  0  0
 70 71  1  0  0  0  0
M  CHG  1  79   1
M  ISO  4  38 100  65 101  74 100  87 101
M  END
> <Batch ID>
0158

> <Smiles>
CNC(C)C(=O)NC(C(=O)N1Cc2cc([101O:1][101CH2:1]CCOCC3C[100N:0]([100C:0](=O)N4CCCC(n5nc(-c6ccc(Oc7ccc(F)cc7F)cc6)c(C(N)=O)c5N)C4)C(c4cc(C)c(C)cc4C)C3O)ccc2CC1C(=O)NC1CCCc2ccccc21)C(C)(C)C

> <Shape>
0.207

> <Color>
0.079

> <Negative vol penalty>
0.000

$$$$

  -OEChem-04052322043D

 92102  0     1  0  0  0  0  0999 V2000
  -31.9753  -34.2744   16.3833 C   0  0  0  0  0  0  0  0  0  0  0  0
  -32.0074  -33.3713   17.4410 C   0  0  0  0  0  0  0  0  0  0  0  0
  -23.0488   -9.9378   19.8953 C   0  0  0  0  0  0  0  0  0  0  0  0
  -24.0298   -9.7797   22.0975 C   0  0  0  0  0  0  0  0  0  0  0  0
  -30.8625  -35.0946   16.2019 C   0  0  0  0  0  0  0  0  0  0  0  0
  -30.9269  -33.2887   18.3187 C   0  0  0  0  0  0  0  0  0  0  0  0
  -29.6132  -28.5053   19.3377 C   0  0  0  0  0  0  0  0  0  0  0  0
  -22.3673   -8.7404   20.1129 C   0  0  0  0  0  0  0  0  0  0  0  0
  -23.3482   -8.5823   22.3151 C   0  0  0  0  0  0  0  0  0  0  0  0
  -30.4013  -27.8099   20.2537 C   0  0  0  0  0  0  0  0  0  0  0  0
  -20.2196   -7.6154   23.1504 C   0  0  0  0  0  0  0  0  0  0  0  0
  -19.5829   -7.4482   24.3801 C   0  0  0  0  0  0  0  0  0  0  0  0
  -28.7656  -28.2357   21.9749 C   0  0  0  0  0  0  0  0  0  0  0  0
  -30.8635  -24.0535   23.9386 C   0  0  0  0  0  0  0  0  0  0  0  0
  -20.9469   -5.5037   24.8220 C   0  0  0  0  0  0  0  0  0  0  0  0
  -23.8802  -10.4574   20.8875 C   0  0  0  0  0  0  0  0  0  0  0  0
  -24.1344  -12.9948   20.9574 C   0  0  0  0  0  0  0  0  0  0  0  0
  -29.7639  -35.0152   17.0721 C   0  0  0  0  0  0  0  0  0  0  0  0
  -28.3986  -29.0814   19.7367 C   0  0  0  0  0  0  0  0  0  0  0  0
  -29.7990  -34.1095   18.1496 C   0  0  0  0  0  0  0  0  0  0  0  0
  -27.9628  -28.9357   21.0614 C   0  0  0  0  0  0  0  0  0  0  0  0
  -32.1040  -24.3783   23.4118 C   0  0  0  0  0  0  0  0  0  0  0  0
  -32.7050  -22.0554   23.1762 C   0  0  0  0  0  0  0  0  0  0  0  0
  -31.4575  -21.7121   23.7070 C   0  0  0  0  0  0  0  0  0  0  0  0
  -33.0278  -23.3966   23.0321 C   0  0  0  0  0  0  0  0  0  0  0  0
  -22.5169   -8.0627   21.3228 C   0  0  0  0  0  0  0  0  0  0  0  0
  -29.9789  -27.6775   21.5733 C   0  0  0  0  0  0  0  0  0  0  0  0
  -21.2200   -6.7267   22.7564 C   0  0  0  0  0  0  0  0  0  0  0  0
  -30.5430  -22.7047   24.0863 C   0  0  0  0  0  0  0  0  0  0  0  0
  -19.9465   -6.3924   25.2159 C   0  0  0  0  0  0  0  0  0  0  0  0
  -21.5836   -5.6708   23.5923 C   0  0  0  0  0  0  0  0  0  0  0  0
  -24.5850  -11.6939   20.6631 C   0  0  0  0  0  0  0  0  0  0  0  0
  -25.1631  -13.8129   20.5588 C   0  0  0  0  0  0  0  0  0  0  0  0
  -22.8966  -13.4251   21.5392 C   0  0  0  0  0  0  0  0  0  0  0  0
  -27.2519  -32.0438   19.8519 C   0  0  0  0  0  0  0  0  0  0  0  0
  -24.5070  -30.5320   20.6901 C   0  0  0  0  0  0  0  0  0  0  0  0
  -23.0123  -27.7713   22.0285 C   0  0  0  0  0  0  0  0  0  0  0  0
  -30.7860  -14.6608   20.7149 C   0  0  0  0  0  0  0  0  0  0  0  0
  -28.6033  -35.9555   16.8637 C   0  0  0  0  0  0  0  0  0  0  0  0
  -27.5473  -29.8055   18.7300 C   0  0  0  0  0  0  0  0  0  0  0  0
  -26.6571  -29.5181   21.5353 C   0  0  0  0  0  0  0  0  0  0  0  0
  -27.3416  -35.5423   17.6172 C   0  0  0  0  0  0  0  0  0  0  0  0
  -29.3066  -12.8398   17.8451 C   0  0  0  0  0  0  0  0  0  0  0  0
  -27.6781  -35.1694   19.0575 C   0  0  0  0  0  0  0  0  0  0  0  0
  -27.9394  -12.4257   18.3863 C   0  0  0  0  0  0  0  0  0  0  0  0
  -31.5436  -17.2928   22.8445 C   0  0  0  0  0  0  0  0  0  0  0  0
  -29.4308  -17.8021   21.5564 C   0  0  0  0  0  0  0  0  0  0  0  0
  -30.3374  -12.9842   18.9601 C   0  0  0  0  0  0  0  0  0  0  0  0
  -31.1319  -15.8233   22.8746 C   0  0  0  0  0  0  0  0  0  0  0  0
  -29.0731  -16.3133   21.5890 C   0  0  0  0  0  0  0  0  0  0  0  0
  -34.1484  -25.3897   22.8095 C   0  0  0  0  0  0  0  0  0  0  0  0
  -28.5494  -13.4945   20.5926 C   0  0  0  0  0  0  0  0  0  0  0  0
  -32.6765  -25.7418   23.1479 C   0  0  1  0  0  0  0  0  0  0  0  0
  -28.6360  -33.9730   19.1082 C   0  0  1  0  0  0  0  0  0  0  0  0
  -26.5750  -30.7922   19.3691 C   0  0  1  0  0  0  0  0  0  0  0  0
  -27.4776  -13.3838   19.4977 C   0  0  2  0  0  0  0  0  0  0  0  0
  -30.3069  -18.1839   22.7476 C   0  0  0  0  0  0  0  0  0  0  0  0
  -33.6435  -20.9616   22.7844 C   0  0  0  0  0  0  0  0  0  0  0  0
  -20.7565  -26.8430   22.6175 C   0  0  0  0  0  0  0  0  0  0  0  0
  -24.4019  -32.3485   23.1395 C   0  0  0  0  0  0  0  0  0  0  0  0
  -22.7275  -30.7811   24.1435 C   0  0  0  0  0  0  0  0  0  0  0  0
  -22.1964  -31.9778   22.0202 C   0  0  0  0  0  0  0  0  0  0  0  0
  -35.4221  -23.2386   22.3289 C   0  0  0  0  0  0  0  0  0  0  0  0
  -23.3422  -25.4839   20.1797 C   0  0  0  0  0  0  0  0  0  0  0  0
  -28.4606  -23.4386   24.9694 C   0  0  0  0  0  0  0  0  0  0  0  0
  -31.0834  -20.2696   23.8814 C   0  0  0  0  0  0  0  0  0  0  0  0
  -31.9706  -26.4491   21.9979 C   0  0  0  0  0  0  0  0  0  1  0  0
  -23.8826  -30.0942   21.9930 C   0  0  1  0  0  0  0  0  0  0  0  0
  -21.8405  -26.9308   21.5544 C   0  0  2  0  0  0  0  0  0  0  0  0
  -23.3277  -31.2910   22.8159 C   0  0  0  0  0  0  0  0  0  0  0  0
  -25.8049  -11.6815   20.1193 N   0  0  0  0  0  0  0  0  0  0  0  0
  -26.1296  -12.9846   20.0687 N   0  0  0  0  0  0  0  0  0  0  0  0
  -34.1886  -23.9569   22.5246 N   0  0  1  0  0  0  0  0  0  0  0  0
  -25.8632  -30.2225   20.5150 N   0  0  0  0  0  0  0  0  0  0  0  0
  -29.8570  -13.8617   20.0277 N   0  0  0  0  0  0  0  0  0  0  0  0
  -30.2829  -15.4893   21.7294 N   0  0  0  0  0  0  0  0  0  0  0  0
  -25.3262  -15.1527   20.5831 N   0  0  0  0  0  0  0  0  0  0  0  0
  -21.9498  -12.4532   21.8903 N   0  0  0  0  0  0  0  0  0  0  0  0
  -27.9187  -32.7404   18.8622 N   0  0  0  0  0  0  0  0  0  0  0  0
  -22.8814  -29.0904   21.6488 N   0  0  0  0  0  0  0  0  0  0  0  0
  -30.7381  -19.5981   22.5999 N   0  3  0  0  0  0  0  0  0  0  0  0
  -22.2925  -25.5485   21.2290 N   0  3  0  0  0  0  0  0  0  0  0  0
  -22.6312  -14.6367   21.7265 O   0  0  0  0  0  0  0  0  0  0  0  0
  -27.1737  -32.3552   21.0345 O   0  0  0  0  0  0  0  0  0  0  0  0
  -23.8151  -31.1205   19.8555 O   0  0  0  0  0  0  0  0  0  0  0  0
  -23.9483  -27.3051   22.6744 O   0  0  0  0  0  0  0  0  0  0  0  0
  -31.9913  -14.6359   20.4362 O   0  0  0  0  0  0  0  0  0  0  0  0
  -21.8518   -6.8944   21.5356 O   0  0  0  0  0  0  0  0  0  0  0  0
  -29.3302  -22.3676   24.6103 O   0  0  0  0  0  0  0  0  0  0  0  0
  -30.7531  -26.9941   22.4773 O   0  0  0  0  0  0  0  0  0  1  0  0
  -19.3360   -6.2329   26.3974 F   0  0  0  0  0  0  0  0  0  0  0  0
  -22.5448   -4.8145   23.2198 F   0  0  0  0  0  0  0  0  0  0  0  0
  1  2  1  0  0  0  0
  1  5  2  0  0  0  0
  2  6  2  0  0  0  0
  3  8  2  0  0  0  0
  3 16  1  0  0  0  0
  4  9  1  0  0  0  0
  4 16  2  0  0  0  0
  5 18  1  0  0  0  0
  6 20  1  0  0  0  0
  7 10  2  0  0  0  0
  7 19  1  0  0  0  0
  8 26  1  0  0  0  0
  9 26  2  0  0  0  0
 10 27  1  0  0  0  0
 11 12  2  0  0  0  0
 11 28  1  0  0  0  0
 12 30  1  0  0  0  0
 13 21  1  0  0  0  0
 13 27  2  0  0  0  0
 14 22  2  0  0  0  0
 14 29  1  0  0  0  0
 15 30  2  0  0  0  0
 15 31  1  0  0  0  0
 16 32  1  0  0  0  0
 17 32  1  0  0  0  0
 17 33  2  0  0  0  0
 17 34  1  0  0  0  0
 18 20  2  0  0  0  0
 18 39  1  0  0  0  0
 19 21  2  0  0  0  0
 19 40  1  0  0  0  0
 20 54  1  0  0  0  0
 21 41  1  0  0  0  0
 22 25  1  0  0  0  0
 22 53  1  0  0  0  0
 23 24  1  0  0  0  0
 23 25  2  0  0  0  0
 23 58  1  0  0  0  0
 24 29  2  0  0  0  0
 24 66  1  0  0  0  0
 25 73  1  0  0  0  0
 26 88  1  0  0  0  0
 27 90  1  0  0  0  0
 28 31  2  0  0  0  0
 28 88  1  0  0  0  0
 29 89  1  0  0  0  0
 30 91  1  0  0  0  0
 31 92  1  0  0  0  0
 32 71  2  0  0  0  0
 33 72  1  0  0  0  0
 33 77  1  0  0  0  0
 34 78  1  0  0  0  0
 34 83  2  0  0  0  0
 35 55  1  0  0  0  0
 35 79  1  0  0  0  0
 35 84  2  0  0  0  0
 36 68  1  0  0  0  0
 36 74  1  0  0  0  0
 36 85  2  0  0  0  0
 37 69  1  0  0  0  0
 37 80  1  0  0  0  0
 37 86  2  0  0  0  0
 38 75  1  0  0  0  0
 38 76  1  0  0  0  0
 38 87  2  0  0  0  0
 39 42  1  0  0  0  0
 40 55  1  0  0  0  0
 41 74  1  0  0  0  0
 42 44  1  0  0  0  0
 43 45  1  0  0  0  0
 43 48  1  0  0  0  0
 44 54  1  0  0  0  0
 45 56  1  0  0  0  0
 46 49  1  0  0  0  0
 46 57  1  0  0  0  0
 47 50  1  0  0  0  0
 47 57  1  0  0  0  0
 48 75  1  0  0  0  0
 49 76  1  0  0  0  0
 50 76  1  0  0  0  0
 51 53  1  0  0  0  0
 51 73  1  0  0  0  0
 52 56  1  0  0  0  0
 52 75  1  0  0  0  0
 53 67  1  0  0  0  0
 54 79  1  0  0  0  0
 55 74  1  0  0  0  0
 56 72  1  0  0  0  0
 57 81  1  0  0  0  0
 59 69  1  0  0  0  0
 60 70  1  0  0  0  0
 61 70  1  0  0  0  0
 62 70  1  0  0  0  0
 63 73  1  0  0  0  0
 64 82  1  0  0  0  0
 65 89  1  0  0  0  0
 66 81  1  0  0  0  0
 67 90  1  0  0  0  0
 68 70  1  0  0  0  0
 68 80  1  0  0  0  0
 69 82  1  0  0  0  0
 71 72  1  0  0  0  0
M  CHG  2  81   1  82   1
M  ISO  4  38 100  67 101  76 100  90 101
M  END
> <Batch ID>
0158

> <Smiles>
CNC(C)C(=O)NC(C(=O)N1Cc2cc([101O:1][101CH2:1]C3CN(C)c4c3cc(OC)c(CNC3CC[100N:0]([100C:0](=O)N5CCCC(n6nc(-c7ccc(Oc8ccc(F)cc8F)cc7)c(C(N)=O)c6N)C5)CC3)c4C)ccc2CC1C(=O)NC1CCCc2ccccc21)C(C)(C)C

> <Shape>
0.287

> <Color>
0.172

> <Negative vol penalty>
0.000

$$$$

  -OEChem-04052322043D

 91101  0     1  0  0  0  0  0999 V2000
  -18.6587  -25.5787   24.2684 C   0  0  0  0  0  0  0  0  0  0  0  0
  -20.0433  -25.5346   24.1412 C   0  0  0  0  0  0  0  0  0  0  0  0
  -23.8095  -14.3387   17.7261 C   0  0  0  0  0  0  0  0  0  0  0  0
  -25.5601  -12.7365   17.2726 C   0  0  0  0  0  0  0  0  0  0  0  0
  -17.9267  -26.5435   23.5774 C   0  0  0  0  0  0  0  0  0  0  0  0
  -20.6968  -26.4547   23.3221 C   0  0  0  0  0  0  0  0  0  0  0  0
  -26.2185  -28.9365   24.2477 C   0  0  0  0  0  0  0  0  0  0  0  0
  -23.5916  -14.4882   16.3565 C   0  0  0  0  0  0  0  0  0  0  0  0
  -25.3421  -12.8860   15.9030 C   0  0  0  0  0  0  0  0  0  0  0  0
  -27.4812  -28.6306   23.7418 C   0  0  0  0  0  0  0  0  0  0  0  0
  -25.4920  -13.1140   12.2787 C   0  0  0  0  0  0  0  0  0  0  0  0
  -26.6098  -13.2493   11.4554 C   0  0  0  0  0  0  0  0  0  0  0  0
  -28.4751  -22.5533   21.5731 C   0  0  0  0  0  0  0  0  0  0  0  0
  -29.3311  -21.5641   19.5458 C   0  0  0  0  0  0  0  0  0  0  0  0
  -27.2053  -30.3238   22.0458 C   0  0  0  0  0  0  0  0  0  0  0  0
  -27.2537  -15.2437   12.6573 C   0  0  0  0  0  0  0  0  0  0  0  0
  -24.7938  -13.4629   18.1842 C   0  0  0  0  0  0  0  0  0  0  0  0
  -24.3997  -12.3861   20.4630 C   0  0  0  0  0  0  0  0  0  0  0  0
  -18.5724  -27.4820   22.7571 C   0  0  0  0  0  0  0  0  0  0  0  0
  -25.4340  -29.9326   23.6487 C   0  0  0  0  0  0  0  0  0  0  0  0
  -19.9727  -27.4321   22.6185 C   0  0  0  0  0  0  0  0  0  0  0  0
  -29.1501  -22.6789   20.3595 C   0  0  0  0  0  0  0  0  0  0  0  0
  -27.9681  -21.3111   21.9801 C   0  0  0  0  0  0  0  0  0  0  0  0
  -25.9341  -30.6422   22.5476 C   0  0  0  0  0  0  0  0  0  0  0  0
  -28.1667  -20.1812   21.1692 C   0  0  0  0  0  0  0  0  0  0  0  0
  -28.8420  -20.3216   19.9476 C   0  0  0  0  0  0  0  0  0  0  0  0
  -24.3579  -13.7619   15.4450 C   0  0  0  0  0  0  0  0  0  0  0  0
  -27.9735  -29.3222   22.6389 C   0  0  0  0  0  0  0  0  0  0  0  0
  -25.2551  -14.0436   13.2914 C   0  0  0  0  0  0  0  0  0  0  0  0
  -27.4906  -14.3141   11.6447 C   0  0  0  0  0  0  0  0  0  0  0  0
  -26.1359  -15.1084   13.4807 C   0  0  0  0  0  0  0  0  0  0  0  0
  -25.0197  -13.3084   19.5988 C   0  0  0  0  0  0  0  0  0  0  0  0
  -24.9540  -12.6422   21.6933 C   0  0  0  0  0  0  0  0  0  0  0  0
  -23.4113  -11.3871   20.1789 C   0  0  0  0  0  0  0  0  0  0  0  0
  -22.6047  -29.9916   22.2011 C   0  0  0  0  0  0  0  0  0  0  0  0
  -23.1083  -33.1961   22.2001 C   0  0  0  0  0  0  0  0  0  0  0  0
  -25.3364  -35.7787   22.3095 C   0  0  0  0  0  0  0  0  0  0  0  0
  -27.4126  -17.7463   23.8506 C   0  0  0  0  0  0  0  0  0  0  0  0
  -17.7346  -28.4763   21.9929 C   0  0  0  0  0  0  0  0  0  0  0  0
  -24.0851  -30.2691   24.2229 C   0  0  0  0  0  0  0  0  0  0  0  0
  -27.2632  -21.1921   23.3058 C   0  0  0  0  0  0  0  0  0  0  0  0
  -25.1398  -31.7344   21.8808 C   0  0  0  0  0  0  0  0  0  0  0  0
  -27.6445  -18.8200   21.5641 C   0  0  0  0  0  0  0  0  0  0  0  0
  -18.5371  -29.6510   21.4394 C   0  0  0  0  0  0  0  0  0  0  0  0
  -29.1678  -14.4665   23.2633 C   0  0  0  0  0  0  0  0  0  0  0  0
  -19.8103  -29.1552   20.7611 C   0  0  0  0  0  0  0  0  0  0  0  0
  -28.0486  -13.5750   22.7234 C   0  0  0  0  0  0  0  0  0  0  0  0
  -28.5264  -25.0168   19.7830 C   0  0  0  0  0  0  0  0  0  0  0  0
  -30.7135  -24.5218   20.9486 C   0  0  0  0  0  0  0  0  0  0  0  0
  -28.6322  -15.6232   24.0937 C   0  0  0  0  0  0  0  0  0  0  0  0
  -26.9481  -15.8207   22.2549 C   0  0  0  0  0  0  0  0  0  0  0  0
  -29.0406  -26.4065   19.4294 C   0  0  0  0  0  0  0  0  0  0  0  0
  -31.2110  -25.9151   20.5858 C   0  0  0  0  0  0  0  0  0  0  0  0
  -29.6776  -24.0075   19.9342 C   0  0  0  0  0  0  0  0  0  0  0  0
  -20.7200  -28.4286   21.7590 C   0  0  1  0  0  0  0  0  0  0  0  0
  -23.1604  -30.9485   23.2176 C   0  0  1  0  0  0  0  0  0  0  0  0
  -26.7170  -14.3272   22.5423 C   0  0  1  0  0  0  0  0  0  0  0  0
  -26.3674  -19.9509   23.3958 C   0  0  1  0  0  0  0  0  0  0  0  0
  -29.0540  -19.1565   19.0336 C   0  0  0  0  0  0  0  0  0  0  0  0
  -24.1750  -18.9200   22.7789 C   0  0  0  0  0  0  0  0  0  0  0  0
  -25.4515  -38.2849   22.2525 C   0  0  0  0  0  0  0  0  0  0  0  0
  -22.6024  -33.1484   19.1915 C   0  0  0  0  0  0  0  0  0  0  0  0
  -23.6432  -35.4211   19.0509 C   0  0  0  0  0  0  0  0  0  0  0  0
  -21.5678  -35.0826   20.3928 C   0  0  0  0  0  0  0  0  0  0  0  0
  -26.5672  -35.8992   24.9983 C   0  0  0  0  0  0  0  0  0  0  0  0
  -25.0469  -20.1220   22.6370 C   0  0  0  0  0  0  0  0  0  0  0  0
  -30.4791  -28.2733   20.2420 C   0  0  0  0  0  0  0  0  0  0  0  0
  -29.4086  -29.2215   20.7452 C   0  0  0  0  0  0  0  0  0  1  0  0
  -23.7639  -34.1750   21.2562 C   0  0  1  0  0  0  0  0  0  0  0  0
  -25.3639  -37.0510   23.1372 C   0  0  2  0  0  0  0  0  0  0  0  0
  -22.9088  -34.4349   19.9840 C   0  0  0  0  0  0  0  0  0  0  0  0
  -25.9003  -14.0920   20.2269 N   0  0  0  0  0  0  0  0  0  0  0  0
  -25.8376  -13.6628   21.4989 N   0  0  0  0  0  0  0  0  0  0  0  0
  -23.8239  -32.0222   22.4752 N   0  0  0  0  0  0  0  0  0  0  0  0
  -27.0986  -18.7609   22.9300 N   0  0  0  0  0  0  0  0  0  0  0  0
  -27.7090  -16.4720   23.3359 N   0  0  0  0  0  0  0  0  0  0  0  0
  -24.7668  -12.0918   22.9116 N   0  0  0  0  0  0  0  0  0  0  0  0
  -22.9510  -11.2582   18.8614 N   0  0  0  0  0  0  0  0  0  0  0  0
  -21.4258  -29.3828   22.5871 N   0  0  0  0  0  0  0  0  0  0  0  0
  -24.0466  -35.3719   22.0410 N   0  0  0  0  0  0  0  0  0  0  0  0
  -30.0347  -26.8552   20.4735 N   0  3  0  0  0  0  0  0  0  0  0  0
  -26.5378  -37.0466   24.0551 N   0  3  0  0  0  0  0  0  0  0  0  0
  -22.9378  -10.6422   21.0703 O   0  0  0  0  0  0  0  0  0  0  0  0
  -23.2006  -29.8195   21.1442 O   0  0  0  0  0  0  0  0  0  0  0  0
  -22.0051  -33.4664   22.6813 O   0  0  0  0  0  0  0  0  0  0  0  0
  -26.3571  -35.2054   21.9353 O   0  0  0  0  0  0  0  0  0  0  0  0
  -27.4220  -17.9597   25.0702 O   0  0  0  0  0  0  0  0  0  0  0  0
  -24.1454  -13.9074   14.1085 O   0  0  0  0  0  0  0  0  0  0  0  0
  -29.2142  -29.0230   22.1392 O   0  0  0  0  0  0  0  0  0  1  0  0
  -28.5648  -14.4431   10.8549 F   0  0  0  0  0  0  0  0  0  0  0  0
  -25.9142  -16.0039   14.4526 F   0  0  0  0  0  0  0  0  0  0  0  0
  1  2  1  0  0  0  0
  1  5  2  0  0  0  0
  2  6  2  0  0  0  0
  3  8  2  0  0  0  0
  3 17  1  0  0  0  0
  4  9  1  0  0  0  0
  4 17  2  0  0  0  0
  5 19  1  0  0  0  0
  6 21  1  0  0  0  0
  7 10  2  0  0  0  0
  7 20  1  0  0  0  0
  8 27  1  0  0  0  0
  9 27  2  0  0  0  0
 10 28  1  0  0  0  0
 11 12  2  0  0  0  0
 11 29  1  0  0  0  0
 12 30  1  0  0  0  0
 13 22  2  0  0  0  0
 13 23  1  0  0  0  0
 14 22  1  0  0  0  0
 14 26  2  0  0  0  0
 15 24  1  0  0  0  0
 15 28  2  0  0  0  0
 16 30  2  0  0  0  0
 16 31  1  0  0  0  0
 17 32  1  0  0  0  0
 18 32  1  0  0  0  0
 18 33  2  0  0  0  0
 18 34  1  0  0  0  0
 19 21  2  0  0  0  0
 19 39  1  0  0  0  0
 20 24  2  0  0  0  0
 20 40  1  0  0  0  0
 21 55  1  0  0  0  0
 22 54  1  0  0  0  0
 23 25  2  0  0  0  0
 23 41  1  0  0  0  0
 24 42  1  0  0  0  0
 25 26  1  0  0  0  0
 25 43  1  0  0  0  0
 26 59  1  0  0  0  0
 27 88  1  0  0  0  0
 28 89  1  0  0  0  0
 29 31  2  0  0  0  0
 29 88  1  0  0  0  0
 30 90  1  0  0  0  0
 31 91  1  0  0  0  0
 32 72  2  0  0  0  0
 33 73  1  0  0  0  0
 33 77  1  0  0  0  0
 34 78  1  0  0  0  0
 34 83  2  0  0  0  0
 35 56  1  0  0  0  0
 35 79  1  0  0  0  0
 35 84  2  0  0  0  0
 36 69  1  0  0  0  0
 36 74  1  0  0  0  0
 36 85  2  0  0  0  0
 37 70  1  0  0  0  0
 37 80  1  0  0  0  0
 37 86  2  0  0  0  0
 38 75  1  0  0  0  0
 38 76  1  0  0  0  0
 38 87  2  0  0  0  0
 39 44  1  0  0  0  0
 40 56  1  0  0  0  0
 41 58  1  0  0  0  0
 42 74  1  0  0  0  0
 43 75  1  0  0  0  0
 44 46  1  0  0  0  0
 45 47  1  0  0  0  0
 45 50  1  0  0  0  0
 46 55  1  0  0  0  0
 47 57  1  0  0  0  0
 48 52  1  0  0  0  0
 48 54  1  0  0  0  0
 49 53  1  0  0  0  0
 49 54  1  0  0  0  0
 50 76  1  0  0  0  0
 51 57  1  0  0  0  0
 51 76  1  0  0  0  0
 52 81  1  0  0  0  0
 53 81  1  0  0  0  0
 55 79  1  0  0  0  0
 56 74  1  0  0  0  0
 57 73  1  0  0  0  0
 58 66  1  0  0  0  0
 58 75  1  0  0  0  0
 60 66  1  0  0  0  0
 61 70  1  0  0  0  0
 62 71  1  0  0  0  0
 63 71  1  0  0  0  0
 64 71  1  0  0  0  0
 65 82  1  0  0  0  0
 67 68  1  0  0  0  0
 67 81  1  0  0  0  0
 68 89  1  0  0  0  0
 69 71  1  0  0  0  0
 69 80  1  0  0  0  0
 70 82  1  0  0  0  0
 72 73  1  0  0  0  0
M  CHG  2  81   1  82   1
M  ISO  4  38 100  68 101  75 100  89 101
M  END
> <Batch ID>
0158

> <Smiles>
CCC1Cc2cc(C3CCN(C[101CH2:1][101O:1]c4ccc5c(c4)CN(C(=O)C(NC(=O)C(C)NC)C(C)(C)C)C(C(=O)NC4CCCc6ccccc64)C5)CC3)cc(C)c2C[100N:0]1[100C:0](=O)N1CCCC(n2nc(-c3ccc(Oc4ccc(F)cc4F)cc3)c(C(N)=O)c2N)C1

> <Shape>
0.248

> <Color>
0.090

> <Negative vol penalty>
0.000

$$$$

  -OEChem-04052322043D

 94104  0     1  0  0  0  0  0999 V2000
  -27.0558  -10.3830   22.3621 C   0  0  0  0  0  0  0  0  0  0  0  0
  -27.8596  -11.5070   22.2013 C   0  0  0  0  0  0  0  0  0  0  0  0
  -19.6320  -28.4050   21.6943 C   0  0  0  0  0  0  0  0  0  0  0  0
  -20.5251  -27.2222   23.6023 C   0  0  0  0  0  0  0  0  0  0  0  0
  -25.7972  -10.3362   21.7643 C   0  0  0  0  0  0  0  0  0  0  0  0
  -27.4056  -12.5846   21.4416 C   0  0  0  0  0  0  0  0  0  0  0  0
  -28.5301  -18.5223   22.4339 C   0  0  0  0  0  0  0  0  0  0  0  0
  -32.3717  -26.4888   16.3926 C   0  0  0  0  0  0  0  0  0  0  0  0
  -18.4282  -27.7135   21.8290 C   0  0  0  0  0  0  0  0  0  0  0  0
  -19.3213  -26.5307   23.7370 C   0  0  0  0  0  0  0  0  0  0  0  0
  -29.4522  -19.4080   21.8781 C   0  0  0  0  0  0  0  0  0  0  0  0
  -33.4247  -26.2787   15.5024 C   0  0  0  0  0  0  0  0  0  0  0  0
  -17.2156  -24.6525   21.0646 C   0  0  0  0  0  0  0  0  0  0  0  0
  -16.6352  -24.1317   19.9080 C   0  0  0  0  0  0  0  0  0  0  0  0
  -27.7724  -20.1726   20.3247 C   0  0  0  0  0  0  0  0  0  0  0  0
  -14.6645  -25.4757   20.2918 C   0  0  0  0  0  0  0  0  0  0  0  0
  -20.6805  -28.1594   22.5809 C   0  0  0  0  0  0  0  0  0  0  0  0
  -22.2724  -30.0993   23.0394 C   0  0  0  0  0  0  0  0  0  0  0  0
  -25.3235  -11.4177   21.0048 C   0  0  0  0  0  0  0  0  0  0  0  0
  -27.2231  -18.4472   21.9313 C   0  0  0  0  0  0  0  0  0  0  0  0
  -26.1399  -12.5516   20.8319 C   0  0  0  0  0  0  0  0  0  0  0  0
  -26.8349  -19.2869   20.8776 C   0  0  0  0  0  0  0  0  0  0  0  0
  -33.2475  -24.7610   17.8365 C   0  0  0  0  0  0  0  0  0  0  0  0
  -34.3006  -24.5509   16.9462 C   0  0  0  0  0  0  0  0  0  0  0  0
  -32.2831  -25.7300   17.5597 C   0  0  0  0  0  0  0  0  0  0  0  0
  -18.2728  -26.7763   22.8504 C   0  0  0  0  0  0  0  0  0  0  0  0
  -29.0743  -20.2312   20.8214 C   0  0  0  0  0  0  0  0  0  0  0  0
  -34.3891  -25.3097   15.7791 C   0  0  0  0  0  0  0  0  0  0  0  0
  -16.5204  -25.5848   21.8348 C   0  0  0  0  0  0  0  0  0  0  0  0
  -15.3597  -24.5433   19.5216 C   0  0  0  0  0  0  0  0  0  0  0  0
  -15.2449  -25.9964   21.4484 C   0  0  0  0  0  0  0  0  0  0  0  0
  -21.9245  -28.8730   22.4419 C   0  0  0  0  0  0  0  0  0  0  0  0
  -23.5488  -30.3471   22.5967 C   0  0  0  0  0  0  0  0  0  0  0  0
  -21.5101  -30.9392   23.9164 C   0  0  0  0  0  0  0  0  0  0  0  0
  -25.4760  -16.1760   20.5556 C   0  0  0  0  0  0  0  0  0  0  0  0
  -23.1177  -18.3907   20.7913 C   0  0  0  0  0  0  0  0  0  0  0  0
  -22.7888  -21.9498   20.2991 C   0  0  0  0  0  0  0  0  0  0  0  0
  -27.9289  -26.9791   20.8941 C   0  0  0  0  0  0  0  0  0  0  0  0
  -23.9754  -11.3017   20.3386 C   0  0  0  0  0  0  0  0  0  0  0  0
  -26.2326  -17.5055   22.5595 C   0  0  0  0  0  0  0  0  0  0  0  0
  -25.4380  -19.2593   20.3151 C   0  0  0  0  0  0  0  0  0  0  0  0
  -23.4155  -12.6387   19.8600 C   0  0  0  0  0  0  0  0  0  0  0  0
  -26.4763  -29.4935   18.9175 C   0  0  0  0  0  0  0  0  0  0  0  0
  -24.4868  -13.4310   19.1174 C   0  0  0  0  0  0  0  0  0  0  0  0
  -25.1639  -29.7433   19.6599 C   0  0  0  0  0  0  0  0  0  0  0  0
  -33.1604  -22.4427   18.9778 C   0  0  0  0  0  0  0  0  0  0  0  0
  -26.8262  -28.0058   18.8569 C   0  0  0  0  0  0  0  0  0  0  0  0
  -31.3701  -26.9473   19.5123 C   0  0  0  0  0  0  0  0  0  0  0  0
  -29.8557  -25.7372   17.9348 C   0  0  0  0  0  0  0  0  0  0  0  0
  -30.3661  -26.7018   20.6355 C   0  0  0  0  0  0  0  0  0  0  0  0
  -28.8857  -25.5024   19.0875 C   0  0  0  0  0  0  0  0  0  0  0  0
  -25.5276  -27.5876   20.9201 C   0  0  0  0  0  0  0  0  0  0  0  0
  -33.1538  -23.9452   19.0880 C   0  0  2  0  0  0  0  0  0  0  0  0
  -25.6725  -13.7507   20.0357 C   0  0  1  0  0  0  0  0  0  0  0  0
  -25.0769  -17.1471   21.6305 C   0  0  1  0  0  0  0  0  0  0  0  0
  -31.8947  -23.1574   19.3471 C   0  0  2  0  0  0  0  0  0  0  0  0
  -25.1794  -29.0787   21.0480 C   0  0  2  0  0  0  0  0  0  0  0  0
  -35.3404  -23.5147   17.2339 C   0  0  0  0  0  0  0  0  0  0  0  0
  -21.2017  -23.5993   21.3275 C   0  0  0  0  0  0  0  0  0  0  0  0
  -32.3111  -23.6495   21.7602 C   0  0  0  0  0  0  0  0  0  0  0  0
  -21.4199  -17.8642   18.3113 C   0  0  0  0  0  0  0  0  0  0  0  0
  -20.8313  -20.2975   18.2830 C   0  0  0  0  0  0  0  0  0  0  0  0
  -20.1779  -18.8806   20.2293 C   0  0  0  0  0  0  0  0  0  0  0  0
  -38.9255  -24.3862   12.6404 C   0  0  0  0  0  0  0  0  0  0  0  0
  -25.0052  -23.6636   21.2529 C   0  0  0  0  0  0  0  0  0  0  0  0
  -37.6554  -25.7442   14.3081 C   0  0  0  0  0  0  0  0  0  0  0  0
  -36.2594  -26.2347   14.6380 C   0  0  0  0  0  0  0  0  0  0  0  0
  -30.9862  -21.6097   21.1382 C   0  0  0  0  0  0  0  0  0  1  0  0
  -22.6068  -19.5062   19.9117 C   0  0  1  0  0  0  0  0  0  0  0  0
  -22.5996  -23.0025   21.3763 C   0  0  2  0  0  0  0  0  0  0  0  0
  -31.3561  -23.0576   20.7328 C   0  0  2  0  0  0  0  0  0  0  0  0
  -21.2862  -19.1288   19.1830 C   0  0  0  0  0  0  0  0  0  0  0  0
  -22.9009  -28.3764   21.6776 N   0  0  0  0  0  0  0  0  0  0  0  0
  -23.8749  -29.2953   21.7919 N   0  0  0  0  0  0  0  0  0  0  0  0
  -31.2177  -25.9579   18.4401 N   0  0  0  0  0  0  0  0  0  0  0  0
  -24.5077  -18.3172   20.9589 N   0  0  0  0  0  0  0  0  0  0  0  0
  -26.7887  -27.4070   20.1978 N   0  0  0  0  0  0  0  0  0  0  0  0
  -29.0123  -26.5307   20.1223 N   0  0  0  0  0  0  0  0  0  0  0  0
  -24.4127  -31.3599   22.8210 N   0  0  0  0  0  0  0  0  0  0  0  0
  -20.2157  -30.5350   24.2707 N   0  0  0  0  0  0  0  0  0  0  0  0
  -25.3455  -14.8493   20.9193 N   0  0  0  0  0  0  0  0  0  0  0  0
  -22.5024  -20.6843   20.7658 N   0  0  0  0  0  0  0  0  0  0  0  0
  -37.6037  -24.9053   13.0842 N   0  3  0  0  0  0  0  0  0  0  0  0
  -23.5875  -24.1048   21.2026 N   0  3  0  0  0  0  0  0  0  0  0  0
  -21.9572  -32.0244   24.3591 O   0  0  0  0  0  0  0  0  0  0  0  0
  -25.8715  -16.5990   19.4757 O   0  0  0  0  0  0  0  0  0  0  0  0
  -22.3125  -17.6176   21.3163 O   0  0  0  0  0  0  0  0  0  0  0  0
  -23.1507  -22.2232   19.1568 O   0  0  0  0  0  0  0  0  0  0  0  0
  -27.9794  -26.9985   22.1302 O   0  0  0  0  0  0  0  0  0  0  0  0
  -17.0982  -26.1015   22.9823 O   0  0  0  0  0  0  0  0  0  0  0  0
  -29.9790  -21.1023   20.2727 O   0  0  0  0  0  0  0  0  0  1  0  0
  -35.4101  -25.1188   14.8971 O   0  0  0  0  0  0  0  0  0  0  0  0
  -14.8032  -24.0443   18.4101 F   0  0  0  0  0  0  0  0  0  0  0  0
  -14.5726  -26.8927   22.1836 F   0  0  0  0  0  0  0  0  0  0  0  0
  1  2  1  0  0  0  0
  1  5  2  0  0  0  0
  2  6  2  0  0  0  0
  3  9  2  0  0  0  0
  3 17  1  0  0  0  0
  4 10  1  0  0  0  0
  4 17  2  0  0  0  0
  5 19  1  0  0  0  0
  6 21  1  0  0  0  0
  7 11  2  0  0  0  0
  7 20  1  0  0  0  0
  8 12  2  0  0  0  0
  8 25  1  0  0  0  0
  9 26  1  0  0  0  0
 10 26  2  0  0  0  0
 11 27  1  0  0  0  0
 12 28  1  0  0  0  0
 13 14  2  0  0  0  0
 13 29  1  0  0  0  0
 14 30  1  0  0  0  0
 15 22  1  0  0  0  0
 15 27  2  0  0  0  0
 16 30  2  0  0  0  0
 16 31  1  0  0  0  0
 17 32  1  0  0  0  0
 18 32  1  0  0  0  0
 18 33  2  0  0  0  0
 18 34  1  0  0  0  0
 19 21  2  0  0  0  0
 19 39  1  0  0  0  0
 20 22  2  0  0  0  0
 20 40  1  0  0  0  0
 21 54  1  0  0  0  0
 22 41  1  0  0  0  0
 23 24  1  0  0  0  0
 23 25  2  0  0  0  0
 23 53  1  0  0  0  0
 24 28  2  0  0  0  0
 24 58  1  0  0  0  0
 25 75  1  0  0  0  0
 26 90  1  0  0  0  0
 27 91  1  0  0  0  0
 28 92  1  0  0  0  0
 29 31  2  0  0  0  0
 29 90  1  0  0  0  0
 30 93  1  0  0  0  0
 31 94  1  0  0  0  0
 32 73  2  0  0  0  0
 33 74  1  0  0  0  0
 33 79  1  0  0  0  0
 34 80  1  0  0  0  0
 34 85  2  0  0  0  0
 35 55  1  0  0  0  0
 35 81  1  0  0  0  0
 35 86  2  0  0  0  0
 36 69  1  0  0  0  0
 36 76  1  0  0  0  0
 36 87  2  0  0  0  0
 37 70  1  0  0  0  0
 37 82  1  0  0  0  0
 37 88  2  0  0  0  0
 38 77  1  0  0  0  0
 38 78  1  0  0  0  0
 38 89  2  0  0  0  0
 39 42  1  0  0  0  0
 40 55  1  0  0  0  0
 41 76  1  0  0  0  0
 42 44  1  0  0  0  0
 43 45  1  0  0  0  0
 43 47  1  0  0  0  0
 44 54  1  0  0  0  0
 45 57  1  0  0  0  0
 46 53  1  0  0  0  0
 46 56  1  0  0  0  0
 47 77  1  0  0  0  0
 48 50  1  0  0  0  0
 48 75  1  0  0  0  0
 49 51  1  0  0  0  0
 49 75  1  0  0  0  0
 50 78  1  0  0  0  0
 51 78  1  0  0  0  0
 52 57  1  0  0  0  0
 52 77  1  0  0  0  0
 53 56  1  0  0  0  0
 54 81  1  0  0  0  0
 55 76  1  0  0  0  0
 56 71  1  0  0  0  0
 57 74  1  0  0  0  0
 59 70  1  0  0  0  0
 60 71  1  0  0  0  0
 61 72  1  0  0  0  0
 62 72  1  0  0  0  0
 63 72  1  0  0  0  0
 64 83  1  0  0  0  0
 65 84  1  0  0  0  0
 66 67  1  0  0  0  0
 66 83  1  0  0  0  0
 67 92  1  0  0  0  0
 68 71  1  0  0  0  0
 68 91  1  0  0  0  0
 69 72  1  0  0  0  0
 69 82  1  0  0  0  0
 70 84  1  0  0  0  0
 73 74  1  0  0  0  0
M  CHG  2  83   1  84   1
M  ISO  4  38 100  68 101  78 100  91 101
M  END
> <Batch ID>
0158

> <Smiles>
CNCCOc1ccc(N2CC[100N:0]([100C:0](=O)N3CCCC(n4nc(-c5ccc(Oc6ccc(F)cc6F)cc5)c(C(N)=O)c4N)C3)CC2)c(C2CC2C(C)[101CH2:1][101O:1]c2ccc3c(c2)CN(C(=O)C(NC(=O)C(C)NC)C(C)(C)C)C(C(=O)NC2CCCc4ccccc42)C3)c1C

> <Shape>
0.212

> <Color>
0.071

> <Negative vol penalty>
0.000

$$$$

  -OEChem-04052322043D

 93103  0     1  0  0  0  0  0999 V2000
  -17.3521  -32.0820   20.5576 C   0  0  0  0  0  0  0  0  0  0  0  0
  -18.7048  -32.3699   20.4062 C   0  0  0  0  0  0  0  0  0  0  0  0
  -23.0427   -9.9832   19.9378 C   0  0  0  0  0  0  0  0  0  0  0  0
  -23.6136  -10.0211   22.2851 C   0  0  0  0  0  0  0  0  0  0  0  0
  -16.9311  -31.2361   21.5828 C   0  0  0  0  0  0  0  0  0  0  0  0
  -19.6371  -31.8128   21.2808 C   0  0  0  0  0  0  0  0  0  0  0  0
  -25.0108  -27.6854   18.8354 C   0  0  0  0  0  0  0  0  0  0  0  0
  -22.2089   -8.8870   20.1582 C   0  0  0  0  0  0  0  0  0  0  0  0
  -22.7797   -8.9248   22.5055 C   0  0  0  0  0  0  0  0  0  0  0  0
  -26.1880  -27.0591   18.4254 C   0  0  0  0  0  0  0  0  0  0  0  0
  -22.9020   -5.5743   22.0696 C   0  0  0  0  0  0  0  0  0  0  0  0
  -23.3906   -4.5380   22.8651 C   0  0  0  0  0  0  0  0  0  0  0  0
  -26.8277  -26.7267   20.7337 C   0  0  0  0  0  0  0  0  0  0  0  0
  -21.5714   -4.8732   24.4192 C   0  0  0  0  0  0  0  0  0  0  0  0
  -23.7451  -10.5503   21.0012 C   0  0  0  0  0  0  0  0  0  0  0  0
  -24.2561  -13.0442   20.8377 C   0  0  0  0  0  0  0  0  0  0  0  0
  -17.8597  -30.6606   22.4644 C   0  0  0  0  0  0  0  0  0  0  0  0
  -24.7300  -27.8211   20.1978 C   0  0  0  0  0  0  0  0  0  0  0  0
  -19.2280  -30.9594   22.3196 C   0  0  0  0  0  0  0  0  0  0  0  0
  -25.6443  -27.3420   21.1504 C   0  0  0  0  0  0  0  0  0  0  0  0
  -22.0774   -8.3578   21.4421 C   0  0  0  0  0  0  0  0  0  0  0  0
  -27.0943  -26.5812   19.3722 C   0  0  0  0  0  0  0  0  0  0  0  0
  -21.7480   -6.2601   22.4488 C   0  0  0  0  0  0  0  0  0  0  0  0
  -22.7253   -4.1874   24.0399 C   0  0  0  0  0  0  0  0  0  0  0  0
  -21.0827   -5.9095   23.6236 C   0  0  0  0  0  0  0  0  0  0  0  0
  -24.6070  -11.6824   20.7741 C   0  0  0  0  0  0  0  0  0  0  0  0
  -25.4197  -13.7126   20.5448 C   0  0  0  0  0  0  0  0  0  0  0  0
  -30.7144  -17.6229   21.3944 C   0  0  0  0  0  0  0  0  0  0  0  0
  -28.2685  -16.3111   23.4929 C   0  0  0  0  0  0  0  0  0  0  0  0
  -30.4858  -18.8780   21.8195 C   0  0  0  0  0  0  0  0  0  0  0  0
  -28.8635  -17.3293   24.1568 C   0  0  0  0  0  0  0  0  0  0  0  0
  -30.1257  -19.4331   24.0285 C   0  0  0  0  0  0  0  0  0  0  0  0
  -22.9915  -13.6508   21.1350 C   0  0  0  0  0  0  0  0  0  0  0  0
  -29.7972  -19.7711   20.8763 C   0  0  0  0  0  0  0  0  0  0  0  0
  -22.3434  -29.0380   22.8245 C   0  0  0  0  0  0  0  0  0  0  0  0
  -23.4182  -26.3295   23.7831 C   0  0  0  0  0  0  0  0  0  0  0  0
  -24.5170  -23.1377   24.2754 C   0  0  0  0  0  0  0  0  0  0  0  0
  -30.7854  -14.5289   20.9263 C   0  0  0  0  0  0  0  0  0  0  0  0
  -17.3523  -29.7899   23.5864 C   0  0  0  0  0  0  0  0  0  0  0  0
  -23.5035  -28.5437   20.6852 C   0  0  0  0  0  0  0  0  0  0  0  0
  -25.3169  -27.5410   22.6051 C   0  0  0  0  0  0  0  0  0  0  0  0
  -31.4463  -16.5551   22.1670 C   0  0  0  0  0  0  0  0  0  0  0  0
  -18.4410  -28.9425   24.2399 C   0  0  0  0  0  0  0  0  0  0  0  0
  -29.8433  -12.0384   18.7630 C   0  0  0  0  0  0  0  0  0  0  0  0
  -19.6761  -29.7900   24.5280 C   0  0  0  0  0  0  0  0  0  0  0  0
  -28.3612  -11.8272   19.0745 C   0  0  0  0  0  0  0  0  0  0  0  0
  -30.6454  -23.2740   20.0315 C   0  0  0  0  0  0  0  0  0  0  0  0
  -28.3166  -22.6935   20.8358 C   0  0  0  0  0  0  0  0  0  0  0  0
  -30.0712  -24.4285   19.2148 C   0  0  0  0  0  0  0  0  0  0  0  0
  -27.7498  -23.8506   20.0173 C   0  0  0  0  0  0  0  0  0  0  0  0
  -30.6504  -12.2244   20.0438 C   0  0  0  0  0  0  0  0  0  0  0  0
  -30.3423  -14.6640   23.4239 C   0  0  0  0  0  0  0  0  0  0  0  0
  -28.6923  -13.1247   21.2332 C   0  0  0  0  0  0  0  0  0  0  0  0
  -20.2721  -30.3547   23.2329 C   0  0  1  0  0  0  0  0  0  0  0  0
  -29.2208  -15.3819   24.1775 C   0  0  1  0  0  0  0  0  0  0  0  0
  -28.6953  -18.8749   24.0570 C   0  0  2  0  0  0  0  0  0  0  0  0
  -22.9232  -27.9430   21.9782 C   0  0  1  0  0  0  0  0  0  0  0  0
  -27.8203  -12.9528   19.9739 C   0  0  2  0  0  0  0  0  0  0  0  0
  -29.6135  -22.1587   20.2226 C   0  0  0  0  0  0  0  0  0  0  0  0
  -28.7784  -24.9637   19.8259 C   0  0  0  0  0  0  0  0  0  1  0  0
  -30.7046  -20.0047   25.3060 C   0  0  0  0  0  0  0  0  0  0  0  0
  -27.8263  -19.3971   25.1910 C   0  0  0  0  0  0  0  0  0  0  0  0
  -24.3728  -21.2340   25.9041 C   0  0  0  0  0  0  0  0  0  0  0  0
  -25.3521  -27.7795   25.6436 C   0  0  0  0  0  0  0  0  0  0  0  0
  -25.8985  -25.5684   26.6831 C   0  0  0  0  0  0  0  0  0  0  0  0
  -23.5732  -26.4627   26.8081 C   0  0  0  0  0  0  0  0  0  0  0  0
  -23.2870  -21.3538   22.2595 C   0  0  0  0  0  0  0  0  0  0  0  0
  -24.4509  -25.5961   24.6011 C   0  0  1  0  0  0  0  0  0  0  0  0
  -23.7802  -21.8656   24.6540 C   0  0  2  0  0  0  0  0  0  0  0  0
  -24.8220  -26.3557   25.9060 C   0  0  0  0  0  0  0  0  0  0  0  0
  -25.8928  -11.4951   20.4649 N   0  0  0  0  0  0  0  0  0  0  0  0
  -30.9237  -19.4129   22.9989 N   0  0  0  0  0  0  0  0  0  0  0  0
  -26.3601  -12.7480   20.3315 N   0  0  0  0  0  0  0  0  0  0  0  0
  -23.8941  -27.2523   22.8438 N   0  0  0  0  0  0  0  0  0  0  0  0
  -30.6906  -15.2844   22.1249 N   0  0  0  0  0  0  0  0  0  0  0  0
  -30.0992  -13.3076   20.8604 N   0  0  0  0  0  0  0  0  0  0  0  0
  -25.7199  -15.0254   20.4514 N   0  0  0  0  0  0  0  0  0  0  0  0
  -21.8996  -12.8173   21.4132 N   0  0  0  0  0  0  0  0  0  0  0  0
  -30.1553  -21.0966   21.0353 N   0  0  0  0  0  0  0  0  0  0  0  0
  -21.0249  -29.3340   22.5359 N   0  0  0  0  0  0  0  0  0  0  0  0
  -23.9206  -24.2549   24.8207 N   0  0  0  0  0  0  0  0  0  0  0  0
  -23.8563  -20.8732   23.5448 N   0  3  0  0  0  0  0  0  0  0  0  0
  -22.8304  -14.8948   21.1373 O   0  0  0  0  0  0  0  0  0  0  0  0
  -29.0000  -19.3248   20.0553 O   0  0  0  0  0  0  0  0  0  0  0  0
  -23.0397  -29.5748   23.6782 O   0  0  0  0  0  0  0  0  0  0  0  0
  -22.2213  -26.0965   23.9737 O   0  0  0  0  0  0  0  0  0  0  0  0
  -25.5234  -23.1397   23.5699 O   0  0  0  0  0  0  0  0  0  0  0  0
  -31.4683  -14.9209   19.9695 O   0  0  0  0  0  0  0  0  0  0  0  0
  -29.6813  -16.5920   24.8284 O   0  0  0  0  0  0  0  0  0  0  0  0
  -21.2637   -7.2882   21.6576 O   0  0  0  0  0  0  0  0  0  0  0  0
  -28.2470  -25.9628   18.9624 O   0  0  0  0  0  0  0  0  0  1  0  0
  -23.1939   -3.1912   24.8029 F   0  0  0  0  0  0  0  0  0  0  0  0
  -19.9730   -6.5639   23.9926 F   0  0  0  0  0  0  0  0  0  0  0  0
  1  2  1  0  0  0  0
  1  5  2  0  0  0  0
  2  6  2  0  0  0  0
  3  8  2  0  0  0  0
  3 15  1  0  0  0  0
  4  9  1  0  0  0  0
  4 15  2  0  0  0  0
  5 17  1  0  0  0  0
  6 19  1  0  0  0  0
  7 10  2  0  0  0  0
  7 18  1  0  0  0  0
  8 21  1  0  0  0  0
  9 21  2  0  0  0  0
 10 22  1  0  0  0  0
 11 12  2  0  0  0  0
 11 23  1  0  0  0  0
 12 24  1  0  0  0  0
 13 20  1  0  0  0  0
 13 22  2  0  0  0  0
 14 24  2  0  0  0  0
 14 25  1  0  0  0  0
 15 26  1  0  0  0  0
 16 26  1  0  0  0  0
 16 27  2  0  0  0  0
 16 33  1  0  0  0  0
 17 19  2  0  0  0  0
 17 39  1  0  0  0  0
 18 20  2  0  0  0  0
 18 40  1  0  0  0  0
 19 54  1  0  0  0  0
 20 41  1  0  0  0  0
 21 90  1  0  0  0  0
 22 91  1  0  0  0  0
 23 25  2  0  0  0  0
 23 90  1  0  0  0  0
 24 92  1  0  0  0  0
 25 93  1  0  0  0  0
 26 71  2  0  0  0  0
 27 73  1  0  0  0  0
 27 77  1  0  0  0  0
 28 30  2  0  0  0  0
 28 42  1  0  0  0  0
 29 31  2  0  0  0  0
 29 55  1  0  0  0  0
 30 34  1  0  0  0  0
 30 72  1  0  0  0  0
 31 56  1  0  0  0  0
 31 89  1  0  0  0  0
 32 56  1  0  0  0  0
 32 61  1  0  0  0  0
 32 72  2  0  0  0  0
 33 78  1  0  0  0  0
 33 83  2  0  0  0  0
 34 79  1  0  0  0  0
 34 84  2  0  0  0  0
 35 57  1  0  0  0  0
 35 80  1  0  0  0  0
 35 85  2  0  0  0  0
 36 68  1  0  0  0  0
 36 74  1  0  0  0  0
 36 86  2  0  0  0  0
 37 69  1  0  0  0  0
 37 81  1  0  0  0  0
 37 87  2  0  0  0  0
 38 75  1  0  0  0  0
 38 76  1  0  0  0  0
 38 88  2  0  0  0  0
 39 43  1  0  0  0  0
 40 57  1  0  0  0  0
 41 74  1  0  0  0  0
 42 75  1  0  0  0  0
 43 45  1  0  0  0  0
 44 46  1  0  0  0  0
 44 51  1  0  0  0  0
 45 54  1  0  0  0  0
 46 58  1  0  0  0  0
 47 49  1  0  0  0  0
 47 59  1  0  0  0  0
 48 50  1  0  0  0  0
 48 59  1  0  0  0  0
 49 60  1  0  0  0  0
 50 60  1  0  0  0  0
 51 76  1  0  0  0  0
 52 55  1  0  0  0  0
 52 75  1  0  0  0  0
 53 58  1  0  0  0  0
 53 76  1  0  0  0  0
 54 80  1  0  0  0  0
 55 89  1  0  0  0  0
 56 62  1  0  0  0  0
 57 74  1  0  0  0  0
 58 73  1  0  0  0  0
 59 79  1  0  0  0  0
 60 91  1  0  0  0  0
 63 69  1  0  0  0  0
 64 70  1  0  0  0  0
 65 70  1  0  0  0  0
 66 70  1  0  0  0  0
 67 82  1  0  0  0  0
 68 70  1  0  0  0  0
 68 81  1  0  0  0  0
 69 82  1  0  0  0  0
 71 73  1  0  0  0  0
M  CHG  1  82   1
M  ISO  4  38 100  60 101  75 100  91 101
M  END
> <Batch ID>
0158

> <Smiles>
CNC(C)C(=O)NC(C(=O)N1Cc2cc([101O:1][101CH:1]3CCC(NC(=O)C4=NC(C)=C(C)C5=CC(C[100N:0]([100C:0](=O)N6CCCC(n7nc(-c8ccc(Oc9ccc(F)cc9F)cc8)c(C(N)=O)c7N)C6)CC4)O5)CC3)ccc2CC1C(=O)NC1CCCc2ccccc21)C(C)(C)C

> <Shape>
0.316

> <Color>
0.236

> <Negative vol penalty>
0.000

$$$$

  -OEChem-04052322043D

 90 99  0     1  0  0  0  0  0999 V2000
  -30.8958  -30.0428   21.2978 C   0  0  0  0  0  0  0  0  0  0  0  0
  -30.3639  -28.7600   21.2143 C   0  0  0  0  0  0  0  0  0  0  0  0
  -23.1003  -10.3531   22.1231 C   0  0  0  0  0  0  0  0  0  0  0  0
  -23.8221   -9.4407   20.0056 C   0  0  0  0  0  0  0  0  0  0  0  0
  -31.2500  -30.7263   20.1353 C   0  0  0  0  0  0  0  0  0  0  0  0
  -30.1849  -28.1604   19.9682 C   0  0  0  0  0  0  0  0  0  0  0  0
  -31.7457  -23.3435   19.8880 C   0  0  0  0  0  0  0  0  0  0  0  0
  -22.3418   -9.2064   22.3587 C   0  0  0  0  0  0  0  0  0  0  0  0
  -23.0636   -8.2940   20.2412 C   0  0  0  0  0  0  0  0  0  0  0  0
  -30.9026  -22.3914   20.4592 C   0  0  0  0  0  0  0  0  0  0  0  0
  -19.3633   -7.9456   21.3772 C   0  0  0  0  0  0  0  0  0  0  0  0
  -18.0648   -8.1158   21.8573 C   0  0  0  0  0  0  0  0  0  0  0  0
  -30.1106  -21.7840   18.2630 C   0  0  0  0  0  0  0  0  0  0  0  0
  -18.6289   -6.8450   23.8332 C   0  0  0  0  0  0  0  0  0  0  0  0
  -23.8404  -10.4702   20.9466 C   0  0  0  0  0  0  0  0  0  0  0  0
  -24.1560  -12.9794   20.6117 C   0  0  0  0  0  0  0  0  0  0  0  0
  -31.0843  -30.1310   18.8749 C   0  0  0  0  0  0  0  0  0  0  0  0
  -31.7697  -23.5309   18.4985 C   0  0  0  0  0  0  0  0  0  0  0  0
  -30.5360  -28.8371   18.7877 C   0  0  0  0  0  0  0  0  0  0  0  0
  -30.9568  -22.7374   17.6765 C   0  0  0  0  0  0  0  0  0  0  0  0
  -33.2346  -14.7265   24.4675 C   0  0  0  0  0  0  0  0  0  0  0  0
  -32.8768  -15.8604   25.1968 C   0  0  0  0  0  0  0  0  0  0  0  0
  -32.8939  -14.6287   23.1184 C   0  0  0  0  0  0  0  0  0  0  0  0
  -32.1782  -16.8965   24.5771 C   0  0  0  0  0  0  0  0  0  0  0  0
  -32.1953  -15.6648   22.4987 C   0  0  0  0  0  0  0  0  0  0  0  0
  -31.8374  -16.7987   23.2280 C   0  0  0  0  0  0  0  0  0  0  0  0
  -22.3235   -8.1769   21.4178 C   0  0  0  0  0  0  0  0  0  0  0  0
  -30.0827  -21.6135   19.6469 C   0  0  0  0  0  0  0  0  0  0  0  0
  -20.2946   -7.2251   22.1251 C   0  0  0  0  0  0  0  0  0  0  0  0
  -17.6976   -7.5655   23.0853 C   0  0  0  0  0  0  0  0  0  0  0  0
  -19.9274   -6.6749   23.3531 C   0  0  0  0  0  0  0  0  0  0  0  0
  -24.6237  -11.6547   20.7024 C   0  0  0  0  0  0  0  0  0  0  0  0
  -25.2836  -13.7260   20.3719 C   0  0  0  0  0  0  0  0  0  0  0  0
  -22.8216  -13.4894   20.7334 C   0  0  0  0  0  0  0  0  0  0  0  0
  -31.1047  -25.9525   16.5498 C   0  0  0  0  0  0  0  0  0  0  0  0
  -32.2553  -23.9359   14.2844 C   0  0  0  0  0  0  0  0  0  0  0  0
  -32.8907  -20.7256   13.3164 C   0  0  0  0  0  0  0  0  0  0  0  0
  -30.9662  -12.7985   21.6773 C   0  0  0  0  0  0  0  0  0  0  0  0
  -31.4377  -30.9274   17.6438 C   0  0  0  0  0  0  0  0  0  0  0  0
  -32.7044  -24.5436   17.8958 C   0  0  0  0  0  0  0  0  0  0  0  0
  -30.9601  -22.8854   16.1776 C   0  0  0  0  0  0  0  0  0  0  0  0
  -31.5651  -30.0758   16.3833 C   0  0  0  0  0  0  0  0  0  0  0  0
  -29.6226  -13.4204   18.3750 C   0  0  0  0  0  0  0  0  0  0  0  0
  -30.3876  -29.1130   16.2683 C   0  0  0  0  0  0  0  0  0  0  0  0
  -28.1319  -13.1601   18.5991 C   0  0  0  0  0  0  0  0  0  0  0  0
  -29.1094  -18.6612   21.4658 C   0  0  0  0  0  0  0  0  0  0  0  0
  -31.2199  -19.9980   21.4135 C   0  0  0  0  0  0  0  0  0  0  0  0
  -30.4806  -12.4491   19.1803 C   0  0  0  0  0  0  0  0  0  0  0  0
  -29.6690  -17.8150   22.6080 C   0  0  0  0  0  0  0  0  0  0  0  0
  -31.7838  -19.1572   22.5569 C   0  0  0  0  0  0  0  0  0  0  0  0
  -28.7058  -12.1818   20.8693 C   0  0  0  0  0  0  0  0  0  0  0  0
  -30.3498  -28.1434   17.4557 C   0  0  1  0  0  0  0  0  0  0  0  0
  -32.2707  -25.0057   16.5081 C   0  0  1  0  0  0  0  0  0  0  0  0
  -27.7850  -13.1461   20.0997 C   0  0  2  0  0  0  0  0  0  0  0  0
  -29.6891  -20.0786   21.4247 C   0  0  0  0  0  0  0  0  0  1  0  0
  -33.9841  -13.6151   25.1323 C   0  0  0  0  0  0  0  0  0  0  0  0
  -33.2425  -15.9649   26.6440 C   0  0  0  0  0  0  0  0  0  0  0  0
  -31.7958  -18.1119   25.3630 C   0  0  0  0  0  0  0  0  0  0  0  0
  -31.8314  -15.5564   21.0506 C   0  0  0  0  0  0  0  0  0  0  0  0
  -29.1641  -20.9429   22.5749 C   0  0  0  0  0  0  0  0  0  0  0  0
  -34.6597  -13.5416   21.6825 C   0  0  0  0  0  0  0  0  0  0  0  0
  -33.8001  -19.3906   11.3959 C   0  0  0  0  0  0  0  0  0  0  0  0
  -29.6546  -24.3757   12.7505 C   0  0  0  0  0  0  0  0  0  0  0  0
  -30.1990  -22.3493   11.3846 C   0  0  0  0  0  0  0  0  0  0  0  0
  -31.7107  -24.3328   11.3274 C   0  0  0  0  0  0  0  0  0  0  0  0
  -35.0787  -19.6166   14.9722 C   0  0  0  0  0  0  0  0  0  0  0  0
  -33.2783  -13.4124   22.3362 C   0  0  2  0  0  0  0  0  0  0  0  0
  -31.6555  -22.8757   13.3927 C   0  0  1  0  0  0  0  0  0  0  0  0
  -34.1250  -20.0816   12.7111 C   0  0  2  0  0  0  0  0  0  0  0  0
  -30.8033  -23.4817   12.2421 C   0  0  0  0  0  0  0  0  0  0  0  0
  -25.9454  -11.5618   20.5338 N   0  0  0  0  0  0  0  0  0  0  0  0
  -26.3179  -12.8377   20.3346 N   0  0  0  0  0  0  0  0  0  0  0  0
  -31.1357  -17.8396   22.6054 N   0  0  0  0  0  0  0  0  0  0  0  0
  -31.8866  -23.8935   15.6365 N   0  0  0  0  0  0  0  0  0  0  0  0
  -30.1129  -12.4982   20.6025 N   0  0  0  0  0  0  0  0  0  0  0  0
  -25.4815  -15.0491   20.1913 N   0  0  0  0  0  0  0  0  0  0  0  0
  -22.0352  -13.5860   19.5773 N   0  0  0  0  0  0  0  0  0  0  0  0
  -31.3365  -27.0983   17.2865 N   0  0  0  0  0  0  0  0  0  0  0  0
  -32.7671  -22.0463   12.9400 N   0  0  0  0  0  0  0  0  0  0  0  0
  -32.2844  -13.0798   21.3400 N   0  0  0  0  0  0  0  0  0  0  0  0
  -34.6925  -19.0695   13.6461 N   0  3  0  0  0  0  0  0  0  0  0  0
  -22.3464  -13.8643   21.8321 O   0  0  0  0  0  0  0  0  0  0  0  0
  -30.0718  -25.6654   15.9561 O   0  0  0  0  0  0  0  0  0  0  0  0
  -33.0283  -24.7666   13.8006 O   0  0  0  0  0  0  0  0  0  0  0  0
  -32.1120  -20.1168   14.0468 O   0  0  0  0  0  0  0  0  0  0  0  0
  -30.5804  -12.8199   22.8511 O   0  0  0  0  0  0  0  0  0  0  0  0
  -21.5836   -7.0578   21.6474 O   0  0  0  0  0  0  0  0  0  0  0  0
  -29.2583  -20.6839   20.2020 O   0  0  0  0  0  0  0  0  0  1  0  0
  -16.4511   -7.7303   23.5470 F   0  0  0  0  0  0  0  0  0  0  0  0
  -20.8181   -5.9827   24.0766 F   0  0  0  0  0  0  0  0  0  0  0  0
  1  2  1  0  0  0  0
  1  5  2  0  0  0  0
  2  6  2  0  0  0  0
  3  8  2  0  0  0  0
  3 15  1  0  0  0  0
  4  9  1  0  0  0  0
  4 15  2  0  0  0  0
  5 17  1  0  0  0  0
  6 19  1  0  0  0  0
  7 10  2  0  0  0  0
  7 18  1  0  0  0  0
  8 27  1  0  0  0  0
  9 27  2  0  0  0  0
 10 28  1  0  0  0  0
 11 12  2  0  0  0  0
 11 29  1  0  0  0  0
 12 30  1  0  0  0  0
 13 20  1  0  0  0  0
 13 28  2  0  0  0  0
 14 30  2  0  0  0  0
 14 31  1  0  0  0  0
 15 32  1  0  0  0  0
 16 32  1  0  0  0  0
 16 33  2  0  0  0  0
 16 34  1  0  0  0  0
 17 19  2  0  0  0  0
 17 39  1  0  0  0  0
 18 20  2  0  0  0  0
 18 40  1  0  0  0  0
 19 52  1  0  0  0  0
 20 41  1  0  0  0  0
 21 22  1  0  0  0  0
 21 23  2  0  0  0  0
 21 56  1  0  0  0  0
 22 24  2  0  0  0  0
 22 57  1  0  0  0  0
 23 25  1  0  0  0  0
 23 67  1  0  0  0  0
 24 26  1  0  0  0  0
 24 58  1  0  0  0  0
 25 26  2  0  0  0  0
 25 59  1  0  0  0  0
 26 73  1  0  0  0  0
 27 87  1  0  0  0  0
 28 88  1  0  0  0  0
 29 31  2  0  0  0  0
 29 87  1  0  0  0  0
 30 89  1  0  0  0  0
 31 90  1  0  0  0  0
 32 71  2  0  0  0  0
 33 72  1  0  0  0  0
 33 76  1  0  0  0  0
 34 77  1  0  0  0  0
 34 82  2  0  0  0  0
 35 53  1  0  0  0  0
 35 78  1  0  0  0  0
 35 83  2  0  0  0  0
 36 68  1  0  0  0  0
 36 74  1  0  0  0  0
 36 84  2  0  0  0  0
 37 69  1  0  0  0  0
 37 79  1  0  0  0  0
 37 85  2  0  0  0  0
 38 75  1  0  0  0  0
 38 80  1  0  0  0  0
 38 86  2  0  0  0  0
 39 42  1  0  0  0  0
 40 53  1  0  0  0  0
 41 74  1  0  0  0  0
 42 44  1  0  0  0  0
 43 45  1  0  0  0  0
 43 48  1  0  0  0  0
 44 52  1  0  0  0  0
 45 54  1  0  0  0  0
 46 49  1  0  0  0  0
 46 55  1  0  0  0  0
 47 50  1  0  0  0  0
 47 55  1  0  0  0  0
 48 75  1  0  0  0  0
 49 73  1  0  0  0  0
 50 73  1  0  0  0  0
 51 54  1  0  0  0  0
 51 75  1  0  0  0  0
 52 78  1  0  0  0  0
 53 74  1  0  0  0  0
 54 72  1  0  0  0  0
 55 60  1  0  0  0  0
 55 88  1  0  0  0  0
 61 67  1  0  0  0  0
 62 69  1  0  0  0  0
 63 70  1  0  0  0  0
 64 70  1  0  0  0  0
 65 70  1  0  0  0  0
 66 81  1  0  0  0  0
 67 80  1  0  0  0  0
 68 70  1  0  0  0  0
 68 79  1  0  0  0  0
 69 81  1  0  0  0  0
 71 72  1  0  0  0  0
M  CHG  1  81   1
M  ISO  4  38 100  55 101  80 100  88 101
M  END
> <Batch ID>
0158

> <Smiles>
CNC(C)C(=O)NC(C(=O)N1Cc2cc([101O:1][101C:1]3(C)CCN(c4c(C)c(C)c(C)c(C(C)[100NH:0][100C:0](=O)N5CCCC(n6nc(-c7ccc(Oc8ccc(F)cc8F)cc7)c(C(N)=O)c6N)C5)c4C)CC3)ccc2CC1C(=O)NC1CCCc2ccccc21)C(C)(C)C

> <Shape>
0.190

> <Color>
0.164

> <Negative vol penalty>
0.000

$$$$

  -OEChem-04052322043D

 88 98  0     1  0  0  0  0  0999 V2000
  -29.8880  -25.8659   16.7614 C   0  0  0  0  0  0  0  0  0  0  0  0
  -28.5299  -25.7808   17.0510 C   0  0  0  0  0  0  0  0  0  0  0  0
  -23.0454  -10.0003   22.1011 C   0  0  0  0  0  0  0  0  0  0  0  0
  -22.8429  -10.0411   19.6939 C   0  0  0  0  0  0  0  0  0  0  0  0
  -30.7667  -26.4083   17.6981 C   0  0  0  0  0  0  0  0  0  0  0  0
  -28.0499  -26.2372   18.2781 C   0  0  0  0  0  0  0  0  0  0  0  0
  -22.6486  -28.9164   19.3524 C   0  0  0  0  0  0  0  0  0  0  0  0
  -22.7136   -8.6455   22.1060 C   0  0  0  0  0  0  0  0  0  0  0  0
  -22.5112   -8.6863   19.6989 C   0  0  0  0  0  0  0  0  0  0  0  0
  -21.4392  -28.4257   19.8425 C   0  0  0  0  0  0  0  0  0  0  0  0
  -24.2533   -5.7016   21.4769 C   0  0  0  0  0  0  0  0  0  0  0  0
  -25.0187   -4.8497   22.2731 C   0  0  0  0  0  0  0  0  0  0  0  0
  -22.0425  -29.1679   22.0571 C   0  0  0  0  0  0  0  0  0  0  0  0
  -19.4079  -24.7423   24.1667 C   0  0  0  0  0  0  0  0  0  0  0  0
  -18.1177  -24.9102   26.6345 C   0  0  0  0  0  0  0  0  0  0  0  0
  -23.0410   -4.2359   23.5177 C   0  0  0  0  0  0  0  0  0  0  0  0
  -23.1100  -10.6982   20.8950 C   0  0  0  0  0  0  0  0  0  0  0  0
  -24.7399  -12.6578   20.7903 C   0  0  0  0  0  0  0  0  0  0  0  0
  -30.2959  -26.8805   18.9334 C   0  0  0  0  0  0  0  0  0  0  0  0
  -23.5704  -29.5278   20.2144 C   0  0  0  0  0  0  0  0  0  0  0  0
  -28.9234  -26.7853   19.2328 C   0  0  0  0  0  0  0  0  0  0  0  0
  -23.2618  -29.6678   21.5750 C   0  0  0  0  0  0  0  0  0  0  0  0
  -18.7092  -25.8994   24.5111 C   0  0  0  0  0  0  0  0  0  0  0  0
  -18.0642  -25.9834   25.7449 C   0  0  0  0  0  0  0  0  0  0  0  0
  -18.8163  -23.7531   26.2900 C   0  0  0  0  0  0  0  0  0  0  0  0
  -22.4466   -7.9885   20.9049 C   0  0  0  0  0  0  0  0  0  0  0  0
  -21.1372  -28.5488   21.1956 C   0  0  0  0  0  0  0  0  0  0  0  0
  -22.8817   -5.8208   21.7012 C   0  0  0  0  0  0  0  0  0  0  0  0
  -19.4614  -23.6691   25.0561 C   0  0  0  0  0  0  0  0  0  0  0  0
  -24.4126   -4.1168   23.2935 C   0  0  0  0  0  0  0  0  0  0  0  0
  -22.2756   -5.0879   22.7215 C   0  0  0  0  0  0  0  0  0  0  0  0
  -23.4521  -12.0978   20.8893 C   0  0  0  0  0  0  0  0  0  0  0  0
  -24.5285  -14.0143   20.8303 C   0  0  0  0  0  0  0  0  0  0  0  0
  -26.0134  -12.0096   20.6727 C   0  0  0  0  0  0  0  0  0  0  0  0
  -26.5532  -28.9026   21.1175 C   0  0  0  0  0  0  0  0  0  0  0  0
  -26.2848  -31.7652   22.6193 C   0  0  0  0  0  0  0  0  0  0  0  0
  -24.2512  -34.1377   23.9914 C   0  0  0  0  0  0  0  0  0  0  0  0
  -22.2395  -18.4392   22.8287 C   0  0  0  0  0  0  0  0  0  0  0  0
  -31.2906  -27.4153   19.9330 C   0  0  0  0  0  0  0  0  0  0  0  0
  -24.8590  -30.0759   19.6652 C   0  0  0  0  0  0  0  0  0  0  0  0
  -24.2084  -30.3343   22.5384 C   0  0  0  0  0  0  0  0  0  0  0  0
  -30.6486  -28.2201   21.0602 C   0  0  0  0  0  0  0  0  0  0  0  0
  -20.2655  -16.7042   20.5017 C   0  0  0  0  0  0  0  0  0  0  0  0
  -29.4364  -27.4823   21.6196 C   0  0  0  0  0  0  0  0  0  0  0  0
  -21.0259  -15.3835   20.3837 C   0  0  0  0  0  0  0  0  0  0  0  0
  -20.8248  -21.8486   22.4802 C   0  0  0  0  0  0  0  0  0  0  0  0
  -19.2540  -20.4438   23.8833 C   0  0  0  0  0  0  0  0  0  0  0  0
  -19.1153  -28.3989   23.9979 C   0  0  0  0  0  0  0  0  0  0  0  0
  -20.2099  -17.2063   21.9455 C   0  0  0  0  0  0  0  0  0  0  0  0
  -21.9601  -20.8899   22.8356 C   0  0  0  0  0  0  0  0  0  0  0  0
  -20.4253  -19.5200   24.2094 C   0  0  0  0  0  0  0  0  0  0  0  0
  -22.2944  -15.9874   22.4799 C   0  0  0  0  0  0  0  0  0  0  0  0
  -18.6650  -27.0356   23.5439 C   0  0  1  0  0  0  0  0  0  0  0  0
  -28.3610  -27.2924   20.5430 C   0  0  1  0  0  0  0  0  0  0  0  0
  -25.9467  -30.2201   20.7251 C   0  0  1  0  0  0  0  0  0  0  0  0
  -22.4178  -15.4874   21.0322 C   0  0  1  0  0  0  0  0  0  0  0  0
  -19.7119  -21.8596   23.5288 C   0  0  0  0  0  0  0  0  0  0  0  0
  -19.9627  -27.6167   23.0416 C   0  0  1  0  0  0  0  0  0  1  0  0
  -17.3095  -27.2113   26.1374 C   0  0  0  0  0  0  0  0  0  0  0  0
  -18.8631  -22.6140   27.2543 C   0  0  0  0  0  0  0  0  0  0  0  0
  -24.3241  -36.3488   25.1759 C   0  0  0  0  0  0  0  0  0  0  0  0
  -27.1524  -30.3595   25.1847 C   0  0  0  0  0  0  0  0  0  0  0  0
  -26.3025  -32.3324   26.4706 C   0  0  0  0  0  0  0  0  0  0  0  0
  -28.1673  -32.6189   24.8387 C   0  0  0  0  0  0  0  0  0  0  0  0
  -22.7106  -35.4700   21.8442 C   0  0  0  0  0  0  0  0  0  0  0  0
  -25.8222  -32.2178   23.9832 C   0  0  1  0  0  0  0  0  0  0  0  0
  -24.2134  -35.6468   23.8314 C   0  0  2  0  0  0  0  0  0  0  0  0
  -26.8439  -31.8678   25.1017 C   0  0  0  0  0  0  0  0  0  0  0  0
  -22.4936  -13.0230   20.9852 N   0  0  0  0  0  0  0  0  0  0  0  0
  -23.1795  -14.1780   20.9466 N   0  0  0  0  0  0  0  0  0  0  0  0
  -25.4583  -30.8483   21.9544 N   0  0  0  0  0  0  0  0  0  0  0  0
  -21.5554  -17.2505   22.5334 N   0  0  0  0  0  0  0  0  0  0  0  0
  -21.4559  -19.5567   23.1630 N   0  0  0  0  0  0  0  0  0  0  0  0
  -25.3668  -15.0711   20.7770 N   0  0  0  0  0  0  0  0  0  0  0  0
  -26.0503  -10.6088   20.6465 N   0  0  0  0  0  0  0  0  0  0  0  0
  -27.6289  -28.5237   20.3372 N   0  0  0  0  0  0  0  0  0  0  0  0
  -25.5317  -33.6425   23.8638 N   0  0  0  0  0  0  0  0  0  0  0  0
  -22.9381  -36.0675   23.1852 N   0  3  0  0  0  0  0  0  0  0  0  0
  -27.0882  -12.6534   20.6096 O   0  0  0  0  0  0  0  0  0  0  0  0
  -26.0811  -28.2767   22.0594 O   0  0  0  0  0  0  0  0  0  0  0  0
  -27.3368  -32.2144   22.1577 O   0  0  0  0  0  0  0  0  0  0  0  0
  -23.2458  -33.4658   24.2115 O   0  0  0  0  0  0  0  0  0  0  0  0
  -23.4748  -18.5021   22.7932 O   0  0  0  0  0  0  0  0  0  0  0  0
  -22.1230   -6.6664   20.9094 O   0  0  0  0  0  0  0  0  0  0  0  0
  -19.9552  -28.0691   21.6777 O   0  0  0  0  0  0  0  0  0  1  0  0
  -20.1519  -22.5400   24.7022 O   0  0  0  0  0  0  0  0  0  0  0  0
  -25.1475   -3.2976   24.0569 F   0  0  0  0  0  0  0  0  0  0  0  0
  -20.9581   -5.1974   22.9410 F   0  0  0  0  0  0  0  0  0  0  0  0
  1  2  1  0  0  0  0
  1  5  2  0  0  0  0
  2  6  2  0  0  0  0
  3  8  2  0  0  0  0
  3 17  1  0  0  0  0
  4  9  1  0  0  0  0
  4 17  2  0  0  0  0
  5 19  1  0  0  0  0
  6 21  1  0  0  0  0
  7 10  2  0  0  0  0
  7 20  1  0  0  0  0
  8 26  1  0  0  0  0
  9 26  2  0  0  0  0
 10 27  1  0  0  0  0
 11 12  2  0  0  0  0
 11 28  1  0  0  0  0
 12 30  1  0  0  0  0
 13 22  1  0  0  0  0
 13 27  2  0  0  0  0
 14 23  1  0  0  0  0
 14 29  2  0  0  0  0
 15 24  1  0  0  0  0
 15 25  2  0  0  0  0
 16 30  2  0  0  0  0
 16 31  1  0  0  0  0
 17 32  1  0  0  0  0
 18 32  1  0  0  0  0
 18 33  2  0  0  0  0
 18 34  1  0  0  0  0
 19 21  2  0  0  0  0
 19 39  1  0  0  0  0
 20 22  2  0  0  0  0
 20 40  1  0  0  0  0
 21 54  1  0  0  0  0
 22 41  1  0  0  0  0
 23 24  2  0  0  0  0
 23 53  1  0  0  0  0
 24 59  1  0  0  0  0
 25 29  1  0  0  0  0
 25 60  1  0  0  0  0
 26 84  1  0  0  0  0
 27 85  1  0  0  0  0
 28 31  2  0  0  0  0
 28 84  1  0  0  0  0
 29 86  1  0  0  0  0
 30 87  1  0  0  0  0
 31 88  1  0  0  0  0
 32 69  2  0  0  0  0
 33 70  1  0  0  0  0
 33 74  1  0  0  0  0
 34 75  1  0  0  0  0
 34 79  2  0  0  0  0
 35 55  1  0  0  0  0
 35 76  1  0  0  0  0
 35 80  2  0  0  0  0
 36 66  1  0  0  0  0
 36 71  1  0  0  0  0
 36 81  2  0  0  0  0
 37 67  1  0  0  0  0
 37 77  1  0  0  0  0
 37 82  2  0  0  0  0
 38 72  1  0  0  0  0
 38 73  1  0  0  0  0
 38 83  2  0  0  0  0
 39 42  1  0  0  0  0
 40 55  1  0  0  0  0
 41 71  1  0  0  0  0
 42 44  1  0  0  0  0
 43 45  1  0  0  0  0
 43 49  1  0  0  0  0
 44 54  1  0  0  0  0
 45 56  1  0  0  0  0
 46 50  1  0  0  0  0
 46 57  1  0  0  0  0
 47 51  1  0  0  0  0
 47 57  1  0  0  0  0
 48 53  1  0  0  0  0
 48 58  1  0  0  0  0
 49 72  1  0  0  0  0
 50 73  1  0  0  0  0
 51 73  1  0  0  0  0
 52 56  1  0  0  0  0
 52 72  1  0  0  0  0
 53 58  1  0  0  0  0
 54 76  1  0  0  0  0
 55 71  1  0  0  0  0
 56 70  1  0  0  0  0
 57 86  1  0  0  0  0
 58 85  1  0  0  0  0
 61 67  1  0  0  0  0
 62 68  1  0  0  0  0
 63 68  1  0  0  0  0
 64 68  1  0  0  0  0
 65 78  1  0  0  0  0
 66 68  1  0  0  0  0
 66 77  1  0  0  0  0
 67 78  1  0  0  0  0
 69 70  1  0  0  0  0
M  CHG  1  78   1
M  ISO  4  38 100  58 101  73 100  85 101
M  END
> <Batch ID>
0158

> <Smiles>
CNC(C)C(=O)NC(C(=O)N1Cc2cc([101O:1][101CH:1]3CC3c3cc(OC4CC[100N:0]([100C:0](=O)N5CCCC(n6nc(-c7ccc(Oc8ccc(F)cc8F)cc7)c(C(N)=O)c6N)C5)CC4)c(C)cc3C)ccc2CC1C(=O)NC1CCCc2ccccc21)C(C)(C)C

> <Shape>
0.307

> <Color>
0.120

> <Negative vol penalty>
0.000

$$$$

  -OEChem-04052322043D

 90100  0     1  0  0  0  0  0999 V2000
  -19.5717  -24.0439   22.8140 C   0  0  0  0  0  0  0  0  0  0  0  0
  -20.7718  -24.3364   22.1742 C   0  0  0  0  0  0  0  0  0  0  0  0
  -22.3447  -13.5710   21.6391 C   0  0  0  0  0  0  0  0  0  0  0  0
  -22.9722  -15.8941   21.4233 C   0  0  0  0  0  0  0  0  0  0  0  0
  -18.6884  -25.0721   23.1405 C   0  0  0  0  0  0  0  0  0  0  0  0
  -21.0889  -25.6574   21.8594 C   0  0  0  0  0  0  0  0  0  0  0  0
  -25.8783  -26.8327   23.0104 C   0  0  0  0  0  0  0  0  0  0  0  0
  -21.4072  -13.9147   22.6130 C   0  0  0  0  0  0  0  0  0  0  0  0
  -22.0347  -16.2378   22.3971 C   0  0  0  0  0  0  0  0  0  0  0  0
  -26.8699  -26.3935   22.1343 C   0  0  0  0  0  0  0  0  0  0  0  0
  -21.7982  -16.1499   25.7687 C   0  0  0  0  0  0  0  0  0  0  0  0
  -22.1955  -17.0421   26.7645 C   0  0  0  0  0  0  0  0  0  0  0  0
  -32.0512  -25.6775   18.5268 C   0  0  0  0  0  0  0  0  0  0  0  0
  -29.6743  -24.2364   18.4845 C   0  0  0  0  0  0  0  0  0  0  0  0
  -26.9585  -28.5908   21.1427 C   0  0  0  0  0  0  0  0  0  0  0  0
  -20.4585  -18.5766   26.0827 C   0  0  0  0  0  0  0  0  0  0  0  0
  -23.1273  -14.5607   21.0442 C   0  0  0  0  0  0  0  0  0  0  0  0
  -23.8490  -13.5751   18.8047 C   0  0  0  0  0  0  0  0  0  0  0  0
  -18.9991  -26.4072   22.8383 C   0  0  0  0  0  0  0  0  0  0  0  0
  -25.4109  -28.1535   22.9519 C   0  0  0  0  0  0  0  0  0  0  0  0
  -20.2083  -26.7042   22.1810 C   0  0  0  0  0  0  0  0  0  0  0  0
  -31.8528  -24.7008   17.5374 C   0  0  0  0  0  0  0  0  0  0  0  0
  -30.6642  -23.9457   17.5290 C   0  0  0  0  0  0  0  0  0  0  0  0
  -25.9628  -29.0450   22.0209 C   0  0  0  0  0  0  0  0  0  0  0  0
  -31.0679  -25.9352   19.4794 C   0  0  0  0  0  0  0  0  0  0  0  0
  -29.8765  -25.2194   19.4540 C   0  0  0  0  0  0  0  0  0  0  0  0
  -21.2521  -15.2481   22.9920 C   0  0  0  0  0  0  0  0  0  0  0  0
  -27.4081  -27.2718   21.1983 C   0  0  0  0  0  0  0  0  0  0  0  0
  -20.7310  -16.4711   24.9298 C   0  0  0  0  0  0  0  0  0  0  0  0
  -21.5257  -18.2554   26.9215 C   0  0  0  0  0  0  0  0  0  0  0  0
  -20.0611  -17.6844   25.0868 C   0  0  0  0  0  0  0  0  0  0  0  0
  -24.0963  -14.2062   20.0385 C   0  0  0  0  0  0  0  0  0  0  0  0
  -25.0877  -13.4625   18.2222 C   0  0  0  0  0  0  0  0  0  0  0  0
  -22.6102  -13.1306   18.2359 C   0  0  0  0  0  0  0  0  0  0  0  0
  -22.6015  -29.5142   22.3524 C   0  0  0  0  0  0  0  0  0  0  0  0
  -24.1800  -32.2271   23.1715 C   0  0  0  0  0  0  0  0  0  0  0  0
  -27.1569  -33.8686   23.4718 C   0  0  0  0  0  0  0  0  0  0  0  0
  -30.1870  -16.5356   18.8582 C   0  0  0  0  0  0  0  0  0  0  0  0
  -17.9915  -27.4797   23.1683 C   0  0  0  0  0  0  0  0  0  0  0  0
  -24.3598  -28.6191   23.9218 C   0  0  0  0  0  0  0  0  0  0  0  0
  -32.9443  -24.4607   16.5277 C   0  0  0  0  0  0  0  0  0  0  0  0
  -25.5099  -30.4786   21.9308 C   0  0  0  0  0  0  0  0  0  0  0  0
  -18.5718  -28.8913   23.1365 C   0  0  0  0  0  0  0  0  0  0  0  0
  -32.4157  -23.8081   15.2584 C   0  0  0  0  0  0  0  0  0  0  0  0
  -29.7224  -13.0375   19.3314 C   0  0  0  0  0  0  0  0  0  0  0  0
  -19.4105  -29.0954   21.8789 C   0  0  0  0  0  0  0  0  0  0  0  0
  -28.2055  -12.8834   19.4550 C   0  0  0  0  0  0  0  0  0  0  0  0
  -29.0510  -19.3054   16.6743 C   0  0  0  0  0  0  0  0  0  0  0  0
  -30.3691  -19.8054   18.7653 C   0  0  0  0  0  0  0  0  0  0  0  0
  -30.2134  -14.3285   19.9827 C   0  0  0  0  0  0  0  0  0  0  0  0
  -28.0204  -15.3994   19.6399 C   0  0  0  0  0  0  0  0  0  0  0  0
  -29.6258  -20.5554   16.0208 C   0  0  0  0  0  0  0  0  0  0  0  0
  -30.9361  -21.0536   18.1016 C   0  0  0  0  0  0  0  0  0  0  0  0
  -20.5991  -28.1271   21.8452 C   0  0  1  0  0  0  0  0  0  0  0  0
  -30.4096  -22.8761   16.4842 C   0  0  1  0  0  0  0  0  0  0  0  0
  -23.5943  -29.8440   23.4309 C   0  0  1  0  0  0  0  0  0  0  0  0
  -27.4712  -14.1396   18.9489 C   0  0  2  0  0  0  0  0  0  0  0  0
  -29.9974  -18.7400   17.7339 C   0  0  0  0  0  0  0  0  0  0  0  0
  -31.6266  -22.5486   15.5987 C   0  0  1  0  0  0  0  0  0  0  0  0
  -31.3135  -26.9849   20.5123 C   0  0  0  0  0  0  0  0  0  0  0  0
  -28.1250  -36.0879   24.1313 C   0  0  0  0  0  0  0  0  0  0  0  0
  -23.2631  -33.4139   20.5142 C   0  0  0  0  0  0  0  0  0  0  0  0
  -24.9962  -35.1990   20.7932 C   0  0  0  0  0  0  0  0  0  0  0  0
  -23.1476  -34.9874   22.4547 C   0  0  0  0  0  0  0  0  0  0  0  0
  -28.7250  -32.6614   25.6724 C   0  0  0  0  0  0  0  0  0  0  0  0
  -28.7922  -25.4856   20.4570 C   0  0  0  0  0  0  0  0  0  1  0  0
  -24.9919  -33.2583   22.4255 C   0  0  1  0  0  0  0  0  0  0  0  0
  -27.7425  -34.6938   24.6034 C   0  0  2  0  0  0  0  0  0  0  0  0
  -24.1071  -34.1872   21.5471 C   0  0  0  0  0  0  0  0  0  0  0  0
  -25.3905  -14.4755   20.2297 N   0  0  0  0  0  0  0  0  0  0  0  0
  -25.9675  -14.0113   19.1082 N   0  0  0  0  0  0  0  0  0  0  0  0
  -24.4754  -30.8844   22.8966 N   0  0  0  0  0  0  0  0  0  0  0  0
  -29.4781  -15.4818   19.4580 N   0  0  0  0  0  0  0  0  0  0  0  0
  -25.4994  -12.9485   17.0437 N   0  0  0  0  0  0  0  0  0  0  0  0
  -21.8826  -14.0240   17.4381 N   0  0  0  0  0  0  0  0  0  0  0  0
  -21.6498  -28.5858   22.7286 N   0  0  0  0  0  0  0  0  0  0  0  0
  -25.7818  -33.9611   23.4308 N   0  0  0  0  0  0  0  0  0  0  0  0
  -29.4132  -17.5867   18.3817 N   0  0  0  0  0  0  0  0  0  0  0  0
  -29.9499  -21.5761   17.0850 N   0  3  0  0  0  0  0  0  0  0  0  0
  -28.9607  -34.0322   25.1504 N   0  3  0  0  0  0  0  0  0  0  0  0
  -22.1538  -11.9806   18.4429 O   0  0  0  0  0  0  0  0  0  0  0  0
  -22.6914  -30.0627   21.2602 O   0  0  0  0  0  0  0  0  0  0  0  0
  -23.3203  -32.5993   23.9740 O   0  0  0  0  0  0  0  0  0  0  0  0
  -27.8503  -33.2108   22.6991 O   0  0  0  0  0  0  0  0  0  0  0  0
  -31.4180  -16.5370   18.7500 O   0  0  0  0  0  0  0  0  0  0  0  0
  -31.1916  -21.9766   14.3658 O   0  0  0  0  0  0  0  0  0  0  0  0
  -20.3372  -15.5839   23.9421 O   0  0  0  0  0  0  0  0  0  0  0  0
  -28.3756  -26.8455   20.3415 O   0  0  0  0  0  0  0  0  0  1  0  0
  -21.9064  -19.1114   27.8789 F   0  0  0  0  0  0  0  0  0  0  0  0
  -19.0344  -17.9980   24.2847 F   0  0  0  0  0  0  0  0  0  0  0  0
  1  2  1  0  0  0  0
  1  5  2  0  0  0  0
  2  6  2  0  0  0  0
  3  8  2  0  0  0  0
  3 17  1  0  0  0  0
  4  9  1  0  0  0  0
  4 17  2  0  0  0  0
  5 19  1  0  0  0  0
  6 21  1  0  0  0  0
  7 10  2  0  0  0  0
  7 20  1  0  0  0  0
  8 27  1  0  0  0  0
  9 27  2  0  0  0  0
 10 28  1  0  0  0  0
 11 12  2  0  0  0  0
 11 29  1  0  0  0  0
 12 30  1  0  0  0  0
 13 22  2  0  0  0  0
 13 25  1  0  0  0  0
 14 23  2  0  0  0  0
 14 26  1  0  0  0  0
 15 24  1  0  0  0  0
 15 28  2  0  0  0  0
 16 30  2  0  0  0  0
 16 31  1  0  0  0  0
 17 32  1  0  0  0  0
 18 32  1  0  0  0  0
 18 33  2  0  0  0  0
 18 34  1  0  0  0  0
 19 21  2  0  0  0  0
 19 39  1  0  0  0  0
 20 24  2  0  0  0  0
 20 40  1  0  0  0  0
 21 54  1  0  0  0  0
 22 23  1  0  0  0  0
 22 41  1  0  0  0  0
 23 55  1  0  0  0  0
 24 42  1  0  0  0  0
 25 26  2  0  0  0  0
 25 60  1  0  0  0  0
 26 66  1  0  0  0  0
 27 87  1  0  0  0  0
 28 88  1  0  0  0  0
 29 31  2  0  0  0  0
 29 87  1  0  0  0  0
 30 89  1  0  0  0  0
 31 90  1  0  0  0  0
 32 70  2  0  0  0  0
 33 71  1  0  0  0  0
 33 74  1  0  0  0  0
 34 75  1  0  0  0  0
 34 81  2  0  0  0  0
 35 56  1  0  0  0  0
 35 76  1  0  0  0  0
 35 82  2  0  0  0  0
 36 67  1  0  0  0  0
 36 72  1  0  0  0  0
 36 83  2  0  0  0  0
 37 68  1  0  0  0  0
 37 77  1  0  0  0  0
 37 84  2  0  0  0  0
 38 73  1  0  0  0  0
 38 78  1  0  0  0  0
 38 85  2  0  0  0  0
 39 43  1  0  0  0  0
 40 56  1  0  0  0  0
 41 44  1  0  0  0  0
 42 72  1  0  0  0  0
 43 46  1  0  0  0  0
 44 59  1  0  0  0  0
 45 47  1  0  0  0  0
 45 50  1  0  0  0  0
 46 54  1  0  0  0  0
 47 57  1  0  0  0  0
 48 52  1  0  0  0  0
 48 58  1  0  0  0  0
 49 53  1  0  0  0  0
 49 58  1  0  0  0  0
 50 73  1  0  0  0  0
 51 57  1  0  0  0  0
 51 73  1  0  0  0  0
 52 79  1  0  0  0  0
 53 79  1  0  0  0  0
 54 76  1  0  0  0  0
 55 59  1  0  0  0  0
 55 79  1  0  0  0  0
 56 72  1  0  0  0  0
 57 71  1  0  0  0  0
 58 78  1  0  0  0  0
 59 86  1  0  0  0  0
 61 68  1  0  0  0  0
 62 69  1  0  0  0  0
 63 69  1  0  0  0  0
 64 69  1  0  0  0  0
 65 80  1  0  0  0  0
 66 88  1  0  0  0  0
 67 69  1  0  0  0  0
 67 77  1  0  0  0  0
 68 80  1  0  0  0  0
 70 71  1  0  0  0  0
M  CHG  2  79   1  80   1
M  ISO  4  38 100  66 101  78 100  88 101
M  END
> <Batch ID>
0158

> <Smiles>
CNC(C)C(=O)NC(C(=O)N1Cc2cc([101O:1][101CH2:1]c3cc4c(cc3C)CCC(O)C4N3CCC([100NH:0][100C:0](=O)N4CCCC(n5nc(-c6ccc(Oc7ccc(F)cc7F)cc6)c(C(N)=O)c5N)C4)CC3)ccc2CC1C(=O)NC1CCCc2ccccc21)C(C)(C)C

> <Shape>
0.254

> <Color>
0.079

> <Negative vol penalty>
0.000

$$$$

  -OEChem-04052322043D

 90 99  0     1  0  0  0  0  0999 V2000
  -16.9215  -30.1444   24.1748 C   0  0  0  0  0  0  0  0  0  0  0  0
  -17.8731  -29.5529   24.9994 C   0  0  0  0  0  0  0  0  0  0  0  0
  -23.3295  -11.2162   22.9226 C   0  0  0  0  0  0  0  0  0  0  0  0
  -24.4768   -9.3756   21.8584 C   0  0  0  0  0  0  0  0  0  0  0  0
  -17.0009  -29.9818   22.7924 C   0  0  0  0  0  0  0  0  0  0  0  0
  -18.9042  -28.7976   24.4420 C   0  0  0  0  0  0  0  0  0  0  0  0
  -25.7855  -27.1077   25.4950 C   0  0  0  0  0  0  0  0  0  0  0  0
  -22.7792  -10.3351   23.8534 C   0  0  0  0  0  0  0  0  0  0  0  0
  -23.9266   -8.4944   22.7892 C   0  0  0  0  0  0  0  0  0  0  0  0
  -26.6179  -25.9937   25.5949 C   0  0  0  0  0  0  0  0  0  0  0  0
  -20.9681   -6.9404   23.3025 C   0  0  0  0  0  0  0  0  0  0  0  0
  -20.4386   -5.7414   22.8255 C   0  0  0  0  0  0  0  0  0  0  0  0
  -26.7000  -25.8469   23.1884 C   0  0  0  0  0  0  0  0  0  0  0  0
  -22.0070   -4.5071   24.1872 C   0  0  0  0  0  0  0  0  0  0  0  0
  -24.1783  -10.7365   21.9250 C   0  0  0  0  0  0  0  0  0  0  0  0
  -24.0508  -12.4710   20.0588 C   0  0  0  0  0  0  0  0  0  0  0  0
  -18.0390  -29.2321   22.2171 C   0  0  0  0  0  0  0  0  0  0  0  0
  -25.3946  -27.5939   24.2391 C   0  0  0  0  0  0  0  0  0  0  0  0
  -18.9969  -28.6237   23.0506 C   0  0  0  0  0  0  0  0  0  0  0  0
  -25.8647  -26.9688   23.0754 C   0  0  0  0  0  0  0  0  0  0  0  0
  -28.7765  -21.4277   26.3013 C   0  0  0  0  0  0  0  0  0  0  0  0
  -30.3725  -22.7742   25.0862 C   0  0  0  0  0  0  0  0  0  0  0  0
  -29.6293  -20.3283   26.2033 C   0  0  0  0  0  0  0  0  0  0  0  0
  -31.2254  -21.6748   24.9882 C   0  0  0  0  0  0  0  0  0  0  0  0
  -29.1481  -22.6507   25.7427 C   0  0  0  0  0  0  0  0  0  0  0  0
  -30.8537  -20.4519   25.5468 C   0  0  0  0  0  0  0  0  0  0  0  0
  -23.0778   -8.9742   23.7867 C   0  0  0  0  0  0  0  0  0  0  0  0
  -27.0730  -25.3614   24.4415 C   0  0  0  0  0  0  0  0  0  0  0  0
  -22.0171   -6.9228   24.2218 C   0  0  0  0  0  0  0  0  0  0  0  0
  -20.9580   -4.5247   23.2679 C   0  0  0  0  0  0  0  0  0  0  0  0
  -22.5365   -5.7062   24.6641 C   0  0  0  0  0  0  0  0  0  0  0  0
  -24.7465  -11.6461   20.9629 C   0  0  0  0  0  0  0  0  0  0  0  0
  -25.0370  -13.1353   19.3713 C   0  0  0  0  0  0  0  0  0  0  0  0
  -22.6393  -12.6231   19.8583 C   0  0  0  0  0  0  0  0  0  0  0  0
  -22.6161  -27.9486   22.7367 C   0  0  0  0  0  0  0  0  0  0  0  0
  -24.4528  -29.4305   20.5112 C   0  0  0  0  0  0  0  0  0  0  0  0
  -27.5358  -29.8418   19.1067 C   0  0  0  0  0  0  0  0  0  0  0  0
  -30.6983  -14.5496   20.7133 C   0  0  0  0  0  0  0  0  0  0  0  0
  -18.0563  -29.0450   20.7207 C   0  0  0  0  0  0  0  0  0  0  0  0
  -24.5179  -28.8127   24.1482 C   0  0  0  0  0  0  0  0  0  0  0  0
  -25.4906  -27.4637   21.7029 C   0  0  0  0  0  0  0  0  0  0  0  0
  -19.3940  -28.5408   20.1853 C   0  0  0  0  0  0  0  0  0  0  0  0
  -29.5708  -12.6474   17.9228 C   0  0  0  0  0  0  0  0  0  0  0  0
  -19.9044  -27.3793   21.0323 C   0  0  0  0  0  0  0  0  0  0  0  0
  -28.1437  -12.2495   18.3039 C   0  0  0  0  0  0  0  0  0  0  0  0
  -29.7140  -17.4654   22.7727 C   0  0  0  0  0  0  0  0  0  0  0  0
  -31.6038  -15.9717   23.5190 C   0  0  0  0  0  0  0  0  0  0  0  0
  -30.4988  -12.6503   19.1355 C   0  0  0  0  0  0  0  0  0  0  0  0
  -28.6025  -13.0662   20.6537 C   0  0  0  0  0  0  0  0  0  0  0  0
  -30.3759  -18.6433   23.4759 C   0  0  0  0  0  0  0  0  0  0  0  0
  -32.2554  -17.1569   24.2195 C   0  0  0  0  0  0  0  0  0  0  0  0
  -20.1445  -27.8175   22.4821 C   0  0  1  0  0  0  0  0  0  0  0  0
  -23.7667  -28.9109   22.8240 C   0  0  1  0  0  0  0  0  0  0  0  0
  -27.6169  -13.1031   19.4731 C   0  0  2  0  0  0  0  0  0  0  0  0
  -30.7425  -16.4206   22.3385 C   0  0  0  0  0  0  0  0  0  0  0  0
  -27.4629  -21.2955   27.0057 C   0  0  0  0  0  0  0  0  0  0  0  0
  -30.7719  -24.0860   24.4870 C   0  0  0  0  0  0  0  0  0  0  0  0
  -29.2303  -19.0165   26.8026 C   0  0  0  0  0  0  0  0  0  0  0  0
  -32.5399  -21.8071   24.2854 C   0  0  0  0  0  0  0  0  0  0  0  0
  -32.1819  -18.7092   26.8085 C   0  0  0  0  0  0  0  0  0  0  0  0
  -28.7174  -31.0931   17.2803 C   0  0  0  0  0  0  0  0  0  0  0  0
  -23.2495  -27.5398   18.4407 C   0  0  0  0  0  0  0  0  0  0  0  0
  -25.1086  -28.1702   16.8868 C   0  0  0  0  0  0  0  0  0  0  0  0
  -23.4987  -29.9065   17.6719 C   0  0  0  0  0  0  0  0  0  0  0  0
  -29.3184  -31.2059   21.0356 C   0  0  0  0  0  0  0  0  0  0  0  0
  -28.2312  -23.8337   25.8488 C   0  0  0  0  0  0  0  0  0  1  0  0
  -31.7697  -19.2730   25.4445 C   0  0  1  0  0  0  0  0  0  0  0  0
  -25.2140  -28.9865   19.2855 C   0  0  1  0  0  0  0  0  0  0  0  0
  -28.3210  -31.0907   18.7485 C   0  0  2  0  0  0  0  0  0  0  0  0
  -24.2733  -28.6400   18.0970 C   0  0  0  0  0  0  0  0  0  0  0  0
  -26.0723  -11.7730   20.8614 N   0  0  0  0  0  0  0  0  0  0  0  0
  -26.2175  -12.6852   19.8853 N   0  0  0  0  0  0  0  0  0  0  0  0
  -24.6261  -28.6549   21.6663 N   0  0  0  0  0  0  0  0  0  0  0  0
  -29.9424  -13.4791   20.2076 N   0  0  0  0  0  0  0  0  0  0  0  0
  -25.0010  -14.0545   18.3834 N   0  0  0  0  0  0  0  0  0  0  0  0
  -22.0036  -11.7925   18.9254 N   0  0  0  0  0  0  0  0  0  0  0  0
  -21.3842  -28.5567   22.5880 N   0  0  0  0  0  0  0  0  0  0  0  0
  -26.1763  -30.0444   18.9971 N   0  0  0  0  0  0  0  0  0  0  0  0
  -30.0944  -15.2881   21.7235 N   0  0  0  0  0  0  0  0  0  0  0  0
  -31.1906  -18.1397   24.6430 N   0  3  0  0  0  0  0  0  0  0  0  0
  -29.5613  -31.1762   19.5703 N   0  3  0  0  0  0  0  0  0  0  0  0
  -21.9648  -13.4817   20.4758 O   0  0  0  0  0  0  0  0  0  0  0  0
  -22.8302  -26.7436   22.7981 O   0  0  0  0  0  0  0  0  0  0  0  0
  -23.7366  -30.4328   20.4481 O   0  0  0  0  0  0  0  0  0  0  0  0
  -28.0747  -28.7906   19.4458 O   0  0  0  0  0  0  0  0  0  0  0  0
  -31.8256  -14.8299   20.2918 O   0  0  0  0  0  0  0  0  0  0  0  0
  -22.5412   -8.1141   24.6950 O   0  0  0  0  0  0  0  0  0  0  0  0
  -27.8850  -24.2735   24.5362 O   0  0  0  0  0  0  0  0  0  1  0  0
  -20.4484   -3.3734   22.8109 F   0  0  0  0  0  0  0  0  0  0  0  0
  -23.5434   -5.6830   25.5481 F   0  0  0  0  0  0  0  0  0  0  0  0
  1  2  1  0  0  0  0
  1  5  2  0  0  0  0
  2  6  2  0  0  0  0
  3  8  2  0  0  0  0
  3 15  1  0  0  0  0
  4  9  1  0  0  0  0
  4 15  2  0  0  0  0
  5 17  1  0  0  0  0
  6 19  1  0  0  0  0
  7 10  2  0  0  0  0
  7 18  1  0  0  0  0
  8 27  1  0  0  0  0
  9 27  2  0  0  0  0
 10 28  1  0  0  0  0
 11 12  2  0  0  0  0
 11 29  1  0  0  0  0
 12 30  1  0  0  0  0
 13 20  1  0  0  0  0
 13 28  2  0  0  0  0
 14 30  2  0  0  0  0
 14 31  1  0  0  0  0
 15 32  1  0  0  0  0
 16 32  1  0  0  0  0
 16 33  2  0  0  0  0
 16 34  1  0  0  0  0
 17 19  2  0  0  0  0
 17 39  1  0  0  0  0
 18 20  2  0  0  0  0
 18 40  1  0  0  0  0
 19 52  1  0  0  0  0
 20 41  1  0  0  0  0
 21 23  2  0  0  0  0
 21 25  1  0  0  0  0
 21 56  1  0  0  0  0
 22 24  1  0  0  0  0
 22 25  2  0  0  0  0
 22 57  1  0  0  0  0
 23 26  1  0  0  0  0
 23 58  1  0  0  0  0
 24 26  2  0  0  0  0
 24 59  1  0  0  0  0
 25 66  1  0  0  0  0
 26 67  1  0  0  0  0
 27 87  1  0  0  0  0
 28 88  1  0  0  0  0
 29 31  2  0  0  0  0
 29 87  1  0  0  0  0
 30 89  1  0  0  0  0
 31 90  1  0  0  0  0
 32 71  2  0  0  0  0
 33 72  1  0  0  0  0
 33 75  1  0  0  0  0
 34 76  1  0  0  0  0
 34 82  2  0  0  0  0
 35 53  1  0  0  0  0
 35 77  1  0  0  0  0
 35 83  2  0  0  0  0
 36 68  1  0  0  0  0
 36 73  1  0  0  0  0
 36 84  2  0  0  0  0
 37 69  1  0  0  0  0
 37 78  1  0  0  0  0
 37 85  2  0  0  0  0
 38 74  1  0  0  0  0
 38 79  1  0  0  0  0
 38 86  2  0  0  0  0
 39 42  1  0  0  0  0
 40 53  1  0  0  0  0
 41 73  1  0  0  0  0
 42 44  1  0  0  0  0
 43 45  1  0  0  0  0
 43 48  1  0  0  0  0
 44 52  1  0  0  0  0
 45 54  1  0  0  0  0
 46 50  1  0  0  0  0
 46 55  1  0  0  0  0
 47 51  1  0  0  0  0
 47 55  1  0  0  0  0
 48 74  1  0  0  0  0
 49 54  1  0  0  0  0
 49 74  1  0  0  0  0
 50 80  1  0  0  0  0
 51 80  1  0  0  0  0
 52 77  1  0  0  0  0
 53 73  1  0  0  0  0
 54 72  1  0  0  0  0
 55 79  1  0  0  0  0
 60 67  1  0  0  0  0
 61 69  1  0  0  0  0
 62 70  1  0  0  0  0
 63 70  1  0  0  0  0
 64 70  1  0  0  0  0
 65 81  1  0  0  0  0
 66 88  1  0  0  0  0
 67 80  1  0  0  0  0
 68 70  1  0  0  0  0
 68 78  1  0  0  0  0
 69 81  1  0  0  0  0
 71 72  1  0  0  0  0
M  CHG  2  80   1  81   1
M  ISO  4  38 100  66 101  79 100  88 101
M  END
> <Batch ID>
0158

> <Smiles>
CNC(C)C(=O)NC(C(=O)N1Cc2cc([101O:1][101CH2:1]c3c(C)c(C)c(C(C)N4CCC([100NH:0][100C:0](=O)N5CCCC(n6nc(-c7ccc(Oc8ccc(F)cc8F)cc7)c(C(N)=O)c6N)C5)CC4)c(C)c3C)ccc2CC1C(=O)NC1CCCc2ccccc21)C(C)(C)C

> <Shape>
0.242

> <Color>
0.122

> <Negative vol penalty>
0.000

$$$$

  -OEChem-04052322043D

 90 99  0     1  0  0  0  0  0999 V2000
  -28.3411  -37.6032   22.4800 C   0  0  0  0  0  0  0  0  0  0  0  0
  -28.7787  -36.4758   21.7922 C   0  0  0  0  0  0  0  0  0  0  0  0
  -26.5841   -7.0093   22.6543 C   0  0  0  0  0  0  0  0  0  0  0  0
  -26.6252   -6.3526   20.3296 C   0  0  0  0  0  0  0  0  0  0  0  0
  -27.4312  -37.4696   23.5279 C   0  0  0  0  0  0  0  0  0  0  0  0
  -28.3073  -35.2140   22.1527 C   0  0  0  0  0  0  0  0  0  0  0  0
  -26.6682  -28.8454   19.3118 C   0  0  0  0  0  0  0  0  0  0  0  0
  -25.5105   -6.1476   22.8787 C   0  0  0  0  0  0  0  0  0  0  0  0
  -25.5516   -5.4908   20.5541 C   0  0  0  0  0  0  0  0  0  0  0  0
  -26.9412  -27.4886   19.4800 C   0  0  0  0  0  0  0  0  0  0  0  0
  -22.1710   -6.1414   22.3573 C   0  0  0  0  0  0  0  0  0  0  0  0
  -21.0998   -6.6239   23.1092 C   0  0  0  0  0  0  0  0  0  0  0  0
  -25.3105  -27.3868   21.2548 C   0  0  0  0  0  0  0  0  0  0  0  0
  -27.2116  -21.0916   19.4853 C   0  0  0  0  0  0  0  0  0  0  0  0
  -28.4319  -21.6194   21.5025 C   0  0  0  0  0  0  0  0  0  0  0  0
  -21.4531   -4.8730   24.7360 C   0  0  0  0  0  0  0  0  0  0  0  0
  -27.1415   -7.1119   21.3797 C   0  0  0  0  0  0  0  0  0  0  0  0
  -29.6207   -7.7000   21.2565 C   0  0  0  0  0  0  0  0  0  0  0  0
  -26.9410  -36.2065   23.8951 C   0  0  0  0  0  0  0  0  0  0  0  0
  -25.7206  -29.4867   20.1225 C   0  0  0  0  0  0  0  0  0  0  0  0
  -27.3909  -35.0632   23.2073 C   0  0  0  0  0  0  0  0  0  0  0  0
  -25.0255  -28.7513   21.0931 C   0  0  0  0  0  0  0  0  0  0  0  0
  -27.0911  -22.4520   19.2021 C   0  0  0  0  0  0  0  0  0  0  0  0
  -28.3114  -22.9799   21.2194 C   0  0  0  0  0  0  0  0  0  0  0  0
  -27.6411  -23.3962   20.0691 C   0  0  0  0  0  0  0  0  0  0  0  0
  -24.9943   -5.3884   21.8287 C   0  0  0  0  0  0  0  0  0  0  0  0
  -26.2644  -26.7597   20.4536 C   0  0  0  0  0  0  0  0  0  0  0  0
  -22.8831   -5.0246   22.7946 C   0  0  0  0  0  0  0  0  0  0  0  0
  -27.8819  -20.6752   20.6355 C   0  0  0  0  0  0  0  0  0  0  0  0
  -20.7409   -5.9898   24.2986 C   0  0  0  0  0  0  0  0  0  0  0  0
  -22.5242   -4.3904   23.9840 C   0  0  0  0  0  0  0  0  0  0  0  0
  -28.2501   -8.0023   21.1471 C   0  0  0  0  0  0  0  0  0  0  0  0
  -30.2579   -8.8736   20.9354 C   0  0  0  0  0  0  0  0  0  0  0  0
  -30.2606   -6.4684   21.6163 C   0  0  0  0  0  0  0  0  0  0  0  0
  -25.8111  -31.8717   22.2218 C   0  0  0  0  0  0  0  0  0  0  0  0
  -22.5914  -31.4774   22.2208 C   0  0  0  0  0  0  0  0  0  0  0  0
  -19.9244  -29.4217   21.6656 C   0  0  0  0  0  0  0  0  0  0  0  0
  -28.8229  -14.4570   21.3278 C   0  0  0  0  0  0  0  0  0  0  0  0
  -25.9947  -36.1071   25.0652 C   0  0  0  0  0  0  0  0  0  0  0  0
  -25.4184  -30.9448   19.9104 C   0  0  0  0  0  0  0  0  0  0  0  0
  -23.9842  -29.3881   21.9755 C   0  0  0  0  0  0  0  0  0  0  0  0
  -25.2570  -34.7728   25.1404 C   0  0  0  0  0  0  0  0  0  0  0  0
  -29.7168  -12.8486   18.3385 C   0  0  0  0  0  0  0  0  0  0  0  0
  -26.2278  -33.6139   24.9372 C   0  0  0  0  0  0  0  0  0  0  0  0
  -29.5754  -11.3781   18.7311 C   0  0  0  0  0  0  0  0  0  0  0  0
  -29.9272  -17.9146   20.5709 C   0  0  0  0  0  0  0  0  0  0  0  0
  -27.7311  -17.4737   19.3911 C   0  0  0  0  0  0  0  0  0  0  0  0
  -28.5917  -13.7073   18.9186 C   0  0  0  0  0  0  0  0  0  0  0  0
  -29.5995  -16.7876   21.5493 C   0  0  0  0  0  0  0  0  0  0  0  0
  -27.4521  -16.3602   20.3980 C   0  0  0  0  0  0  0  0  0  0  0  0
  -28.2858  -12.1027   20.7756 C   0  0  0  0  0  0  0  0  0  0  0  0
  -26.8836  -33.6799   23.5526 C   0  0  1  0  0  0  0  0  0  0  0  0
  -24.8043  -31.6123   21.1371 C   0  0  1  0  0  0  0  0  0  0  0  0
  -29.4347  -11.2244   20.2560 C   0  0  1  0  0  0  0  0  0  0  0  0
  -28.6771  -18.5382   19.9494 C   0  0  0  0  0  0  0  0  0  0  0  0
  -24.8919  -22.4384   17.9705 C   0  0  0  0  0  0  0  0  0  0  0  0
  -27.0580  -22.3626   16.6832 C   0  0  0  0  0  0  0  0  0  0  0  0
  -30.4359  -23.8283   22.2780 C   0  0  0  0  0  0  0  0  0  0  0  0
  -28.2690  -23.9045   23.5640 C   0  0  0  0  0  0  0  0  0  0  0  0
  -17.4185  -29.3694   21.7877 C   0  0  0  0  0  0  0  0  0  0  0  0
  -22.7471  -31.2236   25.2574 C   0  0  0  0  0  0  0  0  0  0  0  0
  -20.4419  -30.2471   25.2243 C   0  0  0  0  0  0  0  0  0  0  0  0
  -20.8186  -32.5787   24.4214 C   0  0  0  0  0  0  0  0  0  0  0  0
  -19.6782  -28.8965   18.7634 C   0  0  0  0  0  0  0  0  0  0  0  0
  -27.5113  -24.8551   19.7654 C   0  0  0  0  0  0  0  0  0  1  0  0
  -26.3695  -22.8706   17.9631 C   0  0  0  0  0  0  0  0  0  0  0  0
  -28.9072  -23.9713   22.1645 C   0  0  0  0  0  0  0  0  0  0  0  0
  -21.6168  -30.6380   23.0112 C   0  0  1  0  0  0  0  0  0  0  0  0
  -18.6281  -29.6365   20.9055 C   0  0  2  0  0  0  0  0  0  0  0  0
  -21.4271  -31.1600   24.4634 C   0  0  0  0  0  0  0  0  0  0  0  0
  -28.0288   -9.2687   20.7848 N   0  0  0  0  0  0  0  0  0  0  0  0
  -29.2688   -9.7726   20.6640 N   0  0  0  0  0  0  0  0  0  0  0  0
  -23.7288  -30.8177   21.7340 N   0  0  0  0  0  0  0  0  0  0  0  0
  -28.4706  -13.4969   20.3674 N   0  0  0  0  0  0  0  0  0  0  0  0
  -28.6933  -15.8056   20.9548 N   0  0  0  0  0  0  0  0  0  0  0  0
  -31.5622   -9.2139   20.8616 N   0  0  0  0  0  0  0  0  0  0  0  0
  -29.4565   -5.3602   21.9159 N   0  0  0  0  0  0  0  0  0  0  0  0
  -25.9675  -33.2081   22.5364 N   0  0  0  0  0  0  0  0  0  0  0  0
  -20.3874  -30.5928   22.2270 N   0  0  0  0  0  0  0  0  0  0  0  0
  -18.5611  -28.7258   19.7277 N   0  3  0  0  0  0  0  0  0  0  0  0
  -31.5082   -6.3585   21.6864 O   0  0  0  0  0  0  0  0  0  0  0  0
  -26.4014  -30.9290   22.7363 O   0  0  0  0  0  0  0  0  0  0  0  0
  -22.3487  -32.6726   22.0359 O   0  0  0  0  0  0  0  0  0  0  0  0
  -20.4697  -28.3239   21.7556 O   0  0  0  0  0  0  0  0  0  0  0  0
  -29.2318  -14.1321   22.4495 O   0  0  0  0  0  0  0  0  0  0  0  0
  -23.9468   -4.5472   22.0474 O   0  0  0  0  0  0  0  0  0  0  0  0
  -27.9981  -19.3389   20.9144 O   0  0  0  0  0  0  0  0  0  0  0  0
  -26.5313  -25.4256   20.6216 O   0  0  0  0  0  0  0  0  0  1  0  0
  -19.7133   -6.4542   25.0214 F   0  0  0  0  0  0  0  0  0  0  0  0
  -23.2054   -3.3179   24.4100 F   0  0  0  0  0  0  0  0  0  0  0  0
  1  2  1  0  0  0  0
  1  5  2  0  0  0  0
  2  6  2  0  0  0  0
  3  8  2  0  0  0  0
  3 17  1  0  0  0  0
  4  9  1  0  0  0  0
  4 17  2  0  0  0  0
  5 19  1  0  0  0  0
  6 21  1  0  0  0  0
  7 10  2  0  0  0  0
  7 20  1  0  0  0  0
  8 26  1  0  0  0  0
  9 26  2  0  0  0  0
 10 27  1  0  0  0  0
 11 12  2  0  0  0  0
 11 28  1  0  0  0  0
 12 30  1  0  0  0  0
 13 22  1  0  0  0  0
 13 27  2  0  0  0  0
 14 23  2  0  0  0  0
 14 29  1  0  0  0  0
 15 24  1  0  0  0  0
 15 29  2  0  0  0  0
 16 30  2  0  0  0  0
 16 31  1  0  0  0  0
 17 32  1  0  0  0  0
 18 32  1  0  0  0  0
 18 33  2  0  0  0  0
 18 34  1  0  0  0  0
 19 21  2  0  0  0  0
 19 39  1  0  0  0  0
 20 22  2  0  0  0  0
 20 40  1  0  0  0  0
 21 52  1  0  0  0  0
 22 41  1  0  0  0  0
 23 25  1  0  0  0  0
 23 66  1  0  0  0  0
 24 25  2  0  0  0  0
 24 67  1  0  0  0  0
 25 65  1  0  0  0  0
 26 86  1  0  0  0  0
 27 88  1  0  0  0  0
 28 31  2  0  0  0  0
 28 86  1  0  0  0  0
 29 87  1  0  0  0  0
 30 89  1  0  0  0  0
 31 90  1  0  0  0  0
 32 71  2  0  0  0  0
 33 72  1  0  0  0  0
 33 76  1  0  0  0  0
 34 77  1  0  0  0  0
 34 81  2  0  0  0  0
 35 53  1  0  0  0  0
 35 78  1  0  0  0  0
 35 82  2  0  0  0  0
 36 68  1  0  0  0  0
 36 73  1  0  0  0  0
 36 83  2  0  0  0  0
 37 69  1  0  0  0  0
 37 79  1  0  0  0  0
 37 84  2  0  0  0  0
 38 74  1  0  0  0  0
 38 75  1  0  0  0  0
 38 85  2  0  0  0  0
 39 42  1  0  0  0  0
 40 53  1  0  0  0  0
 41 73  1  0  0  0  0
 42 44  1  0  0  0  0
 43 45  1  0  0  0  0
 43 48  1  0  0  0  0
 44 52  1  0  0  0  0
 45 54  1  0  0  0  0
 46 49  1  0  0  0  0
 46 55  1  0  0  0  0
 47 50  1  0  0  0  0
 47 55  1  0  0  0  0
 48 74  1  0  0  0  0
 49 75  1  0  0  0  0
 50 75  1  0  0  0  0
 51 54  1  0  0  0  0
 51 74  1  0  0  0  0
 52 78  1  0  0  0  0
 53 73  1  0  0  0  0
 54 72  1  0  0  0  0
 55 87  1  0  0  0  0
 56 66  1  0  0  0  0
 57 66  1  0  0  0  0
 58 67  1  0  0  0  0
 59 67  1  0  0  0  0
 60 69  1  0  0  0  0
 61 70  1  0  0  0  0
 62 70  1  0  0  0  0
 63 70  1  0  0  0  0
 64 80  1  0  0  0  0
 65 88  1  0  0  0  0
 68 70  1  0  0  0  0
 68 79  1  0  0  0  0
 69 80  1  0  0  0  0
 71 72  1  0  0  0  0
M  CHG  1  80   1
M  ISO  4  38 100  65 101  75 100  88 101
M  END
> <Batch ID>
0158

> <Smiles>
CNC(C)C(=O)NC(C(=O)N1Cc2cc([101O:1][101CH2:1]c3c(C(C)C)cc(OC4CC[100N:0]([100C:0](=O)N5CCCC(n6nc(-c7ccc(Oc8ccc(F)cc8F)cc7)c(C(N)=O)c6N)C5)CC4)cc3C(C)C)ccc2CC1C(=O)NC1CCCc2ccccc21)C(C)(C)C

> <Shape>
0.268

> <Color>
0.073

> <Negative vol penalty>
0.000

$$$$

  -OEChem-04052322043D

 89 99  0     1  0  0  0  0  0999 V2000
  -33.5295  -28.3777   17.0681 C   0  0  0  0  0  0  0  0  0  0  0  0
  -32.2814  -28.4047   17.6819 C   0  0  0  0  0  0  0  0  0  0  0  0
  -24.2457  -14.6835   19.7061 C   0  0  0  0  0  0  0  0  0  0  0  0
  -23.6592  -13.9928   21.9458 C   0  0  0  0  0  0  0  0  0  0  0  0
  -33.9982  -27.1958   16.4958 C   0  0  0  0  0  0  0  0  0  0  0  0
  -31.5006  -27.2501   17.7229 C   0  0  0  0  0  0  0  0  0  0  0  0
  -23.1009  -27.4924   18.7405 C   0  0  0  0  0  0  0  0  0  0  0  0
  -23.6758  -28.7622   18.6707 C   0  0  0  0  0  0  0  0  0  0  0  0
  -29.4331  -26.4635   22.2783 C   0  0  0  0  0  0  0  0  0  0  0  0
  -25.1234  -13.6043   19.6031 C   0  0  0  0  0  0  0  0  0  0  0  0
  -24.5369  -12.9135   21.8428 C   0  0  0  0  0  0  0  0  0  0  0  0
  -28.3125  -27.2243   22.6089 C   0  0  0  0  0  0  0  0  0  0  0  0
  -27.7870  -11.2351   18.8849 C   0  0  0  0  0  0  0  0  0  0  0  0
  -29.0518  -11.4748   18.3478 C   0  0  0  0  0  0  0  0  0  0  0  0
  -23.5141  -27.4377   21.1128 C   0  0  0  0  0  0  0  0  0  0  0  0
  -26.8887  -25.3588   22.0501 C   0  0  0  0  0  0  0  0  0  0  0  0
  -29.5042  -13.0552   20.1184 C   0  0  0  0  0  0  0  0  0  0  0  0
  -23.5137  -14.8778   20.8775 C   0  0  0  0  0  0  0  0  0  0  0  0
  -21.4910  -16.2621   20.1704 C   0  0  0  0  0  0  0  0  0  0  0  0
  -23.0217  -26.8297   19.9605 C   0  0  0  0  0  0  0  0  0  0  0  0
  -33.2269  -26.0236   16.5383 C   0  0  0  0  0  0  0  0  0  0  0  0
  -29.2891  -25.1461   21.8200 C   0  0  0  0  0  0  0  0  0  0  0  0
  -31.9588  -26.0518   17.1495 C   0  0  0  0  0  0  0  0  0  0  0  0
  -24.1857  -29.3904   19.8205 C   0  0  0  0  0  0  0  0  0  0  0  0
  -24.0914  -28.7162   21.0542 C   0  0  0  0  0  0  0  0  0  0  0  0
  -28.0092  -24.5826   21.7168 C   0  0  0  0  0  0  0  0  0  0  0  0
  -25.2689  -12.7193   20.6714 C   0  0  0  0  0  0  0  0  0  0  0  0
  -27.0399  -26.6729   22.4921 C   0  0  0  0  0  0  0  0  0  0  0  0
  -27.3808  -11.9056   20.0387 C   0  0  0  0  0  0  0  0  0  0  0  0
  -29.9104  -12.3848   18.9646 C   0  0  0  0  0  0  0  0  0  0  0  0
  -28.2394  -12.8155   20.6555 C   0  0  0  0  0  0  0  0  0  0  0  0
  -22.6073  -15.9927   20.9847 C   0  0  0  0  0  0  0  0  0  0  0  0
  -20.9681  -17.4260   20.6788 C   0  0  0  0  0  0  0  0  0  0  0  0
  -20.9729  -15.5261   19.0544 C   0  0  0  0  0  0  0  0  0  0  0  0
  -30.0069  -23.6166   19.1276 C   0  0  0  0  0  0  0  0  0  0  0  0
  -29.0428  -21.0143   20.8072 C   0  0  0  0  0  0  0  0  0  0  0  0
  -27.1847  -19.7484   23.3746 C   0  0  0  0  0  0  0  0  0  0  0  0
  -21.4490  -22.4901   22.7148 C   0  0  0  0  0  0  0  0  0  0  0  0
  -33.7554  -24.7821   15.8645 C   0  0  0  0  0  0  0  0  0  0  0  0
  -30.5094  -24.3298   21.4929 C   0  0  0  0  0  0  0  0  0  0  0  0
  -27.8018  -23.1661   21.2491 C   0  0  0  0  0  0  0  0  0  0  0  0
  -33.0269  -23.5066   16.2799 C   0  0  0  0  0  0  0  0  0  0  0  0
  -21.9880  -19.9133   24.9549 C   0  0  0  0  0  0  0  0  0  0  0  0
  -31.5168  -23.7199   16.2481 C   0  0  0  0  0  0  0  0  0  0  0  0
  -22.1061  -18.6765   24.0645 C   0  0  0  0  0  0  0  0  0  0  0  0
  -23.4080  -24.3848   20.5035 C   0  0  0  0  0  0  0  0  0  0  0  0
  -21.1417  -25.4311   20.9261 C   0  0  0  0  0  0  0  0  0  0  0  0
  -22.7093  -21.1037   24.3336 C   0  0  0  0  0  0  0  0  0  0  0  0
  -22.7638  -22.9996   20.6095 C   0  0  0  0  0  0  0  0  0  0  0  0
  -20.5484  -24.0270   20.9957 C   0  0  0  0  0  0  0  0  0  0  0  0
  -22.3519  -20.2146   22.0534 C   0  0  0  0  0  0  0  0  0  0  0  0
  -24.6328  -30.8732   22.1463 C   0  0  0  0  0  0  0  0  0  0  0  0
  -22.3982  -25.4488   20.0369 C   0  0  0  0  0  0  0  0  0  0  0  0
  -24.6251  -29.3554   22.3156 C   0  0  2  0  0  0  0  0  0  0  0  0
  -31.0932  -24.8135   17.2360 C   0  0  1  0  0  0  0  0  0  0  0  0
  -30.2161  -23.1696   20.5468 C   0  0  1  0  0  0  0  0  0  0  0  0
  -21.6323  -18.9792   22.6319 C   0  0  1  0  0  0  0  0  0  0  0  0
  -24.8061  -30.7852   19.7448 C   0  0  0  0  0  0  0  0  0  0  0  0
  -23.7616  -31.8300   19.3178 C   0  0  0  0  0  0  0  0  0  0  0  0
  -25.9772  -30.8055   18.7484 C   0  0  0  0  0  0  0  0  0  0  0  0
  -26.5668  -17.5803   24.4768 C   0  0  0  0  0  0  0  0  0  0  0  0
  -27.1389  -20.3899   18.5061 C   0  0  0  0  0  0  0  0  0  0  0  0
  -25.9148  -18.8297   20.0344 C   0  0  0  0  0  0  0  0  0  0  0  0
  -28.3046  -18.3963   19.4658 C   0  0  0  0  0  0  0  0  0  0  0  0
  -28.3737  -20.5861   25.9521 C   0  0  0  0  0  0  0  0  0  0  0  0
  -26.0249  -28.8193   22.6294 C   0  0  0  0  0  0  0  0  0  1  0  0
  -27.7267  -20.3059   21.0188 C   0  0  1  0  0  0  0  0  0  0  0  0
  -27.5275  -18.7592   24.4739 C   0  0  2  0  0  0  0  0  0  0  0  0
  -27.2747  -19.5078   19.7633 C   0  0  0  0  0  0  0  0  0  0  0  0
  -22.7841  -16.9116   21.9378 N   0  0  0  0  0  0  0  0  0  0  0  0
  -21.7719  -17.7698   21.7257 N   0  0  0  0  0  0  0  0  0  0  0  0
  -29.0257  -22.4105   20.9352 N   0  0  0  0  0  0  0  0  0  0  0  0
  -22.2344  -21.3566   22.9734 N   0  0  0  0  0  0  0  0  0  0  0  0
  -21.5486  -23.0539   21.4340 N   0  0  0  0  0  0  0  0  0  0  0  0
  -19.9037  -18.1787   20.3280 N   0  0  0  0  0  0  0  0  0  0  0  0
  -20.0177  -14.5295   19.2967 N   0  0  0  0  0  0  0  0  0  0  0  0
  -31.0818  -24.2967   18.5877 N   0  0  0  0  0  0  0  0  0  0  0  0
  -27.8898  -19.4911   22.2179 N   0  0  0  0  0  0  0  0  0  0  0  0
  -27.4615  -19.4226   25.8067 N   0  3  0  0  0  0  0  0  0  0  0  0
  -21.3582  -15.7345   17.8789 O   0  0  0  0  0  0  0  0  0  0  0  0
  -28.9492  -23.3619   18.5636 O   0  0  0  0  0  0  0  0  0  0  0  0
  -30.0505  -20.3528   20.5453 O   0  0  0  0  0  0  0  0  0  0  0  0
  -26.3699  -20.6561   23.5256 O   0  0  0  0  0  0  0  0  0  0  0  0
  -20.7021  -22.9701   23.5767 O   0  0  0  0  0  0  0  0  0  0  0  0
  -25.3897  -31.2191   20.9909 O   0  0  0  0  0  0  0  0  0  0  0  0
  -26.1251  -11.6659   20.5712 O   0  0  0  0  0  0  0  0  0  0  0  0
  -25.9338  -27.4207   22.8165 O   0  0  0  0  0  0  0  0  0  1  0  0
  -31.1255  -12.6137   18.4496 F   0  0  0  0  0  0  0  0  0  0  0  0
  -27.8551  -13.4617   21.7648 F   0  0  0  0  0  0  0  0  0  0  0  0
  1  2  1  0  0  0  0
  1  5  2  0  0  0  0
  2  6  2  0  0  0  0
  3 10  2  0  0  0  0
  3 18  1  0  0  0  0
  4 11  1  0  0  0  0
  4 18  2  0  0  0  0
  5 21  1  0  0  0  0
  6 23  1  0  0  0  0
  7  8  2  0  0  0  0
  7 20  1  0  0  0  0
  8 24  1  0  0  0  0
  9 12  2  0  0  0  0
  9 22  1  0  0  0  0
 10 27  1  0  0  0  0
 11 27  2  0  0  0  0
 12 28  1  0  0  0  0
 13 14  2  0  0  0  0
 13 29  1  0  0  0  0
 14 30  1  0  0  0  0
 15 20  2  0  0  0  0
 15 25  1  0  0  0  0
 16 26  1  0  0  0  0
 16 28  2  0  0  0  0
 17 30  2  0  0  0  0
 17 31  1  0  0  0  0
 18 32  1  0  0  0  0
 19 32  1  0  0  0  0
 19 33  2  0  0  0  0
 19 34  1  0  0  0  0
 20 53  1  0  0  0  0
 21 23  2  0  0  0  0
 21 39  1  0  0  0  0
 22 26  2  0  0  0  0
 22 40  1  0  0  0  0
 23 55  1  0  0  0  0
 24 25  2  0  0  0  0
 24 58  1  0  0  0  0
 25 54  1  0  0  0  0
 26 41  1  0  0  0  0
 27 86  1  0  0  0  0
 28 87  1  0  0  0  0
 29 31  2  0  0  0  0
 29 86  1  0  0  0  0
 30 88  1  0  0  0  0
 31 89  1  0  0  0  0
 32 70  2  0  0  0  0
 33 71  1  0  0  0  0
 33 75  1  0  0  0  0
 34 76  1  0  0  0  0
 34 80  2  0  0  0  0
 35 56  1  0  0  0  0
 35 77  1  0  0  0  0
 35 81  2  0  0  0  0
 36 67  1  0  0  0  0
 36 72  1  0  0  0  0
 36 82  2  0  0  0  0
 37 68  1  0  0  0  0
 37 78  1  0  0  0  0
 37 83  2  0  0  0  0
 38 73  1  0  0  0  0
 38 74  1  0  0  0  0
 38 84  2  0  0  0  0
 39 42  1  0  0  0  0
 40 56  1  0  0  0  0
 41 72  1  0  0  0  0
 42 44  1  0  0  0  0
 43 45  1  0  0  0  0
 43 48  1  0  0  0  0
 44 55  1  0  0  0  0
 45 57  1  0  0  0  0
 46 49  1  0  0  0  0
 46 53  1  0  0  0  0
 47 50  1  0  0  0  0
 47 53  1  0  0  0  0
 48 73  1  0  0  0  0
 49 74  1  0  0  0  0
 50 74  1  0  0  0  0
 51 57  1  0  0  0  0
 51 73  1  0  0  0  0
 52 54  1  0  0  0  0
 52 85  1  0  0  0  0
 54 66  1  0  0  0  0
 55 77  1  0  0  0  0
 56 72  1  0  0  0  0
 57 71  1  0  0  0  0
 58 59  1  0  0  0  0
 58 60  1  0  0  0  0
 58 85  1  0  0  0  0
 61 68  1  0  0  0  0
 62 69  1  0  0  0  0
 63 69  1  0  0  0  0
 64 69  1  0  0  0  0
 65 79  1  0  0  0  0
 66 87  1  0  0  0  0
 67 69  1  0  0  0  0
 67 78  1  0  0  0  0
 68 79  1  0  0  0  0
 70 71  1  0  0  0  0
M  CHG  1  79   1
M  ISO  4  38 100  66 101  74 100  87 101
M  END
> <Batch ID>
0158

> <Smiles>
CNC(C)C(=O)NC(C(=O)N1Cc2cc([101O:1][101CH2:1]C3COC(C)(C)c4ccc(C5CC[100N:0]([100C:0](=O)N6CCCC(n7nc(-c8ccc(Oc9ccc(F)cc9F)cc8)c(C(N)=O)c7N)C6)CC5)cc43)ccc2CC1C(=O)NC1CCCc2ccccc21)C(C)(C)C

> <Shape>
0.197

> <Color>
0.073

> <Negative vol penalty>
0.000

$$$$

  -OEChem-04052322043D

 88 97  0     1  0  0  0  0  0999 V2000
  -21.0165  -34.9439   22.3499 C   0  0  0  0  0  0  0  0  0  0  0  0
  -22.2162  -34.3153   22.0322 C   0  0  0  0  0  0  0  0  0  0  0  0
  -24.6411   -9.2416   21.8390 C   0  0  0  0  0  0  0  0  0  0  0  0
  -23.1907   -9.7802   19.9834 C   0  0  0  0  0  0  0  0  0  0  0  0
  -20.0382  -34.2553   23.0661 C   0  0  0  0  0  0  0  0  0  0  0  0
  -22.4388  -32.9979   22.4315 C   0  0  0  0  0  0  0  0  0  0  0  0
  -25.5654  -28.7052   19.3814 C   0  0  0  0  0  0  0  0  0  0  0  0
  -23.5706   -8.6410   22.5014 C   0  0  0  0  0  0  0  0  0  0  0  0
  -22.1201   -9.1796   20.6458 C   0  0  0  0  0  0  0  0  0  0  0  0
  -26.8725  -28.2349   19.5000 C   0  0  0  0  0  0  0  0  0  0  0  0
  -21.8939   -5.7074   22.3771 C   0  0  0  0  0  0  0  0  0  0  0  0
  -22.1164   -4.4688   22.9788 C   0  0  0  0  0  0  0  0  0  0  0  0
  -26.0881  -26.4216   20.8842 C   0  0  0  0  0  0  0  0  0  0  0  0
  -29.3895  -22.1284   19.9514 C   0  0  0  0  0  0  0  0  0  0  0  0
  -28.5721  -22.7941   17.7775 C   0  0  0  0  0  0  0  0  0  0  0  0
  -21.5243   -5.4053   25.1257 C   0  0  0  0  0  0  0  0  0  0  0  0
  -24.4511   -9.8112   20.5799 C   0  0  0  0  0  0  0  0  0  0  0  0
  -26.4613   -9.8175   19.0094 C   0  0  0  0  0  0  0  0  0  0  0  0
  -20.2451  -32.9257   23.4659 C   0  0  0  0  0  0  0  0  0  0  0  0
  -24.5095  -28.0424   20.0234 C   0  0  0  0  0  0  0  0  0  0  0  0
  -21.4630  -32.2913   23.1548 C   0  0  0  0  0  0  0  0  0  0  0  0
  -24.7682  -26.8841   20.7701 C   0  0  0  0  0  0  0  0  0  0  0  0
  -29.9463  -23.3947   20.1298 C   0  0  0  0  0  0  0  0  0  0  0  0
  -29.8160  -24.3608   19.1321 C   0  0  0  0  0  0  0  0  0  0  0  0
  -28.7024  -21.8280   18.7752 C   0  0  0  0  0  0  0  0  0  0  0  0
  -22.3101   -8.6100   21.9049 C   0  0  0  0  0  0  0  0  0  0  0  0
  -27.1344  -27.0946   20.2538 C   0  0  0  0  0  0  0  0  0  0  0  0
  -21.4866   -6.7950   23.1498 C   0  0  0  0  0  0  0  0  0  0  0  0
  -29.1289  -24.0605   17.9559 C   0  0  0  0  0  0  0  0  0  0  0  0
  -21.9316   -4.3177   24.3530 C   0  0  0  0  0  0  0  0  0  0  0  0
  -21.3018   -6.6439   24.5241 C   0  0  0  0  0  0  0  0  0  0  0  0
  -25.5564  -10.4323   19.8954 C   0  0  0  0  0  0  0  0  0  0  0  0
  -27.3142  -10.8267   18.6345 C   0  0  0  0  0  0  0  0  0  0  0  0
  -26.5251   -8.4558   18.5648 C   0  0  0  0  0  0  0  0  0  0  0  0
  -22.4024  -28.8291   22.2695 C   0  0  0  0  0  0  0  0  0  0  0  0
  -21.1549  -25.9178   21.5695 C   0  0  0  0  0  0  0  0  0  0  0  0
  -21.6449  -22.7805   20.3186 C   0  0  0  0  0  0  0  0  0  0  0  0
  -26.7914  -16.5687   18.2055 C   0  0  0  0  0  0  0  0  0  0  0  0
  -19.1775  -32.2377   24.2792 C   0  0  0  0  0  0  0  0  0  0  0  0
  -23.1016  -28.5472   19.8638 C   0  0  0  0  0  0  0  0  0  0  0  0
  -23.6671  -26.1245   21.4623 C   0  0  0  0  0  0  0  0  0  0  0  0
  -19.3407  -30.7212   24.3403 C   0  0  0  0  0  0  0  0  0  0  0  0
  -29.1798  -14.9382   20.1997 C   0  0  0  0  0  0  0  0  0  0  0  0
  -20.7884  -30.3521   24.6481 C   0  0  0  0  0  0  0  0  0  0  0  0
  -28.6061  -13.5231   20.2649 C   0  0  0  0  0  0  0  0  0  0  0  0
  -28.0885  -16.0045   20.3078 C   0  0  0  0  0  0  0  0  0  0  0  0
  -28.5836  -19.7300   17.4666 C   0  0  0  0  0  0  0  0  0  0  0  0
  -27.6726  -19.8430   19.7911 C   0  0  0  0  0  0  0  0  0  0  0  0
  -27.5511  -18.6563   17.1338 C   0  0  0  0  0  0  0  0  0  0  0  0
  -26.6492  -18.7777   19.4138 C   0  0  0  0  0  0  0  0  0  0  0  0
  -26.4174  -14.4270   19.3931 C   0  0  0  0  0  0  0  0  0  0  0  0
  -21.7317  -30.8551   23.5487 C   0  0  1  0  0  0  0  0  0  0  0  0
  -22.1718  -28.0883   20.9828 C   0  0  1  0  0  0  0  0  0  0  0  0
  -27.4845  -13.3336   19.2283 C   0  0  2  0  0  0  0  0  0  0  0  0
  -30.6772  -23.6916   21.3982 C   0  0  0  0  0  0  0  0  0  0  0  0
  -31.4958  -26.0226   18.2670 C   0  0  0  0  0  0  0  0  0  0  0  0
  -20.4481  -20.6125   19.9129 C   0  0  0  0  0  0  0  0  0  0  0  0
  -21.3366  -25.2635   24.5442 C   0  0  0  0  0  0  0  0  0  0  0  0
  -21.0479  -22.8464   23.9591 C   0  0  0  0  0  0  0  0  0  0  0  0
  -19.2389  -24.4807   23.4301 C   0  0  0  0  0  0  0  0  0  0  0  0
  -22.0900  -22.9477   17.3975 C   0  0  0  0  0  0  0  0  0  0  0  0
  -28.2739  -24.5974   15.8027 C   0  0  0  0  0  0  0  0  0  0  0  0
  -29.3520  -26.8443   19.3112 C   0  0  0  0  0  0  0  0  0  1  0  0
  -30.4110  -25.7201   19.3181 C   0  0  1  0  0  0  0  0  0  0  0  0
  -21.3727  -24.5119   22.0744 C   0  0  1  0  0  0  0  0  0  0  0  0
  -20.8470  -21.9567   19.3241 C   0  0  2  0  0  0  0  0  0  0  0  0
  -20.7703  -24.2908   23.4906 C   0  0  0  0  0  0  0  0  0  0  0  0
  -25.8109  -11.7314   20.0729 N   0  0  0  0  0  0  0  0  0  0  0  0
  -26.8853  -11.9412   19.2934 N   0  0  0  0  0  0  0  0  0  0  0  0
  -28.1432  -20.5563   18.5958 N   0  0  0  0  0  0  0  0  0  0  0  0
  -22.3082  -26.6612   21.2814 N   0  0  0  0  0  0  0  0  0  0  0  0
  -27.0219  -15.7592   19.3279 N   0  0  0  0  0  0  0  0  0  0  0  0
  -27.1281  -17.9264   18.3228 N   0  0  0  0  0  0  0  0  0  0  0  0
  -28.3818  -10.8606   17.8090 N   0  0  0  0  0  0  0  0  0  0  0  0
  -25.5714   -7.5498   19.0483 N   0  0  0  0  0  0  0  0  0  0  0  0
  -21.6637  -29.9908   22.3900 N   0  0  0  0  0  0  0  0  0  0  0  0
  -20.8347  -23.6225   21.0507 N   0  0  0  0  0  0  0  0  0  0  0  0
  -21.6500  -21.7109   18.0929 N   0  3  0  0  0  0  0  0  0  0  0  0
  -27.4119   -8.0508   17.7754 O   0  0  0  0  0  0  0  0  0  0  0  0
  -23.1908  -28.3794   23.0927 O   0  0  0  0  0  0  0  0  0  0  0  0
  -20.0038  -26.3382   21.4288 O   0  0  0  0  0  0  0  0  0  0  0  0
  -22.8644  -22.6839   20.4370 O   0  0  0  0  0  0  0  0  0  0  0  0
  -26.3167  -16.1079   17.1600 O   0  0  0  0  0  0  0  0  0  0  0  0
  -21.2653   -8.0238   22.5509 O   0  0  0  0  0  0  0  0  0  0  0  0
  -28.9915  -24.9914   16.9703 O   0  0  0  0  0  0  0  0  0  0  0  0
  -28.4304  -26.6261   20.3736 O   0  0  0  0  0  0  0  0  0  1  0  0
  -22.1439   -3.1279   24.9304 F   0  0  0  0  0  0  0  0  0  0  0  0
  -20.9094   -7.6848   25.2714 F   0  0  0  0  0  0  0  0  0  0  0  0
  1  2  1  0  0  0  0
  1  5  2  0  0  0  0
  2  6  2  0  0  0  0
  3  8  2  0  0  0  0
  3 17  1  0  0  0  0
  4  9  1  0  0  0  0
  4 17  2  0  0  0  0
  5 19  1  0  0  0  0
  6 21  1  0  0  0  0
  7 10  2  0  0  0  0
  7 20  1  0  0  0  0
  8 26  1  0  0  0  0
  9 26  2  0  0  0  0
 10 27  1  0  0  0  0
 11 12  2  0  0  0  0
 11 28  1  0  0  0  0
 12 30  1  0  0  0  0
 13 22  1  0  0  0  0
 13 27  2  0  0  0  0
 14 23  2  0  0  0  0
 14 25  1  0  0  0  0
 15 25  2  0  0  0  0
 15 29  1  0  0  0  0
 16 30  2  0  0  0  0
 16 31  1  0  0  0  0
 17 32  1  0  0  0  0
 18 32  1  0  0  0  0
 18 33  2  0  0  0  0
 18 34  1  0  0  0  0
 19 21  2  0  0  0  0
 19 39  1  0  0  0  0
 20 22  2  0  0  0  0
 20 40  1  0  0  0  0
 21 52  1  0  0  0  0
 22 41  1  0  0  0  0
 23 24  1  0  0  0  0
 23 55  1  0  0  0  0
 24 29  2  0  0  0  0
 24 64  1  0  0  0  0
 25 70  1  0  0  0  0
 26 84  1  0  0  0  0
 27 86  1  0  0  0  0
 28 31  2  0  0  0  0
 28 84  1  0  0  0  0
 29 85  1  0  0  0  0
 30 87  1  0  0  0  0
 31 88  1  0  0  0  0
 32 68  2  0  0  0  0
 33 69  1  0  0  0  0
 33 74  1  0  0  0  0
 34 75  1  0  0  0  0
 34 79  2  0  0  0  0
 35 53  1  0  0  0  0
 35 76  1  0  0  0  0
 35 80  2  0  0  0  0
 36 65  1  0  0  0  0
 36 71  1  0  0  0  0
 36 81  2  0  0  0  0
 37 66  1  0  0  0  0
 37 77  1  0  0  0  0
 37 82  2  0  0  0  0
 38 72  1  0  0  0  0
 38 73  1  0  0  0  0
 38 83  2  0  0  0  0
 39 42  1  0  0  0  0
 40 53  1  0  0  0  0
 41 71  1  0  0  0  0
 42 44  1  0  0  0  0
 43 45  1  0  0  0  0
 43 46  1  0  0  0  0
 44 52  1  0  0  0  0
 45 54  1  0  0  0  0
 46 72  1  0  0  0  0
 47 49  1  0  0  0  0
 47 70  1  0  0  0  0
 48 50  1  0  0  0  0
 48 70  1  0  0  0  0
 49 73  1  0  0  0  0
 50 73  1  0  0  0  0
 51 54  1  0  0  0  0
 51 72  1  0  0  0  0
 52 76  1  0  0  0  0
 53 71  1  0  0  0  0
 54 69  1  0  0  0  0
 56 64  1  0  0  0  0
 57 66  1  0  0  0  0
 58 67  1  0  0  0  0
 59 67  1  0  0  0  0
 60 67  1  0  0  0  0
 61 78  1  0  0  0  0
 62 85  1  0  0  0  0
 63 64  1  0  0  0  0
 63 86  1  0  0  0  0
 65 67  1  0  0  0  0
 65 77  1  0  0  0  0
 66 78  1  0  0  0  0
 68 69  1  0  0  0  0
M  CHG  1  78   1
M  ISO  4  38 100  63 101  73 100  86 101
M  END
> <Batch ID>
0158

> <Smiles>
CNC(C)C(=O)NC(C(=O)N1Cc2cc([101O:1][101CH2:1]C(C)c3c(C)cc(N4CC[100N:0]([100C:0](=O)N5CCCC(n6nc(-c7ccc(Oc8ccc(F)cc8F)cc7)c(C(N)=O)c6N)C5)CC4)cc3OC)ccc2CC1C(=O)NC1CCCc2ccccc21)C(C)(C)C

> <Shape>
0.268

> <Color>
0.109

> <Negative vol penalty>
0.000

$$$$

  -OEChem-04052322043D

 86 95  0     1  0  0  0  0  0999 V2000
  -28.2361  -36.3439   24.1786 C   0  0  0  0  0  0  0  0  0  0  0  0
  -28.5590  -35.0137   23.9304 C   0  0  0  0  0  0  0  0  0  0  0  0
  -23.5264  -10.2101   22.0675 C   0  0  0  0  0  0  0  0  0  0  0  0
  -24.7974   -8.3431   21.2098 C   0  0  0  0  0  0  0  0  0  0  0  0
  -26.9069  -36.7106   24.3852 C   0  0  0  0  0  0  0  0  0  0  0  0
  -27.5528  -34.0491   23.8897 C   0  0  0  0  0  0  0  0  0  0  0  0
  -27.3476  -29.0927   20.2984 C   0  0  0  0  0  0  0  0  0  0  0  0
  -22.3575   -9.4539   21.9816 C   0  0  0  0  0  0  0  0  0  0  0  0
  -23.6285   -7.5868   21.1239 C   0  0  0  0  0  0  0  0  0  0  0  0
  -27.6685  -27.7552   20.5264 C   0  0  0  0  0  0  0  0  0  0  0  0
  -21.0320   -5.0441   21.0185 C   0  0  0  0  0  0  0  0  0  0  0  0
  -21.0740   -3.7291   21.4818 C   0  0  0  0  0  0  0  0  0  0  0  0
  -28.5648  -21.8286   22.7328 C   0  0  0  0  0  0  0  0  0  0  0  0
  -28.8205  -21.4624   20.3585 C   0  0  0  0  0  0  0  0  0  0  0  0
  -25.3498  -27.2856   20.9981 C   0  0  0  0  0  0  0  0  0  0  0  0
  -21.6736   -4.5239   23.6832 C   0  0  0  0  0  0  0  0  0  0  0  0
  -24.7464   -9.6547   21.6816 C   0  0  0  0  0  0  0  0  0  0  0  0
  -26.8295  -10.5265   22.8682 C   0  0  0  0  0  0  0  0  0  0  0  0
  -25.8829  -35.7516   24.3375 C   0  0  0  0  0  0  0  0  0  0  0  0
  -26.0249  -29.5396   20.4294 C   0  0  0  0  0  0  0  0  0  0  0  0
  -26.2088  -34.4031   24.0972 C   0  0  0  0  0  0  0  0  0  0  0  0
  -28.7600  -20.9606   21.6585 C   0  0  0  0  0  0  0  0  0  0  0  0
  -25.0143  -28.6287   20.7687 C   0  0  0  0  0  0  0  0  0  0  0  0
  -28.4300  -23.1985   22.5070 C   0  0  0  0  0  0  0  0  0  0  0  0
  -28.4905  -23.7003   21.2069 C   0  0  0  0  0  0  0  0  0  0  0  0
  -22.4085   -8.1423   21.5099 C   0  0  0  0  0  0  0  0  0  0  0  0
  -26.6700  -26.8520   20.8791 C   0  0  0  0  0  0  0  0  0  0  0  0
  -21.3109   -6.0990   21.8875 C   0  0  0  0  0  0  0  0  0  0  0  0
  -28.6857  -22.8323   20.1326 C   0  0  0  0  0  0  0  0  0  0  0  0
  -21.3947   -3.4690   22.8142 C   0  0  0  0  0  0  0  0  0  0  0  0
  -21.6317   -5.8389   23.2198 C   0  0  0  0  0  0  0  0  0  0  0  0
  -25.9541  -10.4356   21.7695 C   0  0  0  0  0  0  0  0  0  0  0  0
  -27.8151  -11.3877   22.4517 C   0  0  0  0  0  0  0  0  0  0  0  0
  -26.7582   -9.8894   24.1507 C   0  0  0  0  0  0  0  0  0  0  0  0
  -24.5414  -31.6393   22.2987 C   0  0  0  0  0  0  0  0  0  0  0  0
  -22.0088  -30.9632   20.3880 C   0  0  0  0  0  0  0  0  0  0  0  0
  -20.4824  -28.7647   18.2706 C   0  0  0  0  0  0  0  0  0  0  0  0
  -29.5551  -15.9322   19.9336 C   0  0  0  0  0  0  0  0  0  0  0  0
  -24.4660  -36.1882   24.6139 C   0  0  0  0  0  0  0  0  0  0  0  0
  -25.6909  -30.9801   20.1539 C   0  0  0  0  0  0  0  0  0  0  0  0
  -23.5757  -29.0539   20.9025 C   0  0  0  0  0  0  0  0  0  0  0  0
  -23.4183  -35.1650   24.1828 C   0  0  0  0  0  0  0  0  0  0  0  0
  -28.8571  -13.2466   17.8724 C   0  0  0  0  0  0  0  0  0  0  0  0
  -23.8135  -33.7674   24.6489 C   0  0  0  0  0  0  0  0  0  0  0  0
  -28.1107  -12.2731   18.7842 C   0  0  0  0  0  0  0  0  0  0  0  0
  -27.7773  -18.6631   21.2371 C   0  0  0  0  0  0  0  0  0  0  0  0
  -30.2831  -18.9444   21.4634 C   0  0  0  0  0  0  0  0  0  0  0  0
  -28.4129  -14.6823   18.1270 C   0  0  0  0  0  0  0  0  0  0  0  0
  -27.9481  -17.1580   21.4619 C   0  0  0  0  0  0  0  0  0  0  0  0
  -30.3917  -17.4421   21.7081 C   0  0  0  0  0  0  0  0  0  0  0  0
  -27.8277  -14.1553   20.4717 C   0  0  0  0  0  0  0  0  0  0  0  0
  -28.9052  -19.4706   21.9043 C   0  0  0  0  0  0  0  0  0  0  0  0
  -25.1428  -33.3317   24.0207 C   0  0  1  0  0  0  0  0  0  0  0  0
  -24.3934  -31.4302   20.8182 C   0  0  1  0  0  0  0  0  0  0  0  0
  -28.2443  -12.6855   20.2609 C   0  0  1  0  0  0  0  0  0  0  0  0
  -28.2205  -24.1068   23.6741 C   0  0  0  0  0  0  0  0  0  0  0  0
  -18.4033  -28.4746   16.8956 C   0  0  0  0  0  0  0  0  0  0  0  0
  -20.4235  -30.3433   22.9203 C   0  0  0  0  0  0  0  0  0  0  0  0
  -18.7303  -29.1775   21.4913 C   0  0  0  0  0  0  0  0  0  0  0  0
  -19.1550  -31.6159   21.1808 C   0  0  0  0  0  0  0  0  0  0  0  0
  -22.0311  -28.5900   15.7546 C   0  0  0  0  0  0  0  0  0  0  0  0
  -27.5210  -23.3875   18.1349 C   0  0  0  0  0  0  0  0  0  0  0  0
  -28.3475  -25.1682   20.9593 C   0  0  0  0  0  0  0  0  0  1  0  0
  -20.8922  -29.9474   20.4124 C   0  0  1  0  0  0  0  0  0  0  0  0
  -19.8453  -28.9575   16.9062 C   0  0  2  0  0  0  0  0  0  0  0  0
  -19.8276  -30.2631   21.5007 C   0  0  0  0  0  0  0  0  0  0  0  0
  -26.3487  -11.1797   20.7329 N   0  0  0  0  0  0  0  0  0  0  0  0
  -27.4829  -11.7465   21.1785 N   0  0  0  0  0  0  0  0  0  0  0  0
  -23.3004  -30.4741   20.6292 N   0  0  0  0  0  0  0  0  0  0  0  0
  -28.5515  -15.0342   19.5400 N   0  0  0  0  0  0  0  0  0  0  0  0
  -29.2937  -16.7229   21.0627 N   0  0  0  0  0  0  0  0  0  0  0  0
  -28.9248  -11.8654   23.0540 N   0  0  0  0  0  0  0  0  0  0  0  0
  -25.6787   -9.0349   24.4132 N   0  0  0  0  0  0  0  0  0  0  0  0
  -24.9411  -32.9147   22.6496 N   0  0  0  0  0  0  0  0  0  0  0  0
  -20.3609  -29.8923   19.0549 N   0  0  0  0  0  0  0  0  0  0  0  0
  -20.6021  -28.2002   15.8695 N   0  3  0  0  0  0  0  0  0  0  0  0
  -27.6173  -10.0852   25.0435 O   0  0  0  0  0  0  0  0  0  0  0  0
  -24.3088  -30.7126   23.0661 O   0  0  0  0  0  0  0  0  0  0  0  0
  -21.7455  -32.1458   20.1563 O   0  0  0  0  0  0  0  0  0  0  0  0
  -21.0296  -27.7173   18.6082 O   0  0  0  0  0  0  0  0  0  0  0  0
  -30.6223  -16.0222   19.3138 O   0  0  0  0  0  0  0  0  0  0  0  0
  -21.2681   -7.4040   21.4261 O   0  0  0  0  0  0  0  0  0  0  0  0
  -28.7486  -23.3044   18.8561 O   0  0  0  0  0  0  0  0  0  0  0  0
  -26.9828  -25.5366   21.1045 O   0  0  0  0  0  0  0  0  0  1  0  0
  -21.4334   -2.2063   23.2593 F   0  0  0  0  0  0  0  0  0  0  0  0
  -21.8994   -6.8483   24.0596 F   0  0  0  0  0  0  0  0  0  0  0  0
  1  2  1  0  0  0  0
  1  5  2  0  0  0  0
  2  6  2  0  0  0  0
  3  8  2  0  0  0  0
  3 17  1  0  0  0  0
  4  9  1  0  0  0  0
  4 17  2  0  0  0  0
  5 19  1  0  0  0  0
  6 21  1  0  0  0  0
  7 10  2  0  0  0  0
  7 20  1  0  0  0  0
  8 26  1  0  0  0  0
  9 26  2  0  0  0  0
 10 27  1  0  0  0  0
 11 12  2  0  0  0  0
 11 28  1  0  0  0  0
 12 30  1  0  0  0  0
 13 22  1  0  0  0  0
 13 24  2  0  0  0  0
 14 22  2  0  0  0  0
 14 29  1  0  0  0  0
 15 23  1  0  0  0  0
 15 27  2  0  0  0  0
 16 30  2  0  0  0  0
 16 31  1  0  0  0  0
 17 32  1  0  0  0  0
 18 32  1  0  0  0  0
 18 33  2  0  0  0  0
 18 34  1  0  0  0  0
 19 21  2  0  0  0  0
 19 39  1  0  0  0  0
 20 23  2  0  0  0  0
 20 40  1  0  0  0  0
 21 53  1  0  0  0  0
 22 52  1  0  0  0  0
 23 41  1  0  0  0  0
 24 25  1  0  0  0  0
 24 56  1  0  0  0  0
 25 29  2  0  0  0  0
 25 63  1  0  0  0  0
 26 82  1  0  0  0  0
 27 84  1  0  0  0  0
 28 31  2  0  0  0  0
 28 82  1  0  0  0  0
 29 83  1  0  0  0  0
 30 85  1  0  0  0  0
 31 86  1  0  0  0  0
 32 67  2  0  0  0  0
 33 68  1  0  0  0  0
 33 72  1  0  0  0  0
 34 73  1  0  0  0  0
 34 77  2  0  0  0  0
 35 54  1  0  0  0  0
 35 74  1  0  0  0  0
 35 78  2  0  0  0  0
 36 64  1  0  0  0  0
 36 69  1  0  0  0  0
 36 79  2  0  0  0  0
 37 65  1  0  0  0  0
 37 75  1  0  0  0  0
 37 80  2  0  0  0  0
 38 70  1  0  0  0  0
 38 71  1  0  0  0  0
 38 81  2  0  0  0  0
 39 42  1  0  0  0  0
 40 54  1  0  0  0  0
 41 69  1  0  0  0  0
 42 44  1  0  0  0  0
 43 45  1  0  0  0  0
 43 48  1  0  0  0  0
 44 53  1  0  0  0  0
 45 55  1  0  0  0  0
 46 49  1  0  0  0  0
 46 52  1  0  0  0  0
 47 50  1  0  0  0  0
 47 52  1  0  0  0  0
 48 70  1  0  0  0  0
 49 71  1  0  0  0  0
 50 71  1  0  0  0  0
 51 55  1  0  0  0  0
 51 70  1  0  0  0  0
 53 74  1  0  0  0  0
 54 69  1  0  0  0  0
 55 68  1  0  0  0  0
 57 65  1  0  0  0  0
 58 66  1  0  0  0  0
 59 66  1  0  0  0  0
 60 66  1  0  0  0  0
 61 76  1  0  0  0  0
 62 83  1  0  0  0  0
 63 84  1  0  0  0  0
 64 66  1  0  0  0  0
 64 75  1  0  0  0  0
 65 76  1  0  0  0  0
 67 68  1  0  0  0  0
M  CHG  1  76   1
M  ISO  4  38 100  63 101  71 100  84 101
M  END
> <Batch ID>
0158

> <Smiles>
CNC(C)C(=O)NC(C(=O)N1Cc2cc([101O:1][101CH2:1]c3c(C)cc(C4CC[100N:0]([100C:0](=O)N5CCCC(n6nc(-c7ccc(Oc8ccc(F)cc8F)cc7)c(C(N)=O)c6N)C5)CC4)cc3OC)ccc2CC1C(=O)NC1CCCc2ccccc21)C(C)(C)C

> <Shape>
0.311

> <Color>
0.098

> <Negative vol penalty>
0.000

$$$$

  -OEChem-04052322043D

 94104  0     1  0  0  0  0  0999 V2000
  -19.3709   -7.8422   19.1520 C   0  0  0  0  0  0  0  0  0  0  0  0
  -19.3318   -9.0560   18.4732 C   0  0  0  0  0  0  0  0  0  0  0  0
  -27.8610  -25.2910   19.8553 C   0  0  0  0  0  0  0  0  0  0  0  0
  -27.3985  -25.7249   22.1866 C   0  0  0  0  0  0  0  0  0  0  0  0
  -19.9757   -7.7651   20.4058 C   0  0  0  0  0  0  0  0  0  0  0  0
  -19.8966  -10.1937   19.0486 C   0  0  0  0  0  0  0  0  0  0  0  0
  -23.2944  -16.2458   17.2756 C   0  0  0  0  0  0  0  0  0  0  0  0
  -27.6399  -23.9298   20.0648 C   0  0  0  0  0  0  0  0  0  0  0  0
  -27.1773  -24.3637   22.3961 C   0  0  0  0  0  0  0  0  0  0  0  0
  -23.2210  -17.6226   17.4828 C   0  0  0  0  0  0  0  0  0  0  0  0
  -29.3305  -21.3013   21.3523 C   0  0  0  0  0  0  0  0  0  0  0  0
  -30.2419  -20.4042   20.7955 C   0  0  0  0  0  0  0  0  0  0  0  0
  -24.3090  -17.3531   19.6189 C   0  0  0  0  0  0  0  0  0  0  0  0
  -28.4633  -19.3968   19.5074 C   0  0  0  0  0  0  0  0  0  0  0  0
  -27.7404  -26.1885   20.9162 C   0  0  0  0  0  0  0  0  0  0  0  0
  -29.1530  -28.2027   20.2414 C   0  0  0  0  0  0  0  0  0  0  0  0
  -20.5568   -8.9004   20.9926 C   0  0  0  0  0  0  0  0  0  0  0  0
  -23.8668  -15.4097   18.2450 C   0  0  0  0  0  0  0  0  0  0  0  0
  -20.5086  -10.1320   20.3121 C   0  0  0  0  0  0  0  0  0  0  0  0
  -24.3908  -15.9664   19.4205 C   0  0  0  0  0  0  0  0  0  0  0  0
  -20.2892  -27.2310   22.2105 C   0  0  0  0  0  0  0  0  0  0  0  0
  -19.1207  -26.5396   21.8765 C   0  0  0  0  0  0  0  0  0  0  0  0
  -20.2250  -28.3579   23.0427 C   0  0  0  0  0  0  0  0  0  0  0  0
  -17.8884  -26.9793   22.3590 C   0  0  0  0  0  0  0  0  0  0  0  0
  -17.8210  -28.1003   23.1851 C   0  0  0  0  0  0  0  0  0  0  0  0
  -27.2980  -23.4662   21.3352 C   0  0  0  0  0  0  0  0  0  0  0  0
  -23.7257  -18.1761   18.6558 C   0  0  0  0  0  0  0  0  0  0  0  0
  -27.9854  -21.2462   20.9868 C   0  0  0  0  0  0  0  0  0  0  0  0
  -18.9862  -28.7839   23.5337 C   0  0  0  0  0  0  0  0  0  0  0  0
  -29.8084  -19.4520   19.8730 C   0  0  0  0  0  0  0  0  0  0  0  0
  -27.5519  -20.2939   20.0643 C   0  0  0  0  0  0  0  0  0  0  0  0
  -27.9692  -27.5947   20.7005 C   0  0  0  0  0  0  0  0  0  0  0  0
  -28.8595  -29.5440   20.2081 C   0  0  0  0  0  0  0  0  0  0  0  0
  -30.4058  -27.6081   19.8773 C   0  0  0  0  0  0  0  0  0  0  0  0
  -22.8131  -13.0075   20.0402 C   0  0  0  0  0  0  0  0  0  0  0  0
  -25.9337  -12.7947   20.8997 C   0  0  0  0  0  0  0  0  0  0  0  0
  -28.9609  -14.3366   21.2249 C   0  0  0  0  0  0  0  0  0  0  0  0
  -23.7353  -29.7552   22.7568 C   0  0  0  0  0  0  0  0  0  0  0  0
  -21.1574   -8.7784   22.3706 C   0  0  0  0  0  0  0  0  0  0  0  0
  -23.9625  -13.9297   17.9946 C   0  0  0  0  0  0  0  0  0  0  0  0
  -21.6382  -26.7841   21.7285 C   0  0  0  0  0  0  0  0  0  0  0  0
  -25.0335  -15.1146   20.4834 C   0  0  0  0  0  0  0  0  0  0  0  0
  -21.4994  -29.0343   23.4630 C   0  0  0  0  0  0  0  0  0  0  0  0
  -22.0635   -9.9482   22.7458 C   0  0  0  0  0  0  0  0  0  0  0  0
  -24.6197  -31.7392   19.6537 C   0  0  0  0  0  0  0  0  0  0  0  0
  -21.3942  -11.2744   22.3993 C   0  0  0  0  0  0  0  0  0  0  0  0
  -26.0796  -31.3468   19.4612 C   0  0  0  0  0  0  0  0  0  0  0  0
  -19.7458  -25.6766   19.6318 C   0  0  0  0  0  0  0  0  0  0  0  0
  -20.0158  -24.2283   21.6851 C   0  0  0  0  0  0  0  0  0  0  0  0
  -22.5011  -27.9991   21.3881 C   0  0  0  0  0  0  0  0  0  0  0  0
  -23.8685  -30.6307   20.3817 C   0  0  0  0  0  0  0  0  0  0  0  0
  -25.7819  -30.8656   21.9750 C   0  0  0  0  0  0  0  0  0  0  0  0
  -19.8877  -24.4404   18.7530 C   0  0  0  0  0  0  0  0  0  0  0  0
  -20.1552  -23.0031   20.7907 C   0  0  0  0  0  0  0  0  0  0  0  0
  -19.1720  -25.3208   21.0114 C   0  0  0  0  0  0  0  0  0  0  0  0
  -21.1322  -11.3829   20.8923 C   0  0  1  0  0  0  0  0  0  0  0  0
  -24.1027  -13.1146   19.2766 C   0  0  1  0  0  0  0  0  0  0  0  0
  -26.7539  -30.9293   20.7823 C   0  0  1  0  0  0  0  0  0  0  0  0
  -16.6344  -26.2483   21.9934 C   0  0  0  0  0  0  0  0  0  0  0  0
  -16.4997  -28.5750   23.7026 C   0  0  0  0  0  0  0  0  0  0  0  0
  -31.3134  -13.9164   21.9906 C   0  0  0  0  0  0  0  0  0  0  0  0
  -25.0153  -12.9608   23.8047 C   0  0  0  0  0  0  0  0  0  0  0  0
  -27.3761  -13.4912   24.4479 C   0  0  0  0  0  0  0  0  0  0  0  0
  -26.8380  -11.3019   23.3801 C   0  0  0  0  0  0  0  0  0  0  0  0
  -30.0614  -14.9135   18.5389 C   0  0  0  0  0  0  0  0  0  0  0  0
  -19.0130  -29.6327   25.7541 C   0  0  0  0  0  0  0  0  0  0  0  0
  -21.0186  -22.2250   18.5852 C   0  0  0  0  0  0  0  0  0  0  0  0
  -22.5580  -20.2097   18.2596 C   0  0  0  0  0  0  0  0  0  1  0  0
  -26.7886  -13.4080   21.9823 C   0  0  1  0  0  0  0  0  0  0  0  0
  -30.3574  -13.9122   20.8079 C   0  0  2  0  0  0  0  0  0  0  0  0
  -22.2050  -21.4234   19.1134 C   0  0  1  0  0  0  0  0  0  0  0  0
  -26.4907  -12.8066   23.3848 C   0  0  0  0  0  0  0  0  0  0  0  0
  -26.9963  -28.4774   20.9419 N   0  0  0  0  0  0  0  0  0  0  0  0
  -27.5682  -29.6537   20.6332 N   0  0  0  0  0  0  0  0  0  0  0  0
  -25.0976  -13.6723   20.1950 N   0  0  0  0  0  0  0  0  0  0  0  0
  -22.5899  -28.9876   22.4754 N   0  0  0  0  0  0  0  0  0  0  0  0
  -24.4706  -30.2798   21.6761 N   0  0  0  0  0  0  0  0  0  0  0  0
  -29.5826  -30.6286   19.8571 N   0  0  0  0  0  0  0  0  0  0  0  0
  -31.3818  -27.4456   20.8700 N   0  0  0  0  0  0  0  0  0  0  0  0
  -22.3535  -11.7129   20.1894 N   0  0  0  0  0  0  0  0  0  0  0  0
  -28.1723  -13.2523   21.5470 N   0  0  0  0  0  0  0  0  0  0  0  0
  -20.7407  -23.4155   19.4614 N   0  3  0  0  0  0  0  0  0  0  0  0
  -30.8913  -14.8373   19.7687 N   0  3  0  0  0  0  0  0  0  0  0  0
  -30.6587  -27.2472   18.7029 O   0  0  0  0  0  0  0  0  0  0  0  0
  -22.2756  -14.0240   20.4640 O   0  0  0  0  0  0  0  0  0  0  0  0
  -26.0103  -11.5829   20.6825 O   0  0  0  0  0  0  0  0  0  0  0  0
  -28.6061  -15.5127   21.2648 O   0  0  0  0  0  0  0  0  0  0  0  0
  -24.0786  -29.9732   23.9277 O   0  0  0  0  0  0  0  0  0  0  0  0
  -23.3539  -22.2684   19.1946 O   0  0  0  0  0  0  0  0  0  0  0  0
  -27.0820  -22.1380   21.5399 O   0  0  0  0  0  0  0  0  0  0  0  0
  -18.9078  -29.8712   24.3536 O   0  0  0  0  0  0  0  0  0  0  0  0
  -23.6542  -19.5278   18.8620 O   0  0  0  0  0  0  0  0  0  1  0  0
  -30.6840  -18.5916   19.3372 F   0  0  0  0  0  0  0  0  0  0  0  0
  -26.2612  -20.2369   19.7083 F   0  0  0  0  0  0  0  0  0  0  0  0
  1  2  1  0  0  0  0
  1  5  2  0  0  0  0
  2  6  2  0  0  0  0
  3  8  2  0  0  0  0
  3 15  1  0  0  0  0
  4  9  1  0  0  0  0
  4 15  2  0  0  0  0
  5 17  1  0  0  0  0
  6 19  1  0  0  0  0
  7 10  2  0  0  0  0
  7 18  1  0  0  0  0
  8 26  1  0  0  0  0
  9 26  2  0  0  0  0
 10 27  1  0  0  0  0
 11 12  2  0  0  0  0
 11 28  1  0  0  0  0
 12 30  1  0  0  0  0
 13 20  1  0  0  0  0
 13 27  2  0  0  0  0
 14 30  2  0  0  0  0
 14 31  1  0  0  0  0
 15 32  1  0  0  0  0
 16 32  1  0  0  0  0
 16 33  2  0  0  0  0
 16 34  1  0  0  0  0
 17 19  2  0  0  0  0
 17 39  1  0  0  0  0
 18 20  2  0  0  0  0
 18 40  1  0  0  0  0
 19 56  1  0  0  0  0
 20 42  1  0  0  0  0
 21 22  2  0  0  0  0
 21 23  1  0  0  0  0
 21 41  1  0  0  0  0
 22 24  1  0  0  0  0
 22 55  1  0  0  0  0
 23 29  2  0  0  0  0
 23 43  1  0  0  0  0
 24 25  2  0  0  0  0
 24 59  1  0  0  0  0
 25 29  1  0  0  0  0
 25 60  1  0  0  0  0
 26 90  1  0  0  0  0
 27 92  1  0  0  0  0
 28 31  2  0  0  0  0
 28 90  1  0  0  0  0
 29 91  1  0  0  0  0
 30 93  1  0  0  0  0
 31 94  1  0  0  0  0
 32 73  2  0  0  0  0
 33 74  1  0  0  0  0
 33 78  1  0  0  0  0
 34 79  1  0  0  0  0
 34 84  2  0  0  0  0
 35 57  1  0  0  0  0
 35 80  1  0  0  0  0
 35 85  2  0  0  0  0
 36 69  1  0  0  0  0
 36 75  1  0  0  0  0
 36 86  2  0  0  0  0
 37 70  1  0  0  0  0
 37 81  1  0  0  0  0
 37 87  2  0  0  0  0
 38 76  1  0  0  0  0
 38 77  1  0  0  0  0
 38 88  2  0  0  0  0
 39 44  1  0  0  0  0
 40 57  1  0  0  0  0
 41 50  1  0  0  0  0
 42 75  1  0  0  0  0
 43 76  1  0  0  0  0
 44 46  1  0  0  0  0
 45 47  1  0  0  0  0
 45 51  1  0  0  0  0
 46 56  1  0  0  0  0
 47 58  1  0  0  0  0
 48 53  1  0  0  0  0
 48 55  1  0  0  0  0
 49 54  1  0  0  0  0
 49 55  1  0  0  0  0
 50 76  1  0  0  0  0
 51 77  1  0  0  0  0
 52 58  1  0  0  0  0
 52 77  1  0  0  0  0
 53 82  1  0  0  0  0
 54 82  1  0  0  0  0
 56 80  1  0  0  0  0
 57 75  1  0  0  0  0
 58 74  1  0  0  0  0
 61 70  1  0  0  0  0
 62 72  1  0  0  0  0
 63 72  1  0  0  0  0
 64 72  1  0  0  0  0
 65 83  1  0  0  0  0
 66 91  1  0  0  0  0
 67 71  1  0  0  0  0
 67 82  1  0  0  0  0
 68 71  1  0  0  0  0
 68 92  1  0  0  0  0
 69 72  1  0  0  0  0
 69 81  1  0  0  0  0
 70 83  1  0  0  0  0
 71 89  1  0  0  0  0
 73 74  1  0  0  0  0
M  CHG  2  82   1  83   1
M  ISO  4  38 100  68 101  76 100  92 101
M  END
> <Batch ID>
0158

> <Smiles>
CNC(C)C(=O)NC(C(=O)N1Cc2cc([101O:1][101CH2:1]C(O)CN3CCC(c4c(C)c(C)c(OC)c5c4CC[100N:0]([100C:0](=O)N4CCCC(n6nc(-c7ccc(Oc8ccc(F)cc8F)cc7)c(C(N)=O)c6N)C4)C5)CC3)ccc2CC1C(=O)NC1CCCc2ccccc21)C(C)(C)C

> <Shape>
0.286

> <Color>
0.054

> <Negative vol penalty>
0.000

$$$$

  -OEChem-04052322043D

 93103  0     1  0  0  0  0  0999 V2000
  -17.6216  -30.4195   14.8022 C   0  0  0  0  0  0  0  0  0  0  0  0
  -18.3961  -29.4175   15.3781 C   0  0  0  0  0  0  0  0  0  0  0  0
  -22.9611  -10.0292   19.9451 C   0  0  0  0  0  0  0  0  0  0  0  0
  -24.0318   -9.5730   22.0623 C   0  0  0  0  0  0  0  0  0  0  0  0
  -17.4380  -31.6286   15.4718 C   0  0  0  0  0  0  0  0  0  0  0  0
  -18.9884  -29.6245   16.6234 C   0  0  0  0  0  0  0  0  0  0  0  0
  -19.9018  -25.4452   21.0058 C   0  0  0  0  0  0  0  0  0  0  0  0
  -22.2224   -8.8521   20.0651 C   0  0  0  0  0  0  0  0  0  0  0  0
  -23.2931   -8.3959   22.1823 C   0  0  0  0  0  0  0  0  0  0  0  0
  -21.0196  -24.6950   21.3681 C   0  0  0  0  0  0  0  0  0  0  0  0
  -21.4260   -5.4536   23.2191 C   0  0  0  0  0  0  0  0  0  0  0  0
  -20.8387   -5.1787   24.4540 C   0  0  0  0  0  0  0  0  0  0  0  0
  -21.5565  -26.3248   23.0636 C   0  0  0  0  0  0  0  0  0  0  0  0
  -24.2700  -21.4020   23.3955 C   0  0  0  0  0  0  0  0  0  0  0  0
  -25.6669  -23.0306   22.2851 C   0  0  0  0  0  0  0  0  0  0  0  0
  -28.3142  -19.0631   22.4284 C   0  0  0  0  0  0  0  0  0  0  0  0
  -19.5676   -7.2279   24.3056 C   0  0  0  0  0  0  0  0  0  0  0  0
  -23.8658  -10.3896   20.9437 C   0  0  0  0  0  0  0  0  0  0  0  0
  -24.2687  -12.8862   21.2788 C   0  0  0  0  0  0  0  0  0  0  0  0
  -18.0204  -31.8469   16.7303 C   0  0  0  0  0  0  0  0  0  0  0  0
  -19.6085  -26.6485   21.6635 C   0  0  0  0  0  0  0  0  0  0  0  0
  -18.8135  -30.8381   17.3098 C   0  0  0  0  0  0  0  0  0  0  0  0
  -20.4329  -27.0872   22.7094 C   0  0  0  0  0  0  0  0  0  0  0  0
  -30.2144  -17.5772   22.6832 C   0  0  0  0  0  0  0  0  0  0  0  0
  -24.4002  -22.5281   22.5828 C   0  0  0  0  0  0  0  0  0  0  0  0
  -25.4064  -20.7784   23.9107 C   0  0  0  0  0  0  0  0  0  0  0  0
  -26.8034  -22.4070   22.8002 C   0  0  0  0  0  0  0  0  0  0  0  0
  -29.1170  -18.0380   21.9423 C   0  0  0  0  0  0  0  0  0  0  0  0
  -26.6731  -21.2809   23.6130 C   0  0  0  0  0  0  0  0  0  0  0  0
  -22.3884   -8.0354   21.1836 C   0  0  0  0  0  0  0  0  0  0  0  0
  -21.8488  -25.1361   22.3952 C   0  0  0  0  0  0  0  0  0  0  0  0
  -21.0842   -6.6157   22.5274 C   0  0  0  0  0  0  0  0  0  0  0  0
  -19.9095   -6.0658   24.9973 C   0  0  0  0  0  0  0  0  0  0  0  0
  -20.1550   -7.5029   23.0707 C   0  0  0  0  0  0  0  0  0  0  0  0
  -24.6296  -11.6052   20.8201 C   0  0  0  0  0  0  0  0  0  0  0  0
  -30.4775  -18.2235   23.8962 C   0  0  0  0  0  0  0  0  0  0  0  0
  -28.6439  -19.6141   23.6505 C   0  0  0  0  0  0  0  0  0  0  0  0
  -25.3234  -13.6893   20.9194 C   0  0  0  0  0  0  0  0  0  0  0  0
  -23.0859  -13.3122   21.9683 C   0  0  0  0  0  0  0  0  0  0  0  0
  -19.3824  -29.6924   20.7763 C   0  0  0  0  0  0  0  0  0  0  0  0
  -18.3594  -30.1003   23.8274 C   0  0  0  0  0  0  0  0  0  0  0  0
  -18.3128  -28.9614   27.0442 C   0  0  0  0  0  0  0  0  0  0  0  0
  -30.8100  -14.6297   20.5227 C   0  0  0  0  0  0  0  0  0  0  0  0
  -17.8326  -33.1879   17.3944 C   0  0  0  0  0  0  0  0  0  0  0  0
  -18.3840  -27.4326   21.2787 C   0  0  0  0  0  0  0  0  0  0  0  0
  -20.1506  -28.3617   23.4606 C   0  0  0  0  0  0  0  0  0  0  0  0
  -31.6391  -17.8180   24.7605 C   0  0  0  0  0  0  0  0  0  0  0  0
  -18.1862  -33.1871   18.8794 C   0  0  0  0  0  0  0  0  0  0  0  0
  -32.7309  -17.0929   23.9816 C   0  0  0  0  0  0  0  0  0  0  0  0
  -29.2760  -12.7768   17.8978 C   0  0  0  0  0  0  0  0  0  0  0  0
  -19.5196  -32.4830   19.1102 C   0  0  0  0  0  0  0  0  0  0  0  0
  -27.9039  -12.4075   18.4642 C   0  0  0  0  0  0  0  0  0  0  0  0
  -30.3576  -12.7488   18.9754 C   0  0  0  0  0  0  0  0  0  0  0  0
  -28.6913  -13.1938   20.7359 C   0  0  0  0  0  0  0  0  0  0  0  0
  -19.4520  -31.0156   18.6703 C   0  0  1  0  0  0  0  0  0  0  0  0
  -31.1161  -16.4881   22.1388 C   0  0  1  0  0  0  0  0  0  0  0  0
  -18.4688  -28.9043   21.6718 C   0  0  1  0  0  0  0  0  0  0  0  0
  -32.1235  -15.9389   23.1759 C   0  0  1  0  0  0  0  0  0  0  0  0
  -27.5580  -13.2626   19.6980 C   0  0  2  0  0  0  0  0  0  0  0  0
  -25.2350  -19.5748   24.7795 C   0  0  0  0  0  0  0  0  0  0  0  0
  -28.1471  -22.9680   22.4646 C   0  0  0  0  0  0  0  0  0  0  0  0
  -28.7771  -17.4983   20.5886 C   0  0  0  0  0  0  0  0  0  0  0  0
  -33.2372  -15.1251   22.5099 C   0  0  0  0  0  0  0  0  0  0  0  0
  -17.4248  -29.5281   29.3219 C   0  0  0  0  0  0  0  0  0  0  0  0
  -20.5064  -32.2475   24.1277 C   0  0  0  0  0  0  0  0  0  0  0  0
  -20.2155  -32.0927   26.6096 C   0  0  0  0  0  0  0  0  0  0  0  0
  -18.3078  -32.8170   25.1747 C   0  0  0  0  0  0  0  0  0  0  0  0
  -16.7328  -26.4624   27.1772 C   0  0  0  0  0  0  0  0  0  0  0  0
  -23.1774  -23.1980   22.0285 C   0  0  0  0  0  0  0  0  0  1  0  0
  -19.0278  -30.3936   25.1489 C   0  0  1  0  0  0  0  0  0  0  0  0
  -17.1730  -28.7691   28.0283 C   0  0  2  0  0  0  0  0  0  0  0  0
  -19.5210  -31.8646   25.2500 C   0  0  0  0  0  0  0  0  0  0  0  0
  -25.8204  -11.5906   20.2153 N   0  0  0  0  0  0  0  0  0  0  0  0
  -29.7007  -19.2212   24.3925 N   0  0  0  0  0  0  0  0  0  0  0  0
  -26.2169  -12.8724   20.2914 N   0  0  0  0  0  0  0  0  0  0  0  0
  -18.9450  -29.0964   23.0431 N   0  0  0  0  0  0  0  0  0  0  0  0
  -29.9688  -13.5806   20.1168 N   0  0  0  0  0  0  0  0  0  0  0  0
  -25.5643  -15.0076   21.0824 N   0  0  0  0  0  0  0  0  0  0  0  0
  -22.1019  -12.3576   22.2594 N   0  0  0  0  0  0  0  0  0  0  0  0
  -27.8251  -20.6490   24.1356 N   0  0  0  0  0  0  0  0  0  0  0  0
  -18.7591  -30.2219   19.6624 N   0  0  0  0  0  0  0  0  0  0  0  0
  -18.0725  -30.0113   26.1832 N   0  0  0  0  0  0  0  0  0  0  0  0
  -30.3638  -15.3729   21.6086 N   0  0  0  0  0  0  0  0  0  0  0  0
  -17.0092  -27.3244   28.3552 N   0  3  0  0  0  0  0  0  0  0  0  0
  -22.8996  -14.5071   22.3013 O   0  0  0  0  0  0  0  0  0  0  0  0
  -20.5648  -29.8126   21.0746 O   0  0  0  0  0  0  0  0  0  0  0  0
  -17.3507  -30.7335   23.5063 O   0  0  0  0  0  0  0  0  0  0  0  0
  -19.3176  -28.2537   27.0421 O   0  0  0  0  0  0  0  0  0  0  0  0
  -31.8771  -14.8884   19.9557 O   0  0  0  0  0  0  0  0  0  0  0  0
  -21.6676   -6.8869   21.3012 O   0  0  0  0  0  0  0  0  0  0  0  0
  -22.9409  -24.4061   22.7504 O   0  0  0  0  0  0  0  0  0  1  0  0
  -19.3443   -5.8009   26.1824 F   0  0  0  0  0  0  0  0  0  0  0  0
  -19.8217   -8.6203   22.4104 F   0  0  0  0  0  0  0  0  0  0  0  0
  1  2  1  0  0  0  0
  1  5  2  0  0  0  0
  2  6  2  0  0  0  0
  3  8  2  0  0  0  0
  3 18  1  0  0  0  0
  4  9  1  0  0  0  0
  4 18  2  0  0  0  0
  5 20  1  0  0  0  0
  6 22  1  0  0  0  0
  7 10  2  0  0  0  0
  7 21  1  0  0  0  0
  8 30  1  0  0  0  0
  9 30  2  0  0  0  0
 10 31  1  0  0  0  0
 11 12  2  0  0  0  0
 11 32  1  0  0  0  0
 12 33  1  0  0  0  0
 13 23  1  0  0  0  0
 13 31  2  0  0  0  0
 14 25  1  0  0  0  0
 14 26  2  0  0  0  0
 15 25  2  0  0  0  0
 15 27  1  0  0  0  0
 16 28  2  0  0  0  0
 16 37  1  0  0  0  0
 17 33  2  0  0  0  0
 17 34  1  0  0  0  0
 18 35  1  0  0  0  0
 19 35  1  0  0  0  0
 19 38  2  0  0  0  0
 19 39  1  0  0  0  0
 20 22  2  0  0  0  0
 20 44  1  0  0  0  0
 21 23  2  0  0  0  0
 21 45  1  0  0  0  0
 22 55  1  0  0  0  0
 23 46  1  0  0  0  0
 24 28  1  0  0  0  0
 24 36  2  0  0  0  0
 24 56  1  0  0  0  0
 25 69  1  0  0  0  0
 26 29  1  0  0  0  0
 26 60  1  0  0  0  0
 27 29  2  0  0  0  0
 27 61  1  0  0  0  0
 28 62  1  0  0  0  0
 29 80  1  0  0  0  0
 30 90  1  0  0  0  0
 31 91  1  0  0  0  0
 32 34  2  0  0  0  0
 32 90  1  0  0  0  0
 33 92  1  0  0  0  0
 34 93  1  0  0  0  0
 35 73  2  0  0  0  0
 36 47  1  0  0  0  0
 36 74  1  0  0  0  0
 37 74  2  0  0  0  0
 37 80  1  0  0  0  0
 38 75  1  0  0  0  0
 38 78  1  0  0  0  0
 39 79  1  0  0  0  0
 39 85  2  0  0  0  0
 40 57  1  0  0  0  0
 40 81  1  0  0  0  0
 40 86  2  0  0  0  0
 41 70  1  0  0  0  0
 41 76  1  0  0  0  0
 41 87  2  0  0  0  0
 42 71  1  0  0  0  0
 42 82  1  0  0  0  0
 42 88  2  0  0  0  0
 43 77  1  0  0  0  0
 43 83  1  0  0  0  0
 43 89  2  0  0  0  0
 44 48  1  0  0  0  0
 45 57  1  0  0  0  0
 46 76  1  0  0  0  0
 47 49  1  0  0  0  0
 48 51  1  0  0  0  0
 49 58  1  0  0  0  0
 50 52  1  0  0  0  0
 50 53  1  0  0  0  0
 51 55  1  0  0  0  0
 52 59  1  0  0  0  0
 53 77  1  0  0  0  0
 54 59  1  0  0  0  0
 54 77  1  0  0  0  0
 55 81  1  0  0  0  0
 56 58  1  0  0  0  0
 56 83  1  0  0  0  0
 57 76  1  0  0  0  0
 58 63  1  0  0  0  0
 59 75  1  0  0  0  0
 64 71  1  0  0  0  0
 65 72  1  0  0  0  0
 66 72  1  0  0  0  0
 67 72  1  0  0  0  0
 68 84  1  0  0  0  0
 69 91  1  0  0  0  0
 70 72  1  0  0  0  0
 70 82  1  0  0  0  0
 71 84  1  0  0  0  0
 73 75  1  0  0  0  0
M  CHG  1  84   1
M  ISO  4  43 100  69 101  83 100  91 101
M  END
> <Batch ID>
0158

> <Smiles>
CNC(C)C(=O)NC(C(=O)N1Cc2cc([101O:1][101CH2:1]c3cc(C)c(Nc4cc(C)c5c(n4)CCC(C)C5[100NH:0][100C:0](=O)N4CCCC(n5nc(-c6ccc(Oc7ccc(F)cc7F)cc6)c(C(N)=O)c5N)C4)c(C)c3)ccc2CC1C(=O)NC1CCCc2ccccc21)C(C)(C)C

> <Shape>
0.252

> <Color>
0.173

> <Negative vol penalty>
0.000

$$$$

  -OEChem-04052322043D

 91101  0     1  0  0  0  0  0999 V2000
  -24.0689  -31.4664   21.8539 C   0  0  0  0  0  0  0  0  0  0  0  0
  -24.0150  -30.1065   22.1424 C   0  0  0  0  0  0  0  0  0  0  0  0
  -23.0563   -9.9353   20.3835 C   0  0  0  0  0  0  0  0  0  0  0  0
  -24.3738   -9.0447   22.2023 C   0  0  0  0  0  0  0  0  0  0  0  0
  -24.8421  -31.9213   20.7865 C   0  0  0  0  0  0  0  0  0  0  0  0
  -24.7335  -29.2006   21.3630 C   0  0  0  0  0  0  0  0  0  0  0  0
  -27.1855  -25.7566   24.1508 C   0  0  0  0  0  0  0  0  0  0  0  0
  -22.3303   -8.7456   20.3268 C   0  0  0  0  0  0  0  0  0  0  0  0
  -23.6479   -7.8549   22.1456 C   0  0  0  0  0  0  0  0  0  0  0  0
  -26.4327  -24.7034   24.6683 C   0  0  0  0  0  0  0  0  0  0  0  0
  -21.9024   -4.7177   22.7194 C   0  0  0  0  0  0  0  0  0  0  0  0
  -21.4679   -4.1642   23.9238 C   0  0  0  0  0  0  0  0  0  0  0  0
  -24.9241  -18.8667   21.8674 C   0  0  0  0  0  0  0  0  0  0  0  0
  -27.2152  -23.2770   22.8872 C   0  0  0  0  0  0  0  0  0  0  0  0
  -20.2011   -6.1684   24.3879 C   0  0  0  0  0  0  0  0  0  0  0  0
  -24.0781  -10.0848   21.3212 C   0  0  0  0  0  0  0  0  0  0  0  0
  -24.5344  -12.4533   22.1517 C   0  0  0  0  0  0  0  0  0  0  0  0
  -25.5781  -31.0214   19.9996 C   0  0  0  0  0  0  0  0  0  0  0  0
  -27.9514  -25.5807   22.9894 C   0  0  0  0  0  0  0  0  0  0  0  0
  -25.5162  -29.6437   20.2833 C   0  0  0  0  0  0  0  0  0  0  0  0
  -25.2286  -19.5198   20.6731 C   0  0  0  0  0  0  0  0  0  0  0  0
  -27.9788  -24.3288   22.3584 C   0  0  0  0  0  0  0  0  0  0  0  0
  -24.2098  -19.5321   22.8638 C   0  0  0  0  0  0  0  0  0  0  0  0
  -24.8189  -20.8383   20.4752 C   0  0  0  0  0  0  0  0  0  0  0  0
  -24.1047  -21.5038   21.4716 C   0  0  0  0  0  0  0  0  0  0  0  0
  -23.8002  -20.8507   22.6659 C   0  0  0  0  0  0  0  0  0  0  0  0
  -22.6261   -7.7054   21.2079 C   0  0  0  0  0  0  0  0  0  0  0  0
  -26.4452  -23.4641   24.0349 C   0  0  0  0  0  0  0  0  0  0  0  0
  -21.4862   -5.9966   22.3493 C   0  0  0  0  0  0  0  0  0  0  0  0
  -20.6173   -4.8895   24.7580 C   0  0  0  0  0  0  0  0  0  0  0  0
  -20.6355   -6.7219   23.1836 C   0  0  0  0  0  0  0  0  0  0  0  0
  -24.8287  -11.3133   21.3799 C   0  0  0  0  0  0  0  0  0  0  0  0
  -25.5425  -13.3379   21.8557 C   0  0  0  0  0  0  0  0  0  0  0  0
  -23.4470  -12.6913   23.0553 C   0  0  0  0  0  0  0  0  0  0  0  0
  -27.9480  -26.8689   20.0835 C   0  0  0  0  0  0  0  0  0  0  0  0
  -30.6380  -25.0934   19.7179 C   0  0  0  0  0  0  0  0  0  0  0  0
  -32.4771  -22.3870   20.6874 C   0  0  0  0  0  0  0  0  0  0  0  0
  -28.9262  -15.8588   18.3756 C   0  0  0  0  0  0  0  0  0  0  0  0
  -26.3621  -31.5555   18.8271 C   0  0  0  0  0  0  0  0  0  0  0  0
  -28.7789  -26.7193   22.4591 C   0  0  0  0  0  0  0  0  0  0  0  0
  -28.8006  -24.0825   21.1205 C   0  0  0  0  0  0  0  0  0  0  0  0
  -27.3907  -30.5682   18.2817 C   0  0  0  0  0  0  0  0  0  0  0  0
  -29.8872  -12.6878   19.3621 C   0  0  0  0  0  0  0  0  0  0  0  0
  -21.3780  -22.6955   24.7747 C   0  0  0  0  0  0  0  0  0  0  0  0
  -26.7704  -29.1835   18.1244 C   0  0  0  0  0  0  0  0  0  0  0  0
  -28.6385  -12.1268   20.0425 C   0  0  0  0  0  0  0  0  0  0  0  0
  -22.1957  -21.9160   25.7924 C   0  0  0  0  0  0  0  0  0  0  0  0
  -27.5227  -19.0038   19.7300 C   0  0  0  0  0  0  0  0  0  0  0  0
  -25.6862  -17.2681   19.6064 C   0  0  0  0  0  0  0  0  0  0  0  0
  -21.7453  -22.0416   23.4464 C   0  0  0  0  0  0  0  0  0  0  0  0
  -29.5205  -13.4693   18.1055 C   0  0  0  0  0  0  0  0  0  0  0  0
  -28.2964  -18.2274   18.6670 C   0  0  0  0  0  0  0  0  0  0  0  0
  -26.4998  -16.5323   18.5457 C   0  0  0  0  0  0  0  0  0  0  0  0
  -27.2953  -14.0312   19.0260 C   0  0  0  0  0  0  0  0  0  0  0  0
  -26.0067  -18.7732   19.6058 C   0  0  0  0  0  0  0  0  0  0  0  0
  -26.3011  -28.6324   19.4763 C   0  0  1  0  0  0  0  0  0  0  0  0
  -29.1178  -26.5728   20.9788 C   0  0  1  0  0  0  0  0  0  0  0  0
  -27.6092  -13.2389   20.3108 C   0  0  1  0  0  0  0  0  0  0  0  0
  -23.5110  -21.6223   25.0573 C   0  0  2  0  0  0  0  0  0  0  0  0
  -23.8983  -18.8063   24.1324 C   0  0  0  0  0  0  0  0  0  0  0  0
  -25.1474  -21.5360   19.1932 C   0  0  0  0  0  0  0  0  0  0  0  0
  -23.6672  -22.9190   21.2555 C   0  0  0  0  0  0  0  0  0  0  0  0
  -34.6138  -21.1730   20.1794 C   0  0  0  0  0  0  0  0  0  0  0  0
  -29.3682  -23.9145   17.2064 C   0  0  0  0  0  0  0  0  0  0  0  0
  -31.0723  -22.0821   17.2893 C   0  0  0  0  0  0  0  0  0  0  0  0
  -31.8019  -24.4490   16.9924 C   0  0  0  0  0  0  0  0  0  0  0  0
  -33.5184  -22.8369   23.4210 C   0  0  0  0  0  0  0  0  0  0  0  0
  -24.5143  -22.7616   25.2324 C   0  0  0  0  0  0  0  0  0  1  0  0
  -30.9376  -23.6916   19.2444 C   0  0  1  0  0  0  0  0  0  0  0  0
  -33.9478  -22.2404   21.0338 C   0  0  2  0  0  0  0  0  0  0  0  0
  -30.7779  -23.5392   17.7053 C   0  0  0  0  0  0  0  0  0  0  0  0
  -25.9369  -11.4578   20.6485 N   0  0  0  0  0  0  0  0  0  0  0  0
  -26.3478  -12.6990   20.9593 N   0  0  0  0  0  0  0  0  0  0  0  0
  -23.0930  -21.5086   23.6546 N   0  0  3  0  0  0  0  0  0  0  0  0
  -29.5877  -25.2288   20.6368 N   0  0  0  0  0  0  0  0  0  0  0  0
  -28.5369  -14.5109   18.4010 N   0  0  0  0  0  0  0  0  0  0  0  0
  -27.9368  -16.8100   18.6744 N   0  0  0  0  0  0  0  0  0  0  0  0
  -25.8097  -14.5923   22.2772 N   0  0  0  0  0  0  0  0  0  0  0  0
  -22.4998  -11.6755   23.2431 N   0  0  0  0  0  0  0  0  0  0  0  0
  -27.4275  -28.1394   20.2396 N   0  0  0  0  0  0  0  0  0  0  0  0
  -32.2706  -23.3690   19.7417 N   0  0  0  0  0  0  0  0  0  0  0  0
  -34.1073  -21.8626   22.4666 N   0  3  0  0  0  0  0  0  0  0  0  0
  -23.3101  -13.7788   23.6653 O   0  0  0  0  0  0  0  0  0  0  0  0
  -27.5482  -26.0089   19.3075 O   0  0  0  0  0  0  0  0  0  0  0  0
  -31.3157  -26.0328   19.2937 O   0  0  0  0  0  0  0  0  0  0  0  0
  -31.5997  -21.6968   21.2014 O   0  0  0  0  0  0  0  0  0  0  0  0
  -30.0867  -16.1942   18.1084 O   0  0  0  0  0  0  0  0  0  0  0  0
  -21.9178   -6.5445   21.1530 O   0  0  0  0  0  0  0  0  0  0  0  0
  -25.7044  -22.4254   24.5420 O   0  0  0  0  0  0  0  0  0  1  0  0
  -20.1989   -4.3572   25.9138 F   0  0  0  0  0  0  0  0  0  0  0  0
  -20.2314   -7.9505   22.8328 F   0  0  0  0  0  0  0  0  0  0  0  0
  1  2  1  0  0  0  0
  1  5  2  0  0  0  0
  2  6  2  0  0  0  0
  3  8  2  0  0  0  0
  3 16  1  0  0  0  0
  4  9  1  0  0  0  0
  4 16  2  0  0  0  0
  5 18  1  0  0  0  0
  6 20  1  0  0  0  0
  7 10  2  0  0  0  0
  7 19  1  0  0  0  0
  8 27  1  0  0  0  0
  9 27  2  0  0  0  0
 10 28  1  0  0  0  0
 11 12  2  0  0  0  0
 11 29  1  0  0  0  0
 12 30  1  0  0  0  0
 13 21  1  0  0  0  0
 13 23  2  0  0  0  0
 14 22  1  0  0  0  0
 14 28  2  0  0  0  0
 15 30  2  0  0  0  0
 15 31  1  0  0  0  0
 16 32  1  0  0  0  0
 17 32  1  0  0  0  0
 17 33  2  0  0  0  0
 17 34  1  0  0  0  0
 18 20  2  0  0  0  0
 18 39  1  0  0  0  0
 19 22  2  0  0  0  0
 19 40  1  0  0  0  0
 20 56  1  0  0  0  0
 21 24  2  0  0  0  0
 21 55  1  0  0  0  0
 22 41  1  0  0  0  0
 23 26  1  0  0  0  0
 23 60  1  0  0  0  0
 24 25  1  0  0  0  0
 24 61  1  0  0  0  0
 25 26  2  0  0  0  0
 25 62  1  0  0  0  0
 26 74  1  0  0  0  0
 27 88  1  0  0  0  0
 28 89  1  0  0  0  0
 29 31  2  0  0  0  0
 29 88  1  0  0  0  0
 30 90  1  0  0  0  0
 31 91  1  0  0  0  0
 32 72  2  0  0  0  0
 33 73  1  0  0  0  0
 33 78  1  0  0  0  0
 34 79  1  0  0  0  0
 34 83  2  0  0  0  0
 35 57  1  0  0  0  0
 35 80  1  0  0  0  0
 35 84  2  0  0  0  0
 36 69  1  0  0  0  0
 36 75  1  0  0  0  0
 36 85  2  0  0  0  0
 37 70  1  0  0  0  0
 37 81  1  0  0  0  0
 37 86  2  0  0  0  0
 38 76  1  0  0  0  0
 38 77  1  0  0  0  0
 38 87  2  0  0  0  0
 39 42  1  0  0  0  0
 40 57  1  0  0  0  0
 41 75  1  0  0  0  0
 42 45  1  0  0  0  0
 43 46  1  0  0  0  0
 43 51  1  0  0  0  0
 44 47  1  0  0  0  0
 44 50  1  0  0  0  0
 45 56  1  0  0  0  0
 46 58  1  0  0  0  0
 47 59  1  0  0  0  0
 48 52  1  0  0  0  0
 48 55  1  0  0  0  0
 49 53  1  0  0  0  0
 49 55  1  0  0  0  0
 50 74  1  0  0  0  0
 51 76  1  0  0  0  0
 52 77  1  0  0  0  0
 53 77  1  0  0  0  0
 54 58  1  0  0  0  0
 54 76  1  0  0  0  0
 56 80  1  0  0  0  0
 57 75  1  0  0  0  0
 58 73  1  0  0  0  0
 59 68  1  0  0  0  0
 59 74  1  0  0  0  0
 63 70  1  0  0  0  0
 64 71  1  0  0  0  0
 65 71  1  0  0  0  0
 66 71  1  0  0  0  0
 67 82  1  0  0  0  0
 68 89  1  0  0  0  0
 69 71  1  0  0  0  0
 69 81  1  0  0  0  0
 70 82  1  0  0  0  0
 72 73  1  0  0  0  0
M  CHG  1  82   1
M  ISO  4  38 100  68 101  77 100  89 101
M  END
> <Batch ID>
0158

> <Smiles>
CNC(C)C(=O)NC(C(=O)N1Cc2cc([101O:1][101CH2:1]C3CCCN3c3c(C)cc(C4CC[100N:0]([100C:0](=O)N5CCCC(n6nc(-c7ccc(Oc8ccc(F)cc8F)cc7)c(C(N)=O)c6N)C5)CC4)c(C)c3C)ccc2CC1C(=O)NC1CCCc2ccccc21)C(C)(C)C

> <Shape>
0.242

> <Color>
0.117

> <Negative vol penalty>
0.000

$$$$

  -OEChem-04052322043D

 88 97  0     1  0  0  0  0  0999 V2000
  -24.3633  -26.8574   35.8165 C   0  0  0  0  0  0  0  0  0  0  0  0
  -24.8822  -26.0196   34.8346 C   0  0  0  0  0  0  0  0  0  0  0  0
  -23.0428   -9.9415   19.9588 C   0  0  0  0  0  0  0  0  0  0  0  0
  -23.8181   -9.9362   22.2470 C   0  0  0  0  0  0  0  0  0  0  0  0
  -23.0331  -27.2695   35.7479 C   0  0  0  0  0  0  0  0  0  0  0  0
  -24.0709  -25.5924   33.7840 C   0  0  0  0  0  0  0  0  0  0  0  0
  -25.7770  -24.5864   27.9889 C   0  0  0  0  0  0  0  0  0  0  0  0
  -22.2895   -8.7950   20.2112 C   0  0  0  0  0  0  0  0  0  0  0  0
  -23.0648   -8.7897   22.4995 C   0  0  0  0  0  0  0  0  0  0  0  0
  -26.1058  -23.4217   27.2967 C   0  0  0  0  0  0  0  0  0  0  0  0
  -19.8332   -8.0215   23.1220 C   0  0  0  0  0  0  0  0  0  0  0  0
  -19.0838   -7.9863   24.2979 C   0  0  0  0  0  0  0  0  0  0  0  0
  -23.8460  -23.2863   26.4634 C   0  0  0  0  0  0  0  0  0  0  0  0
  -28.9305  -20.0943   21.3168 C   0  0  0  0  0  0  0  0  0  0  0  0
  -20.3115   -6.0354   25.0218 C   0  0  0  0  0  0  0  0  0  0  0  0
  -23.8071  -10.5121   20.9766 C   0  0  0  0  0  0  0  0  0  0  0  0
  -24.1723  -13.0341   20.8597 C   0  0  0  0  0  0  0  0  0  0  0  0
  -22.2077  -26.8550   34.6907 C   0  0  0  0  0  0  0  0  0  0  0  0
  -24.4752  -25.1046   27.9323 C   0  0  0  0  0  0  0  0  0  0  0  0
  -22.7280  -25.9983   33.7019 C   0  0  0  0  0  0  0  0  0  0  0  0
  -23.5039  -24.4591   27.1538 C   0  0  0  0  0  0  0  0  0  0  0  0
  -29.8156  -19.0326   21.1294 C   0  0  0  0  0  0  0  0  0  0  0  0
  -28.1386  -20.1481   22.4638 C   0  0  0  0  0  0  0  0  0  0  0  0
  -29.1167  -18.0783   23.2361 C   0  0  0  0  0  0  0  0  0  0  0  0
  -29.9087  -18.0246   22.0891 C   0  0  0  0  0  0  0  0  0  0  0  0
  -28.2317  -19.1401   23.4235 C   0  0  0  0  0  0  0  0  0  0  0  0
  -22.3005   -8.2191   21.4816 C   0  0  0  0  0  0  0  0  0  0  0  0
  -25.1395  -22.7699   26.5361 C   0  0  0  0  0  0  0  0  0  0  0  0
  -20.8217   -7.0637   22.8960 C   0  0  0  0  0  0  0  0  0  0  0  0
  -19.3229   -6.9932   25.2478 C   0  0  0  0  0  0  0  0  0  0  0  0
  -21.0609   -6.0706   23.8459 C   0  0  0  0  0  0  0  0  0  0  0  0
  -24.5858  -11.6961   20.7163 C   0  0  0  0  0  0  0  0  0  0  0  0
  -25.2692  -13.7739   20.4907 C   0  0  0  0  0  0  0  0  0  0  0  0
  -22.9097  -13.5612   21.2883 C   0  0  0  0  0  0  0  0  0  0  0  0
  -22.1806  -25.6431   30.0650 C   0  0  0  0  0  0  0  0  0  0  0  0
  -20.6905  -27.0218   27.5349 C   0  0  0  0  0  0  0  0  0  0  0  0
  -20.3450  -27.2482   24.1473 C   0  0  0  0  0  0  0  0  0  0  0  0
  -30.7636  -14.7398   20.6443 C   0  0  0  0  0  0  0  0  0  0  0  0
  -20.7632  -27.2884   34.6847 C   0  0  0  0  0  0  0  0  0  0  0  0
  -24.1436  -26.3766   28.6633 C   0  0  0  0  0  0  0  0  0  0  0  0
  -22.0972  -24.9858   27.0439 C   0  0  0  0  0  0  0  0  0  0  0  0
  -20.0744  -27.0935   33.3364 C   0  0  0  0  0  0  0  0  0  0  0  0
  -29.5872  -12.3716   18.2601 C   0  0  0  0  0  0  0  0  0  0  0  0
  -23.9919  -17.8978   23.9050 C   0  0  0  0  0  0  0  0  0  0  0  0
  -20.3822  -25.7090   32.7749 C   0  0  0  0  0  0  0  0  0  0  0  0
  -28.1499  -12.0908   18.7021 C   0  0  0  0  0  0  0  0  0  0  0  0
  -23.9813  -18.1837   25.3958 C   0  0  0  0  0  0  0  0  0  0  0  0
  -30.5144  -12.5810   19.4553 C   0  0  0  0  0  0  0  0  0  0  0  0
  -28.6291  -13.3272   20.8562 C   0  0  0  0  0  0  0  0  0  0  0  0
  -25.4581  -18.0077   23.5519 C   0  0  0  0  0  0  0  0  0  0  0  0
  -21.8863  -25.5336   32.5333 C   0  0  1  0  0  0  0  0  0  0  0  0
  -22.6528  -26.5307   28.9483 C   0  0  1  0  0  0  0  0  0  0  0  0
  -27.6454  -13.1646   19.6848 C   0  0  2  0  0  0  0  0  0  0  0  0
  -25.0217  -19.2859   25.5935 C   0  0  2  0  0  0  0  0  0  0  0  0
  -30.6521  -18.9985   19.8923 C   0  0  0  0  0  0  0  0  0  0  0  0
  -27.1993  -21.2963   22.6404 C   0  0  0  0  0  0  0  0  0  0  0  0
  -29.2168  -16.9970   24.2656 C   0  0  0  0  0  0  0  0  0  0  0  0
  -19.0199  -28.4351   22.3773 C   0  0  0  0  0  0  0  0  0  0  0  0
  -18.2966  -25.2243   28.1252 C   0  0  0  0  0  0  0  0  0  0  0  0
  -17.4280  -25.7472   25.8360 C   0  0  0  0  0  0  0  0  0  0  0  0
  -17.7087  -27.5758   27.5094 C   0  0  0  0  0  0  0  0  0  0  0  0
  -22.7740  -28.4846   22.9940 C   0  0  0  0  0  0  0  0  0  0  0  0
  -30.8584  -16.8869   21.8853 C   0  0  0  0  0  0  0  0  0  0  0  0
  -27.3799  -19.2008   24.6570 C   0  0  0  0  0  0  0  0  0  0  0  0
  -24.4137  -20.6794   25.6650 C   0  0  0  0  0  0  0  0  0  1  0  0
  -19.7574  -26.5391   26.4508 C   0  0  1  0  0  0  0  0  0  0  0  0
  -20.2867  -28.4477   23.2187 C   0  0  2  0  0  0  0  0  0  0  0  0
  -18.3236  -26.2604   26.9838 C   0  0  0  0  0  0  0  0  0  0  0  0
  -25.8469  -11.5891   20.2893 N   0  0  0  0  0  0  0  0  0  0  0  0
  -26.2352  -12.8692   20.1611 N   0  0  0  0  0  0  0  0  0  0  0  0
  -21.8203  -26.2291   27.7821 N   0  0  0  0  0  0  0  0  0  0  0  0
  -29.9797  -13.6128   20.3472 N   0  0  0  0  0  0  0  0  0  0  0  0
  -25.4919  -15.1034   20.4191 N   0  0  0  0  0  0  0  0  0  0  0  0
  -21.8914  -12.6610   21.6304 N   0  0  0  0  0  0  0  0  0  0  0  0
  -22.2858  -26.2130   31.3195 N   0  0  0  0  0  0  0  0  0  0  0  0
  -19.8162  -27.5365   25.3877 N   0  0  0  0  0  0  0  0  0  0  0  0
  -30.1791  -15.6725   21.4923 N   0  0  0  0  0  0  0  0  0  0  0  0
  -25.9143  -19.2015   24.3578 N   0  3  1  0  0  0  0  0  0  0  0  0
  -21.4606  -28.4496   22.3006 N   0  3  0  0  0  0  0  0  0  0  0  0
  -22.6857  -14.7939   21.3498 O   0  0  0  0  0  0  0  0  0  0  0  0
  -21.7511  -24.5247   29.8074 O   0  0  0  0  0  0  0  0  0  0  0  0
  -20.4304  -28.0675   28.1353 O   0  0  0  0  0  0  0  0  0  0  0  0
  -20.8095  -26.1630   23.8052 O   0  0  0  0  0  0  0  0  0  0  0  0
  -31.8981  -14.9054   20.1834 O   0  0  0  0  0  0  0  0  0  0  0  0
  -21.5654   -7.1005   21.7284 O   0  0  0  0  0  0  0  0  0  0  0  0
  -25.4576  -21.6326   25.8599 O   0  0  0  0  0  0  0  0  0  1  0  0
  -18.6042   -6.9604   26.3777 F   0  0  0  0  0  0  0  0  0  0  0  0
  -22.0100   -5.1484   23.6349 F   0  0  0  0  0  0  0  0  0  0  0  0
  1  2  1  0  0  0  0
  1  5  2  0  0  0  0
  2  6  2  0  0  0  0
  3  8  2  0  0  0  0
  3 16  1  0  0  0  0
  4  9  1  0  0  0  0
  4 16  2  0  0  0  0
  5 18  1  0  0  0  0
  6 20  1  0  0  0  0
  7 10  2  0  0  0  0
  7 19  1  0  0  0  0
  8 27  1  0  0  0  0
  9 27  2  0  0  0  0
 10 28  1  0  0  0  0
 11 12  2  0  0  0  0
 11 29  1  0  0  0  0
 12 30  1  0  0  0  0
 13 21  1  0  0  0  0
 13 28  2  0  0  0  0
 14 22  1  0  0  0  0
 14 23  2  0  0  0  0
 15 30  2  0  0  0  0
 15 31  1  0  0  0  0
 16 32  1  0  0  0  0
 17 32  1  0  0  0  0
 17 33  2  0  0  0  0
 17 34  1  0  0  0  0
 18 20  2  0  0  0  0
 18 39  1  0  0  0  0
 19 21  2  0  0  0  0
 19 40  1  0  0  0  0
 20 51  1  0  0  0  0
 21 41  1  0  0  0  0
 22 25  2  0  0  0  0
 22 55  1  0  0  0  0
 23 26  1  0  0  0  0
 23 56  1  0  0  0  0
 24 25  1  0  0  0  0
 24 26  2  0  0  0  0
 24 57  1  0  0  0  0
 25 63  1  0  0  0  0
 26 64  1  0  0  0  0
 27 85  1  0  0  0  0
 28 86  1  0  0  0  0
 29 31  2  0  0  0  0
 29 85  1  0  0  0  0
 30 87  1  0  0  0  0
 31 88  1  0  0  0  0
 32 69  2  0  0  0  0
 33 70  1  0  0  0  0
 33 73  1  0  0  0  0
 34 74  1  0  0  0  0
 34 80  2  0  0  0  0
 35 52  1  0  0  0  0
 35 75  1  0  0  0  0
 35 81  2  0  0  0  0
 36 66  1  0  0  0  0
 36 71  1  0  0  0  0
 36 82  2  0  0  0  0
 37 67  1  0  0  0  0
 37 76  1  0  0  0  0
 37 83  2  0  0  0  0
 38 72  1  0  0  0  0
 38 77  1  0  0  0  0
 38 84  2  0  0  0  0
 39 42  1  0  0  0  0
 40 52  1  0  0  0  0
 41 71  1  0  0  0  0
 42 45  1  0  0  0  0
 43 46  1  0  0  0  0
 43 48  1  0  0  0  0
 44 47  1  0  0  0  0
 44 50  1  0  0  0  0
 45 51  1  0  0  0  0
 46 53  1  0  0  0  0
 47 54  1  0  0  0  0
 48 72  1  0  0  0  0
 49 53  1  0  0  0  0
 49 72  1  0  0  0  0
 50 78  1  0  0  0  0
 51 75  1  0  0  0  0
 52 71  1  0  0  0  0
 53 70  1  0  0  0  0
 54 65  1  0  0  0  0
 54 78  1  0  0  0  0
 58 67  1  0  0  0  0
 59 68  1  0  0  0  0
 60 68  1  0  0  0  0
 61 68  1  0  0  0  0
 62 79  1  0  0  0  0
 63 77  1  0  0  0  0
 64 78  1  0  0  0  0
 65 86  1  0  0  0  0
 66 68  1  0  0  0  0
 66 76  1  0  0  0  0
 67 79  1  0  0  0  0
 69 70  1  0  0  0  0
M  CHG  2  78   1  79   1
M  ISO  4  38 100  65 101  77 100  86 101
M  END
> <Batch ID>
0158

> <Smiles>
CNC(C)C(=O)NC(C(=O)N1Cc2cc([101O:1][101CH2:1]C3CCCN3Cc3c(C)cc(C)c(C[100NH:0][100C:0](=O)N4CCCC(n5nc(-c6ccc(Oc7ccc(F)cc7F)cc6)c(C(N)=O)c5N)C4)c3C)ccc2CC1C(=O)NC1CCCc2ccccc21)C(C)(C)C

> <Shape>
0.214

> <Color>
0.198

> <Negative vol penalty>
0.000

$$$$

  -OEChem-04052322043D

 86 96  0     1  0  0  0  0  0999 V2000
  -21.9071  -12.0978   19.2802 C   0  0  0  0  0  0  0  0  0  0  0  0
  -21.8429  -13.4214   19.7038 C   0  0  0  0  0  0  0  0  0  0  0  0
  -28.7451  -27.5400   18.0037 C   0  0  0  0  0  0  0  0  0  0  0  0
  -29.7906  -26.1425   19.6743 C   0  0  0  0  0  0  0  0  0  0  0  0
  -23.0795  -11.3652   19.4612 C   0  0  0  0  0  0  0  0  0  0  0  0
  -22.9508  -14.0128   20.3099 C   0  0  0  0  0  0  0  0  0  0  0  0
  -20.1042  -25.2460   20.5074 C   0  0  0  0  0  0  0  0  0  0  0  0
  -23.8755  -18.6687   18.5457 C   0  0  0  0  0  0  0  0  0  0  0  0
  -20.7045  -24.1400   19.9059 C   0  0  0  0  0  0  0  0  0  0  0  0
  -29.9831  -28.1086   17.7046 C   0  0  0  0  0  0  0  0  0  0  0  0
  -31.0287  -26.7111   19.3751 C   0  0  0  0  0  0  0  0  0  0  0  0
  -23.0713  -19.7022   19.0240 C   0  0  0  0  0  0  0  0  0  0  0  0
  -33.3989  -26.3995   16.9865 C   0  0  0  0  0  0  0  0  0  0  0  0
  -34.4887  -25.5399   16.8484 C   0  0  0  0  0  0  0  0  0  0  0  0
  -24.8160  -20.3396   20.5631 C   0  0  0  0  0  0  0  0  0  0  0  0
  -20.3049  -22.8379   21.9014 C   0  0  0  0  0  0  0  0  0  0  0  0
  -35.6132  -26.6742   18.6611 C   0  0  0  0  0  0  0  0  0  0  0  0
  -28.6488  -26.5570   18.9887 C   0  0  0  0  0  0  0  0  0  0  0  0
  -26.7922  -24.8303   18.7073 C   0  0  0  0  0  0  0  0  0  0  0  0
  -24.2055  -11.9509   20.0610 C   0  0  0  0  0  0  0  0  0  0  0  0
  -25.1540  -18.4558   19.0810 C   0  0  0  0  0  0  0  0  0  0  0  0
  -24.1389  -13.2869   20.5003 C   0  0  0  0  0  0  0  0  0  0  0  0
  -19.6043  -25.1481   21.8059 C   0  0  0  0  0  0  0  0  0  0  0  0
  -25.6356  -19.3043   20.0881 C   0  0  0  0  0  0  0  0  0  0  0  0
  -20.8049  -22.9359   20.6029 C   0  0  0  0  0  0  0  0  0  0  0  0
  -31.1249  -27.6941   18.3902 C   0  0  0  0  0  0  0  0  0  0  0  0
  -23.5403  -20.5361   20.0349 C   0  0  0  0  0  0  0  0  0  0  0  0
  -33.4163  -27.3965   17.9619 C   0  0  0  0  0  0  0  0  0  0  0  0
  -19.7046  -23.9440   22.5029 C   0  0  0  0  0  0  0  0  0  0  0  0
  -35.5958  -25.6772   17.6857 C   0  0  0  0  0  0  0  0  0  0  0  0
  -34.5234  -27.5338   18.7992 C   0  0  0  0  0  0  0  0  0  0  0  0
  -27.3701  -25.9697   19.2985 C   0  0  0  0  0  0  0  0  0  0  0  0
  -25.5842  -24.6876   19.3451 C   0  0  0  0  0  0  0  0  0  0  0  0
  -27.3019  -23.9770   17.6739 C   0  0  0  0  0  0  0  0  0  0  0  0
  -26.5660  -16.0697   20.6356 C   0  0  0  0  0  0  0  0  0  0  0  0
  -29.1998  -17.9356   20.3133 C   0  0  0  0  0  0  0  0  0  0  0  0
  -30.5008  -21.0588   19.8665 C   0  0  0  0  0  0  0  0  0  0  0  0
  -21.4766  -28.2480   21.3994 C   0  0  0  0  0  0  0  0  0  0  0  0
  -25.4350  -11.1048   20.2781 C   0  0  0  0  0  0  0  0  0  0  0  0
  -26.0196  -17.3532   18.5356 C   0  0  0  0  0  0  0  0  0  0  0  0
  -27.0086  -19.1305   20.6822 C   0  0  0  0  0  0  0  0  0  0  0  0
  -26.6878  -11.9194   20.5896 C   0  0  0  0  0  0  0  0  0  0  0  0
  -23.6670  -26.2336   23.6202 C   0  0  0  0  0  0  0  0  0  0  0  0
  -26.3859  -12.9815   21.6420 C   0  0  0  0  0  0  0  0  0  0  0  0
  -24.8262  -25.9131   22.6758 C   0  0  0  0  0  0  0  0  0  0  0  0
  -18.5740  -29.1565   23.2865 C   0  0  0  0  0  0  0  0  0  0  0  0
  -19.2279  -28.1106   24.2201 C   0  0  0  0  0  0  0  0  0  0  0  0
  -18.3184  -27.4282   21.4960 C   0  0  0  0  0  0  0  0  0  0  0  0
  -23.0297  -27.5759   23.2781 C   0  0  0  0  0  0  0  0  0  0  0  0
  -23.7349  -27.3763   20.9175 C   0  0  0  0  0  0  0  0  0  0  0  0
  -18.9543  -26.3612   22.4436 C   0  0  2  0  0  0  0  0  0  0  0  0
  -25.3278  -13.9712   21.1394 C   0  0  1  0  0  0  0  0  0  0  0  0
  -27.1049  -16.9076   19.5108 C   0  0  1  0  0  0  0  0  0  0  0  0
  -24.3811  -26.0111   21.2062 C   0  0  1  0  0  0  0  0  0  0  0  0
  -19.0620  -28.7199   21.8961 C   0  0  2  0  0  0  0  0  0  0  0  0
  -19.9933  -27.2117   23.2342 C   0  0  1  0  0  0  0  0  0  0  0  0
  -31.6731  -20.7163   17.6743 C   0  0  0  0  0  0  0  0  0  0  0  0
  -29.5802  -17.7033   23.3318 C   0  0  0  0  0  0  0  0  0  0  0  0
  -31.1516  -19.6487   23.2133 C   0  0  0  0  0  0  0  0  0  0  0  0
  -31.6896  -17.5373   21.9987 C   0  0  0  0  0  0  0  0  0  0  0  0
  -32.9463  -22.4194   20.8294 C   0  0  0  0  0  0  0  0  0  0  0  0
  -19.3660  -22.5645   24.4102 C   0  0  0  0  0  0  0  0  0  0  0  0
  -21.4472  -21.7534   19.9598 C   0  0  0  0  0  0  0  0  0  1  0  0
  -29.8418  -19.0294   21.1321 C   0  0  1  0  0  0  0  0  0  0  0  0
  -31.5694  -21.5792   18.9222 C   0  0  2  0  0  0  0  0  0  0  0  0
  -30.5392  -18.4820   22.4094 C   0  0  0  0  0  0  0  0  0  0  0  0
  -26.5930  -26.5125   20.2396 N   0  0  0  0  0  0  0  0  0  0  0  0
  -25.5145  -25.7107   20.2445 N   0  0  0  0  0  0  0  0  0  0  0  0
  -27.8147  -18.0343   20.1198 N   0  0  0  0  0  0  0  0  0  0  0  0
  -22.6498  -27.6436   21.8630 N   0  0  0  0  0  0  0  0  0  0  0  0
  -20.3701  -28.1924   22.2253 N   0  0  0  0  0  0  0  0  0  0  0  0
  -24.5854  -23.7883   19.2188 N   0  0  0  0  0  0  0  0  0  0  0  0
  -28.5598  -24.2668   17.1280 N   0  0  0  0  0  0  0  0  0  0  0  0
  -25.9196  -14.9207   20.2215 N   0  0  0  0  0  0  0  0  0  0  0  0
  -30.7319  -19.7481   20.2267 N   0  0  0  0  0  0  0  0  0  0  0  0
  -32.8976  -21.5894   19.5982 N   0  3  0  0  0  0  0  0  0  0  0  0
  -26.6536  -22.9966   17.2357 O   0  0  0  0  0  0  0  0  0  0  0  0
  -26.7263  -16.4375   21.7935 O   0  0  0  0  0  0  0  0  0  0  0  0
  -29.9026  -17.0308   19.8561 O   0  0  0  0  0  0  0  0  0  0  0  0
  -29.5575  -21.7474   20.2493 O   0  0  0  0  0  0  0  0  0  0  0  0
  -21.4130  -28.7742   20.2814 O   0  0  0  0  0  0  0  0  0  0  0  0
  -32.3332  -28.2486   18.0984 O   0  0  0  0  0  0  0  0  0  0  0  0
  -19.2215  -23.8316   23.7719 O   0  0  0  0  0  0  0  0  0  0  0  0
  -22.7439  -21.5622   20.5119 O   0  0  0  0  0  0  0  0  0  1  0  0
  -36.6416  -24.8507   17.5539 F   0  0  0  0  0  0  0  0  0  0  0  0
  -34.5453  -28.4890   19.7389 F   0  0  0  0  0  0  0  0  0  0  0  0
  1  2  1  0  0  0  0
  1  5  2  0  0  0  0
  2  6  2  0  0  0  0
  3 10  2  0  0  0  0
  3 18  1  0  0  0  0
  4 11  1  0  0  0  0
  4 18  2  0  0  0  0
  5 20  1  0  0  0  0
  6 22  1  0  0  0  0
  7  9  2  0  0  0  0
  7 23  1  0  0  0  0
  8 12  2  0  0  0  0
  8 21  1  0  0  0  0
  9 25  1  0  0  0  0
 10 26  1  0  0  0  0
 11 26  2  0  0  0  0
 12 27  1  0  0  0  0
 13 14  2  0  0  0  0
 13 28  1  0  0  0  0
 14 30  1  0  0  0  0
 15 24  1  0  0  0  0
 15 27  2  0  0  0  0
 16 25  2  0  0  0  0
 16 29  1  0  0  0  0
 17 30  2  0  0  0  0
 17 31  1  0  0  0  0
 18 32  1  0  0  0  0
 19 32  1  0  0  0  0
 19 33  2  0  0  0  0
 19 34  1  0  0  0  0
 20 22  2  0  0  0  0
 20 39  1  0  0  0  0
 21 24  2  0  0  0  0
 21 40  1  0  0  0  0
 22 52  1  0  0  0  0
 23 29  2  0  0  0  0
 23 51  1  0  0  0  0
 24 41  1  0  0  0  0
 25 63  1  0  0  0  0
 26 82  1  0  0  0  0
 27 84  1  0  0  0  0
 28 31  2  0  0  0  0
 28 82  1  0  0  0  0
 29 83  1  0  0  0  0
 30 85  1  0  0  0  0
 31 86  1  0  0  0  0
 32 67  2  0  0  0  0
 33 68  1  0  0  0  0
 33 72  1  0  0  0  0
 34 73  1  0  0  0  0
 34 77  2  0  0  0  0
 35 53  1  0  0  0  0
 35 74  1  0  0  0  0
 35 78  2  0  0  0  0
 36 64  1  0  0  0  0
 36 69  1  0  0  0  0
 36 79  2  0  0  0  0
 37 65  1  0  0  0  0
 37 75  1  0  0  0  0
 37 80  2  0  0  0  0
 38 70  1  0  0  0  0
 38 71  1  0  0  0  0
 38 81  2  0  0  0  0
 39 42  1  0  0  0  0
 40 53  1  0  0  0  0
 41 69  1  0  0  0  0
 42 44  1  0  0  0  0
 43 45  1  0  0  0  0
 43 49  1  0  0  0  0
 44 52  1  0  0  0  0
 45 54  1  0  0  0  0
 46 47  1  0  0  0  0
 46 55  1  0  0  0  0
 47 56  1  0  0  0  0
 48 51  1  0  0  0  0
 48 55  1  0  0  0  0
 49 70  1  0  0  0  0
 50 54  1  0  0  0  0
 50 70  1  0  0  0  0
 51 56  1  0  0  0  0
 52 74  1  0  0  0  0
 53 69  1  0  0  0  0
 54 68  1  0  0  0  0
 55 71  1  0  0  0  0
 56 71  1  0  0  0  0
 57 65  1  0  0  0  0
 58 66  1  0  0  0  0
 59 66  1  0  0  0  0
 60 66  1  0  0  0  0
 61 76  1  0  0  0  0
 62 83  1  0  0  0  0
 63 84  1  0  0  0  0
 64 66  1  0  0  0  0
 64 75  1  0  0  0  0
 65 76  1  0  0  0  0
 67 68  1  0  0  0  0
M  CHG  1  76   1
M  ISO  4  38 100  63 101  71 100  84 101
M  END
> <Batch ID>
0158

> <Smiles>
CNC(C)C(=O)NC(C(=O)N1Cc2cc([101O:1][101CH2:1]c3ccc(C4CC5CCC4[100N:0]5[100C:0](=O)N4CCCC(n5nc(-c6ccc(Oc7ccc(F)cc7F)cc6)c(C(N)=O)c5N)C4)c(OC)c3)ccc2CC1C(=O)NC1CCCc2ccccc21)C(C)(C)C

> <Shape>
0.188

> <Color>
0.085

> <Negative vol penalty>
0.000

$$$$

  -OEChem-04052322043D

 92102  0     1  0  0  0  0  0999 V2000
  -17.0009  -26.4132   23.0906 C   0  0  0  0  0  0  0  0  0  0  0  0
  -17.7517  -26.4625   21.9204 C   0  0  0  0  0  0  0  0  0  0  0  0
  -27.7341  -10.6064   21.7856 C   0  0  0  0  0  0  0  0  0  0  0  0
  -29.1411  -11.0595   19.8745 C   0  0  0  0  0  0  0  0  0  0  0  0
  -17.0273  -27.4866   23.9801 C   0  0  0  0  0  0  0  0  0  0  0  0
  -18.5285  -27.5857   21.6385 C   0  0  0  0  0  0  0  0  0  0  0  0
  -25.6443  -27.0247   20.6680 C   0  0  0  0  0  0  0  0  0  0  0  0
  -28.2298   -9.3038   21.8418 C   0  0  0  0  0  0  0  0  0  0  0  0
  -29.6369   -9.7569   19.9308 C   0  0  0  0  0  0  0  0  0  0  0  0
  -26.9776  -26.9691   20.2614 C   0  0  0  0  0  0  0  0  0  0  0  0
  -28.6231   -6.6638   19.0164 C   0  0  0  0  0  0  0  0  0  0  0  0
  -28.7220   -5.9557   17.8187 C   0  0  0  0  0  0  0  0  0  0  0  0
  -32.1829  -27.4297   17.2861 C   0  0  0  0  0  0  0  0  0  0  0  0
  -31.2296  -25.7668   18.7567 C   0  0  0  0  0  0  0  0  0  0  0  0
  -27.0184  -29.3759   20.0297 C   0  0  0  0  0  0  0  0  0  0  0  0
  -31.3044  -25.3721   16.3743 C   0  0  0  0  0  0  0  0  0  0  0  0
  -31.1049   -5.7314   18.1480 C   0  0  0  0  0  0  0  0  0  0  0  0
  -28.1897  -11.4842   20.8019 C   0  0  0  0  0  0  0  0  0  0  0  0
  -26.3383  -13.2222   20.5585 C   0  0  0  0  0  0  0  0  0  0  0  0
  -17.8123  -28.6194   23.7136 C   0  0  0  0  0  0  0  0  0  0  0  0
  -24.9968  -28.2589   20.7719 C   0  0  0  0  0  0  0  0  0  0  0  0
  -18.5643  -28.6757   22.5246 C   0  0  0  0  0  0  0  0  0  0  0  0
  -31.8402  -27.0070   18.5704 C   0  0  0  0  0  0  0  0  0  0  0  0
  -25.6867  -29.4389   20.4484 C   0  0  0  0  0  0  0  0  0  0  0  0
  -31.9150  -26.6123   16.1880 C   0  0  0  0  0  0  0  0  0  0  0  0
  -29.1812   -8.8791   20.9144 C   0  0  0  0  0  0  0  0  0  0  0  0
  -27.6629  -28.1418   19.9428 C   0  0  0  0  0  0  0  0  0  0  0  0
  -29.7652   -6.9057   19.7799 C   0  0  0  0  0  0  0  0  0  0  0  0
  -30.9617  -24.9493   17.6586 C   0  0  0  0  0  0  0  0  0  0  0  0
  -29.9628   -5.4895   17.3845 C   0  0  0  0  0  0  0  0  0  0  0  0
  -31.0061   -6.4395   19.3457 C   0  0  0  0  0  0  0  0  0  0  0  0
  -27.6776  -12.8297   20.7430 C   0  0  0  0  0  0  0  0  0  0  0  0
  -26.3771  -14.5950   20.5774 C   0  0  0  0  0  0  0  0  0  0  0  0
  -25.1641  -12.4178   20.3857 C   0  0  0  0  0  0  0  0  0  0  0  0
  -21.8490  -30.1116   21.6293 C   0  0  0  0  0  0  0  0  0  0  0  0
  -24.1843  -31.7586   22.7448 C   0  0  0  0  0  0  0  0  0  0  0  0
  -26.9942  -33.0543   24.1810 C   0  0  0  0  0  0  0  0  0  0  0  0
  -28.4595  -19.3386   19.1722 C   0  0  0  0  0  0  0  0  0  0  0  0
  -17.7718  -29.7748   24.6821 C   0  0  0  0  0  0  0  0  0  0  0  0
  -23.5432  -28.3614   21.1466 C   0  0  0  0  0  0  0  0  0  0  0  0
  -24.9395  -30.7412   20.5415 C   0  0  0  0  0  0  0  0  0  0  0  0
  -18.9132  -30.7702   24.4909 C   0  0  0  0  0  0  0  0  0  0  0  0
  -30.0826  -17.7775   21.8648 C   0  0  0  0  0  0  0  0  0  0  0  0
  -19.0810  -31.1128   23.0140 C   0  0  0  0  0  0  0  0  0  0  0  0
  -29.4911  -16.3695   21.8006 C   0  0  0  0  0  0  0  0  0  0  0  0
  -30.6369  -29.8210   19.4831 C   0  0  0  0  0  0  0  0  0  0  0  0
  -32.1156  -29.4315   19.5118 C   0  0  0  0  0  0  0  0  0  0  0  0
  -29.3132  -22.8819   19.8534 C   0  0  0  0  0  0  0  0  0  0  0  0
  -31.3202  -21.7339   18.8221 C   0  0  0  0  0  0  0  0  0  0  0  0
  -31.0123  -27.8261   20.8460 C   0  0  0  0  0  0  0  0  0  0  0  0
  -30.3879  -18.3348   20.4734 C   0  0  0  0  0  0  0  0  0  0  0  0
  -28.4161  -21.8037   19.2473 C   0  0  0  0  0  0  0  0  0  0  0  0
  -30.3775  -20.6849   18.2369 C   0  0  0  0  0  0  0  0  0  0  0  0
  -28.6454  -16.8878   19.4803 C   0  0  0  0  0  0  0  0  0  0  0  0
  -19.4387  -29.8663   22.1957 C   0  0  1  0  0  0  0  0  0  0  0  0
  -23.2214  -29.6156   21.9787 C   0  0  1  0  0  0  0  0  0  0  0  0
  -28.2734  -16.3241   20.8605 C   0  0  1  0  0  0  0  0  0  0  0  0
  -29.9229  -28.7802   20.3467 C   0  0  2  0  0  0  0  0  0  1  0  0
  -30.6177  -23.0684   19.0777 C   0  0  0  0  0  0  0  0  0  0  0  0
  -32.1351  -27.9084   19.7795 C   0  0  1  0  0  0  0  0  0  0  0  0
  -32.2806  -27.0640   14.8147 C   0  0  0  0  0  0  0  0  0  0  0  0
  -27.7751  -34.9650   25.6081 C   0  0  0  0  0  0  0  0  0  0  0  0
  -33.4644  -26.0612   20.8545 C   0  0  0  0  0  0  0  0  0  0  0  0
  -34.6064  -27.7113   19.3456 C   0  0  0  0  0  0  0  0  0  0  0  0
  -23.9842  -33.6290   20.3437 C   0  0  0  0  0  0  0  0  0  0  0  0
  -25.5993  -35.1596   21.4911 C   0  0  0  0  0  0  0  0  0  0  0  0
  -23.3858  -34.6758   22.5347 C   0  0  0  0  0  0  0  0  0  0  0  0
  -27.9394  -31.2293   26.3106 C   0  0  0  0  0  0  0  0  0  0  0  0
  -25.1653  -32.8800   22.5139 C   0  0  1  0  0  0  0  0  0  0  0  0
  -27.2759  -33.5286   25.5953 C   0  0  2  0  0  0  0  0  0  0  0  0
  -33.4971  -27.5086   20.3731 C   0  0  0  0  0  0  0  0  0  0  0  0
  -24.5406  -34.0590   21.7157 C   0  0  0  0  0  0  0  0  0  0  0  0
  -28.5067  -13.8691   20.8696 N   0  0  0  0  0  0  0  0  0  0  0  0
  -27.6863  -14.9284   20.7644 N   0  0  0  0  0  0  0  0  0  0  0  0
  -24.1187  -30.7633   21.7623 N   0  0  0  0  0  0  0  0  0  0  0  0
  -29.2094  -18.2337   19.6022 N   0  0  0  0  0  0  0  0  0  0  0  0
  -29.1469  -20.5558   19.0290 N   0  0  0  0  0  0  0  0  0  0  0  0
  -25.4187  -15.5375   20.4521 N   0  0  0  0  0  0  0  0  0  0  0  0
  -25.3028  -11.0232   20.3916 N   0  0  0  0  0  0  0  0  0  0  0  0
  -20.8360  -29.5318   22.3689 N   0  0  0  0  0  0  0  0  0  0  0  0
  -25.6760  -33.2528   23.8287 N   0  0  0  0  0  0  0  0  0  0  0  0
  -28.3094  -32.6661   26.2347 N   0  3  0  0  0  0  0  0  0  0  0  0
  -24.0279  -12.9210   20.2141 O   0  0  0  0  0  0  0  0  0  0  0  0
  -21.7176  -30.9593   20.7541 O   0  0  0  0  0  0  0  0  0  0  0  0
  -23.4897  -31.7654   23.7650 O   0  0  0  0  0  0  0  0  0  0  0  0
  -27.8582  -32.5607   23.4595 O   0  0  0  0  0  0  0  0  0  0  0  0
  -27.2489  -19.2470   18.9334 O   0  0  0  0  0  0  0  0  0  0  0  0
  -29.6653   -7.6082   20.9691 O   0  0  0  0  0  0  0  0  0  0  0  0
  -28.9766  -28.0803   19.5476 O   0  0  0  0  0  0  0  0  0  1  0  0
  -30.3615  -23.7313   17.8415 O   0  0  0  0  0  0  0  0  0  0  0  0
  -30.0573   -4.8082   16.2351 F   0  0  0  0  0  0  0  0  0  0  0  0
  -32.1066   -6.6678   20.0754 F   0  0  0  0  0  0  0  0  0  0  0  0
  1  2  1  0  0  0  0
  1  5  2  0  0  0  0
  2  6  2  0  0  0  0
  3  8  2  0  0  0  0
  3 18  1  0  0  0  0
  4  9  1  0  0  0  0
  4 18  2  0  0  0  0
  5 20  1  0  0  0  0
  6 22  1  0  0  0  0
  7 10  2  0  0  0  0
  7 21  1  0  0  0  0
  8 26  1  0  0  0  0
  9 26  2  0  0  0  0
 10 27  1  0  0  0  0
 11 12  2  0  0  0  0
 11 28  1  0  0  0  0
 12 30  1  0  0  0  0
 13 23  1  0  0  0  0
 13 25  2  0  0  0  0
 14 23  2  0  0  0  0
 14 29  1  0  0  0  0
 15 24  1  0  0  0  0
 15 27  2  0  0  0  0
 16 25  1  0  0  0  0
 16 29  2  0  0  0  0
 17 30  2  0  0  0  0
 17 31  1  0  0  0  0
 18 32  1  0  0  0  0
 19 32  1  0  0  0  0
 19 33  2  0  0  0  0
 19 34  1  0  0  0  0
 20 22  2  0  0  0  0
 20 39  1  0  0  0  0
 21 24  2  0  0  0  0
 21 40  1  0  0  0  0
 22 55  1  0  0  0  0
 23 60  1  0  0  0  0
 24 41  1  0  0  0  0
 25 61  1  0  0  0  0
 26 88  1  0  0  0  0
 27 89  1  0  0  0  0
 28 31  2  0  0  0  0
 28 88  1  0  0  0  0
 29 90  1  0  0  0  0
 30 91  1  0  0  0  0
 31 92  1  0  0  0  0
 32 73  2  0  0  0  0
 33 74  1  0  0  0  0
 33 78  1  0  0  0  0
 34 79  1  0  0  0  0
 34 83  2  0  0  0  0
 35 56  1  0  0  0  0
 35 80  1  0  0  0  0
 35 84  2  0  0  0  0
 36 69  1  0  0  0  0
 36 75  1  0  0  0  0
 36 85  2  0  0  0  0
 37 70  1  0  0  0  0
 37 81  1  0  0  0  0
 37 86  2  0  0  0  0
 38 76  1  0  0  0  0
 38 77  1  0  0  0  0
 38 87  2  0  0  0  0
 39 42  1  0  0  0  0
 40 56  1  0  0  0  0
 41 75  1  0  0  0  0
 42 44  1  0  0  0  0
 43 45  1  0  0  0  0
 43 51  1  0  0  0  0
 44 55  1  0  0  0  0
 45 57  1  0  0  0  0
 46 47  1  0  0  0  0
 46 58  1  0  0  0  0
 47 60  1  0  0  0  0
 48 52  1  0  0  0  0
 48 59  1  0  0  0  0
 49 53  1  0  0  0  0
 49 59  1  0  0  0  0
 50 58  1  0  0  0  0
 50 60  1  0  0  0  0
 51 76  1  0  0  0  0
 52 77  1  0  0  0  0
 53 77  1  0  0  0  0
 54 57  1  0  0  0  0
 54 76  1  0  0  0  0
 55 80  1  0  0  0  0
 56 75  1  0  0  0  0
 57 74  1  0  0  0  0
 58 89  1  0  0  0  0
 59 90  1  0  0  0  0
 60 71  1  0  0  0  0
 62 70  1  0  0  0  0
 63 71  1  0  0  0  0
 64 71  1  0  0  0  0
 65 72  1  0  0  0  0
 66 72  1  0  0  0  0
 67 72  1  0  0  0  0
 68 82  1  0  0  0  0
 69 72  1  0  0  0  0
 69 81  1  0  0  0  0
 70 82  1  0  0  0  0
 73 74  1  0  0  0  0
M  CHG  1  82   1
M  ISO  4  38 100  58 101  77 100  89 101
M  END
> <Batch ID>
0158

> <Smiles>
CNC(C)C(=O)NC(C(=O)N1Cc2cc([101O:1][101CH:1]3CCC(c4cc(C)cc(OC5CC[100N:0]([100C:0](=O)N6CCCC(n7nc(-c8ccc(Oc9ccc(F)cc9F)cc8)c(C(N)=O)c7N)C6)CC5)c4)(C(C)C)C3)ccc2CC1C(=O)NC1CCCc2ccccc21)C(C)(C)C

> <Shape>
0.336

> <Color>
0.121

> <Negative vol penalty>
0.000

$$$$

  -OEChem-04052322043D

 90 99  0     1  0  0  0  0  0999 V2000
  -23.1114  -24.1090   14.6819 C   0  0  0  0  0  0  0  0  0  0  0  0
  -23.2018  -25.0993   15.6535 C   0  0  0  0  0  0  0  0  0  0  0  0
  -27.6228  -12.8849   19.1342 C   0  0  0  0  0  0  0  0  0  0  0  0
  -27.9825  -13.7099   21.3763 C   0  0  0  0  0  0  0  0  0  0  0  0
  -24.0296  -23.0611   14.6727 C   0  0  0  0  0  0  0  0  0  0  0  0
  -24.2173  -25.0485   16.6090 C   0  0  0  0  0  0  0  0  0  0  0  0
  -24.6568  -28.9207   19.6116 C   0  0  0  0  0  0  0  0  0  0  0  0
  -28.9100  -12.3479   19.1252 C   0  0  0  0  0  0  0  0  0  0  0  0
  -29.2698  -13.1729   21.3673 C   0  0  0  0  0  0  0  0  0  0  0  0
  -23.7423  -29.1940   20.6279 C   0  0  0  0  0  0  0  0  0  0  0  0
  -32.2318  -11.0709   18.3777 C   0  0  0  0  0  0  0  0  0  0  0  0
  -33.0113  -11.2699   17.2382 C   0  0  0  0  0  0  0  0  0  0  0  0
  -25.3072  -28.3459   22.2560 C   0  0  0  0  0  0  0  0  0  0  0  0
  -18.7199  -27.9883   22.5597 C   0  0  0  0  0  0  0  0  0  0  0  0
  -20.8913  -26.4259   23.3513 C   0  0  0  0  0  0  0  0  0  0  0  0
  -32.8527  -13.6608   17.5473 C   0  0  0  0  0  0  0  0  0  0  0  0
  -27.1590  -13.5660   20.2597 C   0  0  0  0  0  0  0  0  0  0  0  0
  -24.6463  -13.4872   20.6928 C   0  0  0  0  0  0  0  0  0  0  0  0
  -25.0491  -22.9915   15.6364 C   0  0  0  0  0  0  0  0  0  0  0  0
  -25.9012  -28.3469   19.9093 C   0  0  0  0  0  0  0  0  0  0  0  0
  -25.1681  -24.0118   16.6019 C   0  0  0  0  0  0  0  0  0  0  0  0
  -26.2367  -28.0686   21.2420 C   0  0  0  0  0  0  0  0  0  0  0  0
  -18.8434  -26.6791   22.0946 C   0  0  0  0  0  0  0  0  0  0  0  0
  -19.9291  -25.8979   22.4904 C   0  0  0  0  0  0  0  0  0  0  0  0
  -19.6821  -28.5163   23.4206 C   0  0  0  0  0  0  0  0  0  0  0  0
  -20.7677  -27.7351   23.8164 C   0  0  0  0  0  0  0  0  0  0  0  0
  -29.7336  -12.4918   20.2418 C   0  0  0  0  0  0  0  0  0  0  0  0
  -24.0663  -28.9040   21.9500 C   0  0  0  0  0  0  0  0  0  0  0  0
  -31.7627  -12.1669   19.1020 C   0  0  0  0  0  0  0  0  0  0  0  0
  -33.3218  -12.5649   16.8230 C   0  0  0  0  0  0  0  0  0  0  0  0
  -32.0732  -13.4618   18.6868 C   0  0  0  0  0  0  0  0  0  0  0  0
  -25.8296  -14.1215   20.2693 C   0  0  0  0  0  0  0  0  0  0  0  0
  -23.6651  -14.4297   20.5043 C   0  0  0  0  0  0  0  0  0  0  0  0
  -24.4514  -12.1644   21.2104 C   0  0  0  0  0  0  0  0  0  0  0  0
  -27.3596  -25.6293   19.1403 C   0  0  0  0  0  0  0  0  0  0  0  0
  -29.8641  -26.9891   20.6897 C   0  0  0  0  0  0  0  0  0  0  0  0
  -30.9598  -29.2437   23.0055 C   0  0  0  0  0  0  0  0  0  0  0  0
  -23.8477  -20.3297   20.3943 C   0  0  0  0  0  0  0  0  0  0  0  0
  -26.0207  -21.8393   15.5752 C   0  0  0  0  0  0  0  0  0  0  0  0
  -26.8871  -28.0828   18.8045 C   0  0  0  0  0  0  0  0  0  0  0  0
  -27.5676  -27.4710   21.6165 C   0  0  0  0  0  0  0  0  0  0  0  0
  -26.7805  -21.6324   16.8814 C   0  0  0  0  0  0  0  0  0  0  0  0
  -22.5688  -18.1978   17.7643 C   0  0  0  0  0  0  0  0  0  0  0  0
  -27.3613  -22.9546   17.3599 C   0  0  0  0  0  0  0  0  0  0  0  0
  -23.1565  -16.8417   18.1593 C   0  0  0  0  0  0  0  0  0  0  0  0
  -23.0036  -23.9396   20.0105 C   0  0  0  0  0  0  0  0  0  0  0  0
  -23.5517  -19.3299   18.0479 C   0  0  0  0  0  0  0  0  0  0  0  0
  -24.6185  -18.0369   19.8545 C   0  0  0  0  0  0  0  0  0  0  0  0
  -22.3597  -24.9161   20.9823 C   0  0  0  0  0  0  0  0  0  0  0  0
  -21.6744  -22.6167   21.4584 C   0  0  0  0  0  0  0  0  0  0  0  0
  -26.2458  -23.9609   17.6697 C   0  0  1  0  0  0  0  0  0  0  0  0
  -27.9219  -27.0224   19.1679 C   0  0  1  0  0  0  0  0  0  0  0  0
  -23.6642  -16.8532   19.6134 C   0  0  2  0  0  0  0  0  0  0  0  0
  -23.0289  -22.6289   20.7779 C   0  0  1  0  0  0  0  0  0  0  0  0
  -17.8006  -26.1350   21.1743 C   0  0  0  0  0  0  0  0  0  0  0  0
  -18.2498  -30.1180   24.7385 C   0  0  0  0  0  0  0  0  0  0  0  0
  -19.5696  -30.9454   22.7564 C   0  0  0  0  0  0  0  0  0  0  0  0
  -21.8745  -27.4981   26.0637 C   0  0  0  0  0  0  0  0  0  0  0  0
  -33.0589  -30.1011   24.0807 C   0  0  0  0  0  0  0  0  0  0  0  0
  -30.0205  -24.4627   22.3934 C   0  0  0  0  0  0  0  0  0  0  0  0
  -31.4469  -25.7286   24.0154 C   0  0  0  0  0  0  0  0  0  0  0  0
  -32.2354  -25.3754   21.6753 C   0  0  0  0  0  0  0  0  0  0  0  0
  -30.4918  -31.9879   22.0009 C   0  0  0  0  0  0  0  0  0  0  0  0
  -20.0820  -24.4935   22.0058 C   0  0  0  0  0  0  0  0  0  0  0  0
  -23.2151  -28.3255   24.0940 C   0  0  0  0  0  0  0  0  0  1  0  0
  -19.5292  -29.9208   23.9049 C   0  0  0  0  0  0  0  0  0  0  0  0
  -21.8296  -28.2891   24.7533 C   0  0  1  0  0  0  0  0  0  0  0  0
  -30.3558  -27.0077   22.1169 C   0  0  1  0  0  0  0  0  0  0  0  0
  -32.0581  -30.2903   22.9514 C   0  0  2  0  0  0  0  0  0  0  0  0
  -30.9887  -25.6530   22.5433 C   0  0  0  0  0  0  0  0  0  0  0  0
  -25.6213  -15.3703   19.8437 N   0  0  0  0  0  0  0  0  0  0  0  0
  -24.2958  -15.5283   19.9988 N   0  0  0  0  0  0  0  0  0  0  0  0
  -28.4952  -27.2252   20.4999 N   0  0  0  0  0  0  0  0  0  0  0  0
  -23.9817  -19.2957   19.4530 N   0  0  0  0  0  0  0  0  0  0  0  0
  -22.3331  -14.4176   20.7233 N   0  0  0  0  0  0  0  0  0  0  0  0
  -25.5673  -11.3262   21.3389 N   0  0  0  0  0  0  0  0  0  0  0  0
  -26.8355  -25.2582   17.9168 N   0  0  0  0  0  0  0  0  0  0  0  0
  -31.2587  -28.1487   22.2228 N   0  0  0  0  0  0  0  0  0  0  0  0
  -23.2402  -21.4907   19.9319 N   0  0  0  0  0  0  0  0  0  0  0  0
  -21.5076  -24.0563   21.8995 N   0  3  2  0  0  0  0  0  0  0  0  0
  -31.4764  -31.6578   23.0632 N   0  3  0  0  0  0  0  0  0  0  0  0
  -23.3188  -11.7327   21.5334 O   0  0  0  0  0  0  0  0  0  0  0  0
  -27.3998  -24.9414   20.1537 O   0  0  0  0  0  0  0  0  0  0  0  0
  -30.6665  -26.7802   19.7763 O   0  0  0  0  0  0  0  0  0  0  0  0
  -29.9404  -29.3821   23.6781 O   0  0  0  0  0  0  0  0  0  0  0  0
  -24.2360  -20.2243   21.5627 O   0  0  0  0  0  0  0  0  0  0  0  0
  -30.9897  -11.9677   20.2335 O   0  0  0  0  0  0  0  0  0  0  0  0
  -23.1753  -29.1692   22.9438 O   0  0  0  0  0  0  0  0  0  1  0  0
  -34.0716  -12.7558   15.7297 F   0  0  0  0  0  0  0  0  0  0  0  0
  -31.6264  -14.5186   19.3792 F   0  0  0  0  0  0  0  0  0  0  0  0
  1  2  1  0  0  0  0
  1  5  2  0  0  0  0
  2  6  2  0  0  0  0
  3  8  2  0  0  0  0
  3 17  1  0  0  0  0
  4  9  1  0  0  0  0
  4 17  2  0  0  0  0
  5 19  1  0  0  0  0
  6 21  1  0  0  0  0
  7 10  2  0  0  0  0
  7 20  1  0  0  0  0
  8 27  1  0  0  0  0
  9 27  2  0  0  0  0
 10 28  1  0  0  0  0
 11 12  2  0  0  0  0
 11 29  1  0  0  0  0
 12 30  1  0  0  0  0
 13 22  1  0  0  0  0
 13 28  2  0  0  0  0
 14 23  2  0  0  0  0
 14 25  1  0  0  0  0
 15 24  2  0  0  0  0
 15 26  1  0  0  0  0
 16 30  2  0  0  0  0
 16 31  1  0  0  0  0
 17 32  1  0  0  0  0
 18 32  1  0  0  0  0
 18 33  2  0  0  0  0
 18 34  1  0  0  0  0
 19 21  2  0  0  0  0
 19 39  1  0  0  0  0
 20 22  2  0  0  0  0
 20 40  1  0  0  0  0
 21 51  1  0  0  0  0
 22 41  1  0  0  0  0
 23 24  1  0  0  0  0
 23 55  1  0  0  0  0
 24 64  1  0  0  0  0
 25 26  2  0  0  0  0
 25 66  1  0  0  0  0
 26 67  1  0  0  0  0
 27 87  1  0  0  0  0
 28 88  1  0  0  0  0
 29 31  2  0  0  0  0
 29 87  1  0  0  0  0
 30 89  1  0  0  0  0
 31 90  1  0  0  0  0
 32 71  2  0  0  0  0
 33 72  1  0  0  0  0
 33 75  1  0  0  0  0
 34 76  1  0  0  0  0
 34 82  2  0  0  0  0
 35 52  1  0  0  0  0
 35 77  1  0  0  0  0
 35 83  2  0  0  0  0
 36 68  1  0  0  0  0
 36 73  1  0  0  0  0
 36 84  2  0  0  0  0
 37 69  1  0  0  0  0
 37 78  1  0  0  0  0
 37 85  2  0  0  0  0
 38 74  1  0  0  0  0
 38 79  1  0  0  0  0
 38 86  2  0  0  0  0
 39 42  1  0  0  0  0
 40 52  1  0  0  0  0
 41 73  1  0  0  0  0
 42 44  1  0  0  0  0
 43 45  1  0  0  0  0
 43 47  1  0  0  0  0
 44 51  1  0  0  0  0
 45 53  1  0  0  0  0
 46 49  1  0  0  0  0
 46 54  1  0  0  0  0
 47 74  1  0  0  0  0
 48 53  1  0  0  0  0
 48 74  1  0  0  0  0
 49 80  1  0  0  0  0
 50 54  1  0  0  0  0
 50 80  1  0  0  0  0
 51 77  1  0  0  0  0
 52 73  1  0  0  0  0
 53 72  1  0  0  0  0
 54 79  1  0  0  0  0
 56 66  1  0  0  0  0
 57 66  1  0  0  0  0
 58 67  1  0  0  0  0
 59 69  1  0  0  0  0
 60 70  1  0  0  0  0
 61 70  1  0  0  0  0
 62 70  1  0  0  0  0
 63 81  1  0  0  0  0
 64 80  1  0  0  0  0
 65 67  1  0  0  0  0
 65 88  1  0  0  0  0
 68 70  1  0  0  0  0
 68 78  1  0  0  0  0
 69 81  1  0  0  0  0
 71 72  1  0  0  0  0
M  CHG  2  80   1  81   1
M  ISO  4  38 100  65 101  79 100  88 101
M  END
> <Batch ID>
0158

> <Smiles>
CNC(C)C(=O)NC(C(=O)N1Cc2cc([101O:1][101CH2:1]C(C)c3cc(CN4CCC([100NH:0][100C:0](=O)N5CCCC(n6nc(-c7ccc(Oc8ccc(F)cc8F)cc7)c(C(N)=O)c6N)C5)C4)c(C)cc3C(C)C)ccc2CC1C(=O)NC1CCCc2ccccc21)C(C)(C)C

> <Shape>
0.227

> <Color>
0.073

> <Negative vol penalty>
0.000

$$$$
