
  -OEChem-04052322073D

 89 98  0     1  0  0  0  0  0999 V2000
  -19.4246  -24.0739   22.2722 C   0  0  0  0  0  0  0  0  0  0  0  0
  -20.6295  -24.4005   21.6582 C   0  0  0  0  0  0  0  0  0  0  0  0
  -26.4104  -14.8143   21.4344 C   0  0  0  0  0  0  0  0  0  0  0  0
  -27.8769  -16.0680   19.9803 C   0  0  0  0  0  0  0  0  0  0  0  0
  -18.5641  -25.0848   22.6982 C   0  0  0  0  0  0  0  0  0  0  0  0
  -20.9741  -25.7383   21.4688 C   0  0  0  0  0  0  0  0  0  0  0  0
  -25.7898  -26.6981   22.7069 C   0  0  0  0  0  0  0  0  0  0  0  0
  -26.8636  -13.6241   20.8655 C   0  0  0  0  0  0  0  0  0  0  0  0
  -28.3302  -14.8779   19.4113 C   0  0  0  0  0  0  0  0  0  0  0  0
  -26.7700  -26.3232   21.7891 C   0  0  0  0  0  0  0  0  0  0  0  0
  -30.4944  -12.4061   20.2033 C   0  0  0  0  0  0  0  0  0  0  0  0
  -31.8689  -12.2622   20.0144 C   0  0  0  0  0  0  0  0  0  0  0  0
  -30.7520  -23.6888   17.2299 C   0  0  0  0  0  0  0  0  0  0  0  0
  -28.5181  -24.4827   17.6950 C   0  0  0  0  0  0  0  0  0  0  0  0
  -26.9036  -28.6023   21.0099 C   0  0  0  0  0  0  0  0  0  0  0  0
  -28.8447  -22.2948   16.7238 C   0  0  0  0  0  0  0  0  0  0  0  0
  -31.5156  -12.0078   17.6379 C   0  0  0  0  0  0  0  0  0  0  0  0
  -26.9170  -16.0362   20.9918 C   0  0  0  0  0  0  0  0  0  0  0  0
  -26.9861  -17.9335   22.6957 C   0  0  0  0  0  0  0  0  0  0  0  0
  -18.9028  -26.4358   22.5227 C   0  0  0  0  0  0  0  0  0  0  0  0
  -25.3506  -28.0280   22.7757 C   0  0  0  0  0  0  0  0  0  0  0  0
  -20.1167  -26.7683   21.8916 C   0  0  0  0  0  0  0  0  0  0  0  0
  -29.8985  -24.6827   17.7086 C   0  0  0  0  0  0  0  0  0  0  0  0
  -25.9195  -28.9920   21.9312 C   0  0  0  0  0  0  0  0  0  0  0  0
  -30.2251  -22.4948   16.7374 C   0  0  0  0  0  0  0  0  0  0  0  0
  -27.9912  -23.2887   17.2026 C   0  0  0  0  0  0  0  0  0  0  0  0
  -27.8235  -13.6559   19.8539 C   0  0  0  0  0  0  0  0  0  0  0  0
  -27.3250  -27.2748   20.9384 C   0  0  0  0  0  0  0  0  0  0  0  0
  -29.6305  -12.3509   19.1096 C   0  0  0  0  0  0  0  0  0  0  0  0
  -32.3795  -12.0630   18.7317 C   0  0  0  0  0  0  0  0  0  0  0  0
  -30.1411  -12.1517   17.8269 C   0  0  0  0  0  0  0  0  0  0  0  0
  -26.4488  -17.2660   21.5788 C   0  0  0  0  0  0  0  0  0  0  0  0
  -26.1905  -19.0427   22.8484 C   0  0  0  0  0  0  0  0  0  0  0  0
  -28.1043  -17.5823   23.5215 C   0  0  0  0  0  0  0  0  0  0  0  0
  -22.5697  -29.4983   22.3191 C   0  0  0  0  0  0  0  0  0  0  0  0
  -24.2073  -32.0874   23.3854 C   0  0  0  0  0  0  0  0  0  0  0  0
  -27.2192  -33.6299   23.8281 C   0  0  0  0  0  0  0  0  0  0  0  0
  -22.7889  -22.1752   19.0448 C   0  0  0  0  0  0  0  0  0  0  0  0
  -17.9189  -27.4932   22.9570 C   0  0  0  0  0  0  0  0  0  0  0  0
  -24.3115  -28.4215   23.7896 C   0  0  0  0  0  0  0  0  0  0  0  0
  -25.4971  -30.4369   21.9793 C   0  0  0  0  0  0  0  0  0  0  0  0
  -18.5291  -28.8888   23.0568 C   0  0  0  0  0  0  0  0  0  0  0  0
  -31.3099  -27.9838   17.6908 C   0  0  0  0  0  0  0  0  0  0  0  0
  -21.7341  -20.5923   22.0545 C   0  0  0  0  0  0  0  0  0  0  0  0
  -19.3695  -29.1937   21.8208 C   0  0  0  0  0  0  0  0  0  0  0  0
  -22.8713  -19.6205   22.3747 C   0  0  0  0  0  0  0  0  0  0  0  0
  -31.8556  -26.5459   17.6470 C   0  0  0  0  0  0  0  0  0  0  0  0
  -29.8923  -27.3858   17.7109 C   0  0  0  0  0  0  0  0  0  0  0  0
  -21.4894  -20.6989   20.5510 C   0  0  0  0  0  0  0  0  0  0  0  0
  -23.8205  -20.0590   20.0713 C   0  0  0  0  0  0  0  0  0  0  0  0
  -20.5371  -28.2081   21.6908 C   0  0  1  0  0  0  0  0  0  0  0  0
  -23.5714  -29.7033   23.4201 C   0  0  1  0  0  0  0  0  0  0  0  0
  -24.1418  -19.9604   21.5725 C   0  0  2  0  0  0  0  0  0  0  0  0
  -30.5038  -26.0556   18.2713 C   0  0  0  0  0  0  0  0  0  0  0  0
  -31.1377  -21.4316   16.2268 C   0  0  0  0  0  0  0  0  0  0  0  0
  -28.2357  -35.7558   24.6911 C   0  0  0  0  0  0  0  0  0  0  0  0
  -31.4400  -24.8527   20.2570 C   0  0  0  0  0  0  0  0  0  0  0  0
  -23.7964  -23.2472   16.1348 C   0  0  0  0  0  0  0  0  0  0  0  0
  -23.3107  -33.5400   20.8564 C   0  0  0  0  0  0  0  0  0  0  0  0
  -25.0821  -35.2537   21.2964 C   0  0  0  0  0  0  0  0  0  0  0  0
  -23.2327  -34.9244   22.9377 C   0  0  0  0  0  0  0  0  0  0  0  0
  -28.7656  -32.1867   25.8981 C   0  0  0  0  0  0  0  0  0  0  0  0
  -25.6644  -24.0647   17.6605 C   0  0  0  0  0  0  0  0  0  0  0  0
  -29.1290  -25.8212   20.4011 C   0  0  0  0  0  0  0  0  0  1  0  0
  -25.0396  -33.1674   22.7373 C   0  0  1  0  0  0  0  0  0  0  0  0
  -27.8245  -34.3315   25.0305 C   0  0  2  0  0  0  0  0  0  0  0  0
  -30.5285  -25.9966   19.8053 C   0  0  2  0  0  0  0  0  0  0  0  0
  -24.2215  -23.5609   17.5661 C   0  0  2  0  0  0  0  0  0  0  0  0
  -24.1731  -34.1938   21.9545 C   0  0  0  0  0  0  0  0  0  0  0  0
  -25.3934  -17.8983   21.0587 N   0  0  0  0  0  0  0  0  0  0  0  0
  -25.2611  -18.9746   21.8525 N   0  0  0  0  0  0  0  0  0  0  0  0
  -24.4735  -30.7709   22.9833 N   0  0  0  0  0  0  0  0  0  0  0  0
  -22.7331  -21.0248   19.8488 N   0  0  0  0  0  0  0  0  0  0  0  0
  -26.2023  -20.0597   23.7359 N   0  0  0  0  0  0  0  0  0  0  0  0
  -28.8117  -16.4093   23.2247 N   0  0  0  0  0  0  0  0  0  0  0  0
  -26.5953  -23.0875   17.1871 N   0  0  0  0  0  0  0  0  0  0  0  0
  -21.5990  -28.5586   22.6094 N   0  0  0  0  0  0  0  0  0  0  0  0
  -25.8463  -33.7549   23.8015 N   0  0  0  0  0  0  0  0  0  0  0  0
  -24.0068  -22.4140   18.4200 N   0  0  0  0  0  0  0  0  0  0  0  0
  -29.0294  -33.5955   25.5074 N   0  3  0  0  0  0  0  0  0  0  0  0
  -28.4555  -18.2792   24.5036 O   0  0  0  0  0  0  0  0  0  0  0  0
  -22.6691  -30.1459   21.2835 O   0  0  0  0  0  0  0  0  0  0  0  0
  -23.3573  -32.3999   24.2231 O   0  0  0  0  0  0  0  0  0  0  0  0
  -27.8969  -33.0340   22.9938 O   0  0  0  0  0  0  0  0  0  0  0  0
  -21.8263  -22.9363   18.8991 O   0  0  0  0  0  0  0  0  0  0  0  0
  -28.2662  -12.4948   19.2987 O   0  0  0  0  0  0  0  0  0  0  0  0
  -28.2815  -26.9114   20.0412 O   0  0  0  0  0  0  0  0  0  1  0  0
  -33.6995  -11.9263   18.5503 F   0  0  0  0  0  0  0  0  0  0  0  0
  -29.3162  -12.0989   16.7721 F   0  0  0  0  0  0  0  0  0  0  0  0
  1  2  1  0  0  0  0
  1  5  2  0  0  0  0
  2  6  2  0  0  0  0
  3  8  2  0  0  0  0
  3 18  1  0  0  0  0
  4  9  1  0  0  0  0
  4 18  2  0  0  0  0
  5 20  1  0  0  0  0
  6 22  1  0  0  0  0
  7 10  2  0  0  0  0
  7 21  1  0  0  0  0
  8 27  1  0  0  0  0
  9 27  2  0  0  0  0
 10 28  1  0  0  0  0
 11 12  2  0  0  0  0
 11 29  1  0  0  0  0
 12 30  1  0  0  0  0
 13 23  1  0  0  0  0
 13 25  2  0  0  0  0
 14 23  2  0  0  0  0
 14 26  1  0  0  0  0
 15 24  1  0  0  0  0
 15 28  2  0  0  0  0
 16 25  1  0  0  0  0
 16 26  2  0  0  0  0
 17 30  2  0  0  0  0
 17 31  1  0  0  0  0
 18 32  1  0  0  0  0
 19 32  1  0  0  0  0
 19 33  2  0  0  0  0
 19 34  1  0  0  0  0
 20 22  2  0  0  0  0
 20 39  1  0  0  0  0
 21 24  2  0  0  0  0
 21 40  1  0  0  0  0
 22 51  1  0  0  0  0
 23 54  1  0  0  0  0
 24 41  1  0  0  0  0
 25 55  1  0  0  0  0
 26 76  1  0  0  0  0
 27 86  1  0  0  0  0
 28 87  1  0  0  0  0
 29 31  2  0  0  0  0
 29 86  1  0  0  0  0
 30 88  1  0  0  0  0
 31 89  1  0  0  0  0
 32 70  2  0  0  0  0
 33 71  1  0  0  0  0
 33 74  1  0  0  0  0
 34 75  1  0  0  0  0
 34 81  2  0  0  0  0
 35 52  1  0  0  0  0
 35 77  1  0  0  0  0
 35 82  2  0  0  0  0
 36 65  1  0  0  0  0
 36 72  1  0  0  0  0
 36 83  2  0  0  0  0
 37 66  1  0  0  0  0
 37 78  1  0  0  0  0
 37 84  2  0  0  0  0
 38 73  1  0  0  0  0
 38 79  1  0  0  0  0
 38 85  2  0  0  0  0
 39 42  1  0  0  0  0
 40 52  1  0  0  0  0
 41 72  1  0  0  0  0
 42 45  1  0  0  0  0
 43 47  1  0  0  0  0
 43 48  1  0  0  0  0
 44 46  1  0  0  0  0
 44 49  1  0  0  0  0
 45 51  1  0  0  0  0
 46 53  1  0  0  0  0
 47 54  1  0  0  0  0
 48 54  1  0  0  0  0
 49 73  1  0  0  0  0
 50 53  1  0  0  0  0
 50 73  1  0  0  0  0
 51 77  1  0  0  0  0
 52 72  1  0  0  0  0
 53 71  1  0  0  0  0
 54 67  1  0  0  0  0
 56 66  1  0  0  0  0
 57 67  1  0  0  0  0
 58 68  1  0  0  0  0
 59 69  1  0  0  0  0
 60 69  1  0  0  0  0
 61 69  1  0  0  0  0
 62 80  1  0  0  0  0
 63 68  1  0  0  0  0
 63 76  1  0  0  0  0
 64 67  1  0  0  0  0
 64 87  1  0  0  0  0
 65 69  1  0  0  0  0
 65 78  1  0  0  0  0
 66 80  1  0  0  0  0
 68 79  1  0  0  0  0
 70 71  1  0  0  0  0
M  CHG  1  80   1
M  ISO  4  38 100  64 101  79 100  87 101
M  END
> <Batch ID>
0159

> <Smiles>
CNC(C)C(=O)NC(C(=O)N1Cc2cc([101O:1][101CH2:1]C(C)C3(c4cc(C)cc(NCC(C)[100NH:0][100C:0](=O)N5CCCC(n6nc(-c7ccc(Oc8ccc(F)cc8F)cc7)c(C(N)=O)c6N)C5)c4)CCC3)ccc2CC1C(=O)NC1CCCc2ccccc21)C(C)(C)C

> <Shape>
0.252

> <Color>
0.074

> <Negative vol penalty>
0.000

$$$$

  -OEChem-04052322073D

 84 93  0     1  0  0  0  0  0999 V2000
  -20.2551  -27.4558   22.2319 C   0  0  0  0  0  0  0  0  0  0  0  0
  -20.6578  -26.1497   22.4916 C   0  0  0  0  0  0  0  0  0  0  0  0
  -24.2784  -18.3961   18.6725 C   0  0  0  0  0  0  0  0  0  0  0  0
  -21.9986  -17.7149   19.0916 C   0  0  0  0  0  0  0  0  0  0  0  0
  -20.8363  -28.1678   21.1836 C   0  0  0  0  0  0  0  0  0  0  0  0
  -21.6413  -25.5546   21.7023 C   0  0  0  0  0  0  0  0  0  0  0  0
  -25.9015  -21.5507   23.5258 C   0  0  0  0  0  0  0  0  0  0  0  0
  -23.8354  -19.2655   17.6758 C   0  0  0  0  0  0  0  0  0  0  0  0
  -21.5556  -18.5843   18.0949 C   0  0  0  0  0  0  0  0  0  0  0  0
  -25.9749  -20.1604   23.4519 C   0  0  0  0  0  0  0  0  0  0  0  0
  -20.9763  -21.8966   17.7581 C   0  0  0  0  0  0  0  0  0  0  0  0
  -19.8653  -22.6913   18.0403 C   0  0  0  0  0  0  0  0  0  0  0  0
  -27.2733  -20.3426   21.4269 C   0  0  0  0  0  0  0  0  0  0  0  0
  -18.6771  -21.6864   16.1922 C   0  0  0  0  0  0  0  0  0  0  0  0
  -23.3600  -17.6207   19.3805 C   0  0  0  0  0  0  0  0  0  0  0  0
  -23.9822  -17.0101   21.7779 C   0  0  0  0  0  0  0  0  0  0  0  0
  -21.8343  -27.5845   20.3871 C   0  0  0  0  0  0  0  0  0  0  0  0
  -26.5052  -22.3486   22.5432 C   0  0  0  0  0  0  0  0  0  0  0  0
  -22.2354  -26.2590   20.6415 C   0  0  0  0  0  0  0  0  0  0  0  0
  -27.2083  -21.7429   21.4921 C   0  0  0  0  0  0  0  0  0  0  0  0
  -22.4740  -19.3596   17.3870 C   0  0  0  0  0  0  0  0  0  0  0  0
  -26.6584  -19.5561   22.4008 C   0  0  0  0  0  0  0  0  0  0  0  0
  -20.9378  -20.9968   16.6929 C   0  0  0  0  0  0  0  0  0  0  0  0
  -18.7157  -22.5862   17.2574 C   0  0  0  0  0  0  0  0  0  0  0  0
  -19.7882  -20.8917   15.9100 C   0  0  0  0  0  0  0  0  0  0  0  0
  -23.8170  -16.7221   20.4098 C   0  0  0  0  0  0  0  0  0  0  0  0
  -24.4334  -15.8336   22.3244 C   0  0  0  0  0  0  0  0  0  0  0  0
  -23.7487  -18.2319   22.4909 C   0  0  0  0  0  0  0  0  0  0  0  0
  -25.4560  -24.4621   20.4135 C   0  0  0  0  0  0  0  0  0  0  0  0
  -28.6235  -24.9056   19.8726 C   0  0  0  0  0  0  0  0  0  0  0  0
  -31.7928  -23.6492   20.0273 C   0  0  0  0  0  0  0  0  0  0  0  0
  -27.4357  -16.1341   21.3174 C   0  0  0  0  0  0  0  0  0  0  0  0
  -27.2450  -11.2480   19.8036 C   0  0  0  0  0  0  0  0  0  0  0  0
  -22.3996  -28.3772   19.2353 C   0  0  0  0  0  0  0  0  0  0  0  0
  -26.4397  -23.8473   22.6519 C   0  0  0  0  0  0  0  0  0  0  0  0
  -27.8909  -22.5549   20.4229 C   0  0  0  0  0  0  0  0  0  0  0  0
  -23.7016  -27.8036   18.6820 C   0  0  0  0  0  0  0  0  0  0  0  0
  -24.1531  -11.1775   21.6410 C   0  0  0  0  0  0  0  0  0  0  0  0
  -23.5808  -26.2953   18.4887 C   0  0  0  0  0  0  0  0  0  0  0  0
  -23.7371  -12.6475   21.6677 C   0  0  0  0  0  0  0  0  0  0  0  0
  -29.8683  -12.8771   18.0353 C   0  0  0  0  0  0  0  0  0  0  0  0
  -28.8239  -14.0001   18.2032 C   0  0  0  0  0  0  0  0  0  0  0  0
  -24.8276  -10.8272   20.3202 C   0  0  0  0  0  0  0  0  0  0  0  0
  -25.6227  -13.1541   20.0349 C   0  0  0  0  0  0  0  0  0  0  0  0
  -23.3169  -25.5875   19.8232 C   0  0  1  0  0  0  0  0  0  0  0  0
  -26.6536  -24.5531   21.3164 C   0  0  1  0  0  0  0  0  0  0  0  0
  -30.4864  -12.3694   20.4656 C   0  0  2  0  0  0  0  0  0  0  0  0
  -30.2197  -13.8608   20.8514 C   0  0  1  0  0  0  0  0  0  0  0  0
  -24.9324  -13.5633   21.3521 C   0  0  1  0  0  0  0  0  0  0  0  0
  -29.6340  -11.9411   19.2298 C   0  0  1  0  0  0  0  0  0  0  0  0
  -28.0601  -13.6357   19.4855 C   0  0  2  0  0  0  0  0  0  0  0  0
  -28.7145  -14.2267   20.7523 C   0  0  2  0  0  0  0  0  0  0  0  0
  -30.2756  -11.3938   21.6314 C   0  0  0  0  0  0  0  0  0  0  0  0
  -30.7992  -14.2597   22.2118 C   0  0  0  0  0  0  0  0  0  0  0  0
  -34.1712  -24.2303   19.4769 C   0  0  0  0  0  0  0  0  0  0  0  0
  -28.0639  -24.3874   16.9183 C   0  0  0  0  0  0  0  0  0  0  0  0
  -30.5207  -24.0384   16.5858 C   0  0  0  0  0  0  0  0  0  0  0  0
  -29.6711  -26.2508   17.3644 C   0  0  0  0  0  0  0  0  0  0  0  0
  -32.6238  -23.4296   22.8593 C   0  0  0  0  0  0  0  0  0  0  0  0
  -27.4411  -17.6386   21.2318 C   0  0  0  0  0  0  0  0  0  1  0  0
  -29.6484  -24.2850   18.9542 C   0  0  1  0  0  0  0  0  0  0  0  0
  -33.0889  -24.2463   20.5451 C   0  0  2  0  0  0  0  0  0  0  0  0
  -29.4616  -24.7248   17.4746 C   0  0  0  0  0  0  0  0  0  0  0  0
  -24.1373  -15.4615   20.1060 N   0  0  0  0  0  0  0  0  0  0  0  0
  -24.5084  -14.9470   21.2907 N   0  0  0  0  0  0  0  0  0  0  0  0
  -27.7931  -24.0165   20.5696 N   0  0  0  0  0  0  0  0  0  0  0  0
  -25.9506  -11.7220   20.0434 N   0  0  0  0  0  0  0  0  0  0  0  0
  -28.2248  -12.1938   19.5306 N   0  0  0  0  0  0  0  0  0  0  0  0
  -24.7694  -15.4813   23.5836 N   0  0  0  0  0  0  0  0  0  0  0  0
  -23.2855  -19.3447   21.7757 N   0  0  0  0  0  0  0  0  0  0  0  0
  -24.5399  -25.4816   20.5896 N   0  0  0  0  0  0  0  0  0  0  0  0
  -30.9535  -24.6163   19.5158 N   0  0  0  0  0  0  0  0  0  0  0  0
  -33.5797  -23.4764   21.7230 N   0  3  0  0  0  0  0  0  0  0  0  0
  -23.9606  -18.3385   23.7226 O   0  0  0  0  0  0  0  0  0  0  0  0
  -25.3702  -23.5364   19.6152 O   0  0  0  0  0  0  0  0  0  0  0  0
  -28.5667  -26.1337   19.9735 O   0  0  0  0  0  0  0  0  0  0  0  0
  -31.5509  -22.4450   20.0688 O   0  0  0  0  0  0  0  0  0  0  0  0
  -26.5431  -15.4662   21.8214 O   0  0  0  0  0  0  0  0  0  0  0  0
  -27.5056  -10.0385   19.8140 O   0  0  0  0  0  0  0  0  0  0  0  0
  -22.0414  -20.2080   16.4145 O   0  0  0  0  0  0  0  0  0  0  0  0
  -26.7317  -18.1860   22.3251 O   0  0  0  0  0  0  0  0  0  1  0  0
  -28.5781  -15.6459   20.7459 O   0  0  0  0  0  0  0  0  0  0  0  0
  -17.6482  -23.3483   17.5294 F   0  0  0  0  0  0  0  0  0  0  0  0
  -19.7449  -20.0282   14.8861 F   0  0  0  0  0  0  0  0  0  0  0  0
  1  2  1  0  0  0  0
  1  5  2  0  0  0  0
  2  6  2  0  0  0  0
  3  8  2  0  0  0  0
  3 15  1  0  0  0  0
  4  9  1  0  0  0  0
  4 15  2  0  0  0  0
  5 17  1  0  0  0  0
  6 19  1  0  0  0  0
  7 10  2  0  0  0  0
  7 18  1  0  0  0  0
  8 21  1  0  0  0  0
  9 21  2  0  0  0  0
 10 22  1  0  0  0  0
 11 12  2  0  0  0  0
 11 23  1  0  0  0  0
 12 24  1  0  0  0  0
 13 20  1  0  0  0  0
 13 22  2  0  0  0  0
 14 24  2  0  0  0  0
 14 25  1  0  0  0  0
 15 26  1  0  0  0  0
 16 26  1  0  0  0  0
 16 27  2  0  0  0  0
 16 28  1  0  0  0  0
 17 19  2  0  0  0  0
 17 34  1  0  0  0  0
 18 20  2  0  0  0  0
 18 35  1  0  0  0  0
 19 45  1  0  0  0  0
 20 36  1  0  0  0  0
 21 80  1  0  0  0  0
 22 81  1  0  0  0  0
 23 25  2  0  0  0  0
 23 80  1  0  0  0  0
 24 83  1  0  0  0  0
 25 84  1  0  0  0  0
 26 64  2  0  0  0  0
 27 65  1  0  0  0  0
 27 69  1  0  0  0  0
 28 70  1  0  0  0  0
 28 74  2  0  0  0  0
 29 46  1  0  0  0  0
 29 71  1  0  0  0  0
 29 75  2  0  0  0  0
 30 61  1  0  0  0  0
 30 66  1  0  0  0  0
 30 76  2  0  0  0  0
 31 62  1  0  0  0  0
 31 72  1  0  0  0  0
 31 77  2  0  0  0  0
 32 60  1  0  0  0  0
 32 78  2  0  0  0  0
 32 82  1  0  0  0  0
 33 67  1  0  0  0  0
 33 68  1  0  0  0  0
 33 79  2  0  0  0  0
 34 37  1  0  0  0  0
 35 46  1  0  0  0  0
 36 66  1  0  0  0  0
 37 39  1  0  0  0  0
 38 40  1  0  0  0  0
 38 43  1  0  0  0  0
 39 45  1  0  0  0  0
 40 49  1  0  0  0  0
 41 42  1  0  0  0  0
 41 50  1  0  0  0  0
 42 51  1  0  0  0  0
 43 67  1  0  0  0  0
 44 49  1  0  0  0  0
 44 67  1  0  0  0  0
 45 71  1  0  0  0  0
 46 66  1  0  0  0  0
 47 48  1  0  0  0  0
 47 50  1  0  0  0  0
 47 53  1  0  0  0  0
 48 52  1  0  0  0  0
 48 54  1  0  0  0  0
 49 65  1  0  0  0  0
 50 68  1  0  0  0  0
 51 52  1  0  0  0  0
 51 68  1  0  0  0  0
 52 82  1  0  0  0  0
 55 62  1  0  0  0  0
 56 63  1  0  0  0  0
 57 63  1  0  0  0  0
 58 63  1  0  0  0  0
 59 73  1  0  0  0  0
 60 81  1  0  0  0  0
 61 63  1  0  0  0  0
 61 72  1  0  0  0  0
 62 73  1  0  0  0  0
 64 65  1  0  0  0  0
M  CHG  1  73   1
M  ISO  4  33 100  60 101  68 100  81 101
M  END
> <Batch ID>
0159

> <Smiles>
CNC(C)C(=O)NC(C(=O)N1Cc2cc([101O:1][101CH2:1]C(=O)OC3C(C)C(C)C4CCC3[100N:0]4[100C:0](=O)N3CCCC(n4nc(-c5ccc(Oc6ccc(F)cc6F)cc5)c(C(N)=O)c4N)C3)ccc2CC1C(=O)NC1CCCc2ccccc21)C(C)(C)C

> <Shape>
0.177

> <Color>
0.065

> <Negative vol penalty>
0.000

$$$$

  -OEChem-04052322073D

 88 98  0     1  0  0  0  0  0999 V2000
  -24.8694  -35.7655   15.7543 C   0  0  0  0  0  0  0  0  0  0  0  0
  -25.1428  -34.4020   15.7171 C   0  0  0  0  0  0  0  0  0  0  0  0
  -22.8278  -10.8013   19.6626 C   0  0  0  0  0  0  0  0  0  0  0  0
  -23.5246   -9.8927   21.7900 C   0  0  0  0  0  0  0  0  0  0  0  0
  -25.0935  -36.4885   16.9252 C   0  0  0  0  0  0  0  0  0  0  0  0
  -25.6416  -33.7608   16.8505 C   0  0  0  0  0  0  0  0  0  0  0  0
  -24.4537  -28.0326   18.6622 C   0  0  0  0  0  0  0  0  0  0  0  0
  -21.8648   -9.7985   19.5498 C   0  0  0  0  0  0  0  0  0  0  0  0
  -22.5617   -8.8899   21.6772 C   0  0  0  0  0  0  0  0  0  0  0  0
  -25.1599  -26.8388   18.5214 C   0  0  0  0  0  0  0  0  0  0  0  0
  -22.1999   -5.9567   20.0352 C   0  0  0  0  0  0  0  0  0  0  0  0
  -22.5844   -4.6516   20.3423 C   0  0  0  0  0  0  0  0  0  0  0  0
  -26.1038  -27.1448   20.7202 C   0  0  0  0  0  0  0  0  0  0  0  0
  -20.9150   -4.5704   22.0869 C   0  0  0  0  0  0  0  0  0  0  0  0
  -23.6577  -10.8484   20.7828 C   0  0  0  0  0  0  0  0  0  0  0  0
  -24.4960  -13.1508   21.4925 C   0  0  0  0  0  0  0  0  0  0  0  0
  -25.5861  -35.8541   18.0765 C   0  0  0  0  0  0  0  0  0  0  0  0
  -24.5759  -28.7983   19.8307 C   0  0  0  0  0  0  0  0  0  0  0  0
  -25.8737  -34.4763   18.0375 C   0  0  0  0  0  0  0  0  0  0  0  0
  -25.3961  -28.3467   20.8744 C   0  0  0  0  0  0  0  0  0  0  0  0
  -29.4014  -22.0778   18.1341 C   0  0  0  0  0  0  0  0  0  0  0  0
  -28.6872  -23.2700   18.0898 C   0  0  0  0  0  0  0  0  0  0  0  0
  -27.3048  -23.2517   18.2382 C   0  0  0  0  0  0  0  0  0  0  0  0
  -21.7317   -8.8428   20.5570 C   0  0  0  0  0  0  0  0  0  0  0  0
  -25.9874  -26.3962   19.5493 C   0  0  0  0  0  0  0  0  0  0  0  0
  -21.1731   -6.5688   20.7540 C   0  0  0  0  0  0  0  0  0  0  0  0
  -21.9419   -3.9584   21.3681 C   0  0  0  0  0  0  0  0  0  0  0  0
  -20.5306   -5.8756   21.7798 C   0  0  0  0  0  0  0  0  0  0  0  0
  -24.6530  -11.8837   20.8997 C   0  0  0  0  0  0  0  0  0  0  0  0
  -26.6889  -22.0250   18.4269 C   0  0  0  0  0  0  0  0  0  0  0  0
  -28.6917  -20.9036   18.3277 C   0  0  0  0  0  0  0  0  0  0  0  0
  -25.7226  -13.7518   21.3483 C   0  0  0  0  0  0  0  0  0  0  0  0
  -23.3443  -13.7326   22.1177 C   0  0  0  0  0  0  0  0  0  0  0  0
  -25.6143  -31.7284   20.4940 C   0  0  0  0  0  0  0  0  0  0  0  0
  -24.5237  -31.0209   23.4659 C   0  0  0  0  0  0  0  0  0  0  0  0
  -23.7260  -28.6293   25.7661 C   0  0  0  0  0  0  0  0  0  0  0  0
  -30.0327  -14.9395   17.9002 C   0  0  0  0  0  0  0  0  0  0  0  0
  -25.8569  -36.6866   19.3045 C   0  0  0  0  0  0  0  0  0  0  0  0
  -23.7867  -30.0702   19.9779 C   0  0  0  0  0  0  0  0  0  0  0  0
  -25.5460  -29.1216   22.1572 C   0  0  0  0  0  0  0  0  0  0  0  0
  -26.0332  -35.8587   20.5749 C   0  0  0  0  0  0  0  0  0  0  0  0
  -30.1808  -11.8611   19.8937 C   0  0  0  0  0  0  0  0  0  0  0  0
  -31.4919  -22.7096   16.7542 C   0  0  0  0  0  0  0  0  0  0  0  0
  -31.5056  -21.2204   16.9031 C   0  0  0  0  0  0  0  0  0  0  0  0
  -26.9683  -34.6810   20.3191 C   0  0  0  0  0  0  0  0  0  0  0  0
  -28.7296  -11.6759   20.3392 C   0  0  0  0  0  0  0  0  0  0  0  0
  -28.0142  -17.7914   19.0444 C   0  0  0  0  0  0  0  0  0  0  0  0
  -30.2787  -12.5701   18.5449 C   0  0  0  0  0  0  0  0  0  0  0  0
  -27.9994  -16.3291   18.6115 C   0  0  0  0  0  0  0  0  0  0  0  0
  -28.0988  -13.6586   18.9143 C   0  0  0  0  0  0  0  0  0  0  0  0
  -29.9461  -17.4090   17.7120 C   0  0  0  0  0  0  0  0  0  0  0  0
  -30.8877  -22.0743   17.9769 C   0  0  0  0  0  0  0  0  0  0  0  0
  -26.3921  -33.7403   19.2539 C   0  0  1  0  0  0  0  0  0  0  0  0
  -24.3850  -31.0295   21.0022 C   0  0  1  0  0  0  0  0  0  0  0  0
  -27.9617  -13.0104   20.2989 C   0  0  1  0  0  0  0  0  0  0  0  0
  -28.8559  -18.4424   17.9523 C   0  0  2  0  0  0  0  0  0  0  0  0
  -29.4006  -24.5683   17.8835 C   0  0  0  0  0  0  0  0  0  0  0  0
  -25.2068  -21.9418   18.5947 C   0  0  0  0  0  0  0  0  0  0  0  0
  -22.8971  -28.3578   28.1191 C   0  0  0  0  0  0  0  0  0  0  0  0
  -27.2842  -31.7772   24.5230 C   0  0  0  0  0  0  0  0  0  0  0  0
  -26.7096  -30.6071   26.6605 C   0  0  0  0  0  0  0  0  0  0  0  0
  -25.3746  -32.5812   25.9235 C   0  0  0  0  0  0  0  0  0  0  0  0
  -21.3096  -27.1740   24.8704 C   0  0  0  0  0  0  0  0  0  0  0  0
  -26.5093  -24.5133   18.1935 C   0  0  0  0  0  0  0  0  0  1  0  0
  -25.1175  -30.3841   24.6992 C   0  0  1  0  0  0  0  0  0  0  0  0
  -22.5064  -28.4510   26.6524 C   0  0  2  0  0  0  0  0  0  0  0  0
  -26.1204  -31.3235   25.4267 C   0  0  0  0  0  0  0  0  0  0  0  0
  -25.8824  -11.6900   20.4148 N   0  0  0  0  0  0  0  0  0  0  0  0
  -27.3491  -20.8462   18.4757 N   0  0  0  0  0  0  0  0  0  0  0  0
  -26.5090  -12.8436   20.7027 N   0  0  0  0  0  0  0  0  0  0  0  0
  -24.7587  -30.3621   22.2508 N   0  0  0  0  0  0  0  0  0  0  0  0
  -29.5109  -13.8156   18.5499 N   0  0  0  0  0  0  0  0  0  0  0  0
  -29.3004  -16.1240   17.9694 N   0  0  0  0  0  0  0  0  0  0  0  0
  -26.1943  -14.9632   21.7119 N   0  0  0  0  0  0  0  0  0  0  0  0
  -22.1652  -12.9776   22.1806 N   0  0  0  0  0  0  0  0  0  0  0  0
  -29.3967  -19.7084   18.3715 N   0  0  0  0  0  0  0  0  0  0  0  0
  -25.3540  -32.9080   19.8230 N   0  0  0  0  0  0  0  0  0  0  0  0
  -23.9904  -29.9605   25.5229 N   0  0  0  0  0  0  0  0  0  0  0  0
  -21.7737  -27.2075   26.2812 N   0  3  0  0  0  0  0  0  0  0  0  0
  -23.3556  -14.8941   22.5915 O   0  0  0  0  0  0  0  0  0  0  0  0
  -26.7174  -31.2348   20.6971 O   0  0  0  0  0  0  0  0  0  0  0  0
  -23.8691  -32.0604   23.5776 O   0  0  0  0  0  0  0  0  0  0  0  0
  -24.3809  -27.6824   25.3359 O   0  0  0  0  0  0  0  0  0  0  0  0
  -31.1276  -14.8997   17.3234 O   0  0  0  0  0  0  0  0  0  0  0  0
  -20.7920   -7.8643   20.4474 O   0  0  0  0  0  0  0  0  0  0  0  0
  -26.6832  -25.2235   19.4132 O   0  0  0  0  0  0  0  0  0  1  0  0
  -22.3102   -2.7045   21.6619 F   0  0  0  0  0  0  0  0  0  0  0  0
  -19.5426   -6.4579   22.4731 F   0  0  0  0  0  0  0  0  0  0  0  0
  1  2  1  0  0  0  0
  1  5  2  0  0  0  0
  2  6  2  0  0  0  0
  3  8  2  0  0  0  0
  3 15  1  0  0  0  0
  4  9  1  0  0  0  0
  4 15  2  0  0  0  0
  5 17  1  0  0  0  0
  6 19  1  0  0  0  0
  7 10  2  0  0  0  0
  7 18  1  0  0  0  0
  8 24  1  0  0  0  0
  9 24  2  0  0  0  0
 10 25  1  0  0  0  0
 11 12  2  0  0  0  0
 11 26  1  0  0  0  0
 12 27  1  0  0  0  0
 13 20  1  0  0  0  0
 13 25  2  0  0  0  0
 14 27  2  0  0  0  0
 14 28  1  0  0  0  0
 15 29  1  0  0  0  0
 16 29  1  0  0  0  0
 16 32  2  0  0  0  0
 16 33  1  0  0  0  0
 17 19  2  0  0  0  0
 17 38  1  0  0  0  0
 18 20  2  0  0  0  0
 18 39  1  0  0  0  0
 19 53  1  0  0  0  0
 20 40  1  0  0  0  0
 21 22  1  0  0  0  0
 21 31  2  0  0  0  0
 21 52  1  0  0  0  0
 22 23  2  0  0  0  0
 22 57  1  0  0  0  0
 23 30  1  0  0  0  0
 23 64  1  0  0  0  0
 24 85  1  0  0  0  0
 25 86  1  0  0  0  0
 26 28  2  0  0  0  0
 26 85  1  0  0  0  0
 27 87  1  0  0  0  0
 28 88  1  0  0  0  0
 29 68  2  0  0  0  0
 30 58  1  0  0  0  0
 30 69  2  0  0  0  0
 31 69  1  0  0  0  0
 31 76  1  0  0  0  0
 32 70  1  0  0  0  0
 32 74  1  0  0  0  0
 33 75  1  0  0  0  0
 33 80  2  0  0  0  0
 34 54  1  0  0  0  0
 34 77  1  0  0  0  0
 34 81  2  0  0  0  0
 35 65  1  0  0  0  0
 35 71  1  0  0  0  0
 35 82  2  0  0  0  0
 36 66  1  0  0  0  0
 36 78  1  0  0  0  0
 36 83  2  0  0  0  0
 37 72  1  0  0  0  0
 37 73  1  0  0  0  0
 37 84  2  0  0  0  0
 38 41  1  0  0  0  0
 39 54  1  0  0  0  0
 40 71  1  0  0  0  0
 41 45  1  0  0  0  0
 42 46  1  0  0  0  0
 42 48  1  0  0  0  0
 43 44  1  0  0  0  0
 43 52  1  0  0  0  0
 44 52  1  0  0  0  0
 45 53  1  0  0  0  0
 46 55  1  0  0  0  0
 47 49  1  0  0  0  0
 47 56  1  0  0  0  0
 48 72  1  0  0  0  0
 49 73  1  0  0  0  0
 50 55  1  0  0  0  0
 50 72  1  0  0  0  0
 51 56  1  0  0  0  0
 51 73  1  0  0  0  0
 53 77  1  0  0  0  0
 54 71  1  0  0  0  0
 55 70  1  0  0  0  0
 56 76  1  0  0  0  0
 59 66  1  0  0  0  0
 60 67  1  0  0  0  0
 61 67  1  0  0  0  0
 62 67  1  0  0  0  0
 63 79  1  0  0  0  0
 64 86  1  0  0  0  0
 65 67  1  0  0  0  0
 65 78  1  0  0  0  0
 66 79  1  0  0  0  0
 68 70  1  0  0  0  0
M  CHG  1  79   1
M  ISO  4  37 100  64 101  73 100  86 101
M  END
> <Batch ID>
0159

> <Smiles>
CNC(C)C(=O)NC(C(=O)N1Cc2cc([101O:1][101CH2:1]c3c(C)nc(NC4CC[100N:0]([100C:0](=O)N5CCCC(n6nc(-c7ccc(Oc8ccc(F)cc8F)cc7)c(C(N)=O)c6N)C5)C4)c(C4CC4)c3C)ccc2CC1C(=O)NC1CCCc2ccccc21)C(C)(C)C

> <Shape>
0.284

> <Color>
0.148

> <Negative vol penalty>
0.000

$$$$

  -OEChem-04052322073D

 91101  0     1  0  0  0  0  0999 V2000
  -28.3284  -34.1342   26.0132 C   0  0  0  0  0  0  0  0  0  0  0  0
  -28.4305  -32.8917   25.3958 C   0  0  0  0  0  0  0  0  0  0  0  0
  -26.0221   -8.6821   22.3051 C   0  0  0  0  0  0  0  0  0  0  0  0
  -23.8158   -9.0522   21.3929 C   0  0  0  0  0  0  0  0  0  0  0  0
  -27.0741  -34.6485   26.3388 C   0  0  0  0  0  0  0  0  0  0  0  0
  -27.2783  -32.1623   25.1046 C   0  0  0  0  0  0  0  0  0  0  0  0
  -27.3633  -30.1726   20.4486 C   0  0  0  0  0  0  0  0  0  0  0  0
  -25.4706   -7.9056   23.3242 C   0  0  0  0  0  0  0  0  0  0  0  0
  -23.2642   -8.2757   22.4120 C   0  0  0  0  0  0  0  0  0  0  0  0
  -28.1296  -29.0230   20.2613 C   0  0  0  0  0  0  0  0  0  0  0  0
  -22.9073   -4.9913   23.1232 C   0  0  0  0  0  0  0  0  0  0  0  0
  -21.9401   -4.0510   22.7682 C   0  0  0  0  0  0  0  0  0  0  0  0
  -26.1329  -27.6766   20.3995 C   0  0  0  0  0  0  0  0  0  0  0  0
  -28.8757  -23.4876   20.9701 C   0  0  0  0  0  0  0  0  0  0  0  0
  -30.0255  -22.9974   18.4760 C   0  0  0  0  0  0  0  0  0  0  0  0
  -20.3422   -5.1510   24.2084 C   0  0  0  0  0  0  0  0  0  0  0  0
  -25.1947   -9.2555   21.3395 C   0  0  0  0  0  0  0  0  0  0  0  0
  -26.2102   -9.6157   19.0273 C   0  0  0  0  0  0  0  0  0  0  0  0
  -25.9054  -33.9293   26.0428 C   0  0  0  0  0  0  0  0  0  0  0  0
  -25.9750  -30.0817   20.6239 C   0  0  0  0  0  0  0  0  0  0  0  0
  -26.0072  -32.6668   25.4279 C   0  0  0  0  0  0  0  0  0  0  0  0
  -25.3508  -28.8266   20.5863 C   0  0  0  0  0  0  0  0  0  0  0  0
  -28.5400  -24.2877   19.8781 C   0  0  0  0  0  0  0  0  0  0  0  0
  -30.3613  -22.1973   19.5682 C   0  0  0  0  0  0  0  0  0  0  0  0
  -24.0916   -7.7024   23.3776 C   0  0  0  0  0  0  0  0  0  0  0  0
  -27.5148  -27.7746   20.2396 C   0  0  0  0  0  0  0  0  0  0  0  0
  -22.5920   -6.0114   24.0209 C   0  0  0  0  0  0  0  0  0  0  0  0
  -29.7864  -22.4424   20.8152 C   0  0  0  0  0  0  0  0  0  0  0  0
  -20.6575   -4.1309   23.3108 C   0  0  0  0  0  0  0  0  0  0  0  0
  -29.1148  -24.0426   18.6310 C   0  0  0  0  0  0  0  0  0  0  0  0
  -21.3095   -6.0912   24.5634 C   0  0  0  0  0  0  0  0  0  0  0  0
  -25.7638  -10.0581   20.2869 C   0  0  0  0  0  0  0  0  0  0  0  0
  -26.6584  -10.7539   18.4027 C   0  0  0  0  0  0  0  0  0  0  0  0
  -26.2188   -8.2941   18.4714 C   0  0  0  0  0  0  0  0  0  0  0  0
  -23.9543  -30.8407   22.9573 C   0  0  0  0  0  0  0  0  0  0  0  0
  -21.7167  -30.0059   20.7622 C   0  0  0  0  0  0  0  0  0  0  0  0
  -20.9321  -28.2280   17.9568 C   0  0  0  0  0  0  0  0  0  0  0  0
  -29.6176  -15.3595   18.6877 C   0  0  0  0  0  0  0  0  0  0  0  0
  -24.5743  -34.5050   26.4567 C   0  0  0  0  0  0  0  0  0  0  0  0
  -25.1591  -31.3332   20.7982 C   0  0  0  0  0  0  0  0  0  0  0  0
  -23.8611  -28.6766   20.7495 C   0  0  0  0  0  0  0  0  0  0  0  0
  -23.3831  -33.8364   25.7753 C   0  0  0  0  0  0  0  0  0  0  0  0
  -26.1551  -15.5274   19.7553 C   0  0  0  0  0  0  0  0  0  0  0  0
  -23.5237  -32.3183   25.8232 C   0  0  0  0  0  0  0  0  0  0  0  0
  -25.7857  -14.0518   19.8871 C   0  0  0  0  0  0  0  0  0  0  0  0
  -30.3225  -19.6998   17.5086 C   0  0  0  0  0  0  0  0  0  0  0  0
  -27.6121  -15.7971   20.1368 C   0  0  0  0  0  0  0  0  0  0  0  0
  -28.2123  -13.4661   19.5500 C   0  0  0  0  0  0  0  0  0  0  0  0
  -30.2809  -16.9788   20.5202 C   0  0  0  0  0  0  0  0  0  0  0  0
  -24.7792  -31.8566   25.0735 C   0  0  1  0  0  0  0  0  0  0  0  0
  -23.8180  -31.0821   21.4806 C   0  0  1  0  0  0  0  0  0  0  0  0
  -31.5457  -18.5405   19.1937 C   0  0  2  0  0  0  0  0  0  0  0  0
  -30.6564  -19.7742   18.9957 C   0  0  1  0  0  0  0  0  0  0  0  0
  -29.9952  -18.2182   17.3021 C   0  0  2  0  0  0  0  0  0  0  0  0
  -26.7731  -13.1708   19.1041 C   0  0  1  0  0  0  0  0  0  0  0  0
  -30.9505  -17.4705   18.2549 C   0  0  2  0  0  0  0  0  0  0  0  0
  -31.4808  -17.9153   20.5847 C   0  0  2  0  0  0  0  0  0  0  0  0
  -30.1418  -17.7952   15.8478 C   0  0  0  0  0  0  0  0  0  0  0  0
  -19.0141  -27.7150   16.4220 C   0  0  0  0  0  0  0  0  0  0  0  0
  -20.5550  -28.1099   22.8517 C   0  0  0  0  0  0  0  0  0  0  0  0
  -19.2946  -26.9687   21.0140 C   0  0  0  0  0  0  0  0  0  0  0  0
  -18.8508  -29.3698   21.5240 C   0  0  0  0  0  0  0  0  0  0  0  0
  -22.3302  -29.4030   15.6279 C   0  0  0  0  0  0  0  0  0  0  0  0
  -29.4687  -21.9915   23.1286 C   0  0  0  0  0  0  0  0  0  0  0  0
  -31.3462  -21.0728   19.3821 C   0  0  0  0  0  0  0  0  0  0  0  0
  -27.5662  -25.4048   20.0461 C   0  0  0  0  0  0  0  0  0  1  0  0
  -21.0141  -28.7237   20.3862 C   0  0  1  0  0  0  0  0  0  0  0  0
  -20.2052  -28.6235   16.6841 C   0  0  2  0  0  0  0  0  0  0  0  0
  -19.9569  -28.2954   21.4428 C   0  0  0  0  0  0  0  0  0  0  0  0
  -25.9148  -11.3746   20.4544 N   0  0  0  0  0  0  0  0  0  0  0  0
  -26.4612  -11.7693   19.2917 N   0  0  0  0  0  0  0  0  0  0  0  0
  -23.1074  -29.9293   20.9233 N   0  0  0  0  0  0  0  0  0  0  0  0
  -28.5249  -14.8925   19.4281 N   0  0  0  0  0  0  0  0  0  0  0  0
  -30.2429  -16.5280   19.1261 N   0  0  0  0  0  0  0  0  0  0  0  0
  -27.1981  -10.9753   17.1852 N   0  0  0  0  0  0  0  0  0  0  0  0
  -25.7214   -7.2392   19.2485 N   0  0  0  0  0  0  0  0  0  0  0  0
  -24.5518  -31.8800   23.6445 N   0  0  0  0  0  0  0  0  0  0  0  0
  -20.4710  -28.9330   19.0484 N   0  0  0  0  0  0  0  0  0  0  0  0
  -21.1256  -28.5409   15.5149 N   0  3  0  0  0  0  0  0  0  0  0  0
  -26.6699   -8.0533   17.3259 O   0  0  0  0  0  0  0  0  0  0  0  0
  -23.5463  -29.7899   23.4380 O   0  0  0  0  0  0  0  0  0  0  0  0
  -21.0569  -31.0389   20.9007 O   0  0  0  0  0  0  0  0  0  0  0  0
  -21.8175  -27.3760   17.9809 O   0  0  0  0  0  0  0  0  0  0  0  0
  -30.0358  -14.7417   17.6999 O   0  0  0  0  0  0  0  0  0  0  0  0
  -32.6490  -17.1349   20.8204 O   0  0  0  0  0  0  0  0  0  0  0  0
  -23.5531   -6.9445   24.3717 O   0  0  0  0  0  0  0  0  0  0  0  0
  -30.1031  -21.6705   21.8923 O   0  0  0  0  0  0  0  0  0  0  0  0
  -28.2657  -26.6432   20.0563 O   0  0  0  0  0  0  0  0  0  1  0  0
  -19.7284   -3.2288   22.9686 F   0  0  0  0  0  0  0  0  0  0  0  0
  -28.7979  -24.8061   17.5758 F   0  0  0  0  0  0  0  0  0  0  0  0
  -21.0003   -7.0696   25.4254 F   0  0  0  0  0  0  0  0  0  0  0  0
  1  2  1  0  0  0  0
  1  5  2  0  0  0  0
  2  6  2  0  0  0  0
  3  8  2  0  0  0  0
  3 17  1  0  0  0  0
  4  9  1  0  0  0  0
  4 17  2  0  0  0  0
  5 19  1  0  0  0  0
  6 21  1  0  0  0  0
  7 10  2  0  0  0  0
  7 20  1  0  0  0  0
  8 25  1  0  0  0  0
  9 25  2  0  0  0  0
 10 26  1  0  0  0  0
 11 12  2  0  0  0  0
 11 27  1  0  0  0  0
 12 29  1  0  0  0  0
 13 22  1  0  0  0  0
 13 26  2  0  0  0  0
 14 23  1  0  0  0  0
 14 28  2  0  0  0  0
 15 24  2  0  0  0  0
 15 30  1  0  0  0  0
 16 29  2  0  0  0  0
 16 31  1  0  0  0  0
 17 32  1  0  0  0  0
 18 32  1  0  0  0  0
 18 33  2  0  0  0  0
 18 34  1  0  0  0  0
 19 21  2  0  0  0  0
 19 39  1  0  0  0  0
 20 22  2  0  0  0  0
 20 40  1  0  0  0  0
 21 50  1  0  0  0  0
 22 41  1  0  0  0  0
 23 30  2  0  0  0  0
 23 66  1  0  0  0  0
 24 28  1  0  0  0  0
 24 65  1  0  0  0  0
 25 86  1  0  0  0  0
 26 88  1  0  0  0  0
 27 31  2  0  0  0  0
 27 86  1  0  0  0  0
 28 87  1  0  0  0  0
 29 89  1  0  0  0  0
 30 90  1  0  0  0  0
 31 91  1  0  0  0  0
 32 70  2  0  0  0  0
 33 71  1  0  0  0  0
 33 75  1  0  0  0  0
 34 76  1  0  0  0  0
 34 80  2  0  0  0  0
 35 51  1  0  0  0  0
 35 77  1  0  0  0  0
 35 81  2  0  0  0  0
 36 67  1  0  0  0  0
 36 72  1  0  0  0  0
 36 82  2  0  0  0  0
 37 68  1  0  0  0  0
 37 78  1  0  0  0  0
 37 83  2  0  0  0  0
 38 73  1  0  0  0  0
 38 74  1  0  0  0  0
 38 84  2  0  0  0  0
 39 42  1  0  0  0  0
 40 51  1  0  0  0  0
 41 72  1  0  0  0  0
 42 44  1  0  0  0  0
 43 45  1  0  0  0  0
 43 47  1  0  0  0  0
 44 50  1  0  0  0  0
 45 55  1  0  0  0  0
 46 53  1  0  0  0  0
 46 54  1  0  0  0  0
 47 73  1  0  0  0  0
 48 55  1  0  0  0  0
 48 73  1  0  0  0  0
 49 57  1  0  0  0  0
 49 74  1  0  0  0  0
 50 77  1  0  0  0  0
 51 72  1  0  0  0  0
 52 53  1  0  0  0  0
 52 56  1  0  0  0  0
 52 57  1  0  0  0  0
 53 65  1  0  0  0  0
 54 56  1  0  0  0  0
 54 58  1  0  0  0  0
 55 71  1  0  0  0  0
 56 74  1  0  0  0  0
 57 85  1  0  0  0  0
 59 68  1  0  0  0  0
 60 69  1  0  0  0  0
 61 69  1  0  0  0  0
 62 69  1  0  0  0  0
 63 79  1  0  0  0  0
 64 87  1  0  0  0  0
 66 88  1  0  0  0  0
 67 69  1  0  0  0  0
 67 78  1  0  0  0  0
 68 79  1  0  0  0  0
 70 71  1  0  0  0  0
M  CHG  1  79   1
M  ISO  4  38 100  66 101  74 100  88 101
M  END
> <Batch ID>
0159

> <Smiles>
CNC(C)C(=O)NC(C(=O)N1Cc2cc([101O:1][101CH2:1]c3cc(OC)c(CC4CC(C)C5C4C(O)C[100N:0]5[100C:0](=O)N4CCCC(n5nc(-c6ccc(Oc7ccc(F)cc7F)cc6)c(C(N)=O)c5N)C4)cc3F)ccc2CC1C(=O)NC1CCCc2ccccc21)C(C)(C)C

> <Shape>
0.308

> <Color>
0.085

> <Negative vol penalty>
0.000

$$$$

  -OEChem-04052322073D

 87 96  0     1  0  0  0  0  0999 V2000
  -21.1528  -33.3761   26.7801 C   0  0  0  0  0  0  0  0  0  0  0  0
  -21.5236  -34.2733   25.7848 C   0  0  0  0  0  0  0  0  0  0  0  0
  -24.5071   -9.1237   22.0917 C   0  0  0  0  0  0  0  0  0  0  0  0
  -23.5301   -9.6341   19.9418 C   0  0  0  0  0  0  0  0  0  0  0  0
  -22.1191  -32.5785   27.3894 C   0  0  0  0  0  0  0  0  0  0  0  0
  -22.8588  -34.3646   25.3902 C   0  0  0  0  0  0  0  0  0  0  0  0
  -28.0513  -30.6094   21.1249 C   0  0  0  0  0  0  0  0  0  0  0  0
  -23.4383   -8.2737   22.3757 C   0  0  0  0  0  0  0  0  0  0  0  0
  -22.4612   -8.7840   20.2258 C   0  0  0  0  0  0  0  0  0  0  0  0
  -28.1786  -29.2379   20.9097 C   0  0  0  0  0  0  0  0  0  0  0  0
  -22.4677   -5.1369   21.5686 C   0  0  0  0  0  0  0  0  0  0  0  0
  -22.7604   -3.8891   22.1191 C   0  0  0  0  0  0  0  0  0  0  0  0
  -25.7873  -29.0637   20.6444 C   0  0  0  0  0  0  0  0  0  0  0  0
  -21.4425   -4.4398   24.0677 C   0  0  0  0  0  0  0  0  0  0  0  0
  -24.5530   -9.8039   20.8748 C   0  0  0  0  0  0  0  0  0  0  0  0
  -26.8683  -10.3437   19.9497 C   0  0  0  0  0  0  0  0  0  0  0  0
  -23.4685  -32.6697   27.0101 C   0  0  0  0  0  0  0  0  0  0  0  0
  -26.7879  -31.2177   21.1123 C   0  0  0  0  0  0  0  0  0  0  0  0
  -23.8452  -33.5510   25.9764 C   0  0  0  0  0  0  0  0  0  0  0  0
  -25.6469  -30.4436   20.8572 C   0  0  0  0  0  0  0  0  0  0  0  0
  -28.8223  -24.6222   18.9706 C   0  0  0  0  0  0  0  0  0  0  0  0
  -27.9630  -24.2274   21.1937 C   0  0  0  0  0  0  0  0  0  0  0  0
  -28.4213  -25.1089   20.2147 C   0  0  0  0  0  0  0  0  0  0  0  0
  -28.7650  -23.2540   18.7054 C   0  0  0  0  0  0  0  0  0  0  0  0
  -27.9057  -22.8591   20.9286 C   0  0  0  0  0  0  0  0  0  0  0  0
  -28.3067  -22.3724   19.6844 C   0  0  0  0  0  0  0  0  0  0  0  0
  -22.4154   -8.1038   21.4427 C   0  0  0  0  0  0  0  0  0  0  0  0
  -27.0462  -28.4643   20.6723 C   0  0  0  0  0  0  0  0  0  0  0  0
  -21.6626   -6.0362   22.2677 C   0  0  0  0  0  0  0  0  0  0  0  0
  -22.2477   -3.5406   23.3686 C   0  0  0  0  0  0  0  0  0  0  0  0
  -21.1500   -5.6876   23.5172 C   0  0  0  0  0  0  0  0  0  0  0  0
  -25.6566  -10.6826   20.5811 C   0  0  0  0  0  0  0  0  0  0  0  0
  -27.5744  -11.5210   19.9073 C   0  0  0  0  0  0  0  0  0  0  0  0
  -27.3156   -9.0778   19.4464 C   0  0  0  0  0  0  0  0  0  0  0  0
  -25.0412  -32.8052   23.2413 C   0  0  0  0  0  0  0  0  0  0  0  0
  -23.0773  -33.2723   20.7022 C   0  0  0  0  0  0  0  0  0  0  0  0
  -21.9998  -32.2180   17.6404 C   0  0  0  0  0  0  0  0  0  0  0  0
  -28.0235  -16.7962   19.0047 C   0  0  0  0  0  0  0  0  0  0  0  0
  -24.4718  -31.7771   27.6973 C   0  0  0  0  0  0  0  0  0  0  0  0
  -26.6700  -32.7028   21.3197 C   0  0  0  0  0  0  0  0  0  0  0  0
  -24.2696  -31.0516   20.8132 C   0  0  0  0  0  0  0  0  0  0  0  0
  -25.9093  -32.2578   27.5278 C   0  0  0  0  0  0  0  0  0  0  0  0
  -26.7313  -15.9613   22.1627 C   0  0  0  0  0  0  0  0  0  0  0  0
  -26.1897  -32.5516   26.0617 C   0  0  0  0  0  0  0  0  0  0  0  0
  -26.4291  -14.4738   21.9837 C   0  0  0  0  0  0  0  0  0  0  0  0
  -26.3646  -16.7741   20.9199 C   0  0  0  0  0  0  0  0  0  0  0  0
  -29.4142  -20.1588   19.7194 C   0  0  0  0  0  0  0  0  0  0  0  0
  -26.9340  -20.3464   19.4747 C   0  0  0  0  0  0  0  0  0  0  0  0
  -29.3759  -18.8572   18.9230 C   0  0  0  0  0  0  0  0  0  0  0  0
  -26.9414  -19.0498   18.6726 C   0  0  0  0  0  0  0  0  0  0  0  0
  -26.6701  -14.7788   19.4904 C   0  0  0  0  0  0  0  0  0  0  0  0
  -25.2962  -33.6895   25.5521 C   0  0  1  0  0  0  0  0  0  0  0  0
  -25.2853  -33.1317   21.7951 C   0  0  1  0  0  0  0  0  0  0  0  0
  -27.0825  -13.9278   20.7016 C   0  0  2  0  0  0  0  0  0  0  0  0
  -29.3147  -25.5681   17.9206 C   0  0  0  0  0  0  0  0  0  0  0  0
  -27.5318  -24.7501   22.5278 C   0  0  0  0  0  0  0  0  0  0  0  0
  -29.1966  -22.7354   17.3692 C   0  0  0  0  0  0  0  0  0  0  0  0
  -27.4126  -21.9159   21.9817 C   0  0  0  0  0  0  0  0  0  0  0  0
  -20.3581  -32.7821   15.8282 C   0  0  0  0  0  0  0  0  0  0  0  0
  -20.8125  -32.1403   22.4049 C   0  0  0  0  0  0  0  0  0  0  0  0
  -19.4781  -31.8425   20.3076 C   0  0  0  0  0  0  0  0  0  0  0  0
  -20.1846  -34.1262   21.0205 C   0  0  0  0  0  0  0  0  0  0  0  0
  -24.1551  -32.6157   15.6516 C   0  0  0  0  0  0  0  0  0  0  0  0
  -28.4826  -26.5768   20.4990 C   0  0  0  0  0  0  0  0  0  1  0  0
  -21.9116  -32.5252   20.1006 C   0  0  1  0  0  0  0  0  0  0  0  0
  -21.7791  -32.9657   16.3378 C   0  0  2  0  0  0  0  0  0  0  0  0
  -20.6223  -32.6464   20.9611 C   0  0  0  0  0  0  0  0  0  0  0  0
  -25.5932  -11.9740   20.9159 N   0  0  0  0  0  0  0  0  0  0  0  0
  -26.7740  -12.4570   20.4934 N   0  0  0  0  0  0  0  0  0  0  0  0
  -28.2496  -20.9984   19.4183 N   0  0  0  0  0  0  0  0  0  0  0  0
  -24.2057  -32.5067   21.0282 N   0  0  0  0  0  0  0  0  0  0  0  0
  -26.9771  -16.1925   19.7180 N   0  0  0  0  0  0  0  0  0  0  0  0
  -28.0793  -18.1986   19.0260 N   0  0  0  0  0  0  0  0  0  0  0  0
  -28.7957  -11.8365   19.4264 N   0  0  0  0  0  0  0  0  0  0  0  0
  -26.4649   -7.9709   19.5710 N   0  0  0  0  0  0  0  0  0  0  0  0
  -25.4406  -33.7967   24.1170 N   0  0  0  0  0  0  0  0  0  0  0  0
  -21.7685  -33.0221   18.7364 N   0  0  0  0  0  0  0  0  0  0  0  0
  -22.7205  -32.4740   15.2924 N   0  3  0  0  0  0  0  0  0  0  0  0
  -28.4430   -8.9291   18.9170 O   0  0  0  0  0  0  0  0  0  0  0  0
  -24.5271  -31.7338   23.5404 O   0  0  0  0  0  0  0  0  0  0  0  0
  -22.9926  -34.4914   20.8698 O   0  0  0  0  0  0  0  0  0  0  0  0
  -22.3395  -31.0376   17.6816 O   0  0  0  0  0  0  0  0  0  0  0  0
  -28.8601  -16.1248   18.3881 O   0  0  0  0  0  0  0  0  0  0  0  0
  -21.3724   -7.2742   21.7194 O   0  0  0  0  0  0  0  0  0  0  0  0
  -27.1685  -27.1152   20.4610 O   0  0  0  0  0  0  0  0  0  1  0  0
  -22.5276   -2.3417   23.8965 F   0  0  0  0  0  0  0  0  0  0  0  0
  -20.3749   -6.5469   24.1930 F   0  0  0  0  0  0  0  0  0  0  0  0
  1  2  1  0  0  0  0
  1  5  2  0  0  0  0
  2  6  2  0  0  0  0
  3  8  2  0  0  0  0
  3 15  1  0  0  0  0
  4  9  1  0  0  0  0
  4 15  2  0  0  0  0
  5 17  1  0  0  0  0
  6 19  1  0  0  0  0
  7 10  2  0  0  0  0
  7 18  1  0  0  0  0
  8 27  1  0  0  0  0
  9 27  2  0  0  0  0
 10 28  1  0  0  0  0
 11 12  2  0  0  0  0
 11 29  1  0  0  0  0
 12 30  1  0  0  0  0
 13 20  1  0  0  0  0
 13 28  2  0  0  0  0
 14 30  2  0  0  0  0
 14 31  1  0  0  0  0
 15 32  1  0  0  0  0
 16 32  1  0  0  0  0
 16 33  2  0  0  0  0
 16 34  1  0  0  0  0
 17 19  2  0  0  0  0
 17 39  1  0  0  0  0
 18 20  2  0  0  0  0
 18 40  1  0  0  0  0
 19 52  1  0  0  0  0
 20 41  1  0  0  0  0
 21 23  1  0  0  0  0
 21 24  2  0  0  0  0
 21 55  1  0  0  0  0
 22 23  2  0  0  0  0
 22 25  1  0  0  0  0
 22 56  1  0  0  0  0
 23 64  1  0  0  0  0
 24 26  1  0  0  0  0
 24 57  1  0  0  0  0
 25 26  2  0  0  0  0
 25 58  1  0  0  0  0
 26 70  1  0  0  0  0
 27 84  1  0  0  0  0
 28 85  1  0  0  0  0
 29 31  2  0  0  0  0
 29 84  1  0  0  0  0
 30 86  1  0  0  0  0
 31 87  1  0  0  0  0
 32 68  2  0  0  0  0
 33 69  1  0  0  0  0
 33 74  1  0  0  0  0
 34 75  1  0  0  0  0
 34 79  2  0  0  0  0
 35 53  1  0  0  0  0
 35 76  1  0  0  0  0
 35 80  2  0  0  0  0
 36 65  1  0  0  0  0
 36 71  1  0  0  0  0
 36 81  2  0  0  0  0
 37 66  1  0  0  0  0
 37 77  1  0  0  0  0
 37 82  2  0  0  0  0
 38 72  1  0  0  0  0
 38 73  1  0  0  0  0
 38 83  2  0  0  0  0
 39 42  1  0  0  0  0
 40 53  1  0  0  0  0
 41 71  1  0  0  0  0
 42 44  1  0  0  0  0
 43 45  1  0  0  0  0
 43 46  1  0  0  0  0
 44 52  1  0  0  0  0
 45 54  1  0  0  0  0
 46 72  1  0  0  0  0
 47 49  1  0  0  0  0
 47 70  1  0  0  0  0
 48 50  1  0  0  0  0
 48 70  1  0  0  0  0
 49 73  1  0  0  0  0
 50 73  1  0  0  0  0
 51 54  1  0  0  0  0
 51 72  1  0  0  0  0
 52 76  1  0  0  0  0
 53 71  1  0  0  0  0
 54 69  1  0  0  0  0
 59 66  1  0  0  0  0
 60 67  1  0  0  0  0
 61 67  1  0  0  0  0
 62 67  1  0  0  0  0
 63 78  1  0  0  0  0
 64 85  1  0  0  0  0
 65 67  1  0  0  0  0
 65 77  1  0  0  0  0
 66 78  1  0  0  0  0
 68 69  1  0  0  0  0
M  CHG  1  78   1
M  ISO  4  38 100  64 101  73 100  85 101
M  END
> <Batch ID>
0159

> <Smiles>
CNC(C)C(=O)NC(C(=O)N1Cc2cc([101O:1][101CH2:1]c3c(C)c(C)c(N4CC[100N:0]([100C:0](=O)N5CCCC(n6nc(-c7ccc(Oc8ccc(F)cc8F)cc7)c(C(N)=O)c6N)C5)CC4)c(C)c3C)ccc2CC1C(=O)NC1CCCc2ccccc21)C(C)(C)C

> <Shape>
0.280

> <Color>
0.085

> <Negative vol penalty>
0.000

$$$$

  -OEChem-04052322073D

 89 98  0     1  0  0  0  0  0999 V2000
  -27.4543  -32.0136   27.6924 C   0  0  0  0  0  0  0  0  0  0  0  0
  -27.5793  -30.9167   26.8459 C   0  0  0  0  0  0  0  0  0  0  0  0
  -24.5661   -8.8024   21.3143 C   0  0  0  0  0  0  0  0  0  0  0  0
  -23.3901  -10.7346   22.1633 C   0  0  0  0  0  0  0  0  0  0  0  0
  -26.2319  -32.6758   27.7976 C   0  0  0  0  0  0  0  0  0  0  0  0
  -26.4815  -30.4807   26.1048 C   0  0  0  0  0  0  0  0  0  0  0  0
  -27.6727  -29.4478   21.2924 C   0  0  0  0  0  0  0  0  0  0  0  0
  -24.0581   -8.0332   22.3611 C   0  0  0  0  0  0  0  0  0  0  0  0
  -22.8821   -9.9654   23.2101 C   0  0  0  0  0  0  0  0  0  0  0  0
  -28.3144  -28.2358   21.0414 C   0  0  0  0  0  0  0  0  0  0  0  0
  -21.1526   -6.4858   23.1332 C   0  0  0  0  0  0  0  0  0  0  0  0
  -20.6463   -5.2235   22.8237 C   0  0  0  0  0  0  0  0  0  0  0  0
  -26.2151  -27.2766   20.3399 C   0  0  0  0  0  0  0  0  0  0  0  0
  -29.1334  -23.5923   18.5758 C   0  0  0  0  0  0  0  0  0  0  0  0
  -28.1807  -22.6258   20.5745 C   0  0  0  0  0  0  0  0  0  0  0  0
  -22.2726   -4.2103   24.2953 C   0  0  0  0  0  0  0  0  0  0  0  0
  -24.2321  -10.1532   21.2154 C   0  0  0  0  0  0  0  0  0  0  0  0
  -24.1760  -11.1513   18.8684 C   0  0  0  0  0  0  0  0  0  0  0  0
  -25.1212  -32.2537   27.0501 C   0  0  0  0  0  0  0  0  0  0  0  0
  -26.2931  -29.5804   21.0791 C   0  0  0  0  0  0  0  0  0  0  0  0
  -25.2427  -31.1371   26.2011 C   0  0  0  0  0  0  0  0  0  0  0  0
  -25.5588  -28.4921   20.5866 C   0  0  0  0  0  0  0  0  0  0  0  0
  -29.8524  -21.4104   19.3235 C   0  0  0  0  0  0  0  0  0  0  0  0
  -28.2586  -23.6753   19.6590 C   0  0  0  0  0  0  0  0  0  0  0  0
  -29.9303  -22.4598   18.4079 C   0  0  0  0  0  0  0  0  0  0  0  0
  -23.2161   -8.6147   23.3090 C   0  0  0  0  0  0  0  0  0  0  0  0
  -27.5851  -27.1491   20.5678 C   0  0  0  0  0  0  0  0  0  0  0  0
  -22.2190   -6.6104   24.0237 C   0  0  0  0  0  0  0  0  0  0  0  0
  -28.9776  -21.4933   20.4068 C   0  0  0  0  0  0  0  0  0  0  0  0
  -21.2063   -4.0857   23.4048 C   0  0  0  0  0  0  0  0  0  0  0  0
  -22.7790   -5.4726   24.6048 C   0  0  0  0  0  0  0  0  0  0  0  0
  -24.7570  -10.9484   20.1346 C   0  0  0  0  0  0  0  0  0  0  0  0
  -25.0578  -11.9766   18.2143 C   0  0  0  0  0  0  0  0  0  0  0  0
  -22.9488  -10.6397   18.3317 C   0  0  0  0  0  0  0  0  0  0  0  0
  -23.7898  -30.2303   22.9270 C   0  0  0  0  0  0  0  0  0  0  0  0
  -22.2023  -30.2597   20.0983 C   0  0  0  0  0  0  0  0  0  0  0  0
  -22.0563  -29.2322   16.8472 C   0  0  0  0  0  0  0  0  0  0  0  0
  -28.9798  -15.9131   20.2085 C   0  0  0  0  0  0  0  0  0  0  0  0
  -23.8077  -32.9721   27.2328 C   0  0  0  0  0  0  0  0  0  0  0  0
  -25.6206  -30.9023   21.3294 C   0  0  0  0  0  0  0  0  0  0  0  0
  -24.0792  -28.5885   20.3218 C   0  0  0  0  0  0  0  0  0  0  0  0
  -22.7938  -32.6774   26.1304 C   0  0  0  0  0  0  0  0  0  0  0  0
  -29.7055  -13.1064   18.0420 C   0  0  0  0  0  0  0  0  0  0  0  0
  -22.7283  -31.1791   25.8520 C   0  0  0  0  0  0  0  0  0  0  0  0
  -28.4488  -12.2523   18.2195 C   0  0  0  0  0  0  0  0  0  0  0  0
  -31.6688  -19.9546   20.3362 C   0  0  0  0  0  0  0  0  0  0  0  0
  -29.9262  -18.8622   18.9839 C   0  0  0  0  0  0  0  0  0  0  0  0
  -30.1110  -13.7725   19.3536 C   0  0  0  0  0  0  0  0  0  0  0  0
  -27.7831  -13.7432   20.1622 C   0  0  0  0  0  0  0  0  0  0  0  0
  -30.7148  -20.1805   19.1468 C   0  0  1  0  0  0  0  0  0  0  0  0
  -24.0815  -30.6493   25.3622 C   0  0  1  0  0  0  0  0  0  0  0  0
  -24.1189  -30.7736   21.5653 C   0  0  1  0  0  0  0  0  0  0  0  0
  -31.7442  -18.4344   20.4903 C   0  0  2  0  0  0  0  0  0  0  0  0
  -27.3086  -13.0608   18.8664 C   0  0  2  0  0  0  0  0  0  0  0  0
  -30.3043  -18.0113   20.1961 C   0  0  2  0  0  0  0  0  0  0  0  0
  -30.8579  -22.3948   17.2390 C   0  0  0  0  0  0  0  0  0  0  0  0
  -20.6196  -29.3854   14.7955 C   0  0  0  0  0  0  0  0  0  0  0  0
  -20.2616  -28.2405   21.3095 C   0  0  0  0  0  0  0  0  0  0  0  0
  -19.4604  -27.7266   18.9938 C   0  0  0  0  0  0  0  0  0  0  0  0
  -19.1836  -30.0236   19.9264 C   0  0  0  0  0  0  0  0  0  0  0  0
  -24.2031  -30.5594   15.3017 C   0  0  0  0  0  0  0  0  0  0  0  0
  -27.9682  -20.6486   22.3875 C   0  0  0  0  0  0  0  0  0  0  0  0
  -34.0718  -18.1601   23.3272 C   0  0  0  0  0  0  0  0  0  0  0  0
  -27.4006  -24.8930   19.8385 C   0  0  0  0  0  0  0  0  0  1  0  0
  -32.2412  -18.0053   21.8618 C   0  0  0  0  0  0  0  0  0  0  0  0
  -21.4886  -29.2251   19.2622 C   0  0  1  0  0  0  0  0  0  0  0  0
  -21.7845  -29.9925   15.5618 C   0  0  2  0  0  0  0  0  0  0  0  0
  -20.1261  -28.8012   19.8797 C   0  0  0  0  0  0  0  0  0  0  0  0
  -25.9182  -11.5926   20.2783 N   0  0  0  0  0  0  0  0  0  0  0  0
  -26.0740  -12.2084   19.0939 N   0  0  0  0  0  0  0  0  0  0  0  0
  -23.4660  -29.9003   20.5879 N   0  0  0  0  0  0  0  0  0  0  0  0
  -28.9872  -14.5410   19.9072 N   0  0  0  0  0  0  0  0  0  0  0  0
  -25.0553  -12.5191   16.9782 N   0  0  0  0  0  0  0  0  0  0  0  0
  -22.1629   -9.8058   19.1387 N   0  0  0  0  0  0  0  0  0  0  0  0
  -24.2838  -30.9899   23.9703 N   0  0  0  0  0  0  0  0  0  0  0  0
  -21.3874  -29.7850   17.9188 N   0  0  0  0  0  0  0  0  0  0  0  0
  -30.1615  -16.5946   19.9440 N   0  0  0  0  0  0  0  0  0  0  0  0
  -22.9877  -29.9707   14.6827 N   0  3  0  0  0  0  0  0  0  0  0  0
  -22.5689  -10.9007   17.1651 O   0  0  0  0  0  0  0  0  0  0  0  0
  -23.1348  -29.1992   23.0240 O   0  0  0  0  0  0  0  0  0  0  0  0
  -21.6617  -31.3493   20.3034 O   0  0  0  0  0  0  0  0  0  0  0  0
  -22.7859  -28.2443   16.8952 O   0  0  0  0  0  0  0  0  0  0  0  0
  -27.9910  -16.4898   20.6740 O   0  0  0  0  0  0  0  0  0  0  0  0
  -22.7201   -7.8643   24.3305 O   0  0  0  0  0  0  0  0  0  0  0  0
  -28.8888  -20.4786   21.3116 O   0  0  0  0  0  0  0  0  0  0  0  0
  -28.2089  -25.9648   20.3226 O   0  0  0  0  0  0  0  0  0  1  0  0
  -33.5450  -18.5259   22.0574 O   0  0  0  0  0  0  0  0  0  0  0  0
  -20.7189   -2.8737   23.1087 F   0  0  0  0  0  0  0  0  0  0  0  0
  -23.8028   -5.5861   25.4619 F   0  0  0  0  0  0  0  0  0  0  0  0
  1  2  1  0  0  0  0
  1  5  2  0  0  0  0
  2  6  2  0  0  0  0
  3  8  2  0  0  0  0
  3 17  1  0  0  0  0
  4  9  1  0  0  0  0
  4 17  2  0  0  0  0
  5 19  1  0  0  0  0
  6 21  1  0  0  0  0
  7 10  2  0  0  0  0
  7 20  1  0  0  0  0
  8 26  1  0  0  0  0
  9 26  2  0  0  0  0
 10 27  1  0  0  0  0
 11 12  2  0  0  0  0
 11 28  1  0  0  0  0
 12 30  1  0  0  0  0
 13 22  1  0  0  0  0
 13 27  2  0  0  0  0
 14 24  1  0  0  0  0
 14 25  2  0  0  0  0
 15 24  2  0  0  0  0
 15 29  1  0  0  0  0
 16 30  2  0  0  0  0
 16 31  1  0  0  0  0
 17 32  1  0  0  0  0
 18 32  1  0  0  0  0
 18 33  2  0  0  0  0
 18 34  1  0  0  0  0
 19 21  2  0  0  0  0
 19 39  1  0  0  0  0
 20 22  2  0  0  0  0
 20 40  1  0  0  0  0
 21 51  1  0  0  0  0
 22 41  1  0  0  0  0
 23 25  1  0  0  0  0
 23 29  2  0  0  0  0
 23 50  1  0  0  0  0
 24 64  1  0  0  0  0
 25 56  1  0  0  0  0
 26 84  1  0  0  0  0
 27 86  1  0  0  0  0
 28 31  2  0  0  0  0
 28 84  1  0  0  0  0
 29 85  1  0  0  0  0
 30 88  1  0  0  0  0
 31 89  1  0  0  0  0
 32 69  2  0  0  0  0
 33 70  1  0  0  0  0
 33 73  1  0  0  0  0
 34 74  1  0  0  0  0
 34 79  2  0  0  0  0
 35 52  1  0  0  0  0
 35 75  1  0  0  0  0
 35 80  2  0  0  0  0
 36 66  1  0  0  0  0
 36 71  1  0  0  0  0
 36 81  2  0  0  0  0
 37 67  1  0  0  0  0
 37 76  1  0  0  0  0
 37 82  2  0  0  0  0
 38 72  1  0  0  0  0
 38 77  1  0  0  0  0
 38 83  2  0  0  0  0
 39 42  1  0  0  0  0
 40 52  1  0  0  0  0
 41 71  1  0  0  0  0
 42 44  1  0  0  0  0
 43 45  1  0  0  0  0
 43 48  1  0  0  0  0
 44 51  1  0  0  0  0
 45 54  1  0  0  0  0
 46 50  1  0  0  0  0
 46 53  1  0  0  0  0
 47 50  1  0  0  0  0
 47 55  1  0  0  0  0
 48 72  1  0  0  0  0
 49 54  1  0  0  0  0
 49 72  1  0  0  0  0
 51 75  1  0  0  0  0
 52 71  1  0  0  0  0
 53 55  1  0  0  0  0
 53 65  1  0  0  0  0
 54 70  1  0  0  0  0
 55 77  1  0  0  0  0
 57 67  1  0  0  0  0
 58 68  1  0  0  0  0
 59 68  1  0  0  0  0
 60 68  1  0  0  0  0
 61 78  1  0  0  0  0
 62 85  1  0  0  0  0
 63 87  1  0  0  0  0
 64 86  1  0  0  0  0
 65 87  1  0  0  0  0
 66 68  1  0  0  0  0
 66 76  1  0  0  0  0
 67 78  1  0  0  0  0
 69 70  1  0  0  0  0
M  CHG  1  78   1
M  ISO  4  38 100  64 101  77 100  86 101
M  END
> <Batch ID>
0159

> <Smiles>
CNC(C)C(=O)NC(C(=O)N1Cc2cc([101O:1][101CH2:1]c3cc(C)c(C4CC(COC)C([100NH:0][100C:0](=O)N5CCCC(n6nc(-c7ccc(Oc8ccc(F)cc8F)cc7)c(C(N)=O)c6N)C5)C4)c(OC)c3)ccc2CC1C(=O)NC1CCCc2ccccc21)C(C)(C)C

> <Shape>
0.309

> <Color>
0.098

> <Negative vol penalty>
0.000

$$$$

  -OEChem-04052322073D

 86 95  0     1  0  0  0  0  0999 V2000
  -16.1551  -27.5458   25.9504 C   0  0  0  0  0  0  0  0  0  0  0  0
  -17.2143  -26.6727   25.7244 C   0  0  0  0  0  0  0  0  0  0  0  0
  -22.9080  -17.1242   19.4459 C   0  0  0  0  0  0  0  0  0  0  0  0
  -22.1641  -14.8419   19.7196 C   0  0  0  0  0  0  0  0  0  0  0  0
  -16.0988  -28.7622   25.2713 C   0  0  0  0  0  0  0  0  0  0  0  0
  -18.2174  -27.0150   24.8183 C   0  0  0  0  0  0  0  0  0  0  0  0
  -24.1707  -25.6363   25.2223 C   0  0  0  0  0  0  0  0  0  0  0  0
  -21.8272  -17.3751   18.6007 C   0  0  0  0  0  0  0  0  0  0  0  0
  -21.0832  -15.0928   18.8744 C   0  0  0  0  0  0  0  0  0  0  0  0
  -24.9425  -24.6318   24.6400 C   0  0  0  0  0  0  0  0  0  0  0  0
  -18.0540  -16.5767   19.0809 C   0  0  0  0  0  0  0  0  0  0  0  0
  -16.8014  -16.1081   19.4767 C   0  0  0  0  0  0  0  0  0  0  0  0
  -25.6011  -26.1591   22.8928 C   0  0  0  0  0  0  0  0  0  0  0  0
  -27.5225  -21.7927   21.7195 C   0  0  0  0  0  0  0  0  0  0  0  0
  -16.6720  -14.7626   17.4741 C   0  0  0  0  0  0  0  0  0  0  0  0
  -23.0765  -15.8575   20.0053 C   0  0  0  0  0  0  0  0  0  0  0  0
  -24.2329  -15.7521   22.2767 C   0  0  0  0  0  0  0  0  0  0  0  0
  -17.1067  -29.1238   24.3636 C   0  0  0  0  0  0  0  0  0  0  0  0
  -24.0995  -26.9087   24.6372 C   0  0  0  0  0  0  0  0  0  0  0  0
  -18.1738  -28.2368   24.1254 C   0  0  0  0  0  0  0  0  0  0  0  0
  -24.8298  -27.1788   23.4710 C   0  0  0  0  0  0  0  0  0  0  0  0
  -29.1972  -20.7788   20.3039 C   0  0  0  0  0  0  0  0  0  0  0  0
  -28.1956  -20.6579   21.2672 C   0  0  0  0  0  0  0  0  0  0  0  0
  -27.8507  -23.0485   21.2085 C   0  0  0  0  0  0  0  0  0  0  0  0
  -29.5256  -22.0345   19.7929 C   0  0  0  0  0  0  0  0  0  0  0  0
  -28.8523  -23.1693   20.2452 C   0  0  0  0  0  0  0  0  0  0  0  0
  -20.9147  -16.3595   18.3149 C   0  0  0  0  0  0  0  0  0  0  0  0
  -25.6556  -24.8923   23.4735 C   0  0  0  0  0  0  0  0  0  0  0  0
  -18.6157  -16.1384   17.8816 C   0  0  0  0  0  0  0  0  0  0  0  0
  -16.1103  -15.2010   18.6733 C   0  0  0  0  0  0  0  0  0  0  0  0
  -17.9247  -15.2314   17.0783 C   0  0  0  0  0  0  0  0  0  0  0  0
  -24.1931  -15.5975   20.8780 C   0  0  0  0  0  0  0  0  0  0  0  0
  -25.5071  -15.3780   22.6274 C   0  0  0  0  0  0  0  0  0  0  0  0
  -23.2096  -16.1942   23.1783 C   0  0  0  0  0  0  0  0  0  0  0  0
  -21.7694  -28.6813   23.3993 C   0  0  0  0  0  0  0  0  0  0  0  0
  -24.1045  -30.9253   23.2142 C   0  0  0  0  0  0  0  0  0  0  0  0
  -27.4395  -31.6288   23.0415 C   0  0  0  0  0  0  0  0  0  0  0  0
  -30.6775  -15.3042   19.8673 C   0  0  0  0  0  0  0  0  0  0  0  0
  -16.9781  -30.4285   23.6179 C   0  0  0  0  0  0  0  0  0  0  0  0
  -23.2837  -27.9892   25.2925 C   0  0  0  0  0  0  0  0  0  0  0  0
  -24.8031  -28.5341   22.8147 C   0  0  0  0  0  0  0  0  0  0  0  0
  -18.2759  -30.8809   22.9537 C   0  0  0  0  0  0  0  0  0  0  0  0
  -29.1061  -12.5520   21.2486 C   0  0  0  0  0  0  0  0  0  0  0  0
  -18.9266  -29.7204   22.2076 C   0  0  0  0  0  0  0  0  0  0  0  0
  -27.6662  -13.0228   21.4537 C   0  0  0  0  0  0  0  0  0  0  0  0
  -30.7033  -18.8447   20.9440 C   0  0  0  0  0  0  0  0  0  0  0  0
  -28.9791  -18.5521   19.1158 C   0  0  0  0  0  0  0  0  0  0  0  0
  -29.6585  -13.0470   19.9166 C   0  0  0  0  0  0  0  0  0  0  0  0
  -31.4129  -17.5886   20.4440 C   0  0  0  0  0  0  0  0  0  0  0  0
  -29.7280  -17.3046   18.6562 C   0  0  0  0  0  0  0  0  0  0  0  0
  -28.1613  -15.0146   19.9531 C   0  0  0  0  0  0  0  0  0  0  0  0
  -29.9278  -19.5428   19.8135 C   0  0  0  0  0  0  0  0  0  0  0  0
  -19.2939  -28.5834   23.1686 C   0  0  1  0  0  0  0  0  0  0  0  0
  -22.8753  -29.0979   24.3274 C   0  0  1  0  0  0  0  0  0  0  0  0
  -27.5564  -14.5493   21.2927 C   0  0  1  0  0  0  0  0  0  0  0  0
  -27.8252  -19.3252   21.8310 C   0  0  0  0  0  0  0  0  0  0  0  0
  -30.5996  -22.1641   18.7592 C   0  0  0  0  0  0  0  0  0  0  0  0
  -29.2029  -24.5174   19.6995 C   0  0  0  0  0  0  0  0  0  0  0  0
  -29.0400  -33.5531   22.8611 C   0  0  0  0  0  0  0  0  0  0  0  0
  -23.4161  -31.2174   20.2560 C   0  0  0  0  0  0  0  0  0  0  0  0
  -25.6017  -32.3956   19.9353 C   0  0  0  0  0  0  0  0  0  0  0  0
  -23.8686  -33.3735   21.4396 C   0  0  0  0  0  0  0  0  0  0  0  0
  -28.7186  -30.9578   25.6246 C   0  0  0  0  0  0  0  0  0  0  0  0
  -27.1140  -24.2476   21.7090 C   0  0  0  0  0  0  0  0  0  1  0  0
  -25.1341  -31.3140   22.1809 C   0  0  1  0  0  0  0  0  0  0  0  0
  -28.3012  -32.6178   23.8055 C   0  0  2  0  0  0  0  0  0  0  0  0
  -24.5043  -32.0489   20.9640 C   0  0  0  0  0  0  0  0  0  0  0  0
  -25.3502  -15.1595   20.3745 N   0  0  0  0  0  0  0  0  0  0  0  0
  -26.1289  -15.0357   21.4628 N   0  0  0  0  0  0  0  0  0  0  0  0
  -23.9858  -29.5557   23.4899 N   0  0  0  0  0  0  0  0  0  0  0  0
  -29.5300  -14.4995   19.7999 N   0  0  0  0  0  0  0  0  0  0  0  0
  -30.4865  -16.6912   19.7549 N   0  0  0  0  0  0  0  0  0  0  0  0
  -26.1450  -15.3117   23.8153 N   0  0  0  0  0  0  0  0  0  0  0  0
  -21.9579  -16.5397   22.6508 N   0  0  0  0  0  0  0  0  0  0  0  0
  -20.5009  -28.9083   23.8981 N   0  0  0  0  0  0  0  0  0  0  0  0
  -26.1488  -32.0887   22.8870 N   0  0  0  0  0  0  0  0  0  0  0  0
  -29.3074  -31.8957   24.6344 N   0  3  0  0  0  0  0  0  0  0  0  0
  -23.4046  -16.2960   24.4133 O   0  0  0  0  0  0  0  0  0  0  0  0
  -22.0465  -28.1915   22.3107 O   0  0  0  0  0  0  0  0  0  0  0  0
  -23.4353  -31.8050   23.7619 O   0  0  0  0  0  0  0  0  0  0  0  0
  -27.8693  -30.5572   22.6203 O   0  0  0  0  0  0  0  0  0  0  0  0
  -31.8039  -14.8166   20.0237 O   0  0  0  0  0  0  0  0  0  0  0  0
  -19.8598  -16.6041   17.4904 O   0  0  0  0  0  0  0  0  0  0  0  0
  -26.4146  -23.9064   22.8986 O   0  0  0  0  0  0  0  0  0  1  0  0
  -14.9081  -14.7498   19.0543 F   0  0  0  0  0  0  0  0  0  0  0  0
  -18.4597  -14.8058   15.9257 F   0  0  0  0  0  0  0  0  0  0  0  0
  1  2  1  0  0  0  0
  1  5  2  0  0  0  0
  2  6  2  0  0  0  0
  3  8  2  0  0  0  0
  3 16  1  0  0  0  0
  4  9  1  0  0  0  0
  4 16  2  0  0  0  0
  5 18  1  0  0  0  0
  6 20  1  0  0  0  0
  7 10  2  0  0  0  0
  7 19  1  0  0  0  0
  8 27  1  0  0  0  0
  9 27  2  0  0  0  0
 10 28  1  0  0  0  0
 11 12  2  0  0  0  0
 11 29  1  0  0  0  0
 12 30  1  0  0  0  0
 13 21  1  0  0  0  0
 13 28  2  0  0  0  0
 14 23  2  0  0  0  0
 14 24  1  0  0  0  0
 15 30  2  0  0  0  0
 15 31  1  0  0  0  0
 16 32  1  0  0  0  0
 17 32  1  0  0  0  0
 17 33  2  0  0  0  0
 17 34  1  0  0  0  0
 18 20  2  0  0  0  0
 18 39  1  0  0  0  0
 19 21  2  0  0  0  0
 19 40  1  0  0  0  0
 20 53  1  0  0  0  0
 21 41  1  0  0  0  0
 22 23  1  0  0  0  0
 22 25  2  0  0  0  0
 22 52  1  0  0  0  0
 23 56  1  0  0  0  0
 24 26  2  0  0  0  0
 24 64  1  0  0  0  0
 25 26  1  0  0  0  0
 25 57  1  0  0  0  0
 26 58  1  0  0  0  0
 27 83  1  0  0  0  0
 28 84  1  0  0  0  0
 29 31  2  0  0  0  0
 29 83  1  0  0  0  0
 30 85  1  0  0  0  0
 31 86  1  0  0  0  0
 32 68  2  0  0  0  0
 33 69  1  0  0  0  0
 33 73  1  0  0  0  0
 34 74  1  0  0  0  0
 34 78  2  0  0  0  0
 35 54  1  0  0  0  0
 35 75  1  0  0  0  0
 35 79  2  0  0  0  0
 36 65  1  0  0  0  0
 36 70  1  0  0  0  0
 36 80  2  0  0  0  0
 37 66  1  0  0  0  0
 37 76  1  0  0  0  0
 37 81  2  0  0  0  0
 38 71  1  0  0  0  0
 38 72  1  0  0  0  0
 38 82  2  0  0  0  0
 39 42  1  0  0  0  0
 40 54  1  0  0  0  0
 41 70  1  0  0  0  0
 42 44  1  0  0  0  0
 43 45  1  0  0  0  0
 43 48  1  0  0  0  0
 44 53  1  0  0  0  0
 45 55  1  0  0  0  0
 46 49  1  0  0  0  0
 46 52  1  0  0  0  0
 47 50  1  0  0  0  0
 47 52  1  0  0  0  0
 48 71  1  0  0  0  0
 49 72  1  0  0  0  0
 50 72  1  0  0  0  0
 51 55  1  0  0  0  0
 51 71  1  0  0  0  0
 53 75  1  0  0  0  0
 54 70  1  0  0  0  0
 55 69  1  0  0  0  0
 59 66  1  0  0  0  0
 60 67  1  0  0  0  0
 61 67  1  0  0  0  0
 62 67  1  0  0  0  0
 63 77  1  0  0  0  0
 64 84  1  0  0  0  0
 65 67  1  0  0  0  0
 65 76  1  0  0  0  0
 66 77  1  0  0  0  0
 68 69  1  0  0  0  0
M  CHG  1  77   1
M  ISO  4  38 100  64 101  72 100  84 101
M  END
> <Batch ID>
0159

> <Smiles>
CNC(C)C(=O)NC(C(=O)N1Cc2cc([101O:1][101CH2:1]c3cc(C)c(C4CC[100N:0]([100C:0](=O)N5CCCC(n6nc(-c7ccc(Oc8ccc(F)cc8F)cc7)c(C(N)=O)c6N)C5)CC4)c(C)c3C)ccc2CC1C(=O)NC1CCCc2ccccc21)C(C)(C)C

> <Shape>
0.220

> <Color>
0.079

> <Negative vol penalty>
0.000

$$$$

  -OEChem-04052322073D

 89 98  0     1  0  0  0  0  0999 V2000
  -32.2155  -14.0862   21.4797 C   0  0  0  0  0  0  0  0  0  0  0  0
  -31.2859  -14.9466   22.0529 C   0  0  0  0  0  0  0  0  0  0  0  0
  -28.6803  -25.2427   18.0625 C   0  0  0  0  0  0  0  0  0  0  0  0
  -26.9028  -24.2527   19.3654 C   0  0  0  0  0  0  0  0  0  0  0  0
  -31.8110  -13.1815   20.5003 C   0  0  0  0  0  0  0  0  0  0  0  0
  -29.9494  -14.8945   21.6555 C   0  0  0  0  0  0  0  0  0  0  0  0
  -25.2050  -18.3704   23.2481 C   0  0  0  0  0  0  0  0  0  0  0  0
  -29.4587  -24.1019   18.2576 C   0  0  0  0  0  0  0  0  0  0  0  0
  -27.6813  -23.1118   19.5605 C   0  0  0  0  0  0  0  0  0  0  0  0
  -24.5772  -19.5276   22.7893 C   0  0  0  0  0  0  0  0  0  0  0  0
  -28.5379  -20.3531   17.8065 C   0  0  0  0  0  0  0  0  0  0  0  0
  -27.9206  -19.1132   17.6416 C   0  0  0  0  0  0  0  0  0  0  0  0
  -22.9616  -18.1771   21.6123 C   0  0  0  0  0  0  0  0  0  0  0  0
  -17.7338  -27.7024   23.1841 C   0  0  0  0  0  0  0  0  0  0  0  0
  -28.4407  -18.5496   19.9327 C   0  0  0  0  0  0  0  0  0  0  0  0
  -27.4023  -25.3182   18.6165 C   0  0  0  0  0  0  0  0  0  0  0  0
  -26.1630  -27.0300   17.1877 C   0  0  0  0  0  0  0  0  0  0  0  0
  -30.4711  -13.1276   20.0824 C   0  0  0  0  0  0  0  0  0  0  0  0
  -24.7216  -17.1058   22.8829 C   0  0  0  0  0  0  0  0  0  0  0  0
  -29.5169  -13.9720   20.6857 C   0  0  0  0  0  0  0  0  0  0  0  0
  -23.5836  -17.0054   22.0699 C   0  0  0  0  0  0  0  0  0  0  0  0
  -19.9553  -26.9535   22.6000 C   0  0  0  0  0  0  0  0  0  0  0  0
  -18.6376  -26.6649   22.9551 C   0  0  0  0  0  0  0  0  0  0  0  0
  -18.1476  -29.0285   23.0578 C   0  0  0  0  0  0  0  0  0  0  0  0
  -19.4653  -29.3171   22.7028 C   0  0  0  0  0  0  0  0  0  0  0  0
  -20.3692  -28.2797   22.4738 C   0  0  0  0  0  0  0  0  0  0  0  0
  -28.9593  -23.0364   19.0065 C   0  0  0  0  0  0  0  0  0  0  0  0
  -23.4570  -19.4311   21.9689 C   0  0  0  0  0  0  0  0  0  0  0  0
  -29.1067  -20.6912   19.0345 C   0  0  0  0  0  0  0  0  0  0  0  0
  -27.8720  -18.2115   18.7047 C   0  0  0  0  0  0  0  0  0  0  0  0
  -29.0580  -19.7895   20.0976 C   0  0  0  0  0  0  0  0  0  0  0  0
  -26.5979  -26.4966   18.4158 C   0  0  0  0  0  0  0  0  0  0  0  0
  -25.4366  -28.1428   17.5347 C   0  0  0  0  0  0  0  0  0  0  0  0
  -26.3947  -26.5613   15.8527 C   0  0  0  0  0  0  0  0  0  0  0  0
  -25.8996  -14.6346   21.2676 C   0  0  0  0  0  0  0  0  0  0  0  0
  -23.1389  -13.2089   22.1994 C   0  0  0  0  0  0  0  0  0  0  0  0
  -19.6626  -14.1326   22.4805 C   0  0  0  0  0  0  0  0  0  0  0  0
  -22.4539  -29.6939   22.4747 C   0  0  0  0  0  0  0  0  0  0  0  0
  -30.0864  -12.1239   19.0242 C   0  0  0  0  0  0  0  0  0  0  0  0
  -25.3942  -15.8671   23.4080 C   0  0  0  0  0  0  0  0  0  0  0  0
  -23.0129  -15.6715   21.6656 C   0  0  0  0  0  0  0  0  0  0  0  0
  -28.7535  -12.4454   18.3563 C   0  0  0  0  0  0  0  0  0  0  0  0
  -25.1164  -31.4933   20.9415 C   0  0  0  0  0  0  0  0  0  0  0  0
  -27.6951  -12.7205   19.4140 C   0  0  0  0  0  0  0  0  0  0  0  0
  -25.7551  -30.4665   20.0035 C   0  0  0  0  0  0  0  0  0  0  0  0
  -21.4333  -25.8025   20.8949 C   0  0  0  0  0  0  0  0  0  0  0  0
  -22.1064  -25.8245   23.3415 C   0  0  0  0  0  0  0  0  0  0  0  0
  -24.6401  -30.8526   22.2439 C   0  0  0  0  0  0  0  0  0  0  0  0
  -24.3963  -28.6638   21.1399 C   0  0  0  0  0  0  0  0  0  0  0  0
  -22.8931  -25.3852   20.7613 C   0  0  0  0  0  0  0  0  0  0  0  0
  -20.9325  -25.8193   22.3517 C   0  0  1  0  0  0  0  0  0  0  0  0
  -28.0637  -13.9544   20.2474 C   0  0  1  0  0  0  0  0  0  0  0  0
  -25.1232  -14.6324   22.5540 C   0  0  1  0  0  0  0  0  0  0  0  0
  -24.8331  -29.2504   19.7875 C   0  0  2  0  0  0  0  0  0  0  0  0
  -22.9877  -24.5785   23.1758 C   0  0  2  0  0  0  0  0  0  0  0  0
  -18.1688  -25.2539   23.0982 C   0  0  0  0  0  0  0  0  0  0  0  0
  -17.1594  -30.1204   23.3077 C   0  0  0  0  0  0  0  0  0  0  0  0
  -19.9024  -30.7427   22.5705 C   0  0  0  0  0  0  0  0  0  0  0  0
  -24.3346  -24.7466   23.8716 C   0  0  0  0  0  0  0  0  0  0  0  0
  -17.8576  -13.2542   23.9865 C   0  0  0  0  0  0  0  0  0  0  0  0
  -22.4865  -11.3625   19.8595 C   0  0  0  0  0  0  0  0  0  0  0  0
  -20.0582  -11.6625   20.3904 C   0  0  0  0  0  0  0  0  0  0  0  0
  -21.5788  -10.6115   22.0656 C   0  0  0  0  0  0  0  0  0  0  0  0
  -19.0551  -16.8355   23.5217 C   0  0  0  0  0  0  0  0  0  0  0  0
  -22.6252  -22.9423   21.2840 C   0  0  0  0  0  0  0  0  0  0  0  0
  -23.3991  -21.8082   21.9268 C   0  0  0  0  0  0  0  0  0  1  0  0
  -21.7475  -13.0954   21.6250 C   0  0  1  0  0  0  0  0  0  0  0  0
  -18.8824  -14.3555   23.7635 C   0  0  2  0  0  0  0  0  0  0  0  0
  -21.4843  -11.7055   20.9797 C   0  0  0  0  0  0  0  0  0  0  0  0
  -26.1827  -27.2119   19.4646 N   0  0  0  0  0  0  0  0  0  0  0  0
  -25.4793  -28.2061   18.8965 N   0  0  0  0  0  0  0  0  0  0  0  0
  -23.7097  -14.4895   22.1994 N   0  0  0  0  0  0  0  0  0  0  0  0
  -23.7680  -29.7106   21.9610 N   0  0  0  0  0  0  0  0  0  0  0  0
  -24.7720  -29.0637   16.8048 N   0  0  0  0  0  0  0  0  0  0  0  0
  -27.1625  -25.4023   15.6753 N   0  0  0  0  0  0  0  0  0  0  0  0
  -21.7077  -28.5728   22.1130 N   0  0  0  0  0  0  0  0  0  0  0  0
  -27.1519  -14.0586   21.3652 N   0  0  0  0  0  0  0  0  0  0  0  0
  -20.8301  -13.4350   22.7074 N   0  0  0  0  0  0  0  0  0  0  0  0
  -23.2309  -24.2580   21.7024 N   0  3  1  0  0  0  0  0  0  0  0  0
  -18.1657  -15.6612   23.7136 N   0  3  0  0  0  0  0  0  0  0  0  0
  -25.9483  -27.1620   14.8460 O   0  0  0  0  0  0  0  0  0  0  0  0
  -25.3989  -15.1215   20.2606 O   0  0  0  0  0  0  0  0  0  0  0  0
  -23.6960  -12.1997   22.6387 O   0  0  0  0  0  0  0  0  0  0  0  0
  -19.2733  -14.5337   21.3859 O   0  0  0  0  0  0  0  0  0  0  0  0
  -22.0135  -30.6199   23.1606 O   0  0  0  0  0  0  0  0  0  0  0  0
  -29.7185  -21.9229   19.1969 O   0  0  0  0  0  0  0  0  0  0  0  0
  -22.8427  -20.5590   21.5191 O   0  0  0  0  0  0  0  0  0  1  0  0
  -27.2778  -17.0215   18.5466 F   0  0  0  0  0  0  0  0  0  0  0  0
  -29.6016  -20.1092   21.2800 F   0  0  0  0  0  0  0  0  0  0  0  0
  1  2  1  0  0  0  0
  1  5  2  0  0  0  0
  2  6  2  0  0  0  0
  3  8  2  0  0  0  0
  3 16  1  0  0  0  0
  4  9  1  0  0  0  0
  4 16  2  0  0  0  0
  5 18  1  0  0  0  0
  6 20  1  0  0  0  0
  7 10  2  0  0  0  0
  7 19  1  0  0  0  0
  8 27  1  0  0  0  0
  9 27  2  0  0  0  0
 10 28  1  0  0  0  0
 11 12  2  0  0  0  0
 11 29  1  0  0  0  0
 12 30  1  0  0  0  0
 13 21  1  0  0  0  0
 13 28  2  0  0  0  0
 14 23  2  0  0  0  0
 14 24  1  0  0  0  0
 15 30  2  0  0  0  0
 15 31  1  0  0  0  0
 16 32  1  0  0  0  0
 17 32  1  0  0  0  0
 17 33  2  0  0  0  0
 17 34  1  0  0  0  0
 18 20  2  0  0  0  0
 18 39  1  0  0  0  0
 19 21  2  0  0  0  0
 19 40  1  0  0  0  0
 20 52  1  0  0  0  0
 21 41  1  0  0  0  0
 22 23  1  0  0  0  0
 22 26  2  0  0  0  0
 22 51  1  0  0  0  0
 23 56  1  0  0  0  0
 24 25  2  0  0  0  0
 24 57  1  0  0  0  0
 25 26  1  0  0  0  0
 25 58  1  0  0  0  0
 26 76  1  0  0  0  0
 27 86  1  0  0  0  0
 28 87  1  0  0  0  0
 29 31  2  0  0  0  0
 29 86  1  0  0  0  0
 30 88  1  0  0  0  0
 31 89  1  0  0  0  0
 32 70  2  0  0  0  0
 33 71  1  0  0  0  0
 33 74  1  0  0  0  0
 34 75  1  0  0  0  0
 34 81  2  0  0  0  0
 35 53  1  0  0  0  0
 35 77  1  0  0  0  0
 35 82  2  0  0  0  0
 36 67  1  0  0  0  0
 36 72  1  0  0  0  0
 36 83  2  0  0  0  0
 37 68  1  0  0  0  0
 37 78  1  0  0  0  0
 37 84  2  0  0  0  0
 38 73  1  0  0  0  0
 38 76  1  0  0  0  0
 38 85  2  0  0  0  0
 39 42  1  0  0  0  0
 40 53  1  0  0  0  0
 41 72  1  0  0  0  0
 42 44  1  0  0  0  0
 43 45  1  0  0  0  0
 43 48  1  0  0  0  0
 44 52  1  0  0  0  0
 45 54  1  0  0  0  0
 46 50  1  0  0  0  0
 46 51  1  0  0  0  0
 47 51  1  0  0  0  0
 47 55  1  0  0  0  0
 48 73  1  0  0  0  0
 49 54  1  0  0  0  0
 49 73  1  0  0  0  0
 50 79  1  0  0  0  0
 52 77  1  0  0  0  0
 53 72  1  0  0  0  0
 54 71  1  0  0  0  0
 55 59  1  0  0  0  0
 55 79  1  0  0  0  0
 60 68  1  0  0  0  0
 61 69  1  0  0  0  0
 62 69  1  0  0  0  0
 63 69  1  0  0  0  0
 64 80  1  0  0  0  0
 65 66  1  0  0  0  0
 65 79  1  0  0  0  0
 66 87  1  0  0  0  0
 67 69  1  0  0  0  0
 67 78  1  0  0  0  0
 68 80  1  0  0  0  0
 70 71  1  0  0  0  0
M  CHG  2  79   1  80   1
M  ISO  4  38 100  66 101  76 100  87 101
M  END
> <Batch ID>
0159

> <Smiles>
CNC(C)C(=O)NC(C(=O)N1Cc2cc([101O:1][101CH2:1]CN3CCC(c4c(C)cc(C)c(C)c4[100NH:0][100C:0](=O)N4CCCC(n5nc(-c6ccc(Oc7ccc(F)cc7F)cc6)c(C(N)=O)c5N)C4)CC3C)ccc2CC1C(=O)NC1CCCc2ccccc21)C(C)(C)C

> <Shape>
0.279

> <Color>
0.085

> <Negative vol penalty>
0.000

$$$$

  -OEChem-04052322073D

 84 93  0     1  0  0  0  0  0999 V2000
  -26.3440  -33.7900   26.5747 C   0  0  0  0  0  0  0  0  0  0  0  0
  -26.2023  -32.4716   26.9954 C   0  0  0  0  0  0  0  0  0  0  0  0
  -25.9057  -13.0450   21.3620 C   0  0  0  0  0  0  0  0  0  0  0  0
  -25.8740  -13.8370   19.0797 C   0  0  0  0  0  0  0  0  0  0  0  0
  -25.8936  -34.1694   25.3109 C   0  0  0  0  0  0  0  0  0  0  0  0
  -25.6091  -31.5320   26.1530 C   0  0  0  0  0  0  0  0  0  0  0  0
  -27.0412  -25.5972   25.6701 C   0  0  0  0  0  0  0  0  0  0  0  0
  -24.5507  -13.3512   21.4871 C   0  0  0  0  0  0  0  0  0  0  0  0
  -24.5189  -14.1432   19.2048 C   0  0  0  0  0  0  0  0  0  0  0  0
  -26.4720  -24.4475   26.2160 C   0  0  0  0  0  0  0  0  0  0  0  0
  -21.5940  -11.9846   20.5796 C   0  0  0  0  0  0  0  0  0  0  0  0
  -20.7686  -11.0372   21.1852 C   0  0  0  0  0  0  0  0  0  0  0  0
  -25.2051  -24.1197   24.1895 C   0  0  0  0  0  0  0  0  0  0  0  0
  -20.1863  -12.6391   22.8975 C   0  0  0  0  0  0  0  0  0  0  0  0
  -26.5674  -13.2880   20.1583 C   0  0  0  0  0  0  0  0  0  0  0  0
  -28.5280  -11.7550   19.5981 C   0  0  0  0  0  0  0  0  0  0  0  0
  -25.3033  -33.2319   24.4488 C   0  0  0  0  0  0  0  0  0  0  0  0
  -26.6877  -26.0235   24.3818 C   0  0  0  0  0  0  0  0  0  0  0  0
  -25.1492  -31.8995   24.8770 C   0  0  0  0  0  0  0  0  0  0  0  0
  -25.7731  -25.2738   23.6286 C   0  0  0  0  0  0  0  0  0  0  0  0
  -23.8572  -13.9002   20.4085 C   0  0  0  0  0  0  0  0  0  0  0  0
  -25.5516  -23.7102   25.4768 C   0  0  0  0  0  0  0  0  0  0  0  0
  -21.7156  -13.2592   21.1330 C   0  0  0  0  0  0  0  0  0  0  0  0
  -20.0647  -11.3645   22.3442 C   0  0  0  0  0  0  0  0  0  0  0  0
  -21.0117  -13.5865   22.2919 C   0  0  0  0  0  0  0  0  0  0  0  0
  -27.9673  -12.9724   20.0286 C   0  0  0  0  0  0  0  0  0  0  0  0
  -29.8845  -11.9640   19.6509 C   0  0  0  0  0  0  0  0  0  0  0  0
  -26.1156  -17.2336   22.2426 C   0  0  0  0  0  0  0  0  0  0  0  0
  -27.8806  -10.5435   19.1872 C   0  0  0  0  0  0  0  0  0  0  0  0
  -25.3072  -28.6217   23.1788 C   0  0  0  0  0  0  0  0  0  0  0  0
  -26.0288  -27.2181   20.3448 C   0  0  0  0  0  0  0  0  0  0  0  0
  -26.7074  -24.3519   18.6211 C   0  0  0  0  0  0  0  0  0  0  0  0
  -29.9430  -17.3544   20.8943 C   0  0  0  0  0  0  0  0  0  0  0  0
  -24.7889  -33.6996   23.1104 C   0  0  0  0  0  0  0  0  0  0  0  0
  -27.3308  -27.2511   23.7969 C   0  0  0  0  0  0  0  0  0  0  0  0
  -25.3754  -25.6777   22.2331 C   0  0  0  0  0  0  0  0  0  0  0  0
  -24.5111  -32.5605   22.1328 C   0  0  0  0  0  0  0  0  0  0  0  0
  -31.3479  -14.5472   22.8245 C   0  0  0  0  0  0  0  0  0  0  0  0
  -23.7310  -31.4448   22.8209 C   0  0  0  0  0  0  0  0  0  0  0  0
  -31.9387  -13.6689   21.7226 C   0  0  0  0  0  0  0  0  0  0  0  0
  -26.7341  -18.7664   24.0656 C   0  0  0  0  0  0  0  0  0  0  0  0
  -31.4453  -16.0194   22.4518 C   0  0  0  0  0  0  0  0  0  0  0  0
  -31.3221  -15.4932   20.0429 C   0  0  0  0  0  0  0  0  0  0  0  0
  -28.1574  -18.8860   21.8836 C   0  0  0  0  0  0  0  0  0  0  0  0
  -28.6341  -17.2411   23.1515 C   0  0  0  0  0  0  0  0  0  0  0  0
  -24.5333  -30.8458   23.9823 C   0  0  1  0  0  0  0  0  0  0  0  0
  -26.5107  -27.8776   22.6734 C   0  0  1  0  0  0  0  0  0  0  0  0
  -31.3617  -13.9773   20.3283 C   0  0  2  0  0  0  0  0  0  0  0  0
  -25.2550  -18.9198   23.6842 C   0  0  2  0  0  0  0  0  0  0  0  0
  -27.3329  -18.0224   22.8678 C   0  0  0  0  0  0  0  0  0  0  0  0
  -27.2186  -23.5171   16.3104 C   0  0  0  0  0  0  0  0  0  0  0  0
  -24.4566  -17.7146   25.7221 C   0  0  0  0  0  0  0  0  0  0  0  0
  -23.0904  -27.5307   19.5844 C   0  0  0  0  0  0  0  0  0  0  0  0
  -23.4621  -25.8731   17.7453 C   0  0  0  0  0  0  0  0  0  0  0  0
  -24.7043  -28.0364   17.7421 C   0  0  0  0  0  0  0  0  0  0  0  0
  -23.6202  -17.4297   22.4188 C   0  0  0  0  0  0  0  0  0  0  0  0
  -29.3467  -23.3059   19.4573 C   0  0  0  0  0  0  0  0  0  0  0  0
  -24.7136  -20.2102   25.8090 C   0  0  0  0  0  0  0  0  0  0  0  0
  -24.6210  -21.5547   25.0976 C   0  0  0  0  0  0  0  0  0  1  0  0
  -25.3273  -26.2518   19.4211 C   0  0  1  0  0  0  0  0  0  0  0  0
  -27.8015  -24.0102   17.6256 C   0  0  2  0  0  0  0  0  0  0  0  0
  -24.3610  -19.0109   24.9127 C   0  0  1  0  0  0  0  0  0  0  0  0
  -24.1518  -26.9162   18.6502 C   0  0  0  0  0  0  0  0  0  0  0  0
  -28.8920  -13.8870   20.3326 N   0  0  0  0  0  0  0  0  0  0  0  0
  -30.0475  -13.2440   20.0929 N   0  0  0  0  0  0  0  0  0  0  0  0
  -24.9712  -17.7807   22.8149 N   0  0  0  0  0  0  0  0  0  0  0  0
  -26.0269  -26.8888   21.7077 N   0  0  0  0  0  0  0  0  0  0  0  0
  -30.7991  -16.2803   21.1634 N   0  0  0  0  0  0  0  0  0  0  0  0
  -29.1531  -17.8196   21.9209 N   0  0  0  0  0  0  0  0  0  0  0  0
  -30.9418  -11.1760   19.3620 N   0  0  0  0  0  0  0  0  0  0  0  0
  -26.4797  -10.4997   19.1922 N   0  0  0  0  0  0  0  0  0  0  0  0
  -25.5519  -29.9473   23.4826 N   0  0  0  0  0  0  0  0  0  0  0  0
  -26.3611  -25.6852   18.5616 N   0  0  0  0  0  0  0  0  0  0  0  0
  -28.6879  -22.9458   18.1753 N   0  3  0  0  0  0  0  0  0  0  0  0
  -26.1509  -16.3326   21.4109 O   0  0  0  0  0  0  0  0  0  0  0  0
  -28.5254   -9.5245   18.8419 O   0  0  0  0  0  0  0  0  0  0  0  0
  -24.2354  -28.0369   23.2839 O   0  0  0  0  0  0  0  0  0  0  0  0
  -26.5650  -28.2241   19.8736 O   0  0  0  0  0  0  0  0  0  0  0  0
  -26.2073  -23.5185   19.3733 O   0  0  0  0  0  0  0  0  0  0  0  0
  -29.8556  -17.8541   19.7652 O   0  0  0  0  0  0  0  0  0  0  0  0
  -22.5349  -14.1989   20.5301 O   0  0  0  0  0  0  0  0  0  0  0  0
  -24.9903  -22.5802   26.0112 O   0  0  0  0  0  0  0  0  0  1  0  0
  -19.2709  -10.4551   22.9247 F   0  0  0  0  0  0  0  0  0  0  0  0
  -21.1236  -14.8098   22.8275 F   0  0  0  0  0  0  0  0  0  0  0  0
  1  2  1  0  0  0  0
  1  5  2  0  0  0  0
  2  6  2  0  0  0  0
  3  8  2  0  0  0  0
  3 15  1  0  0  0  0
  4  9  1  0  0  0  0
  4 15  2  0  0  0  0
  5 17  1  0  0  0  0
  6 19  1  0  0  0  0
  7 10  2  0  0  0  0
  7 18  1  0  0  0  0
  8 21  1  0  0  0  0
  9 21  2  0  0  0  0
 10 22  1  0  0  0  0
 11 12  2  0  0  0  0
 11 23  1  0  0  0  0
 12 24  1  0  0  0  0
 13 20  1  0  0  0  0
 13 22  2  0  0  0  0
 14 24  2  0  0  0  0
 14 25  1  0  0  0  0
 15 26  1  0  0  0  0
 16 26  1  0  0  0  0
 16 27  2  0  0  0  0
 16 29  1  0  0  0  0
 17 19  2  0  0  0  0
 17 34  1  0  0  0  0
 18 20  2  0  0  0  0
 18 35  1  0  0  0  0
 19 46  1  0  0  0  0
 20 36  1  0  0  0  0
 21 81  1  0  0  0  0
 22 82  1  0  0  0  0
 23 25  2  0  0  0  0
 23 81  1  0  0  0  0
 24 83  1  0  0  0  0
 25 84  1  0  0  0  0
 26 64  2  0  0  0  0
 27 65  1  0  0  0  0
 27 70  1  0  0  0  0
 28 50  1  0  0  0  0
 28 66  1  0  0  0  0
 28 75  2  0  0  0  0
 29 71  1  0  0  0  0
 29 76  2  0  0  0  0
 30 47  1  0  0  0  0
 30 72  1  0  0  0  0
 30 77  2  0  0  0  0
 31 60  1  0  0  0  0
 31 67  1  0  0  0  0
 31 78  2  0  0  0  0
 32 61  1  0  0  0  0
 32 73  1  0  0  0  0
 32 79  2  0  0  0  0
 33 68  1  0  0  0  0
 33 69  1  0  0  0  0
 33 80  2  0  0  0  0
 34 37  1  0  0  0  0
 35 47  1  0  0  0  0
 36 67  1  0  0  0  0
 37 39  1  0  0  0  0
 38 40  1  0  0  0  0
 38 42  1  0  0  0  0
 39 46  1  0  0  0  0
 40 48  1  0  0  0  0
 41 49  1  0  0  0  0
 41 50  1  0  0  0  0
 42 68  1  0  0  0  0
 43 48  1  0  0  0  0
 43 68  1  0  0  0  0
 44 50  1  0  0  0  0
 44 69  1  0  0  0  0
 45 50  1  0  0  0  0
 45 69  1  0  0  0  0
 46 72  1  0  0  0  0
 47 67  1  0  0  0  0
 48 65  1  0  0  0  0
 49 62  1  0  0  0  0
 49 66  1  0  0  0  0
 51 61  1  0  0  0  0
 52 62  1  0  0  0  0
 53 63  1  0  0  0  0
 54 63  1  0  0  0  0
 55 63  1  0  0  0  0
 56 66  1  0  0  0  0
 57 74  1  0  0  0  0
 58 59  1  0  0  0  0
 58 62  1  0  0  0  0
 59 82  1  0  0  0  0
 60 63  1  0  0  0  0
 60 73  1  0  0  0  0
 61 74  1  0  0  0  0
 64 65  1  0  0  0  0
M  CHG  1  74   1
M  ISO  4  33 100  59 101  69 100  82 101
M  END
> <Batch ID>
0159

> <Smiles>
CNC(C)C(=O)NC(C(=O)N1Cc2cc([101O:1][101CH2:1]CC(C)C3CC4(C[100N:0]([100C:0](=O)N5CCCC(n6nc(-c7ccc(Oc8ccc(F)cc8F)cc7)c(C(N)=O)c6N)C5)C4)C(=O)N3C)ccc2CC1C(=O)NC1CCCc2ccccc21)C(C)(C)C

> <Shape>
0.232

> <Color>
0.060

> <Negative vol penalty>
0.000

$$$$

  -OEChem-04052322073D

 90100  0     1  0  0  0  0  0999 V2000
  -25.6817  -37.8674   21.2884 C   0  0  0  0  0  0  0  0  0  0  0  0
  -26.3744  -36.7266   21.6811 C   0  0  0  0  0  0  0  0  0  0  0  0
  -24.7412   -8.8064   21.4209 C   0  0  0  0  0  0  0  0  0  0  0  0
  -23.1324   -9.9731   20.0471 C   0  0  0  0  0  0  0  0  0  0  0  0
  -24.2948  -37.9197   21.4214 C   0  0  0  0  0  0  0  0  0  0  0  0
  -25.6807  -35.6379   22.2083 C   0  0  0  0  0  0  0  0  0  0  0  0
  -27.2369  -31.2229   20.2766 C   0  0  0  0  0  0  0  0  0  0  0  0
  -23.7267   -7.9838   21.9104 C   0  0  0  0  0  0  0  0  0  0  0  0
  -22.1178   -9.1505   20.5366 C   0  0  0  0  0  0  0  0  0  0  0  0
  -28.4279  -30.6952   20.7732 C   0  0  0  0  0  0  0  0  0  0  0  0
  -21.9884   -5.2798   20.8617 C   0  0  0  0  0  0  0  0  0  0  0  0
  -22.2426   -3.9102   20.9340 C   0  0  0  0  0  0  0  0  0  0  0  0
  -28.2352  -22.8614   21.3094 C   0  0  0  0  0  0  0  0  0  0  0  0
  -27.1691  -29.2070   22.1944 C   0  0  0  0  0  0  0  0  0  0  0  0
  -29.1856  -20.3733   20.3596 C   0  0  0  0  0  0  0  0  0  0  0  0
  -21.8751   -3.9681   23.3213 C   0  0  0  0  0  0  0  0  0  0  0  0
  -24.4440   -9.8011   20.4893 C   0  0  0  0  0  0  0  0  0  0  0  0
  -26.2961  -10.4272   18.8505 C   0  0  0  0  0  0  0  0  0  0  0  0
  -23.5827  -36.8273   21.9415 C   0  0  0  0  0  0  0  0  0  0  0  0
  -26.0009  -30.7535   20.7440 C   0  0  0  0  0  0  0  0  0  0  0  0
  -24.2831  -35.6762   22.3497 C   0  0  0  0  0  0  0  0  0  0  0  0
  -27.4068  -21.7527   21.2578 C   0  0  0  0  0  0  0  0  0  0  0  0
  -29.5600  -22.7179   20.8926 C   0  0  0  0  0  0  0  0  0  0  0  0
  -25.9637  -29.7287   21.7003 C   0  0  0  0  0  0  0  0  0  0  0  0
  -27.8759  -20.5174   20.7903 C   0  0  0  0  0  0  0  0  0  0  0  0
  -22.4150   -8.1558   21.4683 C   0  0  0  0  0  0  0  0  0  0  0  0
  -28.3942  -29.6891   21.7343 C   0  0  0  0  0  0  0  0  0  0  0  0
  -21.6777   -5.9936   22.0192 C   0  0  0  0  0  0  0  0  0  0  0  0
  -30.0316  -21.4831   20.4207 C   0  0  0  0  0  0  0  0  0  0  0  0
  -22.1859   -3.2544   22.1638 C   0  0  0  0  0  0  0  0  0  0  0  0
  -21.6210   -5.3377   23.2489 C   0  0  0  0  0  0  0  0  0  0  0  0
  -25.4915  -10.6516   19.9837 C   0  0  0  0  0  0  0  0  0  0  0  0
  -27.1293  -11.5178   18.7995 C   0  0  0  0  0  0  0  0  0  0  0  0
  -26.2907   -9.3309   17.9265 C   0  0  0  0  0  0  0  0  0  0  0  0
  -23.5402  -32.0574   22.2766 C   0  0  0  0  0  0  0  0  0  0  0  0
  -22.1824  -29.1573   21.7585 C   0  0  0  0  0  0  0  0  0  0  0  0
  -22.6076  -25.8246   21.1593 C   0  0  0  0  0  0  0  0  0  0  0  0
  -26.5102  -17.0375   20.8010 C   0  0  0  0  0  0  0  0  0  0  0  0
  -22.0889  -36.9485   22.1102 C   0  0  0  0  0  0  0  0  0  0  0  0
  -24.7249  -31.3145   20.1788 C   0  0  0  0  0  0  0  0  0  0  0  0
  -25.9537  -21.6764   21.6088 C   0  0  0  0  0  0  0  0  0  0  0  0
  -24.6627  -29.1758   22.2201 C   0  0  0  0  0  0  0  0  0  0  0  0
  -21.3900  -35.6092   22.3296 C   0  0  0  0  0  0  0  0  0  0  0  0
  -25.7619  -20.1584   21.7495 C   0  0  0  0  0  0  0  0  0  0  0  0
  -29.2122  -14.7742   21.6218 C   0  0  0  0  0  0  0  0  0  0  0  0
  -22.1375  -34.7812   23.3699 C   0  0  0  0  0  0  0  0  0  0  0  0
  -28.6285  -13.4308   21.1804 C   0  0  0  0  0  0  0  0  0  0  0  0
  -29.9365  -25.0251   20.0427 C   0  0  0  0  0  0  0  0  0  0  0  0
  -30.6091  -24.3984   22.3967 C   0  0  0  0  0  0  0  0  0  0  0  0
  -28.1393  -15.6677   22.2371 C   0  0  0  0  0  0  0  0  0  0  0  0
  -26.3740  -14.5656   20.9171 C   0  0  0  0  0  0  0  0  0  0  0  0
  -30.7967  -26.2785   20.1409 C   0  0  0  0  0  0  0  0  0  0  0  0
  -31.4644  -25.6564   22.4768 C   0  0  0  0  0  0  0  0  0  0  0  0
  -30.4692  -23.9030   20.9483 C   0  0  0  0  0  0  0  0  0  0  0  0
  -23.5635  -34.4653   22.9029 C   0  0  1  0  0  0  0  0  0  0  0  0
  -26.7684  -19.5053   20.7850 C   0  0  2  0  0  0  0  0  0  0  0  0
  -23.5261  -31.1203   21.1021 C   0  0  1  0  0  0  0  0  0  0  0  0
  -27.4044  -13.6251   20.2660 C   0  0  2  0  0  0  0  0  0  0  0  0
  -21.3111  -23.7029   20.8208 C   0  0  0  0  0  0  0  0  0  0  0  0
  -21.6266  -29.0216   24.7556 C   0  0  0  0  0  0  0  0  0  0  0  0
  -21.2240  -26.5639   24.4989 C   0  0  0  0  0  0  0  0  0  0  0  0
  -19.7600  -28.1966   23.3100 C   0  0  0  0  0  0  0  0  0  0  0  0
  -23.7080  -25.4498   18.4376 C   0  0  0  0  0  0  0  0  0  0  0  0
  -31.7261  -20.0654   19.5406 C   0  0  0  0  0  0  0  0  0  0  0  0
  -31.6097  -28.0274   21.7205 C   0  0  0  0  0  0  0  0  0  0  0  0
  -30.6808  -29.1648   21.3439 C   0  0  0  0  0  0  0  0  0  1  0  0
  -22.1336  -27.8498   22.5115 C   0  0  1  0  0  0  0  0  0  0  0  0
  -21.9698  -24.8944   20.1432 C   0  0  2  0  0  0  0  0  0  0  0  0
  -21.2107  -27.9195   23.7608 C   0  0  0  0  0  0  0  0  0  0  0  0
  -25.7871  -11.7949   20.6077 N   0  0  0  0  0  0  0  0  0  0  0  0
  -26.7868  -12.2987   19.8641 N   0  0  0  0  0  0  0  0  0  0  0  0
  -23.4422  -29.7614   21.6412 N   0  0  0  0  0  0  0  0  0  0  0  0
  -27.0109  -15.8273   21.3090 N   0  0  0  0  0  0  0  0  0  0  0  0
  -28.1143  -11.8755   17.9485 N   0  0  0  0  0  0  0  0  0  0  0  0
  -25.3694   -8.2936   18.1258 N   0  0  0  0  0  0  0  0  0  0  0  0
  -23.5509  -33.3948   21.9291 N   0  0  0  0  0  0  0  0  0  0  0  0
  -21.7473  -26.8330   21.5392 N   0  0  0  0  0  0  0  0  0  0  0  0
  -27.1650  -18.1867   21.2266 N   0  0  0  0  0  0  0  0  0  0  0  0
  -30.8862  -26.7382   21.5839 N   0  3  0  0  0  0  0  0  0  0  0  0
  -22.9968  -24.3851   19.1910 N   0  3  0  0  0  0  0  0  0  0  0  0
  -27.0905   -9.2648   16.9624 O   0  0  0  0  0  0  0  0  0  0  0  0
  -23.5398  -31.6009   23.4138 O   0  0  0  0  0  0  0  0  0  0  0  0
  -21.1422  -29.6219   21.2854 O   0  0  0  0  0  0  0  0  0  0  0  0
  -23.7530  -25.6698   21.5773 O   0  0  0  0  0  0  0  0  0  0  0  0
  -25.5532  -17.0898   20.0209 O   0  0  0  0  0  0  0  0  0  0  0  0
  -21.4248   -7.3531   21.9456 O   0  0  0  0  0  0  0  0  0  0  0  0
  -31.3244  -21.3515   20.0059 O   0  0  0  0  0  0  0  0  0  0  0  0
  -29.5553  -29.1727   22.2211 O   0  0  0  0  0  0  0  0  0  1  0  0
  -22.4285   -1.9389   22.2329 F   0  0  0  0  0  0  0  0  0  0  0  0
  -21.3218   -6.0179   24.3641 F   0  0  0  0  0  0  0  0  0  0  0  0
  1  2  1  0  0  0  0
  1  5  2  0  0  0  0
  2  6  2  0  0  0  0
  3  8  2  0  0  0  0
  3 17  1  0  0  0  0
  4  9  1  0  0  0  0
  4 17  2  0  0  0  0
  5 19  1  0  0  0  0
  6 21  1  0  0  0  0
  7 10  2  0  0  0  0
  7 20  1  0  0  0  0
  8 26  1  0  0  0  0
  9 26  2  0  0  0  0
 10 27  1  0  0  0  0
 11 12  2  0  0  0  0
 11 28  1  0  0  0  0
 12 30  1  0  0  0  0
 13 22  2  0  0  0  0
 13 23  1  0  0  0  0
 14 24  1  0  0  0  0
 14 27  2  0  0  0  0
 15 25  2  0  0  0  0
 15 29  1  0  0  0  0
 16 30  2  0  0  0  0
 16 31  1  0  0  0  0
 17 32  1  0  0  0  0
 18 32  1  0  0  0  0
 18 33  2  0  0  0  0
 18 34  1  0  0  0  0
 19 21  2  0  0  0  0
 19 39  1  0  0  0  0
 20 24  2  0  0  0  0
 20 40  1  0  0  0  0
 21 55  1  0  0  0  0
 22 25  1  0  0  0  0
 22 41  1  0  0  0  0
 23 29  2  0  0  0  0
 23 54  1  0  0  0  0
 24 42  1  0  0  0  0
 25 56  1  0  0  0  0
 26 86  1  0  0  0  0
 27 88  1  0  0  0  0
 28 31  2  0  0  0  0
 28 86  1  0  0  0  0
 29 87  1  0  0  0  0
 30 89  1  0  0  0  0
 31 90  1  0  0  0  0
 32 70  2  0  0  0  0
 33 71  1  0  0  0  0
 33 74  1  0  0  0  0
 34 75  1  0  0  0  0
 34 81  2  0  0  0  0
 35 57  1  0  0  0  0
 35 76  1  0  0  0  0
 35 82  2  0  0  0  0
 36 67  1  0  0  0  0
 36 72  1  0  0  0  0
 36 83  2  0  0  0  0
 37 68  1  0  0  0  0
 37 77  1  0  0  0  0
 37 84  2  0  0  0  0
 38 73  1  0  0  0  0
 38 78  1  0  0  0  0
 38 85  2  0  0  0  0
 39 43  1  0  0  0  0
 40 57  1  0  0  0  0
 41 44  1  0  0  0  0
 42 72  1  0  0  0  0
 43 46  1  0  0  0  0
 44 56  1  0  0  0  0
 45 47  1  0  0  0  0
 45 50  1  0  0  0  0
 46 55  1  0  0  0  0
 47 58  1  0  0  0  0
 48 52  1  0  0  0  0
 48 54  1  0  0  0  0
 49 53  1  0  0  0  0
 49 54  1  0  0  0  0
 50 73  1  0  0  0  0
 51 58  1  0  0  0  0
 51 73  1  0  0  0  0
 52 79  1  0  0  0  0
 53 79  1  0  0  0  0
 55 76  1  0  0  0  0
 56 78  1  0  0  0  0
 57 72  1  0  0  0  0
 58 71  1  0  0  0  0
 59 68  1  0  0  0  0
 60 69  1  0  0  0  0
 61 69  1  0  0  0  0
 62 69  1  0  0  0  0
 63 80  1  0  0  0  0
 64 87  1  0  0  0  0
 65 66  1  0  0  0  0
 65 79  1  0  0  0  0
 66 88  1  0  0  0  0
 67 69  1  0  0  0  0
 67 77  1  0  0  0  0
 68 80  1  0  0  0  0
 70 71  1  0  0  0  0
M  CHG  2  79   1  80   1
M  ISO  4  38 100  66 101  78 100  88 101
M  END
> <Batch ID>
0159

> <Smiles>
CNC(C)C(=O)NC(C(=O)N1Cc2cc([101O:1][101CH2:1]CN3CCC(c4cc5c(cc4OC)C([100NH:0][100C:0](=O)N4CCCC(n6nc(-c7ccc(Oc8ccc(F)cc8F)cc7)c(C(N)=O)c6N)C4)CC5)CC3)ccc2CC1C(=O)NC1CCCc2ccccc21)C(C)(C)C

> <Shape>
0.297

> <Color>
0.074

> <Negative vol penalty>
0.000

$$$$

  -OEChem-04052322073D

 88 97  0     1  0  0  0  0  0999 V2000
  -28.6750  -27.4114   16.4563 C   0  0  0  0  0  0  0  0  0  0  0  0
  -28.9566  -26.8186   17.6829 C   0  0  0  0  0  0  0  0  0  0  0  0
  -23.0748   -9.8686   19.9395 C   0  0  0  0  0  0  0  0  0  0  0  0
  -23.8349   -9.8731   22.2328 C   0  0  0  0  0  0  0  0  0  0  0  0
  -29.5934  -27.3188   15.4114 C   0  0  0  0  0  0  0  0  0  0  0  0
  -30.1564  -26.1317   17.8650 C   0  0  0  0  0  0  0  0  0  0  0  0
  -32.3944  -27.2637   22.2644 C   0  0  0  0  0  0  0  0  0  0  0  0
  -22.3305   -8.7156   20.1884 C   0  0  0  0  0  0  0  0  0  0  0  0
  -23.0905   -8.7200   22.4817 C   0  0  0  0  0  0  0  0  0  0  0  0
  -31.8832  -26.6604   23.4127 C   0  0  0  0  0  0  0  0  0  0  0  0
  -19.8621   -7.9229   23.0837 C   0  0  0  0  0  0  0  0  0  0  0  0
  -19.1052   -7.8822   24.2546 C   0  0  0  0  0  0  0  0  0  0  0  0
  -33.6668  -25.0376   23.3469 C   0  0  0  0  0  0  0  0  0  0  0  0
  -31.8076  -17.5238   21.6951 C   0  0  0  0  0  0  0  0  0  0  0  0
  -20.3459   -5.9436   24.9892 C   0  0  0  0  0  0  0  0  0  0  0  0
  -23.8271  -10.4474   20.9617 C   0  0  0  0  0  0  0  0  0  0  0  0
  -24.1699  -12.9726   20.8440 C   0  0  0  0  0  0  0  0  0  0  0  0
  -30.8094  -26.6387   15.5838 C   0  0  0  0  0  0  0  0  0  0  0  0
  -33.5414  -26.7510   21.6415 C   0  0  0  0  0  0  0  0  0  0  0  0
  -31.0913  -26.0287   16.8211 C   0  0  0  0  0  0  0  0  0  0  0  0
  -34.1921  -25.6377   22.1924 C   0  0  0  0  0  0  0  0  0  0  0  0
  -31.8190  -18.7622   22.3831 C   0  0  0  0  0  0  0  0  0  0  0  0
  -22.3383   -8.1413   21.4595 C   0  0  0  0  0  0  0  0  0  0  0  0
  -32.5177  -25.5455   23.9524 C   0  0  0  0  0  0  0  0  0  0  0  0
  -20.8609   -6.9739   22.8654 C   0  0  0  0  0  0  0  0  0  0  0  0
  -19.3471   -6.8925   25.2074 C   0  0  0  0  0  0  0  0  0  0  0  0
  -21.1028   -5.9843   23.8182 C   0  0  0  0  0  0  0  0  0  0  0  0
  -24.5966  -11.6382   20.7050 C   0  0  0  0  0  0  0  0  0  0  0  0
  -30.6054  -18.8890   23.0221 C   0  0  0  0  0  0  0  0  0  0  0  0
  -30.5872  -16.9315   21.9345 C   0  0  0  0  0  0  0  0  0  0  0  0
  -25.2623  -13.7219   20.4814 C   0  0  0  0  0  0  0  0  0  0  0  0
  -22.8996  -13.4885   21.2635 C   0  0  0  0  0  0  0  0  0  0  0  0
  -34.1783  -25.5113   18.7847 C   0  0  0  0  0  0  0  0  0  0  0  0
  -37.2332  -25.5659   19.8741 C   0  0  0  0  0  0  0  0  0  0  0  0
  -39.3564  -25.5897   22.5458 C   0  0  0  0  0  0  0  0  0  0  0  0
  -30.7290  -14.7651   20.6567 C   0  0  0  0  0  0  0  0  0  0  0  0
  -31.7501  -26.5247   14.4104 C   0  0  0  0  0  0  0  0  0  0  0  0
  -34.0957  -27.4293   20.4188 C   0  0  0  0  0  0  0  0  0  0  0  0
  -35.4380  -25.0608   21.5734 C   0  0  0  0  0  0  0  0  0  0  0  0
  -33.1630  -26.0994   14.8016 C   0  0  0  0  0  0  0  0  0  0  0  0
  -29.6133  -12.3541   18.2861 C   0  0  0  0  0  0  0  0  0  0  0  0
  -33.1172  -24.9193   15.7671 C   0  0  0  0  0  0  0  0  0  0  0  0
  -28.1736  -12.0627   18.7155 C   0  0  0  0  0  0  0  0  0  0  0  0
  -30.9669  -20.1545   25.1270 C   0  0  0  0  0  0  0  0  0  0  0  0
  -30.0122  -21.2988   23.0859 C   0  0  0  0  0  0  0  0  0  0  0  0
  -30.5287  -12.5813   19.4879 C   0  0  0  0  0  0  0  0  0  0  0  0
  -28.6221  -13.3052   20.8701 C   0  0  0  0  0  0  0  0  0  0  0  0
  -30.4964  -21.3195   25.9882 C   0  0  0  0  0  0  0  0  0  0  0  0
  -29.5487  -22.4549   23.9629 C   0  0  0  0  0  0  0  0  0  0  0  0
  -32.3929  -25.2963   17.0651 C   0  0  1  0  0  0  0  0  0  0  0  0
  -30.0859  -19.9839   23.8789 C   0  0  0  0  0  0  0  0  0  0  0  0
  -34.9742  -26.5124   19.5733 C   0  0  1  0  0  0  0  0  0  0  0  0
  -27.6491  -13.1335   19.6922 C   0  0  2  0  0  0  0  0  0  0  0  0
  -32.9315  -19.7321   22.4068 C   0  0  0  0  0  0  0  0  0  0  0  0
  -41.7991  -25.5963   23.1208 C   0  0  0  0  0  0  0  0  0  0  0  0
  -28.4655  -16.2829   24.1300 C   0  0  0  0  0  0  0  0  0  0  0  0
  -27.5091  -17.4281   22.0855 C   0  0  0  0  0  0  0  0  0  0  0  0
  -37.4035  -22.6009   19.1740 C   0  0  0  0  0  0  0  0  0  0  0  0
  -39.4504  -22.4514   20.6079 C   0  0  0  0  0  0  0  0  0  0  0  0
  -39.4433  -23.9278   18.5972 C   0  0  0  0  0  0  0  0  0  0  0  0
  -39.1379  -28.1861   23.9493 C   0  0  0  0  0  0  0  0  0  0  0  0
  -30.1294  -23.7853   25.9896 C   0  0  0  0  0  0  0  0  0  0  0  0
  -30.6105  -25.0346   25.2782 C   0  0  0  0  0  0  0  0  0  1  0  0
  -38.1133  -24.6060   20.6376 C   0  0  1  0  0  0  0  0  0  0  0  0
  -40.5668  -26.4493   22.8629 C   0  0  2  0  0  0  0  0  0  0  0  0
  -28.5236  -17.5167   23.2271 C   0  0  0  0  0  0  0  0  0  0  0  0
  -38.5780  -23.4060   19.7650 C   0  0  0  0  0  0  0  0  0  0  0  0
  -25.8614  -11.5423   20.2865 N   0  0  0  0  0  0  0  0  0  0  0  0
  -29.8646  -17.7705   22.7420 N   0  0  0  0  0  0  0  0  0  0  0  0
  -26.2388  -12.8259   20.1594 N   0  0  0  0  0  0  0  0  0  0  0  0
  -35.9376  -25.7556   20.3753 N   0  0  0  0  0  0  0  0  0  0  0  0
  -29.9702  -13.6115   20.3664 N   0  0  0  0  0  0  0  0  0  0  0  0
  -25.4732  -15.0534   20.4096 N   0  0  0  0  0  0  0  0  0  0  0  0
  -21.8874  -12.5794   21.6000 N   0  0  0  0  0  0  0  0  0  0  0  0
  -30.0821  -15.6896   21.4761 N   0  0  0  0  0  0  0  0  0  0  0  0
  -33.2611  -26.0773   17.9199 N   0  0  0  0  0  0  0  0  0  0  0  0
  -39.2046  -25.4024   21.1882 N   0  0  0  0  0  0  0  0  0  0  0  0
  -30.4610  -22.5946   25.1670 N   0  3  0  0  0  0  0  0  0  0  0  0
  -40.3091  -27.2807   24.0726 N   0  3  0  0  0  0  0  0  0  0  0  0
  -22.6639  -14.7191   21.3221 O   0  0  0  0  0  0  0  0  0  0  0  0
  -34.3822  -24.3140   18.9477 O   0  0  0  0  0  0  0  0  0  0  0  0
  -37.6812  -26.1322   18.8739 O   0  0  0  0  0  0  0  0  0  0  0  0
  -38.6215  -25.1273   23.4156 O   0  0  0  0  0  0  0  0  0  0  0  0
  -31.8581  -14.9338   20.1892 O   0  0  0  0  0  0  0  0  0  0  0  0
  -21.6120   -7.0162   21.7028 O   0  0  0  0  0  0  0  0  0  0  0  0
  -32.0203  -24.9543   25.0728 O   0  0  0  0  0  0  0  0  0  1  0  0
  -18.6213   -6.8545   26.3325 F   0  0  0  0  0  0  0  0  0  0  0  0
  -22.0617   -5.0706   23.6146 F   0  0  0  0  0  0  0  0  0  0  0  0
  1  2  1  0  0  0  0
  1  5  2  0  0  0  0
  2  6  2  0  0  0  0
  3  8  2  0  0  0  0
  3 16  1  0  0  0  0
  4  9  1  0  0  0  0
  4 16  2  0  0  0  0
  5 18  1  0  0  0  0
  6 20  1  0  0  0  0
  7 10  2  0  0  0  0
  7 19  1  0  0  0  0
  8 23  1  0  0  0  0
  9 23  2  0  0  0  0
 10 24  1  0  0  0  0
 11 12  2  0  0  0  0
 11 25  1  0  0  0  0
 12 26  1  0  0  0  0
 13 21  1  0  0  0  0
 13 24  2  0  0  0  0
 14 22  1  0  0  0  0
 14 30  2  0  0  0  0
 15 26  2  0  0  0  0
 15 27  1  0  0  0  0
 16 28  1  0  0  0  0
 17 28  1  0  0  0  0
 17 31  2  0  0  0  0
 17 32  1  0  0  0  0
 18 20  2  0  0  0  0
 18 37  1  0  0  0  0
 19 21  2  0  0  0  0
 19 38  1  0  0  0  0
 20 50  1  0  0  0  0
 21 39  1  0  0  0  0
 22 29  2  0  0  0  0
 22 54  1  0  0  0  0
 23 85  1  0  0  0  0
 24 86  1  0  0  0  0
 25 27  2  0  0  0  0
 25 85  1  0  0  0  0
 26 87  1  0  0  0  0
 27 88  1  0  0  0  0
 28 68  2  0  0  0  0
 29 51  1  0  0  0  0
 29 69  1  0  0  0  0
 30 69  1  0  0  0  0
 30 75  1  0  0  0  0
 31 70  1  0  0  0  0
 31 73  1  0  0  0  0
 32 74  1  0  0  0  0
 32 80  2  0  0  0  0
 33 52  1  0  0  0  0
 33 76  1  0  0  0  0
 33 81  2  0  0  0  0
 34 64  1  0  0  0  0
 34 71  1  0  0  0  0
 34 82  2  0  0  0  0
 35 65  1  0  0  0  0
 35 77  1  0  0  0  0
 35 83  2  0  0  0  0
 36 72  1  0  0  0  0
 36 75  1  0  0  0  0
 36 84  2  0  0  0  0
 37 40  1  0  0  0  0
 38 52  1  0  0  0  0
 39 71  1  0  0  0  0
 40 42  1  0  0  0  0
 41 43  1  0  0  0  0
 41 46  1  0  0  0  0
 42 50  1  0  0  0  0
 43 53  1  0  0  0  0
 44 48  1  0  0  0  0
 44 51  1  0  0  0  0
 45 49  1  0  0  0  0
 45 51  1  0  0  0  0
 46 72  1  0  0  0  0
 47 53  1  0  0  0  0
 47 72  1  0  0  0  0
 48 78  1  0  0  0  0
 49 78  1  0  0  0  0
 50 76  1  0  0  0  0
 52 71  1  0  0  0  0
 53 70  1  0  0  0  0
 55 65  1  0  0  0  0
 56 66  1  0  0  0  0
 57 66  1  0  0  0  0
 58 67  1  0  0  0  0
 59 67  1  0  0  0  0
 60 67  1  0  0  0  0
 61 79  1  0  0  0  0
 62 63  1  0  0  0  0
 62 78  1  0  0  0  0
 63 86  1  0  0  0  0
 64 67  1  0  0  0  0
 64 77  1  0  0  0  0
 65 79  1  0  0  0  0
 66 69  1  0  0  0  0
 68 70  1  0  0  0  0
M  CHG  2  78   1  79   1
M  ISO  4  36 100  63 101  75 100  86 101
M  END
> <Batch ID>
0159

> <Smiles>
CNC(C)C(=O)NC(C(=O)N1Cc2cc([101O:1][101CH2:1]CN3CCC(c4c(C)cc([100NH:0][100C:0](=O)N5CCCC(n6nc(-c7ccc(Oc8ccc(F)cc8F)cc7)c(C(N)=O)c6N)C5)n4C(C)C)CC3)ccc2CC1C(=O)NC1CCCc2ccccc21)C(C)(C)C

> <Shape>
0.184

> <Color>
0.184

> <Negative vol penalty>
0.000

$$$$

  -OEChem-04052322073D

 86 95  0     1  0  0  0  0  0999 V2000
  -33.8969  -35.7999   17.1212 C   0  0  0  0  0  0  0  0  0  0  0  0
  -33.5985  -34.4465   17.2429 C   0  0  0  0  0  0  0  0  0  0  0  0
  -23.4538   -9.7587   19.9439 C   0  0  0  0  0  0  0  0  0  0  0  0
  -24.0679   -9.9453   22.2731 C   0  0  0  0  0  0  0  0  0  0  0  0
  -33.6014  -36.6744   18.1660 C   0  0  0  0  0  0  0  0  0  0  0  0
  -33.0054  -33.9668   18.4102 C   0  0  0  0  0  0  0  0  0  0  0  0
  -28.9205  -29.4268   18.8664 C   0  0  0  0  0  0  0  0  0  0  0  0
  -22.8676   -8.5188   20.1978 C   0  0  0  0  0  0  0  0  0  0  0  0
  -23.4816   -8.7054   22.5270 C   0  0  0  0  0  0  0  0  0  0  0  0
  -29.0494  -28.0789   19.1986 C   0  0  0  0  0  0  0  0  0  0  0  0
  -20.3694   -7.4704   22.9842 C   0  0  0  0  0  0  0  0  0  0  0  0
  -19.5578   -7.3579   24.1130 C   0  0  0  0  0  0  0  0  0  0  0  0
  -28.4629  -28.5917   21.4817 C   0  0  0  0  0  0  0  0  0  0  0  0
  -30.5061  -22.3693   21.6464 C   0  0  0  0  0  0  0  0  0  0  0  0
  -21.0157   -5.6427   24.9904 C   0  0  0  0  0  0  0  0  0  0  0  0
  -24.0540  -10.4720   20.9815 C   0  0  0  0  0  0  0  0  0  0  0  0
  -24.0407  -13.0151   20.7822 C   0  0  0  0  0  0  0  0  0  0  0  0
  -32.9955  -36.2068   19.3428 C   0  0  0  0  0  0  0  0  0  0  0  0
  -28.5719  -30.3704   19.8434 C   0  0  0  0  0  0  0  0  0  0  0  0
  -32.7027  -34.8357   19.4723 C   0  0  0  0  0  0  0  0  0  0  0  0
  -28.3277  -29.9506   21.1588 C   0  0  0  0  0  0  0  0  0  0  0  0
  -30.4489  -23.6660   21.1357 C   0  0  0  0  0  0  0  0  0  0  0  0
  -28.3558  -23.1451   20.0473 C   0  0  0  0  0  0  0  0  0  0  0  0
  -29.3738  -24.0540   20.3362 C   0  0  0  0  0  0  0  0  0  0  0  0
  -28.4130  -21.8483   20.5580 C   0  0  0  0  0  0  0  0  0  0  0  0
  -29.4882  -21.4604   21.3575 C   0  0  0  0  0  0  0  0  0  0  0  0
  -22.8814   -7.9921   21.4893 C   0  0  0  0  0  0  0  0  0  0  0  0
  -28.8234  -27.6616   20.5070 C   0  0  0  0  0  0  0  0  0  0  0  0
  -21.5041   -6.6689   22.8584 C   0  0  0  0  0  0  0  0  0  0  0  0
  -19.8809   -6.4441   25.1161 C   0  0  0  0  0  0  0  0  0  0  0  0
  -21.8272   -5.7551   23.8615 C   0  0  0  0  0  0  0  0  0  0  0  0
  -24.6603  -11.7526   20.7198 C   0  0  0  0  0  0  0  0  0  0  0  0
  -25.0350  -13.9024   20.4498 C   0  0  0  0  0  0  0  0  0  0  0  0
  -22.6873  -13.3554   21.1113 C   0  0  0  0  0  0  0  0  0  0  0  0
  -29.9799  -32.9328   21.0905 C   0  0  0  0  0  0  0  0  0  0  0  0
  -27.1279  -33.2862   22.5950 C   0  0  0  0  0  0  0  0  0  0  0  0
  -24.2620  -31.8367   23.7492 C   0  0  0  0  0  0  0  0  0  0  0  0
  -30.2979  -15.7050   20.8954 C   0  0  0  0  0  0  0  0  0  0  0  0
  -32.7381  -37.1822   20.4639 C   0  0  0  0  0  0  0  0  0  0  0  0
  -28.4108  -31.8168   19.4631 C   0  0  0  0  0  0  0  0  0  0  0  0
  -27.9313  -30.9210   22.2403 C   0  0  0  0  0  0  0  0  0  0  0  0
  -31.7673  -36.6563   21.5181 C   0  0  0  0  0  0  0  0  0  0  0  0
  -29.6534  -13.1095   18.5449 C   0  0  0  0  0  0  0  0  0  0  0  0
  -32.1317  -35.2291   21.9146 C   0  0  0  0  0  0  0  0  0  0  0  0
  -28.2491  -12.6255   18.9104 C   0  0  0  0  0  0  0  0  0  0  0  0
  -29.3871  -18.3663   23.3626 C   0  0  0  0  0  0  0  0  0  0  0  0
  -30.4572  -13.4967   19.7842 C   0  0  0  0  0  0  0  0  0  0  0  0
  -29.6088  -19.8774   23.2997 C   0  0  0  0  0  0  0  0  0  0  0  0
  -28.3923  -13.9888   21.0363 C   0  0  0  0  0  0  0  0  0  0  0  0
  -29.5796  -18.9699   21.0562 C   0  0  0  0  0  0  0  0  0  0  0  0
  -32.0366  -34.2813   20.7129 C   0  0  1  0  0  0  0  0  0  0  0  0
  -28.5534  -32.7658   20.6490 C   0  0  1  0  0  0  0  0  0  0  0  0
  -27.5242  -13.6399   19.8153 C   0  0  2  0  0  0  0  0  0  0  0  0
  -29.9847  -17.8796   22.0496 C   0  0  2  0  0  0  0  0  0  0  0  0
  -31.5512  -24.6203   21.4609 C   0  0  0  0  0  0  0  0  0  0  0  0
  -27.2028  -23.5616   19.1892 C   0  0  0  0  0  0  0  0  0  0  0  0
  -27.3185  -20.8749   20.2501 C   0  0  0  0  0  0  0  0  0  0  0  0
  -22.1361  -32.3738   24.9696 C   0  0  0  0  0  0  0  0  0  0  0  0
  -28.6722  -33.4155   25.2233 C   0  0  0  0  0  0  0  0  0  0  0  0
  -26.5186  -32.9947   26.4288 C   0  0  0  0  0  0  0  0  0  0  0  0
  -26.7874  -35.0489   25.0393 C   0  0  0  0  0  0  0  0  0  0  0  0
  -22.5949  -30.9949   21.4533 C   0  0  0  0  0  0  0  0  0  0  0  0
  -29.3154  -25.4490   19.7870 C   0  0  0  0  0  0  0  0  0  1  0  0
  -26.5408  -32.8054   23.9001 C   0  0  1  0  0  0  0  0  0  0  0  0
  -22.8042  -32.2367   23.6104 C   0  0  2  0  0  0  0  0  0  0  0  0
  -27.1391  -33.5479   25.1282 C   0  0  0  0  0  0  0  0  0  0  0  0
  -25.9485  -11.8269   20.3747 N   0  0  0  0  0  0  0  0  0  0  0  0
  -26.1464  -13.1468   20.2172 N   0  0  0  0  0  0  0  0  0  0  0  0
  -29.5625  -20.1833   21.8714 N   0  0  3  0  0  0  0  0  0  0  0  0
  -27.7928  -32.3252   21.8202 N   0  0  0  0  0  0  0  0  0  0  0  0
  -29.7148  -14.4620   20.5985 N   0  0  0  0  0  0  0  0  0  0  0  0
  -25.0584  -15.2474   20.3367 N   0  0  0  0  0  0  0  0  0  0  0  0
  -21.7965  -12.3210   21.4283 N   0  0  0  0  0  0  0  0  0  0  0  0
  -30.6549  -33.9481   20.4401 N   0  0  0  0  0  0  0  0  0  0  0  0
  -25.0937  -32.9363   23.7695 N   0  0  0  0  0  0  0  0  0  0  0  0
  -29.5243  -16.5633   21.6670 N   0  0  0  0  0  0  0  0  0  0  0  0
  -22.0595  -31.2149   22.8215 N   0  3  0  0  0  0  0  0  0  0  0  0
  -22.2759  -14.5405   21.1079 O   0  0  0  0  0  0  0  0  0  0  0  0
  -30.4341  -32.1962   21.9581 O   0  0  0  0  0  0  0  0  0  0  0  0
  -26.9950  -34.4691   22.2714 O   0  0  0  0  0  0  0  0  0  0  0  0
  -24.6262  -30.6660   23.8352 O   0  0  0  0  0  0  0  0  0  0  0  0
  -31.4223  -16.0280   20.4975 O   0  0  0  0  0  0  0  0  0  0  0  0
  -22.3093   -6.7823   21.7375 O   0  0  0  0  0  0  0  0  0  0  0  0
  -28.9492  -26.3466   20.8341 O   0  0  0  0  0  0  0  0  0  1  0  0
  -19.1023   -6.3374   26.2008 F   0  0  0  0  0  0  0  0  0  0  0  0
  -22.9167   -4.9834   23.7468 F   0  0  0  0  0  0  0  0  0  0  0  0
  1  2  1  0  0  0  0
  1  5  2  0  0  0  0
  2  6  2  0  0  0  0
  3  8  2  0  0  0  0
  3 16  1  0  0  0  0
  4  9  1  0  0  0  0
  4 16  2  0  0  0  0
  5 18  1  0  0  0  0
  6 20  1  0  0  0  0
  7 10  2  0  0  0  0
  7 19  1  0  0  0  0
  8 27  1  0  0  0  0
  9 27  2  0  0  0  0
 10 28  1  0  0  0  0
 11 12  2  0  0  0  0
 11 29  1  0  0  0  0
 12 30  1  0  0  0  0
 13 21  1  0  0  0  0
 13 28  2  0  0  0  0
 14 22  2  0  0  0  0
 14 26  1  0  0  0  0
 15 30  2  0  0  0  0
 15 31  1  0  0  0  0
 16 32  1  0  0  0  0
 17 32  1  0  0  0  0
 17 33  2  0  0  0  0
 17 34  1  0  0  0  0
 18 20  2  0  0  0  0
 18 39  1  0  0  0  0
 19 21  2  0  0  0  0
 19 40  1  0  0  0  0
 20 51  1  0  0  0  0
 21 41  1  0  0  0  0
 22 24  1  0  0  0  0
 22 55  1  0  0  0  0
 23 24  2  0  0  0  0
 23 25  1  0  0  0  0
 23 56  1  0  0  0  0
 24 63  1  0  0  0  0
 25 26  2  0  0  0  0
 25 57  1  0  0  0  0
 26 69  1  0  0  0  0
 27 83  1  0  0  0  0
 28 84  1  0  0  0  0
 29 31  2  0  0  0  0
 29 83  1  0  0  0  0
 30 85  1  0  0  0  0
 31 86  1  0  0  0  0
 32 67  2  0  0  0  0
 33 68  1  0  0  0  0
 33 72  1  0  0  0  0
 34 73  1  0  0  0  0
 34 78  2  0  0  0  0
 35 52  1  0  0  0  0
 35 74  1  0  0  0  0
 35 79  2  0  0  0  0
 36 64  1  0  0  0  0
 36 70  1  0  0  0  0
 36 80  2  0  0  0  0
 37 65  1  0  0  0  0
 37 75  1  0  0  0  0
 37 81  2  0  0  0  0
 38 71  1  0  0  0  0
 38 76  1  0  0  0  0
 38 82  2  0  0  0  0
 39 42  1  0  0  0  0
 40 52  1  0  0  0  0
 41 70  1  0  0  0  0
 42 44  1  0  0  0  0
 43 45  1  0  0  0  0
 43 47  1  0  0  0  0
 44 51  1  0  0  0  0
 45 53  1  0  0  0  0
 46 48  1  0  0  0  0
 46 54  1  0  0  0  0
 47 71  1  0  0  0  0
 48 69  1  0  0  0  0
 49 53  1  0  0  0  0
 49 71  1  0  0  0  0
 50 54  1  0  0  0  0
 50 69  1  0  0  0  0
 51 74  1  0  0  0  0
 52 70  1  0  0  0  0
 53 68  1  0  0  0  0
 54 76  1  0  0  0  0
 58 65  1  0  0  0  0
 59 66  1  0  0  0  0
 60 66  1  0  0  0  0
 61 66  1  0  0  0  0
 62 77  1  0  0  0  0
 63 84  1  0  0  0  0
 64 66  1  0  0  0  0
 64 75  1  0  0  0  0
 65 77  1  0  0  0  0
 67 68  1  0  0  0  0
M  CHG  1  77   1
M  ISO  4  38 100  63 101  76 100  84 101
M  END
> <Batch ID>
0159

> <Smiles>
CNC(C)C(=O)NC(C(=O)N1Cc2cc([101O:1][101CH2:1]c3c(C)cc(N4CCC([100NH:0][100C:0](=O)N5CCCC(n6nc(-c7ccc(Oc8ccc(F)cc8F)cc7)c(C(N)=O)c6N)C5)C4)c(C)c3C)ccc2CC1C(=O)NC1CCCc2ccccc21)C(C)(C)C

> <Shape>
0.314

> <Color>
0.183

> <Negative vol penalty>
0.000

$$$$

  -OEChem-04052322073D

 88 97  0     1  0  0  0  0  0999 V2000
  -29.4404  -36.3999   22.8259 C   0  0  0  0  0  0  0  0  0  0  0  0
  -29.6158  -35.0484   22.5461 C   0  0  0  0  0  0  0  0  0  0  0  0
  -27.4424   -7.3914   23.5944 C   0  0  0  0  0  0  0  0  0  0  0  0
  -26.4201   -6.7521   21.5008 C   0  0  0  0  0  0  0  0  0  0  0  0
  -28.2547  -36.8411   23.4117 C   0  0  0  0  0  0  0  0  0  0  0  0
  -28.6059  -34.1372   22.8531 C   0  0  0  0  0  0  0  0  0  0  0  0
  -27.1047  -29.1054   19.7015 C   0  0  0  0  0  0  0  0  0  0  0  0
  -26.5247   -6.5994   24.2844 C   0  0  0  0  0  0  0  0  0  0  0  0
  -25.5024   -5.9600   22.1908 C   0  0  0  0  0  0  0  0  0  0  0  0
  -27.4236  -27.7594   19.8759 C   0  0  0  0  0  0  0  0  0  0  0  0
  -22.6561   -6.4108   23.9590 C   0  0  0  0  0  0  0  0  0  0  0  0
  -21.3158   -6.4937   23.5816 C   0  0  0  0  0  0  0  0  0  0  0  0
  -25.3427  -27.4248   21.0493 C   0  0  0  0  0  0  0  0  0  0  0  0
  -29.3300  -23.2370   21.1874 C   0  0  0  0  0  0  0  0  0  0  0  0
  -27.4815  -21.4116   20.1708 C   0  0  0  0  0  0  0  0  0  0  0  0
  -21.3208   -4.1378   23.0462 C   0  0  0  0  0  0  0  0  0  0  0  0
  -27.3900   -7.4679   22.2026 C   0  0  0  0  0  0  0  0  0  0  0  0
  -29.5957   -7.8949   20.9941 C   0  0  0  0  0  0  0  0  0  0  0  0
  -27.2258  -35.9362   23.7171 C   0  0  0  0  0  0  0  0  0  0  0  0
  -25.9054  -29.6245   20.2100 C   0  0  0  0  0  0  0  0  0  0  0  0
  -27.4058  -34.5666   23.4448 C   0  0  0  0  0  0  0  0  0  0  0  0
  -25.0098  -28.7771   20.8778 C   0  0  0  0  0  0  0  0  0  0  0  0
  -28.2450  -23.6884   20.4361 C   0  0  0  0  0  0  0  0  0  0  0  0
  -29.4909  -21.8729   21.4304 C   0  0  0  0  0  0  0  0  0  0  0  0
  -27.3207  -22.7758   19.9278 C   0  0  0  0  0  0  0  0  0  0  0  0
  -25.5547   -5.8837   23.5826 C   0  0  0  0  0  0  0  0  0  0  0  0
  -26.5438  -26.9195   20.5524 C   0  0  0  0  0  0  0  0  0  0  0  0
  -23.3288   -5.1913   23.8798 C   0  0  0  0  0  0  0  0  0  0  0  0
  -28.5666  -20.9602   20.9221 C   0  0  0  0  0  0  0  0  0  0  0  0
  -20.6482   -5.3572   23.1253 C   0  0  0  0  0  0  0  0  0  0  0  0
  -22.6611   -4.0549   23.4235 C   0  0  0  0  0  0  0  0  0  0  0  0
  -28.3374   -8.2863   21.4893 C   0  0  0  0  0  0  0  0  0  0  0  0
  -30.0990   -9.0272   20.4017 C   0  0  0  0  0  0  0  0  0  0  0  0
  -30.2511   -6.6215   21.0635 C   0  0  0  0  0  0  0  0  0  0  0  0
  -25.1540  -31.8477   22.3540 C   0  0  0  0  0  0  0  0  0  0  0  0
  -22.1324  -31.2553   21.3336 C   0  0  0  0  0  0  0  0  0  0  0  0
  -19.9409  -29.0849   19.8730 C   0  0  0  0  0  0  0  0  0  0  0  0
  -29.3292  -14.6886   21.2643 C   0  0  0  0  0  0  0  0  0  0  0  0
  -25.9809  -36.4537   24.3932 C   0  0  0  0  0  0  0  0  0  0  0  0
  -25.5639  -31.0727   19.9902 C   0  0  0  0  0  0  0  0  0  0  0  0
  -23.7001  -29.2806   21.4252 C   0  0  0  0  0  0  0  0  0  0  0  0
  -24.8097  -35.4760   24.3437 C   0  0  0  0  0  0  0  0  0  0  0  0
  -28.7216  -13.0498   18.2201 C   0  0  0  0  0  0  0  0  0  0  0  0
  -25.2696  -34.0723   24.7246 C   0  0  0  0  0  0  0  0  0  0  0  0
  -28.6759  -11.5885   18.6660 C   0  0  0  0  0  0  0  0  0  0  0  0
  -30.2017  -18.0733   20.0272 C   0  0  0  0  0  0  0  0  0  0  0  0
  -27.6880  -17.7853   19.9374 C   0  0  0  0  0  0  0  0  0  0  0  0
  -28.0199  -13.9749   19.2159 C   0  0  0  0  0  0  0  0  0  0  0  0
  -30.2668  -16.9622   21.0739 C   0  0  0  0  0  0  0  0  0  0  0  0
  -27.8103  -16.6842   20.9882 C   0  0  0  0  0  0  0  0  0  0  0  0
  -28.4601  -12.3786   21.0529 C   0  0  0  0  0  0  0  0  0  0  0  0
  -26.3235  -33.5510   23.7403 C   0  0  1  0  0  0  0  0  0  0  0  0
  -24.5517  -31.6077   20.9985 C   0  0  1  0  0  0  0  0  0  0  0  0
  -29.2084  -11.4319   20.1016 C   0  0  1  0  0  0  0  0  0  0  0  0
  -28.8468  -18.7817   20.0025 C   0  0  0  0  0  0  0  0  0  0  0  0
  -26.1511  -23.2350   19.1207 C   0  0  0  0  0  0  0  0  0  0  0  0
  -30.6335  -21.9570   23.6756 C   0  0  0  0  0  0  0  0  0  0  0  0
  -32.0043  -21.7434   21.5708 C   0  0  0  0  0  0  0  0  0  0  0  0
  -17.5307  -28.8682   19.2087 C   0  0  0  0  0  0  0  0  0  0  0  0
  -21.3729  -30.7865   24.2514 C   0  0  0  0  0  0  0  0  0  0  0  0
  -19.2765  -29.6739   23.4543 C   0  0  0  0  0  0  0  0  0  0  0  0
  -19.6878  -32.0776   22.9293 C   0  0  0  0  0  0  0  0  0  0  0  0
  -20.6373  -28.7628   17.0147 C   0  0  0  0  0  0  0  0  0  0  0  0
  -28.0940  -25.1533   20.1872 C   0  0  0  0  0  0  0  0  0  1  0  0
  -30.6576  -21.4073   22.2375 C   0  0  0  0  0  0  0  0  0  0  0  0
  -21.0353  -30.3006   21.7382 C   0  0  1  0  0  0  0  0  0  0  0  0
  -18.9258  -29.2748   18.7604 C   0  0  2  0  0  0  0  0  0  0  0  0
  -20.3686  -30.7003   23.0848 C   0  0  0  0  0  0  0  0  0  0  0  0
  -28.0585   -9.5673   21.2338 N   0  0  0  0  0  0  0  0  0  0  0  0
  -29.1486   -9.9906   20.5717 N   0  0  0  0  0  0  0  0  0  0  0  0
  -23.4143  -30.7057   21.1904 N   0  0  0  0  0  0  0  0  0  0  0  0
  -28.5331  -13.7611   20.5756 N   0  0  0  0  0  0  0  0  0  0  0  0
  -29.1330  -16.0457   20.9571 N   0  0  0  0  0  0  0  0  0  0  0  0
  -31.2573   -9.2829   19.7572 N   0  0  0  0  0  0  0  0  0  0  0  0
  -29.5927   -5.5655   21.7082 N   0  0  0  0  0  0  0  0  0  0  0  0
  -25.6950  -33.1092   22.5139 N   0  0  0  0  0  0  0  0  0  0  0  0
  -20.1124  -30.2376   20.6101 N   0  0  0  0  0  0  0  0  0  0  0  0
  -19.2969  -28.4518   17.5747 N   0  3  0  0  0  0  0  0  0  0  0  0
  -31.3938   -6.4304   20.5827 O   0  0  0  0  0  0  0  0  0  0  0  0
  -25.1285  -30.9551   23.1931 O   0  0  0  0  0  0  0  0  0  0  0  0
  -21.8607  -32.4436   21.1445 O   0  0  0  0  0  0  0  0  0  0  0  0
  -20.5207  -28.0195   20.0711 O   0  0  0  0  0  0  0  0  0  0  0  0
  -30.1674  -14.3289   22.1004 O   0  0  0  0  0  0  0  0  0  0  0  0
  -24.6592   -5.1105   24.2555 O   0  0  0  0  0  0  0  0  0  0  0  0
  -28.7103  -19.6169   21.1502 O   0  0  0  0  0  0  0  0  0  0  0  0
  -26.8551  -25.5961   20.7259 O   0  0  0  0  0  0  0  0  0  1  0  0
  -19.3607   -5.4366   22.7645 F   0  0  0  0  0  0  0  0  0  0  0  0
  -23.3018   -2.8804   23.3464 F   0  0  0  0  0  0  0  0  0  0  0  0
  1  2  1  0  0  0  0
  1  5  2  0  0  0  0
  2  6  2  0  0  0  0
  3  8  2  0  0  0  0
  3 17  1  0  0  0  0
  4  9  1  0  0  0  0
  4 17  2  0  0  0  0
  5 19  1  0  0  0  0
  6 21  1  0  0  0  0
  7 10  2  0  0  0  0
  7 20  1  0  0  0  0
  8 26  1  0  0  0  0
  9 26  2  0  0  0  0
 10 27  1  0  0  0  0
 11 12  2  0  0  0  0
 11 28  1  0  0  0  0
 12 30  1  0  0  0  0
 13 22  1  0  0  0  0
 13 27  2  0  0  0  0
 14 23  1  0  0  0  0
 14 24  2  0  0  0  0
 15 25  1  0  0  0  0
 15 29  2  0  0  0  0
 16 30  2  0  0  0  0
 16 31  1  0  0  0  0
 17 32  1  0  0  0  0
 18 32  1  0  0  0  0
 18 33  2  0  0  0  0
 18 34  1  0  0  0  0
 19 21  2  0  0  0  0
 19 39  1  0  0  0  0
 20 22  2  0  0  0  0
 20 40  1  0  0  0  0
 21 52  1  0  0  0  0
 22 41  1  0  0  0  0
 23 25  2  0  0  0  0
 23 64  1  0  0  0  0
 24 29  1  0  0  0  0
 24 65  1  0  0  0  0
 25 56  1  0  0  0  0
 26 84  1  0  0  0  0
 27 86  1  0  0  0  0
 28 31  2  0  0  0  0
 28 84  1  0  0  0  0
 29 85  1  0  0  0  0
 30 87  1  0  0  0  0
 31 88  1  0  0  0  0
 32 69  2  0  0  0  0
 33 70  1  0  0  0  0
 33 74  1  0  0  0  0
 34 75  1  0  0  0  0
 34 79  2  0  0  0  0
 35 53  1  0  0  0  0
 35 76  1  0  0  0  0
 35 80  2  0  0  0  0
 36 66  1  0  0  0  0
 36 71  1  0  0  0  0
 36 81  2  0  0  0  0
 37 67  1  0  0  0  0
 37 77  1  0  0  0  0
 37 82  2  0  0  0  0
 38 72  1  0  0  0  0
 38 73  1  0  0  0  0
 38 83  2  0  0  0  0
 39 42  1  0  0  0  0
 40 53  1  0  0  0  0
 41 71  1  0  0  0  0
 42 44  1  0  0  0  0
 43 45  1  0  0  0  0
 43 48  1  0  0  0  0
 44 52  1  0  0  0  0
 45 54  1  0  0  0  0
 46 49  1  0  0  0  0
 46 55  1  0  0  0  0
 47 50  1  0  0  0  0
 47 55  1  0  0  0  0
 48 72  1  0  0  0  0
 49 73  1  0  0  0  0
 50 73  1  0  0  0  0
 51 54  1  0  0  0  0
 51 72  1  0  0  0  0
 52 76  1  0  0  0  0
 53 71  1  0  0  0  0
 54 70  1  0  0  0  0
 55 85  1  0  0  0  0
 57 65  1  0  0  0  0
 58 65  1  0  0  0  0
 59 67  1  0  0  0  0
 60 68  1  0  0  0  0
 61 68  1  0  0  0  0
 62 68  1  0  0  0  0
 63 78  1  0  0  0  0
 64 86  1  0  0  0  0
 66 68  1  0  0  0  0
 66 77  1  0  0  0  0
 67 78  1  0  0  0  0
 69 70  1  0  0  0  0
M  CHG  1  78   1
M  ISO  4  38 100  64 101  73 100  86 101
M  END
> <Batch ID>
0159

> <Smiles>
CNC(C)C(=O)NC(C(=O)N1Cc2cc([101O:1][101CH2:1]c3cc(C(C)C)c(OC4CC[100N:0]([100C:0](=O)N5CCCC(n6nc(-c7ccc(Oc8ccc(F)cc8F)cc7)c(C(N)=O)c6N)C5)CC4)cc3C)ccc2CC1C(=O)NC1CCCc2ccccc21)C(C)(C)C

> <Shape>
0.268

> <Color>
0.070

> <Negative vol penalty>
0.000

$$$$

  -OEChem-04052322073D

 89 98  0     1  0  0  0  0  0999 V2000
  -29.0647  -37.2345   23.2487 C   0  0  0  0  0  0  0  0  0  0  0  0
  -29.3948  -36.0226   22.6507 C   0  0  0  0  0  0  0  0  0  0  0  0
  -21.2068  -11.6252   19.4532 C   0  0  0  0  0  0  0  0  0  0  0  0
  -21.0863  -13.1942   17.6200 C   0  0  0  0  0  0  0  0  0  0  0  0
  -28.0787  -37.2789   24.2335 C   0  0  0  0  0  0  0  0  0  0  0  0
  -28.7397  -34.8541   23.0379 C   0  0  0  0  0  0  0  0  0  0  0  0
  -27.2797  -30.0965   19.4686 C   0  0  0  0  0  0  0  0  0  0  0  0
  -20.2936  -10.7953   18.8030 C   0  0  0  0  0  0  0  0  0  0  0  0
  -20.1731  -12.3642   16.9697 C   0  0  0  0  0  0  0  0  0  0  0  0
  -27.8918  -28.8624   19.2538 C   0  0  0  0  0  0  0  0  0  0  0  0
  -20.3316   -8.5424   16.2819 C   0  0  0  0  0  0  0  0  0  0  0  0
  -20.6106   -7.1763   16.2433 C   0  0  0  0  0  0  0  0  0  0  0  0
  -26.4236  -27.8575   20.8830 C   0  0  0  0  0  0  0  0  0  0  0  0
  -28.3511  -17.2522   19.6727 C   0  0  0  0  0  0  0  0  0  0  0  0
  -29.1824  -18.2618   21.7040 C   0  0  0  0  0  0  0  0  0  0  0  0
  -18.5497   -6.7222   17.4198 C   0  0  0  0  0  0  0  0  0  0  0  0
  -21.6031  -12.8248   18.8618 C   0  0  0  0  0  0  0  0  0  0  0  0
  -23.9489  -13.6578   19.4194 C   0  0  0  0  0  0  0  0  0  0  0  0
  -27.4044  -36.1119   24.6261 C   0  0  0  0  0  0  0  0  0  0  0  0
  -26.2406  -30.2228   20.4017 C   0  0  0  0  0  0  0  0  0  0  0  0
  -27.7447  -34.8827   24.0298 C   0  0  0  0  0  0  0  0  0  0  0  0
  -25.7983  -29.0938   21.1059 C   0  0  0  0  0  0  0  0  0  0  0  0
  -29.1418  -17.1839   20.8197 C   0  0  0  0  0  0  0  0  0  0  0  0
  -27.6010  -18.3985   19.4099 C   0  0  0  0  0  0  0  0  0  0  0  0
  -27.6416  -19.4765   20.2942 C   0  0  0  0  0  0  0  0  0  0  0  0
  -19.7768  -11.1648   17.5612 C   0  0  0  0  0  0  0  0  0  0  0  0
  -27.4657  -27.7433   19.9631 C   0  0  0  0  0  0  0  0  0  0  0  0
  -19.1618   -8.9985   16.8895 C   0  0  0  0  0  0  0  0  0  0  0  0
  -28.4323  -19.4081   21.4413 C   0  0  0  0  0  0  0  0  0  0  0  0
  -19.7196   -6.2662   16.8122 C   0  0  0  0  0  0  0  0  0  0  0  0
  -18.2708   -8.0884   17.4584 C   0  0  0  0  0  0  0  0  0  0  0  0
  -22.5460  -13.6828   19.5332 C   0  0  0  0  0  0  0  0  0  0  0  0
  -24.3788  -14.6633   20.2505 C   0  0  0  0  0  0  0  0  0  0  0  0
  -24.7885  -12.8023   18.6326 C   0  0  0  0  0  0  0  0  0  0  0  0
  -25.8283  -31.8662   23.0912 C   0  0  0  0  0  0  0  0  0  0  0  0
  -22.8139  -30.6846   22.8922 C   0  0  0  0  0  0  0  0  0  0  0  0
  -20.7247  -28.2602   21.7071 C   0  0  0  0  0  0  0  0  0  0  0  0
  -23.8599  -19.9244   22.0760 C   0  0  0  0  0  0  0  0  0  0  0  0
  -26.3790  -36.2020   25.7284 C   0  0  0  0  0  0  0  0  0  0  0  0
  -25.5728  -31.5556   20.6024 C   0  0  0  0  0  0  0  0  0  0  0  0
  -24.6731  -29.1722   22.1040 C   0  0  0  0  0  0  0  0  0  0  0  0
  -25.4696  -34.9790   25.8157 C   0  0  0  0  0  0  0  0  0  0  0  0
  -21.8968  -17.3793   23.7095 C   0  0  0  0  0  0  0  0  0  0  0  0
  -26.2915  -33.6962   25.7404 C   0  0  0  0  0  0  0  0  0  0  0  0
  -21.9747  -16.2030   22.7369 C   0  0  0  0  0  0  0  0  0  0  0  0
  -27.2795  -24.3642   17.5423 C   0  0  0  0  0  0  0  0  0  0  0  0
  -21.8875  -18.7145   22.9722 C   0  0  0  0  0  0  0  0  0  0  0  0
  -23.1305  -17.7210   21.0683 C   0  0  0  0  0  0  0  0  0  0  0  0
  -27.0474  -22.8502   17.6632 C   0  0  0  0  0  0  0  0  0  0  0  0
  -27.0392  -33.5976   24.4052 C   0  0  1  0  0  0  0  0  0  0  0  0
  -24.8690  -31.6743   21.9507 C   0  0  1  0  0  0  0  0  0  0  0  0
  -23.1692  -16.3570   21.7788 C   0  0  2  0  0  0  0  0  0  0  0  0
  -27.7501  -24.2881   19.0100 C   0  0  1  0  0  0  0  0  0  0  0  0
  -29.9446  -15.9586   21.0997 C   0  0  0  0  0  0  0  0  0  0  0  0
  -26.7634  -18.4473   18.1741 C   0  0  0  0  0  0  0  0  0  0  0  0
  -18.3205  -27.5420   21.7421 C   0  0  0  0  0  0  0  0  0  0  0  0
  -23.1702  -29.6388   25.7364 C   0  0  0  0  0  0  0  0  0  0  0  0
  -21.1847  -28.1593   25.3666 C   0  0  0  0  0  0  0  0  0  0  0  0
  -20.9266  -30.6384   25.2658 C   0  0  0  0  0  0  0  0  0  0  0  0
  -20.4825  -28.5242   18.7693 C   0  0  0  0  0  0  0  0  0  0  0  0
  -29.3181  -20.2939   23.4628 C   0  0  0  0  0  0  0  0  0  0  0  0
  -27.2571  -25.3743   19.9442 C   0  0  0  0  0  0  0  0  0  1  0  0
  -27.6986  -21.9832   19.8583 C   0  0  0  0  0  0  0  0  0  0  0  0
  -25.7716  -20.9594   21.1103 C   0  0  0  0  0  0  0  0  0  0  0  0
  -26.8238  -20.7304   20.0127 C   0  0  2  0  0  0  0  0  0  0  0  0
  -22.1191  -29.4389   23.3866 C   0  0  1  0  0  0  0  0  0  0  0  0
  -19.3818  -28.3431   21.0042 C   0  0  2  0  0  0  0  0  0  0  0  0
  -21.8727  -29.4674   24.9215 C   0  0  0  0  0  0  0  0  0  0  0  0
  -22.1134  -14.6290   20.3708 N   0  0  0  0  0  0  0  0  0  0  0  0
  -23.2512  -15.2079   20.7909 N   0  0  0  0  0  0  0  0  0  0  0  0
  -24.0563  -30.4987   22.2696 N   0  0  0  0  0  0  0  0  0  0  0  0
  -23.0119  -18.8131   22.0424 N   0  0  0  0  0  0  0  0  0  0  0  0
  -25.6076  -15.1257   20.5645 N   0  0  0  0  0  0  0  0  0  0  0  0
  -24.1828  -11.8222   17.8345 N   0  0  0  0  0  0  0  0  0  0  0  0
  -26.1374  -33.1879   23.3501 N   0  0  0  0  0  0  0  0  0  0  0  0
  -20.9050  -29.3048   22.5889 N   0  0  0  0  0  0  0  0  0  0  0  0
  -26.9610  -23.0367   19.1261 N   0  3  2  0  0  0  0  0  0  0  0  0
  -19.4903  -27.8127   19.6157 N   0  3  0  0  0  0  0  0  0  0  0  0
  -26.0394  -12.8933   18.6497 O   0  0  0  0  0  0  0  0  0  0  0  0
  -26.2552  -30.8876   23.6927 O   0  0  0  0  0  0  0  0  0  0  0  0
  -22.2709  -31.7815   23.0462 O   0  0  0  0  0  0  0  0  0  0  0  0
  -21.5315  -27.3569   21.4979 O   0  0  0  0  0  0  0  0  0  0  0  0
  -23.7353  -20.8677   22.8552 O   0  0  0  0  0  0  0  0  0  0  0  0
  -18.8859  -10.3550   16.9263 O   0  0  0  0  0  0  0  0  0  0  0  0
  -28.4836  -20.4507   22.3169 O   0  0  0  0  0  0  0  0  0  0  0  0
  -28.0618  -26.5376   19.7559 O   0  0  0  0  0  0  0  0  0  1  0  0
  -24.8582  -19.8565   21.1406 O   0  0  0  0  0  0  0  0  0  0  0  0
  -19.9869   -4.9542   16.7737 F   0  0  0  0  0  0  0  0  0  0  0  0
  -17.1448   -8.5205   18.0424 F   0  0  0  0  0  0  0  0  0  0  0  0
  1  2  1  0  0  0  0
  1  5  2  0  0  0  0
  2  6  2  0  0  0  0
  3  8  2  0  0  0  0
  3 17  1  0  0  0  0
  4  9  1  0  0  0  0
  4 17  2  0  0  0  0
  5 19  1  0  0  0  0
  6 21  1  0  0  0  0
  7 10  2  0  0  0  0
  7 20  1  0  0  0  0
  8 26  1  0  0  0  0
  9 26  2  0  0  0  0
 10 27  1  0  0  0  0
 11 12  2  0  0  0  0
 11 28  1  0  0  0  0
 12 30  1  0  0  0  0
 13 22  1  0  0  0  0
 13 27  2  0  0  0  0
 14 23  1  0  0  0  0
 14 24  2  0  0  0  0
 15 23  2  0  0  0  0
 15 29  1  0  0  0  0
 16 30  2  0  0  0  0
 16 31  1  0  0  0  0
 17 32  1  0  0  0  0
 18 32  1  0  0  0  0
 18 33  2  0  0  0  0
 18 34  1  0  0  0  0
 19 21  2  0  0  0  0
 19 39  1  0  0  0  0
 20 22  2  0  0  0  0
 20 40  1  0  0  0  0
 21 50  1  0  0  0  0
 22 41  1  0  0  0  0
 23 54  1  0  0  0  0
 24 25  1  0  0  0  0
 24 55  1  0  0  0  0
 25 29  2  0  0  0  0
 25 65  1  0  0  0  0
 26 84  1  0  0  0  0
 27 86  1  0  0  0  0
 28 31  2  0  0  0  0
 28 84  1  0  0  0  0
 29 85  1  0  0  0  0
 30 88  1  0  0  0  0
 31 89  1  0  0  0  0
 32 69  2  0  0  0  0
 33 70  1  0  0  0  0
 33 73  1  0  0  0  0
 34 74  1  0  0  0  0
 34 79  2  0  0  0  0
 35 51  1  0  0  0  0
 35 75  1  0  0  0  0
 35 80  2  0  0  0  0
 36 66  1  0  0  0  0
 36 71  1  0  0  0  0
 36 81  2  0  0  0  0
 37 67  1  0  0  0  0
 37 76  1  0  0  0  0
 37 82  2  0  0  0  0
 38 72  1  0  0  0  0
 38 83  2  0  0  0  0
 38 87  1  0  0  0  0
 39 42  1  0  0  0  0
 40 51  1  0  0  0  0
 41 71  1  0  0  0  0
 42 44  1  0  0  0  0
 43 45  1  0  0  0  0
 43 47  1  0  0  0  0
 44 50  1  0  0  0  0
 45 52  1  0  0  0  0
 46 49  1  0  0  0  0
 46 53  1  0  0  0  0
 47 72  1  0  0  0  0
 48 52  1  0  0  0  0
 48 72  1  0  0  0  0
 49 77  1  0  0  0  0
 50 75  1  0  0  0  0
 51 71  1  0  0  0  0
 52 70  1  0  0  0  0
 53 62  1  0  0  0  0
 53 77  1  0  0  0  0
 56 67  1  0  0  0  0
 57 68  1  0  0  0  0
 58 68  1  0  0  0  0
 59 68  1  0  0  0  0
 60 78  1  0  0  0  0
 61 85  1  0  0  0  0
 62 86  1  0  0  0  0
 63 65  1  0  0  0  0
 63 77  1  0  0  0  0
 64 65  1  0  0  0  0
 64 87  1  0  0  0  0
 66 68  1  0  0  0  0
 66 76  1  0  0  0  0
 67 78  1  0  0  0  0
 69 70  1  0  0  0  0
M  CHG  2  77   1  78   1
M  ISO  4  38 100  62 101  86 101  87 100
M  END
> <Batch ID>
0159

> <Smiles>
CNC(C)C(=O)NC(C(=O)N1Cc2cc([101O:1][101CH2:1]C3CCN3CC(C[100O:0][100C:0](=O)N3CCCC(n4nc(-c5ccc(Oc6ccc(F)cc6F)cc5)c(C(N)=O)c4N)C3)c3c(C)cc(C)cc3OC)ccc2CC1C(=O)NC1CCCc2ccccc21)C(C)(C)C

> <Shape>
0.218

> <Color>
0.107

> <Negative vol penalty>
0.000

$$$$

  -OEChem-04052322073D

 88 98  0     1  0  0  0  0  0999 V2000
  -16.5322  -29.7414   23.7398 C   0  0  0  0  0  0  0  0  0  0  0  0
  -17.1178  -28.4795   23.7537 C   0  0  0  0  0  0  0  0  0  0  0  0
  -26.5693  -13.0079   20.0910 C   0  0  0  0  0  0  0  0  0  0  0  0
  -25.1545  -14.8233   20.8256 C   0  0  0  0  0  0  0  0  0  0  0  0
  -17.2246  -30.8240   23.1992 C   0  0  0  0  0  0  0  0  0  0  0  0
  -18.3959  -28.2994   23.2260 C   0  0  0  0  0  0  0  0  0  0  0  0
  -21.3443  -25.4564   26.2041 C   0  0  0  0  0  0  0  0  0  0  0  0
  -25.4533  -12.1767   19.9956 C   0  0  0  0  0  0  0  0  0  0  0  0
  -24.0384  -13.9921   20.7301 C   0  0  0  0  0  0  0  0  0  0  0  0
  -21.1434  -24.0772   26.1691 C   0  0  0  0  0  0  0  0  0  0  0  0
  -23.4900  -10.3932   22.0906 C   0  0  0  0  0  0  0  0  0  0  0  0
  -23.5968   -9.1038   22.6117 C   0  0  0  0  0  0  0  0  0  0  0  0
  -23.0395  -23.8443   24.6961 C   0  0  0  0  0  0  0  0  0  0  0  0
  -23.1304   -8.1824   20.4275 C   0  0  0  0  0  0  0  0  0  0  0  0
  -26.4200  -14.3312   20.5060 C   0  0  0  0  0  0  0  0  0  0  0  0
  -28.7070  -15.0000   21.4169 C   0  0  0  0  0  0  0  0  0  0  0  0
  -18.5157  -30.6590   22.6734 C   0  0  0  0  0  0  0  0  0  0  0  0
  -22.3895  -26.0421   25.4754 C   0  0  0  0  0  0  0  0  0  0  0  0
  -19.1057  -29.3806   22.6767 C   0  0  0  0  0  0  0  0  0  0  0  0
  -23.2531  -25.2309   24.7255 C   0  0  0  0  0  0  0  0  0  0  0  0
  -24.1878  -12.6688   20.3151 C   0  0  0  0  0  0  0  0  0  0  0  0
  -21.9892  -23.2713   25.4128 C   0  0  0  0  0  0  0  0  0  0  0  0
  -23.2034  -10.5773   20.7379 C   0  0  0  0  0  0  0  0  0  0  0  0
  -23.4170   -7.9984   21.7802 C   0  0  0  0  0  0  0  0  0  0  0  0
  -23.0237   -9.4719   19.9064 C   0  0  0  0  0  0  0  0  0  0  0  0
  -27.5725  -15.1902   20.6053 C   0  0  0  0  0  0  0  0  0  0  0  0
  -29.5065  -16.0843   21.1489 C   0  0  0  0  0  0  0  0  0  0  0  0
  -29.0111  -13.9383   22.3311 C   0  0  0  0  0  0  0  0  0  0  0  0
  -22.5634  -28.1492   23.1019 C   0  0  0  0  0  0  0  0  0  0  0  0
  -25.7520  -27.9201   23.6521 C   0  0  0  0  0  0  0  0  0  0  0  0
  -28.3572  -26.0828   24.8705 C   0  0  0  0  0  0  0  0  0  0  0  0
  -28.0848  -21.4640   19.0220 C   0  0  0  0  0  0  0  0  0  0  0  0
  -19.2061  -31.8498   22.0569 C   0  0  0  0  0  0  0  0  0  0  0  0
  -22.6092  -27.5284   25.5449 C   0  0  0  0  0  0  0  0  0  0  0  0
  -24.4023  -25.8083   23.9416 C   0  0  0  0  0  0  0  0  0  0  0  0
  -20.7061  -31.6483   21.8576 C   0  0  0  0  0  0  0  0  0  0  0  0
  -30.4645  -19.1116   17.6709 C   0  0  0  0  0  0  0  0  0  0  0  0
  -20.9829  -30.2870   21.2274 C   0  0  0  0  0  0  0  0  0  0  0  0
  -22.0885  -23.9885   19.7226 C   0  0  0  0  0  0  0  0  0  0  0  0
  -30.0875  -17.8037   18.3627 C   0  0  0  0  0  0  0  0  0  0  0  0
  -21.8389  -23.4552   21.1340 C   0  0  0  0  0  0  0  0  0  0  0  0
  -21.7541  -21.6901   18.7468 C   0  0  0  0  0  0  0  0  0  0  0  0
  -24.0822  -22.6026   18.8167 C   0  0  0  0  0  0  0  0  0  0  0  0
  -23.3430  -20.6525   20.3783 C   0  0  0  0  0  0  0  0  0  0  0  0
  -25.1408  -22.3697   21.1404 C   0  0  0  0  0  0  0  0  0  0  0  0
  -29.2252  -19.9477   17.3791 C   0  0  0  0  0  0  0  0  0  0  0  0
  -28.0332  -18.9671   19.3171 C   0  0  0  0  0  0  0  0  0  0  0  0
  -25.6995  -20.7635   19.5062 C   0  0  0  0  0  0  0  0  0  0  0  0
  -20.5003  -29.1500   22.1362 C   0  0  1  0  0  0  0  0  0  0  0  0
  -23.3911  -28.0733   24.3536 C   0  0  1  0  0  0  0  0  0  0  0  0
  -22.5919  -22.9610   18.6945 C   0  0  2  0  0  0  0  0  0  0  0  0
  -21.8818  -21.0790   20.1390 C   0  0  1  0  0  0  0  0  0  0  0  0
  -29.2537  -18.0754   19.6253 C   0  0  1  0  0  0  0  0  0  0  0  0
  -21.2576  -22.0482   21.1539 C   0  0  1  0  0  0  0  0  0  0  0  0
  -26.5900  -22.6333   20.6991 C   0  0  1  0  0  0  0  0  0  0  0  0
  -24.4796  -21.6217   19.9545 C   0  0  2  0  0  0  0  0  0  0  0  0
  -27.5600  -22.5836   21.8731 C   0  0  0  0  0  0  0  0  0  0  0  0
  -30.7115  -25.5519   25.5581 C   0  0  0  0  0  0  0  0  0  0  0  0
  -20.4732  -19.9460   24.9555 C   0  0  0  0  0  0  0  0  0  0  0  0
  -26.0923  -27.2948   20.6851 C   0  0  0  0  0  0  0  0  0  0  0  0
  -28.3911  -26.4464   21.1989 C   0  0  0  0  0  0  0  0  0  0  0  0
  -27.8198  -28.8359   21.6312 C   0  0  0  0  0  0  0  0  0  0  0  0
  -27.9335  -27.1769   27.5875 C   0  0  0  0  0  0  0  0  0  0  0  0
  -20.3319  -22.0265   23.4737 C   0  0  0  0  0  0  0  0  0  0  0  0
  -26.8657  -27.0416   23.1354 C   0  0  1  0  0  0  0  0  0  0  0  0
  -29.5079  -26.4525   25.7889 C   0  0  2  0  0  0  0  0  0  0  0  0
  -20.5369  -21.4657   24.8773 C   0  0  2  0  0  0  0  0  0  1  0  0
  -27.2695  -27.3937   21.6758 C   0  0  0  0  0  0  0  0  0  0  0  0
  -27.6412  -16.3074   19.8766 N   0  0  0  0  0  0  0  0  0  0  0  0
  -28.8285  -16.8291   20.2293 N   0  0  0  0  0  0  0  0  0  0  0  0
  -24.5720  -27.2676   24.0364 N   0  0  0  0  0  0  0  0  0  0  0  0
  -28.4344  -20.1788   18.5889 N   0  0  0  0  0  0  0  0  0  0  0  0
  -26.8719  -21.6106   19.6976 N   0  0  0  0  0  0  0  0  0  0  0  0
  -30.7162  -16.4637   21.6127 N   0  0  0  0  0  0  0  0  0  0  0  0
  -28.6072  -14.0704   23.6667 N   0  0  0  0  0  0  0  0  0  0  0  0
  -21.4352  -28.9382   23.2204 N   0  0  0  0  0  0  0  0  0  0  0  0
  -27.9545  -27.1531   24.1000 N   0  0  0  0  0  0  0  0  0  0  0  0
  -21.3593  -21.5041   22.5343 N   0  3  0  0  0  0  0  0  0  0  0  0
  -29.0935  -26.3270   27.2149 N   0  3  0  0  0  0  0  0  0  0  0  0
  -29.6372  -12.9103   21.9779 O   0  0  0  0  0  0  0  0  0  0  0  0
  -22.9227  -27.5384   22.1021 O   0  0  0  0  0  0  0  0  0  0  0  0
  -25.9253  -29.1396   23.7192 O   0  0  0  0  0  0  0  0  0  0  0  0
  -27.8671  -24.9562   24.8371 O   0  0  0  0  0  0  0  0  0  0  0  0
  -28.8091  -22.4409   18.7901 O   0  0  0  0  0  0  0  0  0  0  0  0
  -23.0985  -11.8580   20.2219 O   0  0  0  0  0  0  0  0  0  0  0  0
  -21.7938  -21.9170   25.3762 O   0  0  0  0  0  0  0  0  0  1  0  0
  -23.5211   -6.7602   22.2804 F   0  0  0  0  0  0  0  0  0  0  0  0
  -22.7493   -9.6424   18.6058 F   0  0  0  0  0  0  0  0  0  0  0  0
  1  2  1  0  0  0  0
  1  5  2  0  0  0  0
  2  6  2  0  0  0  0
  3  8  2  0  0  0  0
  3 15  1  0  0  0  0
  4  9  1  0  0  0  0
  4 15  2  0  0  0  0
  5 17  1  0  0  0  0
  6 19  1  0  0  0  0
  7 10  2  0  0  0  0
  7 18  1  0  0  0  0
  8 21  1  0  0  0  0
  9 21  2  0  0  0  0
 10 22  1  0  0  0  0
 11 12  2  0  0  0  0
 11 23  1  0  0  0  0
 12 24  1  0  0  0  0
 13 20  1  0  0  0  0
 13 22  2  0  0  0  0
 14 24  2  0  0  0  0
 14 25  1  0  0  0  0
 15 26  1  0  0  0  0
 16 26  1  0  0  0  0
 16 27  2  0  0  0  0
 16 28  1  0  0  0  0
 17 19  2  0  0  0  0
 17 33  1  0  0  0  0
 18 20  2  0  0  0  0
 18 34  1  0  0  0  0
 19 49  1  0  0  0  0
 20 35  1  0  0  0  0
 21 85  1  0  0  0  0
 22 86  1  0  0  0  0
 23 25  2  0  0  0  0
 23 85  1  0  0  0  0
 24 87  1  0  0  0  0
 25 88  1  0  0  0  0
 26 69  2  0  0  0  0
 27 70  1  0  0  0  0
 27 74  1  0  0  0  0
 28 75  1  0  0  0  0
 28 80  2  0  0  0  0
 29 50  1  0  0  0  0
 29 76  1  0  0  0  0
 29 81  2  0  0  0  0
 30 65  1  0  0  0  0
 30 71  1  0  0  0  0
 30 82  2  0  0  0  0
 31 66  1  0  0  0  0
 31 77  1  0  0  0  0
 31 83  2  0  0  0  0
 32 72  1  0  0  0  0
 32 73  1  0  0  0  0
 32 84  2  0  0  0  0
 33 36  1  0  0  0  0
 34 50  1  0  0  0  0
 35 71  1  0  0  0  0
 36 38  1  0  0  0  0
 37 40  1  0  0  0  0
 37 46  1  0  0  0  0
 38 49  1  0  0  0  0
 39 41  1  0  0  0  0
 39 51  1  0  0  0  0
 40 53  1  0  0  0  0
 41 54  1  0  0  0  0
 42 51  1  0  0  0  0
 42 52  1  0  0  0  0
 43 51  1  0  0  0  0
 43 56  1  0  0  0  0
 44 52  1  0  0  0  0
 44 56  1  0  0  0  0
 45 55  1  0  0  0  0
 45 56  1  0  0  0  0
 46 72  1  0  0  0  0
 47 53  1  0  0  0  0
 47 72  1  0  0  0  0
 48 56  1  0  0  0  0
 48 73  1  0  0  0  0
 49 76  1  0  0  0  0
 50 71  1  0  0  0  0
 52 54  1  0  0  0  0
 53 70  1  0  0  0  0
 54 78  1  0  0  0  0
 55 57  1  0  0  0  0
 55 73  1  0  0  0  0
 58 66  1  0  0  0  0
 59 67  1  0  0  0  0
 60 68  1  0  0  0  0
 61 68  1  0  0  0  0
 62 68  1  0  0  0  0
 63 79  1  0  0  0  0
 64 67  1  0  0  0  0
 64 78  1  0  0  0  0
 65 68  1  0  0  0  0
 65 77  1  0  0  0  0
 66 79  1  0  0  0  0
 67 86  1  0  0  0  0
 69 70  1  0  0  0  0
M  CHG  2  78   1  79   1
M  ISO  4  32 100  67 101  73 100  86 101
M  END
> <Batch ID>
0159

> <Smiles>
CNC(C)C(=O)NC(C(=O)N1Cc2cc([101O:1][101CH:1](C)CNC3CCC4CC3CC3(C4)CC(C)[100N:0]([100C:0](=O)N4CCCC(n5nc(-c6ccc(Oc7ccc(F)cc7F)cc6)c(C(N)=O)c5N)C4)C3)ccc2CC1C(=O)NC1CCCc2ccccc21)C(C)(C)C

> <Shape>
0.209

> <Color>
0.065

> <Negative vol penalty>
0.000

$$$$

  -OEChem-04052322073D

 82 91  0     1  0  0  0  0  0999 V2000
  -16.4546  -29.1193   23.1869 C   0  0  0  0  0  0  0  0  0  0  0  0
  -17.2682  -28.0125   22.9666 C   0  0  0  0  0  0  0  0  0  0  0  0
  -24.0570   -9.9335   21.8352 C   0  0  0  0  0  0  0  0  0  0  0  0
  -24.6338  -11.2036   23.8078 C   0  0  0  0  0  0  0  0  0  0  0  0
  -17.0264  -30.3768   23.3755 C   0  0  0  0  0  0  0  0  0  0  0  0
  -18.6541  -28.1628   22.9337 C   0  0  0  0  0  0  0  0  0  0  0  0
  -22.8405  -24.1467   24.8961 C   0  0  0  0  0  0  0  0  0  0  0  0
  -23.6238   -8.8799   22.6402 C   0  0  0  0  0  0  0  0  0  0  0  0
  -24.2006  -10.1500   24.6128 C   0  0  0  0  0  0  0  0  0  0  0  0
  -23.6184  -23.2014   24.2291 C   0  0  0  0  0  0  0  0  0  0  0  0
  -20.8942   -8.1114   24.4818 C   0  0  0  0  0  0  0  0  0  0  0  0
  -19.6799   -7.5059   24.1590 C   0  0  0  0  0  0  0  0  0  0  0  0
  -27.8137  -21.9456   20.7149 C   0  0  0  0  0  0  0  0  0  0  0  0
  -28.7565  -19.6825   22.1238 C   0  0  0  0  0  0  0  0  0  0  0  0
  -25.4413  -24.7783   24.1328 C   0  0  0  0  0  0  0  0  0  0  0  0
  -20.8130   -5.3932   23.8594 C   0  0  0  0  0  0  0  0  0  0  0  0
  -24.5620  -11.0953   22.4190 C   0  0  0  0  0  0  0  0  0  0  0  0
  -24.2422  -13.2653   21.1165 C   0  0  0  0  0  0  0  0  0  0  0  0
  -18.4204  -30.5410   23.3545 C   0  0  0  0  0  0  0  0  0  0  0  0
  -23.3542  -25.4208   25.1773 C   0  0  0  0  0  0  0  0  0  0  0  0
  -19.2450  -29.4240   23.1209 C   0  0  0  0  0  0  0  0  0  0  0  0
  -28.4211  -20.8927   20.0511 C   0  0  0  0  0  0  0  0  0  0  0  0
  -28.8867  -19.7683   20.7465 C   0  0  0  0  0  0  0  0  0  0  0  0
  -24.6688  -25.7372   24.8058 C   0  0  0  0  0  0  0  0  0  0  0  0
  -28.1333  -20.7341   22.7996 C   0  0  0  0  0  0  0  0  0  0  0  0
  -27.6648  -21.8571   22.1002 C   0  0  0  0  0  0  0  0  0  0  0  0
  -23.6956   -8.9882   24.0290 C   0  0  0  0  0  0  0  0  0  0  0  0
  -24.9180  -23.5181   23.8448 C   0  0  0  0  0  0  0  0  0  0  0  0
  -22.0680   -7.3579   24.4933 C   0  0  0  0  0  0  0  0  0  0  0  0
  -19.6392   -6.1468   23.8479 C   0  0  0  0  0  0  0  0  0  0  0  0
  -22.0274   -5.9988   24.1822 C   0  0  0  0  0  0  0  0  0  0  0  0
  -25.0102  -12.1837   21.5880 C   0  0  0  0  0  0  0  0  0  0  0  0
  -25.1234  -14.0155   20.3768 C   0  0  0  0  0  0  0  0  0  0  0  0
  -22.8562  -13.5650   21.3282 C   0  0  0  0  0  0  0  0  0  0  0  0
  -22.5734  -28.3879   24.3463 C   0  0  0  0  0  0  0  0  0  0  0  0
  -24.9033  -29.1773   26.4606 C   0  0  0  0  0  0  0  0  0  0  0  0
  -27.7423  -28.2622   28.1187 C   0  0  0  0  0  0  0  0  0  0  0  0
  -30.1278  -16.3957   19.7161 C   0  0  0  0  0  0  0  0  0  0  0  0
  -18.9905  -31.9279   23.5164 C   0  0  0  0  0  0  0  0  0  0  0  0
  -22.5115  -26.4202   25.9212 C   0  0  0  0  0  0  0  0  0  0  0  0
  -28.7246  -20.7828   18.5894 C   0  0  0  0  0  0  0  0  0  0  0  0
  -25.2743  -27.0840   25.1021 C   0  0  0  0  0  0  0  0  0  0  0  0
  -20.4823  -31.9393   23.8399 C   0  0  0  0  0  0  0  0  0  0  0  0
  -28.9785  -19.2736   18.4519 C   0  0  0  0  0  0  0  0  0  0  0  0
  -29.8121  -12.9720   18.7912 C   0  0  0  0  0  0  0  0  0  0  0  0
  -21.2359  -30.9863   22.9175 C   0  0  0  0  0  0  0  0  0  0  0  0
  -28.4750  -12.5497   19.4026 C   0  0  0  0  0  0  0  0  0  0  0  0
  -30.5578  -13.9562   19.6897 C   0  0  0  0  0  0  0  0  0  0  0  0
  -28.4430  -14.7232   20.6963 C   0  0  0  0  0  0  0  0  0  0  0  0
  -20.7536  -29.5425   23.1029 C   0  0  1  0  0  0  0  0  0  0  0  0
  -29.5489  -18.8074   19.8036 C   0  0  2  0  0  0  0  0  0  0  0  0
  -22.9591  -27.8618   25.6998 C   0  0  1  0  0  0  0  0  0  0  0  0
  -27.6288  -13.7740   19.8005 C   0  0  2  0  0  0  0  0  0  0  0  0
  -27.9818  -20.6445   24.2839 C   0  0  0  0  0  0  0  0  0  0  0  0
  -29.4382  -29.1335   29.7503 C   0  0  0  0  0  0  0  0  0  0  0  0
  -26.1781  -30.8412   24.2433 C   0  0  0  0  0  0  0  0  0  0  0  0
  -28.2869  -30.8951   25.5918 C   0  0  0  0  0  0  0  0  0  0  0  0
  -26.2011  -31.9182   26.5003 C   0  0  0  0  0  0  0  0  0  0  0  0
  -27.0884  -26.1614   30.0980 C   0  0  0  0  0  0  0  0  0  0  0  0
  -27.0022  -22.9892   22.8286 C   0  0  0  0  0  0  0  0  0  1  0  0
  -26.3939  -29.4004   26.3750 C   0  0  1  0  0  0  0  0  0  0  0  0
  -28.1337  -28.3703   29.5814 C   0  0  2  0  0  0  0  0  0  0  0  0
  -26.7532  -30.7389   25.6702 C   0  0  0  0  0  0  0  0  0  0  0  0
  -26.2814  -12.2382   21.1819 N   0  0  0  0  0  0  0  0  0  0  0  0
  -26.3190  -13.3629   20.4473 N   0  0  0  0  0  0  0  0  0  0  0  0
  -24.4083  -28.0293   25.8259 N   0  0  0  0  0  0  0  0  0  0  0  0
  -29.7006  -15.0946   20.0289 N   0  0  0  0  0  0  0  0  0  0  0  0
  -24.9845  -15.1630   19.6795 N   0  0  0  0  0  0  0  0  0  0  0  0
  -22.0955  -12.6886   22.1140 N   0  0  0  0  0  0  0  0  0  0  0  0
  -21.3210  -28.9705   24.3050 N   0  0  0  0  0  0  0  0  0  0  0  0
  -26.9025  -29.2873   27.7376 N   0  0  0  0  0  0  0  0  0  0  0  0
  -29.2527  -17.4166   20.0660 N   0  0  0  0  0  0  0  0  0  0  0  0
  -28.3030  -27.0133   30.1739 N   0  3  0  0  0  0  0  0  0  0  0  0
  -22.3046  -14.5713   20.8216 O   0  0  0  0  0  0  0  0  0  0  0  0
  -23.3547  -28.2750   23.4090 O   0  0  0  0  0  0  0  0  0  0  0  0
  -24.2048  -29.9879   27.0744 O   0  0  0  0  0  0  0  0  0  0  0  0
  -28.1446  -27.3609   27.3863 O   0  0  0  0  0  0  0  0  0  0  0  0
  -31.2066  -16.6296   19.1608 O   0  0  0  0  0  0  0  0  0  0  0  0
  -23.2728   -7.9604   24.8148 O   0  0  0  0  0  0  0  0  0  0  0  0
  -25.6793  -22.5974   23.1931 O   0  0  0  0  0  0  0  0  0  1  0  0
  -18.4728   -5.5651   23.5394 F   0  0  0  0  0  0  0  0  0  0  0  0
  -23.1516   -5.2695   24.1927 F   0  0  0  0  0  0  0  0  0  0  0  0
  1  2  1  0  0  0  0
  1  5  2  0  0  0  0
  2  6  2  0  0  0  0
  3  8  2  0  0  0  0
  3 17  1  0  0  0  0
  4  9  1  0  0  0  0
  4 17  2  0  0  0  0
  5 19  1  0  0  0  0
  6 21  1  0  0  0  0
  7 10  2  0  0  0  0
  7 20  1  0  0  0  0
  8 27  1  0  0  0  0
  9 27  2  0  0  0  0
 10 28  1  0  0  0  0
 11 12  2  0  0  0  0
 11 29  1  0  0  0  0
 12 30  1  0  0  0  0
 13 22  2  0  0  0  0
 13 26  1  0  0  0  0
 14 23  2  0  0  0  0
 14 25  1  0  0  0  0
 15 24  1  0  0  0  0
 15 28  2  0  0  0  0
 16 30  2  0  0  0  0
 16 31  1  0  0  0  0
 17 32  1  0  0  0  0
 18 32  1  0  0  0  0
 18 33  2  0  0  0  0
 18 34  1  0  0  0  0
 19 21  2  0  0  0  0
 19 39  1  0  0  0  0
 20 24  2  0  0  0  0
 20 40  1  0  0  0  0
 21 50  1  0  0  0  0
 22 23  1  0  0  0  0
 22 41  1  0  0  0  0
 23 51  1  0  0  0  0
 24 42  1  0  0  0  0
 25 26  2  0  0  0  0
 25 54  1  0  0  0  0
 26 60  1  0  0  0  0
 27 79  1  0  0  0  0
 28 80  1  0  0  0  0
 29 31  2  0  0  0  0
 29 79  1  0  0  0  0
 30 81  1  0  0  0  0
 31 82  1  0  0  0  0
 32 64  2  0  0  0  0
 33 65  1  0  0  0  0
 33 68  1  0  0  0  0
 34 69  1  0  0  0  0
 34 74  2  0  0  0  0
 35 52  1  0  0  0  0
 35 70  1  0  0  0  0
 35 75  2  0  0  0  0
 36 61  1  0  0  0  0
 36 66  1  0  0  0  0
 36 76  2  0  0  0  0
 37 62  1  0  0  0  0
 37 71  1  0  0  0  0
 37 77  2  0  0  0  0
 38 67  1  0  0  0  0
 38 72  1  0  0  0  0
 38 78  2  0  0  0  0
 39 43  1  0  0  0  0
 40 52  1  0  0  0  0
 41 44  1  0  0  0  0
 42 66  1  0  0  0  0
 43 46  1  0  0  0  0
 44 51  1  0  0  0  0
 45 47  1  0  0  0  0
 45 48  1  0  0  0  0
 46 50  1  0  0  0  0
 47 53  1  0  0  0  0
 48 67  1  0  0  0  0
 49 53  1  0  0  0  0
 49 67  1  0  0  0  0
 50 70  1  0  0  0  0
 51 72  1  0  0  0  0
 52 66  1  0  0  0  0
 53 65  1  0  0  0  0
 55 62  1  0  0  0  0
 56 63  1  0  0  0  0
 57 63  1  0  0  0  0
 58 63  1  0  0  0  0
 59 73  1  0  0  0  0
 60 80  1  0  0  0  0
 61 63  1  0  0  0  0
 61 71  1  0  0  0  0
 62 73  1  0  0  0  0
 64 65  1  0  0  0  0
M  CHG  1  73   1
M  ISO  4  38 100  60 101  72 100  80 101
M  END
> <Batch ID>
0159

> <Smiles>
CNC(C)C(=O)NC(C(=O)N1Cc2cc([101O:1][101CH2:1]c3cc4c(cc3C)C([100NH:0][100C:0](=O)N3CCCC(n5nc(-c6ccc(Oc7ccc(F)cc7F)cc6)c(C(N)=O)c5N)C3)CC4)ccc2CC1C(=O)NC1CCCc2ccccc21)C(C)(C)C

> <Shape>
0.256

> <Color>
0.148

> <Negative vol penalty>
0.000

$$$$

  -OEChem-04052322073D

 82 91  0     1  0  0  0  0  0999 V2000
  -22.9629  -12.0465   22.5162 C   0  0  0  0  0  0  0  0  0  0  0  0
  -22.9378  -13.3244   23.0655 C   0  0  0  0  0  0  0  0  0  0  0  0
  -29.2378  -17.8432   19.0805 C   0  0  0  0  0  0  0  0  0  0  0  0
  -30.4156  -18.3337   21.1321 C   0  0  0  0  0  0  0  0  0  0  0  0
  -23.3879  -11.8625   21.2011 C   0  0  0  0  0  0  0  0  0  0  0  0
  -23.3386  -14.4190   22.3003 C   0  0  0  0  0  0  0  0  0  0  0  0
  -21.9461  -21.3826   21.3586 C   0  0  0  0  0  0  0  0  0  0  0  0
  -29.7266  -16.5372   19.1120 C   0  0  0  0  0  0  0  0  0  0  0  0
  -30.9044  -17.0276   21.1637 C   0  0  0  0  0  0  0  0  0  0  0  0
  -22.5971  -22.6146   21.3135 C   0  0  0  0  0  0  0  0  0  0  0  0
  -29.0248  -13.6533   20.7318 C   0  0  0  0  0  0  0  0  0  0  0  0
  -28.1274  -12.6188   20.4677 C   0  0  0  0  0  0  0  0  0  0  0  0
  -23.2368  -22.1862   19.0274 C   0  0  0  0  0  0  0  0  0  0  0  0
  -29.4729  -11.9330   18.5819 C   0  0  0  0  0  0  0  0  0  0  0  0
  -29.5823  -18.7415   20.0905 C   0  0  0  0  0  0  0  0  0  0  0  0
  -27.8831  -20.5658   20.6309 C   0  0  0  0  0  0  0  0  0  0  0  0
  -23.7850  -12.9566   20.4163 C   0  0  0  0  0  0  0  0  0  0  0  0
  -21.9449  -20.5369   20.2400 C   0  0  0  0  0  0  0  0  0  0  0  0
  -23.7706  -14.2494   20.9739 C   0  0  0  0  0  0  0  0  0  0  0  0
  -22.5829  -20.9451   19.0600 C   0  0  0  0  0  0  0  0  0  0  0  0
  -30.5598  -16.1294   20.1537 C   0  0  0  0  0  0  0  0  0  0  0  0
  -23.2450  -23.0154   20.1488 C   0  0  0  0  0  0  0  0  0  0  0  0
  -30.1463  -13.8278   19.9209 C   0  0  0  0  0  0  0  0  0  0  0  0
  -28.3514  -11.7585   19.3928 C   0  0  0  0  0  0  0  0  0  0  0  0
  -30.3704  -12.9676   18.8460 C   0  0  0  0  0  0  0  0  0  0  0  0
  -29.0782  -20.0909   20.0581 C   0  0  0  0  0  0  0  0  0  0  0  0
  -27.8632  -21.9043   20.3233 C   0  0  0  0  0  0  0  0  0  0  0  0
  -26.8807  -19.8603   21.3745 C   0  0  0  0  0  0  0  0  0  0  0  0
  -23.0420  -17.6155   19.6355 C   0  0  0  0  0  0  0  0  0  0  0  0
  -21.5048  -18.0450   16.8115 C   0  0  0  0  0  0  0  0  0  0  0  0
  -21.0787  -20.7174   14.4252 C   0  0  0  0  0  0  0  0  0  0  0  0
  -30.6770  -26.7777   20.1507 C   0  0  0  0  0  0  0  0  0  0  0  0
  -24.2815  -12.7026   19.0150 C   0  0  0  0  0  0  0  0  0  0  0  0
  -21.2154  -19.2227   20.2961 C   0  0  0  0  0  0  0  0  0  0  0  0
  -22.5935  -20.0828   17.8251 C   0  0  0  0  0  0  0  0  0  0  0  0
  -24.3341  -13.9595   18.1502 C   0  0  0  0  0  0  0  0  0  0  0  0
  -30.7398  -24.6321   17.1846 C   0  0  0  0  0  0  0  0  0  0  0  0
  -24.9845  -15.1073   18.9158 C   0  0  0  0  0  0  0  0  0  0  0  0
  -30.2618  -23.2838   17.7265 C   0  0  0  0  0  0  0  0  0  0  0  0
  -27.9650  -28.4913   21.9955 C   0  0  0  0  0  0  0  0  0  0  0  0
  -26.8543  -28.4204   19.6832 C   0  0  0  0  0  0  0  0  0  0  0  0
  -31.4897  -25.4405   18.2417 C   0  0  0  0  0  0  0  0  0  0  0  0
  -29.4047  -28.4093   21.5094 C   0  0  0  0  0  0  0  0  0  0  0  0
  -30.2872  -24.2715   20.0455 C   0  0  0  0  0  0  0  0  0  0  0  0
  -28.1859  -26.5042   20.7078 C   0  0  0  0  0  0  0  0  0  0  0  0
  -25.8366  -27.1845   21.4522 C   0  0  0  0  0  0  0  0  0  0  0  0
  -24.1742  -15.4647   20.1676 C   0  0  1  0  0  0  0  0  0  0  0  0
  -21.7161  -18.2169   19.2641 C   0  0  1  0  0  0  0  0  0  0  0  0
  -29.4648  -23.4632   19.0320 C   0  0  2  0  0  0  0  0  0  0  0  0
  -25.6117  -27.7332   19.0985 C   0  0  1  0  0  0  0  0  0  0  0  0
  -27.1976  -27.6527   20.9699 C   0  0  1  0  0  0  0  0  0  0  0  0
  -25.8729  -26.9838   17.8015 C   0  0  0  0  0  0  0  0  0  0  0  0
  -19.2210  -21.1734   12.8008 C   0  0  0  0  0  0  0  0  0  0  0  0
  -23.2526  -16.5189   14.8301 C   0  0  0  0  0  0  0  0  0  0  0  0
  -22.5497  -18.1471   13.0628 C   0  0  0  0  0  0  0  0  0  0  0  0
  -20.8465  -16.7018   14.1732 C   0  0  0  0  0  0  0  0  0  0  0  0
  -20.6526  -23.4422   15.4988 C   0  0  0  0  0  0  0  0  0  0  0  0
  -23.6778  -26.6089   20.2983 C   0  0  0  0  0  0  0  0  0  0  0  0
  -23.3581  -25.2629   20.9181 C   0  0  0  0  0  0  0  0  0  1  0  0
  -21.8820  -18.6129   15.4645 C   0  0  1  0  0  0  0  0  0  0  0  0
  -19.8093  -21.5076   14.1628 C   0  0  2  0  0  0  0  0  0  0  0  0
  -22.1451  -17.5043   14.4066 C   0  0  0  0  0  0  0  0  0  0  0  0
  -29.7674  -21.0496   19.4339 N   0  0  0  0  0  0  0  0  0  0  0  0
  -29.0030  -22.1404   19.6125 N   0  0  0  0  0  0  0  0  0  0  0  0
  -21.8717  -18.8041   17.9317 N   0  0  0  0  0  0  0  0  0  0  0  0
  -30.7020  -25.5556   19.4698 N   0  0  0  0  0  0  0  0  0  0  0  0
  -29.5088  -27.1232   20.8285 N   0  0  0  0  0  0  0  0  0  0  0  0
  -26.9821  -22.8905   20.5943 N   0  0  0  0  0  0  0  0  0  0  0  0
  -27.0578  -18.4883   21.5998 N   0  0  0  0  0  0  0  0  0  0  0  0
  -23.0091  -16.2451   19.8098 N   0  0  0  0  0  0  0  0  0  0  0  0
  -20.8193  -19.5445   15.1022 N   0  0  0  0  0  0  0  0  0  0  0  0
  -25.1611  -26.7548   20.1727 N   0  3  2  0  0  0  0  0  0  0  0  0
  -20.0914  -22.9703   14.2068 N   0  3  0  0  0  0  0  0  0  0  0  0
  -25.8500  -20.4261   21.8116 O   0  0  0  0  0  0  0  0  0  0  0  0
  -24.0226  -18.3408   19.7535 O   0  0  0  0  0  0  0  0  0  0  0  0
  -20.9004  -16.9712   16.8673 O   0  0  0  0  0  0  0  0  0  0  0  0
  -22.1887  -21.1003   14.0623 O   0  0  0  0  0  0  0  0  0  0  0  0
  -31.6426  -27.5525   20.1148 O   0  0  0  0  0  0  0  0  0  0  0  0
  -31.0368  -14.8550   20.1849 O   0  0  0  0  0  0  0  0  0  0  0  0
  -23.8863  -24.2258   20.1020 O   0  0  0  0  0  0  0  0  0  1  0  0
  -27.4904  -10.7641   19.1402 F   0  0  0  0  0  0  0  0  0  0  0  0
  -31.4466  -13.1296   18.0642 F   0  0  0  0  0  0  0  0  0  0  0  0
  1  2  1  0  0  0  0
  1  5  2  0  0  0  0
  2  6  2  0  0  0  0
  3  8  2  0  0  0  0
  3 15  1  0  0  0  0
  4  9  1  0  0  0  0
  4 15  2  0  0  0  0
  5 17  1  0  0  0  0
  6 19  1  0  0  0  0
  7 10  2  0  0  0  0
  7 18  1  0  0  0  0
  8 21  1  0  0  0  0
  9 21  2  0  0  0  0
 10 22  1  0  0  0  0
 11 12  2  0  0  0  0
 11 23  1  0  0  0  0
 12 24  1  0  0  0  0
 13 20  1  0  0  0  0
 13 22  2  0  0  0  0
 14 24  2  0  0  0  0
 14 25  1  0  0  0  0
 15 26  1  0  0  0  0
 16 26  1  0  0  0  0
 16 27  2  0  0  0  0
 16 28  1  0  0  0  0
 17 19  2  0  0  0  0
 17 33  1  0  0  0  0
 18 20  2  0  0  0  0
 18 34  1  0  0  0  0
 19 47  1  0  0  0  0
 20 35  1  0  0  0  0
 21 79  1  0  0  0  0
 22 80  1  0  0  0  0
 23 25  2  0  0  0  0
 23 79  1  0  0  0  0
 24 81  1  0  0  0  0
 25 82  1  0  0  0  0
 26 63  2  0  0  0  0
 27 64  1  0  0  0  0
 27 68  1  0  0  0  0
 28 69  1  0  0  0  0
 28 74  2  0  0  0  0
 29 48  1  0  0  0  0
 29 70  1  0  0  0  0
 29 75  2  0  0  0  0
 30 60  1  0  0  0  0
 30 65  1  0  0  0  0
 30 76  2  0  0  0  0
 31 61  1  0  0  0  0
 31 71  1  0  0  0  0
 31 77  2  0  0  0  0
 32 66  1  0  0  0  0
 32 67  1  0  0  0  0
 32 78  2  0  0  0  0
 33 36  1  0  0  0  0
 34 48  1  0  0  0  0
 35 65  1  0  0  0  0
 36 38  1  0  0  0  0
 37 39  1  0  0  0  0
 37 42  1  0  0  0  0
 38 47  1  0  0  0  0
 39 49  1  0  0  0  0
 40 43  1  0  0  0  0
 40 51  1  0  0  0  0
 41 50  1  0  0  0  0
 41 51  1  0  0  0  0
 42 66  1  0  0  0  0
 43 67  1  0  0  0  0
 44 49  1  0  0  0  0
 44 66  1  0  0  0  0
 45 51  1  0  0  0  0
 45 67  1  0  0  0  0
 46 51  1  0  0  0  0
 46 72  1  0  0  0  0
 47 70  1  0  0  0  0
 48 65  1  0  0  0  0
 49 64  1  0  0  0  0
 50 52  1  0  0  0  0
 50 72  1  0  0  0  0
 53 61  1  0  0  0  0
 54 62  1  0  0  0  0
 55 62  1  0  0  0  0
 56 62  1  0  0  0  0
 57 73  1  0  0  0  0
 58 59  1  0  0  0  0
 58 72  1  0  0  0  0
 59 80  1  0  0  0  0
 60 62  1  0  0  0  0
 60 71  1  0  0  0  0
 61 73  1  0  0  0  0
 63 64  1  0  0  0  0
M  CHG  2  72   1  73   1
M  ISO  4  32 100  59 101  67 100  80 101
M  END
> <Batch ID>
0159

> <Smiles>
CNC(C)C(=O)NC(C(=O)N1Cc2cc([101O:1][101CH2:1]CN3CC4(CC[100N:0]([100C:0](=O)N5CCCC(n6nc(-c7ccc(Oc8ccc(F)cc8F)cc7)c(C(N)=O)c6N)C5)C4)CC3C)ccc2CC1C(=O)NC1CCCc2ccccc21)C(C)(C)C

> <Shape>
0.232

> <Color>
0.048

> <Negative vol penalty>
0.000

$$$$

  -OEChem-04052322073D

 86 95  0     1  0  0  0  0  0999 V2000
  -27.0453  -28.2409   10.6444 C   0  0  0  0  0  0  0  0  0  0  0  0
  -26.9241  -27.0757   11.3948 C   0  0  0  0  0  0  0  0  0  0  0  0
  -23.0575   -9.9075   19.9614 C   0  0  0  0  0  0  0  0  0  0  0  0
  -23.8073   -9.9324   22.2580 C   0  0  0  0  0  0  0  0  0  0  0  0
  -27.4020  -29.4361   11.2676 C   0  0  0  0  0  0  0  0  0  0  0  0
  -27.1605  -27.1049   12.7688 C   0  0  0  0  0  0  0  0  0  0  0  0
  -24.3087  -23.8021   17.0659 C   0  0  0  0  0  0  0  0  0  0  0  0
  -22.2993   -8.7659   20.2213 C   0  0  0  0  0  0  0  0  0  0  0  0
  -23.0491   -8.7908   22.5179 C   0  0  0  0  0  0  0  0  0  0  0  0
  -24.6555  -22.6255   17.7284 C   0  0  0  0  0  0  0  0  0  0  0  0
  -19.8093   -8.0371   23.1149 C   0  0  0  0  0  0  0  0  0  0  0  0
  -19.0468   -8.0194   24.2827 C   0  0  0  0  0  0  0  0  0  0  0  0
  -25.5292  -23.9237   19.5643 C   0  0  0  0  0  0  0  0  0  0  0  0
  -29.4452  -18.6256   20.8490 C   0  0  0  0  0  0  0  0  0  0  0  0
  -20.2626   -6.0766   25.0472 C   0  0  0  0  0  0  0  0  0  0  0  0
  -23.8115  -10.4907   20.9798 C   0  0  0  0  0  0  0  0  0  0  0  0
  -24.1829  -13.0102   20.8321 C   0  0  0  0  0  0  0  0  0  0  0  0
  -27.6334  -29.4819   12.6514 C   0  0  0  0  0  0  0  0  0  0  0  0
  -24.5799  -25.0507   17.6437 C   0  0  0  0  0  0  0  0  0  0  0  0
  -27.5219  -28.3015   13.4108 C   0  0  0  0  0  0  0  0  0  0  0  0
  -25.1826  -25.1147   18.9081 C   0  0  0  0  0  0  0  0  0  0  0  0
  -30.3379  -19.9614   19.0592 C   0  0  0  0  0  0  0  0  0  0  0  0
  -22.2951   -8.2076   21.4995 C   0  0  0  0  0  0  0  0  0  0  0  0
  -25.2684  -22.6862   18.9765 C   0  0  0  0  0  0  0  0  0  0  0  0
  -20.7984   -7.0744   22.9132 C   0  0  0  0  0  0  0  0  0  0  0  0
  -29.2886  -19.6429   19.9142 C   0  0  0  0  0  0  0  0  0  0  0  0
  -19.2734   -7.0392   25.2489 C   0  0  0  0  0  0  0  0  0  0  0  0
  -21.0251   -6.0942   23.8793 C   0  0  0  0  0  0  0  0  0  0  0  0
  -24.5954  -11.6697   20.7118 C   0  0  0  0  0  0  0  0  0  0  0  0
  -30.6612  -17.9625   20.8883 C   0  0  0  0  0  0  0  0  0  0  0  0
  -31.5139  -19.2386   19.1787 C   0  0  0  0  0  0  0  0  0  0  0  0
  -25.2852  -13.7429   20.4652 C   0  0  0  0  0  0  0  0  0  0  0  0
  -22.9166  -13.5454   21.2393 C   0  0  0  0  0  0  0  0  0  0  0  0
  -26.3668  -27.5537   16.8400 C   0  0  0  0  0  0  0  0  0  0  0  0
  -24.9646  -28.8962   19.4388 C   0  0  0  0  0  0  0  0  0  0  0  0
  -23.4029  -28.4539   22.4409 C   0  0  0  0  0  0  0  0  0  0  0  0
  -30.7794  -14.7013   20.6667 C   0  0  0  0  0  0  0  0  0  0  0  0
  -28.0627  -30.7873   13.2728 C   0  0  0  0  0  0  0  0  0  0  0  0
  -24.1754  -26.3104   16.9280 C   0  0  0  0  0  0  0  0  0  0  0  0
  -25.4769  -26.4298   19.5807 C   0  0  0  0  0  0  0  0  0  0  0  0
  -27.9304  -30.8108   14.7934 C   0  0  0  0  0  0  0  0  0  0  0  0
  -29.6250  -12.3024   18.3025 C   0  0  0  0  0  0  0  0  0  0  0  0
  -31.1995  -22.1729   18.0390 C   0  0  0  0  0  0  0  0  0  0  0  0
  -29.7990  -22.4266   18.5020 C   0  0  0  0  0  0  0  0  0  0  0  0
  -28.5070  -29.5351   15.3992 C   0  0  0  0  0  0  0  0  0  0  0  0
  -28.1824  -12.0302   18.7323 C   0  0  0  0  0  0  0  0  0  0  0  0
  -30.5393  -12.5266   19.5050 C   0  0  0  0  0  0  0  0  0  0  0  0
  -28.6400  -13.2955   20.8743 C   0  0  0  0  0  0  0  0  0  0  0  0
  -30.1984  -21.0478   18.0465 C   0  0  0  0  0  0  0  0  0  0  0  0
  -27.7460  -28.2979   14.9074 C   0  0  1  0  0  0  0  0  0  0  0  0
  -24.9651  -27.5347   17.3807 C   0  0  1  0  0  0  0  0  0  0  0  0
  -27.6691  -13.1184   19.6944 C   0  0  2  0  0  0  0  0  0  0  0  0
  -22.4074  -29.7402   24.3519 C   0  0  0  0  0  0  0  0  0  0  0  0
  -27.7661  -29.5361   20.4643 C   0  0  0  0  0  0  0  0  0  0  0  0
  -26.7717  -29.9311   22.7278 C   0  0  0  0  0  0  0  0  0  0  0  0
  -26.0898  -31.3612   20.8011 C   0  0  0  0  0  0  0  0  0  0  0  0
  -20.7250  -27.2773   21.9897 C   0  0  0  0  0  0  0  0  0  0  0  0
  -33.7479  -18.7397   18.5335 C   0  0  0  0  0  0  0  0  0  0  0  0
  -30.8645  -16.8652   21.8790 C   0  0  0  0  0  0  0  0  0  0  0  0
  -25.9400  -20.4103   18.8175 C   0  0  0  0  0  0  0  0  0  1  0  0
  -26.9387  -19.5453   19.5617 C   0  0  0  0  0  0  0  0  0  0  0  0
  -25.2880  -28.9660   20.9117 C   0  0  1  0  0  0  0  0  0  0  0  0
  -22.1374  -29.0628   23.0174 C   0  0  2  0  0  0  0  0  0  0  0  0
  -26.4753  -29.9237   21.2130 C   0  0  0  0  0  0  0  0  0  0  0  0
  -25.8609  -11.5545   20.3004 N   0  0  0  0  0  0  0  0  0  0  0  0
  -31.7033  -18.2437   20.0743 N   0  0  0  0  0  0  0  0  0  0  0  0
  -26.2531  -12.8321   20.1590 N   0  0  0  0  0  0  0  0  0  0  0  0
  -25.0682  -27.6336   18.8381 N   0  0  0  0  0  0  0  0  0  0  0  0
  -29.9967  -13.5716   20.3765 N   0  0  0  0  0  0  0  0  0  0  0  0
  -25.5112  -15.0709   20.3777 N   0  0  0  0  0  0  0  0  0  0  0  0
  -21.8928  -12.6518   21.5824 N   0  0  0  0  0  0  0  0  0  0  0  0
  -26.4863  -28.1679   15.6080 N   0  0  0  0  0  0  0  0  0  0  0  0
  -24.0451  -29.3247   21.5861 N   0  0  0  0  0  0  0  0  0  0  0  0
  -30.1872  -15.6466   21.4952 N   0  0  0  0  0  0  0  0  0  0  0  0
  -21.1041  -28.0093   23.2256 N   0  3  0  0  0  0  0  0  0  0  0  0
  -22.6942  -14.7792   21.2813 O   0  0  0  0  0  0  0  0  0  0  0  0
  -27.2732  -27.0499   17.4930 O   0  0  0  0  0  0  0  0  0  0  0  0
  -24.6253  -29.9227   18.8449 O   0  0  0  0  0  0  0  0  0  0  0  0
  -23.7856  -27.3208   22.7237 O   0  0  0  0  0  0  0  0  0  0  0  0
  -31.9193  -14.8584   20.2163 O   0  0  0  0  0  0  0  0  0  0  0  0
  -21.5552   -7.0938   21.7536 O   0  0  0  0  0  0  0  0  0  0  0  0
  -25.6085  -21.5392   19.6250 O   0  0  0  0  0  0  0  0  0  1  0  0
  -28.0978  -20.3175   19.8505 O   0  0  0  0  0  0  0  0  0  0  0  0
  -32.5727  -19.5210   18.3551 O   0  0  0  0  0  0  0  0  0  0  0  0
  -18.5421   -7.0233   26.3710 F   0  0  0  0  0  0  0  0  0  0  0  0
  -21.9747   -5.1675   23.6916 F   0  0  0  0  0  0  0  0  0  0  0  0
  1  2  1  0  0  0  0
  1  5  2  0  0  0  0
  2  6  2  0  0  0  0
  3  8  2  0  0  0  0
  3 16  1  0  0  0  0
  4  9  1  0  0  0  0
  4 16  2  0  0  0  0
  5 18  1  0  0  0  0
  6 20  1  0  0  0  0
  7 10  2  0  0  0  0
  7 19  1  0  0  0  0
  8 23  1  0  0  0  0
  9 23  2  0  0  0  0
 10 24  1  0  0  0  0
 11 12  2  0  0  0  0
 11 25  1  0  0  0  0
 12 27  1  0  0  0  0
 13 21  1  0  0  0  0
 13 24  2  0  0  0  0
 14 26  1  0  0  0  0
 14 30  2  0  0  0  0
 15 27  2  0  0  0  0
 15 28  1  0  0  0  0
 16 29  1  0  0  0  0
 17 29  1  0  0  0  0
 17 32  2  0  0  0  0
 17 33  1  0  0  0  0
 18 20  2  0  0  0  0
 18 38  1  0  0  0  0
 19 21  2  0  0  0  0
 19 39  1  0  0  0  0
 20 50  1  0  0  0  0
 21 40  1  0  0  0  0
 22 26  2  0  0  0  0
 22 31  1  0  0  0  0
 22 49  1  0  0  0  0
 23 81  1  0  0  0  0
 24 82  1  0  0  0  0
 25 28  2  0  0  0  0
 25 81  1  0  0  0  0
 26 83  1  0  0  0  0
 27 85  1  0  0  0  0
 28 86  1  0  0  0  0
 29 65  2  0  0  0  0
 30 59  1  0  0  0  0
 30 66  1  0  0  0  0
 31 66  2  0  0  0  0
 31 84  1  0  0  0  0
 32 67  1  0  0  0  0
 32 70  1  0  0  0  0
 33 71  1  0  0  0  0
 33 76  2  0  0  0  0
 34 51  1  0  0  0  0
 34 72  1  0  0  0  0
 34 77  2  0  0  0  0
 35 62  1  0  0  0  0
 35 68  1  0  0  0  0
 35 78  2  0  0  0  0
 36 63  1  0  0  0  0
 36 73  1  0  0  0  0
 36 79  2  0  0  0  0
 37 69  1  0  0  0  0
 37 74  1  0  0  0  0
 37 80  2  0  0  0  0
 38 41  1  0  0  0  0
 39 51  1  0  0  0  0
 40 68  1  0  0  0  0
 41 45  1  0  0  0  0
 42 46  1  0  0  0  0
 42 47  1  0  0  0  0
 43 44  1  0  0  0  0
 43 49  1  0  0  0  0
 44 49  1  0  0  0  0
 45 50  1  0  0  0  0
 46 52  1  0  0  0  0
 47 69  1  0  0  0  0
 48 52  1  0  0  0  0
 48 69  1  0  0  0  0
 50 72  1  0  0  0  0
 51 68  1  0  0  0  0
 52 67  1  0  0  0  0
 53 63  1  0  0  0  0
 54 64  1  0  0  0  0
 55 64  1  0  0  0  0
 56 64  1  0  0  0  0
 57 75  1  0  0  0  0
 58 84  1  0  0  0  0
 59 74  1  0  0  0  0
 60 61  1  0  0  0  0
 60 82  1  0  0  0  0
 61 83  1  0  0  0  0
 62 64  1  0  0  0  0
 62 73  1  0  0  0  0
 63 75  1  0  0  0  0
 65 67  1  0  0  0  0
M  CHG  1  75   1
M  ISO  4  37 100  60 101  74 100  82 101
M  END
> <Batch ID>
0159

> <Smiles>
CNC(C)C(=O)NC(C(=O)N1Cc2cc([101O:1][101CH2:1]COc3cc(C[100NH:0][100C:0](=O)N4CCCC(n5nc(-c6ccc(Oc7ccc(F)cc7F)cc6)c(C(N)=O)c5N)C4)nc(OC)c3C3CC3)ccc2CC1C(=O)NC1CCCc2ccccc21)C(C)(C)C

> <Shape>
0.300

> <Color>
0.198

> <Negative vol penalty>
0.000

$$$$

  -OEChem-04052322073D

 88 98  0     1  0  0  0  0  0999 V2000
  -21.8797  -31.3241   13.5217 C   0  0  0  0  0  0  0  0  0  0  0  0
  -22.6906  -30.5323   14.3286 C   0  0  0  0  0  0  0  0  0  0  0  0
  -24.3823   -9.3404   22.4585 C   0  0  0  0  0  0  0  0  0  0  0  0
  -24.5109   -8.8339   20.0997 C   0  0  0  0  0  0  0  0  0  0  0  0
  -21.8877  -32.7100   13.6736 C   0  0  0  0  0  0  0  0  0  0  0  0
  -23.5108  -31.1263   15.2872 C   0  0  0  0  0  0  0  0  0  0  0  0
  -23.3395  -28.7293   19.7448 C   0  0  0  0  0  0  0  0  0  0  0  0
  -23.2137   -8.5853   22.5570 C   0  0  0  0  0  0  0  0  0  0  0  0
  -23.3423   -8.0787   20.1982 C   0  0  0  0  0  0  0  0  0  0  0  0
  -24.0710  -27.5481   19.8611 C   0  0  0  0  0  0  0  0  0  0  0  0
  -22.3689   -5.3172   22.7538 C   0  0  0  0  0  0  0  0  0  0  0  0
  -22.2547   -4.4368   23.8296 C   0  0  0  0  0  0  0  0  0  0  0  0
  -28.5612  -22.7933   19.5612 C   0  0  0  0  0  0  0  0  0  0  0  0
  -25.8258  -28.7537   20.9955 C   0  0  0  0  0  0  0  0  0  0  0  0
  -29.0098  -23.5170   21.8180 C   0  0  0  0  0  0  0  0  0  0  0  0
  -20.2812   -5.6107   24.5809 C   0  0  0  0  0  0  0  0  0  0  0  0
  -25.0309   -9.4648   21.2298 C   0  0  0  0  0  0  0  0  0  0  0  0
  -27.4485  -10.0324   21.8135 C   0  0  0  0  0  0  0  0  0  0  0  0
  -22.7012  -33.3205   14.6412 C   0  0  0  0  0  0  0  0  0  0  0  0
  -23.8513  -29.9356   20.2441 C   0  0  0  0  0  0  0  0  0  0  0  0
  -23.5307  -32.5218   15.4513 C   0  0  0  0  0  0  0  0  0  0  0  0
  -27.9861  -24.0373   19.2587 C   0  0  0  0  0  0  0  0  0  0  0  0
  -25.0976  -29.9483   20.8865 C   0  0  0  0  0  0  0  0  0  0  0  0
  -27.9415  -25.0375   20.2484 C   0  0  0  0  0  0  0  0  0  0  0  0
  -28.4500  -24.7607   21.5278 C   0  0  0  0  0  0  0  0  0  0  0  0
  -29.0668  -22.5342   20.8345 C   0  0  0  0  0  0  0  0  0  0  0  0
  -22.6937   -7.9544   21.4268 C   0  0  0  0  0  0  0  0  0  0  0  0
  -25.3156  -27.5608   20.4840 C   0  0  0  0  0  0  0  0  0  0  0  0
  -21.4392   -6.3445   22.5916 C   0  0  0  0  0  0  0  0  0  0  0  0
  -21.2109   -4.5835   24.7432 C   0  0  0  0  0  0  0  0  0  0  0  0
  -20.3954   -6.4912   23.5051 C   0  0  0  0  0  0  0  0  0  0  0  0
  -26.2378  -10.2452   21.1274 C   0  0  0  0  0  0  0  0  0  0  0  0
  -28.2749  -11.0363   21.3710 C   0  0  0  0  0  0  0  0  0  0  0  0
  -27.7952   -9.0180   22.7656 C   0  0  0  0  0  0  0  0  0  0  0  0
  -24.6601  -32.7301   18.9633 C   0  0  0  0  0  0  0  0  0  0  0  0
  -25.0810  -33.5874   22.0633 C   0  0  0  0  0  0  0  0  0  0  0  0
  -25.7022  -32.6227   25.2774 C   0  0  0  0  0  0  0  0  0  0  0  0
  -29.3378  -16.1432   20.1079 C   0  0  0  0  0  0  0  0  0  0  0  0
  -22.7112  -34.8257   14.7362 C   0  0  0  0  0  0  0  0  0  0  0  0
  -23.0379  -31.1961   20.1344 C   0  0  0  0  0  0  0  0  0  0  0  0
  -27.4882  -24.2885   17.8571 C   0  0  0  0  0  0  0  0  0  0  0  0
  -25.6826  -31.2134   21.4574 C   0  0  0  0  0  0  0  0  0  0  0  0
  -23.3296  -35.3502   16.0296 C   0  0  0  0  0  0  0  0  0  0  0  0
  -26.5701  -25.5039   17.7482 C   0  0  0  0  0  0  0  0  0  0  0  0
  -27.7439  -14.3176   17.5671 C   0  0  0  0  0  0  0  0  0  0  0  0
  -24.6424  -34.6310   16.3236 C   0  0  0  0  0  0  0  0  0  0  0  0
  -27.1735  -26.6948   18.4869 C   0  0  0  0  0  0  0  0  0  0  0  0
  -27.3013  -13.0661   18.3247 C   0  0  0  0  0  0  0  0  0  0  0  0
  -28.3707  -19.5265   20.0275 C   0  0  0  0  0  0  0  0  0  0  0  0
  -30.8144  -19.2407   20.5882 C   0  0  0  0  0  0  0  0  0  0  0  0
  -27.5520  -15.5881   18.3974 C   0  0  0  0  0  0  0  0  0  0  0  0
  -28.4550  -18.3011   19.1126 C   0  0  0  0  0  0  0  0  0  0  0  0
  -30.8571  -18.0426   19.6438 C   0  0  0  0  0  0  0  0  0  0  0  0
  -27.7474  -14.2831   20.4896 C   0  0  0  0  0  0  0  0  0  0  0  0
  -24.4157  -33.1271   16.5192 C   0  0  1  0  0  0  0  0  0  0  0  0
  -27.3211  -26.3869   19.9794 C   0  0  1  0  0  0  0  0  0  1  0  0
  -23.8840  -32.4626   20.2218 C   0  0  1  0  0  0  0  0  0  0  0  0
  -27.9825  -12.9847   19.7024 C   0  0  1  0  0  0  0  0  0  0  0  0
  -29.7256  -20.2264   20.1563 C   0  0  0  0  0  0  0  0  0  0  0  0
  -28.4091  -25.7773   22.6250 C   0  0  0  0  0  0  0  0  0  0  0  0
  -26.0266  -33.5526   27.5855 C   0  0  0  0  0  0  0  0  0  0  0  0
  -27.8929  -34.4937   21.3004 C   0  0  0  0  0  0  0  0  0  0  0  0
  -28.4734  -34.5089   23.7358 C   0  0  0  0  0  0  0  0  0  0  0  0
  -26.6928  -36.0265   22.8704 C   0  0  0  0  0  0  0  0  0  0  0  0
  -23.3631  -31.1445   26.3274 C   0  0  0  0  0  0  0  0  0  0  0  0
  -26.2340  -33.5458   23.0370 C   0  0  1  0  0  0  0  0  0  0  0  0
  -25.0276  -32.9886   26.5872 C   0  0  2  0  0  0  0  0  0  0  0  0
  -27.3134  -34.6201   22.7235 C   0  0  0  0  0  0  0  0  0  0  0  0
  -26.2864  -11.3013   20.3112 N   0  0  0  0  0  0  0  0  0  0  0  0
  -27.5376  -11.7613   20.4817 N   0  0  0  0  0  0  0  0  0  0  0  0
  -24.8520  -32.4211   21.3197 N   0  0  0  0  0  0  0  0  0  0  0  0
  -28.1839  -15.4478   19.7167 N   0  0  0  0  0  0  0  0  0  0  0  0
  -29.5428  -17.4083   19.5372 N   0  0  0  0  0  0  0  0  0  0  0  0
  -29.5530  -11.3609   21.6599 N   0  0  0  0  0  0  0  0  0  0  0  0
  -28.3481   -7.8197   22.2937 N   0  0  0  0  0  0  0  0  0  0  0  0
  -29.6266  -21.3013   21.1190 N   0  0  0  0  0  0  0  0  0  0  0  0
  -23.8735  -32.8647   17.8352 N   0  0  0  0  0  0  0  0  0  0  0  0
  -25.6482  -33.6581   24.3684 N   0  0  0  0  0  0  0  0  0  0  0  0
  -24.3855  -31.7875   27.1923 N   0  3  0  0  0  0  0  0  0  0  0  0
  -27.6046   -9.1633   23.9969 O   0  0  0  0  0  0  0  0  0  0  0  0
  -25.8819  -32.8100   19.0124 O   0  0  0  0  0  0  0  0  0  0  0  0
  -24.4040  -34.6145   21.9713 O   0  0  0  0  0  0  0  0  0  0  0  0
  -26.2281  -31.5292   25.0817 O   0  0  0  0  0  0  0  0  0  0  0  0
  -30.1383  -15.6622   20.9197 O   0  0  0  0  0  0  0  0  0  0  0  0
  -21.5535   -7.2173   21.5226 O   0  0  0  0  0  0  0  0  0  0  0  0
  -26.0358  -26.4034   20.5989 O   0  0  0  0  0  0  0  0  0  1  0  0
  -21.1005   -3.7370   25.7753 F   0  0  0  0  0  0  0  0  0  0  0  0
  -19.4986   -7.4754   23.3538 F   0  0  0  0  0  0  0  0  0  0  0  0
  1  2  1  0  0  0  0
  1  5  2  0  0  0  0
  2  6  2  0  0  0  0
  3  8  2  0  0  0  0
  3 17  1  0  0  0  0
  4  9  1  0  0  0  0
  4 17  2  0  0  0  0
  5 19  1  0  0  0  0
  6 21  1  0  0  0  0
  7 10  2  0  0  0  0
  7 20  1  0  0  0  0
  8 27  1  0  0  0  0
  9 27  2  0  0  0  0
 10 28  1  0  0  0  0
 11 12  2  0  0  0  0
 11 29  1  0  0  0  0
 12 30  1  0  0  0  0
 13 22  1  0  0  0  0
 13 26  2  0  0  0  0
 14 23  1  0  0  0  0
 14 28  2  0  0  0  0
 15 25  2  0  0  0  0
 15 26  1  0  0  0  0
 16 30  2  0  0  0  0
 16 31  1  0  0  0  0
 17 32  1  0  0  0  0
 18 32  1  0  0  0  0
 18 33  2  0  0  0  0
 18 34  1  0  0  0  0
 19 21  2  0  0  0  0
 19 39  1  0  0  0  0
 20 23  2  0  0  0  0
 20 40  1  0  0  0  0
 21 55  1  0  0  0  0
 22 24  2  0  0  0  0
 22 41  1  0  0  0  0
 23 42  1  0  0  0  0
 24 25  1  0  0  0  0
 24 56  1  0  0  0  0
 25 60  1  0  0  0  0
 26 76  1  0  0  0  0
 27 85  1  0  0  0  0
 28 86  1  0  0  0  0
 29 31  2  0  0  0  0
 29 85  1  0  0  0  0
 30 87  1  0  0  0  0
 31 88  1  0  0  0  0
 32 69  2  0  0  0  0
 33 70  1  0  0  0  0
 33 74  1  0  0  0  0
 34 75  1  0  0  0  0
 34 80  2  0  0  0  0
 35 57  1  0  0  0  0
 35 77  1  0  0  0  0
 35 81  2  0  0  0  0
 36 66  1  0  0  0  0
 36 71  1  0  0  0  0
 36 82  2  0  0  0  0
 37 67  1  0  0  0  0
 37 78  1  0  0  0  0
 37 83  2  0  0  0  0
 38 72  1  0  0  0  0
 38 73  1  0  0  0  0
 38 84  2  0  0  0  0
 39 43  1  0  0  0  0
 40 57  1  0  0  0  0
 41 44  1  0  0  0  0
 42 71  1  0  0  0  0
 43 46  1  0  0  0  0
 44 47  1  0  0  0  0
 45 48  1  0  0  0  0
 45 51  1  0  0  0  0
 46 55  1  0  0  0  0
 47 56  1  0  0  0  0
 48 58  1  0  0  0  0
 49 52  1  0  0  0  0
 49 59  1  0  0  0  0
 50 53  1  0  0  0  0
 50 59  1  0  0  0  0
 51 72  1  0  0  0  0
 52 73  1  0  0  0  0
 53 73  1  0  0  0  0
 54 58  1  0  0  0  0
 54 72  1  0  0  0  0
 55 77  1  0  0  0  0
 56 86  1  0  0  0  0
 57 71  1  0  0  0  0
 58 70  1  0  0  0  0
 59 76  1  0  0  0  0
 61 67  1  0  0  0  0
 62 68  1  0  0  0  0
 63 68  1  0  0  0  0
 64 68  1  0  0  0  0
 65 79  1  0  0  0  0
 66 68  1  0  0  0  0
 66 78  1  0  0  0  0
 67 79  1  0  0  0  0
 69 70  1  0  0  0  0
M  CHG  1  79   1
M  ISO  4  38 100  56 101  73 100  86 101
M  END
> <Batch ID>
0159

> <Smiles>
CNC(C)C(=O)NC(C(=O)N1Cc2cc([101O:1][101CH:1]3CCCc4cc(NC5CC[100N:0]([100C:0](=O)N6CCCC(n7nc(-c8ccc(Oc9ccc(F)cc9F)cc8)c(C(N)=O)c7N)C6)CC5)cc(C)c43)ccc2CC1C(=O)NC1CCCc2ccccc21)C(C)(C)C

> <Shape>
0.281

> <Color>
0.084

> <Negative vol penalty>
0.000

$$$$

  -OEChem-04052322073D

 88 97  0     1  0  0  0  0  0999 V2000
  -29.4401  -36.3999   22.8258 C   0  0  0  0  0  0  0  0  0  0  0  0
  -29.6155  -35.0484   22.5461 C   0  0  0  0  0  0  0  0  0  0  0  0
  -27.4422   -7.3914   23.5949 C   0  0  0  0  0  0  0  0  0  0  0  0
  -26.4199   -6.7521   21.5013 C   0  0  0  0  0  0  0  0  0  0  0  0
  -28.2544  -36.8412   23.4116 C   0  0  0  0  0  0  0  0  0  0  0  0
  -28.6056  -34.1373   22.8531 C   0  0  0  0  0  0  0  0  0  0  0  0
  -27.1045  -29.1054   19.7015 C   0  0  0  0  0  0  0  0  0  0  0  0
  -26.5245   -6.5994   24.2849 C   0  0  0  0  0  0  0  0  0  0  0  0
  -25.5022   -5.9600   22.1913 C   0  0  0  0  0  0  0  0  0  0  0  0
  -27.4233  -27.7594   19.8760 C   0  0  0  0  0  0  0  0  0  0  0  0
  -22.6559   -6.4108   23.9594 C   0  0  0  0  0  0  0  0  0  0  0  0
  -21.3156   -6.4937   23.5821 C   0  0  0  0  0  0  0  0  0  0  0  0
  -25.3424  -27.4248   21.0494 C   0  0  0  0  0  0  0  0  0  0  0  0
  -29.3298  -23.2370   21.1876 C   0  0  0  0  0  0  0  0  0  0  0  0
  -27.4812  -21.4116   20.1710 C   0  0  0  0  0  0  0  0  0  0  0  0
  -21.3206   -4.1377   23.0467 C   0  0  0  0  0  0  0  0  0  0  0  0
  -27.3899   -7.4679   22.2031 C   0  0  0  0  0  0  0  0  0  0  0  0
  -29.5955   -7.8949   20.9947 C   0  0  0  0  0  0  0  0  0  0  0  0
  -27.2255  -35.9363   23.7170 C   0  0  0  0  0  0  0  0  0  0  0  0
  -25.9052  -29.6244   20.2101 C   0  0  0  0  0  0  0  0  0  0  0  0
  -27.4055  -34.5667   23.4447 C   0  0  0  0  0  0  0  0  0  0  0  0
  -25.0095  -28.7771   20.8778 C   0  0  0  0  0  0  0  0  0  0  0  0
  -28.2448  -23.6884   20.4362 C   0  0  0  0  0  0  0  0  0  0  0  0
  -29.4906  -21.8728   21.4306 C   0  0  0  0  0  0  0  0  0  0  0  0
  -27.3205  -22.7757   19.9279 C   0  0  0  0  0  0  0  0  0  0  0  0
  -25.5545   -5.8837   23.5831 C   0  0  0  0  0  0  0  0  0  0  0  0
  -26.5436  -26.9195   20.5525 C   0  0  0  0  0  0  0  0  0  0  0  0
  -23.3286   -5.1914   23.8803 C   0  0  0  0  0  0  0  0  0  0  0  0
  -28.5663  -20.9602   20.9223 C   0  0  0  0  0  0  0  0  0  0  0  0
  -20.6480   -5.3572   23.1258 C   0  0  0  0  0  0  0  0  0  0  0  0
  -22.6610   -4.0549   23.4240 C   0  0  0  0  0  0  0  0  0  0  0  0
  -28.3372   -8.2863   21.4898 C   0  0  0  0  0  0  0  0  0  0  0  0
  -30.0988   -9.0272   20.4022 C   0  0  0  0  0  0  0  0  0  0  0  0
  -30.2509   -6.6215   21.0640 C   0  0  0  0  0  0  0  0  0  0  0  0
  -25.1537  -31.8477   22.3539 C   0  0  0  0  0  0  0  0  0  0  0  0
  -22.1321  -31.2553   21.3336 C   0  0  0  0  0  0  0  0  0  0  0  0
  -19.9406  -29.0848   19.8730 C   0  0  0  0  0  0  0  0  0  0  0  0
  -29.3290  -14.6886   21.2646 C   0  0  0  0  0  0  0  0  0  0  0  0
  -25.9806  -36.4538   24.3931 C   0  0  0  0  0  0  0  0  0  0  0  0
  -25.5636  -31.0727   19.9902 C   0  0  0  0  0  0  0  0  0  0  0  0
  -23.6998  -29.2806   21.4252 C   0  0  0  0  0  0  0  0  0  0  0  0
  -24.8093  -35.4760   24.3436 C   0  0  0  0  0  0  0  0  0  0  0  0
  -28.7214  -13.0497   18.2205 C   0  0  0  0  0  0  0  0  0  0  0  0
  -25.2692  -34.0724   24.7245 C   0  0  0  0  0  0  0  0  0  0  0  0
  -28.6757  -11.5884   18.6665 C   0  0  0  0  0  0  0  0  0  0  0  0
  -30.2015  -18.0733   20.0275 C   0  0  0  0  0  0  0  0  0  0  0  0
  -27.6878  -17.7853   19.9377 C   0  0  0  0  0  0  0  0  0  0  0  0
  -28.0197  -13.9749   19.2162 C   0  0  0  0  0  0  0  0  0  0  0  0
  -30.2666  -16.9621   21.0743 C   0  0  0  0  0  0  0  0  0  0  0  0
  -27.8100  -16.6841   20.9885 C   0  0  0  0  0  0  0  0  0  0  0  0
  -28.4599  -12.3786   21.0533 C   0  0  0  0  0  0  0  0  0  0  0  0
  -26.3232  -33.5510   23.7402 C   0  0  1  0  0  0  0  0  0  0  0  0
  -24.5514  -31.6076   20.9985 C   0  0  1  0  0  0  0  0  0  0  0  0
  -29.2082  -11.4319   20.1020 C   0  0  1  0  0  0  0  0  0  0  0  0
  -28.8466  -18.7817   20.0028 C   0  0  0  0  0  0  0  0  0  0  0  0
  -26.1508  -23.2350   19.1208 C   0  0  0  0  0  0  0  0  0  0  0  0
  -30.7042  -22.0301   23.6332 C   0  0  0  0  0  0  0  0  0  0  0  0
  -17.5304  -28.8681   19.2087 C   0  0  0  0  0  0  0  0  0  0  0  0
  -21.3725  -30.7865   24.2513 C   0  0  0  0  0  0  0  0  0  0  0  0
  -19.2761  -29.6739   23.4542 C   0  0  0  0  0  0  0  0  0  0  0  0
  -19.6875  -32.0776   22.9292 C   0  0  0  0  0  0  0  0  0  0  0  0
  -20.6371  -28.7627   17.0147 C   0  0  0  0  0  0  0  0  0  0  0  0
  -28.0937  -25.1532   20.1874 C   0  0  0  0  0  0  0  0  0  1  0  0
  -30.6574  -21.4073   22.2377 C   0  0  2  0  0  0  0  0  0  0  0  0
  -21.0350  -30.3005   21.7382 C   0  0  1  0  0  0  0  0  0  0  0  0
  -18.9256  -29.2747   18.7603 C   0  0  2  0  0  0  0  0  0  0  0  0
  -20.3683  -30.7002   23.0847 C   0  0  0  0  0  0  0  0  0  0  0  0
  -28.0583   -9.5673   21.2342 N   0  0  0  0  0  0  0  0  0  0  0  0
  -29.1485   -9.9906   20.5721 N   0  0  0  0  0  0  0  0  0  0  0  0
  -23.4140  -30.7056   21.1904 N   0  0  0  0  0  0  0  0  0  0  0  0
  -28.5329  -13.7611   20.5760 N   0  0  0  0  0  0  0  0  0  0  0  0
  -29.1328  -16.0457   20.9574 N   0  0  0  0  0  0  0  0  0  0  0  0
  -31.2571   -9.2828   19.7577 N   0  0  0  0  0  0  0  0  0  0  0  0
  -29.5925   -5.5655   21.7088 N   0  0  0  0  0  0  0  0  0  0  0  0
  -25.6947  -33.1092   22.5138 N   0  0  0  0  0  0  0  0  0  0  0  0
  -20.1121  -30.2375   20.6100 N   0  0  0  0  0  0  0  0  0  0  0  0
  -19.2967  -28.4516   17.5746 N   0  3  0  0  0  0  0  0  0  0  0  0
  -31.3936   -6.4304   20.5832 O   0  0  0  0  0  0  0  0  0  0  0  0
  -25.1282  -30.9551   23.1931 O   0  0  0  0  0  0  0  0  0  0  0  0
  -21.8604  -32.4436   21.1444 O   0  0  0  0  0  0  0  0  0  0  0  0
  -20.5204  -28.0194   20.0711 O   0  0  0  0  0  0  0  0  0  0  0  0
  -30.1672  -14.3289   22.1007 O   0  0  0  0  0  0  0  0  0  0  0  0
  -31.8659  -21.7522   21.5519 O   0  0  0  0  0  0  0  0  0  0  0  0
  -24.6590   -5.1105   24.2560 O   0  0  0  0  0  0  0  0  0  0  0  0
  -28.7101  -19.6169   21.1504 O   0  0  0  0  0  0  0  0  0  0  0  0
  -26.8549  -25.5961   20.7260 O   0  0  0  0  0  0  0  0  0  1  0  0
  -19.3605   -5.4366   22.7649 F   0  0  0  0  0  0  0  0  0  0  0  0
  -23.3016   -2.8804   23.3469 F   0  0  0  0  0  0  0  0  0  0  0  0
  1  2  1  0  0  0  0
  1  5  2  0  0  0  0
  2  6  2  0  0  0  0
  3  8  2  0  0  0  0
  3 17  1  0  0  0  0
  4  9  1  0  0  0  0
  4 17  2  0  0  0  0
  5 19  1  0  0  0  0
  6 21  1  0  0  0  0
  7 10  2  0  0  0  0
  7 20  1  0  0  0  0
  8 26  1  0  0  0  0
  9 26  2  0  0  0  0
 10 27  1  0  0  0  0
 11 12  2  0  0  0  0
 11 28  1  0  0  0  0
 12 30  1  0  0  0  0
 13 22  1  0  0  0  0
 13 27  2  0  0  0  0
 14 23  1  0  0  0  0
 14 24  2  0  0  0  0
 15 25  1  0  0  0  0
 15 29  2  0  0  0  0
 16 30  2  0  0  0  0
 16 31  1  0  0  0  0
 17 32  1  0  0  0  0
 18 32  1  0  0  0  0
 18 33  2  0  0  0  0
 18 34  1  0  0  0  0
 19 21  2  0  0  0  0
 19 39  1  0  0  0  0
 20 22  2  0  0  0  0
 20 40  1  0  0  0  0
 21 52  1  0  0  0  0
 22 41  1  0  0  0  0
 23 25  2  0  0  0  0
 23 63  1  0  0  0  0
 24 29  1  0  0  0  0
 24 64  1  0  0  0  0
 25 56  1  0  0  0  0
 26 84  1  0  0  0  0
 27 86  1  0  0  0  0
 28 31  2  0  0  0  0
 28 84  1  0  0  0  0
 29 85  1  0  0  0  0
 30 87  1  0  0  0  0
 31 88  1  0  0  0  0
 32 68  2  0  0  0  0
 33 69  1  0  0  0  0
 33 73  1  0  0  0  0
 34 74  1  0  0  0  0
 34 78  2  0  0  0  0
 35 53  1  0  0  0  0
 35 75  1  0  0  0  0
 35 79  2  0  0  0  0
 36 65  1  0  0  0  0
 36 70  1  0  0  0  0
 36 80  2  0  0  0  0
 37 66  1  0  0  0  0
 37 76  1  0  0  0  0
 37 81  2  0  0  0  0
 38 71  1  0  0  0  0
 38 72  1  0  0  0  0
 38 82  2  0  0  0  0
 39 42  1  0  0  0  0
 40 53  1  0  0  0  0
 41 70  1  0  0  0  0
 42 44  1  0  0  0  0
 43 45  1  0  0  0  0
 43 48  1  0  0  0  0
 44 52  1  0  0  0  0
 45 54  1  0  0  0  0
 46 49  1  0  0  0  0
 46 55  1  0  0  0  0
 47 50  1  0  0  0  0
 47 55  1  0  0  0  0
 48 71  1  0  0  0  0
 49 72  1  0  0  0  0
 50 72  1  0  0  0  0
 51 54  1  0  0  0  0
 51 71  1  0  0  0  0
 52 75  1  0  0  0  0
 53 70  1  0  0  0  0
 54 69  1  0  0  0  0
 55 85  1  0  0  0  0
 57 64  1  0  0  0  0
 58 66  1  0  0  0  0
 59 67  1  0  0  0  0
 60 67  1  0  0  0  0
 61 67  1  0  0  0  0
 62 77  1  0  0  0  0
 63 86  1  0  0  0  0
 64 83  1  0  0  0  0
 65 67  1  0  0  0  0
 65 76  1  0  0  0  0
 66 77  1  0  0  0  0
 68 69  1  0  0  0  0
M  CHG  1  77   1
M  ISO  4  38 100  63 101  72 100  86 101
M  END
> <Batch ID>
0159

> <Smiles>
CNC(C)C(=O)NC(C(=O)N1Cc2cc([101O:1][101CH2:1]c3cc(C(C)O)c(OC4CC[100N:0]([100C:0](=O)N5CCCC(n6nc(-c7ccc(Oc8ccc(F)cc8F)cc7)c(C(N)=O)c6N)C5)CC4)cc3C)ccc2CC1C(=O)NC1CCCc2ccccc21)C(C)(C)C

> <Shape>
0.268

> <Color>
0.069

> <Negative vol penalty>
0.000

$$$$

  -OEChem-04052322073D

 87 96  0     1  0  0  0  0  0999 V2000
  -26.7626  -35.6200   22.1839 C   0  0  0  0  0  0  0  0  0  0  0  0
  -27.1873  -34.2972   22.1097 C   0  0  0  0  0  0  0  0  0  0  0  0
  -23.9335  -15.2051   18.6015 C   0  0  0  0  0  0  0  0  0  0  0  0
  -25.4945  -16.2143   20.1449 C   0  0  0  0  0  0  0  0  0  0  0  0
  -25.5090  -35.9196   22.7154 C   0  0  0  0  0  0  0  0  0  0  0  0
  -26.3589  -33.2734   22.5680 C   0  0  0  0  0  0  0  0  0  0  0  0
  -26.1779  -29.3454   19.3769 C   0  0  0  0  0  0  0  0  0  0  0  0
  -24.5857  -13.9803   18.7427 C   0  0  0  0  0  0  0  0  0  0  0  0
  -26.1467  -14.9894   20.2861 C   0  0  0  0  0  0  0  0  0  0  0  0
  -27.2594  -28.4656   19.3881 C   0  0  0  0  0  0  0  0  0  0  0  0
  -28.4424  -12.2147   20.7767 C   0  0  0  0  0  0  0  0  0  0  0  0
  -29.8366  -12.2141   20.7362 C   0  0  0  0  0  0  0  0  0  0  0  0
  -30.4770  -25.4357   16.7655 C   0  0  0  0  0  0  0  0  0  0  0  0
  -25.9931  -26.9361   20.7579 C   0  0  0  0  0  0  0  0  0  0  0  0
  -32.1143  -26.7481   17.9631 C   0  0  0  0  0  0  0  0  0  0  0  0
  -29.7721  -13.1374   18.5045 C   0  0  0  0  0  0  0  0  0  0  0  0
  -24.3880  -16.3222   19.3026 C   0  0  0  0  0  0  0  0  0  0  0  0
  -22.6407  -18.0732   19.9262 C   0  0  0  0  0  0  0  0  0  0  0  0
  -24.6608  -34.8982   23.1715 C   0  0  0  0  0  0  0  0  0  0  0  0
  -24.9978  -29.0316   20.0663 C   0  0  0  0  0  0  0  0  0  0  0  0
  -25.0932  -33.5598   23.1073 C   0  0  0  0  0  0  0  0  0  0  0  0
  -30.1040  -24.8138   17.9570 C   0  0  0  0  0  0  0  0  0  0  0  0
  -24.8972  -27.8125   20.7518 C   0  0  0  0  0  0  0  0  0  0  0  0
  -31.4822  -26.4028   16.7685 C   0  0  0  0  0  0  0  0  0  0  0  0
  -31.7412  -26.1263   19.1546 C   0  0  0  0  0  0  0  0  0  0  0  0
  -30.7360  -25.1591   19.1516 C   0  0  0  0  0  0  0  0  0  0  0  0
  -25.6923  -13.8724   19.5850 C   0  0  0  0  0  0  0  0  0  0  0  0
  -27.1681  -27.2621   20.0811 C   0  0  0  0  0  0  0  0  0  0  0  0
  -27.7130  -12.6766   19.6811 C   0  0  0  0  0  0  0  0  0  0  0  0
  -30.5015  -12.6755   19.6001 C   0  0  0  0  0  0  0  0  0  0  0  0
  -28.3778  -13.1380   18.5450 C   0  0  0  0  0  0  0  0  0  0  0  0
  -23.7150  -17.5879   19.1567 C   0  0  0  0  0  0  0  0  0  0  0  0
  -22.3684  -19.3098   19.3943 C   0  0  0  0  0  0  0  0  0  0  0  0
  -21.9507  -17.4608   21.0238 C   0  0  0  0  0  0  0  0  0  0  0  0
  -23.3940  -30.3395   22.4790 C   0  0  0  0  0  0  0  0  0  0  0  0
  -21.2161  -28.0443   21.7639 C   0  0  0  0  0  0  0  0  0  0  0  0
  -20.5703  -24.9962   20.3716 C   0  0  0  0  0  0  0  0  0  0  0  0
  -25.6975  -23.2213   16.3256 C   0  0  0  0  0  0  0  0  0  0  0  0
  -23.3339  -35.2748   23.7816 C   0  0  0  0  0  0  0  0  0  0  0  0
  -23.8306  -29.9793   20.0223 C   0  0  0  0  0  0  0  0  0  0  0  0
  -23.6451  -27.4194   21.4909 C   0  0  0  0  0  0  0  0  0  0  0  0
  -22.3635  -34.1024   23.9003 C   0  0  0  0  0  0  0  0  0  0  0  0
  -22.6221  -21.7929   15.3333 C   0  0  0  0  0  0  0  0  0  0  0  0
  -23.0695  -32.8819   24.4823 C   0  0  0  0  0  0  0  0  0  0  0  0
  -22.4606  -20.5781   16.2429 C   0  0  0  0  0  0  0  0  0  0  0  0
  -29.2400  -22.5562   17.0051 C   0  0  0  0  0  0  0  0  0  0  0  0
  -24.0796  -21.9790   14.9331 C   0  0  0  0  0  0  0  0  0  0  0  0
  -27.8489  -21.9482   16.8868 C   0  0  0  0  0  0  0  0  0  0  0  0
  -27.6567  -24.2789   17.4093 C   0  0  0  0  0  0  0  0  0  0  0  0
  -24.8528  -20.9339   17.0450 C   0  0  0  0  0  0  0  0  0  0  0  0
  -29.0109  -23.7687   17.9220 C   0  0  2  0  0  0  0  0  0  0  0  0
  -24.2131  -32.4196   23.5713 C   0  0  1  0  0  0  0  0  0  0  0  0
  -22.8624  -29.7893   21.1858 C   0  0  1  0  0  0  0  0  0  0  0  0
  -23.3883  -20.6876   17.4628 C   0  0  2  0  0  0  0  0  0  0  0  0
  -31.8812  -27.0678   15.4945 C   0  0  0  0  0  0  0  0  0  0  0  0
  -32.4360  -26.5167   20.4187 C   0  0  0  0  0  0  0  0  0  0  0  0
  -18.7024  -23.3686   19.9728 C   0  0  0  0  0  0  0  0  0  0  0  0
  -30.0348  -24.4063   22.7352 C   0  0  0  0  0  0  0  0  0  0  0  0
  -21.3292  -27.2003   24.6939 C   0  0  0  0  0  0  0  0  0  0  0  0
  -20.2243  -25.0495   24.0447 C   0  0  0  0  0  0  0  0  0  0  0  0
  -19.0342  -27.2146   23.7002 C   0  0  0  0  0  0  0  0  0  0  0  0
  -20.8890  -25.1719   17.4345 C   0  0  0  0  0  0  0  0  0  0  0  0
  -28.3735  -25.5779   21.2501 C   0  0  0  0  0  0  0  0  0  1  0  0
  -20.9820  -26.6189   22.2024 C   0  0  1  0  0  0  0  0  0  0  0  0
  -19.4925  -24.5378   19.4059 C   0  0  2  0  0  0  0  0  0  0  0  0
  -29.8471  -25.2499   21.4812 C   0  0  2  0  0  0  0  0  0  0  0  0
  -20.4168  -26.5288   23.6481 C   0  0  0  0  0  0  0  0  0  0  0  0
  -24.0988  -18.4462   18.2080 N   0  0  0  0  0  0  0  0  0  0  0  0
  -23.2611  -19.4832   18.3779 N   0  0  0  0  0  0  0  0  0  0  0  0
  -22.5336  -28.3823   21.4234 N   0  0  0  0  0  0  0  0  0  0  0  0
  -24.9590  -22.0541   16.1012 N   0  0  0  0  0  0  0  0  0  0  0  0
  -26.9460  -23.0964   16.9337 N   0  0  0  0  0  0  0  0  0  0  0  0
  -21.4548  -20.2550   19.7015 N   0  0  0  0  0  0  0  0  0  0  0  0
  -22.3589  -16.1871   21.4426 N   0  0  0  0  0  0  0  0  0  0  0  0
  -30.3579  -24.5285   20.3594 N   0  0  0  0  0  0  0  0  0  0  0  0
  -23.6914  -31.6883   22.4366 N   0  0  0  0  0  0  0  0  0  0  0  0
  -20.1256  -26.0150   21.1874 N   0  0  0  0  0  0  0  0  0  0  0  0
  -20.1014  -24.1114   18.1143 N   0  3  0  0  0  0  0  0  0  0  0  0
  -20.9897  -18.0195   21.6050 O   0  0  0  0  0  0  0  0  0  0  0  0
  -23.5234  -29.5957   23.4443 O   0  0  0  0  0  0  0  0  0  0  0  0
  -20.2638  -28.8271   21.7181 O   0  0  0  0  0  0  0  0  0  0  0  0
  -21.6933  -24.4975   20.4020 O   0  0  0  0  0  0  0  0  0  0  0  0
  -25.2776  -24.3278   15.9604 O   0  0  0  0  0  0  0  0  0  0  0  0
  -26.3288  -12.6773   19.7233 O   0  0  0  0  0  0  0  0  0  0  0  0
  -28.2293  -26.3962   20.0943 O   0  0  0  0  0  0  0  0  0  1  0  0
  -31.8404  -12.6763   19.5618 F   0  0  0  0  0  0  0  0  0  0  0  0
  -27.6825  -13.5841   17.4899 F   0  0  0  0  0  0  0  0  0  0  0  0
  1  2  1  0  0  0  0
  1  5  2  0  0  0  0
  2  6  2  0  0  0  0
  3  8  2  0  0  0  0
  3 17  1  0  0  0  0
  4  9  1  0  0  0  0
  4 17  2  0  0  0  0
  5 19  1  0  0  0  0
  6 21  1  0  0  0  0
  7 10  2  0  0  0  0
  7 20  1  0  0  0  0
  8 27  1  0  0  0  0
  9 27  2  0  0  0  0
 10 28  1  0  0  0  0
 11 12  2  0  0  0  0
 11 29  1  0  0  0  0
 12 30  1  0  0  0  0
 13 22  1  0  0  0  0
 13 24  2  0  0  0  0
 14 23  1  0  0  0  0
 14 28  2  0  0  0  0
 15 24  1  0  0  0  0
 15 25  2  0  0  0  0
 16 30  2  0  0  0  0
 16 31  1  0  0  0  0
 17 32  1  0  0  0  0
 18 32  1  0  0  0  0
 18 33  2  0  0  0  0
 18 34  1  0  0  0  0
 19 21  2  0  0  0  0
 19 39  1  0  0  0  0
 20 23  2  0  0  0  0
 20 40  1  0  0  0  0
 21 52  1  0  0  0  0
 22 26  2  0  0  0  0
 22 51  1  0  0  0  0
 23 41  1  0  0  0  0
 24 55  1  0  0  0  0
 25 26  1  0  0  0  0
 25 56  1  0  0  0  0
 26 75  1  0  0  0  0
 27 84  1  0  0  0  0
 28 85  1  0  0  0  0
 29 31  2  0  0  0  0
 29 84  1  0  0  0  0
 30 86  1  0  0  0  0
 31 87  1  0  0  0  0
 32 68  2  0  0  0  0
 33 69  1  0  0  0  0
 33 73  1  0  0  0  0
 34 74  1  0  0  0  0
 34 79  2  0  0  0  0
 35 53  1  0  0  0  0
 35 76  1  0  0  0  0
 35 80  2  0  0  0  0
 36 64  1  0  0  0  0
 36 70  1  0  0  0  0
 36 81  2  0  0  0  0
 37 65  1  0  0  0  0
 37 77  1  0  0  0  0
 37 82  2  0  0  0  0
 38 71  1  0  0  0  0
 38 72  1  0  0  0  0
 38 83  2  0  0  0  0
 39 42  1  0  0  0  0
 40 53  1  0  0  0  0
 41 70  1  0  0  0  0
 42 44  1  0  0  0  0
 43 45  1  0  0  0  0
 43 47  1  0  0  0  0
 44 52  1  0  0  0  0
 45 54  1  0  0  0  0
 46 48  1  0  0  0  0
 46 51  1  0  0  0  0
 47 71  1  0  0  0  0
 48 72  1  0  0  0  0
 49 51  1  0  0  0  0
 49 72  1  0  0  0  0
 50 54  1  0  0  0  0
 50 71  1  0  0  0  0
 52 76  1  0  0  0  0
 53 70  1  0  0  0  0
 54 69  1  0  0  0  0
 57 65  1  0  0  0  0
 58 66  1  0  0  0  0
 59 67  1  0  0  0  0
 60 67  1  0  0  0  0
 61 67  1  0  0  0  0
 62 78  1  0  0  0  0
 63 66  1  0  0  0  0
 63 85  1  0  0  0  0
 64 67  1  0  0  0  0
 64 77  1  0  0  0  0
 65 78  1  0  0  0  0
 66 75  1  0  0  0  0
 68 69  1  0  0  0  0
M  CHG  1  78   1
M  ISO  4  38 100  63 101  72 100  85 101
M  END
> <Batch ID>
0159

> <Smiles>
CNC(C)C(=O)NC(C(=O)N1Cc2cc([101O:1][101CH2:1]C(C)Nc3c(C)cc(C)cc3C3CC[100N:0]([100C:0](=O)N4CCCC(n5nc(-c6ccc(Oc7ccc(F)cc7F)cc6)c(C(N)=O)c5N)C4)C3)ccc2CC1C(=O)NC1CCCc2ccccc21)C(C)(C)C

> <Shape>
0.250

> <Color>
0.070

> <Negative vol penalty>
0.000

$$$$

  -OEChem-04052322073D

 84 93  0     1  0  0  0  0  0999 V2000
  -20.9614  -34.3218   24.2789 C   0  0  0  0  0  0  0  0  0  0  0  0
  -22.1688  -33.8135   23.8107 C   0  0  0  0  0  0  0  0  0  0  0  0
  -22.5898  -15.3072   20.6439 C   0  0  0  0  0  0  0  0  0  0  0  0
  -24.7229  -14.3533   21.2578 C   0  0  0  0  0  0  0  0  0  0  0  0
  -19.9528  -33.4516   24.6905 C   0  0  0  0  0  0  0  0  0  0  0  0
  -22.3687  -32.4346   23.7550 C   0  0  0  0  0  0  0  0  0  0  0  0
  -25.5854  -29.3478   19.5561 C   0  0  0  0  0  0  0  0  0  0  0  0
  -22.1964  -14.0817   20.1063 C   0  0  0  0  0  0  0  0  0  0  0  0
  -24.3295  -13.1277   20.7202 C   0  0  0  0  0  0  0  0  0  0  0  0
  -26.8843  -28.8415   19.5553 C   0  0  0  0  0  0  0  0  0  0  0  0
  -23.7506   -9.6499   19.8328 C   0  0  0  0  0  0  0  0  0  0  0  0
  -24.0115   -8.5002   20.5782 C   0  0  0  0  0  0  0  0  0  0  0  0
  -30.6191  -24.7941   20.1948 C   0  0  0  0  0  0  0  0  0  0  0  0
  -26.0377  -26.6850   20.2278 C   0  0  0  0  0  0  0  0  0  0  0  0
  -32.2395  -26.3525   19.2637 C   0  0  0  0  0  0  0  0  0  0  0  0
  -22.6540   -9.3614   22.3817 C   0  0  0  0  0  0  0  0  0  0  0  0
  -23.8531  -15.4430   21.2196 C   0  0  0  0  0  0  0  0  0  0  0  0
  -24.0790  -17.1548   23.0975 C   0  0  0  0  0  0  0  0  0  0  0  0
  -20.1368  -32.0612   24.6307 C   0  0  0  0  0  0  0  0  0  0  0  0
  -24.5021  -28.5281   19.9038 C   0  0  0  0  0  0  0  0  0  0  0  0
  -21.3621  -31.5450   24.1675 C   0  0  0  0  0  0  0  0  0  0  0  0
  -31.1842  -23.7931   19.4202 C   0  0  0  0  0  0  0  0  0  0  0  0
  -24.7256  -27.1827   20.2297 C   0  0  0  0  0  0  0  0  0  0  0  0
  -32.2747  -24.0644   18.5825 C   0  0  0  0  0  0  0  0  0  0  0  0
  -31.1499  -26.0831   20.1063 C   0  0  0  0  0  0  0  0  0  0  0  0
  -23.0663  -12.9920   20.1445 C   0  0  0  0  0  0  0  0  0  0  0  0
  -27.1110  -27.5107   19.8941 C   0  0  0  0  0  0  0  0  0  0  0  0
  -22.9414  -10.6554   20.3618 C   0  0  0  0  0  0  0  0  0  0  0  0
  -32.8153  -25.3367   18.4985 C   0  0  0  0  0  0  0  0  0  0  0  0
  -23.4633   -8.3559   21.8527 C   0  0  0  0  0  0  0  0  0  0  0  0
  -22.3931  -10.5112   21.6363 C   0  0  0  0  0  0  0  0  0  0  0  0
  -24.2602  -16.7089   21.7746 C   0  0  0  0  0  0  0  0  0  0  0  0
  -24.6360  -18.4101   23.1161 C   0  0  0  0  0  0  0  0  0  0  0  0
  -23.4625  -16.4933   24.2102 C   0  0  0  0  0  0  0  0  0  0  0  0
  -22.3153  -28.5593   22.2105 C   0  0  0  0  0  0  0  0  0  0  0  0
  -21.0793  -26.0703   20.5373 C   0  0  0  0  0  0  0  0  0  0  0  0
  -21.5991  -23.5207   18.3291 C   0  0  0  0  0  0  0  0  0  0  0  0
  -28.8807  -20.8786   19.8381 C   0  0  0  0  0  0  0  0  0  0  0  0
  -19.0352  -31.1609   25.1311 C   0  0  0  0  0  0  0  0  0  0  0  0
  -23.1041  -29.0824   19.8738 C   0  0  0  0  0  0  0  0  0  0  0  0
  -32.7449  -22.8207   17.8948 C   0  0  0  0  0  0  0  0  0  0  0  0
  -23.5948  -26.2558   20.5909 C   0  0  0  0  0  0  0  0  0  0  0  0
  -19.1875  -29.7080   24.6883 C   0  0  0  0  0  0  0  0  0  0  0  0
  -31.5167  -21.9113   18.0539 C   0  0  0  0  0  0  0  0  0  0  0  0
  -25.5224  -22.1560   20.2718 C   0  0  0  0  0  0  0  0  0  0  0  0
  -20.6204  -29.2315   24.9045 C   0  0  0  0  0  0  0  0  0  0  0  0
  -24.8016  -20.9309   20.8371 C   0  0  0  0  0  0  0  0  0  0  0  0
  -26.5489  -21.7554   19.2163 C   0  0  0  0  0  0  0  0  0  0  0  0
  -26.8381  -19.5360   20.2479 C   0  0  0  0  0  0  0  0  0  0  0  0
  -21.6077  -30.0550   24.0687 C   0  0  1  0  0  0  0  0  0  0  0  0
  -30.8333  -22.3354   19.3666 C   0  0  2  0  0  0  0  0  0  0  0  0
  -22.1298  -28.2936   20.7433 C   0  0  1  0  0  0  0  0  0  0  0  0
  -25.8030  -19.8726   21.3366 C   0  0  2  0  0  0  0  0  0  0  0  0
  -20.4066  -21.6336   17.1828 C   0  0  0  0  0  0  0  0  0  0  0  0
  -21.1439  -24.4593   23.1278 C   0  0  0  0  0  0  0  0  0  0  0  0
  -20.8641  -22.3808   21.7604 C   0  0  0  0  0  0  0  0  0  0  0  0
  -19.0858  -24.1300   21.7456 C   0  0  0  0  0  0  0  0  0  0  0  0
  -22.1561  -24.6435   15.6480 C   0  0  0  0  0  0  0  0  0  0  0  0
  -34.3661  -26.9430   17.6797 C   0  0  0  0  0  0  0  0  0  0  0  0
  -30.5515  -27.1964   20.9314 C   0  0  0  0  0  0  0  0  0  0  0  0
  -29.4330  -27.9265   20.1959 C   0  0  0  0  0  0  0  0  0  1  0  0
  -21.2699  -24.5728   20.5515 C   0  0  1  0  0  0  0  0  0  0  0  0
  -20.8351  -23.0898   17.0901 C   0  0  2  0  0  0  0  0  0  0  0  0
  -20.6126  -23.9034   21.7914 C   0  0  0  0  0  0  0  0  0  0  0  0
  -24.8834  -17.6079   21.0082 N   0  0  0  0  0  0  0  0  0  0  0  0
  -25.0986  -18.6313   21.8522 N   0  0  0  0  0  0  0  0  0  0  0  0
  -22.2468  -26.8464   20.5532 N   0  0  0  0  0  0  0  0  0  0  0  0
  -27.4830  -20.7602   19.7612 N   0  0  0  0  0  0  0  0  0  0  0  0
  -24.7703  -19.3352   24.0899 N   0  0  0  0  0  0  0  0  0  0  0  0
  -22.9416  -15.2065   24.0175 N   0  0  0  0  0  0  0  0  0  0  0  0
  -21.5791  -29.6275   22.6863 N   0  0  0  0  0  0  0  0  0  0  0  0
  -20.7663  -24.0851   19.2720 N   0  0  0  0  0  0  0  0  0  0  0  0
  -29.4127  -22.0656   19.3496 N   0  0  0  0  0  0  0  0  0  0  0  0
  -21.6830  -23.2537   15.8756 N   0  3  0  0  0  0  0  0  0  0  0  0
  -23.3614  -17.0341   25.3375 O   0  0  0  0  0  0  0  0  0  0  0  0
  -23.0693  -27.8468   22.8629 O   0  0  0  0  0  0  0  0  0  0  0  0
  -19.9367  -26.5342   20.5059 O   0  0  0  0  0  0  0  0  0  0  0  0
  -22.8127  -23.3684   18.4499 O   0  0  0  0  0  0  0  0  0  0  0  0
  -29.6013  -19.9938   20.3123 O   0  0  0  0  0  0  0  0  0  0  0  0
  -22.6827  -11.7959   19.6202 O   0  0  0  0  0  0  0  0  0  0  0  0
  -33.8801  -25.5999   17.6989 O   0  0  0  0  0  0  0  0  0  0  0  0
  -28.3780  -27.0140   19.8948 O   0  0  0  0  0  0  0  0  0  1  0  0
  -23.7127   -7.2511   22.5678 F   0  0  0  0  0  0  0  0  0  0  0  0
  -21.6141  -11.4733   22.1494 F   0  0  0  0  0  0  0  0  0  0  0  0
  1  2  1  0  0  0  0
  1  5  2  0  0  0  0
  2  6  2  0  0  0  0
  3  8  2  0  0  0  0
  3 17  1  0  0  0  0
  4  9  1  0  0  0  0
  4 17  2  0  0  0  0
  5 19  1  0  0  0  0
  6 21  1  0  0  0  0
  7 10  2  0  0  0  0
  7 20  1  0  0  0  0
  8 26  1  0  0  0  0
  9 26  2  0  0  0  0
 10 27  1  0  0  0  0
 11 12  2  0  0  0  0
 11 28  1  0  0  0  0
 12 30  1  0  0  0  0
 13 22  1  0  0  0  0
 13 25  2  0  0  0  0
 14 23  1  0  0  0  0
 14 27  2  0  0  0  0
 15 25  1  0  0  0  0
 15 29  2  0  0  0  0
 16 30  2  0  0  0  0
 16 31  1  0  0  0  0
 17 32  1  0  0  0  0
 18 32  1  0  0  0  0
 18 33  2  0  0  0  0
 18 34  1  0  0  0  0
 19 21  2  0  0  0  0
 19 39  1  0  0  0  0
 20 23  2  0  0  0  0
 20 40  1  0  0  0  0
 21 50  1  0  0  0  0
 22 24  2  0  0  0  0
 22 51  1  0  0  0  0
 23 42  1  0  0  0  0
 24 29  1  0  0  0  0
 24 41  1  0  0  0  0
 25 60  1  0  0  0  0
 26 80  1  0  0  0  0
 27 82  1  0  0  0  0
 28 31  2  0  0  0  0
 28 80  1  0  0  0  0
 29 81  1  0  0  0  0
 30 83  1  0  0  0  0
 31 84  1  0  0  0  0
 32 65  2  0  0  0  0
 33 66  1  0  0  0  0
 33 69  1  0  0  0  0
 34 70  1  0  0  0  0
 34 75  2  0  0  0  0
 35 52  1  0  0  0  0
 35 71  1  0  0  0  0
 35 76  2  0  0  0  0
 36 62  1  0  0  0  0
 36 67  1  0  0  0  0
 36 77  2  0  0  0  0
 37 63  1  0  0  0  0
 37 72  1  0  0  0  0
 37 78  2  0  0  0  0
 38 68  1  0  0  0  0
 38 73  1  0  0  0  0
 38 79  2  0  0  0  0
 39 43  1  0  0  0  0
 40 52  1  0  0  0  0
 41 44  1  0  0  0  0
 42 67  1  0  0  0  0
 43 46  1  0  0  0  0
 44 51  1  0  0  0  0
 45 47  1  0  0  0  0
 45 48  1  0  0  0  0
 46 50  1  0  0  0  0
 47 53  1  0  0  0  0
 48 68  1  0  0  0  0
 49 53  1  0  0  0  0
 49 68  1  0  0  0  0
 50 71  1  0  0  0  0
 51 73  1  0  0  0  0
 52 67  1  0  0  0  0
 53 66  1  0  0  0  0
 54 63  1  0  0  0  0
 55 64  1  0  0  0  0
 56 64  1  0  0  0  0
 57 64  1  0  0  0  0
 58 74  1  0  0  0  0
 59 81  1  0  0  0  0
 60 61  1  0  0  0  0
 61 82  1  0  0  0  0
 62 64  1  0  0  0  0
 62 72  1  0  0  0  0
 63 74  1  0  0  0  0
 65 66  1  0  0  0  0
M  CHG  1  74   1
M  ISO  4  38 100  61 101  73 100  82 101
M  END
> <Batch ID>
0159

> <Smiles>
CNC(C)C(=O)NC(C(=O)N1Cc2cc([101O:1][101CH2:1]Cc3cc(OC)c4c(c3)C([100NH:0][100C:0](=O)N3CCCC(n5nc(-c6ccc(Oc7ccc(F)cc7F)cc6)c(C(N)=O)c5N)C3)CC4)ccc2CC1C(=O)NC1CCCc2ccccc21)C(C)(C)C

> <Shape>
0.202

> <Color>
0.087

> <Negative vol penalty>
0.000

$$$$

  -OEChem-04052322073D

 87 96  0     1  0  0  0  0  0999 V2000
  -28.2692  -37.6538   22.1092 C   0  0  0  0  0  0  0  0  0  0  0  0
  -28.5502  -36.5950   21.2517 C   0  0  0  0  0  0  0  0  0  0  0  0
  -23.0976  -10.4432   20.6149 C   0  0  0  0  0  0  0  0  0  0  0  0
  -24.6946   -8.7638   21.2975 C   0  0  0  0  0  0  0  0  0  0  0  0
  -27.7497  -37.4023   23.3784 C   0  0  0  0  0  0  0  0  0  0  0  0
  -28.3129  -35.2840   21.6633 C   0  0  0  0  0  0  0  0  0  0  0  0
  -26.3427  -28.8949   19.0914 C   0  0  0  0  0  0  0  0  0  0  0  0
  -22.2006   -9.9820   21.5783 C   0  0  0  0  0  0  0  0  0  0  0  0
  -23.7977   -8.3026   22.2611 C   0  0  0  0  0  0  0  0  0  0  0  0
  -26.7558  -27.5634   19.0828 C   0  0  0  0  0  0  0  0  0  0  0  0
  -21.0333   -6.3587   22.3638 C   0  0  0  0  0  0  0  0  0  0  0  0
  -20.8549   -4.9799   22.4758 C   0  0  0  0  0  0  0  0  0  0  0  0
  -25.7820  -27.2534   21.2680 C   0  0  0  0  0  0  0  0  0  0  0  0
  -29.2519  -21.7992   20.2039 C   0  0  0  0  0  0  0  0  0  0  0  0
  -21.6095   -5.0685   24.7692 C   0  0  0  0  0  0  0  0  0  0  0  0
  -24.3446   -9.8341   20.4744 C   0  0  0  0  0  0  0  0  0  0  0  0
  -25.0714  -10.3599   18.0863 C   0  0  0  0  0  0  0  0  0  0  0  0
  -27.4969  -36.0881   23.8022 C   0  0  0  0  0  0  0  0  0  0  0  0
  -25.6545  -29.4195   20.1949 C   0  0  0  0  0  0  0  0  0  0  0  0
  -27.7909  -35.0147   22.9399 C   0  0  0  0  0  0  0  0  0  0  0  0
  -25.3590  -28.5912   21.2870 C   0  0  0  0  0  0  0  0  0  0  0  0
  -28.9424  -23.1498   20.0437 C   0  0  0  0  0  0  0  0  0  0  0  0
  -27.1932  -22.5641   18.4835 C   0  0  0  0  0  0  0  0  0  0  0  0
  -27.9131  -23.5323   19.1835 C   0  0  0  0  0  0  0  0  0  0  0  0
  -27.5027  -21.2134   18.6437 C   0  0  0  0  0  0  0  0  0  0  0  0
  -28.5320  -20.8310   19.5038 C   0  0  0  0  0  0  0  0  0  0  0  0
  -22.5507   -8.9117   22.4015 C   0  0  0  0  0  0  0  0  0  0  0  0
  -26.4780  -26.7432   20.1724 C   0  0  0  0  0  0  0  0  0  0  0  0
  -21.4999   -7.0925   23.4545 C   0  0  0  0  0  0  0  0  0  0  0  0
  -21.1430   -4.3348   23.6785 C   0  0  0  0  0  0  0  0  0  0  0  0
  -21.7880   -6.4474   24.6572 C   0  0  0  0  0  0  0  0  0  0  0  0
  -25.2713  -10.3098   19.4789 C   0  0  0  0  0  0  0  0  0  0  0  0
  -26.2388  -10.8872   17.5906 C   0  0  0  0  0  0  0  0  0  0  0  0
  -23.9323   -9.9652   17.3102 C   0  0  0  0  0  0  0  0  0  0  0  0
  -26.2247  -31.7292   22.3030 C   0  0  0  0  0  0  0  0  0  0  0  0
  -23.2088  -31.0455   23.2824 C   0  0  0  0  0  0  0  0  0  0  0  0
  -20.6652  -28.7773   23.4621 C   0  0  0  0  0  0  0  0  0  0  0  0
  -30.4599  -14.4026   19.9729 C   0  0  0  0  0  0  0  0  0  0  0  0
  -26.9792  -35.8633   25.2008 C   0  0  0  0  0  0  0  0  0  0  0  0
  -25.1923  -30.8508   20.1774 C   0  0  0  0  0  0  0  0  0  0  0  0
  -24.6054  -29.1005   22.4875 C   0  0  0  0  0  0  0  0  0  0  0  0
  -26.4053  -34.4659   25.4206 C   0  0  0  0  0  0  0  0  0  0  0  0
  -30.9188  -11.1746   18.5425 C   0  0  0  0  0  0  0  0  0  0  0  0
  -27.3462  -33.4073   24.8541 C   0  0  0  0  0  0  0  0  0  0  0  0
  -29.5054  -10.5914   18.4946 C   0  0  0  0  0  0  0  0  0  0  0  0
  -29.6742  -17.3476   18.7476 C   0  0  0  0  0  0  0  0  0  0  0  0
  -28.5370  -17.4079   20.9771 C   0  0  0  0  0  0  0  0  0  0  0  0
  -31.1358  -12.0263   19.7912 C   0  0  0  0  0  0  0  0  0  0  0  0
  -29.8599  -18.8640   18.8025 C   0  0  0  0  0  0  0  0  0  0  0  0
  -28.7297  -18.9226   21.0310 C   0  0  0  0  0  0  0  0  0  0  0  0
  -28.7242  -12.5096   19.9468 C   0  0  0  0  0  0  0  0  0  0  0  0
  -27.5239  -33.5801   23.3408 C   0  0  1  0  0  0  0  0  0  0  0  0
  -24.9491  -31.4173   21.5728 C   0  0  1  0  0  0  0  0  0  0  0  0
  -28.4396  -11.6887   18.6775 C   0  0  2  0  0  0  0  0  0  0  0  0
  -29.6271  -16.7341   20.1455 C   0  0  0  0  0  0  0  0  0  0  0  0
  -29.7277  -24.1667   20.8057 C   0  0  0  0  0  0  0  0  0  0  0  0
  -26.0893  -22.9749   17.5606 C   0  0  0  0  0  0  0  0  0  0  0  0
  -26.7274  -20.1751   17.8945 C   0  0  0  0  0  0  0  0  0  0  0  0
  -18.3376  -28.4945   24.3565 C   0  0  0  0  0  0  0  0  0  0  0  0
  -24.3348  -30.7023   26.0974 C   0  0  0  0  0  0  0  0  0  0  0  0
  -22.2174  -29.5231   26.7253 C   0  0  0  0  0  0  0  0  0  0  0  0
  -22.1449  -31.9054   25.9892 C   0  0  0  0  0  0  0  0  0  0  0  0
  -19.5545  -28.3324   20.7552 C   0  0  0  0  0  0  0  0  0  0  0  0
  -27.5833  -24.9859   19.0120 C   0  0  0  0  0  0  0  0  0  1  0  0
  -22.5998  -30.0947   24.2844 C   0  0  1  0  0  0  0  0  0  0  0  0
  -19.1828  -28.9001   23.1590 C   0  0  2  0  0  0  0  0  0  0  0  0
  -22.8401  -30.5470   25.7524 C   0  0  0  0  0  0  0  0  0  0  0  0
  -26.4713  -10.7685   19.8444 N   0  0  0  0  0  0  0  0  0  0  0  0
  -27.0360  -11.1118   18.6742 N   0  0  0  0  0  0  0  0  0  0  0  0
  -28.8578  -19.4800   19.6781 N   0  0  0  0  0  0  0  0  0  0  0  0
  -24.1801  -30.5086   22.4256 N   0  0  0  0  0  0  0  0  0  0  0  0
  -30.0927  -13.0485   19.9049 N   0  0  0  0  0  0  0  0  0  0  0  0
  -26.6508  -11.1759   16.3379 N   0  0  0  0  0  0  0  0  0  0  0  0
  -23.8683   -8.6462   16.8407 N   0  0  0  0  0  0  0  0  0  0  0  0
  -26.3717  -33.0626   22.6343 N   0  0  0  0  0  0  0  0  0  0  0  0
  -21.1927  -29.9655   23.9217 N   0  0  0  0  0  0  0  0  0  0  0  0
  -29.4093  -15.3064   20.0730 N   0  0  0  0  0  0  0  0  0  0  0  0
  -18.8156  -28.0282   22.0076 N   0  3  0  0  0  0  0  0  0  0  0  0
  -23.0068  -10.7632   17.0272 O   0  0  0  0  0  0  0  0  0  0  0  0
  -27.0162  -30.8266   22.5490 O   0  0  0  0  0  0  0  0  0  0  0  0
  -22.8312  -32.2196   23.2559 O   0  0  0  0  0  0  0  0  0  0  0  0
  -21.2917  -27.7309   23.3102 O   0  0  0  0  0  0  0  0  0  0  0  0
  -31.6366  -14.7785   19.9410 O   0  0  0  0  0  0  0  0  0  0  0  0
  -21.6758   -8.4615   23.3419 O   0  0  0  0  0  0  0  0  0  0  0  0
  -26.8807  -25.4433   20.1668 O   0  0  0  0  0  0  0  0  0  1  0  0
  -20.9701   -3.0109   23.7863 F   0  0  0  0  0  0  0  0  0  0  0  0
  -22.2354   -7.1472   25.7088 F   0  0  0  0  0  0  0  0  0  0  0  0
  1  2  1  0  0  0  0
  1  5  2  0  0  0  0
  2  6  2  0  0  0  0
  3  8  2  0  0  0  0
  3 16  1  0  0  0  0
  4  9  1  0  0  0  0
  4 16  2  0  0  0  0
  5 18  1  0  0  0  0
  6 20  1  0  0  0  0
  7 10  2  0  0  0  0
  7 19  1  0  0  0  0
  8 27  1  0  0  0  0
  9 27  2  0  0  0  0
 10 28  1  0  0  0  0
 11 12  2  0  0  0  0
 11 29  1  0  0  0  0
 12 30  1  0  0  0  0
 13 21  1  0  0  0  0
 13 28  2  0  0  0  0
 14 22  2  0  0  0  0
 14 26  1  0  0  0  0
 15 30  2  0  0  0  0
 15 31  1  0  0  0  0
 16 32  1  0  0  0  0
 17 32  1  0  0  0  0
 17 33  2  0  0  0  0
 17 34  1  0  0  0  0
 18 20  2  0  0  0  0
 18 39  1  0  0  0  0
 19 21  2  0  0  0  0
 19 40  1  0  0  0  0
 20 52  1  0  0  0  0
 21 41  1  0  0  0  0
 22 24  1  0  0  0  0
 22 56  1  0  0  0  0
 23 24  2  0  0  0  0
 23 25  1  0  0  0  0
 23 57  1  0  0  0  0
 24 64  1  0  0  0  0
 25 26  2  0  0  0  0
 25 58  1  0  0  0  0
 26 70  1  0  0  0  0
 27 84  1  0  0  0  0
 28 85  1  0  0  0  0
 29 31  2  0  0  0  0
 29 84  1  0  0  0  0
 30 86  1  0  0  0  0
 31 87  1  0  0  0  0
 32 68  2  0  0  0  0
 33 69  1  0  0  0  0
 33 73  1  0  0  0  0
 34 74  1  0  0  0  0
 34 79  2  0  0  0  0
 35 53  1  0  0  0  0
 35 75  1  0  0  0  0
 35 80  2  0  0  0  0
 36 65  1  0  0  0  0
 36 71  1  0  0  0  0
 36 81  2  0  0  0  0
 37 66  1  0  0  0  0
 37 76  1  0  0  0  0
 37 82  2  0  0  0  0
 38 72  1  0  0  0  0
 38 77  1  0  0  0  0
 38 83  2  0  0  0  0
 39 42  1  0  0  0  0
 40 53  1  0  0  0  0
 41 71  1  0  0  0  0
 42 44  1  0  0  0  0
 43 45  1  0  0  0  0
 43 48  1  0  0  0  0
 44 52  1  0  0  0  0
 45 54  1  0  0  0  0
 46 49  1  0  0  0  0
 46 55  1  0  0  0  0
 47 50  1  0  0  0  0
 47 55  1  0  0  0  0
 48 72  1  0  0  0  0
 49 70  1  0  0  0  0
 50 70  1  0  0  0  0
 51 54  1  0  0  0  0
 51 72  1  0  0  0  0
 52 75  1  0  0  0  0
 53 71  1  0  0  0  0
 54 69  1  0  0  0  0
 55 77  1  0  0  0  0
 59 66  1  0  0  0  0
 60 67  1  0  0  0  0
 61 67  1  0  0  0  0
 62 67  1  0  0  0  0
 63 78  1  0  0  0  0
 64 85  1  0  0  0  0
 65 67  1  0  0  0  0
 65 76  1  0  0  0  0
 66 78  1  0  0  0  0
 68 69  1  0  0  0  0
M  CHG  1  78   1
M  ISO  4  38 100  64 101  77 100  85 101
M  END
> <Batch ID>
0159

> <Smiles>
CNC(C)C(=O)NC(C(=O)N1Cc2cc([101O:1][101CH2:1]c3c(C)cc(N4CCC([100NH:0][100C:0](=O)N5CCCC(n6nc(-c7ccc(Oc8ccc(F)cc8F)cc7)c(C(N)=O)c6N)C5)CC4)c(C)c3C)ccc2CC1C(=O)NC1CCCc2ccccc21)C(C)(C)C

> <Shape>
0.341

> <Color>
0.105

> <Negative vol penalty>
0.000

$$$$

  -OEChem-04052322073D

 86 95  0     1  0  0  0  0  0999 V2000
  -27.6632  -37.9174   21.2365 C   0  0  0  0  0  0  0  0  0  0  0  0
  -28.0906  -36.8092   20.5122 C   0  0  0  0  0  0  0  0  0  0  0  0
  -22.1382  -10.3637   21.2505 C   0  0  0  0  0  0  0  0  0  0  0  0
  -24.4122   -9.5739   21.0453 C   0  0  0  0  0  0  0  0  0  0  0  0
  -27.0325  -37.7432   22.4677 C   0  0  0  0  0  0  0  0  0  0  0  0
  -27.8885  -35.5260   21.0192 C   0  0  0  0  0  0  0  0  0  0  0  0
  -26.5612  -28.8211   18.8748 C   0  0  0  0  0  0  0  0  0  0  0  0
  -21.6832   -9.0455   21.2819 C   0  0  0  0  0  0  0  0  0  0  0  0
  -23.9572   -8.2557   21.0768 C   0  0  0  0  0  0  0  0  0  0  0  0
  -27.0490  -27.5242   19.0299 C   0  0  0  0  0  0  0  0  0  0  0  0
  -23.4268   -4.6800   21.4660 C   0  0  0  0  0  0  0  0  0  0  0  0
  -24.1139   -3.7752   22.2752 C   0  0  0  0  0  0  0  0  0  0  0  0
  -25.8772  -27.3410   21.1305 C   0  0  0  0  0  0  0  0  0  0  0  0
  -23.6103   -5.1264   24.2137 C   0  0  0  0  0  0  0  0  0  0  0  0
  -23.5027  -10.6279   21.1321 C   0  0  0  0  0  0  0  0  0  0  0  0
  -24.3492  -12.7858   22.1972 C   0  0  0  0  0  0  0  0  0  0  0  0
  -26.8139  -36.4568   22.9855 C   0  0  0  0  0  0  0  0  0  0  0  0
  -25.7352  -29.3926   19.8534 C   0  0  0  0  0  0  0  0  0  0  0  0
  -27.2554  -35.3345   22.2590 C   0  0  0  0  0  0  0  0  0  0  0  0
  -25.3782  -28.6444   20.9843 C   0  0  0  0  0  0  0  0  0  0  0  0
  -29.3582  -23.1836   20.5197 C   0  0  0  0  0  0  0  0  0  0  0  0
  -28.4092  -23.6165   19.5611 C   0  0  0  0  0  0  0  0  0  0  0  0
  -22.5927   -7.9915   21.1951 C   0  0  0  0  0  0  0  0  0  0  0  0
  -26.7093  -26.7850   20.1592 C   0  0  0  0  0  0  0  0  0  0  0  0
  -22.8315   -5.8081   22.0306 C   0  0  0  0  0  0  0  0  0  0  0  0
  -24.2056   -3.9984   23.6490 C   0  0  0  0  0  0  0  0  0  0  0  0
  -22.9233   -6.0313   23.4045 C   0  0  0  0  0  0  0  0  0  0  0  0
  -23.9733  -11.9894   21.0990 C   0  0  0  0  0  0  0  0  0  0  0  0
  -29.4037  -21.8082   20.4615 C   0  0  0  0  0  0  0  0  0  0  0  0
  -27.9034  -22.4923   18.9463 C   0  0  0  0  0  0  0  0  0  0  0  0
  -24.7169  -13.9865   21.6407 C   0  0  0  0  0  0  0  0  0  0  0  0
  -24.3647  -12.4687   23.5954 C   0  0  0  0  0  0  0  0  0  0  0  0
  -25.9539  -31.9093   21.7827 C   0  0  0  0  0  0  0  0  0  0  0  0
  -22.8983  -31.1142   22.5265 C   0  0  0  0  0  0  0  0  0  0  0  0
  -20.4843  -28.7061   22.6707 C   0  0  0  0  0  0  0  0  0  0  0  0
  -27.6934  -16.5723   17.5719 C   0  0  0  0  0  0  0  0  0  0  0  0
  -26.1702  -36.3203   24.3426 C   0  0  0  0  0  0  0  0  0  0  0  0
  -25.1956  -30.7830   19.6584 C   0  0  0  0  0  0  0  0  0  0  0  0
  -24.4781  -29.2047   22.0540 C   0  0  0  0  0  0  0  0  0  0  0  0
  -25.6583  -34.9123   24.6351 C   0  0  0  0  0  0  0  0  0  0  0  0
  -24.1487  -15.7700   16.9473 C   0  0  0  0  0  0  0  0  0  0  0  0
  -26.7113  -33.8734   24.2628 C   0  0  0  0  0  0  0  0  0  0  0  0
  -23.8432  -14.7348   18.0298 C   0  0  0  0  0  0  0  0  0  0  0  0
  -27.6719  -19.1235   20.2736 C   0  0  0  0  0  0  0  0  0  0  0  0
  -29.5008  -19.2817   18.5143 C   0  0  0  0  0  0  0  0  0  0  0  0
  -25.6160  -15.7392   16.5281 C   0  0  0  0  0  0  0  0  0  0  0  0
  -27.2896  -17.7115   19.8056 C   0  0  0  0  0  0  0  0  0  0  0  0
  -29.5155  -17.7677   18.7349 C   0  0  0  0  0  0  0  0  0  0  0  0
  -26.2649  -14.8384   18.7335 C   0  0  0  0  0  0  0  0  0  0  0  0
  -27.0320  -33.9255   22.7641 C   0  0  1  0  0  0  0  0  0  0  0  0
  -24.7794  -31.4511   20.9653 C   0  0  1  0  0  0  0  0  0  0  0  0
  -24.8091  -14.8789   19.2198 C   0  0  2  0  0  0  0  0  0  0  0  0
  -28.2474  -19.9574   19.1151 C   0  0  0  0  0  0  0  0  0  0  0  0
  -30.1547  -24.0460   21.4167 C   0  0  0  0  0  0  0  0  0  0  0  0
  -30.2176  -20.8482   21.2373 C   0  0  0  0  0  0  0  0  0  0  0  0
  -27.5025  -22.0721   16.5072 C   0  0  0  0  0  0  0  0  0  0  0  0
  -18.0979  -28.3479   23.3593 C   0  0  0  0  0  0  0  0  0  0  0  0
  -23.7495  -31.0923   25.4565 C   0  0  0  0  0  0  0  0  0  0  0  0
  -21.6506  -29.8339   25.9846 C   0  0  0  0  0  0  0  0  0  0  0  0
  -21.5165  -32.1332   25.0267 C   0  0  0  0  0  0  0  0  0  0  0  0
  -19.6826  -27.9551   19.9226 C   0  0  0  0  0  0  0  0  0  0  0  0
  -28.0277  -25.0147   19.2739 C   0  0  0  0  0  0  0  0  0  1  0  0
  -26.8880  -22.3649   17.8790 C   0  0  0  0  0  0  0  0  0  0  0  0
  -22.2461  -30.2156   23.5493 C   0  0  1  0  0  0  0  0  0  0  0  0
  -19.0359  -28.7033   22.2162 C   0  0  2  0  0  0  0  0  0  0  0  0
  -22.3092  -30.8086   24.9852 C   0  0  0  0  0  0  0  0  0  0  0  0
  -24.0911  -12.6301   19.9330 N   0  0  0  0  0  0  0  0  0  0  0  0
  -28.5150  -21.3989   19.5018 N   0  0  0  0  0  0  0  0  0  0  0  0
  -24.5452  -13.8420   20.2954 N   0  0  0  0  0  0  0  0  0  0  0  0
  -23.9811  -30.5708   21.8209 N   0  0  0  0  0  0  0  0  0  0  0  0
  -26.5009  -15.8430   17.6885 N   0  0  0  0  0  0  0  0  0  0  0  0
  -28.1610  -17.2249   18.7247 N   0  0  0  0  0  0  0  0  0  0  0  0
  -25.1670  -15.1413   22.1758 N   0  0  0  0  0  0  0  0  0  0  0  0
  -23.9556  -11.1891   23.9948 N   0  0  0  0  0  0  0  0  0  0  0  0
  -25.9895  -33.2732   22.0012 N   0  0  0  0  0  0  0  0  0  0  0  0
  -20.8930  -29.9622   23.0664 N   0  0  0  0  0  0  0  0  0  0  0  0
  -18.8386  -27.7123   21.1209 N   0  3  0  0  0  0  0  0  0  0  0  0
  -24.7150  -13.3009   24.4661 O   0  0  0  0  0  0  0  0  0  0  0  0
  -26.7669  -31.0861   22.1866 O   0  0  0  0  0  0  0  0  0  0  0  0
  -22.4584  -32.2538   22.3547 O   0  0  0  0  0  0  0  0  0  0  0  0
  -21.1822  -27.6945   22.6778 O   0  0  0  0  0  0  0  0  0  0  0  0
  -28.2920  -16.6588   16.4920 O   0  0  0  0  0  0  0  0  0  0  0  0
  -22.1491   -6.7051   21.2261 O   0  0  0  0  0  0  0  0  0  0  0  0
  -27.1871  -25.5125   20.3141 O   0  0  0  0  0  0  0  0  0  1  0  0
  -24.8641   -3.1285   24.4262 F   0  0  0  0  0  0  0  0  0  0  0  0
  -22.3524   -7.1126   23.9528 F   0  0  0  0  0  0  0  0  0  0  0  0
  1  2  1  0  0  0  0
  1  5  2  0  0  0  0
  2  6  2  0  0  0  0
  3  8  2  0  0  0  0
  3 15  1  0  0  0  0
  4  9  1  0  0  0  0
  4 15  2  0  0  0  0
  5 17  1  0  0  0  0
  6 19  1  0  0  0  0
  7 10  2  0  0  0  0
  7 18  1  0  0  0  0
  8 23  1  0  0  0  0
  9 23  2  0  0  0  0
 10 24  1  0  0  0  0
 11 12  2  0  0  0  0
 11 25  1  0  0  0  0
 12 26  1  0  0  0  0
 13 20  1  0  0  0  0
 13 24  2  0  0  0  0
 14 26  2  0  0  0  0
 14 27  1  0  0  0  0
 15 28  1  0  0  0  0
 16 28  1  0  0  0  0
 16 31  2  0  0  0  0
 16 32  1  0  0  0  0
 17 19  2  0  0  0  0
 17 37  1  0  0  0  0
 18 20  2  0  0  0  0
 18 38  1  0  0  0  0
 19 50  1  0  0  0  0
 20 39  1  0  0  0  0
 21 22  1  0  0  0  0
 21 29  2  0  0  0  0
 21 54  1  0  0  0  0
 22 30  2  0  0  0  0
 22 62  1  0  0  0  0
 23 83  1  0  0  0  0
 24 84  1  0  0  0  0
 25 27  2  0  0  0  0
 25 83  1  0  0  0  0
 26 85  1  0  0  0  0
 27 86  1  0  0  0  0
 28 67  2  0  0  0  0
 29 55  1  0  0  0  0
 29 68  1  0  0  0  0
 30 63  1  0  0  0  0
 30 68  1  0  0  0  0
 31 69  1  0  0  0  0
 31 73  1  0  0  0  0
 32 74  1  0  0  0  0
 32 78  2  0  0  0  0
 33 51  1  0  0  0  0
 33 75  1  0  0  0  0
 33 79  2  0  0  0  0
 34 64  1  0  0  0  0
 34 70  1  0  0  0  0
 34 80  2  0  0  0  0
 35 65  1  0  0  0  0
 35 76  1  0  0  0  0
 35 81  2  0  0  0  0
 36 71  1  0  0  0  0
 36 72  1  0  0  0  0
 36 82  2  0  0  0  0
 37 40  1  0  0  0  0
 38 51  1  0  0  0  0
 39 70  1  0  0  0  0
 40 42  1  0  0  0  0
 41 43  1  0  0  0  0
 41 46  1  0  0  0  0
 42 50  1  0  0  0  0
 43 52  1  0  0  0  0
 44 47  1  0  0  0  0
 44 53  1  0  0  0  0
 45 48  1  0  0  0  0
 45 53  1  0  0  0  0
 46 71  1  0  0  0  0
 47 72  1  0  0  0  0
 48 72  1  0  0  0  0
 49 52  1  0  0  0  0
 49 71  1  0  0  0  0
 50 75  1  0  0  0  0
 51 70  1  0  0  0  0
 52 69  1  0  0  0  0
 53 68  1  0  0  0  0
 56 63  1  0  0  0  0
 57 65  1  0  0  0  0
 58 66  1  0  0  0  0
 59 66  1  0  0  0  0
 60 66  1  0  0  0  0
 61 77  1  0  0  0  0
 62 84  1  0  0  0  0
 64 66  1  0  0  0  0
 64 76  1  0  0  0  0
 65 77  1  0  0  0  0
 67 69  1  0  0  0  0
M  CHG  1  77   1
M  ISO  4  36 100  62 101  72 100  84 101
M  END
> <Batch ID>
0159

> <Smiles>
CCc1c([101CH2:1][101O:1]c2ccc3c(c2)CN(C(=O)C(NC(=O)C(C)NC)C(C)(C)C)C(C(=O)NC2CCCc4ccccc42)C3)c(C)c(C)n1C1CC[100N:0]([100C:0](=O)N2CCCC(n3nc(-c4ccc(Oc5ccc(F)cc5F)cc4)c(C(N)=O)c3N)C2)CC1

> <Shape>
0.295

> <Color>
0.087

> <Negative vol penalty>
0.000

$$$$

  -OEChem-04052322073D

 86 95  0     1  0  0  0  0  0999 V2000
  -28.8881  -37.0132   24.9442 C   0  0  0  0  0  0  0  0  0  0  0  0
  -29.3015  -35.9064   24.2097 C   0  0  0  0  0  0  0  0  0  0  0  0
  -27.0089  -10.6356   19.2727 C   0  0  0  0  0  0  0  0  0  0  0  0
  -27.1077  -10.4772   21.6815 C   0  0  0  0  0  0  0  0  0  0  0  0
  -27.8037  -36.9059   25.8139 C   0  0  0  0  0  0  0  0  0  0  0  0
  -28.6312  -34.6911   24.3455 C   0  0  0  0  0  0  0  0  0  0  0  0
  -27.6417  -30.5237   19.9683 C   0  0  0  0  0  0  0  0  0  0  0  0
  -31.9558  -24.0997   18.8223 C   0  0  0  0  0  0  0  0  0  0  0  0
  -31.1597  -23.1453   18.1893 C   0  0  0  0  0  0  0  0  0  0  0  0
  -27.9257   -9.5898   19.1663 C   0  0  0  0  0  0  0  0  0  0  0  0
  -28.0244   -9.4313   21.5751 C   0  0  0  0  0  0  0  0  0  0  0  0
  -28.2957  -29.3377   19.6372 C   0  0  0  0  0  0  0  0  0  0  0  0
  -31.2674   -9.1688   19.4495 C   0  0  0  0  0  0  0  0  0  0  0  0
  -32.3151   -9.3164   18.5408 C   0  0  0  0  0  0  0  0  0  0  0  0
  -26.6839  -28.0946   20.9318 C   0  0  0  0  0  0  0  0  0  0  0  0
  -31.5642   -7.3495   17.3556 C   0  0  0  0  0  0  0  0  0  0  0  0
  -26.5999  -11.0794   20.5303 C   0  0  0  0  0  0  0  0  0  0  0  0
  -24.2502  -12.0592   20.6920 C   0  0  0  0  0  0  0  0  0  0  0  0
  -27.1138  -35.6912   25.9532 C   0  0  0  0  0  0  0  0  0  0  0  0
  -26.5084  -30.5050   20.7940 C   0  0  0  0  0  0  0  0  0  0  0  0
  -27.5374  -34.5670   25.2189 C   0  0  0  0  0  0  0  0  0  0  0  0
  -26.0159  -29.2814   21.2698 C   0  0  0  0  0  0  0  0  0  0  0  0
  -31.4493  -25.3748   19.0738 C   0  0  0  0  0  0  0  0  0  0  0  0
  -29.8570  -23.4659   17.8075 C   0  0  0  0  0  0  0  0  0  0  0  0
  -29.3504  -24.7411   18.0589 C   0  0  0  0  0  0  0  0  0  0  0  0
  -30.1466  -25.6955   18.6920 C   0  0  0  0  0  0  0  0  0  0  0  0
  -28.4334   -8.9876   20.3175 C   0  0  0  0  0  0  0  0  0  0  0  0
  -27.8185  -28.1232   20.1213 C   0  0  0  0  0  0  0  0  0  0  0  0
  -30.3680   -8.1115   19.3114 C   0  0  0  0  0  0  0  0  0  0  0  0
  -32.4636   -8.4067   17.4938 C   0  0  0  0  0  0  0  0  0  0  0  0
  -30.5164   -7.2019   18.2644 C   0  0  0  0  0  0  0  0  0  0  0  0
  -25.6534  -12.1601   20.6409 C   0  0  0  0  0  0  0  0  0  0  0  0
  -23.8161  -13.3582   20.7960 C   0  0  0  0  0  0  0  0  0  0  0  0
  -23.4138  -10.8954   20.6493 C   0  0  0  0  0  0  0  0  0  0  0  0
  -25.7863  -31.7221   23.6401 C   0  0  0  0  0  0  0  0  0  0  0  0
  -22.8317  -30.5765   22.9468 C   0  0  0  0  0  0  0  0  0  0  0  0
  -20.9235  -28.3537   21.1962 C   0  0  0  0  0  0  0  0  0  0  0  0
  -25.9693  -18.4516   19.1137 C   0  0  0  0  0  0  0  0  0  0  0  0
  -25.9771  -35.6111   26.9411 C   0  0  0  0  0  0  0  0  0  0  0  0
  -25.7986  -31.7904   21.1200 C   0  0  0  0  0  0  0  0  0  0  0  0
  -24.7910  -29.2052   22.1430 C   0  0  0  0  0  0  0  0  0  0  0  0
  -25.0864  -34.3867   26.7469 C   0  0  0  0  0  0  0  0  0  0  0  0
  -25.1569  -17.6428   22.4347 C   0  0  0  0  0  0  0  0  0  0  0  0
  -25.9354  -33.1321   26.5679 C   0  0  0  0  0  0  0  0  0  0  0  0
  -25.0541  -16.1198   22.3594 C   0  0  0  0  0  0  0  0  0  0  0  0
  -26.3267  -18.1802   21.6084 C   0  0  0  0  0  0  0  0  0  0  0  0
  -27.4733  -20.3205   19.9320 C   0  0  0  0  0  0  0  0  0  0  0  0
  -25.7653  -20.7445   18.2025 C   0  0  0  0  0  0  0  0  0  0  0  0
  -26.2212  -16.2043   20.1240 C   0  0  0  0  0  0  0  0  0  0  0  0
  -28.5624  -20.8346   18.9959 C   0  0  0  0  0  0  0  0  0  0  0  0
  -26.8275  -21.2396   17.2344 C   0  0  0  0  0  0  0  0  0  0  0  0
  -26.8205  -33.2382   25.3202 C   0  0  1  0  0  0  0  0  0  0  0  0
  -24.9555  -31.7023   22.3883 C   0  0  1  0  0  0  0  0  0  0  0  0
  -25.0193  -15.6403   20.8974 C   0  0  1  0  0  0  0  0  0  0  0  0
  -32.3227  -26.3780   19.7536 C   0  0  0  0  0  0  0  0  0  0  0  0
  -27.9535  -25.0837   17.6474 C   0  0  0  0  0  0  0  0  0  0  0  0
  -18.5426  -27.6323   20.8672 C   0  0  0  0  0  0  0  0  0  0  0  0
  -22.9075  -29.1139   25.6236 C   0  0  0  0  0  0  0  0  0  0  0  0
  -20.9994  -27.7022   24.8271 C   0  0  0  0  0  0  0  0  0  0  0  0
  -20.7073  -30.1674   25.0723 C   0  0  0  0  0  0  0  0  0  0  0  0
  -20.9855  -29.0578   18.3223 C   0  0  0  0  0  0  0  0  0  0  0  0
  -29.0226  -22.4215   17.1265 C   0  0  0  0  0  0  0  0  0  0  0  0
  -29.6055  -27.0633   18.9641 C   0  0  0  0  0  0  0  0  0  1  0  0
  -22.1122  -29.2687   23.1721 C   0  0  1  0  0  0  0  0  0  0  0  0
  -19.6603  -28.5384   20.3748 C   0  0  2  0  0  0  0  0  0  0  0  0
  -21.7058  -29.0643   24.6589 C   0  0  0  0  0  0  0  0  0  0  0  0
  -26.0823  -13.4233   20.7069 N   0  0  0  0  0  0  0  0  0  0  0  0
  -24.9419  -14.1281   20.8004 N   0  0  0  0  0  0  0  0  0  0  0  0
  -24.1358  -30.4900   22.4390 N   0  0  0  0  0  0  0  0  0  0  0  0
  -26.2739  -17.6636   20.2337 N   0  0  0  0  0  0  0  0  0  0  0  0
  -26.3275  -19.8066   19.1718 N   0  0  0  0  0  0  0  0  0  0  0  0
  -22.5851  -13.9054   20.8832 N   0  0  0  0  0  0  0  0  0  0  0  0
  -24.0235   -9.6381   20.5408 N   0  0  0  0  0  0  0  0  0  0  0  0
  -26.0420  -32.9903   24.1257 N   0  0  0  0  0  0  0  0  0  0  0  0
  -20.9910  -29.2535   22.2388 N   0  0  0  0  0  0  0  0  0  0  0  0
  -27.9729  -21.8286   18.0243 N   0  3  0  0  0  0  0  0  0  0  0  0
  -19.9235  -28.2241   18.9420 N   0  3  0  0  0  0  0  0  0  0  0  0
  -22.1622  -10.9694   20.6891 O   0  0  0  0  0  0  0  0  0  0  0  0
  -26.1659  -30.6650   24.1301 O   0  0  0  0  0  0  0  0  0  0  0  0
  -22.2553  -31.6361   23.2049 O   0  0  0  0  0  0  0  0  0  0  0  0
  -21.7644  -27.4944   20.9409 O   0  0  0  0  0  0  0  0  0  0  0  0
  -25.4103  -17.9721   18.1192 O   0  0  0  0  0  0  0  0  0  0  0  0
  -29.3278   -7.9668   20.2141 O   0  0  0  0  0  0  0  0  0  0  0  0
  -28.4601  -26.9557   19.7979 O   0  0  0  0  0  0  0  0  0  1  0  0
  -33.4689   -8.5495   16.6202 F   0  0  0  0  0  0  0  0  0  0  0  0
  -29.6548   -6.1849   18.1259 F   0  0  0  0  0  0  0  0  0  0  0  0
  1  2  1  0  0  0  0
  1  5  2  0  0  0  0
  2  6  2  0  0  0  0
  3 10  2  0  0  0  0
  3 17  1  0  0  0  0
  4 11  1  0  0  0  0
  4 17  2  0  0  0  0
  5 19  1  0  0  0  0
  6 21  1  0  0  0  0
  7 12  2  0  0  0  0
  7 20  1  0  0  0  0
  8  9  1  0  0  0  0
  8 23  2  0  0  0  0
  9 24  2  0  0  0  0
 10 27  1  0  0  0  0
 11 27  2  0  0  0  0
 12 28  1  0  0  0  0
 13 14  2  0  0  0  0
 13 29  1  0  0  0  0
 14 30  1  0  0  0  0
 15 22  1  0  0  0  0
 15 28  2  0  0  0  0
 16 30  2  0  0  0  0
 16 31  1  0  0  0  0
 17 32  1  0  0  0  0
 18 32  1  0  0  0  0
 18 33  2  0  0  0  0
 18 34  1  0  0  0  0
 19 21  2  0  0  0  0
 19 39  1  0  0  0  0
 20 22  2  0  0  0  0
 20 40  1  0  0  0  0
 21 52  1  0  0  0  0
 22 41  1  0  0  0  0
 23 26  1  0  0  0  0
 23 55  1  0  0  0  0
 24 25  1  0  0  0  0
 24 62  1  0  0  0  0
 25 26  2  0  0  0  0
 25 56  1  0  0  0  0
 26 63  1  0  0  0  0
 27 83  1  0  0  0  0
 28 84  1  0  0  0  0
 29 31  2  0  0  0  0
 29 83  1  0  0  0  0
 30 85  1  0  0  0  0
 31 86  1  0  0  0  0
 32 67  2  0  0  0  0
 33 68  1  0  0  0  0
 33 72  1  0  0  0  0
 34 73  1  0  0  0  0
 34 78  2  0  0  0  0
 35 53  1  0  0  0  0
 35 74  1  0  0  0  0
 35 79  2  0  0  0  0
 36 64  1  0  0  0  0
 36 69  1  0  0  0  0
 36 80  2  0  0  0  0
 37 65  1  0  0  0  0
 37 75  1  0  0  0  0
 37 81  2  0  0  0  0
 38 70  1  0  0  0  0
 38 71  1  0  0  0  0
 38 82  2  0  0  0  0
 39 42  1  0  0  0  0
 40 53  1  0  0  0  0
 41 69  1  0  0  0  0
 42 44  1  0  0  0  0
 43 45  1  0  0  0  0
 43 46  1  0  0  0  0
 44 52  1  0  0  0  0
 45 54  1  0  0  0  0
 46 70  1  0  0  0  0
 47 50  1  0  0  0  0
 47 71  1  0  0  0  0
 48 51  1  0  0  0  0
 48 71  1  0  0  0  0
 49 54  1  0  0  0  0
 49 70  1  0  0  0  0
 50 76  1  0  0  0  0
 51 76  1  0  0  0  0
 52 74  1  0  0  0  0
 53 69  1  0  0  0  0
 54 68  1  0  0  0  0
 57 65  1  0  0  0  0
 58 66  1  0  0  0  0
 59 66  1  0  0  0  0
 60 66  1  0  0  0  0
 61 77  1  0  0  0  0
 62 76  1  0  0  0  0
 63 84  1  0  0  0  0
 64 66  1  0  0  0  0
 64 75  1  0  0  0  0
 65 77  1  0  0  0  0
 67 68  1  0  0  0  0
M  CHG  2  76   1  77   1
M  ISO  4  38 100  63 101  71 100  84 101
M  END
> <Batch ID>
0159

> <Smiles>
CNC(C)C(=O)NC(C(=O)N1Cc2cc([101O:1][101CH2:1]c3c(C)ccc(CN4CC[100N:0]([100C:0](=O)N5CCCC(n6nc(-c7ccc(Oc8ccc(F)cc8F)cc7)c(C(N)=O)c6N)C5)CC4)c3C)ccc2CC1C(=O)NC1CCCc2ccccc21)C(C)(C)C

> <Shape>
0.266

> <Color>
0.080

> <Negative vol penalty>
0.000

$$$$

  -OEChem-04052322073D

 87 96  0     1  0  0  0  0  0999 V2000
  -19.9895  -34.2380   22.4595 C   0  0  0  0  0  0  0  0  0  0  0  0
  -21.2643  -33.8263   22.0844 C   0  0  0  0  0  0  0  0  0  0  0  0
  -23.0178  -15.1078   20.1090 C   0  0  0  0  0  0  0  0  0  0  0  0
  -25.0817  -14.0361   20.7638 C   0  0  0  0  0  0  0  0  0  0  0  0
  -19.1824  -33.3952   23.2225 C   0  0  0  0  0  0  0  0  0  0  0  0
  -21.7332  -32.5719   22.4731 C   0  0  0  0  0  0  0  0  0  0  0  0
  -25.4153  -28.8657   19.2775 C   0  0  0  0  0  0  0  0  0  0  0  0
  -22.4938  -13.8703   19.7352 C   0  0  0  0  0  0  0  0  0  0  0  0
  -24.5578  -12.7986   20.3900 C   0  0  0  0  0  0  0  0  0  0  0  0
  -26.7887  -28.6325   19.3328 C   0  0  0  0  0  0  0  0  0  0  0  0
  -22.4365  -10.5030   21.6748 C   0  0  0  0  0  0  0  0  0  0  0  0
  -22.6254   -9.4308   22.5467 C   0  0  0  0  0  0  0  0  0  0  0  0
  -30.1741  -22.5124   17.9678 C   0  0  0  0  0  0  0  0  0  0  0  0
  -26.4012  -26.7225   20.7543 C   0  0  0  0  0  0  0  0  0  0  0  0
  -32.0023  -21.5485   16.0941 C   0  0  0  0  0  0  0  0  0  0  0  0
  -23.8224   -8.2376   20.8203 C   0  0  0  0  0  0  0  0  0  0  0  0
  -24.3118  -15.1907   20.6233 C   0  0  0  0  0  0  0  0  0  0  0  0
  -29.9578  -21.2794   17.3526 C   0  0  0  0  0  0  0  0  0  0  0  0
  -24.3452  -17.3488   21.9832 C   0  0  0  0  0  0  0  0  0  0  0  0
  -19.6379  -32.1260   23.6126 C   0  0  0  0  0  0  0  0  0  0  0  0
  -24.5237  -28.0340   19.9702 C   0  0  0  0  0  0  0  0  0  0  0  0
  -20.9319  -31.7119   23.2432 C   0  0  0  0  0  0  0  0  0  0  0  0
  -31.3046  -23.2635   17.6461 C   0  0  0  0  0  0  0  0  0  0  0  0
  -25.0167  -26.9457   20.7041 C   0  0  0  0  0  0  0  0  0  0  0  0
  -30.8719  -20.7974   16.4157 C   0  0  0  0  0  0  0  0  0  0  0  0
  -32.2187  -22.7816   16.7093 C   0  0  0  0  0  0  0  0  0  0  0  0
  -23.2638  -12.7158   19.8757 C   0  0  0  0  0  0  0  0  0  0  0  0
  -27.2821  -27.5626   20.0736 C   0  0  0  0  0  0  0  0  0  0  0  0
  -22.9405  -10.4425   20.3755 C   0  0  0  0  0  0  0  0  0  0  0  0
  -23.3184   -8.2981   22.1195 C   0  0  0  0  0  0  0  0  0  0  0  0
  -23.6335   -9.3098   19.9483 C   0  0  0  0  0  0  0  0  0  0  0  0
  -24.8538  -16.4688   21.0091 C   0  0  0  0  0  0  0  0  0  0  0  0
  -25.2128  -18.4135   21.9705 C   0  0  0  0  0  0  0  0  0  0  0  0
  -28.7598  -20.5096   17.7095 C   0  0  0  0  0  0  0  0  0  0  0  0
  -23.1917  -17.2157   22.8242 C   0  0  0  0  0  0  0  0  0  0  0  0
  -22.4206  -28.4598   22.3153 C   0  0  0  0  0  0  0  0  0  0  0  0
  -21.6711  -25.3688   21.6780 C   0  0  0  0  0  0  0  0  0  0  0  0
  -22.6434  -22.3547   20.4066 C   0  0  0  0  0  0  0  0  0  0  0  0
  -18.7474  -31.2691   24.4770 C   0  0  0  0  0  0  0  0  0  0  0  0
  -23.0432  -28.2831   19.8786 C   0  0  0  0  0  0  0  0  0  0  0  0
  -24.1001  -26.0113   21.4492 C   0  0  0  0  0  0  0  0  0  0  0  0
  -19.1767  -29.8052   24.5309 C   0  0  0  0  0  0  0  0  0  0  0  0
  -29.7715  -19.5268   21.0527 C   0  0  0  0  0  0  0  0  0  0  0  0
  -20.6797  -29.6980   24.7685 C   0  0  0  0  0  0  0  0  0  0  0  0
  -28.5712  -18.6917   21.5002 C   0  0  0  0  0  0  0  0  0  0  0  0
  -30.2112  -25.3344   18.7293 C   0  0  0  0  0  0  0  0  0  0  0  0
  -32.2162  -25.6651   17.4199 C   0  0  0  0  0  0  0  0  0  0  0  0
  -30.0552  -19.3398   19.5654 C   0  0  0  0  0  0  0  0  0  0  0  0
  -27.6840  -18.7935   19.1271 C   0  0  0  0  0  0  0  0  0  0  0  0
  -21.4668  -30.3485   23.6244 C   0  0  1  0  0  0  0  0  0  0  0  0
  -22.2625  -27.6785   21.0416 C   0  0  1  0  0  0  0  0  0  0  0  0
  -30.6081  -26.8027   18.8843 C   0  0  1  0  0  0  0  0  0  0  0  0
  -27.3405  -18.9673   20.6168 C   0  0  1  0  0  0  0  0  0  0  0  0
  -31.5206  -24.6138   18.3347 C   0  0  2  0  0  0  0  0  0  0  0  0
  -31.5566  -27.0496   17.6866 C   0  0  0  0  0  0  0  0  0  0  0  0
  -30.6641  -19.4803   15.7419 C   0  0  0  0  0  0  0  0  0  0  0  0
  -33.4361  -23.5680   16.3489 C   0  0  0  0  0  0  0  0  0  0  0  0
  -32.3855  -24.3539   19.5894 C   0  0  0  0  0  0  0  0  0  0  0  0
  -32.6186  -28.0993   18.0436 C   0  0  0  0  0  0  0  0  0  0  0  0
  -30.8237  -27.5157   16.4141 C   0  0  0  0  0  0  0  0  0  0  0  0
  -21.8274  -20.0071   20.0604 C   0  0  0  0  0  0  0  0  0  0  0  0
  -22.1060  -24.7834   24.6408 C   0  0  0  0  0  0  0  0  0  0  0  0
  -22.2180  -22.3478   24.0716 C   0  0  0  0  0  0  0  0  0  0  0  0
  -20.1275  -23.6353   23.6301 C   0  0  0  0  0  0  0  0  0  0  0  0
  -22.9128  -22.5709   17.4672 C   0  0  0  0  0  0  0  0  0  0  0  0
  -29.3955  -27.7196   18.9945 C   0  0  0  0  0  0  0  0  0  1  0  0
  -22.1558  -24.0274   22.1726 C   0  0  1  0  0  0  0  0  0  0  0  0
  -21.9559  -21.3950   19.4522 C   0  0  2  0  0  0  0  0  0  0  0  0
  -21.6695  -23.7170   23.6164 C   0  0  0  0  0  0  0  0  0  0  0  0
  -25.9587  -16.9341   20.4204 N   0  0  0  0  0  0  0  0  0  0  0  0
  -26.1515  -18.1182   21.0262 N   0  0  0  0  0  0  0  0  0  0  0  0
  -28.8496  -19.6047   18.7701 N   0  0  0  0  0  0  0  0  0  0  0  0
  -22.6611  -26.3001   21.3340 N   0  0  0  0  0  0  0  0  0  0  0  0
  -25.2566  -19.5642   22.6750 N   0  0  0  0  0  0  0  0  0  0  0  0
  -23.3440  -16.6018   24.0750 N   0  0  0  0  0  0  0  0  0  0  0  0
  -21.4963  -29.4752   22.4708 N   0  0  0  0  0  0  0  0  0  0  0  0
  -21.7339  -23.0484   21.1766 N   0  0  0  0  0  0  0  0  0  0  0  0
  -22.7300  -21.2824   18.1838 N   0  3  0  0  0  0  0  0  0  0  0  0
  -27.7518  -20.7340   17.0412 O   0  0  0  0  0  0  0  0  0  0  0  0
  -22.0562  -17.6141   22.4701 O   0  0  0  0  0  0  0  0  0  0  0  0
  -23.3140  -28.1625   23.0996 O   0  0  0  0  0  0  0  0  0  0  0  0
  -20.4587  -25.5800   21.5931 O   0  0  0  0  0  0  0  0  0  0  0  0
  -23.8652  -22.4742   20.4658 O   0  0  0  0  0  0  0  0  0  0  0  0
  -22.7528  -11.5080   19.5112 O   0  0  0  0  0  0  0  0  0  0  0  0
  -28.6223  -27.3331   20.1299 O   0  0  0  0  0  0  0  0  0  1  0  0
  -23.5011   -7.2692   22.9575 F   0  0  0  0  0  0  0  0  0  0  0  0
  -24.1210   -9.2463   18.7016 F   0  0  0  0  0  0  0  0  0  0  0  0
  1  2  1  0  0  0  0
  1  5  2  0  0  0  0
  2  6  2  0  0  0  0
  3  8  2  0  0  0  0
  3 17  1  0  0  0  0
  4  9  1  0  0  0  0
  4 17  2  0  0  0  0
  5 20  1  0  0  0  0
  6 22  1  0  0  0  0
  7 10  2  0  0  0  0
  7 21  1  0  0  0  0
  8 27  1  0  0  0  0
  9 27  2  0  0  0  0
 10 28  1  0  0  0  0
 11 12  2  0  0  0  0
 11 29  1  0  0  0  0
 12 30  1  0  0  0  0
 13 18  2  0  0  0  0
 13 23  1  0  0  0  0
 14 24  1  0  0  0  0
 14 28  2  0  0  0  0
 15 25  2  0  0  0  0
 15 26  1  0  0  0  0
 16 30  2  0  0  0  0
 16 31  1  0  0  0  0
 17 32  1  0  0  0  0
 18 25  1  0  0  0  0
 18 34  1  0  0  0  0
 19 32  1  0  0  0  0
 19 33  2  0  0  0  0
 19 35  1  0  0  0  0
 20 22  2  0  0  0  0
 20 39  1  0  0  0  0
 21 24  2  0  0  0  0
 21 40  1  0  0  0  0
 22 50  1  0  0  0  0
 23 26  2  0  0  0  0
 23 54  1  0  0  0  0
 24 41  1  0  0  0  0
 25 56  1  0  0  0  0
 26 57  1  0  0  0  0
 27 84  1  0  0  0  0
 28 85  1  0  0  0  0
 29 31  2  0  0  0  0
 29 84  1  0  0  0  0
 30 86  1  0  0  0  0
 31 87  1  0  0  0  0
 32 70  2  0  0  0  0
 33 71  1  0  0  0  0
 33 74  1  0  0  0  0
 34 72  1  0  0  0  0
 34 79  2  0  0  0  0
 35 75  1  0  0  0  0
 35 80  2  0  0  0  0
 36 51  1  0  0  0  0
 36 76  1  0  0  0  0
 36 81  2  0  0  0  0
 37 67  1  0  0  0  0
 37 73  1  0  0  0  0
 37 82  2  0  0  0  0
 38 68  1  0  0  0  0
 38 77  1  0  0  0  0
 38 83  2  0  0  0  0
 39 42  1  0  0  0  0
 40 51  1  0  0  0  0
 41 73  1  0  0  0  0
 42 44  1  0  0  0  0
 43 45  1  0  0  0  0
 43 48  1  0  0  0  0
 44 50  1  0  0  0  0
 45 53  1  0  0  0  0
 46 52  1  0  0  0  0
 46 54  1  0  0  0  0
 47 54  1  0  0  0  0
 47 55  1  0  0  0  0
 48 72  1  0  0  0  0
 49 53  1  0  0  0  0
 49 72  1  0  0  0  0
 50 76  1  0  0  0  0
 51 73  1  0  0  0  0
 52 55  1  0  0  0  0
 52 66  1  0  0  0  0
 53 71  1  0  0  0  0
 54 58  1  0  0  0  0
 55 59  1  0  0  0  0
 55 60  1  0  0  0  0
 61 68  1  0  0  0  0
 62 69  1  0  0  0  0
 63 69  1  0  0  0  0
 64 69  1  0  0  0  0
 65 78  1  0  0  0  0
 66 85  1  0  0  0  0
 67 69  1  0  0  0  0
 67 77  1  0  0  0  0
 68 78  1  0  0  0  0
 70 71  1  0  0  0  0
M  CHG  1  78   1
M  ISO  4  18 100  34 100  66 101  85 101
M  END
> <Batch ID>
0159

> <Smiles>
CNC(C)C(=O)NC(C(=O)N1Cc2cc([101O:1][101CH2:1]C3CC(C)(c4c[100c:0]([100C:0](=O)N5CCCC(n6nc(-c7ccc(Oc8ccc(F)cc8F)cc7)c(C(N)=O)c6N)C5)c(C)cc4C)CC3(C)C)ccc2CC1C(=O)NC1CCCc2ccccc21)C(C)(C)C

> <Shape>
0.200

> <Color>
0.080

> <Negative vol penalty>
0.000

$$$$

  -OEChem-04052322073D

 89 98  0     1  0  0  0  0  0999 V2000
  -29.5626  -34.8220   24.2353 C   0  0  0  0  0  0  0  0  0  0  0  0
  -29.1332  -33.5163   24.4505 C   0  0  0  0  0  0  0  0  0  0  0  0
  -23.0651   -9.8839   19.9142 C   0  0  0  0  0  0  0  0  0  0  0  0
  -23.7793   -9.8660   22.2221 C   0  0  0  0  0  0  0  0  0  0  0  0
  -29.5999  -35.3378   22.9406 C   0  0  0  0  0  0  0  0  0  0  0  0
  -28.7399  -32.7261   23.3710 C   0  0  0  0  0  0  0  0  0  0  0  0
  -30.6396  -28.0375   23.6016 C   0  0  0  0  0  0  0  0  0  0  0  0
  -22.3292   -8.7193   20.1328 C   0  0  0  0  0  0  0  0  0  0  0  0
  -23.0434   -8.7014   22.4408 C   0  0  0  0  0  0  0  0  0  0  0  0
  -30.0212  -27.1421   24.4731 C   0  0  0  0  0  0  0  0  0  0  0  0
  -23.3820   -5.3911   21.8423 C   0  0  0  0  0  0  0  0  0  0  0  0
  -23.9944   -4.3622   22.5577 C   0  0  0  0  0  0  0  0  0  0  0  0
  -28.8273  -26.1690   22.6166 C   0  0  0  0  0  0  0  0  0  0  0  0
  -22.2578   -4.4929   24.2322 C   0  0  0  0  0  0  0  0  0  0  0  0
  -23.7902  -10.4572   20.9588 C   0  0  0  0  0  0  0  0  0  0  0  0
  -24.1064  -12.9874   20.8815 C   0  0  0  0  0  0  0  0  0  0  0  0
  -29.2161  -34.5503   21.8437 C   0  0  0  0  0  0  0  0  0  0  0  0
  -30.3478  -28.0125   22.2302 C   0  0  0  0  0  0  0  0  0  0  0  0
  -28.7709  -33.2323   22.0605 C   0  0  0  0  0  0  0  0  0  0  0  0
  -29.4452  -27.0635   21.7294 C   0  0  0  0  0  0  0  0  0  0  0  0
  -29.9165  -17.8736   22.8791 C   0  0  0  0  0  0  0  0  0  0  0  0
  -30.1281  -17.1697   21.6987 C   0  0  0  0  0  0  0  0  0  0  0  0
  -22.3183   -8.1281   21.3961 C   0  0  0  0  0  0  0  0  0  0  0  0
  -29.1127  -26.2095   23.9811 C   0  0  0  0  0  0  0  0  0  0  0  0
  -22.2074   -5.9710   22.3218 C   0  0  0  0  0  0  0  0  0  0  0  0
  -30.4941  -17.8531   20.5445 C   0  0  0  0  0  0  0  0  0  0  0  0
  -23.4323   -3.9131   23.7527 C   0  0  0  0  0  0  0  0  0  0  0  0
  -21.6453   -5.5218   23.5168 C   0  0  0  0  0  0  0  0  0  0  0  0
  -24.5510  -11.6599   20.7334 C   0  0  0  0  0  0  0  0  0  0  0  0
  -30.0825  -19.2489   22.8527 C   0  0  0  0  0  0  0  0  0  0  0  0
  -30.6341  -19.2294   20.6226 C   0  0  0  0  0  0  0  0  0  0  0  0
  -25.1972  -13.7537   20.5508 C   0  0  0  0  0  0  0  0  0  0  0  0
  -22.8223  -13.4834   21.2823 C   0  0  0  0  0  0  0  0  0  0  0  0
  -29.0801  -30.0734   20.1688 C   0  0  0  0  0  0  0  0  0  0  0  0
  -29.8778  -27.7964   18.0006 C   0  0  0  0  0  0  0  0  0  0  0  0
  -30.5528  -24.5123   17.3633 C   0  0  0  0  0  0  0  0  0  0  0  0
  -30.6470  -14.8555   20.8494 C   0  0  0  0  0  0  0  0  0  0  0  0
  -29.2285  -35.1672   20.4674 C   0  0  0  0  0  0  0  0  0  0  0  0
  -31.0435  -28.9676   21.2995 C   0  0  0  0  0  0  0  0  0  0  0  0
  -29.1128  -26.9820   20.2627 C   0  0  0  0  0  0  0  0  0  0  0  0
  -29.1510  -34.1414   19.3395 C   0  0  0  0  0  0  0  0  0  0  0  0
  -29.6064  -12.4642   18.4253 C   0  0  0  0  0  0  0  0  0  0  0  0
  -28.0603  -33.1143   19.6260 C   0  0  0  0  0  0  0  0  0  0  0  0
  -28.1619  -12.1510   18.8219 C   0  0  0  0  0  0  0  0  0  0  0  0
  -30.7862  -21.2921   24.0845 C   0  0  0  0  0  0  0  0  0  0  0  0
  -28.3941  -20.4848   24.1977 C   0  0  0  0  0  0  0  0  0  0  0  0
  -30.4950  -12.6855   19.6481 C   0  0  0  0  0  0  0  0  0  0  0  0
  -28.5531  -13.3694   21.0012 C   0  0  0  0  0  0  0  0  0  0  0  0
  -30.5323  -22.1838   25.2931 C   0  0  0  0  0  0  0  0  0  0  0  0
  -28.1586  -21.3825   25.4057 C   0  0  0  0  0  0  0  0  0  0  0  0
  -28.3598  -32.3358   20.9127 C   0  0  1  0  0  0  0  0  0  0  0  0
  -29.8674  -20.0597   24.0899 C   0  0  0  0  0  0  0  0  0  0  0  0
  -30.2839  -29.1910   19.9955 C   0  0  1  0  0  0  0  0  0  0  0  0
  -27.6058  -13.2027   19.8018 C   0  0  2  0  0  0  0  0  0  0  0  0
  -29.5231  -17.1722   24.1367 C   0  0  0  0  0  0  0  0  0  0  0  0
  -31.0258  -20.0129   19.4128 C   0  0  0  0  0  0  0  0  0  0  0  0
  -31.1337  -22.9484   15.4888 C   0  0  0  0  0  0  0  0  0  0  0  0
  -26.9802  -27.8668   17.0471 C   0  0  0  0  0  0  0  0  0  0  0  0
  -27.3829  -25.6864   15.8844 C   0  0  0  0  0  0  0  0  0  0  0  0
  -28.6773  -27.7116   15.2167 C   0  0  0  0  0  0  0  0  0  0  0  0
  -33.1304  -23.7791   18.6191 C   0  0  0  0  0  0  0  0  0  0  0  0
  -29.5877  -17.0193   18.5100 C   0  0  0  0  0  0  0  0  0  0  0  0
  -28.7956  -23.5639   26.4307 C   0  0  0  0  0  0  0  0  0  0  0  0
  -29.2382  -24.9458   25.9918 C   0  0  0  0  0  0  0  0  0  1  0  0
  -29.1896  -26.5842   17.4209 C   0  0  1  0  0  0  0  0  0  0  0  0
  -31.6763  -23.8467   16.5894 C   0  0  2  0  0  0  0  0  0  0  0  0
  -28.0621  -26.9648   16.4203 C   0  0  0  0  0  0  0  0  0  0  0  0
  -25.8249  -11.5837   20.3391 N   0  0  0  0  0  0  0  0  0  0  0  0
  -30.4371  -19.9474   21.7509 N   0  0  0  0  0  0  0  0  0  0  0  0
  -26.1901  -12.8730   20.2366 N   0  0  0  0  0  0  0  0  0  0  0  0
  -29.8142  -27.9414   19.3937 N   0  0  0  0  0  0  0  0  0  0  0  0
  -29.9074  -13.6975   20.5287 N   0  0  0  0  0  0  0  0  0  0  0  0
  -25.3943  -15.0883   20.5009 N   0  0  0  0  0  0  0  0  0  0  0  0
  -21.8140  -12.5586   21.5863 N   0  0  0  0  0  0  0  0  0  0  0  0
  -29.9733  -15.7616   21.6678 N   0  0  0  0  0  0  0  0  0  0  0  0
  -29.3698  -31.3281   20.6702 N   0  0  0  0  0  0  0  0  0  0  0  0
  -30.2421  -25.7526   16.8472 N   0  0  0  0  0  0  0  0  0  0  0  0
  -29.0721  -22.5922   25.3427 N   0  3  0  0  0  0  0  0  0  0  0  0
  -32.5140  -23.0181   17.5020 N   0  3  0  0  0  0  0  0  0  0  0  0
  -22.5713  -14.7104   21.3524 O   0  0  0  0  0  0  0  0  0  0  0  0
  -27.9709  -29.6480   19.8684 O   0  0  0  0  0  0  0  0  0  0  0  0
  -30.4568  -28.5817   17.2458 O   0  0  0  0  0  0  0  0  0  0  0  0
  -30.0031  -23.9832   18.3269 O   0  0  0  0  0  0  0  0  0  0  0  0
  -31.7832  -15.0431   20.4068 O   0  0  0  0  0  0  0  0  0  0  0  0
  -21.6002   -6.9918   21.6099 O   0  0  0  0  0  0  0  0  0  0  0  0
  -30.7097  -17.1941   19.3751 O   0  0  0  0  0  0  0  0  0  0  0  0
  -28.5072  -25.3348   24.8297 O   0  0  0  0  0  0  0  0  0  1  0  0
  -24.0197   -2.9240   24.4389 F   0  0  0  0  0  0  0  0  0  0  0  0
  -20.5164   -6.0742   23.9819 F   0  0  0  0  0  0  0  0  0  0  0  0
  1  2  1  0  0  0  0
  1  5  2  0  0  0  0
  2  6  2  0  0  0  0
  3  8  2  0  0  0  0
  3 15  1  0  0  0  0
  4  9  1  0  0  0  0
  4 15  2  0  0  0  0
  5 17  1  0  0  0  0
  6 19  1  0  0  0  0
  7 10  2  0  0  0  0
  7 18  1  0  0  0  0
  8 23  1  0  0  0  0
  9 23  2  0  0  0  0
 10 24  1  0  0  0  0
 11 12  2  0  0  0  0
 11 25  1  0  0  0  0
 12 27  1  0  0  0  0
 13 20  1  0  0  0  0
 13 24  2  0  0  0  0
 14 27  2  0  0  0  0
 14 28  1  0  0  0  0
 15 29  1  0  0  0  0
 16 29  1  0  0  0  0
 16 32  2  0  0  0  0
 16 33  1  0  0  0  0
 17 19  2  0  0  0  0
 17 38  1  0  0  0  0
 18 20  2  0  0  0  0
 18 39  1  0  0  0  0
 19 51  1  0  0  0  0
 20 40  1  0  0  0  0
 21 22  1  0  0  0  0
 21 30  2  0  0  0  0
 21 55  1  0  0  0  0
 22 26  2  0  0  0  0
 22 75  1  0  0  0  0
 23 85  1  0  0  0  0
 24 87  1  0  0  0  0
 25 28  2  0  0  0  0
 25 85  1  0  0  0  0
 26 31  1  0  0  0  0
 26 86  1  0  0  0  0
 27 88  1  0  0  0  0
 28 89  1  0  0  0  0
 29 68  2  0  0  0  0
 30 52  1  0  0  0  0
 30 69  1  0  0  0  0
 31 56  1  0  0  0  0
 31 69  2  0  0  0  0
 32 70  1  0  0  0  0
 32 73  1  0  0  0  0
 33 74  1  0  0  0  0
 33 80  2  0  0  0  0
 34 53  1  0  0  0  0
 34 76  1  0  0  0  0
 34 81  2  0  0  0  0
 35 65  1  0  0  0  0
 35 71  1  0  0  0  0
 35 82  2  0  0  0  0
 36 66  1  0  0  0  0
 36 77  1  0  0  0  0
 36 83  2  0  0  0  0
 37 72  1  0  0  0  0
 37 75  1  0  0  0  0
 37 84  2  0  0  0  0
 38 41  1  0  0  0  0
 39 53  1  0  0  0  0
 40 71  1  0  0  0  0
 41 43  1  0  0  0  0
 42 44  1  0  0  0  0
 42 47  1  0  0  0  0
 43 51  1  0  0  0  0
 44 54  1  0  0  0  0
 45 49  1  0  0  0  0
 45 52  1  0  0  0  0
 46 50  1  0  0  0  0
 46 52  1  0  0  0  0
 47 72  1  0  0  0  0
 48 54  1  0  0  0  0
 48 72  1  0  0  0  0
 49 78  1  0  0  0  0
 50 78  1  0  0  0  0
 51 76  1  0  0  0  0
 53 71  1  0  0  0  0
 54 70  1  0  0  0  0
 57 66  1  0  0  0  0
 58 67  1  0  0  0  0
 59 67  1  0  0  0  0
 60 67  1  0  0  0  0
 61 79  1  0  0  0  0
 62 86  1  0  0  0  0
 63 64  1  0  0  0  0
 63 78  1  0  0  0  0
 64 87  1  0  0  0  0
 65 67  1  0  0  0  0
 65 77  1  0  0  0  0
 66 79  1  0  0  0  0
 68 70  1  0  0  0  0
M  CHG  2  78   1  79   1
M  ISO  4  37 100  64 101  75 100  87 101
M  END
> <Batch ID>
0159

> <Smiles>
CNC(C)C(=O)NC(C(=O)N1Cc2cc([101O:1][101CH2:1]CN3CCC(c4nc(C)c(OC)c([100NH:0][100C:0](=O)N5CCCC(n6nc(-c7ccc(Oc8ccc(F)cc8F)cc7)c(C(N)=O)c6N)C5)c4C)CC3)ccc2CC1C(=O)NC1CCCc2ccccc21)C(C)(C)C

> <Shape>
0.252

> <Color>
0.196

> <Negative vol penalty>
0.000

$$$$

  -OEChem-04052322073D

 86 95  0     1  0  0  0  0  0999 V2000
  -16.6488  -29.9061   23.6485 C   0  0  0  0  0  0  0  0  0  0  0  0
  -17.7645  -30.5775   24.1383 C   0  0  0  0  0  0  0  0  0  0  0  0
  -26.8737  -14.1244   21.4082 C   0  0  0  0  0  0  0  0  0  0  0  0
  -25.2301  -14.0777   19.6381 C   0  0  0  0  0  0  0  0  0  0  0  0
  -16.8024  -28.6805   23.0019 C   0  0  0  0  0  0  0  0  0  0  0  0
  -19.0344  -30.0231   23.9826 C   0  0  0  0  0  0  0  0  0  0  0  0
  -25.8712  -31.9195   22.9931 C   0  0  0  0  0  0  0  0  0  0  0  0
  -26.0582  -13.3037   22.1872 C   0  0  0  0  0  0  0  0  0  0  0  0
  -24.4145  -13.2569   20.4170 C   0  0  0  0  0  0  0  0  0  0  0  0
  -27.1379  -31.7037   23.5341 C   0  0  0  0  0  0  0  0  0  0  0  0
  -24.2531   -9.9887   21.2616 C   0  0  0  0  0  0  0  0  0  0  0  0
  -23.6675   -8.8843   20.6426 C   0  0  0  0  0  0  0  0  0  0  0  0
  -27.2902  -29.6188   22.3303 C   0  0  0  0  0  0  0  0  0  0  0  0
  -30.2481  -26.8579   23.7778 C   0  0  0  0  0  0  0  0  0  0  0  0
  -21.4751   -9.7480   21.1761 C   0  0  0  0  0  0  0  0  0  0  0  0
  -26.4597  -14.5115   20.1336 C   0  0  0  0  0  0  0  0  0  0  0  0
  -28.2943  -14.9535   18.4172 C   0  0  0  0  0  0  0  0  0  0  0  0
  -18.0758  -28.1154   22.8297 C   0  0  0  0  0  0  0  0  0  0  0  0
  -25.2990  -30.9797   22.1237 C   0  0  0  0  0  0  0  0  0  0  0  0
  -19.2051  -28.7881   23.3342 C   0  0  0  0  0  0  0  0  0  0  0  0
  -26.0172  -29.8263   21.7776 C   0  0  0  0  0  0  0  0  0  0  0  0
  -31.0794  -26.8455   22.6578 C   0  0  0  0  0  0  0  0  0  0  0  0
  -29.5848  -28.0299   24.1411 C   0  0  0  0  0  0  0  0  0  0  0  0
  -31.2475  -28.0052   21.9011 C   0  0  0  0  0  0  0  0  0  0  0  0
  -30.5842  -29.1772   22.2645 C   0  0  0  0  0  0  0  0  0  0  0  0
  -24.8286  -12.8699   21.6916 C   0  0  0  0  0  0  0  0  0  0  0  0
  -27.8464  -30.5519   23.2050 C   0  0  0  0  0  0  0  0  0  0  0  0
  -23.4498  -10.9726   21.8379 C   0  0  0  0  0  0  0  0  0  0  0  0
  -29.7528  -29.1896   23.3844 C   0  0  0  0  0  0  0  0  0  1  0  0
  -22.2785   -8.7640   20.5999 C   0  0  0  0  0  0  0  0  0  0  0  0
  -22.0608  -10.8523   21.7952 C   0  0  0  0  0  0  0  0  0  0  0  0
  -27.3014  -15.3598   19.3287 C   0  0  0  0  0  0  0  0  0  0  0  0
  -28.8005  -16.1274   17.9150 C   0  0  0  0  0  0  0  0  0  0  0  0
  -28.7209  -13.6330   18.0566 C   0  0  0  0  0  0  0  0  0  0  0  0
  -22.7010  -29.1496   22.1938 C   0  0  0  0  0  0  0  0  0  0  0  0
  -23.6016  -28.4294   19.1619 C   0  0  0  0  0  0  0  0  0  0  0  0
  -26.1074  -28.2318   16.8534 C   0  0  0  0  0  0  0  0  0  0  0  0
  -30.1617  -21.3252   19.3947 C   0  0  0  0  0  0  0  0  0  0  0  0
  -18.1873  -26.7657   22.1659 C   0  0  0  0  0  0  0  0  0  0  0  0
  -23.9428  -31.2401   21.5276 C   0  0  0  0  0  0  0  0  0  0  0  0
  -25.4559  -28.7962   20.8329 C   0  0  0  0  0  0  0  0  0  0  0  0
  -19.6042  -26.4260   21.7106 C   0  0  0  0  0  0  0  0  0  0  0  0
  -27.1846  -20.7828   17.6096 C   0  0  0  0  0  0  0  0  0  0  0  0
  -20.6089  -26.7373   22.8153 C   0  0  0  0  0  0  0  0  0  0  0  0
  -26.9998  -19.2751   17.7794 C   0  0  0  0  0  0  0  0  0  0  0  0
  -27.6797  -21.4481   18.8950 C   0  0  0  0  0  0  0  0  0  0  0  0
  -29.2743  -23.5568   20.2054 C   0  0  0  0  0  0  0  0  0  0  0  0
  -31.5060  -23.3917   19.1660 C   0  0  0  0  0  0  0  0  0  0  0  0
  -28.7187  -19.3255   19.6258 C   0  0  0  0  0  0  0  0  0  0  0  0
  -29.8926  -24.1688   21.4582 C   0  0  0  0  0  0  0  0  0  0  0  0
  -32.1591  -23.9756   20.4082 C   0  0  0  0  0  0  0  0  0  0  0  0
  -20.6016  -28.2308   23.1629 C   0  0  1  0  0  0  0  0  0  0  0  0
  -23.2430  -29.9689   21.0568 C   0  0  1  0  0  0  0  0  0  0  0  0
  -28.2780  -18.6210   18.3334 C   0  0  1  0  0  0  0  0  0  0  0  0
  -28.6992  -28.0232   25.3433 C   0  0  0  0  0  0  0  0  0  0  0  0
  -32.1394  -27.9901   20.7004 C   0  0  0  0  0  0  0  0  0  0  0  0
  -30.7599  -30.4238   21.4572 C   0  0  0  0  0  0  0  0  0  0  0  0
  -26.5443  -27.5724   14.4719 C   0  0  0  0  0  0  0  0  0  0  0  0
  -23.4701  -25.4861   19.9553 C   0  0  0  0  0  0  0  0  0  0  0  0
  -24.7991  -24.9456   17.9035 C   0  0  0  0  0  0  0  0  0  0  0  0
  -22.5475  -25.9975   17.6877 C   0  0  0  0  0  0  0  0  0  0  0  0
  -27.0011  -30.9614   16.1397 C   0  0  0  0  0  0  0  0  0  0  0  0
  -31.7812  -25.5719   22.2886 C   0  0  0  0  0  0  0  0  0  0  0  0
  -24.4874  -27.3831   18.5297 C   0  0  1  0  0  0  0  0  0  0  0  0
  -26.1927  -28.7118   15.4158 C   0  0  2  0  0  0  0  0  0  0  0  0
  -23.8361  -25.9714   18.5384 C   0  0  0  0  0  0  0  0  0  0  0  0
  -27.1824  -16.6880   19.4034 N   0  0  0  0  0  0  0  0  0  0  0  0
  -28.1072  -17.1266   18.5325 N   0  0  0  0  0  0  0  0  0  0  0  0
  -24.1236  -29.0931   20.2812 N   0  0  0  0  0  0  0  0  0  0  0  0
  -28.8756  -20.7651   19.4077 N   0  0  0  0  0  0  0  0  0  0  0  0
  -30.2492  -22.7218   19.4932 N   0  0  0  0  0  0  0  0  0  0  0  0
  -29.7666  -16.3922   17.0100 N   0  0  0  0  0  0  0  0  0  0  0  0
  -28.0947  -12.5383   18.6680 N   0  0  0  0  0  0  0  0  0  0  0  0
  -21.3292  -28.9855   22.1652 N   0  0  0  0  0  0  0  0  0  0  0  0
  -24.8197  -27.8797   17.1988 N   0  0  0  0  0  0  0  0  0  0  0  0
  -31.1709  -24.8870   21.0979 N   0  3  0  0  0  0  0  0  0  0  0  0
  -27.2339  -29.7697   15.2838 N   0  3  0  0  0  0  0  0  0  0  0  0
  -29.6417  -13.4302   17.2292 O   0  0  0  0  0  0  0  0  0  0  0  0
  -23.4706  -28.6984   23.0339 O   0  0  0  0  0  0  0  0  0  0  0  0
  -22.4904  -28.6547   18.6760 O   0  0  0  0  0  0  0  0  0  0  0  0
  -27.0858  -28.1715   17.5947 O   0  0  0  0  0  0  0  0  0  0  0  0
  -31.1732  -20.6185   19.3011 O   0  0  0  0  0  0  0  0  0  0  0  0
  -24.0327  -12.0688   22.4514 O   0  0  0  0  0  0  0  0  0  0  0  0
  -29.1032  -30.3349   23.7409 O   0  0  0  0  0  0  0  0  0  1  0  0
  -21.7163   -7.7042   20.0041 F   0  0  0  0  0  0  0  0  0  0  0  0
  -21.2837  -11.7949   22.3460 F   0  0  0  0  0  0  0  0  0  0  0  0
  1  2  1  0  0  0  0
  1  5  2  0  0  0  0
  2  6  2  0  0  0  0
  3  8  2  0  0  0  0
  3 16  1  0  0  0  0
  4  9  1  0  0  0  0
  4 16  2  0  0  0  0
  5 18  1  0  0  0  0
  6 20  1  0  0  0  0
  7 10  2  0  0  0  0
  7 19  1  0  0  0  0
  8 26  1  0  0  0  0
  9 26  2  0  0  0  0
 10 27  1  0  0  0  0
 11 12  2  0  0  0  0
 11 28  1  0  0  0  0
 12 30  1  0  0  0  0
 13 21  1  0  0  0  0
 13 27  2  0  0  0  0
 14 22  1  0  0  0  0
 14 23  2  0  0  0  0
 15 30  2  0  0  0  0
 15 31  1  0  0  0  0
 16 32  1  0  0  0  0
 17 32  1  0  0  0  0
 17 33  2  0  0  0  0
 17 34  1  0  0  0  0
 18 20  2  0  0  0  0
 18 39  1  0  0  0  0
 19 21  2  0  0  0  0
 19 40  1  0  0  0  0
 20 52  1  0  0  0  0
 21 41  1  0  0  0  0
 22 24  2  0  0  0  0
 22 63  1  0  0  0  0
 23 29  1  0  0  0  0
 23 55  1  0  0  0  0
 24 25  1  0  0  0  0
 24 56  1  0  0  0  0
 25 29  2  0  0  0  0
 25 57  1  0  0  0  0
 26 83  1  0  0  0  0
 27 84  1  0  0  0  0
 28 31  2  0  0  0  0
 28 83  1  0  0  0  0
 29 84  1  0  0  0  0
 30 85  1  0  0  0  0
 31 86  1  0  0  0  0
 32 67  2  0  0  0  0
 33 68  1  0  0  0  0
 33 72  1  0  0  0  0
 34 73  1  0  0  0  0
 34 78  2  0  0  0  0
 35 53  1  0  0  0  0
 35 74  1  0  0  0  0
 35 79  2  0  0  0  0
 36 64  1  0  0  0  0
 36 69  1  0  0  0  0
 36 80  2  0  0  0  0
 37 65  1  0  0  0  0
 37 75  1  0  0  0  0
 37 81  2  0  0  0  0
 38 70  1  0  0  0  0
 38 71  1  0  0  0  0
 38 82  2  0  0  0  0
 39 42  1  0  0  0  0
 40 53  1  0  0  0  0
 41 69  1  0  0  0  0
 42 44  1  0  0  0  0
 43 45  1  0  0  0  0
 43 46  1  0  0  0  0
 44 52  1  0  0  0  0
 45 54  1  0  0  0  0
 46 70  1  0  0  0  0
 47 50  1  0  0  0  0
 47 71  1  0  0  0  0
 48 51  1  0  0  0  0
 48 71  1  0  0  0  0
 49 54  1  0  0  0  0
 49 70  1  0  0  0  0
 50 76  1  0  0  0  0
 51 76  1  0  0  0  0
 52 74  1  0  0  0  0
 53 69  1  0  0  0  0
 54 68  1  0  0  0  0
 58 65  1  0  0  0  0
 59 66  1  0  0  0  0
 60 66  1  0  0  0  0
 61 66  1  0  0  0  0
 62 77  1  0  0  0  0
 63 76  1  0  0  0  0
 64 66  1  0  0  0  0
 64 75  1  0  0  0  0
 65 77  1  0  0  0  0
 67 68  1  0  0  0  0
M  CHG  2  76   1  77   1
M  ISO  4  29 101  38 100  71 100  84 101
M  END
> <Batch ID>
0159

> <Smiles>
CNC(C)C(=O)NC(C(=O)N1Cc2cc([101O:1][101c:1]3c(C)cc(CN4CC[100N:0]([100C:0](=O)N5CCCC(n6nc(-c7ccc(Oc8ccc(F)cc8F)cc7)c(C(N)=O)c6N)C5)CC4)c(C)c3C)ccc2CC1C(=O)NC1CCCc2ccccc21)C(C)(C)C

> <Shape>
0.306

> <Color>
0.110

> <Negative vol penalty>
0.000

$$$$

  -OEChem-04052322073D

 90 99  0     1  0  0  0  0  0999 V2000
  -27.4209  -36.9773   24.9560 C   0  0  0  0  0  0  0  0  0  0  0  0
  -27.9602  -36.0604   24.0595 C   0  0  0  0  0  0  0  0  0  0  0  0
  -24.6241   -8.8708   21.6407 C   0  0  0  0  0  0  0  0  0  0  0  0
  -22.8433  -10.4447   21.2060 C   0  0  0  0  0  0  0  0  0  0  0  0
  -26.4654  -36.5643   25.8835 C   0  0  0  0  0  0  0  0  0  0  0  0
  -27.5451  -34.7295   24.0907 C   0  0  0  0  0  0  0  0  0  0  0  0
  -26.9301  -30.9516   19.3101 C   0  0  0  0  0  0  0  0  0  0  0  0
  -23.7899   -8.1669   22.5092 C   0  0  0  0  0  0  0  0  0  0  0  0
  -22.0091   -9.7407   22.0745 C   0  0  0  0  0  0  0  0  0  0  0  0
  -27.7586  -29.9610   18.7848 C   0  0  0  0  0  0  0  0  0  0  0  0
  -21.2643   -5.9313   22.2720 C   0  0  0  0  0  0  0  0  0  0  0  0
  -21.2438   -4.5407   22.1662 C   0  0  0  0  0  0  0  0  0  0  0  0
  -26.5409  -28.2911   20.0290 C   0  0  0  0  0  0  0  0  0  0  0  0
  -28.6747  -24.3795   17.5896 C   0  0  0  0  0  0  0  0  0  0  0  0
  -31.4048  -24.6994   18.0654 C   0  0  0  0  0  0  0  0  0  0  0  0
  -21.9929   -4.3555   24.4557 C   0  0  0  0  0  0  0  0  0  0  0  0
  -24.1508  -10.0098   20.9892 C   0  0  0  0  0  0  0  0  0  0  0  0
  -25.1675  -10.5316   18.7085 C   0  0  0  0  0  0  0  0  0  0  0  0
  -26.0313  -35.2299   25.9198 C   0  0  0  0  0  0  0  0  0  0  0  0
  -25.9059  -30.6201   20.2088 C   0  0  0  0  0  0  0  0  0  0  0  0
  -26.5838  -34.2980   25.0206 C   0  0  0  0  0  0  0  0  0  0  0  0
  -25.6991  -29.2791   20.5623 C   0  0  0  0  0  0  0  0  0  0  0  0
  -29.1220  -25.4058   18.4215 C   0  0  0  0  0  0  0  0  0  0  0  0
  -29.5924  -23.5130   16.9957 C   0  0  0  0  0  0  0  0  0  0  0  0
  -30.4871  -25.5658   18.6594 C   0  0  0  0  0  0  0  0  0  0  0  0
  -22.4825   -8.6017   22.7261 C   0  0  0  0  0  0  0  0  0  0  0  0
  -27.5660  -28.6309   19.1464 C   0  0  0  0  0  0  0  0  0  0  0  0
  -21.6491   -6.5341   23.4696 C   0  0  0  0  0  0  0  0  0  0  0  0
  -30.9574  -23.6730   17.2336 C   0  0  0  0  0  0  0  0  0  0  0  0
  -21.6081   -3.7528   23.2580 C   0  0  0  0  0  0  0  0  0  0  0  0
  -22.0134   -5.7462   24.5614 C   0  0  0  0  0  0  0  0  0  0  0  0
  -25.0121  -10.7377   20.0924 C   0  0  0  0  0  0  0  0  0  0  0  0
  -26.0915  -11.4719   18.3229 C   0  0  0  0  0  0  0  0  0  0  0  0
  -24.5333   -9.5757   17.8484 C   0  0  0  0  0  0  0  0  0  0  0  0
  -25.2495  -31.3534   23.2312 C   0  0  0  0  0  0  0  0  0  0  0  0
  -22.5076  -29.7311   22.6210 C   0  0  0  0  0  0  0  0  0  0  0  0
  -20.8869  -27.3805   20.7515 C   0  0  0  0  0  0  0  0  0  0  0  0
  -28.1315  -16.4384   18.2980 C   0  0  0  0  0  0  0  0  0  0  0  0
  -25.0310  -34.8203   26.9717 C   0  0  0  0  0  0  0  0  0  0  0  0
  -25.0038  -31.6973   20.7458 C   0  0  0  0  0  0  0  0  0  0  0  0
  -24.6009  -28.8685   21.5076 C   0  0  0  0  0  0  0  0  0  0  0  0
  -24.3700  -33.4730   26.6918 C   0  0  0  0  0  0  0  0  0  0  0  0
  -29.0747  -14.4897   21.0634 C   0  0  0  0  0  0  0  0  0  0  0  0
  -25.4167  -32.4373   26.2938 C   0  0  0  0  0  0  0  0  0  0  0  0
  -28.1077  -13.3117   20.9487 C   0  0  0  0  0  0  0  0  0  0  0  0
  -29.3281  -19.2829   16.7179 C   0  0  0  0  0  0  0  0  0  0  0  0
  -27.8650  -19.9293   18.6737 C   0  0  0  0  0  0  0  0  0  0  0  0
  -28.3954  -15.8221   20.7422 C   0  0  0  0  0  0  0  0  0  0  0  0
  -29.8150  -18.0808   17.5210 C   0  0  0  0  0  0  0  0  0  0  0  0
  -28.3615  -18.6952   19.4315 C   0  0  0  0  0  0  0  0  0  0  0  0
  -26.7363  -14.6644   19.3187 C   0  0  0  0  0  0  0  0  0  0  0  0
  -26.1409  -32.8511   25.0070 C   0  0  1  0  0  0  0  0  0  0  0  0
  -24.3193  -31.3071   22.0521 C   0  0  1  0  0  0  0  0  0  0  0  0
  -27.4044  -13.3056   19.5798 C   0  0  2  0  0  0  0  0  0  0  0  0
  -28.8969  -20.4016   17.6577 C   0  0  0  0  0  0  0  0  0  0  0  0
  -30.9901  -26.6572   19.5461 C   0  0  0  0  0  0  0  0  0  0  0  0
  -28.3242  -22.9383   14.8853 C   0  0  0  0  0  0  0  0  0  0  0  0
  -18.6620  -26.2447   20.5124 C   0  0  0  0  0  0  0  0  0  0  0  0
  -23.1150  -28.0291   25.0794 C   0  0  0  0  0  0  0  0  0  0  0  0
  -21.4358  -26.3647   24.2559 C   0  0  0  0  0  0  0  0  0  0  0  0
  -20.7138  -28.6824   24.8302 C   0  0  0  0  0  0  0  0  0  0  0  0
  -20.5366  -28.3922   17.9924 C   0  0  0  0  0  0  0  0  0  0  0  0
  -33.2418  -23.0706   16.9598 C   0  0  0  0  0  0  0  0  0  0  0  0
  -28.1212  -26.3205   19.0479 C   0  0  0  0  0  0  0  0  0  1  0  0
  -29.0892  -22.4055   16.0951 C   0  0  2  0  0  0  0  0  0  0  0  0
  -22.0702  -28.2906   22.7329 C   0  0  1  0  0  0  0  0  0  0  0  0
  -19.5377  -27.4013   20.0562 C   0  0  2  0  0  0  0  0  0  0  0  0
  -21.8557  -27.8493   24.2083 C   0  0  0  0  0  0  0  0  0  0  0  0
  -25.7763  -11.7308   20.5548 N   0  0  0  0  0  0  0  0  0  0  0  0
  -26.4208  -12.1571   19.4553 N   0  0  0  0  0  0  0  0  0  0  0  0
  -23.7492  -29.9589   22.0108 N   0  0  0  0  0  0  0  0  0  0  0  0
  -27.7049  -15.7552   19.4467 N   0  0  0  0  0  0  0  0  0  0  0  0
  -28.8067  -17.6526   18.4934 N   0  0  0  0  0  0  0  0  0  0  0  0
  -26.6463  -11.7710   17.1292 N   0  0  0  0  0  0  0  0  0  0  0  0
  -23.6089   -8.6833   18.4081 N   0  0  0  0  0  0  0  0  0  0  0  0
  -25.3099  -32.5865   23.8520 N   0  0  0  0  0  0  0  0  0  0  0  0
  -20.8863  -28.1568   21.8911 N   0  0  0  0  0  0  0  0  0  0  0  0
  -28.2677  -21.4403   16.8434 N   0  0  3  0  0  0  0  0  0  0  0  0
  -19.7143  -27.3032   18.5796 N   0  3  0  0  0  0  0  0  0  0  0  0
  -26.8381  -21.5197   16.7686 O   0  5  0  0  0  0  0  0  0  0  0  0
  -24.7913   -9.5040   16.6229 O   0  0  0  0  0  0  0  0  0  0  0  0
  -25.8656  -30.3448   23.5547 O   0  0  0  0  0  0  0  0  0  0  0  0
  -21.7714  -30.6219   23.0524 O   0  0  0  0  0  0  0  0  0  0  0  0
  -21.8445  -26.7367   20.3283 O   0  0  0  0  0  0  0  0  0  0  0  0
  -27.9212  -15.9901   17.1639 O   0  0  0  0  0  0  0  0  0  0  0  0
  -21.6682   -7.9149   23.5732 O   0  0  0  0  0  0  0  0  0  0  0  0
  -31.8671  -22.8346   16.6625 O   0  0  0  0  0  0  0  0  0  0  0  0
  -28.3794  -27.6551   18.6320 O   0  0  0  0  0  0  0  0  0  1  0  0
  -21.5869   -2.4173   23.1568 F   0  0  0  0  0  0  0  0  0  0  0  0
  -22.3829   -6.3196   25.7149 F   0  0  0  0  0  0  0  0  0  0  0  0
  1  2  1  0  0  0  0
  1  5  2  0  0  0  0
  2  6  2  0  0  0  0
  3  8  2  0  0  0  0
  3 17  1  0  0  0  0
  4  9  1  0  0  0  0
  4 17  2  0  0  0  0
  5 19  1  0  0  0  0
  6 21  1  0  0  0  0
  7 10  2  0  0  0  0
  7 20  1  0  0  0  0
  8 26  1  0  0  0  0
  9 26  2  0  0  0  0
 10 27  1  0  0  0  0
 11 12  2  0  0  0  0
 11 28  1  0  0  0  0
 12 30  1  0  0  0  0
 13 22  1  0  0  0  0
 13 27  2  0  0  0  0
 14 23  1  0  0  0  0
 14 24  2  0  0  0  0
 15 25  1  0  0  0  0
 15 29  2  0  0  0  0
 16 30  2  0  0  0  0
 16 31  1  0  0  0  0
 17 32  1  0  0  0  0
 18 32  1  0  0  0  0
 18 33  2  0  0  0  0
 18 34  1  0  0  0  0
 19 21  2  0  0  0  0
 19 39  1  0  0  0  0
 20 22  2  0  0  0  0
 20 40  1  0  0  0  0
 21 52  1  0  0  0  0
 22 41  1  0  0  0  0
 23 25  2  0  0  0  0
 23 64  1  0  0  0  0
 24 29  1  0  0  0  0
 24 65  1  0  0  0  0
 25 56  1  0  0  0  0
 26 86  1  0  0  0  0
 27 88  1  0  0  0  0
 28 31  2  0  0  0  0
 28 86  1  0  0  0  0
 29 87  1  0  0  0  0
 30 89  1  0  0  0  0
 31 90  1  0  0  0  0
 32 69  2  0  0  0  0
 33 70  1  0  0  0  0
 33 74  1  0  0  0  0
 34 75  1  0  0  0  0
 34 81  2  0  0  0  0
 35 53  1  0  0  0  0
 35 76  1  0  0  0  0
 35 82  2  0  0  0  0
 36 66  1  0  0  0  0
 36 71  1  0  0  0  0
 36 83  2  0  0  0  0
 37 67  1  0  0  0  0
 37 77  1  0  0  0  0
 37 84  2  0  0  0  0
 38 72  1  0  0  0  0
 38 73  1  0  0  0  0
 38 85  2  0  0  0  0
 39 42  1  0  0  0  0
 40 53  1  0  0  0  0
 41 71  1  0  0  0  0
 42 44  1  0  0  0  0
 43 45  1  0  0  0  0
 43 48  1  0  0  0  0
 44 52  1  0  0  0  0
 45 54  1  0  0  0  0
 46 49  1  0  0  0  0
 46 55  1  0  0  0  0
 47 50  1  0  0  0  0
 47 55  1  0  0  0  0
 48 72  1  0  0  0  0
 49 73  1  0  0  0  0
 50 73  1  0  0  0  0
 51 54  1  0  0  0  0
 51 72  1  0  0  0  0
 52 76  1  0  0  0  0
 53 71  1  0  0  0  0
 54 70  1  0  0  0  0
 55 78  1  0  0  0  0
 57 65  1  0  0  0  0
 58 67  1  0  0  0  0
 59 68  1  0  0  0  0
 60 68  1  0  0  0  0
 61 68  1  0  0  0  0
 62 79  1  0  0  0  0
 63 87  1  0  0  0  0
 64 88  1  0  0  0  0
 65 78  1  0  0  0  0
 66 68  1  0  0  0  0
 66 77  1  0  0  0  0
 67 79  1  0  0  0  0
 69 70  1  0  0  0  0
 78 80  1  0  0  0  0
M  CHG  2  79   1  80  -1
M  ISO  4  38 100  64 101  73 100  88 101
M  END
> <Batch ID>
0159

> <Smiles>
CNC(C)C(=O)NC(C(=O)N1Cc2cc([101O:1][101CH2:1]c3cc(C(C)N(O)C4CC[100N:0]([100C:0](=O)N5CCCC(n6nc(-c7ccc(Oc8ccc(F)cc8F)cc7)c(C(N)=O)c6N)C5)CC4)c(OC)cc3C)ccc2CC1C(=O)NC1CCCc2ccccc21)C(C)(C)C

> <Shape>
0.338

> <Color>
0.076

> <Negative vol penalty>
0.000

$$$$

  -OEChem-04052322073D

 87 96  0     1  0  0  0  0  0999 V2000
  -13.1422  -20.1106    5.3602 C   0  0  0  0  0  0  0  0  0  0  0  0
  -14.1943  -19.4202    5.9533 C   0  0  0  0  0  0  0  0  0  0  0  0
  -23.1682   -9.9086   19.8901 C   0  0  0  0  0  0  0  0  0  0  0  0
  -23.7907   -9.9121   22.2246 C   0  0  0  0  0  0  0  0  0  0  0  0
  -12.7412  -21.3431    5.8740 C   0  0  0  0  0  0  0  0  0  0  0  0
  -14.8467  -19.9623    7.0600 C   0  0  0  0  0  0  0  0  0  0  0  0
  -17.2113  -16.8979   11.8059 C   0  0  0  0  0  0  0  0  0  0  0  0
  -22.4259   -8.7447   20.0898 C   0  0  0  0  0  0  0  0  0  0  0  0
  -23.0484   -8.7482   22.4242 C   0  0  0  0  0  0  0  0  0  0  0  0
  -18.5103  -16.4899   12.1057 C   0  0  0  0  0  0  0  0  0  0  0  0
  -19.8009   -7.9058   22.8302 C   0  0  0  0  0  0  0  0  0  0  0  0
  -18.9765   -7.8495   23.9539 C   0  0  0  0  0  0  0  0  0  0  0  0
  -18.8098  -18.4614   13.4632 C   0  0  0  0  0  0  0  0  0  0  0  0
  -20.1973   -5.9238   24.7530 C   0  0  0  0  0  0  0  0  0  0  0  0
  -23.8506  -10.4923   20.9575 C   0  0  0  0  0  0  0  0  0  0  0  0
  -24.1659  -13.0223   20.8706 C   0  0  0  0  0  0  0  0  0  0  0  0
  -13.3826  -21.8962    6.9935 C   0  0  0  0  0  0  0  0  0  0  0  0
  -16.7046  -18.0982   12.3247 C   0  0  0  0  0  0  0  0  0  0  0  0
  -14.4547  -21.2040    7.5885 C   0  0  0  0  0  0  0  0  0  0  0  0
  -17.5031  -18.8811   13.1706 C   0  0  0  0  0  0  0  0  0  0  0  0
  -25.2683  -16.0780   14.5938 C   0  0  0  0  0  0  0  0  0  0  0  0
  -24.8150  -16.4138   13.3181 C   0  0  0  0  0  0  0  0  0  0  0  0
  -24.4446  -16.2776   15.7017 C   0  0  0  0  0  0  0  0  0  0  0  0
  -23.5381  -16.9495   13.1503 C   0  0  0  0  0  0  0  0  0  0  0  0
  -23.1677  -16.8133   15.5338 C   0  0  0  0  0  0  0  0  0  0  0  0
  -22.7144  -17.1493   14.2582 C   0  0  0  0  0  0  0  0  0  0  0  0
  -22.3660   -8.1644   21.3568 C   0  0  0  0  0  0  0  0  0  0  0  0
  -19.3108  -17.2731   12.9321 C   0  0  0  0  0  0  0  0  0  0  0  0
  -20.8235   -6.9711   22.6678 C   0  0  0  0  0  0  0  0  0  0  0  0
  -19.1747   -6.8585   24.9153 C   0  0  0  0  0  0  0  0  0  0  0  0
  -21.0217   -5.9801   23.6293 C   0  0  0  0  0  0  0  0  0  0  0  0
  -24.6180  -11.6944   20.7518 C   0  0  0  0  0  0  0  0  0  0  0  0
  -25.2678  -13.7877   20.5765 C   0  0  0  0  0  0  0  0  0  0  0  0
  -22.8662  -13.5195   21.2160 C   0  0  0  0  0  0  0  0  0  0  0  0
  -15.6499  -20.8186   11.0636 C   0  0  0  0  0  0  0  0  0  0  0  0
  -14.8875  -21.4967   14.1427 C   0  0  0  0  0  0  0  0  0  0  0  0
  -15.4613  -20.9375   17.4601 C   0  0  0  0  0  0  0  0  0  0  0  0
  -29.8436  -13.9776   17.2412 C   0  0  0  0  0  0  0  0  0  0  0  0
  -12.9446  -23.2534    7.4843 C   0  0  0  0  0  0  0  0  0  0  0  0
  -15.2921  -18.5108   12.0134 C   0  0  0  0  0  0  0  0  0  0  0  0
  -16.9995  -20.1680   13.7694 C   0  0  0  0  0  0  0  0  0  0  0  0
  -13.4431  -23.5832    8.8889 C   0  0  0  0  0  0  0  0  0  0  0  0
  -30.1469  -13.0340   20.5532 C   0  0  0  0  0  0  0  0  0  0  0  0
  -14.9247  -23.2457    9.0226 C   0  0  0  0  0  0  0  0  0  0  0  0
  -28.7109  -12.7191   20.9725 C   0  0  0  0  0  0  0  0  0  0  0  0
  -27.5544  -16.4024   15.6365 C   0  0  0  0  0  0  0  0  0  0  0  0
  -26.6124  -14.0710   15.3573 C   0  0  0  0  0  0  0  0  0  0  0  0
  -30.4332  -12.5126   19.1495 C   0  0  0  0  0  0  0  0  0  0  0  0
  -28.9405  -15.7937   15.8347 C   0  0  0  0  0  0  0  0  0  0  0  0
  -28.0191  -13.5153   15.5597 C   0  0  0  0  0  0  0  0  0  0  0  0
  -28.0517  -12.7188   18.5170 C   0  0  0  0  0  0  0  0  0  0  0  0
  -26.6573  -15.4955   14.7766 C   0  0  0  0  0  0  0  0  0  0  0  0
  -15.1710  -21.7477    8.8057 C   0  0  1  0  0  0  0  0  0  0  0  0
  -15.0564  -20.0087   12.1814 C   0  0  1  0  0  0  0  0  0  0  0  0
  -27.7052  -13.2346   19.9280 C   0  0  1  0  0  0  0  0  0  0  0  0
  -25.6989  -16.1994   12.1299 C   0  0  0  0  0  0  0  0  0  0  0  0
  -24.9310  -15.9182   17.0704 C   0  0  0  0  0  0  0  0  0  0  0  0
  -23.0534  -17.3125   11.7820 C   0  0  0  0  0  0  0  0  0  0  0  0
  -22.2837  -17.0281   16.7220 C   0  0  0  0  0  0  0  0  0  0  0  0
  -14.7083  -21.6675   19.7399 C   0  0  0  0  0  0  0  0  0  0  0  0
  -16.4650  -24.0899   13.8309 C   0  0  0  0  0  0  0  0  0  0  0  0
  -16.4852  -24.2959   16.3260 C   0  0  0  0  0  0  0  0  0  0  0  0
  -14.3175  -24.3204   15.0918 C   0  0  0  0  0  0  0  0  0  0  0  0
  -14.5622  -18.2073   18.1645 C   0  0  0  0  0  0  0  0  0  0  0  0
  -21.3452  -17.7255   14.0776 C   0  0  0  0  0  0  0  0  0  1  0  0
  -15.6002  -22.1517   15.3012 C   0  0  1  0  0  0  0  0  0  0  0  0
  -14.5138  -20.6637   18.6141 C   0  0  2  0  0  0  0  0  0  0  0  0
  -15.7274  -23.6913   15.1248 C   0  0  0  0  0  0  0  0  0  0  0  0
  -25.9065  -11.6171   20.4088 N   0  0  0  0  0  0  0  0  0  0  0  0
  -26.2736  -12.9061   20.3095 N   0  0  0  0  0  0  0  0  0  0  0  0
  -15.6138  -20.5320   13.4303 N   0  0  0  0  0  0  0  0  0  0  0  0
  -29.4533  -13.0193   18.1890 N   0  0  0  0  0  0  0  0  0  0  0  0
  -28.8546  -14.4284   16.3514 N   0  0  0  0  0  0  0  0  0  0  0  0
  -25.4647  -15.1222   20.5227 N   0  0  0  0  0  0  0  0  0  0  0  0
  -21.8481  -12.5955   21.4881 N   0  0  0  0  0  0  0  0  0  0  0  0
  -14.8018  -20.9985    9.9875 N   0  0  0  0  0  0  0  0  0  0  0  0
  -14.8823  -21.7455   16.5045 N   0  0  0  0  0  0  0  0  0  0  0  0
  -14.7430  -19.2958   19.1592 N   0  3  0  0  0  0  0  0  0  0  0  0
  -22.6109  -14.7466   21.2653 O   0  0  0  0  0  0  0  0  0  0  0  0
  -16.7920  -21.2497   11.1701 O   0  0  0  0  0  0  0  0  0  0  0  0
  -13.7266  -21.8238   13.8840 O   0  0  0  0  0  0  0  0  0  0  0  0
  -16.6024  -20.4833   17.4130 O   0  0  0  0  0  0  0  0  0  0  0  0
  -31.0020  -14.4097   17.1942 O   0  0  0  0  0  0  0  0  0  0  0  0
  -21.6416   -7.0288   21.5520 O   0  0  0  0  0  0  0  0  0  0  0  0
  -20.5887  -16.8746   13.2279 O   0  0  0  0  0  0  0  0  0  1  0  0
  -18.3839   -6.8055   25.9952 F   0  0  0  0  0  0  0  0  0  0  0  0
  -22.0032   -5.0801   23.4794 F   0  0  0  0  0  0  0  0  0  0  0  0
  1  2  1  0  0  0  0
  1  5  2  0  0  0  0
  2  6  2  0  0  0  0
  3  8  2  0  0  0  0
  3 15  1  0  0  0  0
  4  9  1  0  0  0  0
  4 15  2  0  0  0  0
  5 17  1  0  0  0  0
  6 19  1  0  0  0  0
  7 10  2  0  0  0  0
  7 18  1  0  0  0  0
  8 27  1  0  0  0  0
  9 27  2  0  0  0  0
 10 28  1  0  0  0  0
 11 12  2  0  0  0  0
 11 29  1  0  0  0  0
 12 30  1  0  0  0  0
 13 20  1  0  0  0  0
 13 28  2  0  0  0  0
 14 30  2  0  0  0  0
 14 31  1  0  0  0  0
 15 32  1  0  0  0  0
 16 32  1  0  0  0  0
 16 33  2  0  0  0  0
 16 34  1  0  0  0  0
 17 19  2  0  0  0  0
 17 39  1  0  0  0  0
 18 20  2  0  0  0  0
 18 40  1  0  0  0  0
 19 53  1  0  0  0  0
 20 41  1  0  0  0  0
 21 22  1  0  0  0  0
 21 23  2  0  0  0  0
 21 52  1  0  0  0  0
 22 24  2  0  0  0  0
 22 56  1  0  0  0  0
 23 25  1  0  0  0  0
 23 57  1  0  0  0  0
 24 26  1  0  0  0  0
 24 58  1  0  0  0  0
 25 26  2  0  0  0  0
 25 59  1  0  0  0  0
 26 65  1  0  0  0  0
 27 84  1  0  0  0  0
 28 85  1  0  0  0  0
 29 31  2  0  0  0  0
 29 84  1  0  0  0  0
 30 86  1  0  0  0  0
 31 87  1  0  0  0  0
 32 69  2  0  0  0  0
 33 70  1  0  0  0  0
 33 74  1  0  0  0  0
 34 75  1  0  0  0  0
 34 79  2  0  0  0  0
 35 54  1  0  0  0  0
 35 76  1  0  0  0  0
 35 80  2  0  0  0  0
 36 66  1  0  0  0  0
 36 71  1  0  0  0  0
 36 81  2  0  0  0  0
 37 67  1  0  0  0  0
 37 77  1  0  0  0  0
 37 82  2  0  0  0  0
 38 72  1  0  0  0  0
 38 73  1  0  0  0  0
 38 83  2  0  0  0  0
 39 42  1  0  0  0  0
 40 54  1  0  0  0  0
 41 71  1  0  0  0  0
 42 44  1  0  0  0  0
 43 45  1  0  0  0  0
 43 48  1  0  0  0  0
 44 53  1  0  0  0  0
 45 55  1  0  0  0  0
 46 49  1  0  0  0  0
 46 52  1  0  0  0  0
 47 50  1  0  0  0  0
 47 52  1  0  0  0  0
 48 72  1  0  0  0  0
 49 73  1  0  0  0  0
 50 73  1  0  0  0  0
 51 55  1  0  0  0  0
 51 72  1  0  0  0  0
 53 76  1  0  0  0  0
 54 71  1  0  0  0  0
 55 70  1  0  0  0  0
 60 67  1  0  0  0  0
 61 68  1  0  0  0  0
 62 68  1  0  0  0  0
 63 68  1  0  0  0  0
 64 78  1  0  0  0  0
 65 85  1  0  0  0  0
 66 68  1  0  0  0  0
 66 77  1  0  0  0  0
 67 78  1  0  0  0  0
 69 70  1  0  0  0  0
M  CHG  1  78   1
M  ISO  4  38 100  65 101  73 100  85 101
M  END
> <Batch ID>
0159

> <Smiles>
CNC(C)C(=O)NC(C(=O)N1Cc2cc([101O:1][101CH2:1]c3c(C)c(C)c(C4CC[100N:0]([100C:0](=O)N5CCCC(n6nc(-c7ccc(Oc8ccc(F)cc8F)cc7)c(C(N)=O)c6N)C5)CC4)c(C)c3C)ccc2CC1C(=O)NC1CCCc2ccccc21)C(C)(C)C

> <Shape>
0.136

> <Color>
0.179

> <Negative vol penalty>
0.000

$$$$

  -OEChem-04052322073D

 89 98  0     1  0  0  0  0  0999 V2000
  -28.0031  -38.0354   22.8764 C   0  0  0  0  0  0  0  0  0  0  0  0
  -28.0815  -36.8148   22.2135 C   0  0  0  0  0  0  0  0  0  0  0  0
  -25.1949   -7.8307   21.5055 C   0  0  0  0  0  0  0  0  0  0  0  0
  -24.0010   -9.8917   21.1005 C   0  0  0  0  0  0  0  0  0  0  0  0
  -27.4800  -38.0940   24.1674 C   0  0  0  0  0  0  0  0  0  0  0  0
  -27.6377  -35.6518   22.8418 C   0  0  0  0  0  0  0  0  0  0  0  0
  -24.9312  -30.8392   20.1922 C   0  0  0  0  0  0  0  0  0  0  0  0
  -24.2503   -7.4725   22.4673 C   0  0  0  0  0  0  0  0  0  0  0  0
  -23.0564   -9.5335   22.0623 C   0  0  0  0  0  0  0  0  0  0  0  0
  -25.4190  -29.6026   19.7722 C   0  0  0  0  0  0  0  0  0  0  0  0
  -21.9548   -5.8499   24.7723 C   0  0  0  0  0  0  0  0  0  0  0  0
  -21.4722   -4.5414   24.7516 C   0  0  0  0  0  0  0  0  0  0  0  0
  -27.6206  -19.1127   20.5908 C   0  0  0  0  0  0  0  0  0  0  0  0
  -24.7110  -28.6213   21.8591 C   0  0  0  0  0  0  0  0  0  0  0  0
  -28.6373  -20.6646   18.5074 C   0  0  0  0  0  0  0  0  0  0  0  0
  -20.6375   -4.8848   22.5105 C   0  0  0  0  0  0  0  0  0  0  0  0
  -25.0703   -9.0403   20.8221 C   0  0  0  0  0  0  0  0  0  0  0  0
  -26.0103   -9.1201   18.4520 C   0  0  0  0  0  0  0  0  0  0  0  0
  -27.0207  -36.9325   24.8082 C   0  0  0  0  0  0  0  0  0  0  0  0
  -24.3385  -30.9788   21.4554 C   0  0  0  0  0  0  0  0  0  0  0  0
  -27.1092  -35.6946   24.1432 C   0  0  0  0  0  0  0  0  0  0  0  0
  -28.1632  -18.4969   19.4630 C   0  0  0  0  0  0  0  0  0  0  0  0
  -24.2142  -29.8603   22.2917 C   0  0  0  0  0  0  0  0  0  0  0  0
  -27.5862  -20.5045   20.6769 C   0  0  0  0  0  0  0  0  0  0  0  0
  -28.6716  -19.2728   18.4213 C   0  0  0  0  0  0  0  0  0  0  0  0
  -28.0946  -21.2805   19.6352 C   0  0  0  0  0  0  0  0  0  0  0  0
  -23.1811   -8.3239   22.7457 C   0  0  0  0  0  0  0  0  0  0  0  0
  -25.3115  -28.4940   20.6068 C   0  0  0  0  0  0  0  0  0  0  0  0
  -21.7787   -6.6760   23.6622 C   0  0  0  0  0  0  0  0  0  0  0  0
  -20.8136   -4.0588   23.6207 C   0  0  0  0  0  0  0  0  0  0  0  0
  -21.1200   -6.1934   22.5312 C   0  0  0  0  0  0  0  0  0  0  0  0
  -26.0460   -9.4112   19.8289 C   0  0  0  0  0  0  0  0  0  0  0  0
  -27.1569   -9.6869   17.9514 C   0  0  0  0  0  0  0  0  0  0  0  0
  -25.0285   -8.4018   17.6933 C   0  0  0  0  0  0  0  0  0  0  0  0
  -24.9988  -32.6625   24.0694 C   0  0  0  0  0  0  0  0  0  0  0  0
  -22.1543  -31.4754   25.0804 C   0  0  0  0  0  0  0  0  0  0  0  0
  -19.7846  -29.0315   24.8392 C   0  0  0  0  0  0  0  0  0  0  0  0
  -30.6059  -14.1953   19.8431 C   0  0  0  0  0  0  0  0  0  0  0  0
  -26.5069  -37.0384   26.2222 C   0  0  0  0  0  0  0  0  0  0  0  0
  -23.7932  -32.3139   21.8829 C   0  0  0  0  0  0  0  0  0  0  0  0
  -23.5679  -29.9528   23.6490 C   0  0  0  0  0  0  0  0  0  0  0  0
  -25.7122  -35.8161   26.6747 C   0  0  0  0  0  0  0  0  0  0  0  0
  -31.6078  -10.8731   19.1780 C   0  0  0  0  0  0  0  0  0  0  0  0
  -26.4480  -34.5330   26.3017 C   0  0  0  0  0  0  0  0  0  0  0  0
  -30.3035  -10.0806   19.1730 C   0  0  0  0  0  0  0  0  0  0  0  0
  -27.6497  -16.2252   20.6142 C   0  0  0  0  0  0  0  0  0  0  0  0
  -31.5764  -11.9598   20.2443 C   0  0  0  0  0  0  0  0  0  0  0  0
  -28.1838  -14.8147   20.4034 C   0  0  0  0  0  0  0  0  0  0  0  0
  -29.5939  -16.3786   19.2596 C   0  0  0  0  0  0  0  0  0  0  0  0
  -29.1107  -12.1505   20.0591 C   0  0  0  0  0  0  0  0  0  0  0  0
  -28.1902  -16.9860   19.3926 C   0  0  2  0  0  0  0  0  0  0  0  0
  -26.6152  -34.4148   24.7820 C   0  0  1  0  0  0  0  0  0  0  0  0
  -23.6715  -32.4525   23.3972 C   0  0  1  0  0  0  0  0  0  0  0  0
  -29.0992  -11.0206   19.0089 C   0  0  2  0  0  0  0  0  0  0  0  0
  -26.9997  -21.1415   21.8937 C   0  0  0  0  0  0  0  0  0  0  0  0
  -29.2579  -18.6358   17.2044 C   0  0  0  0  0  0  0  0  0  0  0  0
  -17.5901  -28.3117   25.8208 C   0  0  0  0  0  0  0  0  0  0  0  0
  -23.6007  -30.4733   27.5731 C   0  0  0  0  0  0  0  0  0  0  0  0
  -21.6386  -28.9865   28.0290 C   0  0  0  0  0  0  0  0  0  0  0  0
  -21.3449  -31.4636   28.0033 C   0  0  0  0  0  0  0  0  0  0  0  0
  -18.4119  -29.2505   22.2265 C   0  0  0  0  0  0  0  0  0  0  0  0
  -25.6631  -25.5249   18.5612 C   0  0  0  0  0  0  0  0  0  0  0  0
  -26.8141  -23.3631   19.0516 C   0  0  0  0  0  0  0  0  0  0  0  0
  -25.7703  -27.0183   18.7991 C   0  0  0  0  0  0  0  0  0  1  0  0
  -28.0679  -22.7721   19.7047 C   0  0  2  0  0  0  0  0  0  0  0  0
  -21.7164  -30.2368   25.8240 C   0  0  1  0  0  0  0  0  0  0  0  0
  -18.2732  -29.1025   24.7159 C   0  0  2  0  0  0  0  0  0  0  0  0
  -22.0891  -30.2884   27.3326 C   0  0  0  0  0  0  0  0  0  0  0  0
  -27.1295  -10.1085   20.1806 N   0  0  0  0  0  0  0  0  0  0  0  0
  -27.7854  -10.2603   19.0175 N   0  0  0  0  0  0  0  0  0  0  0  0
  -23.0559  -31.2812   24.0244 N   0  0  0  0  0  0  0  0  0  0  0  0
  -30.4106  -12.8331   20.0968 N   0  0  0  0  0  0  0  0  0  0  0  0
  -29.4781  -15.0103   19.7536 N   0  0  0  0  0  0  0  0  0  0  0  0
  -27.6788   -9.7457   16.7078 N   0  0  0  0  0  0  0  0  0  0  0  0
  -23.9116   -7.8858   18.3646 N   0  0  0  0  0  0  0  0  0  0  0  0
  -25.3756  -33.9882   24.1688 N   0  0  0  0  0  0  0  0  0  0  0  0
  -20.2880  -30.0895   25.5661 N   0  0  0  0  0  0  0  0  0  0  0  0
  -17.8342  -28.5511   23.4029 N   0  3  0  0  0  0  0  0  0  0  0  0
  -26.8236  -24.8426   19.1933 N   0  3  0  0  0  0  0  0  0  0  0  0
  -25.1466   -8.2086   16.4595 O   0  0  0  0  0  0  0  0  0  0  0  0
  -25.6334  -31.6936   24.4696 O   0  0  0  0  0  0  0  0  0  0  0  0
  -21.7073  -32.5740   25.4194 O   0  0  0  0  0  0  0  0  0  0  0  0
  -20.4515  -28.1258   24.3437 O   0  0  0  0  0  0  0  0  0  0  0  0
  -31.7438  -14.6735   19.7416 O   0  0  0  0  0  0  0  0  0  0  0  0
  -29.2219  -23.2794   19.0222 O   0  0  0  0  0  0  0  0  0  0  0  0
  -22.2590   -7.9746   23.6840 O   0  0  0  0  0  0  0  0  0  0  0  0
  -25.7908  -27.2772   20.1966 O   0  0  0  0  0  0  0  0  0  1  0  0
  -20.3516   -2.8017   23.6003 F   0  0  0  0  0  0  0  0  0  0  0  0
  -20.9489   -6.9818   21.4613 F   0  0  0  0  0  0  0  0  0  0  0  0
  1  2  1  0  0  0  0
  1  5  2  0  0  0  0
  2  6  2  0  0  0  0
  3  8  2  0  0  0  0
  3 17  1  0  0  0  0
  4  9  1  0  0  0  0
  4 17  2  0  0  0  0
  5 19  1  0  0  0  0
  6 21  1  0  0  0  0
  7 10  2  0  0  0  0
  7 20  1  0  0  0  0
  8 27  1  0  0  0  0
  9 27  2  0  0  0  0
 10 28  1  0  0  0  0
 11 12  2  0  0  0  0
 11 29  1  0  0  0  0
 12 30  1  0  0  0  0
 13 22  2  0  0  0  0
 13 24  1  0  0  0  0
 14 23  1  0  0  0  0
 14 28  2  0  0  0  0
 15 25  2  0  0  0  0
 15 26  1  0  0  0  0
 16 30  2  0  0  0  0
 16 31  1  0  0  0  0
 17 32  1  0  0  0  0
 18 32  1  0  0  0  0
 18 33  2  0  0  0  0
 18 34  1  0  0  0  0
 19 21  2  0  0  0  0
 19 39  1  0  0  0  0
 20 23  2  0  0  0  0
 20 40  1  0  0  0  0
 21 52  1  0  0  0  0
 22 25  1  0  0  0  0
 22 51  1  0  0  0  0
 23 41  1  0  0  0  0
 24 26  2  0  0  0  0
 24 55  1  0  0  0  0
 25 56  1  0  0  0  0
 26 65  1  0  0  0  0
 27 86  1  0  0  0  0
 28 87  1  0  0  0  0
 29 31  2  0  0  0  0
 29 86  1  0  0  0  0
 30 88  1  0  0  0  0
 31 89  1  0  0  0  0
 32 69  2  0  0  0  0
 33 70  1  0  0  0  0
 33 74  1  0  0  0  0
 34 75  1  0  0  0  0
 34 80  2  0  0  0  0
 35 53  1  0  0  0  0
 35 76  1  0  0  0  0
 35 81  2  0  0  0  0
 36 66  1  0  0  0  0
 36 71  1  0  0  0  0
 36 82  2  0  0  0  0
 37 67  1  0  0  0  0
 37 77  1  0  0  0  0
 37 83  2  0  0  0  0
 38 72  1  0  0  0  0
 38 73  1  0  0  0  0
 38 84  2  0  0  0  0
 39 42  1  0  0  0  0
 40 53  1  0  0  0  0
 41 71  1  0  0  0  0
 42 44  1  0  0  0  0
 43 45  1  0  0  0  0
 43 47  1  0  0  0  0
 44 52  1  0  0  0  0
 45 54  1  0  0  0  0
 46 48  1  0  0  0  0
 46 51  1  0  0  0  0
 47 72  1  0  0  0  0
 48 73  1  0  0  0  0
 49 51  1  0  0  0  0
 49 73  1  0  0  0  0
 50 54  1  0  0  0  0
 50 72  1  0  0  0  0
 52 76  1  0  0  0  0
 53 71  1  0  0  0  0
 54 70  1  0  0  0  0
 57 67  1  0  0  0  0
 58 68  1  0  0  0  0
 59 68  1  0  0  0  0
 60 68  1  0  0  0  0
 61 78  1  0  0  0  0
 62 64  1  0  0  0  0
 62 79  1  0  0  0  0
 63 65  1  0  0  0  0
 63 79  1  0  0  0  0
 64 87  1  0  0  0  0
 65 85  1  0  0  0  0
 66 68  1  0  0  0  0
 66 77  1  0  0  0  0
 67 78  1  0  0  0  0
 69 70  1  0  0  0  0
M  CHG  2  78   1  79   1
M  ISO  4  38 100  64 101  73 100  87 101
M  END
> <Batch ID>
0159

> <Smiles>
CNC(C)C(=O)NC(C(=O)N1Cc2cc([101O:1][101CH2:1]CNCC(O)c3cc(C)c(C4CC[100N:0]([100C:0](=O)N5CCCC(n6nc(-c7ccc(Oc8ccc(F)cc8F)cc7)c(C(N)=O)c6N)C5)C4)cc3C)ccc2CC1C(=O)NC1CCCc2ccccc21)C(C)(C)C

> <Shape>
0.299

> <Color>
0.088

> <Negative vol penalty>
0.000

$$$$

  -OEChem-04052322073D

 87 97  0     1  0  0  0  0  0999 V2000
  -24.0991  -31.4077   21.8854 C   0  0  0  0  0  0  0  0  0  0  0  0
  -23.9330  -30.0316   22.0047 C   0  0  0  0  0  0  0  0  0  0  0  0
  -23.8482  -18.4906   21.1346 C   0  0  0  0  0  0  0  0  0  0  0  0
  -21.6198  -17.6168   21.4631 C   0  0  0  0  0  0  0  0  0  0  0  0
  -25.1248  -31.9187   21.0912 C   0  0  0  0  0  0  0  0  0  0  0  0
  -24.7919  -29.1657   21.3288 C   0  0  0  0  0  0  0  0  0  0  0  0
  -27.8774  -22.7329   21.9737 C   0  0  0  0  0  0  0  0  0  0  0  0
  -23.3093  -19.6947   20.6815 C   0  0  0  0  0  0  0  0  0  0  0  0
  -21.0809  -18.8209   21.0100 C   0  0  0  0  0  0  0  0  0  0  0  0
  -28.0351  -21.5388   21.2716 C   0  0  0  0  0  0  0  0  0  0  0  0
  -22.5204  -23.1267   19.7794 C   0  0  0  0  0  0  0  0  0  0  0  0
  -23.0762  -24.3099   20.2661 C   0  0  0  0  0  0  0  0  0  0  0  0
  -28.6938  -14.9660   21.6049 C   0  0  0  0  0  0  0  0  0  0  0  0
  -30.2677  -15.7584   19.4256 C   0  0  0  0  0  0  0  0  0  0  0  0
  -29.8207  -22.5344   19.9912 C   0  0  0  0  0  0  0  0  0  0  0  0
  -22.4916  -23.6582   22.5179 C   0  0  0  0  0  0  0  0  0  0  0  0
  -23.0035  -17.4516   21.5254 C   0  0  0  0  0  0  0  0  0  0  0  0
  -23.8879  -15.8681   23.3193 C   0  0  0  0  0  0  0  0  0  0  0  0
  -26.0026  -31.0585   20.4129 C   0  0  0  0  0  0  0  0  0  0  0  0
  -28.6842  -23.8421   21.6818 C   0  0  0  0  0  0  0  0  0  0  0  0
  -25.8295  -29.6656   20.5237 C   0  0  0  0  0  0  0  0  0  0  0  0
  -28.9718  -14.0399   20.5939 C   0  0  0  0  0  0  0  0  0  0  0  0
  -29.7728  -14.4554   19.5002 C   0  0  0  0  0  0  0  0  0  0  0  0
  -29.6730  -23.7407   20.6928 C   0  0  0  0  0  0  0  0  0  0  0  0
  -29.1898  -16.2690   21.5295 C   0  0  0  0  0  0  0  0  0  0  0  0
  -21.9257  -19.8599   20.6192 C   0  0  0  0  0  0  0  0  0  0  0  0
  -29.0049  -21.4403   20.2783 C   0  0  0  0  0  0  0  0  0  0  0  0
  -21.9501  -22.2093   20.6620 C   0  0  0  0  0  0  0  0  0  0  0  0
  -29.9731  -16.6634   20.4435 C   0  0  0  0  0  0  0  0  0  0  0  0
  -23.0618  -24.5756   21.6354 C   0  0  0  0  0  0  0  0  0  0  0  0
  -21.9357  -22.4750   22.0312 C   0  0  0  0  0  0  0  0  0  0  0  0
  -23.5596  -16.2073   21.9930 C   0  0  0  0  0  0  0  0  0  0  0  0
  -24.3767  -14.5873   23.2351 C   0  0  0  0  0  0  0  0  0  0  0  0
  -23.7621  -16.6415   24.5200 C   0  0  0  0  0  0  0  0  0  0  0  0
  -28.1468  -26.7892   20.6191 C   0  0  0  0  0  0  0  0  0  0  0  0
  -31.3176  -27.1568   21.1964 C   0  0  0  0  0  0  0  0  0  0  0  0
  -34.3849  -25.7039   21.5538 C   0  0  0  0  0  0  0  0  0  0  0  0
  -26.9082  -11.6331   18.6258 C   0  0  0  0  0  0  0  0  0  0  0  0
  -27.0671  -31.6577   19.5283 C   0  0  0  0  0  0  0  0  0  0  0  0
  -28.5195  -25.1147   22.4666 C   0  0  0  0  0  0  0  0  0  0  0  0
  -30.0611  -13.4242   18.4153 C   0  0  0  0  0  0  0  0  0  0  0  0
  -30.5783  -24.8960   20.3552 C   0  0  0  0  0  0  0  0  0  0  0  0
  -28.1665  -30.6707   19.1442 C   0  0  0  0  0  0  0  0  0  0  0  0
  -24.0403  -10.6018   20.5996 C   0  0  0  0  0  0  0  0  0  0  0  0
  -27.5604  -29.3452   18.6942 C   0  0  0  0  0  0  0  0  0  0  0  0
  -23.5969  -11.9008   21.2754 C   0  0  0  0  0  0  0  0  0  0  0  0
  -29.6431  -11.5449   20.2233 C   0  0  0  0  0  0  0  0  0  0  0  0
  -24.6378  -10.8511   19.2157 C   0  0  0  0  0  0  0  0  0  0  0  0
  -25.2716  -13.1424   19.8584 C   0  0  0  0  0  0  0  0  0  0  0  0
  -28.4794  -12.5451   20.5397 C   0  0  2  0  0  0  0  0  0  0  0  0
  -26.7562  -28.6939   19.8258 C   0  0  1  0  0  0  0  0  0  0  0  0
  -29.0509  -26.3421   21.7329 C   0  0  1  0  0  0  0  0  0  0  0  0
  -24.7349  -12.9379   21.2819 C   0  0  1  0  0  0  0  0  0  0  0  0
  -29.4522  -12.0450   18.7610 C   0  0  1  0  0  0  0  0  0  0  0  0
  -29.4330  -16.7822   23.9853 C   0  0  0  0  0  0  0  0  0  0  0  0
  -27.3581  -17.5007   22.7469 C   0  0  0  0  0  0  0  0  0  0  0  0
  -36.7926  -26.2655   21.9835 C   0  0  0  0  0  0  0  0  0  0  0  0
  -31.6006  -28.1336   18.3196 C   0  0  0  0  0  0  0  0  0  0  0  0
  -34.0700  -27.7686   18.5122 C   0  0  0  0  0  0  0  0  0  0  0  0
  -32.9361  -29.4231   19.9953 C   0  0  0  0  0  0  0  0  0  0  0  0
  -34.4316  -24.1120   24.0483 C   0  0  0  0  0  0  0  0  0  0  0  0
  -30.4693  -19.9762   19.1086 C   0  0  0  0  0  0  0  0  0  1  0  0
  -30.6535  -18.4719   19.0571 C   0  0  0  0  0  0  0  0  0  0  0  0
  -28.8692  -17.2322   22.6252 C   0  0  0  0  0  0  0  0  0  0  0  0
  -32.5808  -26.9521   20.3955 C   0  0  1  0  0  0  0  0  0  0  0  0
  -35.4630  -25.8735   22.6089 C   0  0  2  0  0  0  0  0  0  0  0  0
  -32.7787  -28.0480   19.3105 C   0  0  0  0  0  0  0  0  0  0  0  0
  -23.8182  -15.2217   21.1295 N   0  0  0  0  0  0  0  0  0  0  0  0
  -24.3143  -14.2505   21.9149 N   0  0  0  0  0  0  0  0  0  0  0  0
  -30.3741  -26.1209   21.1460 N   0  0  0  0  0  0  0  0  0  0  0  0
  -25.6935  -11.8640   19.2769 N   0  0  0  0  0  0  0  0  0  0  0  0
  -28.0436  -12.1792   19.1762 N   0  0  0  0  0  0  0  0  0  0  0  0
  -24.8497  -13.7277   24.1623 N   0  0  0  0  0  0  0  0  0  0  0  0
  -23.2405  -17.9391   24.4273 N   0  0  0  0  0  0  0  0  0  0  0  0
  -27.6444  -28.0663   20.7807 N   0  0  0  0  0  0  0  0  0  0  0  0
  -33.6687  -26.8667   21.3638 N   0  0  0  0  0  0  0  0  0  0  0  0
  -35.6548  -24.6022   23.3626 N   0  3  0  0  0  0  0  0  0  0  0  0
  -24.1175  -16.2012   25.6395 O   0  0  0  0  0  0  0  0  0  0  0  0
  -27.9229  -26.0322   19.6819 O   0  0  0  0  0  0  0  0  0  0  0  0
  -31.1765  -28.1943   21.8486 O   0  0  0  0  0  0  0  0  0  0  0  0
  -34.1992  -24.6467   20.9552 O   0  0  0  0  0  0  0  0  0  0  0  0
  -26.9824  -10.9418   17.6021 O   0  0  0  0  0  0  0  0  0  0  0  0
  -21.3995  -21.0348   20.1773 O   0  0  0  0  0  0  0  0  0  0  0  0
  -29.1616  -20.2681   19.5863 O   0  0  0  0  0  0  0  0  0  1  0  0
  -30.4599  -17.9340   20.3634 O   0  0  0  0  0  0  0  0  0  0  0  0
  -23.5969  -25.7111   22.1028 F   0  0  0  0  0  0  0  0  0  0  0  0
  -21.3904  -21.5969   22.8841 F   0  0  0  0  0  0  0  0  0  0  0  0
  1  2  1  0  0  0  0
  1  5  2  0  0  0  0
  2  6  2  0  0  0  0
  3  8  2  0  0  0  0
  3 17  1  0  0  0  0
  4  9  1  0  0  0  0
  4 17  2  0  0  0  0
  5 19  1  0  0  0  0
  6 21  1  0  0  0  0
  7 10  2  0  0  0  0
  7 20  1  0  0  0  0
  8 26  1  0  0  0  0
  9 26  2  0  0  0  0
 10 27  1  0  0  0  0
 11 12  2  0  0  0  0
 11 28  1  0  0  0  0
 12 30  1  0  0  0  0
 13 22  2  0  0  0  0
 13 25  1  0  0  0  0
 14 23  2  0  0  0  0
 14 29  1  0  0  0  0
 15 24  1  0  0  0  0
 15 27  2  0  0  0  0
 16 30  2  0  0  0  0
 16 31  1  0  0  0  0
 17 32  1  0  0  0  0
 18 32  1  0  0  0  0
 18 33  2  0  0  0  0
 18 34  1  0  0  0  0
 19 21  2  0  0  0  0
 19 39  1  0  0  0  0
 20 24  2  0  0  0  0
 20 40  1  0  0  0  0
 21 51  1  0  0  0  0
 22 23  1  0  0  0  0
 22 50  1  0  0  0  0
 23 41  1  0  0  0  0
 24 42  1  0  0  0  0
 25 29  2  0  0  0  0
 25 64  1  0  0  0  0
 26 83  1  0  0  0  0
 27 84  1  0  0  0  0
 28 31  2  0  0  0  0
 28 83  1  0  0  0  0
 29 85  1  0  0  0  0
 30 86  1  0  0  0  0
 31 87  1  0  0  0  0
 32 68  2  0  0  0  0
 33 69  1  0  0  0  0
 33 73  1  0  0  0  0
 34 74  1  0  0  0  0
 34 78  2  0  0  0  0
 35 52  1  0  0  0  0
 35 75  1  0  0  0  0
 35 79  2  0  0  0  0
 36 65  1  0  0  0  0
 36 70  1  0  0  0  0
 36 80  2  0  0  0  0
 37 66  1  0  0  0  0
 37 76  1  0  0  0  0
 37 81  2  0  0  0  0
 38 71  1  0  0  0  0
 38 72  1  0  0  0  0
 38 82  2  0  0  0  0
 39 43  1  0  0  0  0
 40 52  1  0  0  0  0
 41 54  1  0  0  0  0
 42 70  1  0  0  0  0
 43 45  1  0  0  0  0
 44 46  1  0  0  0  0
 44 48  1  0  0  0  0
 45 51  1  0  0  0  0
 46 53  1  0  0  0  0
 47 50  1  0  0  0  0
 47 54  1  0  0  0  0
 48 71  1  0  0  0  0
 49 53  1  0  0  0  0
 49 71  1  0  0  0  0
 50 72  1  0  0  0  0
 51 75  1  0  0  0  0
 52 70  1  0  0  0  0
 53 69  1  0  0  0  0
 54 72  1  0  0  0  0
 55 64  1  0  0  0  0
 56 64  1  0  0  0  0
 57 66  1  0  0  0  0
 58 67  1  0  0  0  0
 59 67  1  0  0  0  0
 60 67  1  0  0  0  0
 61 77  1  0  0  0  0
 62 63  1  0  0  0  0
 62 84  1  0  0  0  0
 63 85  1  0  0  0  0
 65 67  1  0  0  0  0
 65 76  1  0  0  0  0
 66 77  1  0  0  0  0
 68 69  1  0  0  0  0
M  CHG  1  77   1
M  ISO  4  38 100  62 101  72 100  84 101
M  END
> <Batch ID>
0159

> <Smiles>
CNC(C)C(=O)NC(C(=O)N1Cc2cc([101O:1][101CH2:1]COc3cc4c(cc3C(C)C)C3CC(C4)[100N:0]3[100C:0](=O)N3CCCC(n4nc(-c5ccc(Oc6ccc(F)cc6F)cc5)c(C(N)=O)c4N)C3)ccc2CC1C(=O)NC1CCCc2ccccc21)C(C)(C)C

> <Shape>
0.217

> <Color>
0.100

> <Negative vol penalty>
0.000

$$$$

  -OEChem-04052322073D

 84 93  0     1  0  0  0  0  0999 V2000
  -17.2994  -33.2889   22.5088 C   0  0  0  0  0  0  0  0  0  0  0  0
  -18.6890  -33.2741   22.4443 C   0  0  0  0  0  0  0  0  0  0  0  0
  -27.0340  -12.6076   21.1222 C   0  0  0  0  0  0  0  0  0  0  0  0
  -26.7704  -13.2124   18.7980 C   0  0  0  0  0  0  0  0  0  0  0  0
  -16.6069  -32.1324   22.8646 C   0  0  0  0  0  0  0  0  0  0  0  0
  -19.3870  -32.1028   22.7365 C   0  0  0  0  0  0  0  0  0  0  0  0
  -24.5841  -30.1684   20.1376 C   0  0  0  0  0  0  0  0  0  0  0  0
  -26.3419  -11.4188   20.8914 C   0  0  0  0  0  0  0  0  0  0  0  0
  -26.0782  -12.0236   18.5672 C   0  0  0  0  0  0  0  0  0  0  0  0
  -25.9176  -30.2449   20.5371 C   0  0  0  0  0  0  0  0  0  0  0  0
  -23.1270  -10.4375   20.5364 C   0  0  0  0  0  0  0  0  0  0  0  0
  -22.1479  -10.0689   21.4590 C   0  0  0  0  0  0  0  0  0  0  0  0
  -25.7632  -28.0203   21.4572 C   0  0  0  0  0  0  0  0  0  0  0  0
  -32.0556  -22.9853   17.7189 C   0  0  0  0  0  0  0  0  0  0  0  0
  -23.3492   -8.0233   21.9165 C   0  0  0  0  0  0  0  0  0  0  0  0
  -27.2482  -13.5045   20.0755 C   0  0  0  0  0  0  0  0  0  0  0  0
  -29.3509  -14.9426   20.2104 C   0  0  0  0  0  0  0  0  0  0  0  0
  -17.2962  -30.9437   23.1520 C   0  0  0  0  0  0  0  0  0  0  0  0
  -23.8257  -29.0197   20.4050 C   0  0  0  0  0  0  0  0  0  0  0  0
  -18.7031  -30.9296   23.0977 C   0  0  0  0  0  0  0  0  0  0  0  0
  -24.4210  -27.9308   21.0578 C   0  0  0  0  0  0  0  0  0  0  0  0
  -31.1623  -22.0084   18.1444 C   0  0  0  0  0  0  0  0  0  0  0  0
  -31.8454  -24.3133   18.0730 C   0  0  0  0  0  0  0  0  0  0  0  0
  -25.8640  -11.1268   19.6139 C   0  0  0  0  0  0  0  0  0  0  0  0
  -26.5065  -29.1719   21.1996 C   0  0  0  0  0  0  0  0  0  0  0  0
  -24.2172   -9.5990   20.3038 C   0  0  0  0  0  0  0  0  0  0  0  0
  -22.2590   -8.8618   22.1490 C   0  0  0  0  0  0  0  0  0  0  0  0
  -24.3283   -8.3919   20.9939 C   0  0  0  0  0  0  0  0  0  0  0  0
  -27.9627  -14.7329   20.3135 C   0  0  0  0  0  0  0  0  0  0  0  0
  -30.0832  -22.4083   18.9161 C   0  0  0  0  0  0  0  0  0  0  0  0
  -30.7356  -24.6100   18.8477 C   0  0  0  0  0  0  0  0  0  0  0  0
  -29.5232  -16.2662   20.5344 C   0  0  0  0  0  0  0  0  0  0  0  0
  -30.3916  -14.0232   19.8535 C   0  0  0  0  0  0  0  0  0  0  0  0
  -21.2094  -28.4038   22.1019 C   0  0  0  0  0  0  0  0  0  0  0  0
  -21.5165  -25.4580   20.7791 C   0  0  0  0  0  0  0  0  0  0  0  0
  -23.5534  -23.1206   19.3527 C   0  0  0  0  0  0  0  0  0  0  0  0
  -28.0256  -21.6140   20.1333 C   0  0  0  0  0  0  0  0  0  0  0  0
  -16.5065  -29.7314   23.5779 C   0  0  0  0  0  0  0  0  0  0  0  0
  -22.3961  -28.9425   19.9438 C   0  0  0  0  0  0  0  0  0  0  0  0
  -23.6559  -26.6669   21.3507 C   0  0  0  0  0  0  0  0  0  0  0  0
  -17.3024  -28.4306   23.5079 C   0  0  0  0  0  0  0  0  0  0  0  0
  -26.2921  -19.6191   22.5193 C   0  0  0  0  0  0  0  0  0  0  0  0
  -18.6801  -28.6132   24.1368 C   0  0  0  0  0  0  0  0  0  0  0  0
  -26.6864  -18.1873   22.1496 C   0  0  0  0  0  0  0  0  0  0  0  0
  -30.0591  -28.1350   21.5010 C   0  0  0  0  0  0  0  0  0  0  0  0
  -26.1248  -20.4988   21.2816 C   0  0  0  0  0  0  0  0  0  0  0  0
  -27.6650  -19.0711   19.9937 C   0  0  0  0  0  0  0  0  0  0  0  0
  -19.4945  -29.6718   23.3835 C   0  0  1  0  0  0  0  0  0  0  0  0
  -21.5705  -27.9244   20.7244 C   0  0  1  0  0  0  0  0  0  0  0  0
  -29.2397  -27.5793   20.3693 C   0  0  2  0  0  0  0  0  0  0  0  0
  -27.9085  -18.1639   21.2108 C   0  0  2  0  0  0  0  0  0  0  0  0
  -28.5676  -28.0018   21.6483 C   0  0  2  0  0  0  0  0  0  1  0  0
  -31.3908  -20.5854   17.7626 C   0  0  0  0  0  0  0  0  0  0  0  0
  -32.7951  -25.3685   17.6229 C   0  0  0  0  0  0  0  0  0  0  0  0
  -24.1987  -20.9899   18.1946 C   0  0  0  0  0  0  0  0  0  0  0  0
  -21.4084  -24.3145   23.6059 C   0  0  0  0  0  0  0  0  0  0  0  0
  -22.3212  -22.1675   22.6974 C   0  0  0  0  0  0  0  0  0  0  0  0
  -20.1133  -23.0164   21.9053 C   0  0  0  0  0  0  0  0  0  0  0  0
  -23.1478  -24.3164   16.6761 C   0  0  0  0  0  0  0  0  0  0  0  0
  -29.3334  -26.1356   20.0147 C   0  0  0  0  0  0  0  0  0  0  0  0
  -22.2293  -24.1833   21.1615 C   0  0  1  0  0  0  0  0  0  0  0  0
  -23.3974  -22.2789   18.0991 C   0  0  2  0  0  0  0  0  0  0  0  0
  -21.5322  -23.4449   22.3389 C   0  0  0  0  0  0  0  0  0  0  0  0
  -27.3001  -15.8349   20.6749 N   0  0  0  0  0  0  0  0  0  0  0  0
  -29.8460  -23.6885   19.2800 N   0  0  0  0  0  0  0  0  0  0  0  0
  -28.2763  -16.7498   20.8018 N   0  0  0  0  0  0  0  0  0  0  0  0
  -22.2593  -26.6423   20.8854 N   0  0  0  0  0  0  0  0  0  0  0  0
  -27.3226  -20.4301   20.4417 N   0  0  0  0  0  0  0  0  0  0  0  0
  -30.6181  -17.0518   20.6139 N   0  0  0  0  0  0  0  0  0  0  0  0
  -30.0399  -12.7009   19.5501 N   0  0  0  0  0  0  0  0  0  0  0  0
  -29.1664  -21.4210   19.3550 N   0  0  0  0  0  0  0  0  0  0  0  0
  -20.0289  -29.1199   22.1569 N   0  0  0  0  0  0  0  0  0  0  0  0
  -22.3359  -23.3930   19.9398 N   0  0  0  0  0  0  0  0  0  0  0  0
  -23.8667  -23.0366   16.9047 N   0  3  0  0  0  0  0  0  0  0  0  0
  -31.5995  -14.3601   19.8212 O   0  0  0  0  0  0  0  0  0  0  0  0
  -21.9464  -28.1420   23.0453 O   0  0  0  0  0  0  0  0  0  0  0  0
  -20.3461  -25.4039   20.3932 O   0  0  0  0  0  0  0  0  0  0  0  0
  -24.6464  -23.4956   19.7715 O   0  0  0  0  0  0  0  0  0  0  0  0
  -27.6588  -22.7145   20.5531 O   0  0  0  0  0  0  0  0  0  0  0  0
  -25.1888   -9.9668   19.3882 O   0  0  0  0  0  0  0  0  0  0  0  0
  -27.8078  -29.2441   21.5912 O   0  0  0  0  0  0  0  0  0  1  0  0
  -30.4948  -25.9047   19.2170 O   0  0  0  0  0  0  0  0  0  0  0  0
  -21.3196   -8.5087   23.0361 F   0  0  0  0  0  0  0  0  0  0  0  0
  -25.3740   -7.5828   20.7756 F   0  0  0  0  0  0  0  0  0  0  0  0
  1  2  1  0  0  0  0
  1  5  2  0  0  0  0
  2  6  2  0  0  0  0
  3  8  2  0  0  0  0
  3 16  1  0  0  0  0
  4  9  1  0  0  0  0
  4 16  2  0  0  0  0
  5 18  1  0  0  0  0
  6 20  1  0  0  0  0
  7 10  2  0  0  0  0
  7 19  1  0  0  0  0
  8 24  1  0  0  0  0
  9 24  2  0  0  0  0
 10 25  1  0  0  0  0
 11 12  2  0  0  0  0
 11 26  1  0  0  0  0
 12 27  1  0  0  0  0
 13 21  1  0  0  0  0
 13 25  2  0  0  0  0
 14 22  2  0  0  0  0
 14 23  1  0  0  0  0
 15 27  2  0  0  0  0
 15 28  1  0  0  0  0
 16 29  1  0  0  0  0
 17 29  1  0  0  0  0
 17 32  2  0  0  0  0
 17 33  1  0  0  0  0
 18 20  2  0  0  0  0
 18 38  1  0  0  0  0
 19 21  2  0  0  0  0
 19 39  1  0  0  0  0
 20 48  1  0  0  0  0
 21 40  1  0  0  0  0
 22 30  1  0  0  0  0
 22 53  1  0  0  0  0
 23 31  2  0  0  0  0
 23 54  1  0  0  0  0
 24 80  1  0  0  0  0
 25 81  1  0  0  0  0
 26 28  2  0  0  0  0
 26 80  1  0  0  0  0
 27 83  1  0  0  0  0
 28 84  1  0  0  0  0
 29 64  2  0  0  0  0
 30 65  2  0  0  0  0
 30 71  1  0  0  0  0
 31 65  1  0  0  0  0
 31 82  1  0  0  0  0
 32 66  1  0  0  0  0
 32 69  1  0  0  0  0
 33 70  1  0  0  0  0
 33 75  2  0  0  0  0
 34 49  1  0  0  0  0
 34 72  1  0  0  0  0
 34 76  2  0  0  0  0
 35 61  1  0  0  0  0
 35 67  1  0  0  0  0
 35 77  2  0  0  0  0
 36 62  1  0  0  0  0
 36 73  1  0  0  0  0
 36 78  2  0  0  0  0
 37 68  1  0  0  0  0
 37 71  1  0  0  0  0
 37 79  2  0  0  0  0
 38 41  1  0  0  0  0
 39 49  1  0  0  0  0
 40 67  1  0  0  0  0
 41 43  1  0  0  0  0
 42 44  1  0  0  0  0
 42 46  1  0  0  0  0
 43 48  1  0  0  0  0
 44 51  1  0  0  0  0
 45 50  1  0  0  0  0
 45 52  1  0  0  0  0
 46 68  1  0  0  0  0
 47 51  1  0  0  0  0
 47 68  1  0  0  0  0
 48 72  1  0  0  0  0
 49 67  1  0  0  0  0
 50 52  1  0  0  0  0
 50 60  1  0  0  0  0
 51 66  1  0  0  0  0
 52 81  1  0  0  0  0
 55 62  1  0  0  0  0
 56 63  1  0  0  0  0
 57 63  1  0  0  0  0
 58 63  1  0  0  0  0
 59 74  1  0  0  0  0
 60 82  1  0  0  0  0
 61 63  1  0  0  0  0
 61 73  1  0  0  0  0
 62 74  1  0  0  0  0
 64 66  1  0  0  0  0
M  CHG  1  74   1
M  ISO  4  37 100  52 101  71 100  81 101
M  END
> <Batch ID>
0159

> <Smiles>
CNC(C)C(=O)NC(C(=O)N1Cc2cc([101O:1][101CH:1]3CC3COc3nc([100NH:0][100C:0](=O)N4CCCC(n5nc(-c6ccc(Oc7ccc(F)cc7F)cc6)c(C(N)=O)c5N)C4)c(C)cc3C)ccc2CC1C(=O)NC1CCCc2ccccc21)C(C)(C)C

> <Shape>
0.281

> <Color>
0.092

> <Negative vol penalty>
0.000

$$$$

  -OEChem-04052322073D

 89 98  0     1  0  0  0  0  0999 V2000
  -20.1513  -29.7425   15.2392 C   0  0  0  0  0  0  0  0  0  0  0  0
  -21.5037  -29.5665   15.5142 C   0  0  0  0  0  0  0  0  0  0  0  0
  -29.6982  -11.4819   20.0748 C   0  0  0  0  0  0  0  0  0  0  0  0
  -27.9818  -10.1574   21.1410 C   0  0  0  0  0  0  0  0  0  0  0  0
  -19.4167  -30.6968   15.9419 C   0  0  0  0  0  0  0  0  0  0  0  0
  -22.1225  -30.3455   16.4912 C   0  0  0  0  0  0  0  0  0  0  0  0
  -25.1076  -27.6225   19.5440 C   0  0  0  0  0  0  0  0  0  0  0  0
  -30.4525  -10.3291   19.8569 C   0  0  0  0  0  0  0  0  0  0  0  0
  -28.7362   -9.0045   20.9231 C   0  0  0  0  0  0  0  0  0  0  0  0
  -26.3600  -27.2587   19.0511 C   0  0  0  0  0  0  0  0  0  0  0  0
  -31.4108   -7.4769   22.3174 C   0  0  0  0  0  0  0  0  0  0  0  0
  -31.5356   -6.5748   23.3740 C   0  0  0  0  0  0  0  0  0  0  0  0
  -29.8671  -23.5910   23.3750 C   0  0  0  0  0  0  0  0  0  0  0  0
  -29.7661  -24.1296   21.0221 C   0  0  0  0  0  0  0  0  0  0  0  0
  -27.3665  -29.0668   20.2908 C   0  0  0  0  0  0  0  0  0  0  0  0
  -30.4987   -4.8562   22.0291 C   0  0  0  0  0  0  0  0  0  0  0  0
  -28.4628  -11.3961   20.7169 C   0  0  0  0  0  0  0  0  0  0  0  0
  -26.7180  -13.1462   20.0843 C   0  0  0  0  0  0  0  0  0  0  0  0
  -20.0247  -31.4812   16.9348 C   0  0  0  0  0  0  0  0  0  0  0  0
  -24.9736  -28.7197   20.4069 C   0  0  0  0  0  0  0  0  0  0  0  0
  -21.3957  -31.3120   17.2069 C   0  0  0  0  0  0  0  0  0  0  0  0
  -29.4581  -23.2740   22.0797 C   0  0  0  0  0  0  0  0  0  0  0  0
  -26.1116  -29.4409   20.7953 C   0  0  0  0  0  0  0  0  0  0  0  0
  -30.5839  -24.7637   23.6127 C   0  0  0  0  0  0  0  0  0  0  0  0
  -30.4830  -25.3024   21.2597 C   0  0  0  0  0  0  0  0  0  0  0  0
  -29.9716   -9.0904   20.2811 C   0  0  0  0  0  0  0  0  0  0  0  0
  -27.4893  -27.9826   19.4222 C   0  0  0  0  0  0  0  0  0  0  0  0
  -30.8298   -7.0687   21.1167 C   0  0  0  0  0  0  0  0  0  0  0  0
  -30.8919  -25.6194   22.5551 C   0  0  0  0  0  0  0  0  0  0  0  0
  -31.0796   -5.2645   23.2298 C   0  0  0  0  0  0  0  0  0  0  0  0
  -30.3739   -5.7583   20.9726 C   0  0  0  0  0  0  0  0  0  0  0  0
  -27.6833  -12.5867   20.9427 C   0  0  0  0  0  0  0  0  0  0  0  0
  -26.2707  -14.2608   20.7508 C   0  0  0  0  0  0  0  0  0  0  0  0
  -26.2659  -12.6985   18.7995 C   0  0  0  0  0  0  0  0  0  0  0  0
  -23.4481  -31.5052   20.2733 C   0  0  0  0  0  0  0  0  0  0  0  0
  -24.4571  -31.7620   23.3455 C   0  0  0  0  0  0  0  0  0  0  0  0
  -26.7050  -30.8427   25.7431 C   0  0  0  0  0  0  0  0  0  0  0  0
  -27.0626  -18.7671   23.7653 C   0  0  0  0  0  0  0  0  0  0  0  0
  -19.2008  -32.5327   17.6348 C   0  0  0  0  0  0  0  0  0  0  0  0
  -23.6192  -29.0829   20.9510 C   0  0  0  0  0  0  0  0  0  0  0  0
  -26.0242  -30.6145   21.7352 C   0  0  0  0  0  0  0  0  0  0  0  0
  -19.8441  -33.0576   18.9158 C   0  0  0  0  0  0  0  0  0  0  0  0
  -27.0141  -15.7829   25.5092 C   0  0  0  0  0  0  0  0  0  0  0  0
  -21.3170  -33.3775   18.6812 C   0  0  0  0  0  0  0  0  0  0  0  0
  -27.1029  -14.7205   24.4138 C   0  0  0  0  0  0  0  0  0  0  0  0
  -29.4907  -20.7420   22.1774 C   0  0  0  0  0  0  0  0  0  0  0  0
  -27.3232  -21.9941   22.5564 C   0  0  0  0  0  0  0  0  0  0  0  0
  -27.9398  -16.9559   25.2079 C   0  0  0  0  0  0  0  0  0  0  0  0
  -28.6845  -19.4607   21.9463 C   0  0  0  0  0  0  0  0  0  0  0  0
  -26.5696  -20.6940   22.2914 C   0  0  0  0  0  0  0  0  0  0  0  0
  -27.7769  -16.5449   22.7743 C   0  0  0  0  0  0  0  0  0  0  0  0
  -28.6766  -21.9993   21.8227 C   0  0  0  0  0  0  0  0  0  0  0  0
  -22.0969  -32.1206   18.2768 C   0  0  1  0  0  0  0  0  0  0  0  0
  -23.5314  -30.5332   21.4161 C   0  0  1  0  0  0  0  0  0  0  0  0
  -26.8533  -15.3356   23.0254 C   0  0  1  0  0  0  0  0  0  0  0  0
  -31.0128  -25.0855   25.0066 C   0  0  0  0  0  0  0  0  0  0  0  0
  -27.2960  -31.2475   28.1482 C   0  0  0  0  0  0  0  0  0  0  0  0
  -31.2834  -26.6694   17.8853 C   0  0  0  0  0  0  0  0  0  0  0  0
  -25.6620  -34.4622   22.5924 C   0  0  0  0  0  0  0  0  0  0  0  0
  -27.0141  -34.3675   24.6975 C   0  0  0  0  0  0  0  0  0  0  0  0
  -24.5229  -34.4125   24.8182 C   0  0  0  0  0  0  0  0  0  0  0  0
  -26.2812  -27.9993   26.4465 C   0  0  0  0  0  0  0  0  0  0  0  0
  -33.0130  -26.6831   22.7138 C   0  0  0  0  0  0  0  0  0  0  0  0
  -28.9209  -26.2490   18.6469 C   0  0  0  0  0  0  0  0  0  1  0  0
  -25.6876  -32.3138   24.0240 C   0  0  1  0  0  0  0  0  0  0  0  0
  -26.5160  -30.3767   27.1755 C   0  0  2  0  0  0  0  0  0  0  0  0
  -30.3910  -25.8802   18.8342 C   0  0  2  0  0  0  0  0  0  0  0  0
  -25.7234  -33.8681   24.0138 C   0  0  0  0  0  0  0  0  0  0  0  0
  -27.8408  -13.2880   22.0685 N   0  0  0  0  0  0  0  0  0  0  0  0
  -26.9684  -14.2997   21.9221 N   0  0  0  0  0  0  0  0  0  0  0  0
  -24.6769  -30.9344   22.2353 N   0  0  0  0  0  0  0  0  0  0  0  0
  -27.6741  -17.5096   23.8803 N   0  0  0  0  0  0  0  0  0  0  0  0
  -27.3883  -19.5316   22.6349 N   0  0  0  0  0  0  0  0  0  0  0  0
  -25.3526  -15.2016   20.4433 N   0  0  0  0  0  0  0  0  0  0  0  0
  -26.8307  -11.5344   18.2608 N   0  0  0  0  0  0  0  0  0  0  0  0
  -30.7867  -26.1592   20.1789 N   0  0  0  0  0  0  0  0  0  0  0  0
  -22.3678  -31.2988   19.4368 N   0  0  0  0  0  0  0  0  0  0  0  0
  -25.7171  -31.7242   25.3582 N   0  0  0  0  0  0  0  0  0  0  0  0
  -26.9809  -28.9691   27.3279 N   0  3  0  0  0  0  0  0  0  0  0  0
  -25.3989  -13.3217   18.1410 O   0  0  0  0  0  0  0  0  0  0  0  0
  -24.3000  -32.3787   20.1598 O   0  0  0  0  0  0  0  0  0  0  0  0
  -23.3422  -32.0488   23.7887 O   0  0  0  0  0  0  0  0  0  0  0  0
  -27.6380  -30.4655   25.0376 O   0  0  0  0  0  0  0  0  0  0  0  0
  -26.2715  -19.1826   24.6214 O   0  0  0  0  0  0  0  0  0  0  0  0
  -30.7073   -7.9652   20.0685 O   0  0  0  0  0  0  0  0  0  0  0  0
  -31.5922  -26.7662   22.7913 O   0  0  0  0  0  0  0  0  0  0  0  0
  -28.7208  -27.6277   18.9389 O   0  0  0  0  0  0  0  0  0  1  0  0
  -31.2010   -4.3979   24.2440 F   0  0  0  0  0  0  0  0  0  0  0  0
  -29.8160   -5.3600   19.8211 F   0  0  0  0  0  0  0  0  0  0  0  0
  1  2  1  0  0  0  0
  1  5  2  0  0  0  0
  2  6  2  0  0  0  0
  3  8  2  0  0  0  0
  3 17  1  0  0  0  0
  4  9  1  0  0  0  0
  4 17  2  0  0  0  0
  5 19  1  0  0  0  0
  6 21  1  0  0  0  0
  7 10  2  0  0  0  0
  7 20  1  0  0  0  0
  8 26  1  0  0  0  0
  9 26  2  0  0  0  0
 10 27  1  0  0  0  0
 11 12  2  0  0  0  0
 11 28  1  0  0  0  0
 12 30  1  0  0  0  0
 13 22  1  0  0  0  0
 13 24  2  0  0  0  0
 14 22  2  0  0  0  0
 14 25  1  0  0  0  0
 15 23  1  0  0  0  0
 15 27  2  0  0  0  0
 16 30  2  0  0  0  0
 16 31  1  0  0  0  0
 17 32  1  0  0  0  0
 18 32  1  0  0  0  0
 18 33  2  0  0  0  0
 18 34  1  0  0  0  0
 19 21  2  0  0  0  0
 19 39  1  0  0  0  0
 20 23  2  0  0  0  0
 20 40  1  0  0  0  0
 21 53  1  0  0  0  0
 22 52  1  0  0  0  0
 23 41  1  0  0  0  0
 24 29  1  0  0  0  0
 24 56  1  0  0  0  0
 25 29  2  0  0  0  0
 25 76  1  0  0  0  0
 26 85  1  0  0  0  0
 27 87  1  0  0  0  0
 28 31  2  0  0  0  0
 28 85  1  0  0  0  0
 29 86  1  0  0  0  0
 30 88  1  0  0  0  0
 31 89  1  0  0  0  0
 32 69  2  0  0  0  0
 33 70  1  0  0  0  0
 33 74  1  0  0  0  0
 34 75  1  0  0  0  0
 34 80  2  0  0  0  0
 35 54  1  0  0  0  0
 35 77  1  0  0  0  0
 35 81  2  0  0  0  0
 36 65  1  0  0  0  0
 36 71  1  0  0  0  0
 36 82  2  0  0  0  0
 37 66  1  0  0  0  0
 37 78  1  0  0  0  0
 37 83  2  0  0  0  0
 38 72  1  0  0  0  0
 38 73  1  0  0  0  0
 38 84  2  0  0  0  0
 39 42  1  0  0  0  0
 40 54  1  0  0  0  0
 41 71  1  0  0  0  0
 42 44  1  0  0  0  0
 43 45  1  0  0  0  0
 43 48  1  0  0  0  0
 44 53  1  0  0  0  0
 45 55  1  0  0  0  0
 46 49  1  0  0  0  0
 46 52  1  0  0  0  0
 47 50  1  0  0  0  0
 47 52  1  0  0  0  0
 48 72  1  0  0  0  0
 49 73  1  0  0  0  0
 50 73  1  0  0  0  0
 51 55  1  0  0  0  0
 51 72  1  0  0  0  0
 53 77  1  0  0  0  0
 54 71  1  0  0  0  0
 55 70  1  0  0  0  0
 57 66  1  0  0  0  0
 58 67  1  0  0  0  0
 59 68  1  0  0  0  0
 60 68  1  0  0  0  0
 61 68  1  0  0  0  0
 62 79  1  0  0  0  0
 63 86  1  0  0  0  0
 64 67  1  0  0  0  0
 64 87  1  0  0  0  0
 65 68  1  0  0  0  0
 65 78  1  0  0  0  0
 66 79  1  0  0  0  0
 67 76  1  0  0  0  0
 69 70  1  0  0  0  0
M  CHG  1  79   1
M  ISO  4  38 100  64 101  73 100  87 101
M  END
> <Batch ID>
0159

> <Smiles>
CNC(C)C(=O)NC(C(=O)N1Cc2cc([101O:1][101CH2:1]C(C)Nc3cc(C4CC[100N:0]([100C:0](=O)N5CCCC(n6nc(-c7ccc(Oc8ccc(F)cc8F)cc7)c(C(N)=O)c6N)C5)CC4)cc(C)c3OC)ccc2CC1C(=O)NC1CCCc2ccccc21)C(C)(C)C

> <Shape>
0.214

> <Color>
0.096

> <Negative vol penalty>
0.000

$$$$

  -OEChem-04052322073D

 88 97  0     1  0  0  0  0  0999 V2000
  -27.0083  -34.3821   25.4079 C   0  0  0  0  0  0  0  0  0  0  0  0
  -27.4001  -33.2110   24.7673 C   0  0  0  0  0  0  0  0  0  0  0  0
  -22.9355  -13.1939   18.9907 C   0  0  0  0  0  0  0  0  0  0  0  0
  -25.0362  -12.3660   18.1313 C   0  0  0  0  0  0  0  0  0  0  0  0
  -25.7240  -34.4881   25.9401 C   0  0  0  0  0  0  0  0  0  0  0  0
  -26.5081  -32.1447   24.6595 C   0  0  0  0  0  0  0  0  0  0  0  0
  -26.4803  -30.0954   20.0286 C   0  0  0  0  0  0  0  0  0  0  0  0
  -22.2665  -12.6169   17.9113 C   0  0  0  0  0  0  0  0  0  0  0  0
  -24.3672  -11.7890   17.0519 C   0  0  0  0  0  0  0  0  0  0  0  0
  -27.5318  -29.2391   19.7050 C   0  0  0  0  0  0  0  0  0  0  0  0
  -21.1968   -9.5417   16.9993 C   0  0  0  0  0  0  0  0  0  0  0  0
  -20.0246   -8.8344   17.2662 C   0  0  0  0  0  0  0  0  0  0  0  0
  -29.2963  -22.6475   18.0875 C   0  0  0  0  0  0  0  0  0  0  0  0
  -26.1140  -27.3392   20.1513 C   0  0  0  0  0  0  0  0  0  0  0  0
  -18.7890  -10.3442   15.8410 C   0  0  0  0  0  0  0  0  0  0  0  0
  -24.3204  -13.0685   19.1007 C   0  0  0  0  0  0  0  0  0  0  0  0
  -25.2878  -13.0704   21.4612 C   0  0  0  0  0  0  0  0  0  0  0  0
  -24.8126  -33.4260   25.8304 C   0  0  0  0  0  0  0  0  0  0  0  0
  -25.2389  -29.5792   20.4273 C   0  0  0  0  0  0  0  0  0  0  0  0
  -25.2108  -32.2360   25.1920 C   0  0  0  0  0  0  0  0  0  0  0  0
  -29.9044  -21.6712   18.8816 C   0  0  0  0  0  0  0  0  0  0  0  0
  -25.0476  -28.1910   20.4771 C   0  0  0  0  0  0  0  0  0  0  0  0
  -30.0385  -23.3342   17.1348 C   0  0  0  0  0  0  0  0  0  0  0  0
  -22.9824  -11.9144   16.9419 C   0  0  0  0  0  0  0  0  0  0  0  0
  -27.3497  -27.8608   19.7691 C   0  0  0  0  0  0  0  0  0  0  0  0
  -21.1651  -10.6504   16.1532 C   0  0  0  0  0  0  0  0  0  0  0  0
  -18.8207   -9.2356   16.6870 C   0  0  0  0  0  0  0  0  0  0  0  0
  -19.9613  -11.0515   15.5741 C   0  0  0  0  0  0  0  0  0  0  0  0
  -25.0121  -13.6648   20.2152 C   0  0  0  0  0  0  0  0  0  0  0  0
  -31.2683  -21.4363   18.6906 C   0  0  0  0  0  0  0  0  0  0  0  0
  -31.3794  -23.0200   17.0119 C   0  0  0  0  0  0  0  0  0  0  0  0
  -25.9588  -14.0413   22.1638 C   0  0  0  0  0  0  0  0  0  0  0  0
  -24.9662  -11.7580   21.9405 C   0  0  0  0  0  0  0  0  0  0  0  0
  -23.4790  -29.7574   23.0682 C   0  0  0  0  0  0  0  0  0  0  0  0
  -21.3035  -28.1720   21.2582 C   0  0  0  0  0  0  0  0  0  0  0  0
  -20.6890  -26.1251   18.5975 C   0  0  0  0  0  0  0  0  0  0  0  0
  -29.3066  -18.5101   20.5936 C   0  0  0  0  0  0  0  0  0  0  0  0
  -23.4510  -33.5696   26.4629 C   0  0  0  0  0  0  0  0  0  0  0  0
  -24.1066  -30.5162   20.7474 C   0  0  0  0  0  0  0  0  0  0  0  0
  -29.1042  -20.9494   19.9348 C   0  0  0  0  0  0  0  0  0  0  0  0
  -23.7282  -27.5863   20.8795 C   0  0  0  0  0  0  0  0  0  0  0  0
  -31.9820  -20.3820   19.4949 C   0  0  0  0  0  0  0  0  0  0  0  0
  -22.4414  -32.5328   25.9773 C   0  0  0  0  0  0  0  0  0  0  0  0
  -26.3743  -18.7833   22.5524 C   0  0  0  0  0  0  0  0  0  0  0  0
  -23.0621  -31.1395   25.9834 C   0  0  0  0  0  0  0  0  0  0  0  0
  -25.7062  -17.4354   22.2858 C   0  0  0  0  0  0  0  0  0  0  0  0
  -27.0217  -19.3641   21.2939 C   0  0  0  0  0  0  0  0  0  0  0  0
  -27.2918  -17.0896   20.3558 C   0  0  0  0  0  0  0  0  0  0  0  0
  -24.2635  -31.0665   25.0333 C   0  0  1  0  0  0  0  0  0  0  0  0
  -23.0406  -29.8834   21.6366 C   0  0  1  0  0  0  0  0  0  0  0  0
  -26.6888  -16.4571   21.6192 C   0  0  2  0  0  0  0  0  0  0  0  0
  -31.2608  -20.0301   20.8020 C   0  0  1  0  0  0  0  0  0  0  0  0
  -32.2280  -23.7233   16.0039 C   0  0  0  0  0  0  0  0  0  0  0  0
  -30.8164  -20.6892   23.1720 C   0  0  0  0  0  0  0  0  0  0  0  0
  -28.2119  -23.8312   15.4587 C   0  0  0  0  0  0  0  0  0  0  0  0
  -18.8151  -24.9722   17.3905 C   0  0  0  0  0  0  0  0  0  0  0  0
  -21.1504  -26.0932   23.4865 C   0  0  0  0  0  0  0  0  0  0  0  0
  -20.0425  -24.5395   21.8658 C   0  0  0  0  0  0  0  0  0  0  0  0
  -18.9466  -26.6974   22.4701 C   0  0  0  0  0  0  0  0  0  0  0  0
  -21.2540  -27.5849   16.0858 C   0  0  0  0  0  0  0  0  0  0  0  0
  -31.4796  -21.0815   21.8947 C   0  0  0  0  0  0  0  0  0  0  0  0
  -29.9383  -26.3038   17.7696 C   0  0  0  0  0  0  0  0  0  0  0  0
  -29.3207  -27.4844   18.4927 C   0  0  0  0  0  0  0  0  0  1  0  0
  -29.3863  -24.3708   16.2872 C   0  0  1  0  0  0  0  0  0  0  0  0
  -20.9938  -26.7197   20.9867 C   0  0  1  0  0  0  0  0  0  0  0  0
  -19.6820  -26.2194   17.4655 C   0  0  2  0  0  0  0  0  0  0  0  0
  -20.3089  -26.0235   22.1965 C   0  0  0  0  0  0  0  0  0  0  0  0
  -25.4703  -14.9164   20.1283 N   0  0  0  0  0  0  0  0  0  0  0  0
  -32.0099  -22.0895   17.7616 N   0  0  0  0  0  0  0  0  0  0  0  0
  -26.0407  -15.1164   21.3286 N   0  0  0  0  0  0  0  0  0  0  0  0
  -22.6536  -28.5439   21.1891 N   0  0  0  0  0  0  0  0  0  0  0  0
  -29.8275  -19.8156   20.5377 N   0  0  0  0  0  0  0  0  0  0  0  0
  -27.9111  -18.3816   20.6600 N   0  0  0  0  0  0  0  0  0  0  0  0
  -26.4807  -14.0716   23.4084 N   0  0  0  0  0  0  0  0  0  0  0  0
  -24.2735  -10.8867   21.0888 N   0  0  0  0  0  0  0  0  0  0  0  0
  -23.8168  -30.9591   23.6610 N   0  0  0  0  0  0  0  0  0  0  0  0
  -20.2074  -26.6928   19.7581 N   0  0  0  0  0  0  0  0  0  0  0  0
  -20.3833  -26.3835   16.1608 N   0  3  0  0  0  0  0  0  0  0  0  0
  -28.8749  -25.5492   17.0694 N   0  3  0  0  0  0  0  0  0  0  0  0
  -25.2692  -11.3751   23.0960 O   0  0  0  0  0  0  0  0  0  0  0  0
  -23.5071  -28.6521   23.5965 O   0  0  0  0  0  0  0  0  0  0  0  0
  -20.3808  -28.9494   21.5149 O   0  0  0  0  0  0  0  0  0  0  0  0
  -21.7910  -25.5970   18.4665 O   0  0  0  0  0  0  0  0  0  0  0  0
  -30.0440  -17.5164   20.5755 O   0  0  0  0  0  0  0  0  0  0  0  0
  -22.3299  -11.3511   15.8886 O   0  0  0  0  0  0  0  0  0  0  0  0
  -28.3819  -27.0167   19.4521 O   0  0  0  0  0  0  0  0  0  1  0  0
  -17.6954   -8.5554   16.9422 F   0  0  0  0  0  0  0  0  0  0  0  0
  -19.9248  -12.1151   14.7596 F   0  0  0  0  0  0  0  0  0  0  0  0
  1  2  1  0  0  0  0
  1  5  2  0  0  0  0
  2  6  2  0  0  0  0
  3  8  2  0  0  0  0
  3 16  1  0  0  0  0
  4  9  1  0  0  0  0
  4 16  2  0  0  0  0
  5 18  1  0  0  0  0
  6 20  1  0  0  0  0
  7 10  2  0  0  0  0
  7 19  1  0  0  0  0
  8 24  1  0  0  0  0
  9 24  2  0  0  0  0
 10 25  1  0  0  0  0
 11 12  2  0  0  0  0
 11 26  1  0  0  0  0
 12 27  1  0  0  0  0
 13 21  1  0  0  0  0
 13 23  2  0  0  0  0
 14 22  1  0  0  0  0
 14 25  2  0  0  0  0
 15 27  2  0  0  0  0
 15 28  1  0  0  0  0
 16 29  1  0  0  0  0
 17 29  1  0  0  0  0
 17 32  2  0  0  0  0
 17 33  1  0  0  0  0
 18 20  2  0  0  0  0
 18 38  1  0  0  0  0
 19 22  2  0  0  0  0
 19 39  1  0  0  0  0
 20 49  1  0  0  0  0
 21 30  2  0  0  0  0
 21 40  1  0  0  0  0
 22 41  1  0  0  0  0
 23 31  1  0  0  0  0
 23 64  1  0  0  0  0
 24 85  1  0  0  0  0
 25 86  1  0  0  0  0
 26 28  2  0  0  0  0
 26 85  1  0  0  0  0
 27 87  1  0  0  0  0
 28 88  1  0  0  0  0
 29 68  2  0  0  0  0
 30 42  1  0  0  0  0
 30 69  1  0  0  0  0
 31 53  1  0  0  0  0
 31 69  2  0  0  0  0
 32 70  1  0  0  0  0
 32 74  1  0  0  0  0
 33 75  1  0  0  0  0
 33 80  2  0  0  0  0
 34 50  1  0  0  0  0
 34 76  1  0  0  0  0
 34 81  2  0  0  0  0
 35 65  1  0  0  0  0
 35 71  1  0  0  0  0
 35 82  2  0  0  0  0
 36 66  1  0  0  0  0
 36 77  1  0  0  0  0
 36 83  2  0  0  0  0
 37 72  1  0  0  0  0
 37 73  1  0  0  0  0
 37 84  2  0  0  0  0
 38 43  1  0  0  0  0
 39 50  1  0  0  0  0
 40 72  1  0  0  0  0
 41 71  1  0  0  0  0
 42 52  1  0  0  0  0
 43 45  1  0  0  0  0
 44 46  1  0  0  0  0
 44 47  1  0  0  0  0
 45 49  1  0  0  0  0
 46 51  1  0  0  0  0
 47 73  1  0  0  0  0
 48 51  1  0  0  0  0
 48 73  1  0  0  0  0
 49 76  1  0  0  0  0
 50 71  1  0  0  0  0
 51 70  1  0  0  0  0
 52 61  1  0  0  0  0
 52 72  1  0  0  0  0
 54 61  1  0  0  0  0
 55 64  1  0  0  0  0
 56 66  1  0  0  0  0
 57 67  1  0  0  0  0
 58 67  1  0  0  0  0
 59 67  1  0  0  0  0
 60 78  1  0  0  0  0
 62 63  1  0  0  0  0
 62 79  1  0  0  0  0
 63 86  1  0  0  0  0
 64 79  1  0  0  0  0
 65 67  1  0  0  0  0
 65 77  1  0  0  0  0
 66 78  1  0  0  0  0
 68 70  1  0  0  0  0
M  CHG  2  78   1  79   1
M  ISO  4  37 100  63 101  72 100  86 101
M  END
> <Batch ID>
0159

> <Smiles>
CCC1Cc2nc(C)c(C(C)NC[101CH2:1][101O:1]c3ccc4c(c3)CN(C(=O)C(NC(=O)C(C)NC)C(C)(C)C)C(C(=O)NC3CCCc5ccccc53)C4)cc2C[100N:0]1[100C:0](=O)N1CCCC(n2nc(-c3ccc(Oc4ccc(F)cc4F)cc3)c(C(N)=O)c2N)C1

> <Shape>
0.235

> <Color>
0.075

> <Negative vol penalty>
0.000

$$$$

  -OEChem-04052322073D

 85 94  0     1  0  0  0  0  0999 V2000
  -18.3489  -32.7509   20.4066 C   0  0  0  0  0  0  0  0  0  0  0  0
  -19.6560  -32.5156   19.9924 C   0  0  0  0  0  0  0  0  0  0  0  0
  -24.6505  -13.7010   21.1850 C   0  0  0  0  0  0  0  0  0  0  0  0
  -26.9439  -13.0940   20.7279 C   0  0  0  0  0  0  0  0  0  0  0  0
  -17.9265  -32.3119   21.6606 C   0  0  0  0  0  0  0  0  0  0  0  0
  -20.5418  -31.8419   20.8326 C   0  0  0  0  0  0  0  0  0  0  0  0
  -24.9913  -27.9820   19.1566 C   0  0  0  0  0  0  0  0  0  0  0  0
  -24.2239  -12.4762   20.6717 C   0  0  0  0  0  0  0  0  0  0  0  0
  -26.5173  -11.8691   20.2146 C   0  0  0  0  0  0  0  0  0  0  0  0
  -26.3644  -28.1513   18.9847 C   0  0  0  0  0  0  0  0  0  0  0  0
  -24.0528   -9.2633   21.7115 C   0  0  0  0  0  0  0  0  0  0  0  0
  -23.0914   -8.5570   22.4343 C   0  0  0  0  0  0  0  0  0  0  0  0
  -26.7398  -27.3259   21.2202 C   0  0  0  0  0  0  0  0  0  0  0  0
  -32.5644  -29.4765   19.9182 C   0  0  0  0  0  0  0  0  0  0  0  0
  -33.1100  -27.1457   20.2448 C   0  0  0  0  0  0  0  0  0  0  0  0
  -21.5962   -8.6524   20.5389 C   0  0  0  0  0  0  0  0  0  0  0  0
  -26.0104  -14.0099   21.2130 C   0  0  0  0  0  0  0  0  0  0  0  0
  -26.7945  -15.5653   23.0768 C   0  0  0  0  0  0  0  0  0  0  0  0
  -18.8048  -31.6240   22.5127 C   0  0  0  0  0  0  0  0  0  0  0  0
  -24.4804  -27.4928   20.3674 C   0  0  0  0  0  0  0  0  0  0  0  0
  -20.1311  -31.3944   22.0998 C   0  0  0  0  0  0  0  0  0  0  0  0
  -25.3599  -27.1489   21.4039 C   0  0  0  0  0  0  0  0  0  0  0  0
  -33.5009  -28.4428   19.9125 C   0  0  0  0  0  0  0  0  0  0  0  0
  -31.2370  -29.2132   20.2564 C   0  0  0  0  0  0  0  0  0  0  0  0
  -30.8460  -27.9161   20.5886 C   0  0  0  0  0  0  0  0  0  0  0  0
  -31.7825  -26.8824   20.5829 C   0  0  0  0  0  0  0  0  0  0  0  0
  -25.1574  -11.5602   20.1865 C   0  0  0  0  0  0  0  0  0  0  0  0
  -27.2387  -27.8259   20.0176 C   0  0  0  0  0  0  0  0  0  0  0  0
  -23.7858   -9.6643   20.4024 C   0  0  0  0  0  0  0  0  0  0  0  0
  -21.8632   -8.2514   21.8480 C   0  0  0  0  0  0  0  0  0  0  0  0
  -22.5576   -9.3588   19.8161 C   0  0  0  0  0  0  0  0  0  0  0  0
  -26.4516  -15.2753   21.7426 C   0  0  0  0  0  0  0  0  0  0  0  0
  -27.1437  -16.8936   23.0605 C   0  0  0  0  0  0  0  0  0  0  0  0
  -26.7972  -14.7105   24.2279 C   0  0  0  0  0  0  0  0  0  0  0  0
  -22.5383  -28.6376   22.6083 C   0  0  0  0  0  0  0  0  0  0  0  0
  -22.8090  -25.6418   23.8225 C   0  0  0  0  0  0  0  0  0  0  0  0
  -24.6258  -22.7621   24.0524 C   0  0  0  0  0  0  0  0  0  0  0  0
  -29.8842  -21.0643   20.8151 C   0  0  0  0  0  0  0  0  0  0  0  0
  -18.3162  -31.2102   23.8783 C   0  0  0  0  0  0  0  0  0  0  0  0
  -22.9985  -27.2908   20.5273 C   0  0  0  0  0  0  0  0  0  0  0  0
  -24.8635  -26.6009   22.7161 C   0  0  0  0  0  0  0  0  0  0  0  0
  -19.2089  -30.1743   24.5565 C   0  0  0  0  0  0  0  0  0  0  0  0
  -26.5967  -20.4001   19.4555 C   0  0  0  0  0  0  0  0  0  0  0  0
  -20.6759  -30.5758   24.4405 C   0  0  0  0  0  0  0  0  0  0  0  0
  -26.2961  -19.0214   20.0462 C   0  0  0  0  0  0  0  0  0  0  0  0
  -30.6880  -23.7292   22.1524 C   0  0  0  0  0  0  0  0  0  0  0  0
  -28.0695  -20.5310   19.0787 C   0  0  0  0  0  0  0  0  0  0  0  0
  -31.4495  -25.0499   22.2633 C   0  0  0  0  0  0  0  0  0  0  0  0
  -28.7192  -18.8769   20.7863 C   0  0  0  0  0  0  0  0  0  0  0  0
  -30.9205  -24.6133   19.9422 C   0  0  0  0  0  0  0  0  0  0  0  0
  -21.1144  -30.6452   22.9727 C   0  0  1  0  0  0  0  0  0  0  0  0
  -22.5523  -27.2700   21.9860 C   0  0  1  0  0  0  0  0  0  0  0  0
  -27.2506  -18.6896   21.2085 C   0  0  2  0  0  0  0  0  0  0  0  0
  -30.9638  -23.2964   20.7190 C   0  0  2  0  0  0  0  0  0  0  0  0
  -34.9204  -28.7251   19.5530 C   0  0  0  0  0  0  0  0  0  0  0  0
  -30.2541  -30.3380   20.2550 C   0  0  0  0  0  0  0  0  0  0  0  0
  -25.1681  -20.3954   24.6866 C   0  0  0  0  0  0  0  0  0  0  0  0
  -23.6356  -26.9228   26.4656 C   0  0  0  0  0  0  0  0  0  0  0  0
  -24.5045  -24.6911   27.1953 C   0  0  0  0  0  0  0  0  0  0  0  0
  -22.0786  -24.9786   26.6905 C   0  0  0  0  0  0  0  0  0  0  0  0
  -23.3459  -21.6912   21.6082 C   0  0  0  0  0  0  0  0  0  0  0  0
  -29.4173  -27.6374   20.9525 C   0  0  0  0  0  0  0  0  0  1  0  0
  -23.7465  -24.9613   24.7905 C   0  0  1  0  0  0  0  0  0  0  0  0
  -24.2250  -21.3044   23.9139 C   0  0  2  0  0  0  0  0  0  0  0  0
  -23.5008  -25.4006   26.2616 C   0  0  0  0  0  0  0  0  0  0  0  0
  -26.5719  -16.3341   20.9374 N   0  0  0  0  0  0  0  0  0  0  0  0
  -26.9943  -17.3025   21.7680 N   0  0  0  0  0  0  0  0  0  0  0  0
  -31.4151  -25.5938   20.9073 N   0  0  3  0  0  0  0  0  0  0  0  0
  -23.4057  -26.4274   22.8262 N   0  0  0  0  0  0  0  0  0  0  0  0
  -28.9237  -20.2201   20.2336 N   0  0  0  0  0  0  0  0  0  0  0  0
  -27.5609  -17.7400   24.0259 N   0  0  0  0  0  0  0  0  0  0  0  0
  -26.4105  -13.3730   24.0677 N   0  0  0  0  0  0  0  0  0  0  0  0
  -21.3444  -29.3153   22.4505 N   0  0  0  0  0  0  0  0  0  0  0  0
  -23.5988  -23.5279   24.5623 N   0  0  0  0  0  0  0  0  0  0  0  0
  -30.0208  -22.3162   20.2280 N   0  0  0  0  0  0  0  0  0  0  0  0
  -24.2467  -20.8952   22.4811 N   0  3  0  0  0  0  0  0  0  0  0  0
  -27.1169  -15.1249   25.3679 O   0  0  0  0  0  0  0  0  0  0  0  0
  -23.5362  -29.0470   23.1898 O   0  0  0  0  0  0  0  0  0  0  0  0
  -21.5923  -25.4766   23.9416 O   0  0  0  0  0  0  0  0  0  0  0  0
  -25.7398  -23.1789   23.7430 O   0  0  0  0  0  0  0  0  0  0  0  0
  -30.5664  -20.7291   21.7895 O   0  0  0  0  0  0  0  0  0  0  0  0
  -24.7415  -10.3649   19.6858 O   0  0  0  0  0  0  0  0  0  0  0  0
  -28.5794  -27.9908   19.8528 O   0  0  0  0  0  0  0  0  0  1  0  0
  -20.9407   -7.5718   22.5417 F   0  0  0  0  0  0  0  0  0  0  0  0
  -22.2958   -9.7403   18.5584 F   0  0  0  0  0  0  0  0  0  0  0  0
  1  2  1  0  0  0  0
  1  5  2  0  0  0  0
  2  6  2  0  0  0  0
  3  8  2  0  0  0  0
  3 17  1  0  0  0  0
  4  9  1  0  0  0  0
  4 17  2  0  0  0  0
  5 19  1  0  0  0  0
  6 21  1  0  0  0  0
  7 10  2  0  0  0  0
  7 20  1  0  0  0  0
  8 27  1  0  0  0  0
  9 27  2  0  0  0  0
 10 28  1  0  0  0  0
 11 12  2  0  0  0  0
 11 29  1  0  0  0  0
 12 30  1  0  0  0  0
 13 22  1  0  0  0  0
 13 28  2  0  0  0  0
 14 23  1  0  0  0  0
 14 24  2  0  0  0  0
 15 23  2  0  0  0  0
 15 26  1  0  0  0  0
 16 30  2  0  0  0  0
 16 31  1  0  0  0  0
 17 32  1  0  0  0  0
 18 32  1  0  0  0  0
 18 33  2  0  0  0  0
 18 34  1  0  0  0  0
 19 21  2  0  0  0  0
 19 39  1  0  0  0  0
 20 22  2  0  0  0  0
 20 40  1  0  0  0  0
 21 51  1  0  0  0  0
 22 41  1  0  0  0  0
 23 55  1  0  0  0  0
 24 25  1  0  0  0  0
 24 56  1  0  0  0  0
 25 26  2  0  0  0  0
 25 62  1  0  0  0  0
 26 68  1  0  0  0  0
 27 82  1  0  0  0  0
 28 83  1  0  0  0  0
 29 31  2  0  0  0  0
 29 82  1  0  0  0  0
 30 84  1  0  0  0  0
 31 85  1  0  0  0  0
 32 66  2  0  0  0  0
 33 67  1  0  0  0  0
 33 71  1  0  0  0  0
 34 72  1  0  0  0  0
 34 77  2  0  0  0  0
 35 52  1  0  0  0  0
 35 73  1  0  0  0  0
 35 78  2  0  0  0  0
 36 63  1  0  0  0  0
 36 69  1  0  0  0  0
 36 79  2  0  0  0  0
 37 64  1  0  0  0  0
 37 74  1  0  0  0  0
 37 80  2  0  0  0  0
 38 70  1  0  0  0  0
 38 75  1  0  0  0  0
 38 81  2  0  0  0  0
 39 42  1  0  0  0  0
 40 52  1  0  0  0  0
 41 69  1  0  0  0  0
 42 44  1  0  0  0  0
 43 45  1  0  0  0  0
 43 47  1  0  0  0  0
 44 51  1  0  0  0  0
 45 53  1  0  0  0  0
 46 48  1  0  0  0  0
 46 54  1  0  0  0  0
 47 70  1  0  0  0  0
 48 68  1  0  0  0  0
 49 53  1  0  0  0  0
 49 70  1  0  0  0  0
 50 54  1  0  0  0  0
 50 68  1  0  0  0  0
 51 73  1  0  0  0  0
 52 69  1  0  0  0  0
 53 67  1  0  0  0  0
 54 75  1  0  0  0  0
 57 64  1  0  0  0  0
 58 65  1  0  0  0  0
 59 65  1  0  0  0  0
 60 65  1  0  0  0  0
 61 76  1  0  0  0  0
 62 83  1  0  0  0  0
 63 65  1  0  0  0  0
 63 74  1  0  0  0  0
 64 76  1  0  0  0  0
 66 67  1  0  0  0  0
M  CHG  1  76   1
M  ISO  4  38 100  62 101  75 100  83 101
M  END
> <Batch ID>
0159

> <Smiles>
CNC(C)C(=O)NC(C(=O)N1Cc2cc([101O:1][101CH2:1]c3c(C)cc(C)cc3N3CCC([100NH:0][100C:0](=O)N4CCCC(n5nc(-c6ccc(Oc7ccc(F)cc7F)cc6)c(C(N)=O)c5N)C4)C3)ccc2CC1C(=O)NC1CCCc2ccccc21)C(C)(C)C

> <Shape>
0.203

> <Color>
0.091

> <Negative vol penalty>
0.000

$$$$

  -OEChem-04052322073D

 86 95  0     1  0  0  0  0  0999 V2000
  -33.5950  -23.1840   17.0254 C   0  0  0  0  0  0  0  0  0  0  0  0
  -32.2239  -22.9545   17.0788 C   0  0  0  0  0  0  0  0  0  0  0  0
  -23.2992   -9.7935   19.9130 C   0  0  0  0  0  0  0  0  0  0  0  0
  -23.7186   -9.9480   22.2873 C   0  0  0  0  0  0  0  0  0  0  0  0
  -34.1590  -24.2092   17.7835 C   0  0  0  0  0  0  0  0  0  0  0  0
  -31.4162  -23.7494   17.8914 C   0  0  0  0  0  0  0  0  0  0  0  0
  -27.1716  -25.2285   15.5589 C   0  0  0  0  0  0  0  0  0  0  0  0
  -22.5692   -8.6227   20.1181 C   0  0  0  0  0  0  0  0  0  0  0  0
  -22.9885   -8.7773   22.4925 C   0  0  0  0  0  0  0  0  0  0  0  0
  -26.1409  -24.2949   15.4601 C   0  0  0  0  0  0  0  0  0  0  0  0
  -19.7381   -7.8699   22.6720 C   0  0  0  0  0  0  0  0  0  0  0  0
  -18.8217   -7.8552   23.7235 C   0  0  0  0  0  0  0  0  0  0  0  0
  -25.0315  -25.3301   17.3354 C   0  0  0  0  0  0  0  0  0  0  0  0
  -24.5129  -20.0190   18.2176 C   0  0  0  0  0  0  0  0  0  0  0  0
  -24.2730  -20.2955   15.8296 C   0  0  0  0  0  0  0  0  0  0  0  0
  -20.0128   -6.0131   24.7360 C   0  0  0  0  0  0  0  0  0  0  0  0
  -23.8740  -10.4561   20.9976 C   0  0  0  0  0  0  0  0  0  0  0  0
  -24.1380  -12.9846   20.7873 C   0  0  0  0  0  0  0  0  0  0  0  0
  -33.3566  -25.0233   18.5983 C   0  0  0  0  0  0  0  0  0  0  0  0
  -27.1453  -26.2149   16.5553 C   0  0  0  0  0  0  0  0  0  0  0  0
  -31.9703  -24.7856   18.6621 C   0  0  0  0  0  0  0  0  0  0  0  0
  -26.0618  -26.2766   17.4431 C   0  0  0  0  0  0  0  0  0  0  0  0
  -25.8823  -18.7220   16.7078 C   0  0  0  0  0  0  0  0  0  0  0  0
  -23.8965  -20.6357   17.1289 C   0  0  0  0  0  0  0  0  0  0  0  0
  -25.5058  -19.0622   18.0071 C   0  0  0  0  0  0  0  0  0  0  0  0
  -25.2659  -19.3387   15.6190 C   0  0  0  0  0  0  0  0  0  0  0  0
  -22.4138   -8.1146   21.4078 C   0  0  0  0  0  0  0  0  0  0  0  0
  -25.0721  -24.3438   16.3502 C   0  0  0  0  0  0  0  0  0  0  0  0
  -20.7919   -6.9561   22.6525 C   0  0  0  0  0  0  0  0  0  0  0  0
  -18.9590   -6.9269   24.7554 C   0  0  0  0  0  0  0  0  0  0  0  0
  -20.9292   -6.0277   23.6845 C   0  0  0  0  0  0  0  0  0  0  0  0
  -24.6287  -11.6652   20.7863 C   0  0  0  0  0  0  0  0  0  0  0  0
  -25.2434  -13.7622   20.5423 C   0  0  0  0  0  0  0  0  0  0  0  0
  -22.8025  -13.4646   20.9915 C   0  0  0  0  0  0  0  0  0  0  0  0
  -29.0056  -26.9614   19.0222 C   0  0  0  0  0  0  0  0  0  0  0  0
  -27.0101  -29.5081   19.2561 C   0  0  0  0  0  0  0  0  0  0  0  0
  -23.9432  -30.8552   18.6034 C   0  0  0  0  0  0  0  0  0  0  0  0
  -29.9054  -14.8856   17.9121 C   0  0  0  0  0  0  0  0  0  0  0  0
  -34.0181  -26.0888   19.4359 C   0  0  0  0  0  0  0  0  0  0  0  0
  -28.2516  -27.2311   16.6317 C   0  0  0  0  0  0  0  0  0  0  0  0
  -25.9762  -27.3283   18.5179 C   0  0  0  0  0  0  0  0  0  0  0  0
  -33.0417  -27.1266   19.9836 C   0  0  0  0  0  0  0  0  0  0  0  0
  -30.1593  -12.6011   20.4944 C   0  0  0  0  0  0  0  0  0  0  0  0
  -31.8147  -26.4433   20.5788 C   0  0  0  0  0  0  0  0  0  0  0  0
  -28.7054  -12.2519   20.8125 C   0  0  0  0  0  0  0  0  0  0  0  0
  -28.3173  -18.1181   17.0611 C   0  0  0  0  0  0  0  0  0  0  0  0
  -26.5570  -16.3013   17.0276 C   0  0  0  0  0  0  0  0  0  0  0  0
  -30.3793  -12.7061   18.9894 C   0  0  0  0  0  0  0  0  0  0  0  0
  -29.3890  -17.0518   16.8475 C   0  0  0  0  0  0  0  0  0  0  0  0
  -27.6673  -15.2768   16.8131 C   0  0  0  0  0  0  0  0  0  0  0  0
  -28.0199  -13.3491   18.6239 C   0  0  0  0  0  0  0  0  0  0  0  0
  -26.9620  -17.6809   16.4791 C   0  0  0  0  0  0  0  0  0  0  0  0
  -31.0576  -25.6424   19.5124 C   0  0  1  0  0  0  0  0  0  0  0  0
  -28.3770  -27.8755   18.0088 C   0  0  1  0  0  0  0  0  0  0  0  0
  -27.7395  -13.2406   20.1361 C   0  0  1  0  0  0  0  0  0  0  0  0
  -26.1494  -18.4157   19.1901 C   0  0  0  0  0  0  0  0  0  0  0  0
  -25.6509  -18.9921   14.2178 C   0  0  0  0  0  0  0  0  0  0  0  0
  -22.5942  -32.9425   18.9505 C   0  0  0  0  0  0  0  0  0  0  0  0
  -26.5632  -28.7312   22.1727 C   0  0  0  0  0  0  0  0  0  0  0  0
  -24.5474  -30.2160   22.1867 C   0  0  0  0  0  0  0  0  0  0  0  0
  -26.8072  -31.1879   21.7731 C   0  0  0  0  0  0  0  0  0  0  0  0
  -23.6671  -31.3001   15.6905 C   0  0  0  0  0  0  0  0  0  0  0  0
  -22.8354  -21.6591   17.3540 C   0  0  0  0  0  0  0  0  0  0  0  0
  -23.3911  -23.0824   17.4634 C   0  0  0  0  0  0  0  0  0  1  0  0
  -25.7126  -29.7870   19.9755 C   0  0  1  0  0  0  0  0  0  0  0  0
  -23.5355  -32.1954   18.0186 C   0  0  2  0  0  0  0  0  0  0  0  0
  -25.9099  -29.9594   21.5081 C   0  0  0  0  0  0  0  0  0  0  0  0
  -25.9434  -11.6041   20.5586 N   0  0  0  0  0  0  0  0  0  0  0  0
  -26.2882  -12.8949   20.4141 N   0  0  0  0  0  0  0  0  0  0  0  0
  -27.0854  -28.2957   18.5560 N   0  0  0  0  0  0  0  0  0  0  0  0
  -29.4392  -13.6491   18.3839 N   0  0  0  0  0  0  0  0  0  0  0  0
  -28.9520  -15.7488   17.3474 N   0  0  0  0  0  0  0  0  0  0  0  0
  -25.4138  -15.0963   20.4261 N   0  0  0  0  0  0  0  0  0  0  0  0
  -21.7859  -12.5299   21.2311 N   0  0  0  0  0  0  0  0  0  0  0  0
  -30.2718  -26.5270   18.6792 N   0  0  0  0  0  0  0  0  0  0  0  0
  -25.1207  -30.9455   19.3152 N   0  0  0  0  0  0  0  0  0  0  0  0
  -22.8470  -32.0022   16.7111 N   0  3  0  0  0  0  0  0  0  0  0  0
  -22.5160  -14.6850   20.9460 O   0  0  0  0  0  0  0  0  0  0  0  0
  -28.3883  -26.6728   20.0407 O   0  0  0  0  0  0  0  0  0  0  0  0
  -27.9207  -30.3387   19.3074 O   0  0  0  0  0  0  0  0  0  0  0  0
  -23.2813  -29.8314   18.4476 O   0  0  0  0  0  0  0  0  0  0  0  0
  -31.0982  -15.2038   17.9942 O   0  0  0  0  0  0  0  0  0  0  0  0
  -21.7013   -6.9724   21.6084 O   0  0  0  0  0  0  0  0  0  0  0  0
  -24.0580  -23.4269   16.2558 O   0  0  0  0  0  0  0  0  0  1  0  0
  -18.0798   -6.9140   25.7659 F   0  0  0  0  0  0  0  0  0  0  0  0
  -21.9401   -5.1482   23.6718 F   0  0  0  0  0  0  0  0  0  0  0  0
  1  2  1  0  0  0  0
  1  5  2  0  0  0  0
  2  6  2  0  0  0  0
  3  8  2  0  0  0  0
  3 17  1  0  0  0  0
  4  9  1  0  0  0  0
  4 17  2  0  0  0  0
  5 19  1  0  0  0  0
  6 21  1  0  0  0  0
  7 10  2  0  0  0  0
  7 20  1  0  0  0  0
  8 27  1  0  0  0  0
  9 27  2  0  0  0  0
 10 28  1  0  0  0  0
 11 12  2  0  0  0  0
 11 29  1  0  0  0  0
 12 30  1  0  0  0  0
 13 22  1  0  0  0  0
 13 28  2  0  0  0  0
 14 24  1  0  0  0  0
 14 25  2  0  0  0  0
 15 24  2  0  0  0  0
 15 26  1  0  0  0  0
 16 30  2  0  0  0  0
 16 31  1  0  0  0  0
 17 32  1  0  0  0  0
 18 32  1  0  0  0  0
 18 33  2  0  0  0  0
 18 34  1  0  0  0  0
 19 21  2  0  0  0  0
 19 39  1  0  0  0  0
 20 22  2  0  0  0  0
 20 40  1  0  0  0  0
 21 53  1  0  0  0  0
 22 41  1  0  0  0  0
 23 25  1  0  0  0  0
 23 26  2  0  0  0  0
 23 52  1  0  0  0  0
 24 63  1  0  0  0  0
 25 56  1  0  0  0  0
 26 57  1  0  0  0  0
 27 83  1  0  0  0  0
 28 84  1  0  0  0  0
 29 31  2  0  0  0  0
 29 83  1  0  0  0  0
 30 85  1  0  0  0  0
 31 86  1  0  0  0  0
 32 68  2  0  0  0  0
 33 69  1  0  0  0  0
 33 73  1  0  0  0  0
 34 74  1  0  0  0  0
 34 78  2  0  0  0  0
 35 54  1  0  0  0  0
 35 75  1  0  0  0  0
 35 79  2  0  0  0  0
 36 65  1  0  0  0  0
 36 70  1  0  0  0  0
 36 80  2  0  0  0  0
 37 66  1  0  0  0  0
 37 76  1  0  0  0  0
 37 81  2  0  0  0  0
 38 71  1  0  0  0  0
 38 72  1  0  0  0  0
 38 82  2  0  0  0  0
 39 42  1  0  0  0  0
 40 54  1  0  0  0  0
 41 70  1  0  0  0  0
 42 44  1  0  0  0  0
 43 45  1  0  0  0  0
 43 48  1  0  0  0  0
 44 53  1  0  0  0  0
 45 55  1  0  0  0  0
 46 49  1  0  0  0  0
 46 52  1  0  0  0  0
 47 50  1  0  0  0  0
 47 52  1  0  0  0  0
 48 71  1  0  0  0  0
 49 72  1  0  0  0  0
 50 72  1  0  0  0  0
 51 55  1  0  0  0  0
 51 71  1  0  0  0  0
 53 75  1  0  0  0  0
 54 70  1  0  0  0  0
 55 69  1  0  0  0  0
 58 66  1  0  0  0  0
 59 67  1  0  0  0  0
 60 67  1  0  0  0  0
 61 67  1  0  0  0  0
 62 77  1  0  0  0  0
 63 64  1  0  0  0  0
 64 84  1  0  0  0  0
 65 67  1  0  0  0  0
 65 76  1  0  0  0  0
 66 77  1  0  0  0  0
 68 69  1  0  0  0  0
M  CHG  1  77   1
M  ISO  4  38 100  64 101  72 100  84 101
M  END
> <Batch ID>
0159

> <Smiles>
CNC(C)C(=O)NC(C(=O)N1Cc2cc([101O:1][101CH2:1]Cc3cc(C)c(C4CC[100N:0]([100C:0](=O)N5CCCC(n6nc(-c7ccc(Oc8ccc(F)cc8F)cc7)c(C(N)=O)c6N)C5)CC4)c(C)c3)ccc2CC1C(=O)NC1CCCc2ccccc21)C(C)(C)C

> <Shape>
0.221

> <Color>
0.207

> <Negative vol penalty>
0.000

$$$$

  -OEChem-04052322073D

 87 96  0     1  0  0  0  0  0999 V2000
  -37.5641  -30.0863   19.8038 C   0  0  0  0  0  0  0  0  0  0  0  0
  -37.8493  -28.7324   19.9487 C   0  0  0  0  0  0  0  0  0  0  0  0
  -23.0522   -9.9032   20.0571 C   0  0  0  0  0  0  0  0  0  0  0  0
  -23.7891  -10.0207   22.3549 C   0  0  0  0  0  0  0  0  0  0  0  0
  -36.3492  -30.5945   20.2616 C   0  0  0  0  0  0  0  0  0  0  0  0
  -36.9201  -27.8860   20.5527 C   0  0  0  0  0  0  0  0  0  0  0  0
  -35.8232  -22.0258   19.1528 C   0  0  0  0  0  0  0  0  0  0  0  0
  -22.2674   -8.7921   20.3655 C   0  0  0  0  0  0  0  0  0  0  0  0
  -23.0043   -8.9096   22.6634 C   0  0  0  0  0  0  0  0  0  0  0  0
  -36.2535  -20.8287   19.7234 C   0  0  0  0  0  0  0  0  0  0  0  0
  -19.7452   -8.2560   23.2734 C   0  0  0  0  0  0  0  0  0  0  0  0
  -18.9758   -8.3105   24.4356 C   0  0  0  0  0  0  0  0  0  0  0  0
  -34.2141  -20.7145   21.0069 C   0  0  0  0  0  0  0  0  0  0  0  0
  -38.7302  -14.8064   18.4219 C   0  0  0  0  0  0  0  0  0  0  0  0
  -20.1438   -6.3800   25.2994 C   0  0  0  0  0  0  0  0  0  0  0  0
  -23.8131  -10.5175   21.0518 C   0  0  0  0  0  0  0  0  0  0  0  0
  -24.2410  -13.0184   20.7876 C   0  0  0  0  0  0  0  0  0  0  0  0
  -35.4006  -29.7522   20.8628 C   0  0  0  0  0  0  0  0  0  0  0  0
  -34.5879  -22.5828   19.5136 C   0  0  0  0  0  0  0  0  0  0  0  0
  -35.6919  -28.3837   21.0202 C   0  0  0  0  0  0  0  0  0  0  0  0
  -33.7694  -21.9174   20.4374 C   0  0  0  0  0  0  0  0  0  0  0  0
  -38.3196  -15.7106   19.3951 C   0  0  0  0  0  0  0  0  0  0  0  0
  -36.9880  -15.7362   19.7947 C   0  0  0  0  0  0  0  0  0  0  0  0
  -22.2434   -8.2953   21.6687 C   0  0  0  0  0  0  0  0  0  0  0  0
  -35.4502  -20.1743   20.6528 C   0  0  0  0  0  0  0  0  0  0  0  0
  -20.7139   -7.2635   23.1242 C   0  0  0  0  0  0  0  0  0  0  0  0
  -19.1751   -7.3725   25.4486 C   0  0  0  0  0  0  0  0  0  0  0  0
  -20.9132   -6.3255   24.1372 C   0  0  0  0  0  0  0  0  0  0  0  0
  -24.6244  -11.6649   20.7336 C   0  0  0  0  0  0  0  0  0  0  0  0
  -37.7780  -13.9559   17.8837 C   0  0  0  0  0  0  0  0  0  0  0  0
  -36.1137  -14.8442   19.1950 C   0  0  0  0  0  0  0  0  0  0  0  0
  -25.3614  -13.7085   20.3939 C   0  0  0  0  0  0  0  0  0  0  0  0
  -22.9846  -13.5998   21.1603 C   0  0  0  0  0  0  0  0  0  0  0  0
  -33.6670  -25.2957   20.8905 C   0  0  0  0  0  0  0  0  0  0  0  0
  -30.6992  -24.1855   20.1966 C   0  0  0  0  0  0  0  0  0  0  0  0
  -28.6868  -21.5075   19.5444 C   0  0  0  0  0  0  0  0  0  0  0  0
  -30.6387  -14.7022   20.4759 C   0  0  0  0  0  0  0  0  0  0  0  0
  -34.1209  -30.3560   21.3848 C   0  0  0  0  0  0  0  0  0  0  0  0
  -34.1263  -23.8609   18.8690 C   0  0  0  0  0  0  0  0  0  0  0  0
  -32.4256  -22.4632   20.8434 C   0  0  0  0  0  0  0  0  0  0  0  0
  -33.0345  -29.3238   21.6752 C   0  0  0  0  0  0  0  0  0  0  0  0
  -29.6784  -12.0949   18.3266 C   0  0  0  0  0  0  0  0  0  0  0  0
  -33.6112  -28.1469   22.4556 C   0  0  0  0  0  0  0  0  0  0  0  0
  -28.2349  -11.8539   18.7674 C   0  0  0  0  0  0  0  0  0  0  0  0
  -30.6043  -12.3578   19.5154 C   0  0  0  0  0  0  0  0  0  0  0  0
  -33.8257  -15.7379   18.8877 C   0  0  0  0  0  0  0  0  0  0  0  0
  -34.2181  -13.6438   20.1942 C   0  0  0  0  0  0  0  0  0  0  0  0
  -32.5917  -16.0175   19.7415 C   0  0  0  0  0  0  0  0  0  0  0  0
  -32.9860  -13.9667   21.0321 C   0  0  0  0  0  0  0  0  0  0  0  0
  -28.7000  -13.2053   20.8471 C   0  0  0  0  0  0  0  0  0  0  0  0
  -34.6992  -27.4293   21.6476 C   0  0  1  0  0  0  0  0  0  0  0  0
  -33.0790  -24.6021   19.6943 C   0  0  1  0  0  0  0  0  0  0  0  0
  -27.7350  -12.9961   19.6697 C   0  0  2  0  0  0  0  0  0  0  0  0
  -39.3239  -16.6393   19.9937 C   0  0  0  0  0  0  0  0  0  0  0  0
  -38.1829  -12.9719   16.8375 C   0  0  0  0  0  0  0  0  0  0  0  0
  -37.2189  -16.4542   22.1953 C   0  0  0  0  0  0  0  0  0  0  0  0
  -26.2991  -20.9107   19.0543 C   0  0  0  0  0  0  0  0  0  0  0  0
  -29.9976  -24.5860   23.1389 C   0  0  0  0  0  0  0  0  0  0  0  0
  -27.9961  -23.1232   22.7888 C   0  0  0  0  0  0  0  0  0  0  0  0
  -28.2039  -25.2705   21.5363 C   0  0  0  0  0  0  0  0  0  0  0  0
  -29.3913  -20.3709   16.9042 C   0  0  0  0  0  0  0  0  0  0  0  0
  -36.7178  -18.1754   20.4212 C   0  0  0  0  0  0  0  0  0  1  0  0
  -36.5290  -16.6998   20.8391 C   0  0  1  0  0  0  0  0  0  0  0  0
  -29.6872  -23.3214   20.9095 C   0  0  1  0  0  0  0  0  0  0  0  0
  -27.6532  -21.2647   18.4594 C   0  0  2  0  0  0  0  0  0  0  0  0
  -28.9973  -24.0657   22.0874 C   0  0  0  0  0  0  0  0  0  0  0  0
  -25.8894  -11.5027   20.3368 N   0  0  0  0  0  0  0  0  0  0  0  0
  -36.4757  -13.9515   18.2465 N   0  0  0  0  0  0  0  0  0  0  0  0
  -26.3106  -12.7633   20.1377 N   0  0  0  0  0  0  0  0  0  0  0  0
  -34.7708  -14.8651   19.5927 N   0  0  0  0  0  0  0  0  0  0  0  0
  -32.0213  -23.7190   20.1900 N   0  0  0  0  0  0  0  0  0  0  0  0
  -30.0662  -13.4260   20.3682 N   0  0  0  0  0  0  0  0  0  0  0  0
  -32.0276  -14.7918   20.2937 N   0  0  0  0  0  0  0  0  0  0  0  0
  -25.6173  -15.0257   20.2452 N   0  0  0  0  0  0  0  0  0  0  0  0
  -21.9393  -12.7462   21.5384 N   0  0  0  0  0  0  0  0  0  0  0  0
  -34.1025  -26.5824   20.6371 N   0  0  0  0  0  0  0  0  0  0  0  0
  -28.7664  -22.8413   19.8848 N   0  0  0  0  0  0  0  0  0  0  0  0
  -28.0845  -20.1462   17.5741 N   0  3  0  0  0  0  0  0  0  0  0  0
  -22.7894  -14.8388   21.1424 O   0  0  0  0  0  0  0  0  0  0  0  0
  -33.7203  -24.7075   21.9643 O   0  0  0  0  0  0  0  0  0  0  0  0
  -30.3288  -25.2322   19.6590 O   0  0  0  0  0  0  0  0  0  0  0  0
  -29.3540  -20.6037   20.0430 O   0  0  0  0  0  0  0  0  0  0  0  0
  -29.9521  -15.7029   20.7169 O   0  0  0  0  0  0  0  0  0  0  0  0
  -21.4775   -7.2112   21.9701 O   0  0  0  0  0  0  0  0  0  0  0  0
  -35.8708  -18.9984   21.2155 O   0  0  0  0  0  0  0  0  0  1  0  0
  -18.4372   -7.4259   26.5652 F   0  0  0  0  0  0  0  0  0  0  0  0
  -21.8432   -5.3704   24.0000 F   0  0  0  0  0  0  0  0  0  0  0  0
  1  2  1  0  0  0  0
  1  5  2  0  0  0  0
  2  6  2  0  0  0  0
  3  8  2  0  0  0  0
  3 16  1  0  0  0  0
  4  9  1  0  0  0  0
  4 16  2  0  0  0  0
  5 18  1  0  0  0  0
  6 20  1  0  0  0  0
  7 10  2  0  0  0  0
  7 19  1  0  0  0  0
  8 24  1  0  0  0  0
  9 24  2  0  0  0  0
 10 25  1  0  0  0  0
 11 12  2  0  0  0  0
 11 26  1  0  0  0  0
 12 27  1  0  0  0  0
 13 21  1  0  0  0  0
 13 25  2  0  0  0  0
 14 22  2  0  0  0  0
 14 30  1  0  0  0  0
 15 27  2  0  0  0  0
 15 28  1  0  0  0  0
 16 29  1  0  0  0  0
 17 29  1  0  0  0  0
 17 32  2  0  0  0  0
 17 33  1  0  0  0  0
 18 20  2  0  0  0  0
 18 38  1  0  0  0  0
 19 21  2  0  0  0  0
 19 39  1  0  0  0  0
 20 51  1  0  0  0  0
 21 40  1  0  0  0  0
 22 23  1  0  0  0  0
 22 54  1  0  0  0  0
 23 31  2  0  0  0  0
 23 63  1  0  0  0  0
 24 84  1  0  0  0  0
 25 85  1  0  0  0  0
 26 28  2  0  0  0  0
 26 84  1  0  0  0  0
 27 86  1  0  0  0  0
 28 87  1  0  0  0  0
 29 67  2  0  0  0  0
 30 55  1  0  0  0  0
 30 68  2  0  0  0  0
 31 68  1  0  0  0  0
 31 70  1  0  0  0  0
 32 69  1  0  0  0  0
 32 74  1  0  0  0  0
 33 75  1  0  0  0  0
 33 79  2  0  0  0  0
 34 52  1  0  0  0  0
 34 76  1  0  0  0  0
 34 80  2  0  0  0  0
 35 64  1  0  0  0  0
 35 71  1  0  0  0  0
 35 81  2  0  0  0  0
 36 65  1  0  0  0  0
 36 77  1  0  0  0  0
 36 82  2  0  0  0  0
 37 72  1  0  0  0  0
 37 73  1  0  0  0  0
 37 83  2  0  0  0  0
 38 41  1  0  0  0  0
 39 52  1  0  0  0  0
 40 71  1  0  0  0  0
 41 43  1  0  0  0  0
 42 44  1  0  0  0  0
 42 45  1  0  0  0  0
 43 51  1  0  0  0  0
 44 53  1  0  0  0  0
 45 72  1  0  0  0  0
 46 48  1  0  0  0  0
 46 70  1  0  0  0  0
 47 49  1  0  0  0  0
 47 70  1  0  0  0  0
 48 73  1  0  0  0  0
 49 73  1  0  0  0  0
 50 53  1  0  0  0  0
 50 72  1  0  0  0  0
 51 76  1  0  0  0  0
 52 71  1  0  0  0  0
 53 69  1  0  0  0  0
 56 63  1  0  0  0  0
 57 65  1  0  0  0  0
 58 66  1  0  0  0  0
 59 66  1  0  0  0  0
 60 66  1  0  0  0  0
 61 78  1  0  0  0  0
 62 63  1  0  0  0  0
 62 85  1  0  0  0  0
 64 66  1  0  0  0  0
 64 77  1  0  0  0  0
 65 78  1  0  0  0  0
 67 69  1  0  0  0  0
M  CHG  1  78   1
M  ISO  4  37 100  62 101  73 100  85 101
M  END
> <Batch ID>
0159

> <Smiles>
CNC(C)C(=O)NC(C(=O)N1Cc2cc([101O:1][101CH2:1]C(C)c3c(C)cc(C)nc3N3CC[100N:0]([100C:0](=O)N4CCCC(n5nc(-c6ccc(Oc7ccc(F)cc7F)cc6)c(C(N)=O)c5N)C4)CC3)ccc2CC1C(=O)NC1CCCc2ccccc21)C(C)(C)C

> <Shape>
0.192

> <Color>
0.202

> <Negative vol penalty>
0.000

$$$$

  -OEChem-04052322073D

 84 92  0     1  0  0  0  0  0999 V2000
  -21.2149  -12.6441   21.5509 C   0  0  0  0  0  0  0  0  0  0  0  0
  -21.5465  -13.9912   21.6549 C   0  0  0  0  0  0  0  0  0  0  0  0
  -24.2178  -24.6928   21.4765 C   0  0  0  0  0  0  0  0  0  0  0  0
  -24.6619  -25.0704   23.8211 C   0  0  0  0  0  0  0  0  0  0  0  0
  -22.2106  -11.6991   21.3067 C   0  0  0  0  0  0  0  0  0  0  0  0
  -22.8742  -14.3940   21.5158 C   0  0  0  0  0  0  0  0  0  0  0  0
  -26.8267  -19.8558   19.0947 C   0  0  0  0  0  0  0  0  0  0  0  0
  -24.8262  -23.4406   21.5629 C   0  0  0  0  0  0  0  0  0  0  0  0
  -25.2703  -23.8182   23.9076 C   0  0  0  0  0  0  0  0  0  0  0  0
  -27.8486  -20.7109   19.5052 C   0  0  0  0  0  0  0  0  0  0  0  0
  -24.2992  -20.5906   24.1522 C   0  0  0  0  0  0  0  0  0  0  0  0
  -23.9713  -19.7864   25.2437 C   0  0  0  0  0  0  0  0  0  0  0  0
  -29.4733  -18.9990   19.0063 C   0  0  0  0  0  0  0  0  0  0  0  0
  -26.2892  -19.7659   25.9248 C   0  0  0  0  0  0  0  0  0  0  0  0
  -24.1357  -25.5077   22.6056 C   0  0  0  0  0  0  0  0  0  0  0  0
  -22.1488  -27.1031   22.7259 C   0  0  0  0  0  0  0  0  0  0  0  0
  -23.5498  -12.0916   21.1550 C   0  0  0  0  0  0  0  0  0  0  0  0
  -27.1201  -18.5599   18.6466 C   0  0  0  0  0  0  0  0  0  0  0  0
  -23.8889  -13.4532   21.2707 C   0  0  0  0  0  0  0  0  0  0  0  0
  -28.4536  -18.1303   18.5884 C   0  0  0  0  0  0  0  0  0  0  0  0
  -25.3524  -23.0033   22.7785 C   0  0  0  0  0  0  0  0  0  0  0  0
  -29.1718  -20.2815   19.4637 C   0  0  0  0  0  0  0  0  0  0  0  0
  -25.6221  -20.9823   23.9469 C   0  0  0  0  0  0  0  0  0  0  0  0
  -24.9663  -19.3741   26.1300 C   0  0  0  0  0  0  0  0  0  0  0  0
  -26.6171  -20.5700   24.8332 C   0  0  0  0  0  0  0  0  0  0  0  0
  -23.5079  -26.8016   22.5168 C   0  0  0  0  0  0  0  0  0  0  0  0
  -22.0630  -28.4591   22.5246 C   0  0  0  0  0  0  0  0  0  0  0  0
  -21.0611  -26.2352   23.0713 C   0  0  0  0  0  0  0  0  0  0  0  0
  -26.3837  -15.6271   19.6265 C   0  0  0  0  0  0  0  0  0  0  0  0
  -27.8782  -14.7558   16.8825 C   0  0  0  0  0  0  0  0  0  0  0  0
  -31.0811  -25.9959   20.4548 C   0  0  0  0  0  0  0  0  0  0  0  0
  -30.1393  -15.5250   14.4449 C   0  0  0  0  0  0  0  0  0  0  0  0
  -27.5026  -29.8077   21.9092 C   0  0  0  0  0  0  0  0  0  0  0  0
  -24.5978  -11.0287   20.9391 C   0  0  0  0  0  0  0  0  0  0  0  0
  -26.0087  -17.6591   18.1821 C   0  0  0  0  0  0  0  0  0  0  0  0
  -28.8231  -16.7556   18.0962 C   0  0  0  0  0  0  0  0  0  0  0  0
  -25.9281  -11.5791   20.4315 C   0  0  0  0  0  0  0  0  0  0  0  0
  -24.6401  -30.0685   19.5133 C   0  0  0  0  0  0  0  0  0  0  0  0
  -26.3430  -12.8035   21.2413 C   0  0  0  0  0  0  0  0  0  0  0  0
  -23.5541  -30.6430   20.4207 C   0  0  0  0  0  0  0  0  0  0  0  0
  -26.0241  -30.4902   19.9869 C   0  0  0  0  0  0  0  0  0  0  0  0
  -30.4737  -28.0453   21.6931 C   0  0  0  0  0  0  0  0  0  0  0  0
  -28.6598  -26.7453   20.6100 C   0  0  0  0  0  0  0  0  0  0  0  0
  -29.8273  -29.3334   21.2002 C   0  0  0  0  0  0  0  0  0  0  0  0
  -28.0059  -28.0503   20.1517 C   0  0  0  0  0  0  0  0  0  0  0  0
  -25.2211  -30.6534   22.3270 C   0  0  0  0  0  0  0  0  0  0  0  0
  -25.3144  -13.9321   21.1011 C   0  0  1  0  0  0  0  0  0  0  0  0
  -26.3791  -16.1799   18.2294 C   0  0  1  0  0  0  0  0  0  0  0  0
  -23.7829  -30.2919   21.9042 C   0  0  2  0  0  0  0  0  0  0  0  0
  -30.7955  -25.1924   18.1232 C   0  0  0  0  0  0  0  0  0  0  0  0
  -31.1737  -14.5992   12.3544 C   0  0  0  0  0  0  0  0  0  0  0  0
  -32.2510  -22.1723   21.6662 C   0  0  0  0  0  0  0  0  0  0  0  0
  -29.6258  -12.9082   18.5684 C   0  0  0  0  0  0  0  0  0  0  0  0
  -31.2075  -12.7536   16.6339 C   0  0  0  0  0  0  0  0  0  0  0  0
  -28.8650  -11.9294   16.3964 C   0  0  0  0  0  0  0  0  0  0  0  0
  -29.0903  -17.7513   12.8010 C   0  0  0  0  0  0  0  0  0  0  0  0
  -29.8538  -22.0712   20.8737 C   0  0  0  0  0  0  0  0  0  1  0  0
  -29.2989  -14.4180   16.4998 C   0  0  1  0  0  0  0  0  0  0  0  0
  -30.6283  -24.8497   19.5856 C   0  0  1  0  0  0  0  0  0  0  0  0
  -30.0531  -15.4503   12.9311 C   0  0  2  0  0  0  0  0  0  0  0  0
  -31.0532  -22.9649   21.1685 C   0  0  2  0  0  0  0  0  0  0  0  0
  -29.7425  -13.0276   17.0358 C   0  0  0  0  0  0  0  0  0  0  0  0
  -24.2333  -27.8792   22.2063 N   0  0  0  0  0  0  0  0  0  0  0  0
  -23.3266  -28.8712   22.2188 N   0  0  0  0  0  0  0  0  0  0  0  0
  -27.7004  -15.9096   17.6589 N   0  0  0  0  0  0  0  0  0  0  0  0
  -30.0996  -26.9059   20.8513 N   0  0  0  0  0  0  0  0  0  0  0  0
  -26.2395  -30.1535   21.3988 N   0  0  0  0  0  0  0  0  0  0  0  0
  -28.3862  -29.1616   21.0315 N   0  0  0  0  0  0  0  0  0  0  0  0
  -21.0307  -29.3271   22.5811 N   0  0  0  0  0  0  0  0  0  0  0  0
  -21.3243  -24.8690   23.2407 N   0  0  0  0  0  0  0  0  0  0  0  0
  -25.4744  -14.6069   19.8309 N   0  0  0  0  0  0  0  0  0  0  0  0
  -29.3732  -14.5506   15.0488 N   0  0  0  0  0  0  0  0  0  0  0  0
  -30.1467  -16.8146   12.3389 N   0  3  0  0  0  0  0  0  0  0  0  0
  -31.4460  -23.6591   19.9103 N   0  3  0  0  0  0  0  0  0  0  0  0
  -19.8874  -26.6559   23.2091 O   0  0  0  0  0  0  0  0  0  0  0  0
  -27.1560  -16.0908   20.4572 O   0  0  0  0  0  0  0  0  0  0  0  0
  -26.9594  -14.0267   16.5006 O   0  0  0  0  0  0  0  0  0  0  0  0
  -32.2713  -26.0810   20.7682 O   0  0  0  0  0  0  0  0  0  0  0  0
  -30.8212  -16.3617   15.0327 O   0  0  0  0  0  0  0  0  0  0  0  0
  -27.8142  -30.0513   23.0816 O   0  0  0  0  0  0  0  0  0  0  0  0
  -25.9459  -21.7813   22.8632 O   0  0  0  0  0  0  0  0  0  0  0  0
  -30.1779  -21.1195   19.8671 O   0  0  0  0  0  0  0  0  0  1  0  0
  -24.6511  -18.6031   27.1790 F   0  0  0  0  0  0  0  0  0  0  0  0
  -27.8896  -20.9442   24.6419 F   0  0  0  0  0  0  0  0  0  0  0  0
  1  2  1  0  0  0  0
  1  5  2  0  0  0  0
  2  6  2  0  0  0  0
  3  8  2  0  0  0  0
  3 15  1  0  0  0  0
  4  9  1  0  0  0  0
  4 15  2  0  0  0  0
  5 17  1  0  0  0  0
  6 19  1  0  0  0  0
  7 10  2  0  0  0  0
  7 18  1  0  0  0  0
  8 21  1  0  0  0  0
  9 21  2  0  0  0  0
 10 22  1  0  0  0  0
 11 12  2  0  0  0  0
 11 23  1  0  0  0  0
 12 24  1  0  0  0  0
 13 20  1  0  0  0  0
 13 22  2  0  0  0  0
 14 24  2  0  0  0  0
 14 25  1  0  0  0  0
 15 26  1  0  0  0  0
 16 26  1  0  0  0  0
 16 27  2  0  0  0  0
 16 28  1  0  0  0  0
 17 19  2  0  0  0  0
 17 34  1  0  0  0  0
 18 20  2  0  0  0  0
 18 35  1  0  0  0  0
 19 47  1  0  0  0  0
 20 36  1  0  0  0  0
 21 81  1  0  0  0  0
 22 82  1  0  0  0  0
 23 25  2  0  0  0  0
 23 81  1  0  0  0  0
 24 83  1  0  0  0  0
 25 84  1  0  0  0  0
 26 63  2  0  0  0  0
 27 64  1  0  0  0  0
 27 69  1  0  0  0  0
 28 70  1  0  0  0  0
 28 75  2  0  0  0  0
 29 48  1  0  0  0  0
 29 71  1  0  0  0  0
 29 76  2  0  0  0  0
 30 58  1  0  0  0  0
 30 65  1  0  0  0  0
 30 77  2  0  0  0  0
 31 59  1  0  0  0  0
 31 66  1  0  0  0  0
 31 78  2  0  0  0  0
 32 60  1  0  0  0  0
 32 72  1  0  0  0  0
 32 79  2  0  0  0  0
 33 67  1  0  0  0  0
 33 68  1  0  0  0  0
 33 80  2  0  0  0  0
 34 37  1  0  0  0  0
 35 48  1  0  0  0  0
 36 65  1  0  0  0  0
 37 39  1  0  0  0  0
 38 40  1  0  0  0  0
 38 41  1  0  0  0  0
 39 47  1  0  0  0  0
 40 49  1  0  0  0  0
 41 67  1  0  0  0  0
 42 44  1  0  0  0  0
 42 66  1  0  0  0  0
 43 45  1  0  0  0  0
 43 66  1  0  0  0  0
 44 68  1  0  0  0  0
 45 68  1  0  0  0  0
 46 49  1  0  0  0  0
 46 67  1  0  0  0  0
 47 71  1  0  0  0  0
 48 65  1  0  0  0  0
 49 64  1  0  0  0  0
 50 59  1  0  0  0  0
 51 60  1  0  0  0  0
 52 61  1  0  0  0  0
 53 62  1  0  0  0  0
 54 62  1  0  0  0  0
 55 62  1  0  0  0  0
 56 73  1  0  0  0  0
 57 61  1  0  0  0  0
 57 82  1  0  0  0  0
 58 62  1  0  0  0  0
 58 72  1  0  0  0  0
 59 74  1  0  0  0  0
 60 73  1  0  0  0  0
 61 74  1  0  0  0  0
 63 64  1  0  0  0  0
M  CHG  2  73   1  74   1
M  ISO  4  33 100  57 101  68 100  82 101
M  END
> <Batch ID>
0159

> <Smiles>
CNC(C)C(=O)NC(C(=O)N1Cc2cc([101O:1][101CH2:1]C(C)NC(C)C(=O)N3CC[100N:0]([100C:0](=O)N4CCCC(n5nc(-c6ccc(Oc7ccc(F)cc7F)cc6)c(C(N)=O)c5N)C4)CC3)ccc2CC1C(=O)NC1CCCc2ccccc21)C(C)(C)C

> <Shape>
0.244

> <Color>
0.065

> <Negative vol penalty>
0.000

$$$$

  -OEChem-04052322073D

 98109  0     1  0  0  0  0  0999 V2000
  -27.9351  -34.7837   24.3854 C   0  0  0  0  0  0  0  0  0  0  0  0
  -27.9144  -33.7415   23.4655 C   0  0  0  0  0  0  0  0  0  0  0  0
  -20.9806  -10.2740   22.6802 C   0  0  0  0  0  0  0  0  0  0  0  0
  -23.0399  -10.5771   21.4536 C   0  0  0  0  0  0  0  0  0  0  0  0
  -26.9014  -34.9122   25.3107 C   0  0  0  0  0  0  0  0  0  0  0  0
  -26.8541  -32.8345   23.4627 C   0  0  0  0  0  0  0  0  0  0  0  0
  -26.7268  -29.5561   19.7967 C   0  0  0  0  0  0  0  0  0  0  0  0
  -21.0172   -8.9073   22.4039 C   0  0  0  0  0  0  0  0  0  0  0  0
  -23.0765   -9.2103   21.1773 C   0  0  0  0  0  0  0  0  0  0  0  0
  -27.6160  -28.4856   19.7117 C   0  0  0  0  0  0  0  0  0  0  0  0
  -22.6354   -6.1740   23.5629 C   0  0  0  0  0  0  0  0  0  0  0  0
  -22.3662   -5.2935   24.6106 C   0  0  0  0  0  0  0  0  0  0  0  0
  -27.2107  -17.1513   19.3603 C   0  0  0  0  0  0  0  0  0  0  0  0
  -25.8838  -26.9934   20.4810 C   0  0  0  0  0  0  0  0  0  0  0  0
  -20.4907   -4.3996   23.3775 C   0  0  0  0  0  0  0  0  0  0  0  0
  -28.4583  -17.7318   19.0897 C   0  0  0  0  0  0  0  0  0  0  0  0
  -21.9920  -11.1090   22.2050 C   0  0  0  0  0  0  0  0  0  0  0  0
  -21.9615  -13.1331   23.7573 C   0  0  0  0  0  0  0  0  0  0  0  0
  -25.8346  -33.9986   25.3267 C   0  0  0  0  0  0  0  0  0  0  0  0
  -25.4103  -29.3547   20.2358 C   0  0  0  0  0  0  0  0  0  0  0  0
  -25.7893  -32.9613   24.3731 C   0  0  0  0  0  0  0  0  0  0  0  0
  -24.9791  -28.0626   20.5683 C   0  0  0  0  0  0  0  0  0  0  0  0
  -29.8059  -17.3812   19.3755 C   0  0  0  0  0  0  0  0  0  0  0  0
  -28.4955  -18.9376   18.3810 C   0  0  0  0  0  0  0  0  0  0  0  0
  -22.0651   -8.3755   21.6525 C   0  0  0  0  0  0  0  0  0  0  0  0
  -27.1954  -27.2045   20.0566 C   0  0  0  0  0  0  0  0  0  0  0  0
  -21.8322   -6.1675   22.4225 C   0  0  0  0  0  0  0  0  0  0  0  0
  -21.2939   -4.4062   24.5179 C   0  0  0  0  0  0  0  0  0  0  0  0
  -20.7599   -5.2803   22.3298 C   0  0  0  0  0  0  0  0  0  0  0  0
  -21.9545  -12.5209   22.4896 C   0  0  0  0  0  0  0  0  0  0  0  0
  -30.6106  -18.3674   18.8474 C   0  0  0  0  0  0  0  0  0  0  0  0
  -27.3387  -19.5672   17.9404 C   0  0  0  0  0  0  0  0  0  0  0  0
  -26.0996  -17.8376   18.8890 C   0  0  0  0  0  0  0  0  0  0  0  0
  -21.9149  -14.4793   23.4888 C   0  0  0  0  0  0  0  0  0  0  0  0
  -22.0062  -12.5381   25.0610 C   0  0  0  0  0  0  0  0  0  0  0  0
  -23.6814  -30.3932   22.6926 C   0  0  0  0  0  0  0  0  0  0  0  0
  -21.2814  -28.8431   21.1565 C   0  0  0  0  0  0  0  0  0  0  0  0
  -20.8632  -25.7181   19.4025 C   0  0  0  0  0  0  0  0  0  0  0  0
  -23.5837  -17.7636   18.7841 C   0  0  0  0  0  0  0  0  0  0  0  0
  -24.7382  -34.1893   26.3449 C   0  0  0  0  0  0  0  0  0  0  0  0
  -24.4557  -30.5155   20.2965 C   0  0  0  0  0  0  0  0  0  0  0  0
  -23.5703  -27.7900   21.0261 C   0  0  0  0  0  0  0  0  0  0  0  0
  -30.3730  -16.2217   20.1076 C   0  0  0  0  0  0  0  0  0  0  0  0
  -32.0948  -18.3988   18.8973 C   0  0  0  0  0  0  0  0  0  0  0  0
  -23.8959  -32.9350   26.5535 C   0  0  0  0  0  0  0  0  0  0  0  0
  -20.3273  -17.5918   20.2138 C   0  0  0  0  0  0  0  0  0  0  0  0
  -23.4521  -32.3774   25.2093 C   0  0  0  0  0  0  0  0  0  0  0  0
  -20.3776  -16.3310   21.0798 C   0  0  0  0  0  0  0  0  0  0  0  0
  -30.7504  -22.9468   17.8492 C   0  0  0  0  0  0  0  0  0  0  0  0
  -29.7962  -21.5909   19.7638 C   0  0  0  0  0  0  0  0  0  0  0  0
  -21.1258  -17.4249   18.9221 C   0  0  0  0  0  0  0  0  0  0  0  0
  -22.5643  -15.7210   19.9693 C   0  0  0  0  0  0  0  0  0  0  0  0
  -32.6052  -17.4392   19.9840 C   0  0  0  0  0  0  0  0  0  0  0  0
  -31.0041  -24.1021   18.8117 C   0  0  0  0  0  0  0  0  0  0  0  0
  -30.0595  -22.7609   20.7058 C   0  0  0  0  0  0  0  0  0  0  0  0
  -24.6619  -31.9449   24.3712 C   0  0  1  0  0  0  0  0  0  0  0  0
  -23.2866  -30.2785   21.2474 C   0  0  1  0  0  0  0  0  0  0  0  0
  -21.8281  -15.8639   21.3114 C   0  0  2  0  0  0  0  0  0  0  0  0
  -30.7333  -21.5781   18.5465 C   0  0  0  0  0  0  0  0  0  0  0  0
  -27.3153  -20.8505   17.1830 C   0  0  0  0  0  0  0  0  0  0  0  0
  -19.2650  -25.0719   17.5788 C   0  0  0  0  0  0  0  0  0  0  0  0
  -32.6736  -15.6558   22.1583 C   0  0  0  0  0  0  0  0  0  0  0  0
  -33.8161  -14.6133   20.1628 C   0  0  0  0  0  0  0  0  0  0  0  0
  -19.5376  -27.8233   23.4433 C   0  0  0  0  0  0  0  0  0  0  0  0
  -18.8955  -25.8838   21.9961 C   0  0  0  0  0  0  0  0  0  0  0  0
  -18.3191  -28.2069   21.2933 C   0  0  0  0  0  0  0  0  0  0  0  0
  -23.0634  -24.8553   17.6209 C   0  0  0  0  0  0  0  0  0  0  0  0
  -30.3084  -20.4867   17.5620 C   0  0  0  0  0  0  0  0  0  0  0  0
  -30.1140  -25.2491   20.8374 C   0  0  0  0  0  0  0  0  0  0  0  0
  -29.4444  -26.4417   20.1836 C   0  0  0  0  0  0  0  0  0  1  0  0
  -20.7257  -27.4397   21.1833 C   0  0  1  0  0  0  0  0  0  0  0  0
  -20.6765  -25.5331   17.9074 C   0  0  2  0  0  0  0  0  0  0  0  0
  -32.4959  -15.0566   20.7725 C   0  0  0  0  0  0  0  0  0  0  0  0
  -19.3968  -27.3437   21.9848 C   0  0  0  0  0  0  0  0  0  0  0  0
  -21.9071  -13.4056   21.4901 N   0  0  0  0  0  0  0  0  0  0  0  0
  -26.1373  -19.0024   18.2026 N   0  0  0  0  0  0  0  0  0  0  0  0
  -29.8176  -19.3014   18.2461 N   0  0  0  0  0  0  0  0  0  0  0  0
  -21.8838  -14.5874   22.1296 N   0  0  0  0  0  0  0  0  0  0  0  0
  -22.6763  -28.9587   21.0749 N   0  0  0  0  0  0  0  0  0  0  0  0
  -22.4906  -16.9850   19.2198 N   0  0  0  0  0  0  0  0  0  0  0  0
  -21.8980  -15.5692   24.2851 N   0  0  0  0  0  0  0  0  0  0  0  0
  -23.2582  -12.2985   25.6435 N   0  0  0  0  0  0  0  0  0  0  0  0
  -24.8317  -17.2631   19.1537 N   0  0  0  0  0  0  0  0  0  0  0  0
  -24.2177  -31.6202   23.0336 N   0  0  0  0  0  0  0  0  0  0  0  0
  -20.6156  -27.0176   19.7911 N   0  0  0  0  0  0  0  0  0  0  0  0
  -31.8839  -16.0971   19.8786 N   0  3  1  0  0  0  0  0  0  0  0  0
  -29.9943  -24.0542   19.9316 N   0  3  0  0  0  0  0  0  0  0  0  0
  -21.6356  -24.5179   17.3872 N   0  3  0  0  0  0  0  0  0  0  0  0
  -20.9670  -12.2129   25.6838 O   0  0  0  0  0  0  0  0  0  0  0  0
  -23.5106  -29.4396   23.4430 O   0  0  0  0  0  0  0  0  0  0  0  0
  -20.5059  -29.8015   21.1990 O   0  0  0  0  0  0  0  0  0  0  0  0
  -21.1920  -24.8006   20.1513 O   0  0  0  0  0  0  0  0  0  0  0  0
  -23.4234  -18.8124   18.1547 O   0  0  0  0  0  0  0  0  0  0  0  0
  -32.0579  -21.2424   18.9686 O   0  0  0  0  0  0  0  0  0  0  0  0
  -22.1012   -7.0418   21.3829 O   0  0  0  0  0  0  0  0  0  0  0  0
  -28.0614  -26.1580   19.9751 O   0  0  0  0  0  0  0  0  0  1  0  0
  -21.0364   -3.5596   25.5235 F   0  0  0  0  0  0  0  0  0  0  0  0
  -19.9854   -5.2685   21.2362 F   0  0  0  0  0  0  0  0  0  0  0  0
  1  2  1  0  0  0  0
  1  5  2  0  0  0  0
  2  6  2  0  0  0  0
  3  8  2  0  0  0  0
  3 17  1  0  0  0  0
  4  9  1  0  0  0  0
  4 17  2  0  0  0  0
  5 19  1  0  0  0  0
  6 21  1  0  0  0  0
  7 10  2  0  0  0  0
  7 20  1  0  0  0  0
  8 25  1  0  0  0  0
  9 25  2  0  0  0  0
 10 26  1  0  0  0  0
 11 12  2  0  0  0  0
 11 27  1  0  0  0  0
 12 28  1  0  0  0  0
 13 16  1  0  0  0  0
 13 33  2  0  0  0  0
 14 22  1  0  0  0  0
 14 26  2  0  0  0  0
 15 28  2  0  0  0  0
 15 29  1  0  0  0  0
 16 23  1  0  0  0  0
 16 24  2  0  0  0  0
 17 30  1  0  0  0  0
 18 30  1  0  0  0  0
 18 34  2  0  0  0  0
 18 35  1  0  0  0  0
 19 21  2  0  0  0  0
 19 40  1  0  0  0  0
 20 22  2  0  0  0  0
 20 41  1  0  0  0  0
 21 56  1  0  0  0  0
 22 42  1  0  0  0  0
 23 31  2  0  0  0  0
 23 43  1  0  0  0  0
 24 32  1  0  0  0  0
 24 77  1  0  0  0  0
 25 95  1  0  0  0  0
 26 96  1  0  0  0  0
 27 29  2  0  0  0  0
 27 95  1  0  0  0  0
 28 97  1  0  0  0  0
 29 98  1  0  0  0  0
 30 75  2  0  0  0  0
 31 44  1  0  0  0  0
 31 77  1  0  0  0  0
 32 60  1  0  0  0  0
 32 76  2  0  0  0  0
 33 76  1  0  0  0  0
 33 83  1  0  0  0  0
 34 78  1  0  0  0  0
 34 81  1  0  0  0  0
 35 82  1  0  0  0  0
 35 89  2  0  0  0  0
 36 57  1  0  0  0  0
 36 84  1  0  0  0  0
 36 90  2  0  0  0  0
 37 71  1  0  0  0  0
 37 79  1  0  0  0  0
 37 91  2  0  0  0  0
 38 72  1  0  0  0  0
 38 85  1  0  0  0  0
 38 92  2  0  0  0  0
 39 80  1  0  0  0  0
 39 83  1  0  0  0  0
 39 93  2  0  0  0  0
 40 45  1  0  0  0  0
 41 57  1  0  0  0  0
 42 79  1  0  0  0  0
 43 86  1  0  0  0  0
 44 53  1  0  0  0  0
 45 47  1  0  0  0  0
 46 48  1  0  0  0  0
 46 51  1  0  0  0  0
 47 56  1  0  0  0  0
 48 58  1  0  0  0  0
 49 54  1  0  0  0  0
 49 59  1  0  0  0  0
 50 55  1  0  0  0  0
 50 59  1  0  0  0  0
 51 80  1  0  0  0  0
 52 58  1  0  0  0  0
 52 80  1  0  0  0  0
 53 86  1  0  0  0  0
 54 87  1  0  0  0  0
 55 87  1  0  0  0  0
 56 84  1  0  0  0  0
 57 79  1  0  0  0  0
 58 78  1  0  0  0  0
 59 68  1  0  0  0  0
 59 94  1  0  0  0  0
 61 72  1  0  0  0  0
 62 73  1  0  0  0  0
 63 73  1  0  0  0  0
 64 74  1  0  0  0  0
 65 74  1  0  0  0  0
 66 74  1  0  0  0  0
 67 88  1  0  0  0  0
 68 77  1  0  0  0  0
 69 70  1  0  0  0  0
 69 87  1  0  0  0  0
 70 96  1  0  0  0  0
 71 74  1  0  0  0  0
 71 85  1  0  0  0  0
 72 88  1  0  0  0  0
 73 86  1  0  0  0  0
 75 78  1  0  0  0  0
M  CHG  3  86   1  87   1  88   1
M  ISO  4  39 100  70 101  83 100  96 101
M  END
> <Batch ID>
0159

> <Smiles>
CNC(C)C(=O)NC(C(=O)N1Cc2cc([101O:1][101CH2:1]CN3CCC(O)(Cn4c5c(c6cc([100NH:0][100C:0](=O)N7CCCC(n8nc(-c9ccc(Oc%10ccc(F)cc%10F)cc9)c(C(N)=O)c8N)C7)nc(C)c64)CN(C(C)C)CC5)CC3)ccc2CC1C(=O)NC1CCCc2ccccc21)C(C)(C)C

> <Shape>
0.297

> <Color>
0.074

> <Negative vol penalty>
0.000

$$$$

  -OEChem-04052322073D

 93103  0     1  0  0  0  0  0999 V2000
  -24.4850  -38.8931   21.1304 C   0  0  0  0  0  0  0  0  0  0  0  0
  -25.5103  -38.0869   20.6462 C   0  0  0  0  0  0  0  0  0  0  0  0
  -23.4238   -9.5717   20.3878 C   0  0  0  0  0  0  0  0  0  0  0  0
  -23.9803  -10.1200   22.6740 C   0  0  0  0  0  0  0  0  0  0  0  0
  -23.7224  -38.4706   22.2185 C   0  0  0  0  0  0  0  0  0  0  0  0
  -25.7742  -36.8583   21.2506 C   0  0  0  0  0  0  0  0  0  0  0  0
  -28.0504  -30.2463   19.6959 C   0  0  0  0  0  0  0  0  0  0  0  0
  -29.0586  -20.0001   22.1481 C   0  0  0  0  0  0  0  0  0  0  0  0
  -22.8106   -8.3955   20.8191 C   0  0  0  0  0  0  0  0  0  0  0  0
  -23.3671   -8.9437   23.1054 C   0  0  0  0  0  0  0  0  0  0  0  0
  -29.0026  -29.3120   20.1009 C   0  0  0  0  0  0  0  0  0  0  0  0
  -20.2239   -7.8359   23.6652 C   0  0  0  0  0  0  0  0  0  0  0  0
  -19.3815   -7.9150   24.7741 C   0  0  0  0  0  0  0  0  0  0  0  0
  -28.8031  -18.6472   21.9360 C   0  0  0  0  0  0  0  0  0  0  0  0
  -27.5686  -28.6499   21.9242 C   0  0  0  0  0  0  0  0  0  0  0  0
  -33.2794  -25.6808   23.1392 C   0  0  0  0  0  0  0  0  0  0  0  0
  -20.7874   -6.3439   25.9541 C   0  0  0  0  0  0  0  0  0  0  0  0
  -24.0087  -10.4339   21.3153 C   0  0  0  0  0  0  0  0  0  0  0  0
  -24.0429  -12.9127   20.7134 C   0  0  0  0  0  0  0  0  0  0  0  0
  -23.9709  -37.2319   22.8304 C   0  0  0  0  0  0  0  0  0  0  0  0
  -26.8528  -30.3973   20.4096 C   0  0  0  0  0  0  0  0  0  0  0  0
  -25.0151  -36.4195   22.3487 C   0  0  0  0  0  0  0  0  0  0  0  0
  -30.2839  -20.4950   21.7529 C   0  0  0  0  0  0  0  0  0  0  0  0
  -26.6017  -29.5851   21.5247 C   0  0  0  0  0  0  0  0  0  0  0  0
  -32.4648  -26.6771   22.6012 C   0  0  0  0  0  0  0  0  0  0  0  0
  -31.8778  -25.2100   20.7735 C   0  0  0  0  0  0  0  0  0  0  0  0
  -31.7639  -26.4417   21.4184 C   0  0  0  0  0  0  0  0  0  0  0  0
  -32.6925  -24.2138   21.3115 C   0  0  0  0  0  0  0  0  0  0  0  0
  -22.7822   -8.0815   22.1779 C   0  0  0  0  0  0  0  0  0  0  0  0
  -28.7631  -28.5156   21.2169 C   0  0  0  0  0  0  0  0  0  0  0  0
  -21.3480   -7.0107   23.7006 C   0  0  0  0  0  0  0  0  0  0  0  0
  -33.3933  -24.4492   22.4943 C   0  0  0  0  0  0  0  0  0  0  0  0
  -19.6633   -7.1690   25.9186 C   0  0  0  0  0  0  0  0  0  0  0  0
  -21.6298   -6.2648   24.8451 C   0  0  0  0  0  0  0  0  0  0  0  0
  -24.6428  -11.6489   20.8703 C   0  0  0  0  0  0  0  0  0  0  0  0
  -31.2010  -19.6362   21.1590 C   0  0  0  0  0  0  0  0  0  0  0  0
  -29.7898  -17.8661   21.3331 C   0  0  0  0  0  0  0  0  0  0  0  0
  -25.0602  -13.7233   20.2723 C   0  0  0  0  0  0  0  0  0  0  0  0
  -22.6873  -13.3178   20.9458 C   0  0  0  0  0  0  0  0  0  0  0  0
  -25.4901  -32.7692   22.0285 C   0  0  0  0  0  0  0  0  0  0  0  0
  -23.0072  -30.6907   22.2215 C   0  0  0  0  0  0  0  0  0  0  0  0
  -21.9263  -27.4544   22.1556 C   0  0  0  0  0  0  0  0  0  0  0  0
  -30.3195  -15.5297   20.5542 C   0  0  0  0  0  0  0  0  0  0  0  0
  -23.1507  -36.8391   24.0337 C   0  0  0  0  0  0  0  0  0  0  0  0
  -25.8242  -31.3911   19.9440 C   0  0  0  0  0  0  0  0  0  0  0  0
  -25.3231  -29.6939   22.3132 C   0  0  0  0  0  0  0  0  0  0  0  0
  -30.8209  -21.8799   21.8343 C   0  0  0  0  0  0  0  0  0  0  0  0
  -32.4454  -20.3791   20.7815 C   0  0  0  0  0  0  0  0  0  0  0  0
  -23.2508  -35.3561   24.3812 C   0  0  0  0  0  0  0  0  0  0  0  0
  -29.7180  -12.5788   18.6547 C   0  0  0  0  0  0  0  0  0  0  0  0
  -24.7061  -34.8995   24.3586 C   0  0  0  0  0  0  0  0  0  0  0  0
  -28.2947  -12.1778   19.0489 C   0  0  0  0  0  0  0  0  0  0  0  0
  -30.4927  -13.1565   19.8379 C   0  0  0  0  0  0  0  0  0  0  0  0
  -28.4006  -13.8593   20.9326 C   0  0  0  0  0  0  0  0  0  0  0  0
  -25.3158  -35.0691   22.9619 C   0  0  1  0  0  0  0  0  0  0  0  0
  -24.8629  -31.8181   21.0489 C   0  0  1  0  0  0  0  0  0  0  0  0
  -27.5600  -13.3322   19.7583 C   0  0  2  0  0  0  0  0  0  0  0  0
  -32.3615  -27.9872   23.3112 C   0  0  0  0  0  0  0  0  0  0  0  0
  -31.1262  -24.9568   19.5048 C   0  0  0  0  0  0  0  0  0  0  0  0
  -34.2617  -22.5499   20.2336 C   0  0  0  0  0  0  0  0  0  0  0  0
  -19.8473  -26.0670   22.3796 C   0  0  0  0  0  0  0  0  0  0  0  0
  -23.0640  -31.0982   25.2449 C   0  0  0  0  0  0  0  0  0  0  0  0
  -21.6648  -29.0353   25.4792 C   0  0  0  0  0  0  0  0  0  0  0  0
  -20.7725  -31.0120   24.2467 C   0  0  0  0  0  0  0  0  0  0  0  0
  -22.2065  -26.3823   19.4113 C   0  0  0  0  0  0  0  0  0  0  0  0
  -34.8723  -23.8160   24.2458 C   0  0  0  0  0  0  0  0  0  0  0  0
  -30.8879  -27.5151   20.8425 C   0  0  0  0  0  0  0  0  0  1  0  0
  -32.8198  -22.8906   20.6257 C   0  0  1  0  0  0  0  0  0  0  0  0
  -22.5909  -29.6094   23.1892 C   0  0  1  0  0  0  0  0  0  0  0  0
  -20.7769  -26.7911   21.4183 C   0  0  2  0  0  0  0  0  0  0  0  0
  -22.0481  -30.1878   24.5265 C   0  0  0  0  0  0  0  0  0  0  0  0
  -25.9406  -11.6513   20.5543 N   0  0  0  0  0  0  0  0  0  0  0  0
  -30.9977  -18.3289   20.9299 N   0  0  0  0  0  0  0  0  0  0  0  0
  -26.1645  -12.9266   20.1944 N   0  0  0  0  0  0  0  0  0  0  0  0
  -24.3512  -30.6847   21.8221 N   0  0  0  0  0  0  0  0  0  0  0  0
  -29.7378  -14.2479   20.4574 N   0  0  0  0  0  0  0  0  0  0  0  0
  -25.1089  -15.0326   19.9472 N   0  0  0  0  0  0  0  0  0  0  0  0
  -21.7714  -12.3582   21.3981 N   0  0  0  0  0  0  0  0  0  0  0  0
  -29.4953  -16.4948   21.1320 N   0  0  0  0  0  0  0  0  0  0  0  0
  -24.8749  -34.0053   22.0853 N   0  0  0  0  0  0  0  0  0  0  0  0
  -21.6403  -28.7652   22.4737 N   0  0  0  0  0  0  0  0  0  0  0  0
  -32.2925  -21.7466   21.4428 N   0  3  1  0  0  0  0  0  0  0  0  0
  -21.2963  -25.8019   20.4320 N   0  3  0  0  0  0  0  0  0  0  0  0
  -22.2959  -14.4921   20.7422 O   0  0  0  0  0  0  0  0  0  0  0  0
  -26.4596  -32.4079   22.6853 O   0  0  0  0  0  0  0  0  0  0  0  0
  -22.1691  -31.5062   21.8288 O   0  0  0  0  0  0  0  0  0  0  0  0
  -22.9716  -26.8672   22.4258 O   0  0  0  0  0  0  0  0  0  0  0  0
  -31.4543  -15.7611   20.1291 O   0  0  0  0  0  0  0  0  0  0  0  0
  -22.1837   -6.9339   22.5991 O   0  0  0  0  0  0  0  0  0  0  0  0
  -34.1938  -23.4883   23.0349 O   0  0  0  0  0  0  0  0  0  0  0  0
  -29.6911  -27.6033   21.6148 O   0  0  0  0  0  0  0  0  0  1  0  0
  -18.8551   -7.2463   26.9840 F   0  0  0  0  0  0  0  0  0  0  0  0
  -22.7089   -5.4712   24.8855 F   0  0  0  0  0  0  0  0  0  0  0  0
  1  2  1  0  0  0  0
  1  5  2  0  0  0  0
  2  6  2  0  0  0  0
  3  9  2  0  0  0  0
  3 18  1  0  0  0  0
  4 10  1  0  0  0  0
  4 18  2  0  0  0  0
  5 20  1  0  0  0  0
  6 22  1  0  0  0  0
  7 11  2  0  0  0  0
  7 21  1  0  0  0  0
  8 14  2  0  0  0  0
  8 23  1  0  0  0  0
  9 29  1  0  0  0  0
 10 29  2  0  0  0  0
 11 30  1  0  0  0  0
 12 13  2  0  0  0  0
 12 31  1  0  0  0  0
 13 33  1  0  0  0  0
 14 37  1  0  0  0  0
 15 24  1  0  0  0  0
 15 30  2  0  0  0  0
 16 25  2  0  0  0  0
 16 32  1  0  0  0  0
 17 33  2  0  0  0  0
 17 34  1  0  0  0  0
 18 35  1  0  0  0  0
 19 35  1  0  0  0  0
 19 38  2  0  0  0  0
 19 39  1  0  0  0  0
 20 22  2  0  0  0  0
 20 44  1  0  0  0  0
 21 24  2  0  0  0  0
 21 45  1  0  0  0  0
 22 55  1  0  0  0  0
 23 36  2  0  0  0  0
 23 47  1  0  0  0  0
 24 46  1  0  0  0  0
 25 27  1  0  0  0  0
 25 58  1  0  0  0  0
 26 27  2  0  0  0  0
 26 28  1  0  0  0  0
 26 59  1  0  0  0  0
 27 67  1  0  0  0  0
 28 32  2  0  0  0  0
 28 68  1  0  0  0  0
 29 89  1  0  0  0  0
 30 91  1  0  0  0  0
 31 34  2  0  0  0  0
 31 89  1  0  0  0  0
 32 90  1  0  0  0  0
 33 92  1  0  0  0  0
 34 93  1  0  0  0  0
 35 72  2  0  0  0  0
 36 48  1  0  0  0  0
 36 73  1  0  0  0  0
 37 73  2  0  0  0  0
 37 79  1  0  0  0  0
 38 74  1  0  0  0  0
 38 77  1  0  0  0  0
 39 78  1  0  0  0  0
 39 84  2  0  0  0  0
 40 56  1  0  0  0  0
 40 80  1  0  0  0  0
 40 85  2  0  0  0  0
 41 69  1  0  0  0  0
 41 75  1  0  0  0  0
 41 86  2  0  0  0  0
 42 70  1  0  0  0  0
 42 81  1  0  0  0  0
 42 87  2  0  0  0  0
 43 76  1  0  0  0  0
 43 79  1  0  0  0  0
 43 88  2  0  0  0  0
 44 49  1  0  0  0  0
 45 56  1  0  0  0  0
 46 75  1  0  0  0  0
 47 82  1  0  0  0  0
 48 82  1  0  0  0  0
 49 51  1  0  0  0  0
 50 52  1  0  0  0  0
 50 53  1  0  0  0  0
 51 55  1  0  0  0  0
 52 57  1  0  0  0  0
 53 76  1  0  0  0  0
 54 57  1  0  0  0  0
 54 76  1  0  0  0  0
 55 80  1  0  0  0  0
 56 75  1  0  0  0  0
 57 74  1  0  0  0  0
 60 68  1  0  0  0  0
 61 70  1  0  0  0  0
 62 71  1  0  0  0  0
 63 71  1  0  0  0  0
 64 71  1  0  0  0  0
 65 83  1  0  0  0  0
 66 90  1  0  0  0  0
 67 91  1  0  0  0  0
 68 82  1  0  0  0  0
 69 71  1  0  0  0  0
 69 81  1  0  0  0  0
 70 83  1  0  0  0  0
 72 74  1  0  0  0  0
M  CHG  2  82   1  83   1
M  ISO  4  43 100  67 101  79 100  91 101
M  END
> <Batch ID>
0159

> <Smiles>
CNC(C)C(=O)NC(C(=O)N1Cc2cc([101O:1][101CH2:1]c3c(C)cc(OC)c(C(C)N4Cc5ccc([100NH:0][100C:0](=O)N6CCCC(n7nc(-c8ccc(Oc9ccc(F)cc9F)cc8)c(C(N)=O)c7N)C6)nc5C4)c3C)ccc2CC1C(=O)NC1CCCc2ccccc21)C(C)(C)C

> <Shape>
0.338

> <Color>
0.156

> <Negative vol penalty>
0.000

$$$$

  -OEChem-04052322073D

 91100  0     1  0  0  0  0  0999 V2000
  -20.5276  -22.2879   15.4861 C   0  0  0  0  0  0  0  0  0  0  0  0
  -21.5660  -22.3415   16.4104 C   0  0  0  0  0  0  0  0  0  0  0  0
  -23.1044   -9.8597   19.9229 C   0  0  0  0  0  0  0  0  0  0  0  0
  -23.7960   -9.8796   22.2377 C   0  0  0  0  0  0  0  0  0  0  0  0
  -19.7126  -23.4019   15.2897 C   0  0  0  0  0  0  0  0  0  0  0  0
  -21.7906  -23.5096   17.1381 C   0  0  0  0  0  0  0  0  0  0  0  0
  -22.6210  -22.6083   22.0516 C   0  0  0  0  0  0  0  0  0  0  0  0
  -22.3474   -8.7122   20.1589 C   0  0  0  0  0  0  0  0  0  0  0  0
  -23.0390   -8.7321   22.4737 C   0  0  0  0  0  0  0  0  0  0  0  0
  -23.8882  -22.1502   22.4096 C   0  0  0  0  0  0  0  0  0  0  0  0
  -21.0009   -6.0149   23.7704 C   0  0  0  0  0  0  0  0  0  0  0  0
  -20.2101   -5.9837   24.9190 C   0  0  0  0  0  0  0  0  0  0  0  0
  -24.4943  -24.3819   23.0963 C   0  0  0  0  0  0  0  0  0  0  0  0
  -18.9979   -7.9218   24.1370 C   0  0  0  0  0  0  0  0  0  0  0  0
  -23.8287  -10.4434   20.9622 C   0  0  0  0  0  0  0  0  0  0  0  0
  -24.1872  -12.9659   20.8343 C   0  0  0  0  0  0  0  0  0  0  0  0
  -19.9212  -24.5811   16.0222 C   0  0  0  0  0  0  0  0  0  0  0  0
  -22.2841  -23.9610   22.2033 C   0  0  0  0  0  0  0  0  0  0  0  0
  -20.9784  -24.6409   16.9503 C   0  0  0  0  0  0  0  0  0  0  0  0
  -23.2214  -24.8541   22.7418 C   0  0  0  0  0  0  0  0  0  0  0  0
  -27.1953  -20.0067   26.9425 C   0  0  0  0  0  0  0  0  0  0  0  0
  -27.1154  -18.8595   27.7241 C   0  0  0  0  0  0  0  0  0  0  0  0
  -27.2753  -19.8943   25.5589 C   0  0  0  0  0  0  0  0  0  0  0  0
  -22.3146   -8.1484   21.4343 C   0  0  0  0  0  0  0  0  0  0  0  0
  -24.8261  -23.0376   22.9294 C   0  0  0  0  0  0  0  0  0  0  0  0
  -20.7904   -6.9996   22.8052 C   0  0  0  0  0  0  0  0  0  0  0  0
  -19.2086   -6.9371   25.1022 C   0  0  0  0  0  0  0  0  0  0  0  0
  -19.7889   -7.9530   22.9884 C   0  0  0  0  0  0  0  0  0  0  0  0
  -24.6114  -11.6285   20.7189 C   0  0  0  0  0  0  0  0  0  0  0  0
  -27.1190  -17.6334   27.0787 C   0  0  0  0  0  0  0  0  0  0  0  0
  -27.2719  -18.6219   25.0105 C   0  0  0  0  0  0  0  0  0  0  0  0
  -25.2936  -13.7071   20.4982 C   0  0  0  0  0  0  0  0  0  0  0  0
  -22.9076  -13.4911   21.2116 C   0  0  0  0  0  0  0  0  0  0  0  0
  -21.4326  -26.2964   20.2223 C   0  0  0  0  0  0  0  0  0  0  0  0
  -20.9764  -27.9414   22.9805 C   0  0  0  0  0  0  0  0  0  0  0  0
  -21.7319  -28.3198   26.2870 C   0  0  0  0  0  0  0  0  0  0  0  0
  -30.6593  -14.7795   20.6737 C   0  0  0  0  0  0  0  0  0  0  0  0
  -19.0438  -25.7751   15.7412 C   0  0  0  0  0  0  0  0  0  0  0  0
  -20.9040  -24.4341   21.8373 C   0  0  0  0  0  0  0  0  0  0  0  0
  -22.9024  -26.3122   22.9436 C   0  0  0  0  0  0  0  0  0  0  0  0
  -19.1139  -26.8504   16.8225 C   0  0  0  0  0  0  0  0  0  0  0  0
  -29.6934  -12.3287   18.4343 C   0  0  0  0  0  0  0  0  0  0  0  0
  -20.5642  -27.1332   17.2010 C   0  0  0  0  0  0  0  0  0  0  0  0
  -28.2470  -12.0282   18.8268 C   0  0  0  0  0  0  0  0  0  0  0  0
  -29.0085  -17.9463   21.6599 C   0  0  0  0  0  0  0  0  0  0  0  0
  -28.4826  -16.1804   23.3787 C   0  0  0  0  0  0  0  0  0  0  0  0
  -30.5664  -12.5174   19.6697 C   0  0  0  0  0  0  0  0  0  0  0  0
  -30.2364  -17.1439   21.2384 C   0  0  0  0  0  0  0  0  0  0  0  0
  -29.7226  -15.4147   22.9289 C   0  0  0  0  0  0  0  0  0  0  0  0
  -28.6311  -13.2940   20.9991 C   0  0  0  0  0  0  0  0  0  0  0  0
  -21.2382  -25.8818   17.7766 C   0  0  1  0  0  0  0  0  0  0  0  0
  -20.8412  -25.9320   21.5546 C   0  0  1  0  0  0  0  0  0  0  0  0
  -28.6362  -17.6862   23.1253 C   0  0  0  0  0  0  0  0  0  0  0  0
  -27.7002  -13.1012   19.7851 C   0  0  2  0  0  0  0  0  0  0  0  0
  -27.1977  -21.3561   27.5871 C   0  0  0  0  0  0  0  0  0  0  0  0
  -27.0274  -18.9479   29.2109 C   0  0  0  0  0  0  0  0  0  0  0  0
  -27.0351  -16.3661   27.8649 C   0  0  0  0  0  0  0  0  0  0  0  0
  -24.8170  -18.4675   23.1753 C   0  0  0  0  0  0  0  0  0  0  0  0
  -28.6815  -21.1558   23.8968 C   0  0  0  0  0  0  0  0  0  0  0  0
  -21.2312  -29.7768   28.2679 C   0  0  0  0  0  0  0  0  0  0  0  0
  -22.7920  -30.1121   21.8396 C   0  0  0  0  0  0  0  0  0  0  0  0
  -23.0186  -31.0411   24.1535 C   0  0  0  0  0  0  0  0  0  0  0  0
  -20.7803  -30.9670   23.0548 C   0  0  0  0  0  0  0  0  0  0  0  0
  -20.6036  -26.0514   27.8168 C   0  0  0  0  0  0  0  0  0  0  0  0
  -26.1210  -17.7237   22.9135 C   0  0  0  0  0  0  0  0  0  0  0  0
  -26.1669  -21.2403   23.7219 C   0  0  0  0  0  0  0  0  0  1  0  0
  -27.3621  -21.1062   24.6928 C   0  0  1  0  0  0  0  0  0  0  0  0
  -27.3596  -18.4336   23.5033 C   0  0  1  0  0  0  0  0  0  0  0  0
  -21.8382  -28.8161   23.8587 C   0  0  1  0  0  0  0  0  0  0  0  0
  -20.8488  -28.5176   27.5058 C   0  0  2  0  0  0  0  0  0  0  0  0
  -22.1142  -30.2071   23.2212 C   0  0  0  0  0  0  0  0  0  0  0  0
  -25.8875  -11.5232   20.3390 N   0  0  0  0  0  0  0  0  0  0  0  0
  -27.1955  -17.4845   25.7372 N   0  0  0  0  0  0  0  0  0  0  0  0
  -26.2748  -12.8039   20.2127 N   0  0  0  0  0  0  0  0  0  0  0  0
  -21.5418  -26.7277   22.5647 N   0  0  0  0  0  0  0  0  0  0  0  0
  -30.0114  -13.5405   20.5557 N   0  0  0  0  0  0  0  0  0  0  0  0
  -30.0744  -15.7215   21.5361 N   0  0  0  0  0  0  0  0  0  0  0  0
  -25.5131  -15.0370   20.4219 N   0  0  0  0  0  0  0  0  0  0  0  0
  -21.8814  -12.5896   21.5253 N   0  0  0  0  0  0  0  0  0  0  0  0
  -20.8273  -25.6721   19.1483 N   0  0  0  0  0  0  0  0  0  0  0  0
  -21.1724  -28.8747   25.1555 N   0  0  0  0  0  0  0  0  0  0  0  0
  -20.9717  -27.3540   28.4289 N   0  3  0  0  0  0  0  0  0  0  0  0
  -22.6763  -14.7233   21.2531 O   0  0  0  0  0  0  0  0  0  0  0  0
  -22.3678  -27.0867   20.1721 O   0  0  0  0  0  0  0  0  0  0  0  0
  -19.8406  -28.3179   22.6806 O   0  0  0  0  0  0  0  0  0  0  0  0
  -22.8118  -27.7350   26.3348 O   0  0  0  0  0  0  0  0  0  0  0  0
  -31.6943  -15.0329   20.0448 O   0  0  0  0  0  0  0  0  0  0  0  0
  -21.5759   -7.0288   21.6651 O   0  0  0  0  0  0  0  0  0  0  0  0
  -26.0720  -22.5903   23.2813 O   0  0  0  0  0  0  0  0  0  1  0  0
  -18.4482   -6.9061   26.2045 F   0  0  0  0  0  0  0  0  0  0  0  0
  -19.5811   -8.9007   22.0640 F   0  0  0  0  0  0  0  0  0  0  0  0
  1  2  1  0  0  0  0
  1  5  2  0  0  0  0
  2  6  2  0  0  0  0
  3  8  2  0  0  0  0
  3 15  1  0  0  0  0
  4  9  1  0  0  0  0
  4 15  2  0  0  0  0
  5 17  1  0  0  0  0
  6 19  1  0  0  0  0
  7 10  2  0  0  0  0
  7 18  1  0  0  0  0
  8 24  1  0  0  0  0
  9 24  2  0  0  0  0
 10 25  1  0  0  0  0
 11 12  2  0  0  0  0
 11 26  1  0  0  0  0
 12 27  1  0  0  0  0
 13 20  1  0  0  0  0
 13 25  2  0  0  0  0
 14 27  2  0  0  0  0
 14 28  1  0  0  0  0
 15 29  1  0  0  0  0
 16 29  1  0  0  0  0
 16 32  2  0  0  0  0
 16 33  1  0  0  0  0
 17 19  2  0  0  0  0
 17 38  1  0  0  0  0
 18 20  2  0  0  0  0
 18 39  1  0  0  0  0
 19 51  1  0  0  0  0
 20 40  1  0  0  0  0
 21 22  2  0  0  0  0
 21 23  1  0  0  0  0
 21 55  1  0  0  0  0
 22 30  1  0  0  0  0
 22 56  1  0  0  0  0
 23 31  2  0  0  0  0
 23 67  1  0  0  0  0
 24 88  1  0  0  0  0
 25 89  1  0  0  0  0
 26 28  2  0  0  0  0
 26 88  1  0  0  0  0
 27 90  1  0  0  0  0
 28 91  1  0  0  0  0
 29 72  2  0  0  0  0
 30 57  1  0  0  0  0
 30 73  2  0  0  0  0
 31 68  1  0  0  0  0
 31 73  1  0  0  0  0
 32 74  1  0  0  0  0
 32 78  1  0  0  0  0
 33 79  1  0  0  0  0
 33 83  2  0  0  0  0
 34 52  1  0  0  0  0
 34 80  1  0  0  0  0
 34 84  2  0  0  0  0
 35 69  1  0  0  0  0
 35 75  1  0  0  0  0
 35 85  2  0  0  0  0
 36 70  1  0  0  0  0
 36 81  1  0  0  0  0
 36 86  2  0  0  0  0
 37 76  1  0  0  0  0
 37 77  1  0  0  0  0
 37 87  2  0  0  0  0
 38 41  1  0  0  0  0
 39 52  1  0  0  0  0
 40 75  1  0  0  0  0
 41 43  1  0  0  0  0
 42 44  1  0  0  0  0
 42 47  1  0  0  0  0
 43 51  1  0  0  0  0
 44 54  1  0  0  0  0
 45 48  1  0  0  0  0
 45 53  1  0  0  0  0
 46 49  1  0  0  0  0
 46 53  1  0  0  0  0
 47 76  1  0  0  0  0
 48 77  1  0  0  0  0
 49 77  1  0  0  0  0
 50 54  1  0  0  0  0
 50 76  1  0  0  0  0
 51 80  1  0  0  0  0
 52 75  1  0  0  0  0
 53 68  1  0  0  0  0
 54 74  1  0  0  0  0
 58 65  1  0  0  0  0
 59 67  1  0  0  0  0
 60 70  1  0  0  0  0
 61 71  1  0  0  0  0
 62 71  1  0  0  0  0
 63 71  1  0  0  0  0
 64 82  1  0  0  0  0
 65 68  1  0  0  0  0
 66 67  1  0  0  0  0
 66 89  1  0  0  0  0
 69 71  1  0  0  0  0
 69 81  1  0  0  0  0
 70 82  1  0  0  0  0
 72 74  1  0  0  0  0
M  CHG  1  82   1
M  ISO  4  37 100  66 101  77 100  89 101
M  END
> <Batch ID>
0159

> <Smiles>
CCC(c1nc(C)c(C)c(C)c1C(C)[101CH2:1][101O:1]c1ccc2c(c1)CN(C(=O)C(NC(=O)C(C)NC)C(C)(C)C)C(C(=O)NC1CCCc3ccccc31)C2)C1CC[100N:0]([100C:0](=O)N2CCCC(n3nc(-c4ccc(Oc5ccc(F)cc5F)cc4)c(C(N)=O)c3N)C2)CC1

> <Shape>
0.215

> <Color>
0.186

> <Negative vol penalty>
0.000

$$$$

  -OEChem-04052322073D

 86 95  0     1  0  0  0  0  0999 V2000
  -28.1228  -31.2913   27.6209 C   0  0  0  0  0  0  0  0  0  0  0  0
  -28.1635  -30.3119   26.6337 C   0  0  0  0  0  0  0  0  0  0  0  0
  -24.6397  -10.0473   21.7583 C   0  0  0  0  0  0  0  0  0  0  0  0
  -22.8245  -10.3184   23.3295 C   0  0  0  0  0  0  0  0  0  0  0  0
  -26.9028  -31.8554   27.9916 C   0  0  0  0  0  0  0  0  0  0  0  0
  -26.9841  -29.8953   26.0173 C   0  0  0  0  0  0  0  0  0  0  0  0
  -27.4494  -29.5150   20.9890 C   0  0  0  0  0  0  0  0  0  0  0  0
  -24.7543   -8.7057   22.1222 C   0  0  0  0  0  0  0  0  0  0  0  0
  -22.9391   -8.9767   23.6934 C   0  0  0  0  0  0  0  0  0  0  0  0
  -28.0990  -28.3853   20.4933 C   0  0  0  0  0  0  0  0  0  0  0  0
  -22.5148   -5.5322   24.7765 C   0  0  0  0  0  0  0  0  0  0  0  0
  -21.3406   -4.7882   24.8919 C   0  0  0  0  0  0  0  0  0  0  0  0
  -25.9621  -27.3802   20.0006 C   0  0  0  0  0  0  0  0  0  0  0  0
  -30.4810  -24.9669   17.6600 C   0  0  0  0  0  0  0  0  0  0  0  0
  -29.8623  -23.7590   19.6587 C   0  0  0  0  0  0  0  0  0  0  0  0
  -20.8346   -5.2267   22.5705 C   0  0  0  0  0  0  0  0  0  0  0  0
  -23.6748  -10.8537   22.3620 C   0  0  0  0  0  0  0  0  0  0  0  0
  -22.7518  -12.7782   20.9648 C   0  0  0  0  0  0  0  0  0  0  0  0
  -25.7090  -31.4524   27.3727 C   0  0  0  0  0  0  0  0  0  0  0  0
  -26.0488  -29.5813   21.0043 C   0  0  0  0  0  0  0  0  0  0  0  0
  -25.7469  -30.4536   26.3811 C   0  0  0  0  0  0  0  0  0  0  0  0
  -25.2972  -28.5129   20.4946 C   0  0  0  0  0  0  0  0  0  0  0  0
  -29.9305  -24.9534   18.9415 C   0  0  0  0  0  0  0  0  0  0  0  0
  -30.9631  -23.7860   17.0955 C   0  0  0  0  0  0  0  0  0  0  0  0
  -30.8949  -22.5916   17.8127 C   0  0  0  0  0  0  0  0  0  0  0  0
  -30.3445  -22.5780   19.0943 C   0  0  0  0  0  0  0  0  0  0  0  0
  -23.9040   -8.1704   23.0897 C   0  0  0  0  0  0  0  0  0  0  0  0
  -27.3553  -27.3165   20.0017 C   0  0  0  0  0  0  0  0  0  0  0  0
  -22.8489   -6.1235   23.5581 C   0  0  0  0  0  0  0  0  0  0  0  0
  -20.5005   -4.6354   23.7889 C   0  0  0  0  0  0  0  0  0  0  0  0
  -22.0088   -5.9707   22.4551 C   0  0  0  0  0  0  0  0  0  0  0  0
  -23.5563  -12.2399   21.9869 C   0  0  0  0  0  0  0  0  0  0  0  0
  -22.9940  -14.1293   21.0128 C   0  0  0  0  0  0  0  0  0  0  0  0
  -21.8647  -12.1161   20.0535 C   0  0  0  0  0  0  0  0  0  0  0  0
  -23.8402  -29.8449   23.2751 C   0  0  0  0  0  0  0  0  0  0  0  0
  -21.8276  -30.1027   20.7443 C   0  0  0  0  0  0  0  0  0  0  0  0
  -21.2193  -29.4570   17.4488 C   0  0  0  0  0  0  0  0  0  0  0  0
  -26.2333  -18.3944   21.3610 C   0  0  0  0  0  0  0  0  0  0  0  0
  -24.4089  -32.0571   27.8402 C   0  0  0  0  0  0  0  0  0  0  0  0
  -25.3636  -30.8180   21.5177 C   0  0  0  0  0  0  0  0  0  0  0  0
  -23.7916  -28.5430   20.4699 C   0  0  0  0  0  0  0  0  0  0  0  0
  -23.2488  -31.8284   26.8748 C   0  0  0  0  0  0  0  0  0  0  0  0
  -25.4169  -16.9319   24.4470 C   0  0  0  0  0  0  0  0  0  0  0  0
  -23.2097  -30.3721   26.4226 C   0  0  0  0  0  0  0  0  0  0  0  0
  -24.7897  -15.6115   24.0005 C   0  0  0  0  0  0  0  0  0  0  0  0
  -29.4770  -19.7590   21.4301 C   0  0  0  0  0  0  0  0  0  0  0  0
  -27.8605  -21.1937   20.1277 C   0  0  0  0  0  0  0  0  0  0  0  0
  -26.6431  -17.2965   23.6082 C   0  0  0  0  0  0  0  0  0  0  0  0
  -28.3399  -19.3699   22.3794 C   0  0  0  0  0  0  0  0  0  0  0  0
  -26.7661  -20.8001   21.1158 C   0  0  0  0  0  0  0  0  0  0  0  0
  -25.7636  -15.9866   21.7032 C   0  0  0  0  0  0  0  0  0  0  0  0
  -24.4920  -29.9930   25.6718 C   0  0  1  0  0  0  0  0  0  0  0  0
  -23.9254  -30.5647   21.9589 C   0  0  1  0  0  0  0  0  0  0  0  0
  -24.4948  -15.6230   22.4900 C   0  0  1  0  0  0  0  0  0  0  0  0
  -29.2361  -21.1313   20.7968 C   0  0  0  0  0  0  0  0  0  0  0  0
  -31.5475  -23.8278   15.7215 C   0  0  0  0  0  0  0  0  0  0  0  0
  -31.4126  -21.3268   17.2031 C   0  0  0  0  0  0  0  0  0  0  0  0
  -19.4719  -29.7562   15.6728 C   0  0  0  0  0  0  0  0  0  0  0  0
  -20.1974  -27.8330   21.9692 C   0  0  0  0  0  0  0  0  0  0  0  0
  -19.0662  -27.5435   19.7545 C   0  0  0  0  0  0  0  0  0  0  0  0
  -18.8336  -29.6920   21.0005 C   0  0  0  0  0  0  0  0  0  0  0  0
  -23.0322  -31.0939   15.7776 C   0  0  0  0  0  0  0  0  0  0  0  0
  -29.4132  -26.2158   19.5439 C   0  0  0  0  0  0  0  0  0  1  0  0
  -21.0398  -29.1292   19.9013 C   0  0  1  0  0  0  0  0  0  0  0  0
  -20.7136  -30.3438   16.3253 C   0  0  2  0  0  0  0  0  0  0  0  0
  -19.8126  -28.5477   20.6585 C   0  0  0  0  0  0  0  0  0  0  0  0
  -24.2574  -13.1728   22.6366 N   0  0  0  0  0  0  0  0  0  0  0  0
  -23.8941  -14.3110   22.0212 N   0  0  0  0  0  0  0  0  0  0  0  0
  -23.1679  -29.7715   20.9887 N   0  0  0  0  0  0  0  0  0  0  0  0
  -26.3238  -17.2549   22.1743 N   0  0  0  0  0  0  0  0  0  0  0  0
  -27.0375  -19.4900   21.7086 N   0  0  0  0  0  0  0  0  0  0  0  0
  -22.5228  -15.1677   20.2903 N   0  0  0  0  0  0  0  0  0  0  0  0
  -21.7338  -10.7234   20.1415 N   0  0  0  0  0  0  0  0  0  0  0  0
  -30.2691  -21.4035   19.8218 N   0  0  0  0  0  0  0  0  0  0  0  0
  -24.4566  -30.5073   24.3195 N   0  0  0  0  0  0  0  0  0  0  0  0
  -20.7026  -29.8352   18.6700 N   0  0  0  0  0  0  0  0  0  0  0  0
  -21.7631  -30.5039   15.2794 N   0  3  0  0  0  0  0  0  0  0  0  0
  -21.2200  -12.7391   19.1761 O   0  0  0  0  0  0  0  0  0  0  0  0
  -23.2571  -28.7690   23.3387 O   0  0  0  0  0  0  0  0  0  0  0  0
  -21.2762  -31.1231   21.1642 O   0  0  0  0  0  0  0  0  0  0  0  0
  -21.9923  -28.5200   17.2614 O   0  0  0  0  0  0  0  0  0  0  0  0
  -25.4784  -18.4309   20.3812 O   0  0  0  0  0  0  0  0  0  0  0  0
  -24.0154   -6.8612   23.4449 O   0  0  0  0  0  0  0  0  0  0  0  0
  -27.9912  -26.2048   19.5145 O   0  0  0  0  0  0  0  0  0  1  0  0
  -19.3737   -3.9196   23.8995 F   0  0  0  0  0  0  0  0  0  0  0  0
  -22.3251   -6.5354   21.2817 F   0  0  0  0  0  0  0  0  0  0  0  0
  1  2  1  0  0  0  0
  1  5  2  0  0  0  0
  2  6  2  0  0  0  0
  3  8  2  0  0  0  0
  3 17  1  0  0  0  0
  4  9  1  0  0  0  0
  4 17  2  0  0  0  0
  5 19  1  0  0  0  0
  6 21  1  0  0  0  0
  7 10  2  0  0  0  0
  7 20  1  0  0  0  0
  8 27  1  0  0  0  0
  9 27  2  0  0  0  0
 10 28  1  0  0  0  0
 11 12  2  0  0  0  0
 11 29  1  0  0  0  0
 12 30  1  0  0  0  0
 13 22  1  0  0  0  0
 13 28  2  0  0  0  0
 14 23  1  0  0  0  0
 14 24  2  0  0  0  0
 15 23  2  0  0  0  0
 15 26  1  0  0  0  0
 16 30  2  0  0  0  0
 16 31  1  0  0  0  0
 17 32  1  0  0  0  0
 18 32  1  0  0  0  0
 18 33  2  0  0  0  0
 18 34  1  0  0  0  0
 19 21  2  0  0  0  0
 19 39  1  0  0  0  0
 20 22  2  0  0  0  0
 20 40  1  0  0  0  0
 21 52  1  0  0  0  0
 22 41  1  0  0  0  0
 23 63  1  0  0  0  0
 24 25  1  0  0  0  0
 24 56  1  0  0  0  0
 25 26  2  0  0  0  0
 25 57  1  0  0  0  0
 26 74  1  0  0  0  0
 27 83  1  0  0  0  0
 28 84  1  0  0  0  0
 29 31  2  0  0  0  0
 29 83  1  0  0  0  0
 30 85  1  0  0  0  0
 31 86  1  0  0  0  0
 32 67  2  0  0  0  0
 33 68  1  0  0  0  0
 33 72  1  0  0  0  0
 34 73  1  0  0  0  0
 34 78  2  0  0  0  0
 35 53  1  0  0  0  0
 35 75  1  0  0  0  0
 35 79  2  0  0  0  0
 36 64  1  0  0  0  0
 36 69  1  0  0  0  0
 36 80  2  0  0  0  0
 37 65  1  0  0  0  0
 37 76  1  0  0  0  0
 37 81  2  0  0  0  0
 38 70  1  0  0  0  0
 38 71  1  0  0  0  0
 38 82  2  0  0  0  0
 39 42  1  0  0  0  0
 40 53  1  0  0  0  0
 41 69  1  0  0  0  0
 42 44  1  0  0  0  0
 43 45  1  0  0  0  0
 43 48  1  0  0  0  0
 44 52  1  0  0  0  0
 45 54  1  0  0  0  0
 46 49  1  0  0  0  0
 46 55  1  0  0  0  0
 47 50  1  0  0  0  0
 47 55  1  0  0  0  0
 48 70  1  0  0  0  0
 49 71  1  0  0  0  0
 50 71  1  0  0  0  0
 51 54  1  0  0  0  0
 51 70  1  0  0  0  0
 52 75  1  0  0  0  0
 53 69  1  0  0  0  0
 54 68  1  0  0  0  0
 55 74  1  0  0  0  0
 58 65  1  0  0  0  0
 59 66  1  0  0  0  0
 60 66  1  0  0  0  0
 61 66  1  0  0  0  0
 62 77  1  0  0  0  0
 63 84  1  0  0  0  0
 64 66  1  0  0  0  0
 64 76  1  0  0  0  0
 65 77  1  0  0  0  0
 67 68  1  0  0  0  0
M  CHG  1  77   1
M  ISO  4  38 100  63 101  71 100  84 101
M  END
> <Batch ID>
0159

> <Smiles>
CNC(C)C(=O)NC(C(=O)N1Cc2cc([101O:1][101CH2:1]c3cc(C)c(C)c(NC4CC[100N:0]([100C:0](=O)N5CCCC(n6nc(-c7ccc(Oc8ccc(F)cc8F)cc7)c(C(N)=O)c6N)C5)CC4)c3)ccc2CC1C(=O)NC1CCCc2ccccc21)C(C)(C)C

> <Shape>
0.278

> <Color>
0.087

> <Negative vol penalty>
0.000

$$$$

  -OEChem-04052322073D

 89 99  0     1  0  0  0  0  0999 V2000
  -32.2447  -14.7898   20.6570 C   0  0  0  0  0  0  0  0  0  0  0  0
  -31.3746  -15.8585   20.8475 C   0  0  0  0  0  0  0  0  0  0  0  0
  -26.4146  -28.9345   18.3138 C   0  0  0  0  0  0  0  0  0  0  0  0
  -27.5997  -28.2063   20.2893 C   0  0  0  0  0  0  0  0  0  0  0  0
  -31.7544  -13.5652   20.2057 C   0  0  0  0  0  0  0  0  0  0  0  0
  -30.0138  -15.7034   20.5855 C   0  0  0  0  0  0  0  0  0  0  0  0
  -27.0974  -17.6936   24.2158 C   0  0  0  0  0  0  0  0  0  0  0  0
  -27.4928  -28.5400   17.5216 C   0  0  0  0  0  0  0  0  0  0  0  0
  -28.6778  -27.8117   19.4971 C   0  0  0  0  0  0  0  0  0  0  0  0
  -26.9329  -19.0780   24.2129 C   0  0  0  0  0  0  0  0  0  0  0  0
  -31.5958  -26.2808   17.9609 C   0  0  0  0  0  0  0  0  0  0  0  0
  -32.1752  -25.0397   18.2244 C   0  0  0  0  0  0  0  0  0  0  0  0
  -24.7853  -18.8144   23.1462 C   0  0  0  0  0  0  0  0  0  0  0  0
  -30.0632  -23.9575   17.7712 C   0  0  0  0  0  0  0  0  0  0  0  0
  -26.4681  -28.7677   19.6977 C   0  0  0  0  0  0  0  0  0  0  0  0
  -24.2461  -28.3947   20.8941 C   0  0  0  0  0  0  0  0  0  0  0  0
  -30.3855  -13.3922   19.9473 C   0  0  0  0  0  0  0  0  0  0  0  0
  -26.1104  -16.8583   23.6732 C   0  0  0  0  0  0  0  0  0  0  0  0
  -29.5050  -14.4757   20.1290 C   0  0  0  0  0  0  0  0  0  0  0  0
  -24.9387  -17.4195   23.1458 C   0  0  0  0  0  0  0  0  0  0  0  0
  -28.6243  -27.9785   18.1132 C   0  0  0  0  0  0  0  0  0  0  0  0
  -25.7780  -19.6388   23.6754 C   0  0  0  0  0  0  0  0  0  0  0  0
  -30.2500  -26.3603   17.6026 C   0  0  0  0  0  0  0  0  0  0  0  0
  -31.4089  -23.8780   18.1296 C   0  0  0  0  0  0  0  0  0  0  0  0
  -29.4837  -25.1986   17.5077 C   0  0  0  0  0  0  0  0  0  0  0  0
  -25.3550  -29.1756   20.5166 C   0  0  0  0  0  0  0  0  0  0  0  0
  -23.4804  -29.2353   21.6644 C   0  0  0  0  0  0  0  0  0  0  0  0
  -25.3223  -26.2173   24.8522 C   0  0  0  0  0  0  0  0  0  0  0  0
  -28.1742  -25.9011   23.5375 C   0  0  0  0  0  0  0  0  0  0  0  0
  -25.5419  -25.0134   24.3771 C   0  0  0  0  0  0  0  0  0  0  0  0
  -27.5702  -24.7386   23.2037 C   0  0  0  0  0  0  0  0  0  0  0  0
  -26.4946  -27.0749   25.1862 C   0  0  0  0  0  0  0  0  0  0  0  0
  -23.9361  -27.0312   20.5769 C   0  0  0  0  0  0  0  0  0  0  0  0
  -26.0047  -14.7762   21.2738 C   0  0  0  0  0  0  0  0  0  0  0  0
  -23.0370  -14.1773   22.4385 C   0  0  0  0  0  0  0  0  0  0  0  0
  -20.3491  -15.2831   24.2272 C   0  0  0  0  0  0  0  0  0  0  0  0
  -26.5243  -31.7205   24.8774 C   0  0  0  0  0  0  0  0  0  0  0  0
  -29.9093  -12.0635   19.4156 C   0  0  0  0  0  0  0  0  0  0  0  0
  -26.2911  -15.3655   23.7082 C   0  0  0  0  0  0  0  0  0  0  0  0
  -23.8400  -16.5655   22.5695 C   0  0  0  0  0  0  0  0  0  0  0  0
  -28.3984  -11.8721   19.5193 C   0  0  0  0  0  0  0  0  0  0  0  0
  -25.5720  -33.3607   21.8491 C   0  0  0  0  0  0  0  0  0  0  0  0
  -25.4003  -31.1253   28.2733 C   0  0  0  0  0  0  0  0  0  0  0  0
  -27.6675  -13.1160   19.0241 C   0  0  0  0  0  0  0  0  0  0  0  0
  -24.1214  -32.9502   21.6220 C   0  0  0  0  0  0  0  0  0  0  0  0
  -26.3555  -29.9490   28.1291 C   0  0  0  0  0  0  0  0  0  0  0  0
  -25.8555  -33.5274   23.3340 C   0  0  0  0  0  0  0  0  0  0  0  0
  -24.9454  -31.3614   26.8414 C   0  0  0  0  0  0  0  0  0  0  0  0
  -24.1711  -31.7878   23.9018 C   0  0  0  0  0  0  0  0  0  0  0  0
  -28.0186  -14.3394   19.8794 C   0  0  1  0  0  0  0  0  0  0  0  0
  -27.9515  -26.6836   24.8193 C   0  0  1  0  0  0  0  0  0  0  0  0
  -26.5795  -24.0973   24.0770 C   0  0  2  0  0  0  0  0  0  0  0  0
  -25.0614  -23.8690   23.7256 C   0  0  1  0  0  0  0  0  0  0  0  0
  -25.4510  -14.6372   22.6637 C   0  0  1  0  0  0  0  0  0  0  0  0
  -23.7311  -31.6973   22.4223 C   0  0  2  0  0  0  0  0  0  0  0  0
  -27.0735  -30.2391   26.8082 C   0  0  1  0  0  0  0  0  0  0  0  0
  -27.9003  -24.0234   21.9250 C   0  0  0  0  0  0  0  0  0  0  0  0
  -28.6327  -26.0292   26.0222 C   0  0  0  0  0  0  0  0  0  0  0  0
  -18.0576  -14.5842   24.9743 C   0  0  0  0  0  0  0  0  0  0  0  0
  -21.9663  -14.6925   19.6281 C   0  0  0  0  0  0  0  0  0  0  0  0
  -19.6777  -14.9210   20.6173 C   0  0  0  0  0  0  0  0  0  0  0  0
  -20.9075  -12.7593   20.8097 C   0  0  0  0  0  0  0  0  0  0  0  0
  -21.0908  -15.4908   27.0848 C   0  0  0  0  0  0  0  0  0  0  0  0
  -24.2729  -22.8399   24.4535 C   0  0  0  0  0  0  0  0  0  0  0  0
  -27.4811  -28.9595   26.0891 C   0  0  0  0  0  0  0  0  0  0  0  0
  -24.2800  -21.4844   23.7487 C   0  0  0  0  0  0  0  0  0  1  0  0
  -21.6579  -14.7394   22.1911 C   0  0  1  0  0  0  0  0  0  0  0  0
  -19.5355  -14.6302   25.3301 C   0  0  2  0  0  0  0  0  0  0  0  0
  -21.0737  -14.2945   20.8206 C   0  0  0  0  0  0  0  0  0  0  0  0
  -25.3021  -30.4170   21.0066 N   0  0  0  0  0  0  0  0  0  0  0  0
  -26.2809  -28.1807   25.8002 N   0  0  0  0  0  0  0  0  0  0  0  0
  -24.1508  -30.4226   21.6998 N   0  0  0  0  0  0  0  0  0  0  0  0
  -24.0663  -15.1117   22.6211 N   0  0  0  0  0  0  0  0  0  0  0  0
  -25.5280  -32.3201   24.0926 N   0  0  0  0  0  0  0  0  0  0  0  0
  -26.1229  -31.0443   26.0318 N   0  0  0  0  0  0  0  0  0  0  0  0
  -22.3057  -29.0675   22.3080 N   0  0  0  0  0  0  0  0  0  0  0  0
  -24.8315  -26.3119   19.7737 N   0  0  0  0  0  0  0  0  0  0  0  0
  -27.2957  -14.3041   21.1327 N   0  0  0  0  0  0  0  0  0  0  0  0
  -20.8470  -14.3521   23.3404 N   0  0  0  0  0  0  0  0  0  0  0  0
  -19.6888  -15.3874   26.6045 N   0  3  0  0  0  0  0  0  0  0  0  0
  -22.8878  -26.4725   20.9798 O   0  0  0  0  0  0  0  0  0  0  0  0
  -25.3114  -15.2734   20.3941 O   0  0  0  0  0  0  0  0  0  0  0  0
  -23.1938  -12.9544   22.4757 O   0  0  0  0  0  0  0  0  0  0  0  0
  -20.5223  -16.4978   24.1573 O   0  0  0  0  0  0  0  0  0  0  0  0
  -27.7205  -31.7943   24.5663 O   0  0  0  0  0  0  0  0  0  0  0  0
  -29.6764  -27.5932   17.3405 O   0  0  0  0  0  0  0  0  0  0  0  0
  -25.6139  -20.9995   23.6706 O   0  0  0  0  0  0  0  0  0  1  0  0
  -31.9658  -22.6861   18.3811 F   0  0  0  0  0  0  0  0  0  0  0  0
  -28.1907  -25.2686   17.1628 F   0  0  0  0  0  0  0  0  0  0  0  0
  1  2  1  0  0  0  0
  1  5  2  0  0  0  0
  2  6  2  0  0  0  0
  3  8  2  0  0  0  0
  3 15  1  0  0  0  0
  4  9  1  0  0  0  0
  4 15  2  0  0  0  0
  5 17  1  0  0  0  0
  6 19  1  0  0  0  0
  7 10  2  0  0  0  0
  7 18  1  0  0  0  0
  8 21  1  0  0  0  0
  9 21  2  0  0  0  0
 10 22  1  0  0  0  0
 11 12  2  0  0  0  0
 11 23  1  0  0  0  0
 12 24  1  0  0  0  0
 13 20  1  0  0  0  0
 13 22  2  0  0  0  0
 14 24  2  0  0  0  0
 14 25  1  0  0  0  0
 15 26  1  0  0  0  0
 16 26  1  0  0  0  0
 16 27  2  0  0  0  0
 16 33  1  0  0  0  0
 17 19  2  0  0  0  0
 17 38  1  0  0  0  0
 18 20  2  0  0  0  0
 18 39  1  0  0  0  0
 19 50  1  0  0  0  0
 20 40  1  0  0  0  0
 21 86  1  0  0  0  0
 22 87  1  0  0  0  0
 23 25  2  0  0  0  0
 23 86  1  0  0  0  0
 24 88  1  0  0  0  0
 25 89  1  0  0  0  0
 26 70  2  0  0  0  0
 27 72  1  0  0  0  0
 27 76  1  0  0  0  0
 28 30  2  0  0  0  0
 28 32  1  0  0  0  0
 29 31  2  0  0  0  0
 29 51  1  0  0  0  0
 30 52  1  0  0  0  0
 30 53  1  0  0  0  0
 31 52  1  0  0  0  0
 31 57  1  0  0  0  0
 32 51  1  0  0  0  0
 32 71  2  0  0  0  0
 33 77  1  0  0  0  0
 33 81  2  0  0  0  0
 34 54  1  0  0  0  0
 34 78  1  0  0  0  0
 34 82  2  0  0  0  0
 35 67  1  0  0  0  0
 35 73  1  0  0  0  0
 35 83  2  0  0  0  0
 36 68  1  0  0  0  0
 36 79  1  0  0  0  0
 36 84  2  0  0  0  0
 37 74  1  0  0  0  0
 37 75  1  0  0  0  0
 37 85  2  0  0  0  0
 38 41  1  0  0  0  0
 39 54  1  0  0  0  0
 40 73  1  0  0  0  0
 41 44  1  0  0  0  0
 42 45  1  0  0  0  0
 42 47  1  0  0  0  0
 43 46  1  0  0  0  0
 43 48  1  0  0  0  0
 44 50  1  0  0  0  0
 45 55  1  0  0  0  0
 46 56  1  0  0  0  0
 47 74  1  0  0  0  0
 48 75  1  0  0  0  0
 49 55  1  0  0  0  0
 49 74  1  0  0  0  0
 50 78  1  0  0  0  0
 51 58  1  0  0  0  0
 52 53  1  0  0  0  0
 53 64  1  0  0  0  0
 54 73  1  0  0  0  0
 55 72  1  0  0  0  0
 56 65  1  0  0  0  0
 56 75  1  0  0  0  0
 59 68  1  0  0  0  0
 60 69  1  0  0  0  0
 61 69  1  0  0  0  0
 62 69  1  0  0  0  0
 63 80  1  0  0  0  0
 64 66  1  0  0  0  0
 65 71  1  0  0  0  0
 66 87  1  0  0  0  0
 67 69  1  0  0  0  0
 67 79  1  0  0  0  0
 68 80  1  0  0  0  0
 70 72  1  0  0  0  0
M  CHG  1  80   1
M  ISO  4  37 100  66 101  75 100  87 101
M  END
> <Batch ID>
0159

> <Smiles>
CNC(C)C(=O)NC(C(=O)N1Cc2cc([101O:1][101CH2:1]CC3C4=C3C(C)=CC(C)=C(NCC3CCC[100N:0]3[100C:0](=O)N3CCCC(n5nc(-c6ccc(Oc7ccc(F)cc7F)cc6)c(C(N)=O)c5N)C3)C4)ccc2CC1C(=O)NC1CCCc2ccccc21)C(C)(C)C

> <Shape>
0.230

> <Color>
0.058

> <Negative vol penalty>
0.000

$$$$

  -OEChem-04052322073D

 85 94  0     1  0  0  0  0  0999 V2000
  -26.1081  -35.8390   15.8559 C   0  0  0  0  0  0  0  0  0  0  0  0
  -26.2749  -34.4591   15.7964 C   0  0  0  0  0  0  0  0  0  0  0  0
  -22.8712  -17.3025   19.5605 C   0  0  0  0  0  0  0  0  0  0  0  0
  -22.1234  -15.0905   20.1808 C   0  0  0  0  0  0  0  0  0  0  0  0
  -26.2809  -36.5093   17.0662 C   0  0  0  0  0  0  0  0  0  0  0  0
  -26.6157  -33.7488   16.9469 C   0  0  0  0  0  0  0  0  0  0  0  0
  -24.8175  -28.0904   18.4483 C   0  0  0  0  0  0  0  0  0  0  0  0
  -21.7375  -17.4623   18.7637 C   0  0  0  0  0  0  0  0  0  0  0  0
  -20.9897  -15.2503   19.3841 C   0  0  0  0  0  0  0  0  0  0  0  0
  -25.4368  -26.8470   18.3299 C   0  0  0  0  0  0  0  0  0  0  0  0
  -18.4676  -18.2019   19.2039 C   0  0  0  0  0  0  0  0  0  0  0  0
  -17.7788  -19.4115   19.2918 C   0  0  0  0  0  0  0  0  0  0  0  0
  -26.1973  -27.0150   20.6130 C   0  0  0  0  0  0  0  0  0  0  0  0
  -27.7009  -22.1716   20.8585 C   0  0  0  0  0  0  0  0  0  0  0  0
  -18.1693  -19.8048   16.9402 C   0  0  0  0  0  0  0  0  0  0  0  0
  -23.0642  -16.1166   20.2690 C   0  0  0  0  0  0  0  0  0  0  0  0
  -24.3729  -16.2854   22.4522 C   0  0  0  0  0  0  0  0  0  0  0  0
  -26.6146  -35.8057   18.2342 C   0  0  0  0  0  0  0  0  0  0  0  0
  -24.8928  -28.8116   19.6486 C   0  0  0  0  0  0  0  0  0  0  0  0
  -26.7945  -34.4105   18.1737 C   0  0  0  0  0  0  0  0  0  0  0  0
  -25.5759  -28.2662   20.7449 C   0  0  0  0  0  0  0  0  0  0  0  0
  -29.2435  -20.9133   19.5088 C   0  0  0  0  0  0  0  0  0  0  0  0
  -28.3091  -20.9632   20.5373 C   0  0  0  0  0  0  0  0  0  0  0  0
  -20.7968  -16.4363   18.6755 C   0  0  0  0  0  0  0  0  0  0  0  0
  -26.1293  -26.3104   19.4114 C   0  0  0  0  0  0  0  0  0  0  0  0
  -19.0074  -17.7936   17.9841 C   0  0  0  0  0  0  0  0  0  0  0  0
  -17.6296  -20.2130   18.1600 C   0  0  0  0  0  0  0  0  0  0  0  0
  -18.8582  -18.5951   16.8523 C   0  0  0  0  0  0  0  0  0  0  0  0
  -24.2353  -15.9506   21.0918 C   0  0  0  0  0  0  0  0  0  0  0  0
  -28.0589  -23.2925   20.1269 C   0  0  0  0  0  0  0  0  0  0  0  0
  -29.5323  -22.0905   18.8375 C   0  0  0  0  0  0  0  0  0  0  0  0
  -25.6640  -15.9352   22.7632 C   0  0  0  0  0  0  0  0  0  0  0  0
  -23.4188  -16.8614   23.3542 C   0  0  0  0  0  0  0  0  0  0  0  0
  -26.0951  -31.6277   20.5017 C   0  0  0  0  0  0  0  0  0  0  0  0
  -24.6852  -30.9319   23.3390 C   0  0  0  0  0  0  0  0  0  0  0  0
  -23.4939  -28.5525   25.4758 C   0  0  0  0  0  0  0  0  0  0  0  0
  -30.6312  -15.4004   19.6976 C   0  0  0  0  0  0  0  0  0  0  0  0
  -26.8373  -36.5797   19.5093 C   0  0  0  0  0  0  0  0  0  0  0  0
  -24.1967  -30.1396   19.7687 C   0  0  0  0  0  0  0  0  0  0  0  0
  -25.6691  -28.9913   22.0618 C   0  0  0  0  0  0  0  0  0  0  0  0
  -26.8308  -35.7061   20.7611 C   0  0  0  0  0  0  0  0  0  0  0  0
  -29.1291  -12.8833   21.5304 C   0  0  0  0  0  0  0  0  0  0  0  0
  -27.6891  -34.4630   20.5491 C   0  0  0  0  0  0  0  0  0  0  0  0
  -27.7119  -13.4051   21.7676 C   0  0  0  0  0  0  0  0  0  0  0  0
  -30.7691  -19.0499   20.2956 C   0  0  0  0  0  0  0  0  0  0  0  0
  -28.9202  -18.5554   18.6409 C   0  0  0  0  0  0  0  0  0  0  0  0
  -29.5938  -13.1895   20.1111 C   0  0  0  0  0  0  0  0  0  0  0  0
  -31.4291  -17.7257   19.9187 C   0  0  0  0  0  0  0  0  0  0  0  0
  -29.6223  -17.2442   18.3002 C   0  0  0  0  0  0  0  0  0  0  0  0
  -28.1239  -15.1741   19.9886 C   0  0  0  0  0  0  0  0  0  0  0  0
  -29.9253  -19.6098   19.1374 C   0  0  0  0  0  0  0  0  0  0  0  0
  -27.1398  -33.6019   19.4053 C   0  0  1  0  0  0  0  0  0  0  0  0
  -24.7731  -31.0185   20.8744 C   0  0  1  0  0  0  0  0  0  0  0  0
  -27.6076  -14.8994   21.4151 C   0  0  1  0  0  0  0  0  0  0  0  0
  -27.9407  -19.7381   21.3070 C   0  0  0  0  0  0  0  0  0  0  0  0
  -30.5287  -22.1002   17.7246 C   0  0  0  0  0  0  0  0  0  0  0  0
  -22.4349  -28.2864   27.7352 C   0  0  0  0  0  0  0  0  0  0  0  0
  -27.3889  -31.4305   24.6623 C   0  0  0  0  0  0  0  0  0  0  0  0
  -26.5307  -30.2541   26.6989 C   0  0  0  0  0  0  0  0  0  0  0  0
  -25.4292  -32.3502   25.9145 C   0  0  0  0  0  0  0  0  0  0  0  0
  -21.0618  -27.3249   24.3197 C   0  0  0  0  0  0  0  0  0  0  0  0
  -27.4276  -24.6067   20.4448 C   0  0  0  0  0  0  0  0  0  1  0  0
  -25.1117  -30.2155   24.5975 C   0  0  1  0  0  0  0  0  0  0  0  0
  -22.1883  -28.4509   26.2436 C   0  0  2  0  0  0  0  0  0  0  0  0
  -26.1152  -31.0495   25.4430 C   0  0  0  0  0  0  0  0  0  0  0  0
  -25.3502  -15.4280   20.5741 N   0  0  0  0  0  0  0  0  0  0  0  0
  -28.9622  -23.2831   19.1211 N   0  0  0  0  0  0  0  0  0  0  0  0
  -26.2006  -15.4319   21.6147 N   0  0  0  0  0  0  0  0  0  0  0  0
  -24.9772  -30.2892   22.1276 N   0  0  0  0  0  0  0  0  0  0  0  0
  -29.4732  -14.6165   19.8134 N   0  0  0  0  0  0  0  0  0  0  0  0
  -30.4479  -16.7644   19.4169 N   0  0  0  0  0  0  0  0  0  0  0  0
  -26.3814  -16.0119   23.9042 N   0  0  0  0  0  0  0  0  0  0  0  0
  -22.1376  -17.1597   22.8706 N   0  0  0  0  0  0  0  0  0  0  0  0
  -25.9914  -32.8424   19.8511 N   0  0  0  0  0  0  0  0  0  0  0  0
  -23.8841  -29.8636   25.3029 N   0  0  0  0  0  0  0  0  0  0  0  0
  -21.3963  -27.2822   25.7665 N   0  3  0  0  0  0  0  0  0  0  0  0
  -23.6993  -17.1196   24.5493 O   0  0  0  0  0  0  0  0  0  0  0  0
  -27.1325  -31.0400   20.7848 O   0  0  0  0  0  0  0  0  0  0  0  0
  -24.1076  -32.0182   23.4277 O   0  0  0  0  0  0  0  0  0  0  0  0
  -24.1083  -27.5671   25.0732 O   0  0  0  0  0  0  0  0  0  0  0  0
  -31.7604  -14.9154   19.8412 O   0  0  0  0  0  0  0  0  0  0  0  0
  -19.6903  -16.5920   17.8983 O   0  0  0  0  0  0  0  0  0  0  0  0
  -26.7395  -25.0887   19.2975 O   0  0  0  0  0  0  0  0  0  1  0  0
  -16.9668  -21.3739   18.2442 F   0  0  0  0  0  0  0  0  0  0  0  0
  -19.3735  -18.2076   15.6775 F   0  0  0  0  0  0  0  0  0  0  0  0
  1  2  1  0  0  0  0
  1  5  2  0  0  0  0
  2  6  2  0  0  0  0
  3  8  2  0  0  0  0
  3 16  1  0  0  0  0
  4  9  1  0  0  0  0
  4 16  2  0  0  0  0
  5 18  1  0  0  0  0
  6 20  1  0  0  0  0
  7 10  2  0  0  0  0
  7 19  1  0  0  0  0
  8 24  1  0  0  0  0
  9 24  2  0  0  0  0
 10 25  1  0  0  0  0
 11 12  2  0  0  0  0
 11 26  1  0  0  0  0
 12 27  1  0  0  0  0
 13 21  1  0  0  0  0
 13 25  2  0  0  0  0
 14 23  2  0  0  0  0
 14 30  1  0  0  0  0
 15 27  2  0  0  0  0
 15 28  1  0  0  0  0
 16 29  1  0  0  0  0
 17 29  1  0  0  0  0
 17 32  2  0  0  0  0
 17 33  1  0  0  0  0
 18 20  2  0  0  0  0
 18 38  1  0  0  0  0
 19 21  2  0  0  0  0
 19 39  1  0  0  0  0
 20 52  1  0  0  0  0
 21 40  1  0  0  0  0
 22 23  1  0  0  0  0
 22 31  2  0  0  0  0
 22 51  1  0  0  0  0
 23 55  1  0  0  0  0
 24 82  1  0  0  0  0
 25 83  1  0  0  0  0
 26 28  2  0  0  0  0
 26 82  1  0  0  0  0
 27 84  1  0  0  0  0
 28 85  1  0  0  0  0
 29 66  2  0  0  0  0
 30 62  1  0  0  0  0
 30 67  2  0  0  0  0
 31 56  1  0  0  0  0
 31 67  1  0  0  0  0
 32 68  1  0  0  0  0
 32 72  1  0  0  0  0
 33 73  1  0  0  0  0
 33 77  2  0  0  0  0
 34 53  1  0  0  0  0
 34 74  1  0  0  0  0
 34 78  2  0  0  0  0
 35 63  1  0  0  0  0
 35 69  1  0  0  0  0
 35 79  2  0  0  0  0
 36 64  1  0  0  0  0
 36 75  1  0  0  0  0
 36 80  2  0  0  0  0
 37 70  1  0  0  0  0
 37 71  1  0  0  0  0
 37 81  2  0  0  0  0
 38 41  1  0  0  0  0
 39 53  1  0  0  0  0
 40 69  1  0  0  0  0
 41 43  1  0  0  0  0
 42 44  1  0  0  0  0
 42 47  1  0  0  0  0
 43 52  1  0  0  0  0
 44 54  1  0  0  0  0
 45 48  1  0  0  0  0
 45 51  1  0  0  0  0
 46 49  1  0  0  0  0
 46 51  1  0  0  0  0
 47 70  1  0  0  0  0
 48 71  1  0  0  0  0
 49 71  1  0  0  0  0
 50 54  1  0  0  0  0
 50 70  1  0  0  0  0
 52 74  1  0  0  0  0
 53 69  1  0  0  0  0
 54 68  1  0  0  0  0
 57 64  1  0  0  0  0
 58 65  1  0  0  0  0
 59 65  1  0  0  0  0
 60 65  1  0  0  0  0
 61 76  1  0  0  0  0
 62 83  1  0  0  0  0
 63 65  1  0  0  0  0
 63 75  1  0  0  0  0
 64 76  1  0  0  0  0
 66 68  1  0  0  0  0
M  CHG  1  76   1
M  ISO  4  37 100  62 101  71 100  83 101
M  END
> <Batch ID>
0159

> <Smiles>
CNC(C)C(=O)NC(C(=O)N1Cc2cc([101O:1][101CH2:1]c3cc(C)c(C4CC[100N:0]([100C:0](=O)N5CCCC(n6nc(-c7ccc(Oc8ccc(F)cc8F)cc7)c(C(N)=O)c6N)C5)CC4)c(C)n3)ccc2CC1C(=O)NC1CCCc2ccccc21)C(C)(C)C

> <Shape>
0.212

> <Color>
0.105

> <Negative vol penalty>
0.000

$$$$

  -OEChem-04052322073D

 86 95  0     1  0  0  0  0  0999 V2000
  -28.2720  -21.7127   27.9123 C   0  0  0  0  0  0  0  0  0  0  0  0
  -28.3985  -22.1968   26.6142 C   0  0  0  0  0  0  0  0  0  0  0  0
  -24.8122  -13.2329   21.8918 C   0  0  0  0  0  0  0  0  0  0  0  0
  -25.8644  -13.4602   19.7288 C   0  0  0  0  0  0  0  0  0  0  0  0
  -27.0128  -21.6324   28.5055 C   0  0  0  0  0  0  0  0  0  0  0  0
  -27.2656  -22.6000   25.9081 C   0  0  0  0  0  0  0  0  0  0  0  0
  -27.9470  -26.9960   23.4883 C   0  0  0  0  0  0  0  0  0  0  0  0
  -24.0712  -12.1505   21.4176 C   0  0  0  0  0  0  0  0  0  0  0  0
  -25.1234  -12.3777   19.2547 C   0  0  0  0  0  0  0  0  0  0  0  0
  -28.6688  -26.9613   22.2961 C   0  0  0  0  0  0  0  0  0  0  0  0
  -24.5725   -8.8613   20.8154 C   0  0  0  0  0  0  0  0  0  0  0  0
  -24.4842   -7.7307   21.6275 C   0  0  0  0  0  0  0  0  0  0  0  0
  -26.6036  -27.0205   21.0509 C   0  0  0  0  0  0  0  0  0  0  0  0
  -31.8533  -21.1149   20.3403 C   0  0  0  0  0  0  0  0  0  0  0  0
  -30.5067  -23.0310   19.7469 C   0  0  0  0  0  0  0  0  0  0  0  0
  -22.0806   -7.9666   21.6947 C   0  0  0  0  0  0  0  0  0  0  0  0
  -25.7088  -13.8878   21.0474 C   0  0  0  0  0  0  0  0  0  0  0  0
  -27.7412  -14.9669   22.1485 C   0  0  0  0  0  0  0  0  0  0  0  0
  -25.8650  -22.0439   27.8099 C   0  0  0  0  0  0  0  0  0  0  0  0
  -26.5453  -27.0323   23.4709 C   0  0  0  0  0  0  0  0  0  0  0  0
  -25.9897  -22.5239   26.4921 C   0  0  0  0  0  0  0  0  0  0  0  0
  -25.8663  -27.0582   22.2443 C   0  0  0  0  0  0  0  0  0  0  0  0
  -32.9741  -21.7296   19.7821 C   0  0  0  0  0  0  0  0  0  0  0  0
  -30.6196  -21.7656   20.3226 C   0  0  0  0  0  0  0  0  0  0  0  0
  -31.6276  -23.6458   19.1887 C   0  0  0  0  0  0  0  0  0  0  0  0
  -24.2268  -11.7229   20.0991 C   0  0  0  0  0  0  0  0  0  0  0  0
  -27.9971  -26.9706   21.0772 C   0  0  0  0  0  0  0  0  0  0  0  0
  -23.4148   -9.5446   20.4430 C   0  0  0  0  0  0  0  0  0  0  0  0
  -32.8612  -22.9950   19.2064 C   0  0  0  0  0  0  0  0  0  0  0  0
  -23.2383   -7.2833   22.0671 C   0  0  0  0  0  0  0  0  0  0  0  0
  -22.1690   -9.0973   20.8826 C   0  0  0  0  0  0  0  0  0  0  0  0
  -26.4741  -15.0064   21.5364 C   0  0  0  0  0  0  0  0  0  0  0  0
  -28.0297  -16.2808   22.4259 C   0  0  0  0  0  0  0  0  0  0  0  0
  -28.5824  -13.8430   22.4401 C   0  0  0  0  0  0  0  0  0  0  0  0
  -24.2386  -25.1172   24.5272 C   0  0  0  0  0  0  0  0  0  0  0  0
  -22.3176  -27.5541   23.5818 C   0  0  0  0  0  0  0  0  0  0  0  0
  -21.8716  -30.2832   21.5818 C   0  0  0  0  0  0  0  0  0  0  0  0
  -28.1841  -21.6490   20.9560 C   0  0  0  0  0  0  0  0  0  0  0  0
  -24.5200  -21.8941   28.4756 C   0  0  0  0  0  0  0  0  0  0  0  0
  -25.7821  -27.0963   24.7655 C   0  0  0  0  0  0  0  0  0  0  0  0
  -24.3631  -27.1171   22.1711 C   0  0  0  0  0  0  0  0  0  0  0  0
  -23.4112  -22.6927   27.7950 C   0  0  0  0  0  0  0  0  0  0  0  0
  -25.1032  -20.4065   22.2370 C   0  0  0  0  0  0  0  0  0  0  0  0
  -23.4597  -22.4923   26.2836 C   0  0  0  0  0  0  0  0  0  0  0  0
  -30.1164  -26.2303   16.0349 C   0  0  0  0  0  0  0  0  0  0  0  0
  -29.0492  -27.0311   16.7274 C   0  0  0  0  0  0  0  0  0  0  0  0
  -25.2894  -18.8876   22.2193 C   0  0  0  0  0  0  0  0  0  0  0  0
  -25.7680  -21.0735   21.0342 C   0  0  0  0  0  0  0  0  0  0  0  0
  -27.3690  -19.2133   20.8207 C   0  0  0  0  0  0  0  0  0  0  0  0
  -24.7872  -22.9941   25.7029 C   0  0  1  0  0  0  0  0  0  0  0  0
  -24.3413  -26.6125   24.6342 C   0  0  1  0  0  0  0  0  0  0  0  0
  -30.3029  -26.6523   17.4659 C   0  0  0  0  0  0  0  0  0  0  0  0
  -26.7721  -18.5036   22.0469 C   0  0  2  0  0  0  0  0  0  0  0  0
  -34.2859  -21.0165   19.8100 C   0  0  0  0  0  0  0  0  0  0  0  0
  -20.1835  -32.0483   21.0055 C   0  0  0  0  0  0  0  0  0  0  0  0
  -20.7504  -25.5155   21.9392 C   0  0  0  0  0  0  0  0  0  0  0  0
  -19.7228  -27.4217   20.6828 C   0  0  0  0  0  0  0  0  0  0  0  0
  -19.3389  -27.1967   23.1373 C   0  0  0  0  0  0  0  0  0  0  0  0
  -23.6690  -32.4582   22.4751 C   0  0  0  0  0  0  0  0  0  0  0  0
  -34.2137  -23.3430   17.2814 C   0  0  0  0  0  0  0  0  0  0  0  0
  -29.9558  -26.2602   19.9306 C   0  0  0  0  0  0  0  0  0  1  0  0
  -21.6111  -27.9229   22.2997 C   0  0  1  0  0  0  0  0  0  0  0  0
  -21.3689  -31.6831   21.8854 C   0  0  2  0  0  0  0  0  0  0  0  0
  -30.2523  -25.6331   18.5685 C   0  0  2  0  0  0  0  0  0  0  0  0
  -20.3841  -27.0111   22.0158 C   0  0  0  0  0  0  0  0  0  0  0  0
  -25.9908  -16.2471   21.4311 N   0  0  0  0  0  0  0  0  0  0  0  0
  -26.9593  -16.9994   21.9808 N   0  0  0  0  0  0  0  0  0  0  0  0
  -23.6615  -27.1720   23.4642 N   0  0  0  0  0  0  0  0  0  0  0  0
  -27.1715  -20.6667   20.9370 N   0  0  0  0  0  0  0  0  0  0  0  0
  -29.0919  -16.8799   23.0048 N   0  0  0  0  0  0  0  0  0  0  0  0
  -28.1331  -12.5630   22.0879 N   0  0  0  0  0  0  0  0  0  0  0  0
  -29.4812  -21.1414   20.8904 N   0  0  0  0  0  0  0  0  0  0  0  0
  -31.5006  -24.9010   18.6214 N   0  0  0  0  0  0  0  0  0  0  0  0
  -24.7809  -24.4378   25.6013 N   0  0  0  0  0  0  0  0  0  0  0  0
  -21.2895  -29.3420   22.4044 N   0  0  0  0  0  0  0  0  0  0  0  0
  -22.4501  -32.6828   21.6560 N   0  3  0  0  0  0  0  0  0  0  0  0
  -29.6921  -13.9685   23.0114 O   0  0  0  0  0  0  0  0  0  0  0  0
  -23.7055  -24.6171   23.5437 O   0  0  0  0  0  0  0  0  0  0  0  0
  -21.7019  -27.6101   24.6492 O   0  0  0  0  0  0  0  0  0  0  0  0
  -22.6952  -30.0477   20.7005 O   0  0  0  0  0  0  0  0  0  0  0  0
  -27.9209  -22.8505   21.0528 O   0  0  0  0  0  0  0  0  0  0  0  0
  -23.5041  -10.6665   19.6361 O   0  0  0  0  0  0  0  0  0  0  0  0
  -33.9596  -23.5937   18.6612 O   0  0  0  0  0  0  0  0  0  0  0  0
  -28.6992  -26.9362   19.9120 O   0  0  0  0  0  0  0  0  0  1  0  0
  -23.1535   -6.1966   22.8457 F   0  0  0  0  0  0  0  0  0  0  0  0
  -21.0532   -9.7489   20.5271 F   0  0  0  0  0  0  0  0  0  0  0  0
  1  2  1  0  0  0  0
  1  5  2  0  0  0  0
  2  6  2  0  0  0  0
  3  8  2  0  0  0  0
  3 17  1  0  0  0  0
  4  9  1  0  0  0  0
  4 17  2  0  0  0  0
  5 19  1  0  0  0  0
  6 21  1  0  0  0  0
  7 10  2  0  0  0  0
  7 20  1  0  0  0  0
  8 26  1  0  0  0  0
  9 26  2  0  0  0  0
 10 27  1  0  0  0  0
 11 12  2  0  0  0  0
 11 28  1  0  0  0  0
 12 30  1  0  0  0  0
 13 22  1  0  0  0  0
 13 27  2  0  0  0  0
 14 23  2  0  0  0  0
 14 24  1  0  0  0  0
 15 24  2  0  0  0  0
 15 25  1  0  0  0  0
 16 30  2  0  0  0  0
 16 31  1  0  0  0  0
 17 32  1  0  0  0  0
 18 32  1  0  0  0  0
 18 33  2  0  0  0  0
 18 34  1  0  0  0  0
 19 21  2  0  0  0  0
 19 39  1  0  0  0  0
 20 22  2  0  0  0  0
 20 40  1  0  0  0  0
 21 50  1  0  0  0  0
 22 41  1  0  0  0  0
 23 29  1  0  0  0  0
 23 54  1  0  0  0  0
 24 72  1  0  0  0  0
 25 29  2  0  0  0  0
 25 73  1  0  0  0  0
 26 82  1  0  0  0  0
 27 84  1  0  0  0  0
 28 31  2  0  0  0  0
 28 82  1  0  0  0  0
 29 83  1  0  0  0  0
 30 85  1  0  0  0  0
 31 86  1  0  0  0  0
 32 66  2  0  0  0  0
 33 67  1  0  0  0  0
 33 70  1  0  0  0  0
 34 71  1  0  0  0  0
 34 77  2  0  0  0  0
 35 51  1  0  0  0  0
 35 74  1  0  0  0  0
 35 78  2  0  0  0  0
 36 62  1  0  0  0  0
 36 68  1  0  0  0  0
 36 79  2  0  0  0  0
 37 63  1  0  0  0  0
 37 75  1  0  0  0  0
 37 80  2  0  0  0  0
 38 69  1  0  0  0  0
 38 72  1  0  0  0  0
 38 81  2  0  0  0  0
 39 42  1  0  0  0  0
 40 51  1  0  0  0  0
 41 68  1  0  0  0  0
 42 44  1  0  0  0  0
 43 47  1  0  0  0  0
 43 48  1  0  0  0  0
 44 50  1  0  0  0  0
 45 46  1  0  0  0  0
 45 52  1  0  0  0  0
 46 52  1  0  0  0  0
 47 53  1  0  0  0  0
 48 69  1  0  0  0  0
 49 53  1  0  0  0  0
 49 69  1  0  0  0  0
 50 74  1  0  0  0  0
 51 68  1  0  0  0  0
 52 64  1  0  0  0  0
 53 67  1  0  0  0  0
 55 63  1  0  0  0  0
 56 65  1  0  0  0  0
 57 65  1  0  0  0  0
 58 65  1  0  0  0  0
 59 76  1  0  0  0  0
 60 83  1  0  0  0  0
 61 64  1  0  0  0  0
 61 84  1  0  0  0  0
 62 65  1  0  0  0  0
 62 75  1  0  0  0  0
 63 76  1  0  0  0  0
 64 73  1  0  0  0  0
 66 67  1  0  0  0  0
M  CHG  1  76   1
M  ISO  4  38 100  61 101  72 100  84 101
M  END
> <Batch ID>
0159

> <Smiles>
CNC(C)C(=O)NC(C(=O)N1Cc2cc([101O:1][101CH2:1]C(Nc3cc([100NH:0][100C:0](=O)N4CCCC(n5nc(-c6ccc(Oc7ccc(F)cc7F)cc6)c(C(N)=O)c5N)C4)cc(C)c3OC)C3CC3)ccc2CC1C(=O)NC1CCCc2ccccc21)C(C)(C)C

> <Shape>
0.215

> <Color>
0.063

> <Negative vol penalty>
0.000

$$$$

  -OEChem-04052322073D

 90100  0     1  0  0  0  0  0999 V2000
  -29.8548  -12.2655   20.2028 C   0  0  0  0  0  0  0  0  0  0  0  0
  -29.3630  -13.2425   21.0610 C   0  0  0  0  0  0  0  0  0  0  0  0
  -27.6795  -23.5339   22.3422 C   0  0  0  0  0  0  0  0  0  0  0  0
  -29.4279  -24.9863   21.5234 C   0  0  0  0  0  0  0  0  0  0  0  0
  -29.3082  -12.1226   18.9292 C   0  0  0  0  0  0  0  0  0  0  0  0
  -28.3166  -14.0691   20.6503 C   0  0  0  0  0  0  0  0  0  0  0  0
  -24.3996  -19.8202   22.3798 C   0  0  0  0  0  0  0  0  0  0  0  0
  -28.0970  -22.5353   21.4624 C   0  0  0  0  0  0  0  0  0  0  0  0
  -29.8455  -23.9877   20.6436 C   0  0  0  0  0  0  0  0  0  0  0  0
  -24.0091  -21.0946   21.9708 C   0  0  0  0  0  0  0  0  0  0  0  0
  -30.5611  -20.2253   21.3047 C   0  0  0  0  0  0  0  0  0  0  0  0
  -30.6682  -18.9265   21.8020 C   0  0  0  0  0  0  0  0  0  0  0  0
  -22.4340  -20.1111   20.4309 C   0  0  0  0  0  0  0  0  0  0  0  0
  -29.0383  -18.1732   20.1856 C   0  0  0  0  0  0  0  0  0  0  0  0
  -28.3449  -24.7595   22.3726 C   0  0  0  0  0  0  0  0  0  0  0  0
  -27.8571  -25.7188   24.6855 C   0  0  0  0  0  0  0  0  0  0  0  0
  -28.2629  -12.9565   18.4990 C   0  0  0  0  0  0  0  0  0  0  0  0
  -23.8170  -18.6797   21.8087 C   0  0  0  0  0  0  0  0  0  0  0  0
  -27.7354  -13.9247   19.3775 C   0  0  0  0  0  0  0  0  0  0  0  0
  -22.8171  -18.8234   20.8363 C   0  0  0  0  0  0  0  0  0  0  0  0
  -22.5355  -26.4886   18.8899 C   0  0  0  0  0  0  0  0  0  0  0  0
  -23.0681  -25.3019   19.3936 C   0  0  0  0  0  0  0  0  0  0  0  0
  -21.6526  -27.2410   19.6646 C   0  0  0  0  0  0  0  0  0  0  0  0
  -21.8348  -25.6199   21.4467 C   0  0  0  0  0  0  0  0  0  0  0  0
  -22.7177  -24.8675   20.6720 C   0  0  0  0  0  0  0  0  0  0  0  0
  -21.3023  -26.8067   20.9430 C   0  0  0  0  0  0  0  0  0  0  0  0
  -29.1800  -22.7621   20.6132 C   0  0  0  0  0  0  0  0  0  0  0  0
  -23.0282  -21.2401   20.9941 C   0  0  0  0  0  0  0  0  0  0  0  0
  -29.6925  -20.4980   20.2479 C   0  0  0  0  0  0  0  0  0  0  0  0
  -29.9069  -17.9005   21.2425 C   0  0  0  0  0  0  0  0  0  0  0  0
  -28.9312  -19.4720   19.6883 C   0  0  0  0  0  0  0  0  0  0  0  0
  -27.9137  -25.7917   23.2808 C   0  0  0  0  0  0  0  0  0  0  0  0
  -27.3846  -26.9484   25.0744 C   0  0  0  0  0  0  0  0  0  0  0  0
  -28.2010  -24.6363   25.5606 C   0  0  0  0  0  0  0  0  0  0  0  0
  -24.8976  -16.2219   20.1071 C   0  0  0  0  0  0  0  0  0  0  0  0
  -21.8618  -15.1381   20.4699 C   0  0  0  0  0  0  0  0  0  0  0  0
  -18.5770  -15.8612   21.0478 C   0  0  0  0  0  0  0  0  0  0  0  0
  -23.6842  -31.0382   23.3274 C   0  0  0  0  0  0  0  0  0  0  0  0
  -27.7031  -12.7532   17.1132 C   0  0  0  0  0  0  0  0  0  0  0  0
  -24.2303  -17.3124   22.2800 C   0  0  0  0  0  0  0  0  0  0  0  0
  -22.1461  -17.6311   20.2064 C   0  0  0  0  0  0  0  0  0  0  0  0
  -26.9092  -13.9545   16.6105 C   0  0  0  0  0  0  0  0  0  0  0  0
  -27.1830  -31.4271   23.0364 C   0  0  0  0  0  0  0  0  0  0  0  0
  -25.9040  -14.3916   17.6656 C   0  0  0  0  0  0  0  0  0  0  0  0
  -18.1292  -26.4577   20.9598 C   0  0  0  0  0  0  0  0  0  0  0  0
  -17.7138  -27.5016   21.9586 C   0  0  0  0  0  0  0  0  0  0  0  0
  -27.7319  -30.0092   23.1693 C   0  0  0  0  0  0  0  0  0  0  0  0
  -20.2500  -29.6582   23.3207 C   0  0  0  0  0  0  0  0  0  0  0  0
  -25.8750  -31.4295   22.2566 C   0  0  0  0  0  0  0  0  0  0  0  0
  -21.2517  -30.7437   23.6828 C   0  0  0  0  0  0  0  0  0  0  0  0
  -22.3703  -29.0171   22.4469 C   0  0  0  0  0  0  0  0  0  0  0  0
  -25.3427  -29.1343   23.0299 C   0  0  0  0  0  0  0  0  0  0  0  0
  -26.6183  -14.8553   18.9415 C   0  0  1  0  0  0  0  0  0  0  0  0
  -23.9361  -16.2152   21.2617 C   0  0  1  0  0  0  0  0  0  0  0  0
  -18.9540  -27.7030   21.1328 C   0  0  0  0  0  0  0  0  0  0  0  0
  -20.8845  -29.0133   22.0879 C   0  0  1  0  0  0  0  0  0  0  0  0
  -26.6814  -29.0783   23.7945 C   0  0  1  0  0  0  0  0  0  0  0  0
  -22.9127  -26.9557   17.5193 C   0  0  0  0  0  0  0  0  0  0  0  0
  -24.0168  -24.4960   18.5632 C   0  0  0  0  0  0  0  0  0  0  0  0
  -21.0821  -28.5147   19.1248 C   0  0  0  0  0  0  0  0  0  0  0  0
  -21.4594  -25.1535   22.8181 C   0  0  0  0  0  0  0  0  0  0  0  0
  -16.3258  -14.7708   21.2489 C   0  0  0  0  0  0  0  0  0  0  0  0
  -21.7417  -14.8322   17.4365 C   0  0  0  0  0  0  0  0  0  0  0  0
  -19.2502  -14.6695   17.6214 C   0  0  0  0  0  0  0  0  0  0  0  0
  -20.6948  -12.9559   18.7165 C   0  0  0  0  0  0  0  0  0  0  0  0
  -18.2520  -16.7815   23.8418 C   0  0  0  0  0  0  0  0  0  0  0  0
  -23.2886  -23.5940   21.2118 C   0  0  0  0  0  0  0  0  0  1  0  0
  -20.3399  -27.6279   21.7891 C   0  0  2  0  0  0  0  0  0  0  0  0
  -20.5747  -15.2842   19.6948 C   0  0  1  0  0  0  0  0  0  0  0  0
  -17.5621  -15.2475   21.9953 C   0  0  2  0  0  0  0  0  0  0  0  0
  -20.5792  -14.4581   18.3775 C   0  0  0  0  0  0  0  0  0  0  0  0
  -27.5093  -26.9740   22.8091 N   0  0  0  0  0  0  0  0  0  0  0  0
  -27.1940  -27.6554   23.9238 N   0  0  0  0  0  0  0  0  0  0  0  0
  -22.5891  -16.3153   20.6962 N   0  0  0  0  0  0  0  0  0  0  0  0
  -24.8902  -30.5190   22.8436 N   0  0  0  0  0  0  0  0  0  0  0  0
  -22.5466  -30.2370   23.2390 N   0  0  0  0  0  0  0  0  0  0  0  0
  -27.1177  -27.4830   26.2849 N   0  0  0  0  0  0  0  0  0  0  0  0
  -29.5166  -24.5543   26.0369 N   0  0  0  0  0  0  0  0  0  0  0  0
  -25.6368  -15.0610   19.9837 N   0  0  0  0  0  0  0  0  0  0  0  0
  -19.5005  -14.9323   20.6171 N   0  0  0  0  0  0  0  0  0  0  0  0
  -17.1382  -16.2455   23.0176 N   0  3  0  0  0  0  0  0  0  0  0  0
  -27.3705  -23.7583   25.8968 O   0  0  0  0  0  0  0  0  0  0  0  0
  -24.9629  -17.2069   19.3810 O   0  0  0  0  0  0  0  0  0  0  0  0
  -22.2056  -14.0218   20.8665 O   0  0  0  0  0  0  0  0  0  0  0  0
  -18.5508  -17.0452   20.7195 O   0  0  0  0  0  0  0  0  0  0  0  0
  -23.6158  -32.1882   23.7820 O   0  0  0  0  0  0  0  0  0  0  0  0
  -29.5879  -21.7878   19.7547 O   0  0  0  0  0  0  0  0  0  0  0  0
  -22.6428  -22.4921   20.5896 O   0  0  0  0  0  0  0  0  0  1  0  0
  -30.0110  -16.6530   21.7191 F   0  0  0  0  0  0  0  0  0  0  0  0
  -28.0959  -19.7277   18.6721 F   0  0  0  0  0  0  0  0  0  0  0  0
  1  2  1  0  0  0  0
  1  5  2  0  0  0  0
  2  6  2  0  0  0  0
  3  8  2  0  0  0  0
  3 15  1  0  0  0  0
  4  9  1  0  0  0  0
  4 15  2  0  0  0  0
  5 17  1  0  0  0  0
  6 19  1  0  0  0  0
  7 10  2  0  0  0  0
  7 18  1  0  0  0  0
  8 27  1  0  0  0  0
  9 27  2  0  0  0  0
 10 28  1  0  0  0  0
 11 12  2  0  0  0  0
 11 29  1  0  0  0  0
 12 30  1  0  0  0  0
 13 20  1  0  0  0  0
 13 28  2  0  0  0  0
 14 30  2  0  0  0  0
 14 31  1  0  0  0  0
 15 32  1  0  0  0  0
 16 32  1  0  0  0  0
 16 33  2  0  0  0  0
 16 34  1  0  0  0  0
 17 19  2  0  0  0  0
 17 39  1  0  0  0  0
 18 20  2  0  0  0  0
 18 40  1  0  0  0  0
 19 53  1  0  0  0  0
 20 41  1  0  0  0  0
 21 22  2  0  0  0  0
 21 23  1  0  0  0  0
 21 58  1  0  0  0  0
 22 25  1  0  0  0  0
 22 59  1  0  0  0  0
 23 26  2  0  0  0  0
 23 60  1  0  0  0  0
 24 25  2  0  0  0  0
 24 26  1  0  0  0  0
 24 61  1  0  0  0  0
 25 67  1  0  0  0  0
 26 68  1  0  0  0  0
 27 87  1  0  0  0  0
 28 88  1  0  0  0  0
 29 31  2  0  0  0  0
 29 87  1  0  0  0  0
 30 89  1  0  0  0  0
 31 90  1  0  0  0  0
 32 72  2  0  0  0  0
 33 73  1  0  0  0  0
 33 77  1  0  0  0  0
 34 78  1  0  0  0  0
 34 82  2  0  0  0  0
 35 54  1  0  0  0  0
 35 79  1  0  0  0  0
 35 83  2  0  0  0  0
 36 69  1  0  0  0  0
 36 74  1  0  0  0  0
 36 84  2  0  0  0  0
 37 70  1  0  0  0  0
 37 80  1  0  0  0  0
 37 85  2  0  0  0  0
 38 75  1  0  0  0  0
 38 76  1  0  0  0  0
 38 86  2  0  0  0  0
 39 42  1  0  0  0  0
 40 54  1  0  0  0  0
 41 74  1  0  0  0  0
 42 44  1  0  0  0  0
 43 47  1  0  0  0  0
 43 49  1  0  0  0  0
 44 53  1  0  0  0  0
 45 46  1  0  0  0  0
 45 55  1  0  0  0  0
 46 55  1  0  0  0  0
 47 57  1  0  0  0  0
 48 50  1  0  0  0  0
 48 56  1  0  0  0  0
 49 75  1  0  0  0  0
 50 76  1  0  0  0  0
 51 56  1  0  0  0  0
 51 76  1  0  0  0  0
 52 57  1  0  0  0  0
 52 75  1  0  0  0  0
 53 79  1  0  0  0  0
 54 74  1  0  0  0  0
 55 68  1  0  0  0  0
 56 68  1  0  0  0  0
 57 73  1  0  0  0  0
 62 70  1  0  0  0  0
 63 71  1  0  0  0  0
 64 71  1  0  0  0  0
 65 71  1  0  0  0  0
 66 81  1  0  0  0  0
 67 88  1  0  0  0  0
 69 71  1  0  0  0  0
 69 80  1  0  0  0  0
 70 81  1  0  0  0  0
 72 73  1  0  0  0  0
M  CHG  1  81   1
M  ISO  4  38 100  67 101  76 100  88 101
M  END
> <Batch ID>
0159

> <Smiles>
CNC(C)C(=O)NC(C(=O)N1Cc2cc([101O:1][101CH2:1]c3c(C)c(C)c(C)c(C(C4CC4)C4CC[100N:0]([100C:0](=O)N5CCCC(n6nc(-c7ccc(Oc8ccc(F)cc8F)cc7)c(C(N)=O)c6N)C5)C4)c3C)ccc2CC1C(=O)NC1CCCc2ccccc21)C(C)(C)C

> <Shape>
0.216

> <Color>
0.069

> <Negative vol penalty>
0.000

$$$$

  -OEChem-04052322073D

 87 96  0     1  0  0  0  0  0999 V2000
  -26.2934  -37.4249   23.7141 C   0  0  0  0  0  0  0  0  0  0  0  0
  -27.0352  -36.5320   22.9474 C   0  0  0  0  0  0  0  0  0  0  0  0
  -22.8030  -16.4459   21.6506 C   0  0  0  0  0  0  0  0  0  0  0  0
  -22.0521  -15.4942   19.5607 C   0  0  0  0  0  0  0  0  0  0  0  0
  -25.3824  -36.9451   24.6542 C   0  0  0  0  0  0  0  0  0  0  0  0
  -26.8674  -35.1587   23.1212 C   0  0  0  0  0  0  0  0  0  0  0  0
  -27.0181  -29.0074   19.4531 C   0  0  0  0  0  0  0  0  0  0  0  0
  -21.7045  -17.3055   21.6538 C   0  0  0  0  0  0  0  0  0  0  0  0
  -20.9536  -16.3538   19.5640 C   0  0  0  0  0  0  0  0  0  0  0  0
  -27.6054  -27.7436   19.4932 C   0  0  0  0  0  0  0  0  0  0  0  0
  -20.7971  -20.1927   20.1488 C   0  0  0  0  0  0  0  0  0  0  0  0
  -21.0239  -21.5317   20.4667 C   0  0  0  0  0  0  0  0  0  0  0  0
  -25.9454  -27.0296   21.0914 C   0  0  0  0  0  0  0  0  0  0  0  0
  -30.3684  -22.1860   20.9818 C   0  0  0  0  0  0  0  0  0  0  0  0
  -19.5190  -21.3403   22.3470 C   0  0  0  0  0  0  0  0  0  0  0  0
  -22.9768  -15.5402   20.6040 C   0  0  0  0  0  0  0  0  0  0  0  0
  -24.1845  -13.3632   21.1605 C   0  0  0  0  0  0  0  0  0  0  0  0
  -25.1963  -35.5652   24.8329 C   0  0  0  0  0  0  0  0  0  0  0  0
  -25.8948  -29.2956   20.2414 C   0  0  0  0  0  0  0  0  0  0  0  0
  -25.9541  -34.6600   24.0656 C   0  0  0  0  0  0  0  0  0  0  0  0
  -25.3443  -28.2971   21.0575 C   0  0  0  0  0  0  0  0  0  0  0  0
  -29.9336  -23.5036   20.8383 C   0  0  0  0  0  0  0  0  0  0  0  0
  -29.0057  -22.9618   18.6744 C   0  0  0  0  0  0  0  0  0  0  0  0
  -29.2523  -23.8915   19.6846 C   0  0  0  0  0  0  0  0  0  0  0  0
  -29.4405  -21.6442   18.8178 C   0  0  0  0  0  0  0  0  0  0  0  0
  -20.7798  -17.2594   20.6106 C   0  0  0  0  0  0  0  0  0  0  0  0
  -27.0708  -26.7553   20.3146 C   0  0  0  0  0  0  0  0  0  0  0  0
  -19.9312  -19.4274   20.9300 C   0  0  0  0  0  0  0  0  0  0  0  0
  -30.1219  -21.2563   19.9715 C   0  0  0  0  0  0  0  0  0  0  0  0
  -20.3849  -22.1055   21.5658 C   0  0  0  0  0  0  0  0  0  0  0  0
  -19.2922  -20.0012   22.0291 C   0  0  0  0  0  0  0  0  0  0  0  0
  -24.1117  -14.6524   20.5998 C   0  0  0  0  0  0  0  0  0  0  0  0
  -25.4641  -12.9433   20.8910 C   0  0  0  0  0  0  0  0  0  0  0  0
  -23.1847  -12.6123   21.8622 C   0  0  0  0  0  0  0  0  0  0  0  0
  -25.2694  -31.3411   22.5927 C   0  0  0  0  0  0  0  0  0  0  0  0
  -22.2514  -30.2004   22.2575 C   0  0  0  0  0  0  0  0  0  0  0  0
  -20.2099  -27.6624   21.2389 C   0  0  0  0  0  0  0  0  0  0  0  0
  -30.5553  -15.8991   19.8198 C   0  0  0  0  0  0  0  0  0  0  0  0
  -24.2344  -35.0939   25.8947 C   0  0  0  0  0  0  0  0  0  0  0  0
  -25.2570  -30.6558   20.1665 C   0  0  0  0  0  0  0  0  0  0  0  0
  -24.1271  -28.5496   21.9079 C   0  0  0  0  0  0  0  0  0  0  0  0
  -23.8440  -33.6248   25.7541 C   0  0  0  0  0  0  0  0  0  0  0  0
  -29.0139  -13.4855   17.7541 C   0  0  0  0  0  0  0  0  0  0  0  0
  -25.0803  -32.7648   25.5115 C   0  0  0  0  0  0  0  0  0  0  0  0
  -27.5804  -13.4059   18.2717 C   0  0  0  0  0  0  0  0  0  0  0  0
  -31.1851  -18.7330   22.1180 C   0  0  0  0  0  0  0  0  0  0  0  0
  -29.5261  -14.9187   17.8002 C   0  0  0  0  0  0  0  0  0  0  0  0
  -31.6417  -17.4834   21.3788 C   0  0  0  0  0  0  0  0  0  0  0  0
  -28.0560  -15.4436   19.7270 C   0  0  0  0  0  0  0  0  0  0  0  0
  -29.3713  -17.9737   20.7615 C   0  0  0  0  0  0  0  0  0  0  0  0
  -25.7822  -33.1632   24.2076 C   0  0  1  0  0  0  0  0  0  0  0  0
  -24.4247  -30.9941   21.3995 C   0  0  1  0  0  0  0  0  0  0  0  0
  -27.4777  -14.0142   19.6791 C   0  0  1  0  0  0  0  0  0  0  0  0
  -30.0452  -19.2511   21.2479 C   0  0  2  0  0  0  0  0  0  0  0  0
  -28.2747  -23.3771   17.4367 C   0  0  0  0  0  0  0  0  0  0  0  0
  -29.1800  -20.6416   17.7389 C   0  0  0  0  0  0  0  0  0  0  0  0
  -29.2702  -24.2993   23.1215 C   0  0  0  0  0  0  0  0  0  0  0  0
  -17.7909  -27.0038   21.1280 C   0  0  0  0  0  0  0  0  0  0  0  0
  -22.2807  -29.5986   25.2487 C   0  0  0  0  0  0  0  0  0  0  0  0
  -20.2925  -28.1176   24.8994 C   0  0  0  0  0  0  0  0  0  0  0  0
  -20.1326  -30.5561   24.3982 C   0  0  0  0  0  0  0  0  0  0  0  0
  -20.2762  -27.4752   18.2860 C   0  0  0  0  0  0  0  0  0  0  0  0
  -30.2116  -24.4793   21.9346 C   0  0  0  0  0  0  0  0  0  0  0  0
  -28.7866  -25.3053   19.5340 C   0  0  0  0  0  0  0  0  0  1  0  0
  -21.4670  -29.0591   22.8585 C   0  0  1  0  0  0  0  0  0  0  0  0
  -18.9489  -27.6615   20.3937 C   0  0  2  0  0  0  0  0  0  0  0  0
  -21.0673  -29.3284   24.3368 C   0  0  0  0  0  0  0  0  0  0  0  0
  -25.2542  -15.0270   20.0181 N   0  0  0  0  0  0  0  0  0  0  0  0
  -26.0570  -13.9668   20.2120 N   0  0  0  0  0  0  0  0  0  0  0  0
  -23.5433  -29.8973   21.8048 N   0  0  0  0  0  0  0  0  0  0  0  0
  -29.4006  -15.4978   19.1390 N   0  0  0  0  0  0  0  0  0  0  0  0
  -30.4586  -16.9916   20.6812 N   0  0  0  0  0  0  0  0  0  0  0  0
  -26.1288  -11.8022   21.1710 N   0  0  0  0  0  0  0  0  0  0  0  0
  -21.9234  -13.1931   22.0518 N   0  0  0  0  0  0  0  0  0  0  0  0
  -25.0733  -32.6242   23.0669 N   0  0  0  0  0  0  0  0  0  0  0  0
  -20.3361  -28.8268   21.9666 N   0  0  0  0  0  0  0  0  0  0  0  0
  -19.1791  -26.9216   19.1207 N   0  3  0  0  0  0  0  0  0  0  0  0
  -23.4087  -11.4669   22.3222 O   0  0  0  0  0  0  0  0  0  0  0  0
  -26.0409  -30.5061   23.0501 O   0  0  0  0  0  0  0  0  0  0  0  0
  -21.7342  -31.3180   22.1857 O   0  0  0  0  0  0  0  0  0  0  0  0
  -21.0016  -26.7226   21.2549 O   0  0  0  0  0  0  0  0  0  0  0  0
  -31.6405  -15.3319   19.6340 O   0  0  0  0  0  0  0  0  0  0  0  0
  -19.7076  -18.0979   20.6135 O   0  0  0  0  0  0  0  0  0  0  0  0
  -30.5566  -19.9666   20.1304 O   0  0  0  0  0  0  0  0  0  0  0  0
  -27.6467  -25.5119   20.3565 O   0  0  0  0  0  0  0  0  0  1  0  0
  -20.6040  -23.3910   21.8718 F   0  0  0  0  0  0  0  0  0  0  0  0
  -18.4601  -19.2707   22.7840 F   0  0  0  0  0  0  0  0  0  0  0  0
  1  2  1  0  0  0  0
  1  5  2  0  0  0  0
  2  6  2  0  0  0  0
  3  8  2  0  0  0  0
  3 16  1  0  0  0  0
  4  9  1  0  0  0  0
  4 16  2  0  0  0  0
  5 18  1  0  0  0  0
  6 20  1  0  0  0  0
  7 10  2  0  0  0  0
  7 19  1  0  0  0  0
  8 26  1  0  0  0  0
  9 26  2  0  0  0  0
 10 27  1  0  0  0  0
 11 12  2  0  0  0  0
 11 28  1  0  0  0  0
 12 30  1  0  0  0  0
 13 21  1  0  0  0  0
 13 27  2  0  0  0  0
 14 22  1  0  0  0  0
 14 29  2  0  0  0  0
 15 30  2  0  0  0  0
 15 31  1  0  0  0  0
 16 32  1  0  0  0  0
 17 32  1  0  0  0  0
 17 33  2  0  0  0  0
 17 34  1  0  0  0  0
 18 20  2  0  0  0  0
 18 39  1  0  0  0  0
 19 21  2  0  0  0  0
 19 40  1  0  0  0  0
 20 51  1  0  0  0  0
 21 41  1  0  0  0  0
 22 24  2  0  0  0  0
 22 63  1  0  0  0  0
 23 24  1  0  0  0  0
 23 25  2  0  0  0  0
 23 55  1  0  0  0  0
 24 64  1  0  0  0  0
 25 29  1  0  0  0  0
 25 56  1  0  0  0  0
 26 83  1  0  0  0  0
 27 85  1  0  0  0  0
 28 31  2  0  0  0  0
 28 83  1  0  0  0  0
 29 84  1  0  0  0  0
 30 86  1  0  0  0  0
 31 87  1  0  0  0  0
 32 68  2  0  0  0  0
 33 69  1  0  0  0  0
 33 73  1  0  0  0  0
 34 74  1  0  0  0  0
 34 78  2  0  0  0  0
 35 52  1  0  0  0  0
 35 75  1  0  0  0  0
 35 79  2  0  0  0  0
 36 65  1  0  0  0  0
 36 70  1  0  0  0  0
 36 80  2  0  0  0  0
 37 66  1  0  0  0  0
 37 76  1  0  0  0  0
 37 81  2  0  0  0  0
 38 71  1  0  0  0  0
 38 72  1  0  0  0  0
 38 82  2  0  0  0  0
 39 42  1  0  0  0  0
 40 52  1  0  0  0  0
 41 70  1  0  0  0  0
 42 44  1  0  0  0  0
 43 45  1  0  0  0  0
 43 47  1  0  0  0  0
 44 51  1  0  0  0  0
 45 53  1  0  0  0  0
 46 48  1  0  0  0  0
 46 54  1  0  0  0  0
 47 71  1  0  0  0  0
 48 72  1  0  0  0  0
 49 53  1  0  0  0  0
 49 71  1  0  0  0  0
 50 54  1  0  0  0  0
 50 72  1  0  0  0  0
 51 75  1  0  0  0  0
 52 70  1  0  0  0  0
 53 69  1  0  0  0  0
 54 84  1  0  0  0  0
 57 63  1  0  0  0  0
 58 66  1  0  0  0  0
 59 67  1  0  0  0  0
 60 67  1  0  0  0  0
 61 67  1  0  0  0  0
 62 77  1  0  0  0  0
 64 85  1  0  0  0  0
 65 67  1  0  0  0  0
 65 76  1  0  0  0  0
 66 77  1  0  0  0  0
 68 69  1  0  0  0  0
M  CHG  1  77   1
M  ISO  4  38 100  64 101  72 100  85 101
M  END
> <Batch ID>
0159

> <Smiles>
CCc1cc(OC2CC[100N:0]([100C:0](=O)N3CCCC(n4nc(-c5ccc(Oc6ccc(F)cc6F)cc5)c(C(N)=O)c4N)C3)C2)c(C)c(C)c1[101CH2:1][101O:1]c1ccc2c(c1)CN(C(=O)C(NC(=O)C(C)NC)C(C)(C)C)C(C(=O)NC1CCCc3ccccc31)C2

> <Shape>
0.319

> <Color>
0.101

> <Negative vol penalty>
0.000

$$$$

  -OEChem-04052322073D

 89 99  0     1  0  0  0  0  0999 V2000
  -32.8193  -34.2446   21.6419 C   0  0  0  0  0  0  0  0  0  0  0  0
  -31.5047  -33.9058   21.3381 C   0  0  0  0  0  0  0  0  0  0  0  0
  -22.3811  -10.5067   21.1043 C   0  0  0  0  0  0  0  0  0  0  0  0
  -24.4556   -9.2805   21.2778 C   0  0  0  0  0  0  0  0  0  0  0  0
  -33.8705  -33.4927   21.1188 C   0  0  0  0  0  0  0  0  0  0  0  0
  -31.2404  -32.8155   20.5100 C   0  0  0  0  0  0  0  0  0  0  0  0
  -26.5008  -28.9571   20.9036 C   0  0  0  0  0  0  0  0  0  0  0  0
  -21.6678   -9.3102   21.1755 C   0  0  0  0  0  0  0  0  0  0  0  0
  -23.7423   -8.0839   21.3490 C   0  0  0  0  0  0  0  0  0  0  0  0
  -25.2864  -28.8905   20.2219 C   0  0  0  0  0  0  0  0  0  0  0  0
  -22.0067   -6.3554   23.6772 C   0  0  0  0  0  0  0  0  0  0  0  0
  -22.3947   -5.4279   24.6441 C   0  0  0  0  0  0  0  0  0  0  0  0
  -23.2463  -21.5149   18.4346 C   0  0  0  0  0  0  0  0  0  0  0  0
  -26.2369  -27.2800   18.6982 C   0  0  0  0  0  0  0  0  0  0  0  0
  -21.4880  -19.3426   18.8790 C   0  0  0  0  0  0  0  0  0  0  0  0
  -22.8442   -3.8075   22.9094 C   0  0  0  0  0  0  0  0  0  0  0  0
  -23.7750  -10.4919   21.1554 C   0  0  0  0  0  0  0  0  0  0  0  0
  -24.9075  -12.5474   22.1554 C   0  0  0  0  0  0  0  0  0  0  0  0
  -33.6187  -32.3867   20.2917 C   0  0  0  0  0  0  0  0  0  0  0  0
  -27.5974  -28.1926   20.4803 C   0  0  0  0  0  0  0  0  0  0  0  0
  -32.2892  -32.0488   19.9743 C   0  0  0  0  0  0  0  0  0  0  0  0
  -23.6974  -20.2077   18.3864 C   0  0  0  0  0  0  0  0  0  0  0  0
  -21.8945  -21.7363   18.7072 C   0  0  0  0  0  0  0  0  0  0  0  0
  -27.4633  -27.3367   19.3777 C   0  0  0  0  0  0  0  0  0  0  0  0
  -22.8284  -19.1345   18.6052 C   0  0  0  0  0  0  0  0  0  0  0  0
  -22.3484   -8.0988   21.2979 C   0  0  0  0  0  0  0  0  0  0  0  0
  -25.1552  -28.0541   19.1173 C   0  0  0  0  0  0  0  0  0  0  0  0
  -22.0374   -6.0089   22.3264 C   0  0  0  0  0  0  0  0  0  0  0  0
  -21.0217  -20.6582   18.9272 C   0  0  0  0  0  0  0  0  0  0  0  0
  -22.8135   -4.1540   24.2602 C   0  0  0  0  0  0  0  0  0  0  0  0
  -22.4562   -4.7349   21.9425 C   0  0  0  0  0  0  0  0  0  0  0  0
  -24.5124  -11.7275   21.0814 C   0  0  0  0  0  0  0  0  0  0  0  0
  -25.5751  -13.5913   21.5629 C   0  0  0  0  0  0  0  0  0  0  0  0
  -24.6905  -12.3802   23.5627 C   0  0  0  0  0  0  0  0  0  0  0  0
  -30.5156  -28.8569   19.4095 C   0  0  0  0  0  0  0  0  0  0  0  0
  -30.8848  -25.6383   19.5710 C   0  0  0  0  0  0  0  0  0  0  0  0
  -29.4285  -22.5519   19.5801 C   0  0  0  0  0  0  0  0  0  0  0  0
  -25.9104  -17.4407   17.5265 C   0  0  0  0  0  0  0  0  0  0  0  0
  -34.7890  -31.6327   19.7116 C   0  0  0  0  0  0  0  0  0  0  0  0
  -28.8926  -28.2556   21.2425 C   0  0  0  0  0  0  0  0  0  0  0  0
  -25.0756  -19.7095   18.1097 C   0  0  0  0  0  0  0  0  0  0  0  0
  -28.6044  -26.4801   18.8953 C   0  0  0  0  0  0  0  0  0  0  0  0
  -23.5708  -17.8402   18.5231 C   0  0  0  0  0  0  0  0  0  0  0  0
  -34.4126  -30.2659   19.1454 C   0  0  0  0  0  0  0  0  0  0  0  0
  -27.2078  -14.2173   16.8376 C   0  0  0  0  0  0  0  0  0  0  0  0
  -33.1621  -30.3731   18.2785 C   0  0  0  0  0  0  0  0  0  0  0  0
  -26.6279  -13.3354   17.9394 C   0  0  0  0  0  0  0  0  0  0  0  0
  -22.1035  -23.9187   19.8822 C   0  0  0  0  0  0  0  0  0  0  0  0
  -21.5915  -23.8362   17.4088 C   0  0  0  0  0  0  0  0  0  0  0  0
  -26.1950  -15.2642   16.3956 C   0  0  0  0  0  0  0  0  0  0  0  0
  -25.1590  -15.2934   18.6520 C   0  0  0  0  0  0  0  0  0  0  0  0
  -21.6696  -25.3786   19.9135 C   0  0  0  0  0  0  0  0  0  0  0  0
  -21.1612  -25.2967   17.4591 C   0  0  0  0  0  0  0  0  0  0  0  0
  -21.3887  -23.1412   18.7650 C   0  0  0  0  0  0  0  0  0  0  0  0
  -31.9614  -30.8581   19.0997 C   0  0  1  0  0  0  0  0  0  0  0  0
  -30.0962  -27.8199   20.4126 C   0  0  1  0  0  0  0  0  0  0  0  0
  -26.1366  -14.1936   19.1151 C   0  0  1  0  0  0  0  0  0  0  0  0
  -29.9910  -20.1086   19.6860 C   0  0  0  0  0  0  0  0  0  0  0  0
  -31.7780  -25.7200   16.6546 C   0  0  0  0  0  0  0  0  0  0  0  0
  -31.4072  -23.2464   16.5443 C   0  0  0  0  0  0  0  0  0  0  0  0
  -33.1085  -24.1822   18.1104 C   0  0  0  0  0  0  0  0  0  0  0  0
  -27.9081  -22.1920   22.0936 C   0  0  0  0  0  0  0  0  0  0  0  0
  -18.8824  -19.7351   19.4036 C   0  0  0  0  0  0  0  0  0  0  0  0
  -21.6202  -27.4795   18.5724 C   0  0  0  0  0  0  0  0  0  0  0  0
  -22.7841  -28.2156   19.2061 C   0  0  0  0  0  0  0  0  0  1  0  0
  -30.6516  -24.4865   18.6233 C   0  0  1  0  0  0  0  0  0  0  0  0
  -29.6231  -21.3489   20.4854 C   0  0  2  0  0  0  0  0  0  0  0  0
  -31.7152  -24.4262   17.4908 C   0  0  0  0  0  0  0  0  0  0  0  0
  -24.8969  -12.2092   19.8964 N   0  0  0  0  0  0  0  0  0  0  0  0
  -25.5404  -13.3431   20.2223 N   0  0  0  0  0  0  0  0  0  0  0  0
  -29.8523  -26.5816   19.6700 N   0  0  0  0  0  0  0  0  0  0  0  0
  -24.9372  -18.2431   18.1273 N   0  0  0  0  0  0  0  0  0  0  0  0
  -25.7010  -16.0576   17.5220 N   0  0  0  0  0  0  0  0  0  0  0  0
  -26.1825  -14.6882   22.0632 N   0  0  0  0  0  0  0  0  0  0  0  0
  -23.9854  -11.2509   24.0005 N   0  0  0  0  0  0  0  0  0  0  0  0
  -31.4245  -29.7764   19.8973 N   0  0  0  0  0  0  0  0  0  0  0  0
  -30.5888  -23.2851   19.4486 N   0  0  0  0  0  0  0  0  0  0  0  0
  -21.9128  -26.0042   18.5611 N   0  3  0  0  0  0  0  0  0  0  0  0
  -28.3729  -21.0647   21.2451 N   0  3  0  0  0  0  0  0  0  0  0  0
  -25.0952  -13.2163   24.4058 O   0  0  0  0  0  0  0  0  0  0  0  0
  -30.0502  -28.8245   18.2763 O   0  0  0  0  0  0  0  0  0  0  0  0
  -31.9410  -25.6949   20.2056 O   0  0  0  0  0  0  0  0  0  0  0  0
  -28.3555  -22.8127   19.0404 O   0  0  0  0  0  0  0  0  0  0  0  0
  -26.8985  -17.9410   16.9730 O   0  0  0  0  0  0  0  0  0  0  0  0
  -21.6527   -6.9310   21.3676 O   0  0  0  0  0  0  0  0  0  0  0  0
  -19.7024  -20.8817   19.1920 O   0  0  0  0  0  0  0  0  0  0  0  0
  -23.9627  -27.9872   18.4450 O   0  0  0  0  0  0  0  0  0  1  0  0
  -23.1875   -3.2640   25.1888 F   0  0  0  0  0  0  0  0  0  0  0  0
  -22.4890   -4.3967   20.6462 F   0  0  0  0  0  0  0  0  0  0  0  0
  1  2  1  0  0  0  0
  1  5  2  0  0  0  0
  2  6  2  0  0  0  0
  3  8  2  0  0  0  0
  3 17  1  0  0  0  0
  4  9  1  0  0  0  0
  4 17  2  0  0  0  0
  5 19  1  0  0  0  0
  6 21  1  0  0  0  0
  7 10  2  0  0  0  0
  7 20  1  0  0  0  0
  8 26  1  0  0  0  0
  9 26  2  0  0  0  0
 10 27  1  0  0  0  0
 11 12  2  0  0  0  0
 11 28  1  0  0  0  0
 12 30  1  0  0  0  0
 13 22  2  0  0  0  0
 13 23  1  0  0  0  0
 14 24  1  0  0  0  0
 14 27  2  0  0  0  0
 15 25  2  0  0  0  0
 15 29  1  0  0  0  0
 16 30  2  0  0  0  0
 16 31  1  0  0  0  0
 17 32  1  0  0  0  0
 18 32  1  0  0  0  0
 18 33  2  0  0  0  0
 18 34  1  0  0  0  0
 19 21  2  0  0  0  0
 19 39  1  0  0  0  0
 20 24  2  0  0  0  0
 20 40  1  0  0  0  0
 21 55  1  0  0  0  0
 22 25  1  0  0  0  0
 22 41  1  0  0  0  0
 23 29  2  0  0  0  0
 23 54  1  0  0  0  0
 24 42  1  0  0  0  0
 25 43  1  0  0  0  0
 26 85  1  0  0  0  0
 27 87  1  0  0  0  0
 28 31  2  0  0  0  0
 28 85  1  0  0  0  0
 29 86  1  0  0  0  0
 30 88  1  0  0  0  0
 31 89  1  0  0  0  0
 32 69  2  0  0  0  0
 33 70  1  0  0  0  0
 33 74  1  0  0  0  0
 34 75  1  0  0  0  0
 34 80  2  0  0  0  0
 35 56  1  0  0  0  0
 35 76  1  0  0  0  0
 35 81  2  0  0  0  0
 36 66  1  0  0  0  0
 36 71  1  0  0  0  0
 36 82  2  0  0  0  0
 37 67  1  0  0  0  0
 37 77  1  0  0  0  0
 37 83  2  0  0  0  0
 38 72  1  0  0  0  0
 38 73  1  0  0  0  0
 38 84  2  0  0  0  0
 39 44  1  0  0  0  0
 40 56  1  0  0  0  0
 41 72  1  0  0  0  0
 42 71  1  0  0  0  0
 43 72  1  0  0  0  0
 44 46  1  0  0  0  0
 45 47  1  0  0  0  0
 45 50  1  0  0  0  0
 46 55  1  0  0  0  0
 47 57  1  0  0  0  0
 48 52  1  0  0  0  0
 48 54  1  0  0  0  0
 49 53  1  0  0  0  0
 49 54  1  0  0  0  0
 50 73  1  0  0  0  0
 51 57  1  0  0  0  0
 51 73  1  0  0  0  0
 52 78  1  0  0  0  0
 53 78  1  0  0  0  0
 55 76  1  0  0  0  0
 56 71  1  0  0  0  0
 57 70  1  0  0  0  0
 58 67  1  0  0  0  0
 59 68  1  0  0  0  0
 60 68  1  0  0  0  0
 61 68  1  0  0  0  0
 62 79  1  0  0  0  0
 63 86  1  0  0  0  0
 64 65  1  0  0  0  0
 64 78  1  0  0  0  0
 65 87  1  0  0  0  0
 66 68  1  0  0  0  0
 66 77  1  0  0  0  0
 67 79  1  0  0  0  0
 69 70  1  0  0  0  0
M  CHG  2  78   1  79   1
M  ISO  4  38 100  65 101  72 100  87 101
M  END
> <Batch ID>
0159

> <Smiles>
CNC(C)C(=O)NC(C(=O)N1Cc2cc([101O:1][101CH2:1]CN3CCC(c4cc5c(cc4OC)C[100N:0]([100C:0](=O)N4CCCC(n6nc(-c7ccc(Oc8ccc(F)cc8F)cc7)c(C(N)=O)c6N)C4)C5)CC3)ccc2CC1C(=O)NC1CCCc2ccccc21)C(C)(C)C

> <Shape>
0.209

> <Color>
0.096

> <Negative vol penalty>
0.000

$$$$

  -OEChem-04052322073D

 86 95  0     1  0  0  0  0  0999 V2000
  -21.4404  -33.9376   25.1895 C   0  0  0  0  0  0  0  0  0  0  0  0
  -22.6192  -33.3727   24.7133 C   0  0  0  0  0  0  0  0  0  0  0  0
  -23.1381  -10.3398   21.7687 C   0  0  0  0  0  0  0  0  0  0  0  0
  -24.6937   -8.5906   21.1709 C   0  0  0  0  0  0  0  0  0  0  0  0
  -20.2972  -33.1512   25.3257 C   0  0  0  0  0  0  0  0  0  0  0  0
  -22.6558  -32.0206   24.3741 C   0  0  0  0  0  0  0  0  0  0  0  0
  -25.8895  -29.4445   19.8561 C   0  0  0  0  0  0  0  0  0  0  0  0
  -22.0709   -9.4851   21.4927 C   0  0  0  0  0  0  0  0  0  0  0  0
  -23.6265   -7.7358   20.8949 C   0  0  0  0  0  0  0  0  0  0  0  0
  -27.1110  -28.7725   19.8421 C   0  0  0  0  0  0  0  0  0  0  0  0
  -21.4540   -5.8232   22.6390 C   0  0  0  0  0  0  0  0  0  0  0  0
  -21.5289   -4.5177   23.1246 C   0  0  0  0  0  0  0  0  0  0  0  0
  -25.9456  -26.6640   19.9647 C   0  0  0  0  0  0  0  0  0  0  0  0
  -28.4441  -23.4685   21.5150 C   0  0  0  0  0  0  0  0  0  0  0  0
  -21.3912   -3.6699   20.8664 C   0  0  0  0  0  0  0  0  0  0  0  0
  -24.4495   -9.8926   21.6077 C   0  0  0  0  0  0  0  0  0  0  0  0
  -26.2126  -10.9410   23.1244 C   0  0  0  0  0  0  0  0  0  0  0  0
  -20.3172  -31.7910   24.9789 C   0  0  0  0  0  0  0  0  0  0  0  0
  -24.6852  -28.7305   19.9357 C   0  0  0  0  0  0  0  0  0  0  0  0
  -21.5121  -31.2149   24.5072 C   0  0  0  0  0  0  0  0  0  0  0  0
  -24.7100  -27.3292   19.9770 C   0  0  0  0  0  0  0  0  0  0  0  0
  -29.2274  -21.8805   19.8874 C   0  0  0  0  0  0  0  0  0  0  0  0
  -28.6524  -22.1505   21.1243 C   0  0  0  0  0  0  0  0  0  0  0  0
  -22.3151   -8.1831   21.0558 C   0  0  0  0  0  0  0  0  0  0  0  0
  -27.1393  -27.3822   19.8993 C   0  0  0  0  0  0  0  0  0  0  0  0
  -21.3476   -6.0520   21.2672 C   0  0  0  0  0  0  0  0  0  0  0  0
  -21.4976   -3.4411   22.2382 C   0  0  0  0  0  0  0  0  0  0  0  0
  -21.3162   -4.9754   20.3808 C   0  0  0  0  0  0  0  0  0  0  0  0
  -25.5523  -10.7752   21.8921 C   0  0  0  0  0  0  0  0  0  0  0  0
  -28.8251  -24.4725   20.6394 C   0  0  0  0  0  0  0  0  0  0  0  0
  -29.5732  -22.9555   19.0846 C   0  0  0  0  0  0  0  0  0  0  0  0
  -27.1782  -11.8847   22.8723 C   0  0  0  0  0  0  0  0  0  0  0  0
  -25.9744  -10.2992   24.3842 C   0  0  0  0  0  0  0  0  0  0  0  0
  -22.2933  -28.5922   22.0244 C   0  0  0  0  0  0  0  0  0  0  0  0
  -20.9438  -26.6984   19.7628 C   0  0  0  0  0  0  0  0  0  0  0  0
  -21.3756  -24.6105   17.0981 C   0  0  0  0  0  0  0  0  0  0  0  0
  -28.9338  -16.5647   20.6282 C   0  0  0  0  0  0  0  0  0  0  0  0
  -19.0693  -30.9702   25.1881 C   0  0  0  0  0  0  0  0  0  0  0  0
  -23.3750  -29.4691   19.9228 C   0  0  0  0  0  0  0  0  0  0  0  0
  -23.4445  -26.5152   20.0427 C   0  0  0  0  0  0  0  0  0  0  0  0
  -19.0897  -29.6327   24.4526 C   0  0  0  0  0  0  0  0  0  0  0  0
  -28.8367  -13.8301   18.5162 C   0  0  0  0  0  0  0  0  0  0  0  0
  -20.4247  -28.9263   24.6662 C   0  0  0  0  0  0  0  0  0  0  0  0
  -28.0294  -12.7949   19.2990 C   0  0  0  0  0  0  0  0  0  0  0  0
  -30.4569  -19.7150   20.3569 C   0  0  0  0  0  0  0  0  0  0  0  0
  -28.1566  -19.6596   19.3009 C   0  0  0  0  0  0  0  0  0  0  0  0
  -28.2339  -15.2217   18.6693 C   0  0  0  0  0  0  0  0  0  0  0  0
  -30.6713  -18.2650   19.9135 C   0  0  0  0  0  0  0  0  0  0  0  0
  -28.4344  -18.2250   18.8611 C   0  0  0  0  0  0  0  0  0  0  0  0
  -27.2976  -14.6443   20.8848 C   0  0  0  0  0  0  0  0  0  0  0  0
  -29.4692  -20.4527   19.4352 C   0  0  0  0  0  0  0  0  0  0  0  0
  -21.5847  -29.7577   24.1054 C   0  0  1  0  0  0  0  0  0  0  0  0
  -22.2285  -28.6626   20.5249 C   0  0  1  0  0  0  0  0  0  0  0  0
  -27.8687  -13.2163   20.7704 C   0  0  1  0  0  0  0  0  0  0  0  0
  -28.2490  -21.0477   22.0464 C   0  0  0  0  0  0  0  0  0  0  0  0
  -30.1958  -22.7287   17.7457 C   0  0  0  0  0  0  0  0  0  0  0  0
  -29.8268  -26.5007   21.7466 C   0  0  0  0  0  0  0  0  0  0  0  0
  -20.0877  -23.1851   15.4834 C   0  0  0  0  0  0  0  0  0  0  0  0
  -20.5473  -24.5962   21.9385 C   0  0  0  0  0  0  0  0  0  0  0  0
  -20.1603  -22.9034   20.1350 C   0  0  0  0  0  0  0  0  0  0  0  0
  -18.6172  -24.8495   20.3684 C   0  0  0  0  0  0  0  0  0  0  0  0
  -22.3362  -26.1714   14.7744 C   0  0  0  0  0  0  0  0  0  0  0  0
  -28.6178  -25.8988   21.0260 C   0  0  1  0  0  0  0  0  0  1  0  0
  -20.9496  -25.2184   19.4652 C   0  0  1  0  0  0  0  0  0  0  0  0
  -20.6963  -24.5547   15.7417 C   0  0  2  0  0  0  0  0  0  0  0  0
  -20.0927  -24.4070   20.4775 C   0  0  0  0  0  0  0  0  0  0  0  0
  -26.0558  -11.5515   20.9289 N   0  0  0  0  0  0  0  0  0  0  0  0
  -29.3863  -24.2492   19.4300 N   0  0  0  0  0  0  0  0  0  0  0  0
  -27.0426  -12.2142   21.5558 N   0  0  0  0  0  0  0  0  0  0  0  0
  -22.1887  -27.2836   20.0340 N   0  0  0  0  0  0  0  0  0  0  0  0
  -28.0943  -15.5834   20.0798 N   0  0  0  0  0  0  0  0  0  0  0  0
  -29.3840  -17.5726   19.7622 N   0  0  0  0  0  0  0  0  0  0  0  0
  -28.1214  -12.4565   23.6506 N   0  0  0  0  0  0  0  0  0  0  0  0
  -24.9428   -9.3541   24.4681 N   0  0  0  0  0  0  0  0  0  0  0  0
  -21.6466  -29.6319   22.6650 N   0  0  0  0  0  0  0  0  0  0  0  0
  -20.5248  -25.0796   18.0765 N   0  0  0  0  0  0  0  0  0  0  0  0
  -21.6778  -24.8447   14.6585 N   0  3  0  0  0  0  0  0  0  0  0  0
  -26.6455  -10.5682   25.4093 O   0  0  0  0  0  0  0  0  0  0  0  0
  -22.8848  -27.6625   22.5607 O   0  0  0  0  0  0  0  0  0  0  0  0
  -19.8749  -27.3140   19.7480 O   0  0  0  0  0  0  0  0  0  0  0  0
  -22.5430  -24.2683   17.2730 O   0  0  0  0  0  0  0  0  0  0  0  0
  -29.2615  -16.5428   21.8212 O   0  0  0  0  0  0  0  0  0  0  0  0
  -21.2740   -7.3487   20.7866 O   0  0  0  0  0  0  0  0  0  0  0  0
  -28.3338  -26.7219   19.8864 O   0  0  0  0  0  0  0  0  0  1  0  0
  -21.5711   -2.1876   22.7045 F   0  0  0  0  0  0  0  0  0  0  0  0
  -21.2153   -5.1891   19.0618 F   0  0  0  0  0  0  0  0  0  0  0  0
  1  2  1  0  0  0  0
  1  5  2  0  0  0  0
  2  6  2  0  0  0  0
  3  8  2  0  0  0  0
  3 16  1  0  0  0  0
  4  9  1  0  0  0  0
  4 16  2  0  0  0  0
  5 18  1  0  0  0  0
  6 20  1  0  0  0  0
  7 10  2  0  0  0  0
  7 19  1  0  0  0  0
  8 24  1  0  0  0  0
  9 24  2  0  0  0  0
 10 25  1  0  0  0  0
 11 12  2  0  0  0  0
 11 26  1  0  0  0  0
 12 27  1  0  0  0  0
 13 21  1  0  0  0  0
 13 25  2  0  0  0  0
 14 23  2  0  0  0  0
 14 30  1  0  0  0  0
 15 27  2  0  0  0  0
 15 28  1  0  0  0  0
 16 29  1  0  0  0  0
 17 29  1  0  0  0  0
 17 32  2  0  0  0  0
 17 33  1  0  0  0  0
 18 20  2  0  0  0  0
 18 38  1  0  0  0  0
 19 21  2  0  0  0  0
 19 39  1  0  0  0  0
 20 52  1  0  0  0  0
 21 40  1  0  0  0  0
 22 23  1  0  0  0  0
 22 31  2  0  0  0  0
 22 51  1  0  0  0  0
 23 55  1  0  0  0  0
 24 83  1  0  0  0  0
 25 84  1  0  0  0  0
 26 28  2  0  0  0  0
 26 83  1  0  0  0  0
 27 85  1  0  0  0  0
 28 86  1  0  0  0  0
 29 67  2  0  0  0  0
 30 63  1  0  0  0  0
 30 68  2  0  0  0  0
 31 56  1  0  0  0  0
 31 68  1  0  0  0  0
 32 69  1  0  0  0  0
 32 73  1  0  0  0  0
 33 74  1  0  0  0  0
 33 78  2  0  0  0  0
 34 53  1  0  0  0  0
 34 75  1  0  0  0  0
 34 79  2  0  0  0  0
 35 64  1  0  0  0  0
 35 70  1  0  0  0  0
 35 80  2  0  0  0  0
 36 65  1  0  0  0  0
 36 76  1  0  0  0  0
 36 81  2  0  0  0  0
 37 71  1  0  0  0  0
 37 72  1  0  0  0  0
 37 82  2  0  0  0  0
 38 41  1  0  0  0  0
 39 53  1  0  0  0  0
 40 70  1  0  0  0  0
 41 43  1  0  0  0  0
 42 44  1  0  0  0  0
 42 47  1  0  0  0  0
 43 52  1  0  0  0  0
 44 54  1  0  0  0  0
 45 48  1  0  0  0  0
 45 51  1  0  0  0  0
 46 49  1  0  0  0  0
 46 51  1  0  0  0  0
 47 71  1  0  0  0  0
 48 72  1  0  0  0  0
 49 72  1  0  0  0  0
 50 54  1  0  0  0  0
 50 71  1  0  0  0  0
 52 75  1  0  0  0  0
 53 70  1  0  0  0  0
 54 69  1  0  0  0  0
 57 63  1  0  0  0  0
 58 65  1  0  0  0  0
 59 66  1  0  0  0  0
 60 66  1  0  0  0  0
 61 66  1  0  0  0  0
 62 77  1  0  0  0  0
 63 84  1  0  0  0  0
 64 66  1  0  0  0  0
 64 76  1  0  0  0  0
 65 77  1  0  0  0  0
 67 69  1  0  0  0  0
M  CHG  1  77   1
M  ISO  4  37 100  63 101  72 100  84 101
M  END
> <Batch ID>
0159

> <Smiles>
CNC(C)C(=O)NC(C(=O)N1Cc2cc([101O:1][101CH:1](C)c3cc(C)c(C4CC[100N:0]([100C:0](=O)N5CCCC(n6nc(-c7ccc(Oc8ccc(F)cc8F)cc7)c(C(N)=O)c6N)C5)CC4)c(C)n3)ccc2CC1C(=O)NC1CCCc2ccccc21)C(C)(C)C

> <Shape>
0.280

> <Color>
0.106

> <Negative vol penalty>
0.000

$$$$

  -OEChem-04052322073D

 85 94  0     1  0  0  0  0  0999 V2000
  -21.5921  -12.1735   20.4974 C   0  0  0  0  0  0  0  0  0  0  0  0
  -21.6228  -13.5415   20.7486 C   0  0  0  0  0  0  0  0  0  0  0  0
  -26.6000  -29.6214   20.5851 C   0  0  0  0  0  0  0  0  0  0  0  0
  -24.7457  -28.2724   19.8243 C   0  0  0  0  0  0  0  0  0  0  0  0
  -22.7803  -11.4447   20.4668 C   0  0  0  0  0  0  0  0  0  0  0  0
  -22.8418  -14.1812   20.9705 C   0  0  0  0  0  0  0  0  0  0  0  0
  -23.2305  -18.5518   18.4423 C   0  0  0  0  0  0  0  0  0  0  0  0
  -27.3986  -28.4804   20.6621 C   0  0  0  0  0  0  0  0  0  0  0  0
  -25.5443  -27.1314   19.9012 C   0  0  0  0  0  0  0  0  0  0  0  0
  -22.5631  -19.6553   18.9721 C   0  0  0  0  0  0  0  0  0  0  0  0
  -29.1275  -26.5018   18.5340 C   0  0  0  0  0  0  0  0  0  0  0  0
  -30.4200  -26.5790   18.0154 C   0  0  0  0  0  0  0  0  0  0  0  0
  -24.6357  -20.4462   19.9198 C   0  0  0  0  0  0  0  0  0  0  0  0
  -22.0645  -24.6807   20.6188 C   0  0  0  0  0  0  0  0  0  0  0  0
  -31.3250  -26.0501   20.1921 C   0  0  0  0  0  0  0  0  0  0  0  0
  -25.2735  -29.5175   20.1663 C   0  0  0  0  0  0  0  0  0  0  0  0
  -24.2844  -31.5461   18.9772 C   0  0  0  0  0  0  0  0  0  0  0  0
  -24.0152  -12.0775   20.6788 C   0  0  0  0  0  0  0  0  0  0  0  0
  -24.6057  -18.3812   18.6570 C   0  0  0  0  0  0  0  0  0  0  0  0
  -24.0475  -13.4599   20.9440 C   0  0  0  0  0  0  0  0  0  0  0  0
  -25.3187  -19.3410   19.3896 C   0  0  0  0  0  0  0  0  0  0  0  0
  -20.8665  -25.7514   22.4230 C   0  0  0  0  0  0  0  0  0  0  0  0
  -21.2405  -25.7073   21.0800 C   0  0  0  0  0  0  0  0  0  0  0  0
  -22.5145  -23.6981   21.5007 C   0  0  0  0  0  0  0  0  0  0  0  0
  -21.3166  -24.7689   23.3050 C   0  0  0  0  0  0  0  0  0  0  0  0
  -22.1406  -23.7422   22.8437 C   0  0  0  0  0  0  0  0  0  0  0  0
  -26.8708  -27.2354   20.3201 C   0  0  0  0  0  0  0  0  0  0  0  0
  -23.2652  -20.6012   19.7134 C   0  0  0  0  0  0  0  0  0  0  0  0
  -28.9337  -26.1988   19.8817 C   0  0  0  0  0  0  0  0  0  0  0  0
  -31.5188  -26.3531   18.8444 C   0  0  0  0  0  0  0  0  0  0  0  0
  -30.0324  -25.9729   20.7108 C   0  0  0  0  0  0  0  0  0  0  0  0
  -24.4480  -30.6957   20.0871 C   0  0  0  0  0  0  0  0  0  0  0  0
  -23.4055  -32.5091   19.4091 C   0  0  0  0  0  0  0  0  0  0  0  0
  -24.8742  -31.4721   17.6725 C   0  0  0  0  0  0  0  0  0  0  0  0
  -26.3959  -16.1835   20.0953 C   0  0  0  0  0  0  0  0  0  0  0  0
  -28.8379  -17.9348   18.8739 C   0  0  0  0  0  0  0  0  0  0  0  0
  -29.9448  -20.9460   17.7103 C   0  0  0  0  0  0  0  0  0  0  0  0
  -19.4419  -30.4123   21.8779 C   0  0  0  0  0  0  0  0  0  0  0  0
  -25.2692  -11.2395   20.6829 C   0  0  0  0  0  0  0  0  0  0  0  0
  -25.3160  -17.1993   18.0562 C   0  0  0  0  0  0  0  0  0  0  0  0
  -26.7999  -19.2146   19.6314 C   0  0  0  0  0  0  0  0  0  0  0  0
  -26.5504  -12.0598   20.5568 C   0  0  0  0  0  0  0  0  0  0  0  0
  -22.3686  -31.5962   23.8143 C   0  0  0  0  0  0  0  0  0  0  0  0
  -26.5151  -13.2542   21.5050 C   0  0  0  0  0  0  0  0  0  0  0  0
  -22.6934  -32.9099   23.1012 C   0  0  0  0  0  0  0  0  0  0  0  0
  -18.6092  -26.9371   22.2275 C   0  0  0  0  0  0  0  0  0  0  0  0
  -20.8782  -31.3051   23.7379 C   0  0  0  0  0  0  0  0  0  0  0  0
  -18.1716  -28.3679   22.4940 C   0  0  0  0  0  0  0  0  0  0  0  0
  -20.5589  -28.2710   22.7275 C   0  0  0  0  0  0  0  0  0  0  0  0
  -20.6839  -32.5317   21.6046 C   0  0  0  0  0  0  0  0  0  0  0  0
  -19.9751  -26.8628   22.9192 C   0  0  2  0  0  0  0  0  0  0  0  0
  -25.3522  -14.1942   21.1650 C   0  0  1  0  0  0  0  0  0  0  0  0
  -26.6196  -16.8586   18.7717 C   0  0  1  0  0  0  0  0  0  0  0  0
  -22.1733  -32.9400   21.6461 C   0  0  2  0  0  0  0  0  0  0  0  0
  -20.7729  -26.7473   20.1151 C   0  0  0  0  0  0  0  0  0  0  0  0
  -20.9150  -24.8158   24.7456 C   0  0  0  0  0  0  0  0  0  0  0  0
  -22.6253  -22.6875   23.7875 C   0  0  0  0  0  0  0  0  0  0  0  0
  -31.9989  -22.0791   16.8190 C   0  0  0  0  0  0  0  0  0  0  0  0
  -29.9797  -18.0825   21.6996 C   0  0  0  0  0  0  0  0  0  0  0  0
  -31.4458  -19.9620   20.9340 C   0  0  0  0  0  0  0  0  0  0  0  0
  -31.6802  -17.7013   19.9059 C   0  0  0  0  0  0  0  0  0  0  0  0
  -28.6362  -21.5390   15.1229 C   0  0  0  0  0  0  0  0  0  0  0  0
  -23.3952  -22.6092   20.9811 C   0  0  0  0  0  0  0  0  0  1  0  0
  -29.6549  -19.1102   19.3535 C   0  0  1  0  0  0  0  0  0  0  0  0
  -30.7306  -21.3179   16.4658 C   0  0  2  0  0  0  0  0  0  0  0  0
  -30.6619  -18.7156   20.4705 C   0  0  0  0  0  0  0  0  0  0  0  0
  -23.7306  -31.0844   21.1446 N   0  0  0  0  0  0  0  0  0  0  0  0
  -23.1079  -32.1896   20.7012 N   0  0  0  0  0  0  0  0  0  0  0  0
  -27.4483  -18.0382   19.0288 N   0  0  0  0  0  0  0  0  0  0  0  0
  -20.4200  -31.2971   22.3492 N   0  0  0  0  0  0  0  0  0  0  0  0
  -19.4081  -29.1389   22.4545 N   0  0  0  0  0  0  0  0  0  0  0  0
  -22.8660  -33.5896   18.8059 N   0  0  0  0  0  0  0  0  0  0  0  0
  -25.7554  -30.4178   17.3964 N   0  0  0  0  0  0  0  0  0  0  0  0
  -25.6786  -15.0054   20.0118 N   0  0  0  0  0  0  0  0  0  0  0  0
  -30.2757  -19.6874   18.1661 N   0  0  0  0  0  0  0  0  0  0  0  0
  -29.9040  -22.1729   15.5676 N   0  3  0  0  0  0  0  0  0  0  0  0
  -24.6397  -32.3251   16.7831 O   0  0  0  0  0  0  0  0  0  0  0  0
  -26.8424  -16.6929   21.1165 O   0  0  0  0  0  0  0  0  0  0  0  0
  -29.4111  -16.9638   18.3736 O   0  0  0  0  0  0  0  0  0  0  0  0
  -29.1228  -21.6984   18.2286 O   0  0  0  0  0  0  0  0  0  0  0  0
  -18.6886  -30.7257   20.9477 O   0  0  0  0  0  0  0  0  0  0  0  0
  -27.6498  -26.1218   20.3949 O   0  0  0  0  0  0  0  0  0  0  0  0
  -22.6114  -21.6866   20.2358 O   0  0  0  0  0  0  0  0  0  1  0  0
  -32.7599  -26.4258   18.3459 F   0  0  0  0  0  0  0  0  0  0  0  0
  -29.8525  -25.6803   22.0061 F   0  0  0  0  0  0  0  0  0  0  0  0
  1  2  1  0  0  0  0
  1  5  2  0  0  0  0
  2  6  2  0  0  0  0
  3  8  2  0  0  0  0
  3 16  1  0  0  0  0
  4  9  1  0  0  0  0
  4 16  2  0  0  0  0
  5 18  1  0  0  0  0
  6 20  1  0  0  0  0
  7 10  2  0  0  0  0
  7 19  1  0  0  0  0
  8 27  1  0  0  0  0
  9 27  2  0  0  0  0
 10 28  1  0  0  0  0
 11 12  2  0  0  0  0
 11 29  1  0  0  0  0
 12 30  1  0  0  0  0
 13 21  1  0  0  0  0
 13 28  2  0  0  0  0
 14 23  2  0  0  0  0
 14 24  1  0  0  0  0
 15 30  2  0  0  0  0
 15 31  1  0  0  0  0
 16 32  1  0  0  0  0
 17 32  1  0  0  0  0
 17 33  2  0  0  0  0
 17 34  1  0  0  0  0
 18 20  2  0  0  0  0
 18 39  1  0  0  0  0
 19 21  2  0  0  0  0
 19 40  1  0  0  0  0
 20 52  1  0  0  0  0
 21 41  1  0  0  0  0
 22 23  1  0  0  0  0
 22 25  2  0  0  0  0
 22 51  1  0  0  0  0
 23 55  1  0  0  0  0
 24 26  2  0  0  0  0
 24 63  1  0  0  0  0
 25 26  1  0  0  0  0
 25 56  1  0  0  0  0
 26 57  1  0  0  0  0
 27 82  1  0  0  0  0
 28 83  1  0  0  0  0
 29 31  2  0  0  0  0
 29 82  1  0  0  0  0
 30 84  1  0  0  0  0
 31 85  1  0  0  0  0
 32 67  2  0  0  0  0
 33 68  1  0  0  0  0
 33 72  1  0  0  0  0
 34 73  1  0  0  0  0
 34 77  2  0  0  0  0
 35 53  1  0  0  0  0
 35 74  1  0  0  0  0
 35 78  2  0  0  0  0
 36 64  1  0  0  0  0
 36 69  1  0  0  0  0
 36 79  2  0  0  0  0
 37 65  1  0  0  0  0
 37 75  1  0  0  0  0
 37 80  2  0  0  0  0
 38 70  1  0  0  0  0
 38 71  1  0  0  0  0
 38 81  2  0  0  0  0
 39 42  1  0  0  0  0
 40 53  1  0  0  0  0
 41 69  1  0  0  0  0
 42 44  1  0  0  0  0
 43 45  1  0  0  0  0
 43 47  1  0  0  0  0
 44 52  1  0  0  0  0
 45 54  1  0  0  0  0
 46 48  1  0  0  0  0
 46 51  1  0  0  0  0
 47 70  1  0  0  0  0
 48 71  1  0  0  0  0
 49 51  1  0  0  0  0
 49 71  1  0  0  0  0
 50 54  1  0  0  0  0
 50 70  1  0  0  0  0
 52 74  1  0  0  0  0
 53 69  1  0  0  0  0
 54 68  1  0  0  0  0
 58 65  1  0  0  0  0
 59 66  1  0  0  0  0
 60 66  1  0  0  0  0
 61 66  1  0  0  0  0
 62 76  1  0  0  0  0
 63 83  1  0  0  0  0
 64 66  1  0  0  0  0
 64 75  1  0  0  0  0
 65 76  1  0  0  0  0
 67 68  1  0  0  0  0
M  CHG  1  76   1
M  ISO  4  38 100  63 101  71 100  83 101
M  END
> <Batch ID>
0159

> <Smiles>
CNC(C)C(=O)NC(C(=O)N1Cc2cc([101O:1][101CH2:1]c3cc(C)c(C4CC[100N:0]([100C:0](=O)N5CCCC(n6nc(-c7ccc(Oc8ccc(F)cc8F)cc7)c(C(N)=O)c6N)C5)C4)c(C)c3C)ccc2CC1C(=O)NC1CCCc2ccccc21)C(C)(C)C

> <Shape>
0.239

> <Color>
0.083

> <Negative vol penalty>
0.000

$$$$

  -OEChem-04052322073D

 85 94  0     1  0  0  0  0  0999 V2000
  -18.6783  -24.3890   24.9272 C   0  0  0  0  0  0  0  0  0  0  0  0
  -19.9866  -24.0695   24.5786 C   0  0  0  0  0  0  0  0  0  0  0  0
  -23.1131   -9.7867   19.9600 C   0  0  0  0  0  0  0  0  0  0  0  0
  -23.6611  -10.0239   22.3010 C   0  0  0  0  0  0  0  0  0  0  0  0
  -18.1031  -25.5711   24.4626 C   0  0  0  0  0  0  0  0  0  0  0  0
  -20.7202  -24.9314   23.7641 C   0  0  0  0  0  0  0  0  0  0  0  0
  -25.4398  -25.6527   25.4525 C   0  0  0  0  0  0  0  0  0  0  0  0
  -22.3732   -8.6402   20.2493 C   0  0  0  0  0  0  0  0  0  0  0  0
  -22.9211   -8.8774   22.5904 C   0  0  0  0  0  0  0  0  0  0  0  0
  -26.3664  -24.6410   25.2043 C   0  0  0  0  0  0  0  0  0  0  0  0
  -23.3288   -5.5282   22.3728 C   0  0  0  0  0  0  0  0  0  0  0  0
  -23.8972   -4.5904   23.2348 C   0  0  0  0  0  0  0  0  0  0  0  0
  -27.2356  -25.9026   23.3409 C   0  0  0  0  0  0  0  0  0  0  0  0
  -22.0445   -4.8698   24.7602 C   0  0  0  0  0  0  0  0  0  0  0  0
  -23.7571  -10.4785   20.9858 C   0  0  0  0  0  0  0  0  0  0  0  0
  -24.0571  -12.9910   20.6620 C   0  0  0  0  0  0  0  0  0  0  0  0
  -18.8333  -26.4526   23.6499 C   0  0  0  0  0  0  0  0  0  0  0  0
  -25.3968  -26.7939   24.6387 C   0  0  0  0  0  0  0  0  0  0  0  0
  -20.1539  -26.1256   23.2870 C   0  0  0  0  0  0  0  0  0  0  0  0
  -26.3091  -26.9285   23.5824 C   0  0  0  0  0  0  0  0  0  0  0  0
  -29.8127  -19.3116   22.9047 C   0  0  0  0  0  0  0  0  0  0  0  0
  -31.1057  -19.7141   22.5751 C   0  0  0  0  0  0  0  0  0  0  0  0
  -29.3585  -18.0498   22.5800 C   0  0  0  0  0  0  0  0  0  0  0  0
  -22.2771   -8.1856   21.5645 C   0  0  0  0  0  0  0  0  0  0  0  0
  -27.2626  -24.7645   24.1466 C   0  0  0  0  0  0  0  0  0  0  0  0
  -22.1183   -6.1368   22.7045 C   0  0  0  0  0  0  0  0  0  0  0  0
  -23.2550   -4.2612   24.4285 C   0  0  0  0  0  0  0  0  0  0  0  0
  -21.4762   -5.8076   23.8981 C   0  0  0  0  0  0  0  0  0  0  0  0
  -24.5221  -11.6625   20.6875 C   0  0  0  0  0  0  0  0  0  0  0  0
  -31.9286  -18.8270   21.9203 C   0  0  0  0  0  0  0  0  0  0  0  0
  -30.2558  -17.2288   21.9131 C   0  0  0  0  0  0  0  0  0  0  0  0
  -25.1623  -13.7353   20.3287 C   0  0  0  0  0  0  0  0  0  0  0  0
  -22.7436  -13.5062   20.9167 C   0  0  0  0  0  0  0  0  0  0  0  0
  -23.2250  -28.1004   22.7203 C   0  0  0  0  0  0  0  0  0  0  0  0
  -25.4091  -30.4903   22.5188 C   0  0  0  0  0  0  0  0  0  0  0  0
  -28.6687  -31.4661   22.7825 C   0  0  0  0  0  0  0  0  0  0  0  0
  -30.5677  -14.9483   20.8892 C   0  0  0  0  0  0  0  0  0  0  0  0
  -18.1532  -27.6955   23.1331 C   0  0  0  0  0  0  0  0  0  0  0  0
  -24.4089  -27.8885   24.9360 C   0  0  0  0  0  0  0  0  0  0  0  0
  -26.3176  -28.1430   22.6917 C   0  0  0  0  0  0  0  0  0  0  0  0
  -29.0914  -20.3957   23.6309 C   0  0  0  0  0  0  0  0  0  0  0  0
  -19.1241  -28.7365   22.5816 C   0  0  0  0  0  0  0  0  0  0  0  0
  -29.7224  -12.2983   18.6665 C   0  0  0  0  0  0  0  0  0  0  0  0
  -20.1486  -28.0775   21.6635 C   0  0  0  0  0  0  0  0  0  0  0  0
  -28.2559  -12.0059   18.9921 C   0  0  0  0  0  0  0  0  0  0  0  0
  -30.5196  -12.6615   19.9180 C   0  0  0  0  0  0  0  0  0  0  0  0
  -28.4807  -13.4537   21.0513 C   0  0  0  0  0  0  0  0  0  0  0  0
  -20.9902  -27.0470   22.4257 C   0  0  1  0  0  0  0  0  0  0  0  0
  -31.3731  -21.1043   23.0554 C   0  0  1  0  0  0  0  0  0  0  0  0
  -24.1146  -28.7722   23.7278 C   0  0  1  0  0  0  0  0  0  0  0  0
  -27.6227  -13.1463   19.8132 C   0  0  2  0  0  0  0  0  0  0  0  0
  -27.9805  -17.6147   22.9372 C   0  0  0  0  0  0  0  0  0  0  0  0
  -33.3385  -19.1702   21.5847 C   0  0  0  0  0  0  0  0  0  0  0  0
  -31.9080  -22.0676   22.0025 C   0  0  0  0  0  0  0  0  0  0  0  0
  -30.1512  -33.4739   22.5211 C   0  0  0  0  0  0  0  0  0  0  0  0
  -25.2550  -30.2061   19.4847 C   0  0  0  0  0  0  0  0  0  0  0  0
  -27.3841  -31.5136   19.3240 C   0  0  0  0  0  0  0  0  0  0  0  0
  -25.3477  -32.5658   20.3081 C   0  0  0  0  0  0  0  0  0  0  0  0
  -29.4946  -31.3705   25.6228 C   0  0  0  0  0  0  0  0  0  0  0  0
  -30.0325  -22.4722   24.7486 C   0  0  0  0  0  0  0  0  0  0  0  0
  -28.6390  -22.9949   25.0366 C   0  0  0  0  0  0  0  0  0  1  0  0
  -26.5835  -30.7924   21.6196 C   0  0  1  0  0  0  0  0  0  0  0  0
  -29.3127  -32.6481   23.4843 C   0  0  2  0  0  0  0  0  0  0  0  0
  -26.1414  -31.2456   20.1995 C   0  0  0  0  0  0  0  0  0  0  0  0
  -25.8214  -11.5652   20.3937 N   0  0  0  0  0  0  0  0  0  0  0  0
  -31.5252  -17.5824   21.5754 N   0  0  0  0  0  0  0  0  0  0  0  0
  -26.1823  -12.8421   20.1804 N   0  0  0  0  0  0  0  0  0  0  0  0
  -25.3283  -29.1830   23.0190 N   0  0  0  0  0  0  0  0  0  0  0  0
  -29.8624  -13.7514   20.6426 N   0  0  0  0  0  0  0  0  0  0  0  0
  -25.3514  -15.0601   20.1510 N   0  0  0  0  0  0  0  0  0  0  0  0
  -21.7239  -12.6029   21.2462 N   0  0  0  0  0  0  0  0  0  0  0  0
  -29.8299  -15.9250   21.5572 N   0  0  0  0  0  0  0  0  0  0  0  0
  -21.9992  -27.7095   23.2242 N   0  0  0  0  0  0  0  0  0  0  0  0
  -27.4016  -31.7688   22.3307 N   0  0  0  0  0  0  0  0  0  0  0  0
  -29.9977  -21.6324   23.5248 N   0  3  2  0  0  0  0  0  0  0  0  0
  -30.1941  -32.1768   24.5897 N   0  3  0  0  0  0  0  0  0  0  0  0
  -22.4782  -14.7297   20.8381 O   0  0  0  0  0  0  0  0  0  0  0  0
  -23.6209  -27.9493   21.5704 O   0  0  0  0  0  0  0  0  0  0  0  0
  -24.5973  -31.3834   22.7738 O   0  0  0  0  0  0  0  0  0  0  0  0
  -29.2346  -30.3838   22.6452 O   0  0  0  0  0  0  0  0  0  0  0  0
  -31.7309  -15.1060   20.5098 O   0  0  0  0  0  0  0  0  0  0  0  0
  -21.5549   -7.0671   21.8472 O   0  0  0  0  0  0  0  0  0  0  0  0
  -28.1676  -23.7782   23.9017 O   0  0  0  0  0  0  0  0  0  1  0  0
  -23.8002   -3.3595   25.2555 F   0  0  0  0  0  0  0  0  0  0  0  0
  -20.3125   -6.3881   24.2216 F   0  0  0  0  0  0  0  0  0  0  0  0
  1  2  1  0  0  0  0
  1  5  2  0  0  0  0
  2  6  2  0  0  0  0
  3  8  2  0  0  0  0
  3 15  1  0  0  0  0
  4  9  1  0  0  0  0
  4 15  2  0  0  0  0
  5 17  1  0  0  0  0
  6 19  1  0  0  0  0
  7 10  2  0  0  0  0
  7 18  1  0  0  0  0
  8 24  1  0  0  0  0
  9 24  2  0  0  0  0
 10 25  1  0  0  0  0
 11 12  2  0  0  0  0
 11 26  1  0  0  0  0
 12 27  1  0  0  0  0
 13 20  1  0  0  0  0
 13 25  2  0  0  0  0
 14 27  2  0  0  0  0
 14 28  1  0  0  0  0
 15 29  1  0  0  0  0
 16 29  1  0  0  0  0
 16 32  2  0  0  0  0
 16 33  1  0  0  0  0
 17 19  2  0  0  0  0
 17 38  1  0  0  0  0
 18 20  2  0  0  0  0
 18 39  1  0  0  0  0
 19 48  1  0  0  0  0
 20 40  1  0  0  0  0
 21 22  2  0  0  0  0
 21 23  1  0  0  0  0
 21 41  1  0  0  0  0
 22 30  1  0  0  0  0
 22 49  1  0  0  0  0
 23 31  2  0  0  0  0
 23 52  1  0  0  0  0
 24 82  1  0  0  0  0
 25 83  1  0  0  0  0
 26 28  2  0  0  0  0
 26 82  1  0  0  0  0
 27 84  1  0  0  0  0
 28 85  1  0  0  0  0
 29 65  2  0  0  0  0
 30 53  1  0  0  0  0
 30 66  2  0  0  0  0
 31 66  1  0  0  0  0
 31 72  1  0  0  0  0
 32 67  1  0  0  0  0
 32 70  1  0  0  0  0
 33 71  1  0  0  0  0
 33 77  2  0  0  0  0
 34 50  1  0  0  0  0
 34 73  1  0  0  0  0
 34 78  2  0  0  0  0
 35 62  1  0  0  0  0
 35 68  1  0  0  0  0
 35 79  2  0  0  0  0
 36 63  1  0  0  0  0
 36 74  1  0  0  0  0
 36 80  2  0  0  0  0
 37 69  1  0  0  0  0
 37 72  1  0  0  0  0
 37 81  2  0  0  0  0
 38 42  1  0  0  0  0
 39 50  1  0  0  0  0
 40 68  1  0  0  0  0
 41 75  1  0  0  0  0
 42 44  1  0  0  0  0
 43 45  1  0  0  0  0
 43 46  1  0  0  0  0
 44 48  1  0  0  0  0
 45 51  1  0  0  0  0
 46 69  1  0  0  0  0
 47 51  1  0  0  0  0
 47 69  1  0  0  0  0
 48 73  1  0  0  0  0
 49 54  1  0  0  0  0
 49 75  1  0  0  0  0
 50 68  1  0  0  0  0
 51 67  1  0  0  0  0
 55 63  1  0  0  0  0
 56 64  1  0  0  0  0
 57 64  1  0  0  0  0
 58 64  1  0  0  0  0
 59 76  1  0  0  0  0
 60 61  1  0  0  0  0
 60 75  1  0  0  0  0
 61 83  1  0  0  0  0
 62 64  1  0  0  0  0
 62 74  1  0  0  0  0
 63 76  1  0  0  0  0
 65 67  1  0  0  0  0
M  CHG  2  75   1  76   1
M  ISO  4  37 100  61 101  72 100  83 101
M  END
> <Batch ID>
0159

> <Smiles>
CNC(C)C(=O)NC(C(=O)N1Cc2cc([101O:1][101CH2:1]CN3Cc4c(C)c([100NH:0][100C:0](=O)N5CCCC(n6nc(-c7ccc(Oc8ccc(F)cc8F)cc7)c(C(N)=O)c6N)C5)nc(C)c4C3C)ccc2CC1C(=O)NC1CCCc2ccccc21)C(C)(C)C

> <Shape>
0.281

> <Color>
0.204

> <Negative vol penalty>
0.000

$$$$

  -OEChem-04052322073D

 91101  0     1  0  0  0  0  0999 V2000
  -23.5867  -37.8286   22.5713 C   0  0  0  0  0  0  0  0  0  0  0  0
  -24.3560  -37.1010   21.6690 C   0  0  0  0  0  0  0  0  0  0  0  0
  -23.4228   -9.5177   19.7997 C   0  0  0  0  0  0  0  0  0  0  0  0
  -23.9012  -10.0396   22.1096 C   0  0  0  0  0  0  0  0  0  0  0  0
  -23.2403  -37.2689   23.8004 C   0  0  0  0  0  0  0  0  0  0  0  0
  -24.7803  -35.8135   21.9958 C   0  0  0  0  0  0  0  0  0  0  0  0
  -26.1880  -29.4670   18.9863 C   0  0  0  0  0  0  0  0  0  0  0  0
  -22.1120   -9.1891   20.1454 C   0  0  0  0  0  0  0  0  0  0  0  0
  -22.5904   -9.7110   22.4554 C   0  0  0  0  0  0  0  0  0  0  0  0
  -27.1956  -28.5056   18.9213 C   0  0  0  0  0  0  0  0  0  0  0  0
  -20.7856   -6.9036   22.9958 C   0  0  0  0  0  0  0  0  0  0  0  0
  -20.5932   -6.1106   24.1270 C   0  0  0  0  0  0  0  0  0  0  0  0
  -26.4703  -27.6108   21.0408 C   0  0  0  0  0  0  0  0  0  0  0  0
  -29.9898  -24.4068   18.0539 C   0  0  0  0  0  0  0  0  0  0  0  0
  -32.1557  -24.5670   19.8048 C   0  0  0  0  0  0  0  0  0  0  0  0
  -19.2802   -7.8695   25.1366 C   0  0  0  0  0  0  0  0  0  0  0  0
  -24.3174   -9.9429   20.7818 C   0  0  0  0  0  0  0  0  0  0  0  0
  -26.6305   -9.4399   19.8309 C   0  0  0  0  0  0  0  0  0  0  0  0
  -23.6525  -35.9703   24.1385 C   0  0  0  0  0  0  0  0  0  0  0  0
  -25.3194  -29.5145   20.0861 C   0  0  0  0  0  0  0  0  0  0  0  0
  -24.4402  -35.2364   23.2311 C   0  0  0  0  0  0  0  0  0  0  0  0
  -25.4509  -28.5722   21.1162 C   0  0  0  0  0  0  0  0  0  0  0  0
  -30.1630  -25.5411   18.8470 C   0  0  0  0  0  0  0  0  0  0  0  0
  -30.8995  -23.3526   18.1362 C   0  0  0  0  0  0  0  0  0  0  0  0
  -31.2460  -25.6212   19.7224 C   0  0  0  0  0  0  0  0  0  0  0  0
  -21.6958   -9.2857   21.4732 C   0  0  0  0  0  0  0  0  0  0  0  0
  -27.3387  -27.5792   19.9500 C   0  0  0  0  0  0  0  0  0  0  0  0
  -20.2254   -8.1796   22.9350 C   0  0  0  0  0  0  0  0  0  0  0  0
  -31.9825  -23.4327   19.0117 C   0  0  0  0  0  0  0  0  0  0  0  0
  -19.8404   -6.5935   25.1974 C   0  0  0  0  0  0  0  0  0  0  0  0
  -19.4727   -8.6625   24.0054 C   0  0  0  0  0  0  0  0  0  0  0  0
  -25.6717  -10.2820   20.4254 C   0  0  0  0  0  0  0  0  0  0  0  0
  -27.7463  -10.2298   19.6986 C   0  0  0  0  0  0  0  0  0  0  0  0
  -26.5221   -8.0666   19.4337 C   0  0  0  0  0  0  0  0  0  0  0  0
  -24.6731  -31.6573   22.3432 C   0  0  0  0  0  0  0  0  0  0  0  0
  -22.3573  -29.5336   23.1494 C   0  0  0  0  0  0  0  0  0  0  0  0
  -21.2326  -26.3121   23.0901 C   0  0  0  0  0  0  0  0  0  0  0  0
  -28.2002  -16.2276   19.4250 C   0  0  0  0  0  0  0  0  0  0  0  0
  -23.2933  -35.4255   25.4982 C   0  0  0  0  0  0  0  0  0  0  0  0
  -24.2208  -30.5410   20.1284 C   0  0  0  0  0  0  0  0  0  0  0  0
  -24.5313  -28.5678   22.3090 C   0  0  0  0  0  0  0  0  0  0  0  0
  -23.4674  -33.9134   25.6140 C   0  0  0  0  0  0  0  0  0  0  0  0
  -28.8055  -13.9415   22.4559 C   0  0  0  0  0  0  0  0  0  0  0  0
  -24.8102  -33.4845   25.0310 C   0  0  0  0  0  0  0  0  0  0  0  0
  -31.6445  -21.5032   14.9064 C   0  0  0  0  0  0  0  0  0  0  0  0
  -32.2426  -22.8362   15.2601 C   0  0  0  0  0  0  0  0  0  0  0  0
  -29.1122  -12.7210   21.5931 C   0  0  0  0  0  0  0  0  0  0  0  0
  -29.0939  -19.8005   19.8386 C   0  0  0  0  0  0  0  0  0  0  0  0
  -30.1766  -18.4299   18.0195 C   0  0  0  0  0  0  0  0  0  0  0  0
  -28.9208  -15.2274   21.6433 C   0  0  0  0  0  0  0  0  0  0  0  0
  -27.4381  -13.9603   20.0882 C   0  0  0  0  0  0  0  0  0  0  0  0
  -29.2421  -21.0483   18.9778 C   0  0  0  0  0  0  0  0  0  0  0  0
  -30.3205  -19.6849   17.1686 C   0  0  0  0  0  0  0  0  0  0  0  0
  -24.8987  -33.8275   23.5391 C   0  0  1  0  0  0  0  0  0  0  0  0
  -23.7175  -30.8196   21.5414 C   0  0  1  0  0  0  0  0  0  0  0  0
  -31.8834  -21.8614   16.3470 C   0  0  0  0  0  0  0  0  0  0  0  0
  -28.2778  -12.6872   20.2941 C   0  0  2  0  0  0  0  0  0  0  0  0
  -28.9948  -18.5368   18.9833 C   0  0  0  0  0  0  0  0  0  0  0  0
  -31.4524  -26.8252   20.5816 C   0  0  0  0  0  0  0  0  0  0  0  0
  -19.3251  -24.8770   23.8641 C   0  0  0  0  0  0  0  0  0  0  0  0
  -23.4766  -29.5809   25.9875 C   0  0  0  0  0  0  0  0  0  0  0  0
  -22.1909  -27.4841   26.4549 C   0  0  0  0  0  0  0  0  0  0  0  0
  -20.9794  -29.5793   25.8508 C   0  0  0  0  0  0  0  0  0  0  0  0
  -20.5081  -25.5770   20.3163 C   0  0  0  0  0  0  0  0  0  0  0  0
  -33.9562  -22.5773   20.0258 C   0  0  0  0  0  0  0  0  0  0  0  0
  -29.1710  -26.6619   18.7428 C   0  0  0  0  0  0  0  0  0  1  0  0
  -30.6992  -22.1465   17.2792 C   0  0  1  0  0  0  0  0  0  0  0  0
  -22.2752  -28.3392   24.0689 C   0  0  1  0  0  0  0  0  0  0  0  0
  -19.8805  -25.7237   22.7295 C   0  0  2  0  0  0  0  0  0  0  0  0
  -22.2493  -28.7469   25.5691 C   0  0  0  0  0  0  0  0  0  0  0  0
  -26.1377  -11.5125   20.6551 N   0  0  0  0  0  0  0  0  0  0  0  0
  -27.4015  -11.4494   20.2026 N   0  0  0  0  0  0  0  0  0  0  0  0
  -23.4767  -29.5951   22.3074 N   0  0  0  0  0  0  0  0  0  0  0  0
  -28.2170  -15.1707   20.3558 N   0  0  0  0  0  0  0  0  0  0  0  0
  -28.9789   -9.9932   19.2015 N   0  0  0  0  0  0  0  0  0  0  0  0
  -26.8540   -7.0734   20.3652 N   0  0  0  0  0  0  0  0  0  0  0  0
  -24.1506  -32.8685   22.7548 N   0  0  0  0  0  0  0  0  0  0  0  0
  -21.1118  -27.5716   23.6381 N   0  0  0  0  0  0  0  0  0  0  0  0
  -28.9097  -17.3609   19.8143 N   0  0  0  0  0  0  0  0  0  0  0  0
  -30.4362  -20.8926   18.0671 N   0  3  0  0  0  0  0  0  0  0  0  0
  -19.9957  -24.8662   21.5161 N   0  3  0  0  0  0  0  0  0  0  0  0
  -26.1580   -7.7303   18.2813 O   0  0  0  0  0  0  0  0  0  0  0  0
  -25.8004  -31.2352   22.5728 O   0  0  0  0  0  0  0  0  0  0  0  0
  -21.4576  -30.3773   23.1721 O   0  0  0  0  0  0  0  0  0  0  0  0
  -22.2900  -25.7127   22.9075 O   0  0  0  0  0  0  0  0  0  0  0  0
  -27.6041  -16.1668   18.3454 O   0  0  0  0  0  0  0  0  0  0  0  0
  -20.4168   -8.9654   21.8109 O   0  0  0  0  0  0  0  0  0  0  0  0
  -32.8795  -22.4114   19.1054 O   0  0  0  0  0  0  0  0  0  0  0  0
  -28.3218  -26.6401   19.8894 O   0  0  0  0  0  0  0  0  0  1  0  0
  -19.6544   -5.8313   26.2830 F   0  0  0  0  0  0  0  0  0  0  0  0
  -18.9311   -9.8871   23.9523 F   0  0  0  0  0  0  0  0  0  0  0  0
  1  2  1  0  0  0  0
  1  5  2  0  0  0  0
  2  6  2  0  0  0  0
  3  8  2  0  0  0  0
  3 17  1  0  0  0  0
  4  9  1  0  0  0  0
  4 17  2  0  0  0  0
  5 19  1  0  0  0  0
  6 21  1  0  0  0  0
  7 10  2  0  0  0  0
  7 20  1  0  0  0  0
  8 26  1  0  0  0  0
  9 26  2  0  0  0  0
 10 27  1  0  0  0  0
 11 12  2  0  0  0  0
 11 28  1  0  0  0  0
 12 30  1  0  0  0  0
 13 22  1  0  0  0  0
 13 27  2  0  0  0  0
 14 23  1  0  0  0  0
 14 24  2  0  0  0  0
 15 25  1  0  0  0  0
 15 29  2  0  0  0  0
 16 30  2  0  0  0  0
 16 31  1  0  0  0  0
 17 32  1  0  0  0  0
 18 32  1  0  0  0  0
 18 33  2  0  0  0  0
 18 34  1  0  0  0  0
 19 21  2  0  0  0  0
 19 39  1  0  0  0  0
 20 22  2  0  0  0  0
 20 40  1  0  0  0  0
 21 54  1  0  0  0  0
 22 41  1  0  0  0  0
 23 25  2  0  0  0  0
 23 66  1  0  0  0  0
 24 29  1  0  0  0  0
 24 67  1  0  0  0  0
 25 59  1  0  0  0  0
 26 87  1  0  0  0  0
 27 89  1  0  0  0  0
 28 31  2  0  0  0  0
 28 87  1  0  0  0  0
 29 88  1  0  0  0  0
 30 90  1  0  0  0  0
 31 91  1  0  0  0  0
 32 71  2  0  0  0  0
 33 72  1  0  0  0  0
 33 75  1  0  0  0  0
 34 76  1  0  0  0  0
 34 82  2  0  0  0  0
 35 55  1  0  0  0  0
 35 77  1  0  0  0  0
 35 83  2  0  0  0  0
 36 68  1  0  0  0  0
 36 73  1  0  0  0  0
 36 84  2  0  0  0  0
 37 69  1  0  0  0  0
 37 78  1  0  0  0  0
 37 85  2  0  0  0  0
 38 74  1  0  0  0  0
 38 79  1  0  0  0  0
 38 86  2  0  0  0  0
 39 42  1  0  0  0  0
 40 55  1  0  0  0  0
 41 73  1  0  0  0  0
 42 44  1  0  0  0  0
 43 47  1  0  0  0  0
 43 50  1  0  0  0  0
 44 54  1  0  0  0  0
 45 46  1  0  0  0  0
 45 56  1  0  0  0  0
 46 56  1  0  0  0  0
 47 57  1  0  0  0  0
 48 52  1  0  0  0  0
 48 58  1  0  0  0  0
 49 53  1  0  0  0  0
 49 58  1  0  0  0  0
 50 74  1  0  0  0  0
 51 57  1  0  0  0  0
 51 74  1  0  0  0  0
 52 80  1  0  0  0  0
 53 80  1  0  0  0  0
 54 77  1  0  0  0  0
 55 73  1  0  0  0  0
 56 67  1  0  0  0  0
 57 72  1  0  0  0  0
 58 79  1  0  0  0  0
 60 69  1  0  0  0  0
 61 70  1  0  0  0  0
 62 70  1  0  0  0  0
 63 70  1  0  0  0  0
 64 81  1  0  0  0  0
 65 88  1  0  0  0  0
 66 89  1  0  0  0  0
 67 80  1  0  0  0  0
 68 70  1  0  0  0  0
 68 78  1  0  0  0  0
 69 81  1  0  0  0  0
 71 72  1  0  0  0  0
M  CHG  2  80   1  81   1
M  ISO  4  38 100  66 101  79 100  89 101
M  END
> <Batch ID>
0159

> <Smiles>
CNC(C)C(=O)NC(C(=O)N1Cc2cc([101O:1][101CH2:1]c3cc(C(C4CC4)N4CCC([100NH:0][100C:0](=O)N5CCCC(n6nc(-c7ccc(Oc8ccc(F)cc8F)cc7)c(C(N)=O)c6N)C5)CC4)c(OC)cc3C)ccc2CC1C(=O)NC1CCCc2ccccc21)C(C)(C)C

> <Shape>
0.302

> <Color>
0.080

> <Negative vol penalty>
0.000

$$$$

  -OEChem-04052322073D

 89 99  0     1  0  0  0  0  0999 V2000
  -21.9064  -32.4171   29.2091 C   0  0  0  0  0  0  0  0  0  0  0  0
  -21.5031  -31.7109   28.0804 C   0  0  0  0  0  0  0  0  0  0  0  0
  -23.8111   -9.7710   21.8400 C   0  0  0  0  0  0  0  0  0  0  0  0
  -21.8998  -10.4226   20.5135 C   0  0  0  0  0  0  0  0  0  0  0  0
  -23.0595  -33.1997   29.1652 C   0  0  0  0  0  0  0  0  0  0  0  0
  -22.2521  -31.7877   26.9067 C   0  0  0  0  0  0  0  0  0  0  0  0
  -22.9472  -27.2608   24.7460 C   0  0  0  0  0  0  0  0  0  0  0  0
  -23.3532   -8.4535   21.8525 C   0  0  0  0  0  0  0  0  0  0  0  0
  -21.4420   -9.1051   20.5260 C   0  0  0  0  0  0  0  0  0  0  0  0
  -21.8803  -26.7303   24.0219 C   0  0  0  0  0  0  0  0  0  0  0  0
  -21.0256   -6.6414   23.5027 C   0  0  0  0  0  0  0  0  0  0  0  0
  -21.0524   -5.9583   24.7185 C   0  0  0  0  0  0  0  0  0  0  0  0
  -22.1637  -20.7932   18.5805 C   0  0  0  0  0  0  0  0  0  0  0  0
  -22.9195  -27.4572   21.9698 C   0  0  0  0  0  0  0  0  0  0  0  0
  -24.0063  -19.5413   17.6454 C   0  0  0  0  0  0  0  0  0  0  0  0
  -22.5254   -4.3028   23.7559 C   0  0  0  0  0  0  0  0  0  0  0  0
  -23.0843  -10.7556   21.1705 C   0  0  0  0  0  0  0  0  0  0  0  0
  -24.7808  -12.5872   20.6462 C   0  0  0  0  0  0  0  0  0  0  0  0
  -23.8283  -33.2785   27.9933 C   0  0  0  0  0  0  0  0  0  0  0  0
  -24.0046  -27.9042   24.0870 C   0  0  0  0  0  0  0  0  0  0  0  0
  -23.4158  -32.5731   26.8467 C   0  0  0  0  0  0  0  0  0  0  0  0
  -22.2258  -21.7139   17.5236 C   0  0  0  0  0  0  0  0  0  0  0  0
  -23.9998  -27.9927   22.6876 C   0  0  0  0  0  0  0  0  0  0  0  0
  -24.0659  -20.4330   16.5770 C   0  0  0  0  0  0  0  0  0  0  0  0
  -23.0512  -19.7171   18.6429 C   0  0  0  0  0  0  0  0  0  0  0  0
  -23.1686  -21.5028   16.5055 C   0  0  0  0  0  0  0  0  0  0  0  0
  -22.1687   -8.1205   21.1955 C   0  0  0  0  0  0  0  0  0  0  0  0
  -21.8649  -26.8310   22.6339 C   0  0  0  0  0  0  0  0  0  0  0  0
  -21.7487   -6.1552   22.4134 C   0  0  0  0  0  0  0  0  0  0  0  0
  -21.8023   -4.7890   24.8451 C   0  0  0  0  0  0  0  0  0  0  0  0
  -22.4986   -4.9859   22.5401 C   0  0  0  0  0  0  0  0  0  0  0  0
  -23.5565  -12.1168   21.1577 C   0  0  0  0  0  0  0  0  0  0  0  0
  -24.7498  -13.9415   20.8726 C   0  0  0  0  0  0  0  0  0  0  0  0
  -25.8504  -11.8645   20.0222 C   0  0  0  0  0  0  0  0  0  0  0  0
  -25.2033  -30.8480   24.1114 C   0  0  0  0  0  0  0  0  0  0  0  0
  -27.4742  -29.5199   22.2136 C   0  0  0  0  0  0  0  0  0  0  0  0
  -28.3415  -27.0413   20.0339 C   0  0  0  0  0  0  0  0  0  0  0  0
  -22.0908  -18.8330   20.7975 C   0  0  0  0  0  0  0  0  0  0  0  0
  -25.0411  -34.1750   27.9795 C   0  0  0  0  0  0  0  0  0  0  0  0
  -25.1611  -28.4475   24.8806 C   0  0  0  0  0  0  0  0  0  0  0  0
  -25.1207  -28.6558   21.9311 C   0  0  0  0  0  0  0  0  0  0  0  0
  -25.9844  -33.9057   26.8099 C   0  0  0  0  0  0  0  0  0  0  0  0
  -21.5697  -16.7475   23.6358 C   0  0  0  0  0  0  0  0  0  0  0  0
  -25.1993  -33.7862   25.5076 C   0  0  0  0  0  0  0  0  0  0  0  0
  -22.1409  -15.3956   23.2021 C   0  0  0  0  0  0  0  0  0  0  0  0
  -22.1562  -24.7425   20.6687 C   0  0  0  0  0  0  0  0  0  0  0  0
  -19.8100  -25.3413   19.9831 C   0  0  0  0  0  0  0  0  0  0  0  0
  -21.7452  -23.9031   16.4190 C   0  0  0  0  0  0  0  0  0  0  0  0
  -20.8758  -17.4670   22.4806 C   0  0  0  0  0  0  0  0  0  0  0  0
  -22.2589  -16.2667   20.8326 C   0  0  0  0  0  0  0  0  0  0  0  0
  -22.3915  -24.1137   19.3043 C   0  0  0  0  0  0  0  0  0  0  0  0
  -20.0502  -24.7117   18.6200 C   0  0  0  0  0  0  0  0  0  0  0  0
  -24.2153  -32.6114   25.5624 C   0  0  1  0  0  0  0  0  0  0  0  0
  -21.2709  -22.8786   17.4506 C   0  0  2  0  0  0  0  0  0  0  0  0
  -25.9341  -29.5355   24.1417 C   0  0  1  0  0  0  0  0  0  0  0  0
  -23.0241  -15.5336   21.9465 C   0  0  2  0  0  0  0  0  0  0  0  0
  -21.1051  -25.8476   20.6102 C   0  0  0  0  0  0  0  0  0  1  0  0
  -22.1709  -23.1657   15.1514 C   0  0  1  0  0  0  0  0  0  0  0  0
  -25.0930  -20.2148   15.5134 C   0  0  0  0  0  0  0  0  0  0  0  0
  -22.5840  -24.1492   14.0631 C   0  0  0  0  0  0  0  0  0  0  0  0
  -30.2542  -26.2419   18.6198 C   0  0  0  0  0  0  0  0  0  0  0  0
  -26.9028  -31.7339   20.1934 C   0  0  0  0  0  0  0  0  0  0  0  0
  -28.1033  -30.3738   18.4680 C   0  0  0  0  0  0  0  0  0  0  0  0
  -29.3257  -31.1873   20.4845 C   0  0  0  0  0  0  0  0  0  0  0  0
  -28.4898  -24.4663   21.4851 C   0  0  0  0  0  0  0  0  0  0  0  0
  -27.6408  -29.3180   20.7269 C   0  0  1  0  0  0  0  0  0  0  0  0
  -29.5597  -26.1380   19.9687 C   0  0  2  0  0  0  0  0  0  0  0  0
  -27.9709  -30.6424   19.9823 C   0  0  0  0  0  0  0  0  0  0  0  0
  -22.8028  -13.0930   21.6706 N   0  0  0  0  0  0  0  0  0  0  0  0
  -23.5556  -14.1903   21.4825 N   0  0  0  0  0  0  0  0  0  0  0  0
  -26.2259  -29.1771   22.7522 N   0  0  0  0  0  0  0  0  0  0  0  0
  -21.7739  -17.5646   21.3279 N   0  0  0  0  0  0  0  0  0  0  0  0
  -25.6280  -14.9320   20.6076 N   0  0  0  0  0  0  0  0  0  0  0  0
  -25.7190  -10.4777   19.8682 N   0  0  0  0  0  0  0  0  0  0  0  0
  -22.9796  -18.8032   19.7233 N   0  0  0  0  0  0  0  0  0  0  0  0
  -24.9119  -31.3588   25.3618 N   0  0  0  0  0  0  0  0  0  0  0  0
  -28.6486  -28.2754   20.5669 N   0  0  0  0  0  0  0  0  0  0  0  0
  -21.0789  -23.6131   18.7490 N   0  3  0  0  0  0  0  0  0  0  0  0
  -29.1636  -24.7177   20.1852 N   0  3  0  0  0  0  0  0  0  0  0  0
  -26.8987  -12.4294   19.6281 O   0  0  0  0  0  0  0  0  0  0  0  0
  -24.9256  -31.3602   23.0333 O   0  0  0  0  0  0  0  0  0  0  0  0
  -28.4192  -29.9586   22.8740 O   0  0  0  0  0  0  0  0  0  0  0  0
  -27.2294  -26.6889   19.6469 O   0  0  0  0  0  0  0  0  0  0  0  0
  -21.6304  -19.8713   21.2792 O   0  0  0  0  0  0  0  0  0  0  0  0
  -23.2991  -22.3178   15.4094 O   0  0  0  0  0  0  0  0  0  0  0  0
  -21.7217   -6.8350   21.2072 O   0  0  0  0  0  0  0  0  0  0  0  0
  -20.8245  -26.3146   21.9248 O   0  0  0  0  0  0  0  0  0  1  0  0
  -21.8291   -4.1340   26.0132 F   0  0  0  0  0  0  0  0  0  0  0  0
  -23.1963   -4.5146   21.4975 F   0  0  0  0  0  0  0  0  0  0  0  0
  1  2  1  0  0  0  0
  1  5  2  0  0  0  0
  2  6  2  0  0  0  0
  3  8  2  0  0  0  0
  3 17  1  0  0  0  0
  4  9  1  0  0  0  0
  4 17  2  0  0  0  0
  5 19  1  0  0  0  0
  6 21  1  0  0  0  0
  7 10  2  0  0  0  0
  7 20  1  0  0  0  0
  8 27  1  0  0  0  0
  9 27  2  0  0  0  0
 10 28  1  0  0  0  0
 11 12  2  0  0  0  0
 11 29  1  0  0  0  0
 12 30  1  0  0  0  0
 13 22  1  0  0  0  0
 13 25  2  0  0  0  0
 14 23  1  0  0  0  0
 14 28  2  0  0  0  0
 15 24  2  0  0  0  0
 15 25  1  0  0  0  0
 16 30  2  0  0  0  0
 16 31  1  0  0  0  0
 17 32  1  0  0  0  0
 18 32  1  0  0  0  0
 18 33  2  0  0  0  0
 18 34  1  0  0  0  0
 19 21  2  0  0  0  0
 19 39  1  0  0  0  0
 20 23  2  0  0  0  0
 20 40  1  0  0  0  0
 21 53  1  0  0  0  0
 22 26  2  0  0  0  0
 22 54  1  0  0  0  0
 23 41  1  0  0  0  0
 24 26  1  0  0  0  0
 24 59  1  0  0  0  0
 25 75  1  0  0  0  0
 26 85  1  0  0  0  0
 27 86  1  0  0  0  0
 28 87  1  0  0  0  0
 29 31  2  0  0  0  0
 29 86  1  0  0  0  0
 30 88  1  0  0  0  0
 31 89  1  0  0  0  0
 32 69  2  0  0  0  0
 33 70  1  0  0  0  0
 33 73  1  0  0  0  0
 34 74  1  0  0  0  0
 34 80  2  0  0  0  0
 35 55  1  0  0  0  0
 35 76  1  0  0  0  0
 35 81  2  0  0  0  0
 36 66  1  0  0  0  0
 36 71  1  0  0  0  0
 36 82  2  0  0  0  0
 37 67  1  0  0  0  0
 37 77  1  0  0  0  0
 37 83  2  0  0  0  0
 38 72  1  0  0  0  0
 38 75  1  0  0  0  0
 38 84  2  0  0  0  0
 39 42  1  0  0  0  0
 40 55  1  0  0  0  0
 41 71  1  0  0  0  0
 42 44  1  0  0  0  0
 43 45  1  0  0  0  0
 43 49  1  0  0  0  0
 44 53  1  0  0  0  0
 45 56  1  0  0  0  0
 46 51  1  0  0  0  0
 46 57  1  0  0  0  0
 47 52  1  0  0  0  0
 47 57  1  0  0  0  0
 48 54  1  0  0  0  0
 48 58  1  0  0  0  0
 49 72  1  0  0  0  0
 50 56  1  0  0  0  0
 50 72  1  0  0  0  0
 51 78  1  0  0  0  0
 52 78  1  0  0  0  0
 53 76  1  0  0  0  0
 54 78  1  0  0  0  0
 55 71  1  0  0  0  0
 56 70  1  0  0  0  0
 57 87  1  0  0  0  0
 58 60  1  0  0  0  0
 58 85  1  0  0  0  0
 61 67  1  0  0  0  0
 62 68  1  0  0  0  0
 63 68  1  0  0  0  0
 64 68  1  0  0  0  0
 65 79  1  0  0  0  0
 66 68  1  0  0  0  0
 66 77  1  0  0  0  0
 67 79  1  0  0  0  0
 69 70  1  0  0  0  0
M  CHG  2  78   1  79   1
M  ISO  4  38 100  57 101  75 100  87 101
M  END
> <Batch ID>
0159

> <Smiles>
CNC(C)C(=O)NC(C(=O)N1Cc2cc([101O:1][101CH:1]3CCN(C4CC(C)Oc5c(C)cc([100NH:0][100C:0](=O)N6CCCC(n7nc(-c8ccc(Oc9ccc(F)cc9F)cc8)c(C(N)=O)c7N)C6)cc54)CC3)ccc2CC1C(=O)NC1CCCc2ccccc21)C(C)(C)C

> <Shape>
0.228

> <Color>
0.088

> <Negative vol penalty>
0.000

$$$$

  -OEChem-04052322073D

 83 92  0     1  0  0  0  0  0999 V2000
  -22.1041  -11.2486   19.1722 C   0  0  0  0  0  0  0  0  0  0  0  0
  -21.8162  -12.5423   19.5952 C   0  0  0  0  0  0  0  0  0  0  0  0
  -25.9272  -29.4093   21.2360 C   0  0  0  0  0  0  0  0  0  0  0  0
  -24.9320  -27.8567   19.6752 C   0  0  0  0  0  0  0  0  0  0  0  0
  -23.3711  -10.7100   19.3928 C   0  0  0  0  0  0  0  0  0  0  0  0
  -22.7949  -13.2978   20.2400 C   0  0  0  0  0  0  0  0  0  0  0  0
  -23.0280  -18.0534   18.5153 C   0  0  0  0  0  0  0  0  0  0  0  0
  -16.3779  -23.2852   23.3290 C   0  0  0  0  0  0  0  0  0  0  0  0
  -27.1872  -28.8779   20.9612 C   0  0  0  0  0  0  0  0  0  0  0  0
  -26.1921  -27.3253   19.4004 C   0  0  0  0  0  0  0  0  0  0  0  0
  -22.0541  -18.9429   18.9668 C   0  0  0  0  0  0  0  0  0  0  0  0
  -17.4715  -22.5677   22.8426 C   0  0  0  0  0  0  0  0  0  0  0  0
  -28.9850  -26.1523   21.8350 C   0  0  0  0  0  0  0  0  0  0  0  0
  -29.8248  -25.8854   22.9162 C   0  0  0  0  0  0  0  0  0  0  0  0
  -23.6222  -19.8385   20.5663 C   0  0  0  0  0  0  0  0  0  0  0  0
  -17.8875  -24.2691   21.1520 C   0  0  0  0  0  0  0  0  0  0  0  0
  -31.4632  -27.4196   22.0223 C   0  0  0  0  0  0  0  0  0  0  0  0
  -24.7996  -28.8987   20.5930 C   0  0  0  0  0  0  0  0  0  0  0  0
  -23.0763  -30.7771   20.6904 C   0  0  0  0  0  0  0  0  0  0  0  0
  -24.3688  -11.4628   20.0320 C   0  0  0  0  0  0  0  0  0  0  0  0
  -24.3052  -18.0423   19.0943 C   0  0  0  0  0  0  0  0  0  0  0  0
  -24.0760  -12.7683   20.4705 C   0  0  0  0  0  0  0  0  0  0  0  0
  -24.6113  -18.9496   20.1186 C   0  0  0  0  0  0  0  0  0  0  0  0
  -16.8041  -24.9773   21.6452 C   0  0  0  0  0  0  0  0  0  0  0  0
  -16.0726  -24.4869   22.7189 C   0  0  0  0  0  0  0  0  0  0  0  0
  -27.3197  -27.8359   20.0434 C   0  0  0  0  0  0  0  0  0  0  0  0
  -22.3502  -19.8337   19.9944 C   0  0  0  0  0  0  0  0  0  0  0  0
  -18.2229  -23.0573   21.7622 C   0  0  0  0  0  0  0  0  0  0  0  0
  -29.3843  -27.0528   20.8474 C   0  0  0  0  0  0  0  0  0  0  0  0
  -31.0639  -26.5191   23.0100 C   0  0  0  0  0  0  0  0  0  0  0  0
  -30.6234  -27.6864   20.9411 C   0  0  0  0  0  0  0  0  0  0  0  0
  -23.4976  -29.4469   20.8768 C   0  0  0  0  0  0  0  0  0  0  0  0
  -21.7675  -30.7843   21.1068 C   0  0  0  0  0  0  0  0  0  0  0  0
  -23.8029  -31.9054   20.1858 C   0  0  0  0  0  0  0  0  0  0  0  0
  -17.1718  -27.3692   20.9219 C   0  0  0  0  0  0  0  0  0  0  0  0
  -26.0244  -15.8999   20.6936 C   0  0  0  0  0  0  0  0  0  0  0  0
  -28.3380  -18.1621   20.4653 C   0  0  0  0  0  0  0  0  0  0  0  0
  -29.1409  -21.4552   20.0680 C   0  0  0  0  0  0  0  0  0  0  0  0
  -25.7089  -10.8209   20.2905 C   0  0  0  0  0  0  0  0  0  0  0  0
  -25.3529  -17.0948   18.5777 C   0  0  0  0  0  0  0  0  0  0  0  0
  -25.9736  -18.9917   20.7597 C   0  0  0  0  0  0  0  0  0  0  0  0
  -26.8051  -11.8219   20.6463 C   0  0  0  0  0  0  0  0  0  0  0  0
  -19.0098  -27.9028   24.0145 C   0  0  0  0  0  0  0  0  0  0  0  0
  -26.3028  -12.8155   21.6891 C   0  0  0  0  0  0  0  0  0  0  0  0
  -20.3334  -28.4591   23.4913 C   0  0  0  0  0  0  0  0  0  0  0  0
  -18.4295  -26.8534   23.0699 C   0  0  0  0  0  0  0  0  0  0  0  0
  -19.5801  -27.8925   21.1409 C   0  0  0  0  0  0  0  0  0  0  0  0
  -15.2826  -26.5379   22.3834 C   0  0  0  0  0  0  0  0  0  0  0  0
  -25.1188  -13.6281   21.1514 C   0  0  1  0  0  0  0  0  0  0  0  0
  -26.4614  -16.8204   19.5893 C   0  0  1  0  0  0  0  0  0  0  0  0
  -20.1834  -28.9763   22.0499 C   0  0  2  0  0  0  0  0  0  0  0  0
  -16.1928  -26.2502   21.1736 C   0  0  2  0  0  0  0  0  0  0  0  0
  -15.3661  -26.0129   19.9389 C   0  0  0  0  0  0  0  0  0  0  0  0
  -31.1134  -23.0028   19.9613 C   0  0  0  0  0  0  0  0  0  0  0  0
  -28.6476  -17.9725   23.4949 C   0  0  0  0  0  0  0  0  0  0  0  0
  -29.8933  -20.1434   23.4336 C   0  0  0  0  0  0  0  0  0  0  0  0
  -30.8007  -18.1524   22.2355 C   0  0  0  0  0  0  0  0  0  0  0  0
  -28.4748  -22.3016   17.3114 C   0  0  0  0  0  0  0  0  0  0  0  0
  -20.0409  -20.2813   20.3449 C   0  0  0  0  0  0  0  0  0  1  0  0
  -19.2442  -20.9310   21.4597 C   0  0  0  0  0  0  0  0  0  0  0  0
  -28.7699  -19.3383   21.3073 C   0  0  1  0  0  0  0  0  0  0  0  0
  -30.1449  -22.1450   19.1621 C   0  0  2  0  0  0  0  0  0  0  0  0
  -29.5015  -18.8998   22.6072 C   0  0  0  0  0  0  0  0  0  0  0  0
  -22.5346  -28.6657   21.3732 N   0  0  0  0  0  0  0  0  0  0  0  0
  -21.4952  -29.5077   21.5023 N   0  0  0  0  0  0  0  0  0  0  0  0
  -18.3284  -27.3758   21.7019 N   0  0  0  0  0  0  0  0  0  0  0  0
  -26.9621  -18.0412   20.2241 N   0  0  0  0  0  0  0  0  0  0  0  0
  -20.8345  -31.7579   21.1697 N   0  0  0  0  0  0  0  0  0  0  0  0
  -23.7760  -32.1551   18.8069 N   0  0  0  0  0  0  0  0  0  0  0  0
  -25.5831  -14.6658   20.2558 N   0  0  0  0  0  0  0  0  0  0  0  0
  -29.5649  -20.1952   20.4343 N   0  0  0  0  0  0  0  0  0  0  0  0
  -29.4421  -23.0193   18.1810 N   0  3  0  0  0  0  0  0  0  0  0  0
  -24.4701  -32.6600   20.9334 O   0  0  0  0  0  0  0  0  0  0  0  0
  -16.9133  -28.2127   20.0594 O   0  0  0  0  0  0  0  0  0  0  0  0
  -26.0848  -16.2805   21.8569 O   0  0  0  0  0  0  0  0  0  0  0  0
  -29.1907  -17.3834   20.0315 O   0  0  0  0  0  0  0  0  0  0  0  0
  -28.0878  -21.9828   20.4189 O   0  0  0  0  0  0  0  0  0  0  0  0
  -15.0264  -25.2946   23.0857 O   0  0  0  0  0  0  0  0  0  0  0  0
  -28.5491  -27.3172   19.7749 O   0  0  0  0  0  0  0  0  0  0  0  0
  -21.4011  -20.7025   20.4375 O   0  0  0  0  0  0  0  0  0  1  0  0
  -19.3015  -22.3442   21.3090 O   0  0  0  0  0  0  0  0  0  0  0  0
  -31.8696  -26.2639   24.0491 F   0  0  0  0  0  0  0  0  0  0  0  0
  -31.0120  -28.5534   19.9960 F   0  0  0  0  0  0  0  0  0  0  0  0
  1  2  1  0  0  0  0
  1  5  2  0  0  0  0
  2  6  2  0  0  0  0
  3  9  2  0  0  0  0
  3 18  1  0  0  0  0
  4 10  1  0  0  0  0
  4 18  2  0  0  0  0
  5 20  1  0  0  0  0
  6 22  1  0  0  0  0
  7 11  2  0  0  0  0
  7 21  1  0  0  0  0
  8 12  2  0  0  0  0
  8 25  1  0  0  0  0
  9 26  1  0  0  0  0
 10 26  2  0  0  0  0
 11 27  1  0  0  0  0
 12 28  1  0  0  0  0
 13 14  2  0  0  0  0
 13 29  1  0  0  0  0
 14 30  1  0  0  0  0
 15 23  1  0  0  0  0
 15 27  2  0  0  0  0
 16 24  1  0  0  0  0
 16 28  2  0  0  0  0
 17 30  2  0  0  0  0
 17 31  1  0  0  0  0
 18 32  1  0  0  0  0
 19 32  1  0  0  0  0
 19 33  2  0  0  0  0
 19 34  1  0  0  0  0
 20 22  2  0  0  0  0
 20 39  1  0  0  0  0
 21 23  2  0  0  0  0
 21 40  1  0  0  0  0
 22 49  1  0  0  0  0
 23 41  1  0  0  0  0
 24 25  2  0  0  0  0
 24 52  1  0  0  0  0
 25 78  1  0  0  0  0
 26 79  1  0  0  0  0
 27 80  1  0  0  0  0
 28 81  1  0  0  0  0
 29 31  2  0  0  0  0
 29 79  1  0  0  0  0
 30 82  1  0  0  0  0
 31 83  1  0  0  0  0
 32 64  2  0  0  0  0
 33 65  1  0  0  0  0
 33 68  1  0  0  0  0
 34 69  1  0  0  0  0
 34 73  2  0  0  0  0
 35 52  1  0  0  0  0
 35 66  1  0  0  0  0
 35 74  2  0  0  0  0
 36 50  1  0  0  0  0
 36 70  1  0  0  0  0
 36 75  2  0  0  0  0
 37 61  1  0  0  0  0
 37 67  1  0  0  0  0
 37 76  2  0  0  0  0
 38 62  1  0  0  0  0
 38 71  1  0  0  0  0
 38 77  2  0  0  0  0
 39 42  1  0  0  0  0
 40 50  1  0  0  0  0
 41 67  1  0  0  0  0
 42 44  1  0  0  0  0
 43 45  1  0  0  0  0
 43 46  1  0  0  0  0
 44 49  1  0  0  0  0
 45 51  1  0  0  0  0
 46 66  1  0  0  0  0
 47 51  1  0  0  0  0
 47 66  1  0  0  0  0
 48 52  1  0  0  0  0
 48 78  1  0  0  0  0
 49 70  1  0  0  0  0
 50 67  1  0  0  0  0
 51 65  1  0  0  0  0
 52 53  1  0  0  0  0
 54 62  1  0  0  0  0
 55 63  1  0  0  0  0
 56 63  1  0  0  0  0
 57 63  1  0  0  0  0
 58 72  1  0  0  0  0
 59 60  1  0  0  0  0
 59 80  1  0  0  0  0
 60 81  1  0  0  0  0
 61 63  1  0  0  0  0
 61 71  1  0  0  0  0
 62 72  1  0  0  0  0
 64 65  1  0  0  0  0
M  CHG  1  72   1
M  ISO  4  35 100  52 100  59 101  80 101
M  END
> <Batch ID>
0159

> <Smiles>
CNC(C)C(=O)NC(C(=O)N1Cc2cc([101O:1][101CH2:1]COc3ccc4c(c3)[100C:0](C)([100C:0](=O)N3CCCC(n5nc(-c6ccc(Oc7ccc(F)cc7F)cc6)c(C(N)=O)c5N)C3)CO4)ccc2CC1C(=O)NC1CCCc2ccccc21)C(C)(C)C

> <Shape>
0.246

> <Color>
0.085

> <Negative vol penalty>
0.000

$$$$

  -OEChem-04052322073D

 84 93  0     1  0  0  0  0  0999 V2000
  -20.3602  -30.0429   31.1652 C   0  0  0  0  0  0  0  0  0  0  0  0
  -20.9539  -28.7982   30.9811 C   0  0  0  0  0  0  0  0  0  0  0  0
  -23.1287   -9.7909   19.8749 C   0  0  0  0  0  0  0  0  0  0  0  0
  -23.9046   -9.7438   22.1624 C   0  0  0  0  0  0  0  0  0  0  0  0
  -19.8049  -30.7166   30.0782 C   0  0  0  0  0  0  0  0  0  0  0  0
  -20.9916  -28.2261   29.7101 C   0  0  0  0  0  0  0  0  0  0  0  0
  -25.4500  -24.7378   27.3736 C   0  0  0  0  0  0  0  0  0  0  0  0
  -22.4244   -8.6062   20.0894 C   0  0  0  0  0  0  0  0  0  0  0  0
  -23.2002   -8.5591   22.3769 C   0  0  0  0  0  0  0  0  0  0  0  0
  -25.5909  -23.3566   27.2458 C   0  0  0  0  0  0  0  0  0  0  0  0
  -20.0040   -7.6363   22.9713 C   0  0  0  0  0  0  0  0  0  0  0  0
  -19.2573   -7.5315   24.1447 C   0  0  0  0  0  0  0  0  0  0  0  0
  -24.7572  -23.4868   24.9858 C   0  0  0  0  0  0  0  0  0  0  0  0
  -28.5311  -18.2323   22.4365 C   0  0  0  0  0  0  0  0  0  0  0  0
  -20.5660   -5.6114   24.8061 C   0  0  0  0  0  0  0  0  0  0  0  0
  -29.4121  -18.8106   24.9410 C   0  0  0  0  0  0  0  0  0  0  0  0
  -23.8689  -10.3597   20.9114 C   0  0  0  0  0  0  0  0  0  0  0  0
  -24.1279  -12.8972   20.8766 C   0  0  0  0  0  0  0  0  0  0  0  0
  -19.8443  -30.1568   28.7915 C   0  0  0  0  0  0  0  0  0  0  0  0
  -24.9506  -25.5037   26.3104 C   0  0  0  0  0  0  0  0  0  0  0  0
  -20.4350  -28.8924   28.6051 C   0  0  0  0  0  0  0  0  0  0  0  0
  -24.6134  -24.8779   25.1018 C   0  0  0  0  0  0  0  0  0  0  0  0
  -27.6961  -18.9914   23.2711 C   0  0  0  0  0  0  0  0  0  0  0  0
  -28.1650  -19.3070   24.5588 C   0  0  0  0  0  0  0  0  0  0  0  0
  -22.4601   -7.9903   21.3404 C   0  0  0  0  0  0  0  0  0  0  0  0
  -25.2417  -22.7306   26.0528 C   0  0  0  0  0  0  0  0  0  0  0  0
  -21.0317   -6.7286   22.7152 C   0  0  0  0  0  0  0  0  0  0  0  0
  -19.5383   -6.5191   25.0622 C   0  0  0  0  0  0  0  0  0  0  0  0
  -21.3127   -5.7162   23.6326 C   0  0  0  0  0  0  0  0  0  0  0  0
  -24.5971  -11.5831   20.6902 C   0  0  0  0  0  0  0  0  0  0  0  0
  -29.7583  -17.8011   22.9176 C   0  0  0  0  0  0  0  0  0  0  0  0
  -25.1926  -13.6940   20.5328 C   0  0  0  0  0  0  0  0  0  0  0  0
  -22.8445  -13.3567   21.3209 C   0  0  0  0  0  0  0  0  0  0  0  0
  -22.4010  -27.3528   25.8816 C   0  0  0  0  0  0  0  0  0  0  0  0
  -23.8385  -28.0106   23.0490 C   0  0  0  0  0  0  0  0  0  0  0  0
  -26.0151  -27.0335   20.6089 C   0  0  0  0  0  0  0  0  0  0  0  0
  -30.6417  -14.8841   20.7226 C   0  0  0  0  0  0  0  0  0  0  0  0
  -19.1888  -30.9014   27.6555 C   0  0  0  0  0  0  0  0  0  0  0  0
  -24.8299  -26.9960   26.4550 C   0  0  0  0  0  0  0  0  0  0  0  0
  -27.3644  -20.1055   25.5470 C   0  0  0  0  0  0  0  0  0  0  0  0
  -24.0918  -25.6576   23.9235 C   0  0  0  0  0  0  0  0  0  0  0  0
  -19.6026  -30.3951   26.2761 C   0  0  0  0  0  0  0  0  0  0  0  0
  -29.5646  -12.5472   18.2619 C   0  0  0  0  0  0  0  0  0  0  0  0
  -19.5451  -28.8715   26.2274 C   0  0  0  0  0  0  0  0  0  0  0  0
  -28.1406  -12.1921   18.6932 C   0  0  0  0  0  0  0  0  0  0  0  0
  -25.4646  -20.0280   23.9329 C   0  0  0  0  0  0  0  0  0  0  0  0
  -30.4828  -12.7564   19.4640 C   0  0  0  0  0  0  0  0  0  0  0  0
  -28.5685  -13.3770   20.8867 C   0  0  0  0  0  0  0  0  0  0  0  0
  -20.5175  -28.2501   27.2373 C   0  0  1  0  0  0  0  0  0  0  0  0
  -23.8268  -27.6112   25.4842 C   0  0  1  0  0  0  0  0  0  0  0  0
  -27.5920  -13.2113   19.7097 C   0  0  2  0  0  0  0  0  0  0  0  0
  -26.2459  -20.9124   24.8991 C   0  0  1  0  0  0  0  0  0  1  0  0
  -26.3407  -19.4995   22.7684 C   0  0  0  0  0  0  0  0  0  0  0  0
  -25.5344  -18.3792   22.0733 C   0  0  0  0  0  0  0  0  0  0  0  0
  -26.5836  -20.6319   21.7476 C   0  0  0  0  0  0  0  0  0  0  0  0
  -26.9531  -27.7628   18.3985 C   0  0  0  0  0  0  0  0  0  0  0  0
  -21.2269  -27.2207   21.6830 C   0  0  0  0  0  0  0  0  0  0  0  0
  -22.4877  -27.0491   19.5268 C   0  0  0  0  0  0  0  0  0  0  0  0
  -22.3425  -29.2383   20.7139 C   0  0  0  0  0  0  0  0  0  0  0  0
  -28.7762  -27.1030   21.6722 C   0  0  0  0  0  0  0  0  0  0  0  0
  -30.6469  -16.9919   22.0327 C   0  0  0  0  0  0  0  0  0  0  0  0
  -23.8020  -27.4066   21.6660 C   0  0  1  0  0  0  0  0  0  0  0  0
  -27.1403  -27.7730   19.9077 C   0  0  2  0  0  0  0  0  0  0  0  0
  -22.4728  -27.7134   20.9201 C   0  0  0  0  0  0  0  0  0  0  0  0
  -30.2194  -18.0675   24.1546 N   0  0  0  0  0  0  0  0  0  0  0  0
  -25.8613  -11.5430   20.2611 N   0  0  0  0  0  0  0  0  0  0  0  0
  -26.1956  -12.8418   20.1750 N   0  0  0  0  0  0  0  0  0  0  0  0
  -23.9857  -27.1133   24.1163 N   0  0  0  0  0  0  0  0  0  0  0  0
  -29.9057  -13.7354   20.3884 N   0  0  0  0  0  0  0  0  0  0  0  0
  -25.3593  -15.0333   20.5046 N   0  0  0  0  0  0  0  0  0  0  0  0
  -21.8650  -12.4040   21.6328 N   0  0  0  0  0  0  0  0  0  0  0  0
  -21.8729  -28.3044   26.7330 N   0  0  0  0  0  0  0  0  0  0  0  0
  -24.9968  -27.8860   20.9796 N   0  0  0  0  0  0  0  0  0  0  0  0
  -30.0190  -15.7634   21.5999 N   0  0  0  0  0  0  0  0  0  0  0  0
  -28.4519  -27.1396   20.2229 N   0  3  0  0  0  0  0  0  0  0  0  0
  -22.5690  -14.5763   21.4222 O   0  0  0  0  0  0  0  0  0  0  0  0
  -21.8223  -26.3640   25.4466 O   0  0  0  0  0  0  0  0  0  0  0  0
  -23.7470  -29.2340   23.1772 O   0  0  0  0  0  0  0  0  0  0  0  0
  -26.0358  -25.8204   20.8047 O   0  0  0  0  0  0  0  0  0  0  0  0
  -31.7681  -15.1119   20.2684 O   0  0  0  0  0  0  0  0  0  0  0  0
  -21.7727   -6.8344   21.5501 O   0  0  0  0  0  0  0  0  0  0  0  0
  -25.3776  -21.3825   25.9256 O   0  0  0  0  0  0  0  0  0  1  0  0
  -18.8221   -6.4196   26.1897 F   0  0  0  0  0  0  0  0  0  0  0  0
  -22.2996   -4.8419   23.3927 F   0  0  0  0  0  0  0  0  0  0  0  0
  1  2  1  0  0  0  0
  1  5  2  0  0  0  0
  2  6  2  0  0  0  0
  3  8  2  0  0  0  0
  3 17  1  0  0  0  0
  4  9  1  0  0  0  0
  4 17  2  0  0  0  0
  5 19  1  0  0  0  0
  6 21  1  0  0  0  0
  7 10  2  0  0  0  0
  7 20  1  0  0  0  0
  8 25  1  0  0  0  0
  9 25  2  0  0  0  0
 10 26  1  0  0  0  0
 11 12  2  0  0  0  0
 11 27  1  0  0  0  0
 12 28  1  0  0  0  0
 13 22  1  0  0  0  0
 13 26  2  0  0  0  0
 14 23  1  0  0  0  0
 14 31  2  0  0  0  0
 15 28  2  0  0  0  0
 15 29  1  0  0  0  0
 16 24  1  0  0  0  0
 16 65  2  0  0  0  0
 17 30  1  0  0  0  0
 18 30  1  0  0  0  0
 18 32  2  0  0  0  0
 18 33  1  0  0  0  0
 19 21  2  0  0  0  0
 19 38  1  0  0  0  0
 20 22  2  0  0  0  0
 20 39  1  0  0  0  0
 21 49  1  0  0  0  0
 22 41  1  0  0  0  0
 23 24  2  0  0  0  0
 23 53  1  0  0  0  0
 24 40  1  0  0  0  0
 25 81  1  0  0  0  0
 26 82  1  0  0  0  0
 27 29  2  0  0  0  0
 27 81  1  0  0  0  0
 28 83  1  0  0  0  0
 29 84  1  0  0  0  0
 30 66  2  0  0  0  0
 31 61  1  0  0  0  0
 31 65  1  0  0  0  0
 32 67  1  0  0  0  0
 32 70  1  0  0  0  0
 33 71  1  0  0  0  0
 33 76  2  0  0  0  0
 34 50  1  0  0  0  0
 34 72  1  0  0  0  0
 34 77  2  0  0  0  0
 35 62  1  0  0  0  0
 35 68  1  0  0  0  0
 35 78  2  0  0  0  0
 36 63  1  0  0  0  0
 36 73  1  0  0  0  0
 36 79  2  0  0  0  0
 37 69  1  0  0  0  0
 37 74  1  0  0  0  0
 37 80  2  0  0  0  0
 38 42  1  0  0  0  0
 39 50  1  0  0  0  0
 40 52  1  0  0  0  0
 41 68  1  0  0  0  0
 42 44  1  0  0  0  0
 43 45  1  0  0  0  0
 43 47  1  0  0  0  0
 44 49  1  0  0  0  0
 45 51  1  0  0  0  0
 46 52  1  0  0  0  0
 46 53  1  0  0  0  0
 47 69  1  0  0  0  0
 48 51  1  0  0  0  0
 48 69  1  0  0  0  0
 49 72  1  0  0  0  0
 50 68  1  0  0  0  0
 51 67  1  0  0  0  0
 52 82  1  0  0  0  0
 53 54  1  0  0  0  0
 53 55  1  0  0  0  0
 56 63  1  0  0  0  0
 57 64  1  0  0  0  0
 58 64  1  0  0  0  0
 59 64  1  0  0  0  0
 60 75  1  0  0  0  0
 61 74  1  0  0  0  0
 62 64  1  0  0  0  0
 62 73  1  0  0  0  0
 63 75  1  0  0  0  0
 66 67  1  0  0  0  0
M  CHG  1  75   1
M  ISO  4  37 100  52 101  74 100  82 101
M  END
> <Batch ID>
0159

> <Smiles>
CNC(C)C(=O)NC(C(=O)N1Cc2cc([101O:1][101CH:1]3Cc4cnc(C[100NH:0][100C:0](=O)N5CCCC(n6nc(-c7ccc(Oc8ccc(F)cc8F)cc7)c(C(N)=O)c6N)C5)cc4C(C)(C)C3)ccc2CC1C(=O)NC1CCCc2ccccc21)C(C)(C)C

> <Shape>
0.227

> <Color>
0.200

> <Negative vol penalty>
0.000

$$$$

  -OEChem-04052322073D

 84 93  0     1  0  0  0  0  0999 V2000
  -18.1848  -28.0179   23.6354 C   0  0  0  0  0  0  0  0  0  0  0  0
  -19.5736  -27.9941   23.7135 C   0  0  0  0  0  0  0  0  0  0  0  0
  -24.3606  -14.9013   20.8514 C   0  0  0  0  0  0  0  0  0  0  0  0
  -26.5824  -14.8234   21.7974 C   0  0  0  0  0  0  0  0  0  0  0  0
  -17.5324  -27.3121   22.6253 C   0  0  0  0  0  0  0  0  0  0  0  0
  -20.3108  -27.2637   22.7822 C   0  0  0  0  0  0  0  0  0  0  0  0
  -25.8058  -28.7012   20.4923 C   0  0  0  0  0  0  0  0  0  0  0  0
  -24.4372  -13.5395   20.5594 C   0  0  0  0  0  0  0  0  0  0  0  0
  -26.6589  -13.4616   21.5055 C   0  0  0  0  0  0  0  0  0  0  0  0
  -27.0955  -28.2806   20.8144 C   0  0  0  0  0  0  0  0  0  0  0  0
  -23.9057  -10.0058   19.8918 C   0  0  0  0  0  0  0  0  0  0  0  0
  -22.7980   -9.2143   20.1952 C   0  0  0  0  0  0  0  0  0  0  0  0
  -30.9380  -24.5200   21.0075 C   0  0  0  0  0  0  0  0  0  0  0  0
  -26.9929  -26.6367   19.0519 C   0  0  0  0  0  0  0  0  0  0  0  0
  -30.9899  -23.6794   23.6671 C   0  0  0  0  0  0  0  0  0  0  0  0
  -23.0028   -9.8206   22.5249 C   0  0  0  0  0  0  0  0  0  0  0  0
  -25.4333  -15.5433   21.4703 C   0  0  0  0  0  0  0  0  0  0  0  0
  -24.8721  -17.5406   22.9548 C   0  0  0  0  0  0  0  0  0  0  0  0
  -18.2624  -26.5805   21.6754 C   0  0  0  0  0  0  0  0  0  0  0  0
  -25.0947  -28.0843   19.4530 C   0  0  0  0  0  0  0  0  0  0  0  0
  -19.6674  -26.5464   21.7592 C   0  0  0  0  0  0  0  0  0  0  0  0
  -30.9593  -25.4617   22.0362 C   0  0  0  0  0  0  0  0  0  0  0  0
  -25.6954  -27.0530   18.7170 C   0  0  0  0  0  0  0  0  0  0  0  0
  -30.9425  -23.1579   21.3085 C   0  0  0  0  0  0  0  0  0  0  0  0
  -30.9853  -25.0414   23.3660 C   0  0  0  0  0  0  0  0  0  0  0  0
  -30.9685  -22.7377   22.6383 C   0  0  0  0  0  0  0  0  0  0  0  0
  -25.5863  -12.8196   20.8866 C   0  0  0  0  0  0  0  0  0  0  0  0
  -27.6881  -27.2462   20.0961 C   0  0  0  0  0  0  0  0  0  0  0  0
  -24.5621  -10.7047   20.9050 C   0  0  0  0  0  0  0  0  0  0  0  0
  -22.3465   -9.1217   21.5117 C   0  0  0  0  0  0  0  0  0  0  0  0
  -24.1106  -10.6121   22.2215 C   0  0  0  0  0  0  0  0  0  0  0  0
  -25.3550  -16.9502   21.7715 C   0  0  0  0  0  0  0  0  0  0  0  0
  -25.0095  -18.8911   22.7454 C   0  0  0  0  0  0  0  0  0  0  0  0
  -24.3464  -16.9235   24.1373 C   0  0  0  0  0  0  0  0  0  0  0  0
  -22.3871  -26.4304   19.2607 C   0  0  0  0  0  0  0  0  0  0  0  0
  -22.9695  -26.5937   16.0737 C   0  0  0  0  0  0  0  0  0  0  0  0
  -25.2468  -26.9730   13.5604 C   0  0  0  0  0  0  0  0  0  0  0  0
  -28.6277  -22.1265   19.2395 C   0  0  0  0  0  0  0  0  0  0  0  0
  -17.5108  -25.7950   20.6300 C   0  0  0  0  0  0  0  0  0  0  0  0
  -23.7147  -28.5677   19.1005 C   0  0  0  0  0  0  0  0  0  0  0  0
  -24.9822  -26.3716   17.5788 C   0  0  0  0  0  0  0  0  0  0  0  0
  -18.3826  -25.3504   19.4585 C   0  0  0  0  0  0  0  0  0  0  0  0
  -25.0674  -22.1507   19.2437 C   0  0  0  0  0  0  0  0  0  0  0  0
  -19.6912  -24.7513   19.9640 C   0  0  0  0  0  0  0  0  0  0  0  0
  -24.6938  -20.8739   19.9988 C   0  0  0  0  0  0  0  0  0  0  0  0
  -32.0980  -27.4473   20.8517 C   0  0  0  0  0  0  0  0  0  0  0  0
  -32.0261  -27.7920   22.3064 C   0  0  0  0  0  0  0  0  0  0  0  0
  -26.3110  -21.9522   18.3800 C   0  0  0  0  0  0  0  0  0  0  0  0
  -27.1120  -20.1459   19.8530 C   0  0  0  0  0  0  0  0  0  0  0  0
  -20.5032  -25.7858   20.7527 C   0  0  1  0  0  0  0  0  0  0  0  0
  -22.8871  -27.5229   18.3583 C   0  0  1  0  0  0  0  0  0  0  0  0
  -25.8965  -20.3128   20.7810 C   0  0  2  0  0  0  0  0  0  0  0  0
  -30.9529  -26.9114   21.6921 C   0  0  0  0  0  0  0  0  0  0  0  0
  -31.0096  -26.0300   24.4856 C   0  0  0  0  0  0  0  0  0  0  0  0
  -30.9747  -21.2850   22.9853 C   0  0  0  0  0  0  0  0  0  0  0  0
  -25.4287  -27.0236   11.0581 C   0  0  0  0  0  0  0  0  0  0  0  0
  -22.6946  -23.5559   15.9947 C   0  0  0  0  0  0  0  0  0  0  0  0
  -23.7999  -23.5841   13.7484 C   0  0  0  0  0  0  0  0  0  0  0  0
  -21.6199  -24.7508   14.0786 C   0  0  0  0  0  0  0  0  0  0  0  0
  -26.2706  -29.7498   13.5751 C   0  0  0  0  0  0  0  0  0  0  0  0
  -30.9196  -22.1679   20.1906 C   0  0  0  0  0  0  0  0  0  0  0  0
  -29.6017  -27.5041   21.4845 C   0  0  0  0  0  0  0  0  0  1  0  0
  -23.7199  -25.7414   15.0790 C   0  0  1  0  0  0  0  0  0  0  0  0
  -25.2427  -27.8498   12.3212 C   0  0  2  0  0  0  0  0  0  0  0  0
  -22.9716  -24.4194   14.7478 C   0  0  0  0  0  0  0  0  0  0  0  0
  -25.7682  -17.8517   20.8768 N   0  0  0  0  0  0  0  0  0  0  0  0
  -25.5451  -19.0223   21.4980 N   0  0  0  0  0  0  0  0  0  0  0  0
  -23.6323  -26.8757   17.2767 N   0  0  0  0  0  0  0  0  0  0  0  0
  -27.4152  -21.4198   19.1820 N   0  0  0  0  0  0  0  0  0  0  0  0
  -24.7231  -19.9672   23.5085 N   0  0  0  0  0  0  0  0  0  0  0  0
  -24.2759  -15.5245   24.1860 N   0  0  0  0  0  0  0  0  0  0  0  0
  -21.1672  -26.7018   19.8502 N   0  0  0  0  0  0  0  0  0  0  0  0
  -23.9716  -26.5919   13.9207 N   0  0  0  0  0  0  0  0  0  0  0  0
  -29.6199  -21.5557   20.0273 N   0  0  0  0  0  0  0  0  0  0  0  0
  -26.3423  -28.8531   12.3929 N   0  3  0  0  0  0  0  0  0  0  0  0
  -23.9358  -17.5933   25.1152 O   0  0  0  0  0  0  0  0  0  0  0  0
  -23.0578  -25.4157   19.4098 O   0  0  0  0  0  0  0  0  0  0  0  0
  -21.8398  -27.0004   15.7908 O   0  0  0  0  0  0  0  0  0  0  0  0
  -26.2784  -26.6547   14.1477 O   0  0  0  0  0  0  0  0  0  0  0  0
  -28.8106  -23.1903   18.6380 O   0  0  0  0  0  0  0  0  0  0  0  0
  -25.6612  -11.4907   20.6021 O   0  0  0  0  0  0  0  0  0  0  0  0
  -28.9465  -26.8333   20.4088 O   0  0  0  0  0  0  0  0  0  1  0  0
  -21.2818   -8.3628   21.8027 F   0  0  0  0  0  0  0  0  0  0  0  0
  -24.7363  -11.2821   23.1990 F   0  0  0  0  0  0  0  0  0  0  0  0
  1  2  1  0  0  0  0
  1  5  2  0  0  0  0
  2  6  2  0  0  0  0
  3  8  2  0  0  0  0
  3 17  1  0  0  0  0
  4  9  1  0  0  0  0
  4 17  2  0  0  0  0
  5 19  1  0  0  0  0
  6 21  1  0  0  0  0
  7 10  2  0  0  0  0
  7 20  1  0  0  0  0
  8 27  1  0  0  0  0
  9 27  2  0  0  0  0
 10 28  1  0  0  0  0
 11 12  2  0  0  0  0
 11 29  1  0  0  0  0
 12 30  1  0  0  0  0
 13 22  1  0  0  0  0
 13 24  2  0  0  0  0
 14 23  1  0  0  0  0
 14 28  2  0  0  0  0
 15 25  1  0  0  0  0
 15 26  2  0  0  0  0
 16 30  2  0  0  0  0
 16 31  1  0  0  0  0
 17 32  1  0  0  0  0
 18 32  1  0  0  0  0
 18 33  2  0  0  0  0
 18 34  1  0  0  0  0
 19 21  2  0  0  0  0
 19 39  1  0  0  0  0
 20 23  2  0  0  0  0
 20 40  1  0  0  0  0
 21 50  1  0  0  0  0
 22 25  2  0  0  0  0
 22 53  1  0  0  0  0
 23 41  1  0  0  0  0
 24 26  1  0  0  0  0
 24 61  1  0  0  0  0
 25 54  1  0  0  0  0
 26 55  1  0  0  0  0
 27 81  1  0  0  0  0
 28 82  1  0  0  0  0
 29 31  2  0  0  0  0
 29 81  1  0  0  0  0
 30 83  1  0  0  0  0
 31 84  1  0  0  0  0
 32 66  2  0  0  0  0
 33 67  1  0  0  0  0
 33 70  1  0  0  0  0
 34 71  1  0  0  0  0
 34 76  2  0  0  0  0
 35 51  1  0  0  0  0
 35 72  1  0  0  0  0
 35 77  2  0  0  0  0
 36 63  1  0  0  0  0
 36 68  1  0  0  0  0
 36 78  2  0  0  0  0
 37 64  1  0  0  0  0
 37 73  1  0  0  0  0
 37 79  2  0  0  0  0
 38 69  1  0  0  0  0
 38 74  1  0  0  0  0
 38 80  2  0  0  0  0
 39 42  1  0  0  0  0
 40 51  1  0  0  0  0
 41 68  1  0  0  0  0
 42 44  1  0  0  0  0
 43 45  1  0  0  0  0
 43 48  1  0  0  0  0
 44 50  1  0  0  0  0
 45 52  1  0  0  0  0
 46 47  1  0  0  0  0
 46 53  1  0  0  0  0
 47 53  1  0  0  0  0
 48 69  1  0  0  0  0
 49 52  1  0  0  0  0
 49 69  1  0  0  0  0
 50 72  1  0  0  0  0
 51 68  1  0  0  0  0
 52 67  1  0  0  0  0
 53 62  1  0  0  0  0
 56 64  1  0  0  0  0
 57 65  1  0  0  0  0
 58 65  1  0  0  0  0
 59 65  1  0  0  0  0
 60 75  1  0  0  0  0
 61 74  1  0  0  0  0
 62 82  1  0  0  0  0
 63 65  1  0  0  0  0
 63 73  1  0  0  0  0
 64 75  1  0  0  0  0
 66 67  1  0  0  0  0
M  CHG  1  75   1
M  ISO  4  38 100  62 101  74 100  82 101
M  END
> <Batch ID>
0159

> <Smiles>
CNC(C)C(=O)NC(C(=O)N1Cc2cc([101O:1][101CH2:1]C3(c4cc(C[100NH:0][100C:0](=O)N5CCCC(n6nc(-c7ccc(Oc8ccc(F)cc8F)cc7)c(C(N)=O)c6N)C5)c(C)cc4C)CC3)ccc2CC1C(=O)NC1CCCc2ccccc21)C(C)(C)C

> <Shape>
0.193

> <Color>
0.088

> <Negative vol penalty>
0.000

$$$$

  -OEChem-04052322073D

 89 98  0     1  0  0  0  0  0999 V2000
  -19.6477  -28.6657   22.0980 C   0  0  0  0  0  0  0  0  0  0  0  0
  -20.8663  -28.0038   21.9877 C   0  0  0  0  0  0  0  0  0  0  0  0
  -29.3066  -23.5384   18.9587 C   0  0  0  0  0  0  0  0  0  0  0  0
  -27.6205  -23.4142   20.6846 C   0  0  0  0  0  0  0  0  0  0  0  0
  -18.5386  -27.9999   22.6182 C   0  0  0  0  0  0  0  0  0  0  0  0
  -20.9769  -26.6759   22.3987 C   0  0  0  0  0  0  0  0  0  0  0  0
  -24.4718  -22.3220   19.8817 C   0  0  0  0  0  0  0  0  0  0  0  0
  -24.7423  -12.8590   19.7686 C   0  0  0  0  0  0  0  0  0  0  0  0
  -29.2950  -24.9303   19.0475 C   0  0  0  0  0  0  0  0  0  0  0  0
  -27.6090  -24.8062   20.7735 C   0  0  0  0  0  0  0  0  0  0  0  0
  -25.7231  -21.8102   20.2223 C   0  0  0  0  0  0  0  0  0  0  0  0
  -24.6286  -11.6113   20.3818 C   0  0  0  0  0  0  0  0  0  0  0  0
  -26.2952  -27.4018   19.0508 C   0  0  0  0  0  0  0  0  0  0  0  0
  -25.0548  -28.0374   19.1057 C   0  0  0  0  0  0  0  0  0  0  0  0
  -24.6540  -20.0071   21.4160 C   0  0  0  0  0  0  0  0  0  0  0  0
  -25.6313  -28.9768   21.2556 C   0  0  0  0  0  0  0  0  0  0  0  0
  -28.4692  -22.7803   19.7772 C   0  0  0  0  0  0  0  0  0  0  0  0
  -29.2905  -20.4503   20.4132 C   0  0  0  0  0  0  0  0  0  0  0  0
  -18.6332  -26.6602   23.0267 C   0  0  0  0  0  0  0  0  0  0  0  0
  -23.3002  -21.6853   20.3156 C   0  0  0  0  0  0  0  0  0  0  0  0
  -19.8684  -25.9920   22.9261 C   0  0  0  0  0  0  0  0  0  0  0  0
  -23.3890  -20.5114   21.0774 C   0  0  0  0  0  0  0  0  0  0  0  0
  -25.9395  -13.6958   21.6931 C   0  0  0  0  0  0  0  0  0  0  0  0
  -25.8257  -12.4481   22.3064 C   0  0  0  0  0  0  0  0  0  0  0  0
  -25.3978  -13.9012   20.4243 C   0  0  0  0  0  0  0  0  0  0  0  0
  -28.4463  -25.5642   19.9550 C   0  0  0  0  0  0  0  0  0  0  0  0
  -25.8144  -20.6542   20.9920 C   0  0  0  0  0  0  0  0  0  0  0  0
  -25.1702  -11.4059   21.6507 C   0  0  0  0  0  0  0  0  0  0  0  0
  -27.2036  -27.5536   20.0984 C   0  0  0  0  0  0  0  0  0  0  0  0
  -24.7229  -28.8250   20.2080 C   0  0  0  0  0  0  0  0  0  0  0  0
  -26.8717  -28.3411   21.2008 C   0  0  0  0  0  0  0  0  0  0  0  0
  -28.4803  -21.3424   19.6855 C   0  0  0  0  0  0  0  0  0  0  0  0
  -28.9209  -19.2062   19.9638 C   0  0  0  0  0  0  0  0  0  0  0  0
  -30.2880  -20.7220   21.4066 C   0  0  0  0  0  0  0  0  0  0  0  0
  -20.8510  -22.5122   22.1653 C   0  0  0  0  0  0  0  0  0  0  0  0
  -19.6652  -19.6486   21.2082 C   0  0  0  0  0  0  0  0  0  0  0  0
  -20.2800  -16.5116   20.0132 C   0  0  0  0  0  0  0  0  0  0  0  0
  -25.0137  -15.5098   18.5239 C   0  0  0  0  0  0  0  0  0  0  0  0
  -17.4189  -25.9968   23.6268 C   0  0  0  0  0  0  0  0  0  0  0  0
  -21.9580  -22.2351   19.9172 C   0  0  0  0  0  0  0  0  0  0  0  0
  -22.1614  -19.7787   21.5512 C   0  0  0  0  0  0  0  0  0  0  0  0
  -17.5254  -24.4754   23.6912 C   0  0  0  0  0  0  0  0  0  0  0  0
  -26.0299  -17.8468   16.0374 C   0  0  0  0  0  0  0  0  0  0  0  0
  -18.8843  -24.0584   24.2447 C   0  0  0  0  0  0  0  0  0  0  0  0
  -26.8247  -18.8912   16.8247 C   0  0  0  0  0  0  0  0  0  0  0  0
  -27.8633  -15.2687   21.5843 C   0  0  0  0  0  0  0  0  0  0  0  0
  -25.6781  -15.9838   22.6331 C   0  0  0  0  0  0  0  0  0  0  0  0
  -24.8364  -17.3233   16.8343 C   0  0  0  0  0  0  0  0  0  0  0  0
  -25.9530  -17.8636   18.9628 C   0  0  0  0  0  0  0  0  0  0  0  0
  -28.5546  -16.4595   22.2358 C   0  0  0  0  0  0  0  0  0  0  0  0
  -26.3862  -17.1690   23.2769 C   0  0  0  0  0  0  0  0  0  0  0  0
  -26.6428  -14.8102   22.3985 C   0  0  0  0  0  0  0  0  0  0  0  0
  -20.0218  -24.5439   23.3381 C   0  0  1  0  0  0  0  0  0  0  0  0
  -20.8316  -21.7929   20.8462 C   0  0  1  0  0  0  0  0  0  0  0  0
  -27.2027  -18.3729   18.2262 C   0  0  2  0  0  0  0  0  0  0  0  0
  -26.4030  -12.2187   23.6671 C   0  0  0  0  0  0  0  0  0  0  0  0
  -19.1130  -14.3861   19.3668 C   0  0  0  0  0  0  0  0  0  0  0  0
  -27.9458  -21.3562   23.2061 C   0  0  0  0  0  0  0  0  0  0  0  0
  -19.2971  -18.9567   24.1570 C   0  0  0  0  0  0  0  0  0  0  0  0
  -19.0480  -16.5562   23.4909 C   0  0  0  0  0  0  0  0  0  0  0  0
  -17.4091  -18.2513   22.6764 C   0  0  0  0  0  0  0  0  0  0  0  0
  -21.2414  -16.6967   17.2203 C   0  0  0  0  0  0  0  0  0  0  0  0
  -24.3634   -9.1744   21.4909 C   0  0  0  0  0  0  0  0  0  0  0  0
  -28.2183  -18.8263   22.9427 C   0  0  0  0  0  0  0  0  0  0  0  0
  -19.7498  -18.2312   21.7209 C   0  0  1  0  0  0  0  0  0  0  0  0
  -19.6482  -15.7237   18.8798 C   0  0  2  0  0  0  0  0  0  0  0  0
  -27.3350  -20.0492   22.7176 C   0  0  2  0  0  0  0  0  0  1  0  0
  -18.8993  -18.0135   23.0042 C   0  0  0  0  0  0  0  0  0  0  0  0
  -27.6581  -20.7180   18.8381 N   0  0  0  0  0  0  0  0  0  0  0  0
  -27.9498  -19.4203   19.0304 N   0  0  0  0  0  0  0  0  0  0  0  0
  -20.8720  -20.3592   21.1411 N   0  0  0  0  0  0  0  0  0  0  0  0
  -25.2712  -16.8453   18.1486 N   0  0  0  0  0  0  0  0  0  0  0  0
  -29.3352  -17.9608   20.2799 N   0  0  0  0  0  0  0  0  0  0  0  0
  -30.5426  -22.0567   21.7502 N   0  0  0  0  0  0  0  0  0  0  0  0
  -25.5023  -15.1601   19.7823 N   0  0  0  0  0  0  0  0  0  0  0  0
  -20.1361  -23.6948   22.1718 N   0  0  0  0  0  0  0  0  0  0  0  0
  -19.3770  -17.3701   20.6038 N   0  0  0  0  0  0  0  0  0  0  0  0
  -27.5679  -17.5963   22.4264 N   0  3  0  0  0  0  0  0  0  0  0  0
  -20.6497  -15.4665   17.8066 N   0  3  0  0  0  0  0  0  0  0  0  0
  -30.9460  -19.8092   21.9608 O   0  0  0  0  0  0  0  0  0  0  0  0
  -21.4676  -22.0293   23.1078 O   0  0  0  0  0  0  0  0  0  0  0  0
  -18.5699  -20.1060   20.8726 O   0  0  0  0  0  0  0  0  0  0  0  0
  -21.4558  -16.3760   20.3442 O   0  0  0  0  0  0  0  0  0  0  0  0
  -24.4286  -14.7257   17.7723 O   0  0  0  0  0  0  0  0  0  0  0  0
  -28.4350  -26.9225   20.0421 O   0  0  0  0  0  0  0  0  0  0  0  0
  -25.0489  -10.1805   22.2338 O   0  0  0  0  0  0  0  0  0  0  0  0
  -27.0345  -20.1529   21.3264 O   0  0  0  0  0  0  0  0  0  1  0  0
  -23.5323  -29.4366   20.2599 F   0  0  0  0  0  0  0  0  0  0  0  0
  -27.7407  -28.4917   22.2097 F   0  0  0  0  0  0  0  0  0  0  0  0
  1  2  1  0  0  0  0
  1  5  2  0  0  0  0
  2  6  2  0  0  0  0
  3  9  2  0  0  0  0
  3 17  1  0  0  0  0
  4 10  1  0  0  0  0
  4 17  2  0  0  0  0
  5 19  1  0  0  0  0
  6 21  1  0  0  0  0
  7 11  2  0  0  0  0
  7 20  1  0  0  0  0
  8 12  1  0  0  0  0
  8 25  2  0  0  0  0
  9 26  1  0  0  0  0
 10 26  2  0  0  0  0
 11 27  1  0  0  0  0
 12 28  2  0  0  0  0
 13 14  2  0  0  0  0
 13 29  1  0  0  0  0
 14 30  1  0  0  0  0
 15 22  1  0  0  0  0
 15 27  2  0  0  0  0
 16 30  2  0  0  0  0
 16 31  1  0  0  0  0
 17 32  1  0  0  0  0
 18 32  1  0  0  0  0
 18 33  2  0  0  0  0
 18 34  1  0  0  0  0
 19 21  2  0  0  0  0
 19 39  1  0  0  0  0
 20 22  2  0  0  0  0
 20 40  1  0  0  0  0
 21 53  1  0  0  0  0
 22 41  1  0  0  0  0
 23 24  2  0  0  0  0
 23 25  1  0  0  0  0
 23 52  1  0  0  0  0
 24 28  1  0  0  0  0
 24 56  1  0  0  0  0
 25 75  1  0  0  0  0
 26 85  1  0  0  0  0
 27 87  1  0  0  0  0
 28 86  1  0  0  0  0
 29 31  2  0  0  0  0
 29 85  1  0  0  0  0
 30 88  1  0  0  0  0
 31 89  1  0  0  0  0
 32 69  2  0  0  0  0
 33 70  1  0  0  0  0
 33 73  1  0  0  0  0
 34 74  1  0  0  0  0
 34 80  2  0  0  0  0
 35 54  1  0  0  0  0
 35 76  1  0  0  0  0
 35 81  2  0  0  0  0
 36 65  1  0  0  0  0
 36 71  1  0  0  0  0
 36 82  2  0  0  0  0
 37 66  1  0  0  0  0
 37 77  1  0  0  0  0
 37 83  2  0  0  0  0
 38 72  1  0  0  0  0
 38 75  1  0  0  0  0
 38 84  2  0  0  0  0
 39 42  1  0  0  0  0
 40 54  1  0  0  0  0
 41 71  1  0  0  0  0
 42 44  1  0  0  0  0
 43 45  1  0  0  0  0
 43 48  1  0  0  0  0
 44 53  1  0  0  0  0
 45 55  1  0  0  0  0
 46 50  1  0  0  0  0
 46 52  1  0  0  0  0
 47 51  1  0  0  0  0
 47 52  1  0  0  0  0
 48 72  1  0  0  0  0
 49 55  1  0  0  0  0
 49 72  1  0  0  0  0
 50 78  1  0  0  0  0
 51 78  1  0  0  0  0
 53 76  1  0  0  0  0
 54 71  1  0  0  0  0
 55 70  1  0  0  0  0
 57 66  1  0  0  0  0
 58 67  1  0  0  0  0
 59 68  1  0  0  0  0
 60 68  1  0  0  0  0
 61 68  1  0  0  0  0
 62 79  1  0  0  0  0
 63 86  1  0  0  0  0
 64 67  1  0  0  0  0
 64 78  1  0  0  0  0
 65 68  1  0  0  0  0
 65 77  1  0  0  0  0
 66 79  1  0  0  0  0
 67 87  1  0  0  0  0
 69 70  1  0  0  0  0
M  CHG  2  78   1  79   1
M  ISO  4  38 100  67 101  75 100  87 101
M  END
> <Batch ID>
0159

> <Smiles>
CNC(C)C(=O)NC(C(=O)N1Cc2cc([101O:1][101CH:1](C)CN3CCC(c4c([100NH:0][100C:0](=O)N5CCCC(n6nc(-c7ccc(Oc8ccc(F)cc8F)cc7)c(C(N)=O)c6N)C5)ccc(OC)c4C)CC3)ccc2CC1C(=O)NC1CCCc2ccccc21)C(C)(C)C

> <Shape>
0.196

> <Color>
0.086

> <Negative vol penalty>
0.000

$$$$

  -OEChem-04052322073D

 88 97  0     1  0  0  0  0  0999 V2000
  -27.1641  -32.5455   27.6751 C   0  0  0  0  0  0  0  0  0  0  0  0
  -27.4957  -31.5587   26.7521 C   0  0  0  0  0  0  0  0  0  0  0  0
  -27.1928  -13.5639   17.0264 C   0  0  0  0  0  0  0  0  0  0  0  0
  -28.0220  -11.4378   17.8195 C   0  0  0  0  0  0  0  0  0  0  0  0
  -25.8250  -32.8215   27.9479 C   0  0  0  0  0  0  0  0  0  0  0  0
  -26.4882  -30.8466   26.1023 C   0  0  0  0  0  0  0  0  0  0  0  0
  -27.3508  -30.3535   21.1366 C   0  0  0  0  0  0  0  0  0  0  0  0
  -32.5829  -22.2428   19.9112 C   0  0  0  0  0  0  0  0  0  0  0  0
  -27.5621  -13.2226   15.7254 C   0  0  0  0  0  0  0  0  0  0  0  0
  -28.3913  -11.0965   16.5185 C   0  0  0  0  0  0  0  0  0  0  0  0
  -28.2766  -29.3878   20.7440 C   0  0  0  0  0  0  0  0  0  0  0  0
  -32.0827  -23.5355   20.0671 C   0  0  0  0  0  0  0  0  0  0  0  0
  -28.6145  -13.0577   12.2485 C   0  0  0  0  0  0  0  0  0  0  0  0
  -29.2726  -14.0222   11.4853 C   0  0  0  0  0  0  0  0  0  0  0  0
  -26.4696  -27.8838   20.2037 C   0  0  0  0  0  0  0  0  0  0  0  0
  -30.8664  -23.3151   17.9912 C   0  0  0  0  0  0  0  0  0  0  0  0
  -31.0530  -14.0982   13.1167 C   0  0  0  0  0  0  0  0  0  0  0  0
  -27.4228  -12.6715   18.0735 C   0  0  0  0  0  0  0  0  0  0  0  0
  -25.8061  -12.7751   20.0441 C   0  0  0  0  0  0  0  0  0  0  0  0
  -24.8005  -32.1191   27.2940 C   0  0  0  0  0  0  0  0  0  0  0  0
  -25.9754  -30.0871   21.0759 C   0  0  0  0  0  0  0  0  0  0  0  0
  -25.1341  -31.1126   26.3677 C   0  0  0  0  0  0  0  0  0  0  0  0
  -25.5284  -28.8487   20.5938 C   0  0  0  0  0  0  0  0  0  0  0  0
  -32.2250  -21.4863   18.7953 C   0  0  0  0  0  0  0  0  0  0  0  0
  -31.3667  -22.0224   17.8354 C   0  0  0  0  0  0  0  0  0  0  0  0
  -28.1613  -11.9889   15.4714 C   0  0  0  0  0  0  0  0  0  0  0  0
  -27.8362  -28.1517   20.2802 C   0  0  0  0  0  0  0  0  0  0  0  0
  -31.2245  -24.0717   19.1071 C   0  0  0  0  0  0  0  0  0  0  0  0
  -29.1757  -12.6136   13.4458 C   0  0  0  0  0  0  0  0  0  0  0  0
  -30.4918  -14.5424   11.9194 C   0  0  0  0  0  0  0  0  0  0  0  0
  -30.3950  -13.1338   13.8798 C   0  0  0  0  0  0  0  0  0  0  0  0
  -27.0421  -13.0238   19.4178 C   0  0  0  0  0  0  0  0  0  0  0  0
  -25.9484  -13.3001   21.3052 C   0  0  0  0  0  0  0  0  0  0  0  0
  -24.6341  -12.1274   19.5316 C   0  0  0  0  0  0  0  0  0  0  0  0
  -23.6254  -29.9261   23.2103 C   0  0  0  0  0  0  0  0  0  0  0  0
  -21.7747  -29.5822   20.5685 C   0  0  0  0  0  0  0  0  0  0  0  0
  -21.5466  -28.6581   17.2912 C   0  0  0  0  0  0  0  0  0  0  0  0
  -30.8994  -15.3530   20.6452 C   0  0  0  0  0  0  0  0  0  0  0  0
  -23.3679  -32.4201   27.6568 C   0  0  0  0  0  0  0  0  0  0  0  0
  -24.9889  -31.1491   21.4779 C   0  0  0  0  0  0  0  0  0  0  0  0
  -24.0621  -28.5205   20.4900 C   0  0  0  0  0  0  0  0  0  0  0  0
  -22.3576  -31.8786   26.6486 C   0  0  0  0  0  0  0  0  0  0  0  0
  -29.9167  -13.0838   23.1431 C   0  0  0  0  0  0  0  0  0  0  0  0
  -22.6888  -30.4350   26.2837 C   0  0  0  0  0  0  0  0  0  0  0  0
  -28.5020  -13.5114   23.5243 C   0  0  0  0  0  0  0  0  0  0  0  0
  -30.7984  -14.2958   22.8794 C   0  0  0  0  0  0  0  0  0  0  0  0
  -30.4473  -17.8425   20.6836 C   0  0  0  0  0  0  0  0  0  0  0  0
  -28.8523  -15.6394   22.1338 C   0  0  0  0  0  0  0  0  0  0  0  0
  -31.5467  -18.8663   20.4334 C   0  0  0  0  0  0  0  0  0  0  0  0
  -32.1238  -17.7180   18.2962 C   0  0  0  0  0  0  0  0  0  0  0  0
  -24.0695  -30.3356   25.6240 C   0  0  1  0  0  0  0  0  0  0  0  0
  -23.6243  -30.5835   21.8592 C   0  0  1  0  0  0  0  0  0  0  0  0
  -27.8767  -14.5101   22.5347 C   0  0  1  0  0  0  0  0  0  0  0  0
  -31.0297  -16.6796   18.5486 C   0  0  2  0  0  0  0  0  0  0  0  0
  -30.9705  -21.2316   16.6321 C   0  0  0  0  0  0  0  0  0  0  0  0
  -29.7601  -16.9474   17.7347 C   0  0  0  0  0  0  0  0  0  0  0  0
  -19.8952  -28.4523   15.4129 C   0  0  0  0  0  0  0  0  0  0  0  0
  -20.6445  -27.0507   21.8429 C   0  0  0  0  0  0  0  0  0  0  0  0
  -19.7566  -26.3989   19.5945 C   0  0  0  0  0  0  0  0  0  0  0  0
  -18.9493  -28.4870   20.6949 C   0  0  0  0  0  0  0  0  0  0  0  0
  -23.0305  -30.5979   15.6195 C   0  0  0  0  0  0  0  0  0  0  0  0
  -32.7758  -20.0983   18.6497 C   0  0  0  0  0  0  0  0  0  0  0  0
  -30.0056  -27.2158   20.5511 C   0  0  0  0  0  0  0  0  0  1  0  0
  -30.5587  -25.8044   20.5937 C   0  0  0  0  0  0  0  0  0  0  0  0
  -21.2917  -28.4117   19.7465 C   0  0  1  0  0  0  0  0  0  0  0  0
  -20.9209  -29.3467   16.0917 C   0  0  2  0  0  0  0  0  0  0  0  0
  -20.1883  -27.5922   20.4734 C   0  0  0  0  0  0  0  0  0  0  0  0
  -27.9060  -13.6576   20.2153 N   0  0  0  0  0  0  0  0  0  0  0  0
  -27.2117  -13.8117   21.3556 N   0  0  0  0  0  0  0  0  0  0  0  0
  -23.1368  -29.5893   20.9010 N   0  0  0  0  0  0  0  0  0  0  0  0
  -30.2179  -15.1673   21.8593 N   0  0  0  0  0  0  0  0  0  0  0  0
  -30.7120  -16.5770   19.9836 N   0  0  0  0  0  0  0  0  0  0  0  0
  -25.1149  -13.3696   22.3649 N   0  0  0  0  0  0  0  0  0  0  0  0
  -24.6580  -11.6465   18.2154 N   0  0  0  0  0  0  0  0  0  0  0  0
  -24.0018  -30.7634   24.2431 N   0  0  0  0  0  0  0  0  0  0  0  0
  -20.8786  -28.9598   18.4591 N   0  0  0  0  0  0  0  0  0  0  0  0
  -31.7634  -19.0280   18.9511 N   0  3  2  0  0  0  0  0  0  0  0  0
  -21.9688  -29.7018   15.0933 N   0  3  0  0  0  0  0  0  0  0  0  0
  -23.5908  -11.9940   20.2151 O   0  0  0  0  0  0  0  0  0  0  0  0
  -23.3068  -28.7469   23.3087 O   0  0  0  0  0  0  0  0  0  0  0  0
  -20.9745  -30.4615   20.8972 O   0  0  0  0  0  0  0  0  0  0  0  0
  -22.5274  -27.9230   17.2006 O   0  0  0  0  0  0  0  0  0  0  0  0
  -31.6214  -14.4671   20.1702 O   0  0  0  0  0  0  0  0  0  0  0  0
  -28.5215  -11.6554   14.2019 O   0  0  0  0  0  0  0  0  0  0  0  0
  -28.7439  -27.2007   19.8944 O   0  0  0  0  0  0  0  0  0  1  0  0
  -30.7367  -25.3332   19.2588 O   0  0  0  0  0  0  0  0  0  0  0  0
  -31.1244  -15.4675   11.1857 F   0  0  0  0  0  0  0  0  0  0  0  0
  -30.9396  -12.7101   15.0286 F   0  0  0  0  0  0  0  0  0  0  0  0
  1  2  1  0  0  0  0
  1  5  2  0  0  0  0
  2  6  2  0  0  0  0
  3  9  2  0  0  0  0
  3 18  1  0  0  0  0
  4 10  1  0  0  0  0
  4 18  2  0  0  0  0
  5 20  1  0  0  0  0
  6 22  1  0  0  0  0
  7 11  2  0  0  0  0
  7 21  1  0  0  0  0
  8 12  2  0  0  0  0
  8 24  1  0  0  0  0
  9 26  1  0  0  0  0
 10 26  2  0  0  0  0
 11 27  1  0  0  0  0
 12 28  1  0  0  0  0
 13 14  2  0  0  0  0
 13 29  1  0  0  0  0
 14 30  1  0  0  0  0
 15 23  1  0  0  0  0
 15 27  2  0  0  0  0
 16 25  1  0  0  0  0
 16 28  2  0  0  0  0
 17 30  2  0  0  0  0
 17 31  1  0  0  0  0
 18 32  1  0  0  0  0
 19 32  1  0  0  0  0
 19 33  2  0  0  0  0
 19 34  1  0  0  0  0
 20 22  2  0  0  0  0
 20 39  1  0  0  0  0
 21 23  2  0  0  0  0
 21 40  1  0  0  0  0
 22 51  1  0  0  0  0
 23 41  1  0  0  0  0
 24 25  2  0  0  0  0
 24 62  1  0  0  0  0
 25 55  1  0  0  0  0
 26 84  1  0  0  0  0
 27 85  1  0  0  0  0
 28 86  1  0  0  0  0
 29 31  2  0  0  0  0
 29 84  1  0  0  0  0
 30 87  1  0  0  0  0
 31 88  1  0  0  0  0
 32 68  2  0  0  0  0
 33 69  1  0  0  0  0
 33 73  1  0  0  0  0
 34 74  1  0  0  0  0
 34 79  2  0  0  0  0
 35 52  1  0  0  0  0
 35 75  1  0  0  0  0
 35 80  2  0  0  0  0
 36 65  1  0  0  0  0
 36 70  1  0  0  0  0
 36 81  2  0  0  0  0
 37 66  1  0  0  0  0
 37 76  1  0  0  0  0
 37 82  2  0  0  0  0
 38 71  1  0  0  0  0
 38 72  1  0  0  0  0
 38 83  2  0  0  0  0
 39 42  1  0  0  0  0
 40 52  1  0  0  0  0
 41 70  1  0  0  0  0
 42 44  1  0  0  0  0
 43 45  1  0  0  0  0
 43 46  1  0  0  0  0
 44 51  1  0  0  0  0
 45 53  1  0  0  0  0
 46 71  1  0  0  0  0
 47 49  1  0  0  0  0
 47 72  1  0  0  0  0
 48 53  1  0  0  0  0
 48 71  1  0  0  0  0
 49 77  1  0  0  0  0
 50 54  1  0  0  0  0
 50 77  1  0  0  0  0
 51 75  1  0  0  0  0
 52 70  1  0  0  0  0
 53 69  1  0  0  0  0
 54 56  1  0  0  0  0
 54 72  1  0  0  0  0
 57 66  1  0  0  0  0
 58 67  1  0  0  0  0
 59 67  1  0  0  0  0
 60 67  1  0  0  0  0
 61 78  1  0  0  0  0
 62 77  1  0  0  0  0
 63 64  1  0  0  0  0
 63 85  1  0  0  0  0
 64 86  1  0  0  0  0
 65 67  1  0  0  0  0
 65 76  1  0  0  0  0
 66 78  1  0  0  0  0
 68 69  1  0  0  0  0
M  CHG  2  77   1  78   1
M  ISO  4  38 100  63 101  72 100  85 101
M  END
> <Batch ID>
0159

> <Smiles>
CNC(C)C(=O)NC(C(=O)N1Cc2cc([101O:1][101CH2:1]COc3ccc(CN4CC[100N:0]([100C:0](=O)N5CCCC(n6nc(-c7ccc(Oc8ccc(F)cc8F)cc7)c(C(N)=O)c6N)C5)C(C)C4)c(C)c3)ccc2CC1C(=O)NC1CCCc2ccccc21)C(C)(C)C

> <Shape>
0.247

> <Color>
0.089

> <Negative vol penalty>
0.000

$$$$

  -OEChem-04052322073D

 86 95  0     1  0  0  0  0  0999 V2000
  -23.7735  -30.8065   22.4165 C   0  0  0  0  0  0  0  0  0  0  0  0
  -24.4401  -29.6911   22.9136 C   0  0  0  0  0  0  0  0  0  0  0  0
  -23.2490   -9.6785   20.0182 C   0  0  0  0  0  0  0  0  0  0  0  0
  -23.7561   -9.9724   22.3620 C   0  0  0  0  0  0  0  0  0  0  0  0
  -23.9768  -31.2080   21.0969 C   0  0  0  0  0  0  0  0  0  0  0  0
  -25.3096  -28.9759   22.0908 C   0  0  0  0  0  0  0  0  0  0  0  0
  -30.4864  -26.1650   23.7658 C   0  0  0  0  0  0  0  0  0  0  0  0
  -22.5288   -8.5225   20.3190 C   0  0  0  0  0  0  0  0  0  0  0  0
  -23.0359   -8.8164   22.6628 C   0  0  0  0  0  0  0  0  0  0  0  0
  -30.7769  -24.8346   24.0649 C   0  0  0  0  0  0  0  0  0  0  0  0
  -23.1974   -5.2887   21.0401 C   0  0  0  0  0  0  0  0  0  0  0  0
  -23.4059   -4.1685   20.2356 C   0  0  0  0  0  0  0  0  0  0  0  0
  -31.5412  -24.4990   21.8017 C   0  0  0  0  0  0  0  0  0  0  0  0
  -32.4813  -18.1502   25.0960 C   0  0  0  0  0  0  0  0  0  0  0  0
  -21.0686   -4.1726   19.6241 C   0  0  0  0  0  0  0  0  0  0  0  0
  -23.8627  -10.4035   21.0398 C   0  0  0  0  0  0  0  0  0  0  0  0
  -24.1152  -12.9150   20.6711 C   0  0  0  0  0  0  0  0  0  0  0  0
  -24.8566  -30.5031   20.2605 C   0  0  0  0  0  0  0  0  0  0  0  0
  -30.7113  -26.6703   22.4772 C   0  0  0  0  0  0  0  0  0  0  0  0
  -25.5239  -29.3676   20.7584 C   0  0  0  0  0  0  0  0  0  0  0  0
  -31.2551  -25.8368   21.4895 C   0  0  0  0  0  0  0  0  0  0  0  0
  -31.3121  -18.4817   24.4114 C   0  0  0  0  0  0  0  0  0  0  0  0
  -30.9345  -19.8183   24.2823 C   0  0  0  0  0  0  0  0  0  0  0  0
  -31.7263  -20.8234   24.8379 C   0  0  0  0  0  0  0  0  0  0  0  0
  -32.8955  -20.4919   25.5225 C   0  0  0  0  0  0  0  0  0  0  0  0
  -22.4222   -8.0914   21.6413 C   0  0  0  0  0  0  0  0  0  0  0  0
  -31.3016  -24.0006   23.0820 C   0  0  0  0  0  0  0  0  0  0  0  0
  -21.9245   -5.8509   21.1367 C   0  0  0  0  0  0  0  0  0  0  0  0
  -33.2730  -19.1553   25.6516 C   0  0  0  0  0  0  0  0  0  0  0  0
  -22.3415   -3.6104   19.5276 C   0  0  0  0  0  0  0  0  0  0  0  0
  -20.8601   -5.2929   20.4286 C   0  0  0  0  0  0  0  0  0  0  0  0
  -24.6073  -11.5974   20.7297 C   0  0  0  0  0  0  0  0  0  0  0  0
  -25.2096  -13.6759   20.3398 C   0  0  0  0  0  0  0  0  0  0  0  0
  -22.7875  -13.4072   20.8962 C   0  0  0  0  0  0  0  0  0  0  0  0
  -28.8703  -27.9043   20.1988 C   0  0  0  0  0  0  0  0  0  0  0  0
  -31.7150  -28.4563   18.7409 C   0  0  0  0  0  0  0  0  0  0  0  0
  -35.0054  -27.6185   18.3978 C   0  0  0  0  0  0  0  0  0  0  0  0
  -30.5984  -14.9483   21.0025 C   0  0  0  0  0  0  0  0  0  0  0  0
  -25.0080  -30.9472   18.8271 C   0  0  0  0  0  0  0  0  0  0  0  0
  -30.4177  -28.1148   22.1780 C   0  0  0  0  0  0  0  0  0  0  0  0
  -31.5341  -26.3360   20.0961 C   0  0  0  0  0  0  0  0  0  0  0  0
  -26.2321  -30.3562   18.1324 C   0  0  0  0  0  0  0  0  0  0  0  0
  -29.8033  -12.3473   18.7475 C   0  0  0  0  0  0  0  0  0  0  0  0
  -26.3297  -28.8586   18.4052 C   0  0  0  0  0  0  0  0  0  0  0  0
  -28.3534  -11.9981   19.0718 C   0  0  0  0  0  0  0  0  0  0  0  0
  -30.5415  -16.0028   24.5152 C   0  0  0  0  0  0  0  0  0  0  0  0
  -30.5754  -12.6841   20.0160 C   0  0  0  0  0  0  0  0  0  0  0  0
  -29.9462  -15.0604   23.4777 C   0  0  0  0  0  0  0  0  0  0  0  0
  -30.8382  -16.9935   22.3778 C   0  0  0  0  0  0  0  0  0  0  0  0
  -28.5122  -13.5005   21.1238 C   0  0  0  0  0  0  0  0  0  0  0  0
  -30.4714  -17.3720   23.8197 C   0  0  2  0  0  0  0  0  0  0  0  0
  -26.4940  -28.5805   19.9043 C   0  0  1  0  0  0  0  0  0  0  0  0
  -30.2055  -28.3859   20.6918 C   0  0  1  0  0  0  0  0  0  0  0  0
  -27.6899  -13.1294   19.8723 C   0  0  2  0  0  0  0  0  0  0  0  0
  -29.6802  -20.1706   23.5469 C   0  0  0  0  0  0  0  0  0  0  0  0
  -33.7495  -21.5642   26.1210 C   0  0  0  0  0  0  0  0  0  0  0  0
  -37.0671  -28.2225   17.1008 C   0  0  0  0  0  0  0  0  0  0  0  0
  -30.6079  -26.9918   16.3037 C   0  0  0  0  0  0  0  0  0  0  0  0
  -32.9516  -26.7921   15.4461 C   0  0  0  0  0  0  0  0  0  0  0  0
  -31.9331  -29.0455   15.7738 C   0  0  0  0  0  0  0  0  0  0  0  0
  -36.4712  -28.3731   20.8556 C   0  0  0  0  0  0  0  0  0  0  0  0
  -34.7197  -17.4223   26.3996 C   0  0  0  0  0  0  0  0  0  0  0  0
  -31.3220  -22.2573   24.6996 C   0  0  0  0  0  0  0  0  0  1  0  0
  -32.5998  -27.6808   17.7950 C   0  0  1  0  0  0  0  0  0  0  0  0
  -36.2633  -28.4678   18.3683 C   0  0  2  0  0  0  0  0  0  0  0  0
  -32.0162  -27.6173   16.3553 C   0  0  0  0  0  0  0  0  0  0  0  0
  -25.9128  -11.5220   20.4572 N   0  0  0  0  0  0  0  0  0  0  0  0
  -26.2501  -12.8018   20.2242 N   0  0  0  0  0  0  0  0  0  0  0  0
  -31.2243  -27.7542   19.8509 N   0  0  0  0  0  0  0  0  0  0  0  0
  -29.9208  -13.7433   20.7861 N   0  0  0  0  0  0  0  0  0  0  0  0
  -30.3542  -15.6289   22.1947 N   0  0  0  0  0  0  0  0  0  0  0  0
  -25.3737  -15.0008   20.1389 N   0  0  0  0  0  0  0  0  0  0  0  0
  -21.7819  -12.4891   21.2281 N   0  0  0  0  0  0  0  0  0  0  0  0
  -27.8567  -28.8358   20.3193 N   0  0  0  0  0  0  0  0  0  0  0  0
  -33.9213  -28.2933   17.8776 N   0  0  0  0  0  0  0  0  0  0  0  0
  -37.1277  -28.1540   19.5411 N   0  3  0  0  0  0  0  0  0  0  0  0
  -22.4978  -14.6230   20.7896 O   0  0  0  0  0  0  0  0  0  0  0  0
  -28.7676  -26.7721   19.7414 O   0  0  0  0  0  0  0  0  0  0  0  0
  -31.4740  -29.6434   18.5074 O   0  0  0  0  0  0  0  0  0  0  0  0
  -34.9872  -26.4700   18.8349 O   0  0  0  0  0  0  0  0  0  0  0  0
  -31.4206  -15.3796   20.1828 O   0  0  0  0  0  0  0  0  0  0  0  0
  -21.7193   -6.9635   21.9351 O   0  0  0  0  0  0  0  0  0  0  0  0
  -34.4116  -18.8123   26.3166 O   0  0  0  0  0  0  0  0  0  0  0  0
  -31.5876  -22.6918   23.3732 O   0  0  0  0  0  0  0  0  0  1  0  0
  -22.5422   -2.5356   18.7539 F   0  0  0  0  0  0  0  0  0  0  0  0
  -19.6352   -5.8292   20.5165 F   0  0  0  0  0  0  0  0  0  0  0  0
  1  2  1  0  0  0  0
  1  5  2  0  0  0  0
  2  6  2  0  0  0  0
  3  8  2  0  0  0  0
  3 16  1  0  0  0  0
  4  9  1  0  0  0  0
  4 16  2  0  0  0  0
  5 18  1  0  0  0  0
  6 20  1  0  0  0  0
  7 10  2  0  0  0  0
  7 19  1  0  0  0  0
  8 26  1  0  0  0  0
  9 26  2  0  0  0  0
 10 27  1  0  0  0  0
 11 12  2  0  0  0  0
 11 28  1  0  0  0  0
 12 30  1  0  0  0  0
 13 21  1  0  0  0  0
 13 27  2  0  0  0  0
 14 22  2  0  0  0  0
 14 29  1  0  0  0  0
 15 30  2  0  0  0  0
 15 31  1  0  0  0  0
 16 32  1  0  0  0  0
 17 32  1  0  0  0  0
 17 33  2  0  0  0  0
 17 34  1  0  0  0  0
 18 20  2  0  0  0  0
 18 39  1  0  0  0  0
 19 21  2  0  0  0  0
 19 40  1  0  0  0  0
 20 52  1  0  0  0  0
 21 41  1  0  0  0  0
 22 23  1  0  0  0  0
 22 51  1  0  0  0  0
 23 24  2  0  0  0  0
 23 55  1  0  0  0  0
 24 25  1  0  0  0  0
 24 63  1  0  0  0  0
 25 29  2  0  0  0  0
 25 56  1  0  0  0  0
 26 82  1  0  0  0  0
 27 84  1  0  0  0  0
 28 31  2  0  0  0  0
 28 82  1  0  0  0  0
 29 83  1  0  0  0  0
 30 85  1  0  0  0  0
 31 86  1  0  0  0  0
 32 67  2  0  0  0  0
 33 68  1  0  0  0  0
 33 72  1  0  0  0  0
 34 73  1  0  0  0  0
 34 77  2  0  0  0  0
 35 53  1  0  0  0  0
 35 74  1  0  0  0  0
 35 78  2  0  0  0  0
 36 64  1  0  0  0  0
 36 69  1  0  0  0  0
 36 79  2  0  0  0  0
 37 65  1  0  0  0  0
 37 75  1  0  0  0  0
 37 80  2  0  0  0  0
 38 70  1  0  0  0  0
 38 71  1  0  0  0  0
 38 81  2  0  0  0  0
 39 42  1  0  0  0  0
 40 53  1  0  0  0  0
 41 69  1  0  0  0  0
 42 44  1  0  0  0  0
 43 45  1  0  0  0  0
 43 47  1  0  0  0  0
 44 52  1  0  0  0  0
 45 54  1  0  0  0  0
 46 48  1  0  0  0  0
 46 51  1  0  0  0  0
 47 70  1  0  0  0  0
 48 71  1  0  0  0  0
 49 51  1  0  0  0  0
 49 71  1  0  0  0  0
 50 54  1  0  0  0  0
 50 70  1  0  0  0  0
 52 74  1  0  0  0  0
 53 69  1  0  0  0  0
 54 68  1  0  0  0  0
 57 65  1  0  0  0  0
 58 66  1  0  0  0  0
 59 66  1  0  0  0  0
 60 66  1  0  0  0  0
 61 76  1  0  0  0  0
 62 83  1  0  0  0  0
 63 84  1  0  0  0  0
 64 66  1  0  0  0  0
 64 75  1  0  0  0  0
 65 76  1  0  0  0  0
 67 68  1  0  0  0  0
M  CHG  1  76   1
M  ISO  4  38 100  63 101  71 100  84 101
M  END
> <Batch ID>
0159

> <Smiles>
CNC(C)C(=O)NC(C(=O)N1Cc2cc([101O:1][101CH2:1]c3c(C)c(OC)cc(C4CC[100N:0]([100C:0](=O)N5CCCC(n6nc(-c7ccc(Oc8ccc(F)cc8F)cc7)c(C(N)=O)c6N)C5)C4)c3C)ccc2CC1C(=O)NC1CCCc2ccccc21)C(C)(C)C

> <Shape>
0.233

> <Color>
0.219

> <Negative vol penalty>
0.000

$$$$

  -OEChem-04052322073D

 87 97  0     1  0  0  0  0  0999 V2000
  -38.3642  -28.1467   12.5277 C   0  0  0  0  0  0  0  0  0  0  0  0
  -37.7174  -28.9150   13.4905 C   0  0  0  0  0  0  0  0  0  0  0  0
  -23.0401   -9.9493   19.9900 C   0  0  0  0  0  0  0  0  0  0  0  0
  -23.8006   -9.9848   22.2829 C   0  0  0  0  0  0  0  0  0  0  0  0
  -37.6219  -27.4929   11.5452 C   0  0  0  0  0  0  0  0  0  0  0  0
  -36.3279  -29.0307   13.4705 C   0  0  0  0  0  0  0  0  0  0  0  0
  -31.0948  -27.4247   19.0438 C   0  0  0  0  0  0  0  0  0  0  0  0
  -22.2668   -8.8212   20.2639 C   0  0  0  0  0  0  0  0  0  0  0  0
  -23.0272   -8.8567   22.5569 C   0  0  0  0  0  0  0  0  0  0  0  0
  -30.0639  -27.0273   19.8956 C   0  0  0  0  0  0  0  0  0  0  0  0
  -19.7797   -8.1554   23.1751 C   0  0  0  0  0  0  0  0  0  0  0  0
  -19.0223   -8.1597   24.3464 C   0  0  0  0  0  0  0  0  0  0  0  0
  -28.0297  -21.4589   21.2587 C   0  0  0  0  0  0  0  0  0  0  0  0
  -29.9756  -22.6714   20.4971 C   0  0  0  0  0  0  0  0  0  0  0  0
  -28.6093  -26.6874   17.9938 C   0  0  0  0  0  0  0  0  0  0  0  0
  -20.2134   -6.2067   25.1237 C   0  0  0  0  0  0  0  0  0  0  0  0
  -23.8071  -10.5311   20.9995 C   0  0  0  0  0  0  0  0  0  0  0  0
  -24.2140  -13.0435   20.8266 C   0  0  0  0  0  0  0  0  0  0  0  0
  -36.2219  -27.5928   11.5189 C   0  0  0  0  0  0  0  0  0  0  0  0
  -30.8915  -27.4401   17.6612 C   0  0  0  0  0  0  0  0  0  0  0  0
  -35.5663  -28.3786   12.4859 C   0  0  0  0  0  0  0  0  0  0  0  0
  -28.6011  -22.6154   20.7281 C   0  0  0  0  0  0  0  0  0  0  0  0
  -29.6421  -27.0725   17.1349 C   0  0  0  0  0  0  0  0  0  0  0  0
  -30.2072  -20.4145   21.3275 C   0  0  0  0  0  0  0  0  0  0  0  0
  -28.8327  -20.3584   21.5585 C   0  0  0  0  0  0  0  0  0  0  0  0
  -30.7786  -21.5710   20.7968 C   0  0  0  0  0  0  0  0  0  0  0  0
  -22.2603   -8.2750   21.5473 C   0  0  0  0  0  0  0  0  0  0  0  0
  -28.8241  -26.6599   19.3718 C   0  0  0  0  0  0  0  0  0  0  0  0
  -20.7539   -7.1768   22.9781 C   0  0  0  0  0  0  0  0  0  0  0  0
  -19.2391   -7.1853   25.3207 C   0  0  0  0  0  0  0  0  0  0  0  0
  -20.9708   -6.2024   23.9524 C   0  0  0  0  0  0  0  0  0  0  0  0
  -24.6066  -11.6960   20.7170 C   0  0  0  0  0  0  0  0  0  0  0  0
  -25.3250  -13.7567   20.4479 C   0  0  0  0  0  0  0  0  0  0  0  0
  -22.9574  -13.6006   21.2342 C   0  0  0  0  0  0  0  0  0  0  0  0
  -32.3389  -28.1001   14.2633 C   0  0  0  0  0  0  0  0  0  0  0  0
  -30.6288  -25.5645   14.0261 C   0  0  0  0  0  0  0  0  0  0  0  0
  -28.9941  -22.5815   14.2846 C   0  0  0  0  0  0  0  0  0  0  0  0
  -30.8333  -14.6375   20.6164 C   0  0  0  0  0  0  0  0  0  0  0  0
  -35.4658  -26.9063   10.4091 C   0  0  0  0  0  0  0  0  0  0  0  0
  -31.9539  -27.9199   16.7100 C   0  0  0  0  0  0  0  0  0  0  0  0
  -29.4580  -27.1375   15.6434 C   0  0  0  0  0  0  0  0  0  0  0  0
  -33.9695  -26.7758   10.6816 C   0  0  0  0  0  0  0  0  0  0  0  0
  -29.6339  -12.2335   18.2799 C   0  0  0  0  0  0  0  0  0  0  0  0
  -31.0530  -18.7962   23.1363 C   0  0  0  0  0  0  0  0  0  0  0  0
  -33.4019  -28.0976   11.1889 C   0  0  0  0  0  0  0  0  0  0  0  0
  -28.1894  -11.9862   18.7185 C   0  0  0  0  0  0  0  0  0  0  0  0
  -30.5108  -17.3696   23.1519 C   0  0  0  0  0  0  0  0  0  0  0  0
  -30.6815  -17.9657   20.8515 C   0  0  0  0  0  0  0  0  0  0  0  0
  -26.8631  -24.3706   21.4858 C   0  0  0  0  0  0  0  0  0  0  0  0
  -30.5567  -12.4558   19.4761 C   0  0  0  0  0  0  0  0  0  0  0  0
  -28.6749  -13.2647   20.8465 C   0  0  0  0  0  0  0  0  0  0  0  0
  -27.7478  -23.7851   20.4102 C   0  0  1  0  0  0  0  0  0  0  0  0
  -31.0776  -19.2213   21.6521 C   0  0  1  0  0  0  0  0  0  0  0  0
  -34.0588  -28.5084   12.5123 C   0  0  1  0  0  0  0  0  0  0  0  0
  -31.9497  -27.1637   15.3693 C   0  0  1  0  0  0  0  0  0  0  0  0
  -27.6962  -13.0906   19.6726 C   0  0  2  0  0  0  0  0  0  0  0  0
  -30.9550  -16.8111   21.8078 C   0  0  2  0  0  0  0  0  0  0  0  0
  -28.0724  -25.1274   21.0283 C   0  0  1  0  0  0  0  0  0  1  0  0
  -28.1960  -19.1321   22.1257 C   0  0  0  0  0  0  0  0  0  0  0  0
  -32.2477  -21.6567   20.5405 C   0  0  0  0  0  0  0  0  0  0  0  0
  -28.2864  -20.5984   12.9194 C   0  0  0  0  0  0  0  0  0  0  0  0
  -28.3837  -27.2200   12.7920 C   0  0  0  0  0  0  0  0  0  0  0  0
  -27.2028  -25.0810   12.2456 C   0  0  0  0  0  0  0  0  0  0  0  0
  -29.4339  -25.5641   11.2397 C   0  0  0  0  0  0  0  0  0  0  0  0
  -30.5966  -20.7238   15.9398 C   0  0  0  0  0  0  0  0  0  0  0  0
  -29.2822  -24.9735   13.6933 C   0  0  1  0  0  0  0  0  0  0  0  0
  -29.3646  -21.1857   13.8167 C   0  0  2  0  0  0  0  0  0  0  0  0
  -28.5830  -25.7156   12.5195 C   0  0  0  0  0  0  0  0  0  0  0  0
  -25.8684  -11.5588   20.3012 N   0  0  0  0  0  0  0  0  0  0  0  0
  -26.2783  -12.8292   20.1460 N   0  0  0  0  0  0  0  0  0  0  0  0
  -30.6494  -26.6019   14.9663 N   0  0  0  0  0  0  0  0  0  0  0  0
  -30.0331  -13.5165   20.3402 N   0  0  0  0  0  0  0  0  0  0  0  0
  -25.5697  -15.0804   20.3470 N   0  0  0  0  0  0  0  0  0  0  0  0
  -21.9224  -12.7251   21.5902 N   0  0  0  0  0  0  0  0  0  0  0  0
  -33.5039  -27.7458   13.6100 N   0  0  0  0  0  0  0  0  0  0  0  0
  -29.5083  -23.5527   13.4518 N   0  0  0  0  0  0  0  0  0  0  0  0
  -30.2586  -15.5989   21.4386 N   0  0  0  0  0  0  0  0  0  0  0  0
  -29.5485  -20.2794   14.9854 N   0  3  0  0  0  0  0  0  0  0  0  0
  -22.7530  -14.8378   21.2656 O   0  0  0  0  0  0  0  0  0  0  0  0
  -31.6341  -29.0722   14.0187 O   0  0  0  0  0  0  0  0  0  0  0  0
  -31.6360  -25.1241   13.4651 O   0  0  0  0  0  0  0  0  0  0  0  0
  -28.3132  -22.7894   15.2865 O   0  0  0  0  0  0  0  0  0  0  0  0
  -31.9733  -14.7740   20.1595 O   0  0  0  0  0  0  0  0  0  0  0  0
  -21.5056   -7.1744   21.8151 O   0  0  0  0  0  0  0  0  0  0  0  0
  -27.8234  -26.2687   20.2087 O   0  0  0  0  0  0  0  0  0  1  0  0
  -18.5128   -7.1904   26.4461 F   0  0  0  0  0  0  0  0  0  0  0  0
  -21.9061   -5.2604   23.7693 F   0  0  0  0  0  0  0  0  0  0  0  0
  1  2  1  0  0  0  0
  1  5  2  0  0  0  0
  2  6  2  0  0  0  0
  3  8  2  0  0  0  0
  3 17  1  0  0  0  0
  4  9  1  0  0  0  0
  4 17  2  0  0  0  0
  5 19  1  0  0  0  0
  6 21  1  0  0  0  0
  7 10  2  0  0  0  0
  7 20  1  0  0  0  0
  8 27  1  0  0  0  0
  9 27  2  0  0  0  0
 10 28  1  0  0  0  0
 11 12  2  0  0  0  0
 11 29  1  0  0  0  0
 12 30  1  0  0  0  0
 13 22  1  0  0  0  0
 13 25  2  0  0  0  0
 14 22  2  0  0  0  0
 14 26  1  0  0  0  0
 15 23  1  0  0  0  0
 15 28  2  0  0  0  0
 16 30  2  0  0  0  0
 16 31  1  0  0  0  0
 17 32  1  0  0  0  0
 18 32  1  0  0  0  0
 18 33  2  0  0  0  0
 18 34  1  0  0  0  0
 19 21  2  0  0  0  0
 19 39  1  0  0  0  0
 20 23  2  0  0  0  0
 20 40  1  0  0  0  0
 21 54  1  0  0  0  0
 22 52  1  0  0  0  0
 23 41  1  0  0  0  0
 24 25  1  0  0  0  0
 24 26  2  0  0  0  0
 24 53  1  0  0  0  0
 25 59  1  0  0  0  0
 26 60  1  0  0  0  0
 27 84  1  0  0  0  0
 28 85  1  0  0  0  0
 29 31  2  0  0  0  0
 29 84  1  0  0  0  0
 30 86  1  0  0  0  0
 31 87  1  0  0  0  0
 32 69  2  0  0  0  0
 33 70  1  0  0  0  0
 33 73  1  0  0  0  0
 34 74  1  0  0  0  0
 34 79  2  0  0  0  0
 35 55  1  0  0  0  0
 35 75  1  0  0  0  0
 35 80  2  0  0  0  0
 36 66  1  0  0  0  0
 36 71  1  0  0  0  0
 36 81  2  0  0  0  0
 37 67  1  0  0  0  0
 37 76  1  0  0  0  0
 37 82  2  0  0  0  0
 38 72  1  0  0  0  0
 38 77  1  0  0  0  0
 38 83  2  0  0  0  0
 39 42  1  0  0  0  0
 40 55  1  0  0  0  0
 41 71  1  0  0  0  0
 42 45  1  0  0  0  0
 43 46  1  0  0  0  0
 43 50  1  0  0  0  0
 44 47  1  0  0  0  0
 44 53  1  0  0  0  0
 45 54  1  0  0  0  0
 46 56  1  0  0  0  0
 47 57  1  0  0  0  0
 48 53  1  0  0  0  0
 48 57  1  0  0  0  0
 49 52  1  0  0  0  0
 49 58  1  0  0  0  0
 50 72  1  0  0  0  0
 51 56  1  0  0  0  0
 51 72  1  0  0  0  0
 52 58  1  0  0  0  0
 54 75  1  0  0  0  0
 55 71  1  0  0  0  0
 56 70  1  0  0  0  0
 57 77  1  0  0  0  0
 58 85  1  0  0  0  0
 61 67  1  0  0  0  0
 62 68  1  0  0  0  0
 63 68  1  0  0  0  0
 64 68  1  0  0  0  0
 65 78  1  0  0  0  0
 66 68  1  0  0  0  0
 66 76  1  0  0  0  0
 67 78  1  0  0  0  0
 69 70  1  0  0  0  0
M  CHG  1  78   1
M  ISO  4  38 100  58 101  77 100  85 101
M  END
> <Batch ID>
0159

> <Smiles>
CNC(C)C(=O)NC(C(=O)N1Cc2cc([101O:1][101CH:1]3CC3c3cc(C)c(C4CCC([100NH:0][100C:0](=O)N5CCCC(n6nc(-c7ccc(Oc8ccc(F)cc8F)cc7)c(C(N)=O)c6N)C5)C4)c(C)c3)ccc2CC1C(=O)NC1CCCc2ccccc21)C(C)(C)C

> <Shape>
0.235

> <Color>
0.206

> <Negative vol penalty>
0.000

$$$$

  -OEChem-04052322073D

 86 95  0     1  0  0  0  0  0999 V2000
  -18.0995  -25.0325   23.1544 C   0  0  0  0  0  0  0  0  0  0  0  0
  -19.3661  -24.8063   22.6254 C   0  0  0  0  0  0  0  0  0  0  0  0
  -25.1856  -14.9605   19.1260 C   0  0  0  0  0  0  0  0  0  0  0  0
  -23.2739  -14.7431   20.5872 C   0  0  0  0  0  0  0  0  0  0  0  0
  -17.5790  -26.3256   23.1853 C   0  0  0  0  0  0  0  0  0  0  0  0
  -20.1126  -25.8729   22.1259 C   0  0  0  0  0  0  0  0  0  0  0  0
  -26.1944  -26.5467   22.3764 C   0  0  0  0  0  0  0  0  0  0  0  0
  -25.6555  -13.7196   19.5562 C   0  0  0  0  0  0  0  0  0  0  0  0
  -23.7438  -13.5022   21.0174 C   0  0  0  0  0  0  0  0  0  0  0  0
  -27.2043  -26.3027   21.4466 C   0  0  0  0  0  0  0  0  0  0  0  0
  -24.2538  -10.1140   22.2332 C   0  0  0  0  0  0  0  0  0  0  0  0
  -23.3362   -9.0673   22.3216 C   0  0  0  0  0  0  0  0  0  0  0  0
  -27.1563  -28.6247   20.7942 C   0  0  0  0  0  0  0  0  0  0  0  0
  -32.2990  -25.6055   16.7339 C   0  0  0  0  0  0  0  0  0  0  0  0
  -22.8724   -9.2744   19.9595 C   0  0  0  0  0  0  0  0  0  0  0  0
  -23.9948  -15.4722   19.6415 C   0  0  0  0  0  0  0  0  0  0  0  0
  -22.6500  -17.0085   18.1121 C   0  0  0  0  0  0  0  0  0  0  0  0
  -18.3234  -27.4100   22.6948 C   0  0  0  0  0  0  0  0  0  0  0  0
  -25.6494  -27.8314   22.5147 C   0  0  0  0  0  0  0  0  0  0  0  0
  -19.6010  -27.1815   22.1491 C   0  0  0  0  0  0  0  0  0  0  0  0
  -26.1414  -28.8829   21.7283 C   0  0  0  0  0  0  0  0  0  0  0  0
  -30.1335  -24.8815   17.5236 C   0  0  0  0  0  0  0  0  0  0  0  0
  -31.1530  -24.8267   16.5731 C   0  0  0  0  0  0  0  0  0  0  0  0
  -32.4256  -26.4389   17.8453 C   0  0  0  0  0  0  0  0  0  0  0  0
  -30.2601  -25.7150   18.6349 C   0  0  0  0  0  0  0  0  0  0  0  0
  -31.4061  -26.4937   18.7957 C   0  0  0  0  0  0  0  0  0  0  0  0
  -24.9346  -12.9905   20.5019 C   0  0  0  0  0  0  0  0  0  0  0  0
  -27.6834  -27.3411   20.6533 C   0  0  0  0  0  0  0  0  0  0  0  0
  -24.4808  -10.7410   21.0080 C   0  0  0  0  0  0  0  0  0  0  0  0
  -22.6455   -8.6475   21.1848 C   0  0  0  0  0  0  0  0  0  0  0  0
  -23.7901  -10.3212   19.8712 C   0  0  0  0  0  0  0  0  0  0  0  0
  -23.5091  -16.7542   19.1980 C   0  0  0  0  0  0  0  0  0  0  0  0
  -22.4929  -18.3730   18.1109 C   0  0  0  0  0  0  0  0  0  0  0  0
  -22.0478  -16.0932   17.1874 C   0  0  0  0  0  0  0  0  0  0  0  0
  -22.7606  -29.0970   22.1189 C   0  0  0  0  0  0  0  0  0  0  0  0
  -24.1816  -31.7463   23.3371 C   0  0  0  0  0  0  0  0  0  0  0  0
  -27.0584  -33.4985   23.8853 C   0  0  0  0  0  0  0  0  0  0  0  0
  -25.2716  -23.2200   19.1027 C   0  0  0  0  0  0  0  0  0  0  0  0
  -17.6996  -28.7831   22.7062 C   0  0  0  0  0  0  0  0  0  0  0  0
  -24.5792  -28.0839   23.5410 C   0  0  0  0  0  0  0  0  0  0  0  0
  -25.6041  -30.2844   21.8522 C   0  0  0  0  0  0  0  0  0  0  0  0
  -18.7068  -29.9114   22.4996 C   0  0  0  0  0  0  0  0  0  0  0  0
  -23.0700  -21.9606   21.4511 C   0  0  0  0  0  0  0  0  0  0  0  0
  -19.6409  -29.5871   21.3381 C   0  0  0  0  0  0  0  0  0  0  0  0
  -22.8620  -20.5110   21.0135 C   0  0  0  0  0  0  0  0  0  0  0  0
  -28.7200  -23.0105   18.4844 C   0  0  0  0  0  0  0  0  0  0  0  0
  -27.6202  -24.8935   17.1981 C   0  0  0  0  0  0  0  0  0  0  0  0
  -24.5313  -22.3696   21.3071 C   0  0  0  0  0  0  0  0  0  0  0  0
  -27.4443  -22.1801   18.3163 C   0  0  0  0  0  0  0  0  0  0  0  0
  -26.3848  -24.0122   17.0382 C   0  0  0  0  0  0  0  0  0  0  0  0
  -24.8747  -20.7433   19.4754 C   0  0  0  0  0  0  0  0  0  0  0  0
  -28.8883  -24.0333   17.3463 C   0  0  0  0  0  0  0  0  0  0  0  0
  -20.4514  -28.3162   21.6203 C   0  0  1  0  0  0  0  0  0  0  0  0
  -23.7395  -29.3206   23.2367 C   0  0  1  0  0  0  0  0  0  0  0  0
  -23.4092  -20.2779   19.5941 C   0  0  1  0  0  0  0  0  0  0  0  0
  -31.0422  -23.9431   15.3739 C   0  0  0  0  0  0  0  0  0  0  0  0
  -33.6632  -27.2619   17.9943 C   0  0  0  0  0  0  0  0  0  0  0  0
  -31.5442  -27.3891   19.9862 C   0  0  0  0  0  0  0  0  0  0  0  0
  -27.8981  -35.6482   24.8707 C   0  0  0  0  0  0  0  0  0  0  0  0
  -23.1783  -33.2594   20.8847 C   0  0  0  0  0  0  0  0  0  0  0  0
  -24.8049  -35.0827   21.4307 C   0  0  0  0  0  0  0  0  0  0  0  0
  -22.9833  -34.5163   23.0380 C   0  0  0  0  0  0  0  0  0  0  0  0
  -28.7099  -32.0720   25.8845 C   0  0  0  0  0  0  0  0  0  0  0  0
  -29.1667  -25.7732   19.6547 C   0  0  0  0  0  0  0  0  0  1  0  0
  -24.9262  -32.9235   22.7551 C   0  0  1  0  0  0  0  0  0  0  0  0
  -27.6019  -34.1791   25.1287 C   0  0  2  0  0  0  0  0  0  0  0  0
  -23.9822  -33.9188   22.0232 C   0  0  0  0  0  0  0  0  0  0  0  0
  -23.8725  -17.8678   19.8398 N   0  0  0  0  0  0  0  0  0  0  0  0
  -23.2386  -18.8351   19.1551 N   0  0  0  0  0  0  0  0  0  0  0  0
  -24.5540  -30.4795   22.8655 N   0  0  0  0  0  0  0  0  0  0  0  0
  -25.0143  -22.1297   19.9474 N   0  0  0  0  0  0  0  0  0  0  0  0
  -26.2762  -23.0535   18.1375 N   0  0  0  0  0  0  0  0  0  0  0  0
  -21.7909  -19.2106   17.3183 N   0  0  0  0  0  0  0  0  0  0  0  0
  -22.3148  -14.7249   17.3319 N   0  0  0  0  0  0  0  0  0  0  0  0
  -21.5384  -28.6020   22.5320 N   0  0  0  0  0  0  0  0  0  0  0  0
  -25.6800  -33.5143   23.8556 N   0  0  0  0  0  0  0  0  0  0  0  0
  -28.8607  -33.5168   25.5734 N   0  3  0  0  0  0  0  0  0  0  0  0
  -21.3084  -16.4787   16.2503 O   0  0  0  0  0  0  0  0  0  0  0  0
  -23.0893  -29.3558   20.9671 O   0  0  0  0  0  0  0  0  0  0  0  0
  -23.3069  -31.9430   24.1843 O   0  0  0  0  0  0  0  0  0  0  0  0
  -27.7842  -33.0057   23.0246 O   0  0  0  0  0  0  0  0  0  0  0  0
  -24.6409  -24.2798   19.2037 O   0  0  0  0  0  0  0  0  0  0  0  0
  -25.3928  -11.7795   20.9217 O   0  0  0  0  0  0  0  0  0  0  0  0
  -28.6758  -27.1039   19.7378 O   0  0  0  0  0  0  0  0  0  1  0  0
  -21.7654   -7.6413   21.2695 F   0  0  0  0  0  0  0  0  0  0  0  0
  -24.0048  -10.9189   18.6911 F   0  0  0  0  0  0  0  0  0  0  0  0
  1  2  1  0  0  0  0
  1  5  2  0  0  0  0
  2  6  2  0  0  0  0
  3  8  2  0  0  0  0
  3 16  1  0  0  0  0
  4  9  1  0  0  0  0
  4 16  2  0  0  0  0
  5 18  1  0  0  0  0
  6 20  1  0  0  0  0
  7 10  2  0  0  0  0
  7 19  1  0  0  0  0
  8 27  1  0  0  0  0
  9 27  2  0  0  0  0
 10 28  1  0  0  0  0
 11 12  2  0  0  0  0
 11 29  1  0  0  0  0
 12 30  1  0  0  0  0
 13 21  1  0  0  0  0
 13 28  2  0  0  0  0
 14 23  2  0  0  0  0
 14 24  1  0  0  0  0
 15 30  2  0  0  0  0
 15 31  1  0  0  0  0
 16 32  1  0  0  0  0
 17 32  1  0  0  0  0
 17 33  2  0  0  0  0
 17 34  1  0  0  0  0
 18 20  2  0  0  0  0
 18 39  1  0  0  0  0
 19 21  2  0  0  0  0
 19 40  1  0  0  0  0
 20 53  1  0  0  0  0
 21 41  1  0  0  0  0
 22 23  1  0  0  0  0
 22 25  2  0  0  0  0
 22 52  1  0  0  0  0
 23 56  1  0  0  0  0
 24 26  2  0  0  0  0
 24 57  1  0  0  0  0
 25 26  1  0  0  0  0
 25 64  1  0  0  0  0
 26 58  1  0  0  0  0
 27 83  1  0  0  0  0
 28 84  1  0  0  0  0
 29 31  2  0  0  0  0
 29 83  1  0  0  0  0
 30 85  1  0  0  0  0
 31 86  1  0  0  0  0
 32 68  2  0  0  0  0
 33 69  1  0  0  0  0
 33 73  1  0  0  0  0
 34 74  1  0  0  0  0
 34 78  2  0  0  0  0
 35 54  1  0  0  0  0
 35 75  1  0  0  0  0
 35 79  2  0  0  0  0
 36 65  1  0  0  0  0
 36 70  1  0  0  0  0
 36 80  2  0  0  0  0
 37 66  1  0  0  0  0
 37 76  1  0  0  0  0
 37 81  2  0  0  0  0
 38 71  1  0  0  0  0
 38 72  1  0  0  0  0
 38 82  2  0  0  0  0
 39 42  1  0  0  0  0
 40 54  1  0  0  0  0
 41 70  1  0  0  0  0
 42 44  1  0  0  0  0
 43 45  1  0  0  0  0
 43 48  1  0  0  0  0
 44 53  1  0  0  0  0
 45 55  1  0  0  0  0
 46 49  1  0  0  0  0
 46 52  1  0  0  0  0
 47 50  1  0  0  0  0
 47 52  1  0  0  0  0
 48 71  1  0  0  0  0
 49 72  1  0  0  0  0
 50 72  1  0  0  0  0
 51 55  1  0  0  0  0
 51 71  1  0  0  0  0
 53 75  1  0  0  0  0
 54 70  1  0  0  0  0
 55 69  1  0  0  0  0
 59 66  1  0  0  0  0
 60 67  1  0  0  0  0
 61 67  1  0  0  0  0
 62 67  1  0  0  0  0
 63 77  1  0  0  0  0
 64 84  1  0  0  0  0
 65 67  1  0  0  0  0
 65 76  1  0  0  0  0
 66 77  1  0  0  0  0
 68 69  1  0  0  0  0
M  CHG  1  77   1
M  ISO  4  38 100  64 101  72 100  84 101
M  END
> <Batch ID>
0159

> <Smiles>
CNC(C)C(=O)NC(C(=O)N1Cc2cc([101O:1][101CH2:1]c3c(C)c(C)cc(C)c3C3CC[100N:0]([100C:0](=O)N4CCCC(n5nc(-c6ccc(Oc7ccc(F)cc7F)cc6)c(C(N)=O)c5N)C4)CC3)ccc2CC1C(=O)NC1CCCc2ccccc21)C(C)(C)C

> <Shape>
0.261

> <Color>
0.096

> <Negative vol penalty>
0.000

$$$$

  -OEChem-04052322073D

 89 98  0     1  0  0  0  0  0999 V2000
  -34.5756  -25.1229   13.3071 C   0  0  0  0  0  0  0  0  0  0  0  0
  -33.7120  -24.2653   13.9810 C   0  0  0  0  0  0  0  0  0  0  0  0
  -23.2141   -9.7361   19.9394 C   0  0  0  0  0  0  0  0  0  0  0  0
  -23.8354   -9.8649   22.2706 C   0  0  0  0  0  0  0  0  0  0  0  0
  -35.0695  -26.2583   13.9480 C   0  0  0  0  0  0  0  0  0  0  0  0
  -33.3426  -24.5421   15.2968 C   0  0  0  0  0  0  0  0  0  0  0  0
  -27.9248  -23.4061   17.9164 C   0  0  0  0  0  0  0  0  0  0  0  0
  -22.5124   -8.5572   20.1915 C   0  0  0  0  0  0  0  0  0  0  0  0
  -23.1337   -8.6861   22.5227 C   0  0  0  0  0  0  0  0  0  0  0  0
  -27.4782  -22.3711   18.7368 C   0  0  0  0  0  0  0  0  0  0  0  0
  -19.9171   -7.7510   22.9698 C   0  0  0  0  0  0  0  0  0  0  0  0
  -19.0948   -7.7163   24.0959 C   0  0  0  0  0  0  0  0  0  0  0  0
  -27.9295  -23.7257   20.6812 C   0  0  0  0  0  0  0  0  0  0  0  0
  -32.5988  -20.0988   25.5257 C   0  0  0  0  0  0  0  0  0  0  0  0
  -20.3811   -5.8714   24.9784 C   0  0  0  0  0  0  0  0  0  0  0  0
  -23.8756  -10.3899   20.9789 C   0  0  0  0  0  0  0  0  0  0  0  0
  -24.1034  -12.9229   20.7792 C   0  0  0  0  0  0  0  0  0  0  0  0
  -34.6984  -26.5543   15.2691 C   0  0  0  0  0  0  0  0  0  0  0  0
  -28.3881  -24.6066   18.4736 C   0  0  0  0  0  0  0  0  0  0  0  0
  -33.8331  -25.6818   15.9565 C   0  0  0  0  0  0  0  0  0  0  0  0
  -28.3790  -24.7753   19.8655 C   0  0  0  0  0  0  0  0  0  0  0  0
  -31.3285  -18.4078   24.3579 C   0  0  0  0  0  0  0  0  0  0  0  0
  -32.4978  -18.8091   25.0040 C   0  0  0  0  0  0  0  0  0  0  0  0
  -31.5305  -20.9871   25.4015 C   0  0  0  0  0  0  0  0  0  0  0  0
  -30.2603  -19.2961   24.2336 C   0  0  0  0  0  0  0  0  0  0  0  0
  -30.3613  -20.5857   24.7554 C   0  0  0  0  0  0  0  0  0  0  0  0
  -22.4722   -8.0322   21.4832 C   0  0  0  0  0  0  0  0  0  0  0  0
  -27.4832  -22.5297   20.1195 C   0  0  0  0  0  0  0  0  0  0  0  0
  -20.9714   -6.8458   22.8479 C   0  0  0  0  0  0  0  0  0  0  0  0
  -19.3268   -6.7766   25.1002 C   0  0  0  0  0  0  0  0  0  0  0  0
  -21.2034   -5.9061   23.8522 C   0  0  0  0  0  0  0  0  0  0  0  0
  -24.6011  -11.6074   20.7190 C   0  0  0  0  0  0  0  0  0  0  0  0
  -25.1783  -13.7120   20.4499 C   0  0  0  0  0  0  0  0  0  0  0  0
  -22.7872  -13.3897   21.1037 C   0  0  0  0  0  0  0  0  0  0  0  0
  -31.1598  -26.1626   18.4616 C   0  0  0  0  0  0  0  0  0  0  0  0
  -29.4379  -28.4485   19.9887 C   0  0  0  0  0  0  0  0  0  0  0  0
  -26.7271  -29.2368   21.9062 C   0  0  0  0  0  0  0  0  0  0  0  0
  -30.4972  -15.0368   20.7987 C   0  0  0  0  0  0  0  0  0  0  0  0
  -35.2954  -27.7680   15.9363 C   0  0  0  0  0  0  0  0  0  0  0  0
  -28.8414  -25.7235   17.5738 C   0  0  0  0  0  0  0  0  0  0  0  0
  -28.8474  -26.0522   20.5126 C   0  0  0  0  0  0  0  0  0  0  0  0
  -34.5593  -28.1893   17.2055 C   0  0  0  0  0  0  0  0  0  0  0  0
  -29.6957  -12.5231   18.5460 C   0  0  0  0  0  0  0  0  0  0  0  0
  -34.2872  -26.9781   18.0918 C   0  0  0  0  0  0  0  0  0  0  0  0
  -28.2619  -12.1469   18.9132 C   0  0  0  0  0  0  0  0  0  0  0  0
  -30.5251  -12.7769   19.7981 C   0  0  0  0  0  0  0  0  0  0  0  0
  -30.9809  -16.9711   22.2814 C   0  0  0  0  0  0  0  0  0  0  0  0
  -29.9285  -15.0584   23.2919 C   0  0  0  0  0  0  0  0  0  0  0  0
  -28.5157  -13.5001   21.0572 C   0  0  0  0  0  0  0  0  0  0  0  0
  -31.2218  -17.0112   23.7943 C   0  0  2  0  0  0  0  0  0  0  0  0
  -33.3897  -25.9613   17.3762 C   0  0  1  0  0  0  0  0  0  0  0  0
  -29.7739  -26.7103   18.2697 C   0  0  1  0  0  0  0  0  0  0  0  0
  -30.0550  -16.1670   24.3399 C   0  0  2  0  0  0  0  0  0  0  0  0
  -27.6338  -13.2151   19.8236 C   0  0  2  0  0  0  0  0  0  0  0  0
  -33.6564  -17.8777   25.1500 C   0  0  0  0  0  0  0  0  0  0  0  0
  -31.6640  -22.3620   25.9698 C   0  0  0  0  0  0  0  0  0  0  0  0
  -29.2174  -21.5408   24.6229 C   0  0  0  0  0  0  0  0  0  0  0  0
  -30.3007  -15.6227   25.7395 C   0  0  0  0  0  0  0  0  0  0  0  0
  -25.6057  -31.1818   23.0273 C   0  0  0  0  0  0  0  0  0  0  0  0
  -31.5589  -28.4042   22.1818 C   0  0  0  0  0  0  0  0  0  0  0  0
  -29.9468  -29.6118   23.6688 C   0  0  0  0  0  0  0  0  0  0  0  0
  -30.7447  -30.6867   21.5639 C   0  0  0  0  0  0  0  0  0  0  0  0
  -24.2602  -28.8839   20.3097 C   0  0  0  0  0  0  0  0  0  0  0  0
  -29.0058  -18.8653   23.5411 C   0  0  0  0  0  0  0  0  0  0  0  0
  -27.4672  -19.2516   21.6118 C   0  0  0  0  0  0  0  0  0  0  0  0
  -27.2221  -20.1884   20.4454 C   0  0  0  0  0  0  0  0  0  1  0  0
  -29.1145  -28.7589   21.4303 C   0  0  1  0  0  0  0  0  0  0  0  0
  -25.6807  -30.3282   21.7709 C   0  0  2  0  0  0  0  0  0  0  0  0
  -30.3342  -29.3405   22.1994 C   0  0  0  0  0  0  0  0  0  0  0  0
  -25.8917  -11.5594   20.3782 N   0  0  0  0  0  0  0  0  0  0  0  0
  -26.2140  -12.8546   20.2212 N   0  0  0  0  0  0  0  0  0  0  0  0
  -29.2870  -27.1126   19.5908 N   0  0  0  0  0  0  0  0  0  0  0  0
  -29.9019  -13.7781   20.6625 N   0  0  0  0  0  0  0  0  0  0  0  0
  -30.3527  -15.6764   22.0317 N   0  0  0  0  0  0  0  0  0  0  0  0
  -25.3291  -15.0487   20.3366 N   0  0  0  0  0  0  0  0  0  0  0  0
  -21.8015  -12.4442   21.4179 N   0  0  0  0  0  0  0  0  0  0  0  0
  -32.0108  -26.4001   17.3991 N   0  0  0  0  0  0  0  0  0  0  0  0
  -27.9489  -29.6361   21.4073 N   0  0  0  0  0  0  0  0  0  0  0  0
  -24.3373  -29.7305   21.5280 N   0  3  0  0  0  0  0  0  0  0  0  0
  -28.6789  -19.6949   22.3509 N   0  3  0  0  0  0  0  0  0  0  0  0
  -22.4897  -14.6083   21.0987 O   0  0  0  0  0  0  0  0  0  0  0  0
  -31.4371  -25.5698   19.4977 O   0  0  0  0  0  0  0  0  0  0  0  0
  -29.8040  -29.3591   19.2415 O   0  0  0  0  0  0  0  0  0  0  0  0
  -26.4858  -28.1411   22.4080 O   0  0  0  0  0  0  0  0  0  0  0  0
  -31.1569  -15.5394   19.8806 O   0  0  0  0  0  0  0  0  0  0  0  0
  -21.7874   -6.8821   21.7296 O   0  0  0  0  0  0  0  0  0  0  0  0
  -27.0454  -21.5135   20.9284 O   0  0  0  0  0  0  0  0  0  1  0  0
  -18.5380   -6.7444   26.1823 F   0  0  0  0  0  0  0  0  0  0  0  0
  -22.2154   -5.0347   23.7412 F   0  0  0  0  0  0  0  0  0  0  0  0
  1  2  1  0  0  0  0
  1  5  2  0  0  0  0
  2  6  2  0  0  0  0
  3  8  2  0  0  0  0
  3 16  1  0  0  0  0
  4  9  1  0  0  0  0
  4 16  2  0  0  0  0
  5 18  1  0  0  0  0
  6 20  1  0  0  0  0
  7 10  2  0  0  0  0
  7 19  1  0  0  0  0
  8 27  1  0  0  0  0
  9 27  2  0  0  0  0
 10 28  1  0  0  0  0
 11 12  2  0  0  0  0
 11 29  1  0  0  0  0
 12 30  1  0  0  0  0
 13 21  1  0  0  0  0
 13 28  2  0  0  0  0
 14 23  2  0  0  0  0
 14 24  1  0  0  0  0
 15 30  2  0  0  0  0
 15 31  1  0  0  0  0
 16 32  1  0  0  0  0
 17 32  1  0  0  0  0
 17 33  2  0  0  0  0
 17 34  1  0  0  0  0
 18 20  2  0  0  0  0
 18 39  1  0  0  0  0
 19 21  2  0  0  0  0
 19 40  1  0  0  0  0
 20 51  1  0  0  0  0
 21 41  1  0  0  0  0
 22 23  1  0  0  0  0
 22 25  2  0  0  0  0
 22 50  1  0  0  0  0
 23 55  1  0  0  0  0
 24 26  2  0  0  0  0
 24 56  1  0  0  0  0
 25 26  1  0  0  0  0
 25 64  1  0  0  0  0
 26 57  1  0  0  0  0
 27 86  1  0  0  0  0
 28 87  1  0  0  0  0
 29 31  2  0  0  0  0
 29 86  1  0  0  0  0
 30 88  1  0  0  0  0
 31 89  1  0  0  0  0
 32 70  2  0  0  0  0
 33 71  1  0  0  0  0
 33 75  1  0  0  0  0
 34 76  1  0  0  0  0
 34 81  2  0  0  0  0
 35 52  1  0  0  0  0
 35 77  1  0  0  0  0
 35 82  2  0  0  0  0
 36 67  1  0  0  0  0
 36 72  1  0  0  0  0
 36 83  2  0  0  0  0
 37 68  1  0  0  0  0
 37 78  1  0  0  0  0
 37 84  2  0  0  0  0
 38 73  1  0  0  0  0
 38 74  1  0  0  0  0
 38 85  2  0  0  0  0
 39 42  1  0  0  0  0
 40 52  1  0  0  0  0
 41 72  1  0  0  0  0
 42 44  1  0  0  0  0
 43 45  1  0  0  0  0
 43 46  1  0  0  0  0
 44 51  1  0  0  0  0
 45 54  1  0  0  0  0
 46 73  1  0  0  0  0
 47 50  1  0  0  0  0
 47 74  1  0  0  0  0
 48 53  1  0  0  0  0
 48 74  1  0  0  0  0
 49 54  1  0  0  0  0
 49 73  1  0  0  0  0
 50 53  1  0  0  0  0
 51 77  1  0  0  0  0
 52 72  1  0  0  0  0
 53 58  1  0  0  0  0
 54 71  1  0  0  0  0
 59 68  1  0  0  0  0
 60 69  1  0  0  0  0
 61 69  1  0  0  0  0
 62 69  1  0  0  0  0
 63 79  1  0  0  0  0
 64 80  1  0  0  0  0
 65 66  1  0  0  0  0
 65 80  1  0  0  0  0
 66 87  1  0  0  0  0
 67 69  1  0  0  0  0
 67 78  1  0  0  0  0
 68 79  1  0  0  0  0
 70 71  1  0  0  0  0
M  CHG  2  79   1  80   1
M  ISO  4  38 100  66 101  74 100  87 101
M  END
> <Batch ID>
0159

> <Smiles>
CNC(C)C(=O)NC(C(=O)N1Cc2cc([101O:1][101CH2:1]CNCc3c(C)c(C)cc(C)c3C3C[100N:0]([100C:0](=O)N4CCCC(n5nc(-c6ccc(Oc7ccc(F)cc7F)cc6)c(C(N)=O)c5N)C4)CC3C)ccc2CC1C(=O)NC1CCCc2ccccc21)C(C)(C)C

> <Shape>
0.277

> <Color>
0.191

> <Negative vol penalty>
0.000

$$$$

  -OEChem-04052322073D

 88 97  0     1  0  0  0  0  0999 V2000
  -21.3585  -32.9668   14.5501 C   0  0  0  0  0  0  0  0  0  0  0  0
  -22.1646  -31.8339   14.5962 C   0  0  0  0  0  0  0  0  0  0  0  0
  -23.0104   -9.8970   19.9704 C   0  0  0  0  0  0  0  0  0  0  0  0
  -23.6708   -9.9570   22.2937 C   0  0  0  0  0  0  0  0  0  0  0  0
  -20.7824  -33.4591   15.7204 C   0  0  0  0  0  0  0  0  0  0  0  0
  -22.3959  -31.1932   15.8130 C   0  0  0  0  0  0  0  0  0  0  0  0
  -23.5196  -24.6759   18.5658 C   0  0  0  0  0  0  0  0  0  0  0  0
  -22.2253   -8.7720   20.2226 C   0  0  0  0  0  0  0  0  0  0  0  0
  -22.8856   -8.8320   22.5459 C   0  0  0  0  0  0  0  0  0  0  0  0
  -24.4159  -23.9936   19.3873 C   0  0  0  0  0  0  0  0  0  0  0  0
  -23.1095   -5.4876   22.1036 C   0  0  0  0  0  0  0  0  0  0  0  0
  -23.6653   -4.4699   22.8788 C   0  0  0  0  0  0  0  0  0  0  0  0
  -23.3040  -24.8875   21.3326 C   0  0  0  0  0  0  0  0  0  0  0  0
  -28.5632  -20.6524   23.8875 C   0  0  0  0  0  0  0  0  0  0  0  0
  -26.8365  -20.6037   22.1985 C   0  0  0  0  0  0  0  0  0  0  0  0
  -21.8974   -4.7416   24.5030 C   0  0  0  0  0  0  0  0  0  0  0  0
  -23.7332  -10.4894   21.0059 C   0  0  0  0  0  0  0  0  0  0  0  0
  -24.1487  -12.9998   20.8239 C   0  0  0  0  0  0  0  0  0  0  0  0
  -20.9989  -32.8186   16.9507 C   0  0  0  0  0  0  0  0  0  0  0  0
  -22.5139  -25.4792   19.1223 C   0  0  0  0  0  0  0  0  0  0  0  0
  -21.8232  -31.6782   17.0011 C   0  0  0  0  0  0  0  0  0  0  0  0
  -22.3947  -25.5770   20.5159 C   0  0  0  0  0  0  0  0  0  0  0  0
  -27.6069  -19.9464   23.1577 C   0  0  0  0  0  0  0  0  0  0  0  0
  -28.7491  -22.0157   23.6581 C   0  0  0  0  0  0  0  0  0  0  0  0
  -27.0223  -21.9670   21.9691 C   0  0  0  0  0  0  0  0  0  0  0  0
  -27.9787  -22.6730   22.6989 C   0  0  0  0  0  0  0  0  0  0  0  0
  -22.1629   -8.2395   21.5103 C   0  0  0  0  0  0  0  0  0  0  0  0
  -24.3100  -24.1016   20.7709 C   0  0  0  0  0  0  0  0  0  0  0  0
  -21.9477   -6.1323   22.5280 C   0  0  0  0  0  0  0  0  0  0  0  0
  -23.0593   -4.0969   24.0785 C   0  0  0  0  0  0  0  0  0  0  0  0
  -21.3416   -5.7593   23.7277 C   0  0  0  0  0  0  0  0  0  0  0  0
  -24.5449  -11.6512   20.7459 C   0  0  0  0  0  0  0  0  0  0  0  0
  -25.2755  -13.7088   20.4862 C   0  0  0  0  0  0  0  0  0  0  0  0
  -22.8759  -13.5614   21.1708 C   0  0  0  0  0  0  0  0  0  0  0  0
  -21.7900  -28.5719   19.0018 C   0  0  0  0  0  0  0  0  0  0  0  0
  -19.1665  -27.6233   20.6571 C   0  0  0  0  0  0  0  0  0  0  0  0
  -17.7187  -25.3246   22.7227 C   0  0  0  0  0  0  0  0  0  0  0  0
  -30.6605  -14.6688   20.7121 C   0  0  0  0  0  0  0  0  0  0  0  0
  -20.3933  -33.4153   18.1963 C   0  0  0  0  0  0  0  0  0  0  0  0
  -21.5384  -26.1875   18.2227 C   0  0  0  0  0  0  0  0  0  0  0  0
  -21.3200  -26.4102   21.1634 C   0  0  0  0  0  0  0  0  0  0  0  0
  -20.3841  -32.4600   19.3870 C   0  0  0  0  0  0  0  0  0  0  0  0
  -29.6717  -12.1869   18.5174 C   0  0  0  0  0  0  0  0  0  0  0  0
  -21.7415  -31.7803   19.5365 C   0  0  0  0  0  0  0  0  0  0  0  0
  -28.2138  -11.9272   18.8965 C   0  0  0  0  0  0  0  0  0  0  0  0
  -29.0663  -17.8931   21.6004 C   0  0  0  0  0  0  0  0  0  0  0  0
  -28.4786  -16.1803   23.3525 C   0  0  0  0  0  0  0  0  0  0  0  0
  -30.5317  -12.3861   19.7602 C   0  0  0  0  0  0  0  0  0  0  0  0
  -30.2820  -17.0546   21.2152 C   0  0  0  0  0  0  0  0  0  0  0  0
  -29.7074  -15.3775   22.9384 C   0  0  0  0  0  0  0  0  0  0  0  0
  -28.5961  -13.2356   21.0436 C   0  0  0  0  0  0  0  0  0  0  0  0
  -22.0777  -30.9411   18.2980 C   0  0  1  0  0  0  0  0  0  0  0  0
  -20.8728  -27.3871   18.8900 C   0  0  1  0  0  0  0  0  0  0  0  0
  -28.6686  -17.6760   23.0661 C   0  0  0  0  0  0  0  0  0  0  0  0
  -27.6777  -13.0342   19.8215 C   0  0  2  0  0  0  0  0  0  0  0  0
  -29.7806  -22.7485   24.4523 C   0  0  0  0  0  0  0  0  0  0  0  0
  -28.1785  -24.1346   22.4529 C   0  0  0  0  0  0  0  0  0  0  0  0
  -25.6378  -18.8299   25.2300 C   0  0  0  0  0  0  0  0  0  0  0  0
  -15.5762  -24.8396   23.9358 C   0  0  0  0  0  0  0  0  0  0  0  0
  -19.8698  -29.7392   22.7400 C   0  0  0  0  0  0  0  0  0  0  0  0
  -18.3108  -28.5931   24.3288 C   0  0  0  0  0  0  0  0  0  0  0  0
  -17.4321  -29.5688   22.2079 C   0  0  0  0  0  0  0  0  0  0  0  0
  -17.3200  -22.7915   21.2450 C   0  0  0  0  0  0  0  0  0  0  0  0
  -26.1845  -22.6474   20.9362 C   0  0  0  0  0  0  0  0  0  1  0  0
  -26.9483  -18.1504   24.8517 C   0  0  0  0  0  0  0  0  0  0  0  0
  -27.4037  -18.4596   23.4084 C   0  0  1  0  0  0  0  0  0  0  0  0
  -18.8255  -27.4611   22.1187 C   0  0  1  0  0  0  0  0  0  0  0  0
  -16.3757  -24.6196   22.6610 C   0  0  2  0  0  0  0  0  0  0  0  0
  -18.6311  -28.8263   22.8369 C   0  0  0  0  0  0  0  0  0  0  0  0
  -25.8235  -11.5094   20.3867 N   0  0  0  0  0  0  0  0  0  0  0  0
  -26.2405  -12.7780   20.2358 N   0  0  0  0  0  0  0  0  0  0  0  0
  -20.3942  -27.0886   20.2414 N   0  0  0  0  0  0  0  0  0  0  0  0
  -29.9873  -13.4417   20.6141 N   0  0  0  0  0  0  0  0  0  0  0  0
  -30.0848  -15.6435   21.5438 N   0  0  0  0  0  0  0  0  0  0  0  0
  -25.5251  -15.0314   20.3819 N   0  0  0  0  0  0  0  0  0  0  0  0
  -21.8260  -12.6899   21.4909 N   0  0  0  0  0  0  0  0  0  0  0  0
  -21.3489  -29.6909   18.3215 N   0  0  0  0  0  0  0  0  0  0  0  0
  -17.6587  -26.5869   22.1711 N   0  0  0  0  0  0  0  0  0  0  0  0
  -16.5683  -23.1537   22.4741 N   0  3  0  0  0  0  0  0  0  0  0  0
  -22.6711  -14.7989   21.1801 O   0  0  0  0  0  0  0  0  0  0  0  0
  -22.8207  -28.4784   19.6579 O   0  0  0  0  0  0  0  0  0  0  0  0
  -18.3697  -28.1968   19.9102 O   0  0  0  0  0  0  0  0  0  0  0  0
  -18.7199  -24.8086   23.2146 O   0  0  0  0  0  0  0  0  0  0  0  0
  -31.7093  -14.8848   20.0921 O   0  0  0  0  0  0  0  0  0  0  0  0
  -21.3966   -7.1419   21.7569 O   0  0  0  0  0  0  0  0  0  0  0  0
  -25.1902  -23.4325   21.5808 O   0  0  0  0  0  0  0  0  0  1  0  0
  -23.5922   -3.1186   24.8221 F   0  0  0  0  0  0  0  0  0  0  0  0
  -20.2246   -6.3743   24.1401 F   0  0  0  0  0  0  0  0  0  0  0  0
  1  2  1  0  0  0  0
  1  5  2  0  0  0  0
  2  6  2  0  0  0  0
  3  8  2  0  0  0  0
  3 17  1  0  0  0  0
  4  9  1  0  0  0  0
  4 17  2  0  0  0  0
  5 19  1  0  0  0  0
  6 21  1  0  0  0  0
  7 10  2  0  0  0  0
  7 20  1  0  0  0  0
  8 27  1  0  0  0  0
  9 27  2  0  0  0  0
 10 28  1  0  0  0  0
 11 12  2  0  0  0  0
 11 29  1  0  0  0  0
 12 30  1  0  0  0  0
 13 22  1  0  0  0  0
 13 28  2  0  0  0  0
 14 23  1  0  0  0  0
 14 24  2  0  0  0  0
 15 23  2  0  0  0  0
 15 25  1  0  0  0  0
 16 30  2  0  0  0  0
 16 31  1  0  0  0  0
 17 32  1  0  0  0  0
 18 32  1  0  0  0  0
 18 33  2  0  0  0  0
 18 34  1  0  0  0  0
 19 21  2  0  0  0  0
 19 39  1  0  0  0  0
 20 22  2  0  0  0  0
 20 40  1  0  0  0  0
 21 52  1  0  0  0  0
 22 41  1  0  0  0  0
 23 66  1  0  0  0  0
 24 26  1  0  0  0  0
 24 56  1  0  0  0  0
 25 26  2  0  0  0  0
 25 64  1  0  0  0  0
 26 57  1  0  0  0  0
 27 85  1  0  0  0  0
 28 86  1  0  0  0  0
 29 31  2  0  0  0  0
 29 85  1  0  0  0  0
 30 87  1  0  0  0  0
 31 88  1  0  0  0  0
 32 70  2  0  0  0  0
 33 71  1  0  0  0  0
 33 75  1  0  0  0  0
 34 76  1  0  0  0  0
 34 80  2  0  0  0  0
 35 53  1  0  0  0  0
 35 77  1  0  0  0  0
 35 81  2  0  0  0  0
 36 67  1  0  0  0  0
 36 72  1  0  0  0  0
 36 82  2  0  0  0  0
 37 68  1  0  0  0  0
 37 78  1  0  0  0  0
 37 83  2  0  0  0  0
 38 73  1  0  0  0  0
 38 74  1  0  0  0  0
 38 84  2  0  0  0  0
 39 42  1  0  0  0  0
 40 53  1  0  0  0  0
 41 72  1  0  0  0  0
 42 44  1  0  0  0  0
 43 45  1  0  0  0  0
 43 48  1  0  0  0  0
 44 52  1  0  0  0  0
 45 55  1  0  0  0  0
 46 49  1  0  0  0  0
 46 54  1  0  0  0  0
 47 50  1  0  0  0  0
 47 54  1  0  0  0  0
 48 73  1  0  0  0  0
 49 74  1  0  0  0  0
 50 74  1  0  0  0  0
 51 55  1  0  0  0  0
 51 73  1  0  0  0  0
 52 77  1  0  0  0  0
 53 72  1  0  0  0  0
 54 66  1  0  0  0  0
 55 71  1  0  0  0  0
 58 65  1  0  0  0  0
 59 68  1  0  0  0  0
 60 69  1  0  0  0  0
 61 69  1  0  0  0  0
 62 69  1  0  0  0  0
 63 79  1  0  0  0  0
 64 86  1  0  0  0  0
 65 66  1  0  0  0  0
 67 69  1  0  0  0  0
 67 78  1  0  0  0  0
 68 79  1  0  0  0  0
 70 71  1  0  0  0  0
M  CHG  1  79   1
M  ISO  4  38 100  64 101  74 100  86 101
M  END
> <Batch ID>
0159

> <Smiles>
CCC(c1cc(C)c(C)c([101CH2:1][101O:1]c2ccc3c(c2)CN(C(=O)C(NC(=O)C(C)NC)C(C)(C)C)C(C(=O)NC2CCCc4ccccc42)C3)c1)C1CC[100N:0]([100C:0](=O)N2CCCC(n3nc(-c4ccc(Oc5ccc(F)cc5F)cc4)c(C(N)=O)c3N)C2)CC1

> <Shape>
0.245

> <Color>
0.203

> <Negative vol penalty>
0.000

$$$$

  -OEChem-04052322073D

 89 99  0     1  0  0  0  0  0999 V2000
  -22.4493  -38.7348   22.0464 C   0  0  0  0  0  0  0  0  0  0  0  0
  -22.5214  -37.9677   20.8881 C   0  0  0  0  0  0  0  0  0  0  0  0
  -23.7376   -9.2131   22.2411 C   0  0  0  0  0  0  0  0  0  0  0  0
  -23.5563   -9.6182   19.8663 C   0  0  0  0  0  0  0  0  0  0  0  0
  -23.3704  -38.5327   23.0734 C   0  0  0  0  0  0  0  0  0  0  0  0
  -23.5153  -36.9986   20.7556 C   0  0  0  0  0  0  0  0  0  0  0  0
  -22.8812  -29.3513   19.2919 C   0  0  0  0  0  0  0  0  0  0  0  0
  -23.0430   -8.0131   22.0895 C   0  0  0  0  0  0  0  0  0  0  0  0
  -22.8617   -8.4181   19.7146 C   0  0  0  0  0  0  0  0  0  0  0  0
  -22.8892  -27.9597   19.1939 C   0  0  0  0  0  0  0  0  0  0  0  0
  -19.8331   -7.0242   21.7117 C   0  0  0  0  0  0  0  0  0  0  0  0
  -18.8209   -6.7418   22.6289 C   0  0  0  0  0  0  0  0  0  0  0  0
  -26.8514  -17.3057   17.8004 C   0  0  0  0  0  0  0  0  0  0  0  0
  -24.9990  -27.8783   20.3730 C   0  0  0  0  0  0  0  0  0  0  0  0
  -19.9883   -4.7358   23.2997 C   0  0  0  0  0  0  0  0  0  0  0  0
  -23.9942  -10.0157   21.1295 C   0  0  0  0  0  0  0  0  0  0  0  0
  -27.7678  -16.9706   18.7973 C   0  0  0  0  0  0  0  0  0  0  0  0
  -24.3366  -12.3610   22.0729 C   0  0  0  0  0  0  0  0  0  0  0  0
  -24.3701  -37.5541   22.9575 C   0  0  0  0  0  0  0  0  0  0  0  0
  -23.9256  -30.0114   19.9451 C   0  0  0  0  0  0  0  0  0  0  0  0
  -24.4514  -36.7841   21.7815 C   0  0  0  0  0  0  0  0  0  0  0  0
  -24.9901  -29.2712   20.4852 C   0  0  0  0  0  0  0  0  0  0  0  0
  -25.7441  -18.8166   19.3261 C   0  0  0  0  0  0  0  0  0  0  0  0
  -25.8396  -18.2287   18.0649 C   0  0  0  0  0  0  0  0  0  0  0  0
  -27.6722  -17.5586   20.0586 C   0  0  0  0  0  0  0  0  0  0  0  0
  -26.6604  -18.4816   20.3229 C   0  0  0  0  0  0  0  0  0  0  0  0
  -22.6051   -7.6155   20.8263 C   0  0  0  0  0  0  0  0  0  0  0  0
  -23.9457  -27.2251   19.7330 C   0  0  0  0  0  0  0  0  0  0  0  0
  -20.9229   -6.1623   21.5884 C   0  0  0  0  0  0  0  0  0  0  0  0
  -18.8985   -5.5976   23.4229 C   0  0  0  0  0  0  0  0  0  0  0  0
  -21.0006   -5.0182   22.3824 C   0  0  0  0  0  0  0  0  0  0  0  0
  -24.7112  -11.2558   21.2856 C   0  0  0  0  0  0  0  0  0  0  0  0
  -25.3436  -13.2754   21.8823 C   0  0  0  0  0  0  0  0  0  0  0  0
  -28.8218  -15.9955   18.4891 C   0  0  0  0  0  0  0  0  0  0  0  0
  -23.1817  -12.5447   22.9024 C   0  0  0  0  0  0  0  0  0  0  0  0
  -25.3846  -33.2816   21.0646 C   0  0  0  0  0  0  0  0  0  0  0  0
  -25.8352  -31.2781   23.3435 C   0  0  0  0  0  0  0  0  0  0  0  0
  -25.7592  -28.8857   25.7741 C   0  0  0  0  0  0  0  0  0  0  0  0
  -25.3724  -37.4044   24.0745 C   0  0  0  0  0  0  0  0  0  0  0  0
  -23.9891  -31.5128   20.0203 C   0  0  0  0  0  0  0  0  0  0  0  0
  -26.1095  -30.0261   21.1486 C   0  0  0  0  0  0  0  0  0  0  0  0
  -26.1643  -36.1008   24.0117 C   0  0  0  0  0  0  0  0  0  0  0  0
  -29.8702  -12.7972   19.6780 C   0  0  0  0  0  0  0  0  0  0  0  0
  -26.6679  -35.8499   22.5939 C   0  0  0  0  0  0  0  0  0  0  0  0
  -28.5877  -12.1909   20.2503 C   0  0  0  0  0  0  0  0  0  0  0  0
  -21.7173  -23.4823   18.9890 C   0  0  0  0  0  0  0  0  0  0  0  0
  -21.8330  -25.0061   18.8727 C   0  0  0  0  0  0  0  0  0  0  0  0
  -23.2039  -19.3495   19.4114 C   0  0  0  0  0  0  0  0  0  0  0  0
  -23.9150  -23.9409   18.1796 C   0  0  0  0  0  0  0  0  0  0  0  0
  -29.5889  -13.6463   18.4408 C   0  0  0  0  0  0  0  0  0  0  0  0
  -27.2849  -14.0949   19.2121 C   0  0  0  0  0  0  0  0  0  0  0  0
  -22.4199  -20.6439   19.4563 C   0  0  0  0  0  0  0  0  0  0  0  0
  -24.7109  -21.0686   18.7240 C   0  0  0  0  0  0  0  0  0  0  0  0
  -24.6459  -19.8186   19.6104 C   0  0  2  0  0  0  0  0  0  0  0  0
  -25.4998  -35.7063   21.6109 C   0  0  1  0  0  0  0  0  0  0  0  0
  -24.6087  -32.0256   21.3327 C   0  0  1  0  0  0  0  0  0  0  0  0
  -27.5179  -13.2728   20.4903 C   0  0  1  0  0  0  0  0  0  0  0  0
  -23.1546  -23.0060   19.1059 C   0  0  2  0  0  0  0  0  0  0  0  0
  -23.2937  -25.2971   18.5060 C   0  0  2  0  0  0  0  0  0  1  0  0
  -24.8719  -18.5711   16.9795 C   0  0  0  0  0  0  0  0  0  0  0  0
  -28.6542  -17.1996   21.1290 C   0  0  0  0  0  0  0  0  0  0  0  0
  -26.5576  -19.1122   21.6762 C   0  0  0  0  0  0  0  0  0  0  0  0
  -26.4539  -28.4677   28.1490 C   0  0  0  0  0  0  0  0  0  0  0  0
  -28.7244  -30.9238   22.4321 C   0  0  0  0  0  0  0  0  0  0  0  0
  -29.1529  -29.6275   24.5307 C   0  0  0  0  0  0  0  0  0  0  0  0
  -28.4613  -32.0205   24.6642 C   0  0  0  0  0  0  0  0  0  0  0  0
  -22.9620  -28.4524   26.6383 C   0  0  0  0  0  0  0  0  0  0  0  0
  -26.7635  -30.2759   23.9816 C   0  0  1  0  0  0  0  0  0  0  0  0
  -25.3381  -28.9430   27.2315 C   0  0  2  0  0  0  0  0  0  0  0  0
  -28.2551  -30.7039   23.8841 C   0  0  0  0  0  0  0  0  0  0  0  0
  -25.8660  -11.4484   20.6426 N   0  0  0  0  0  0  0  0  0  0  0  0
  -26.2256  -12.6854   21.0255 N   0  0  0  0  0  0  0  0  0  0  0  0
  -28.5570  -14.6438   18.7215 N   0  0  0  0  0  0  0  0  0  0  0  0
  -25.5613  -31.1084   21.9809 N   0  0  0  0  0  0  0  0  0  0  0  0
  -25.5518  -14.5186   22.3656 N   0  0  0  0  0  0  0  0  0  0  0  0
  -22.0311  -13.1050   22.3311 N   0  0  0  0  0  0  0  0  0  0  0  0
  -24.9006  -34.3940   21.7262 N   0  0  0  0  0  0  0  0  0  0  0  0
  -26.2842  -30.0868   25.3465 N   0  0  0  0  0  0  0  0  0  0  0  0
  -23.2901  -21.6024   18.6794 N   0  3  2  0  0  0  0  0  0  0  0  0
  -24.1432  -28.0822   27.4597 N   0  3  0  0  0  0  0  0  0  0  0  0
  -29.8769  -16.4549   18.0545 O   0  0  0  0  0  0  0  0  0  0  0  0
  -23.1758  -12.2367   24.1184 O   0  0  0  0  0  0  0  0  0  0  0  0
  -26.3526  -33.2451   20.3140 O   0  0  0  0  0  0  0  0  0  0  0  0
  -25.3686  -32.1909   24.0308 O   0  0  0  0  0  0  0  0  0  0  0  0
  -25.6381  -27.8752   25.0851 O   0  0  0  0  0  0  0  0  0  0  0  0
  -21.9275   -6.4445   20.6779 O   0  0  0  0  0  0  0  0  0  0  0  0
  -23.9450  -25.8665   19.6378 O   0  0  0  0  0  0  0  0  0  1  0  0
  -17.9271   -5.3274   24.3047 F   0  0  0  0  0  0  0  0  0  0  0  0
  -22.0457   -4.1871   22.2694 F   0  0  0  0  0  0  0  0  0  0  0  0
  1  2  1  0  0  0  0
  1  5  2  0  0  0  0
  2  6  2  0  0  0  0
  3  8  2  0  0  0  0
  3 16  1  0  0  0  0
  4  9  1  0  0  0  0
  4 16  2  0  0  0  0
  5 19  1  0  0  0  0
  6 21  1  0  0  0  0
  7 10  2  0  0  0  0
  7 20  1  0  0  0  0
  8 27  1  0  0  0  0
  9 27  2  0  0  0  0
 10 28  1  0  0  0  0
 11 12  2  0  0  0  0
 11 29  1  0  0  0  0
 12 30  1  0  0  0  0
 13 17  1  0  0  0  0
 13 24  2  0  0  0  0
 14 22  1  0  0  0  0
 14 28  2  0  0  0  0
 15 30  2  0  0  0  0
 15 31  1  0  0  0  0
 16 32  1  0  0  0  0
 17 25  2  0  0  0  0
 17 34  1  0  0  0  0
 18 32  1  0  0  0  0
 18 33  2  0  0  0  0
 18 35  1  0  0  0  0
 19 21  2  0  0  0  0
 19 39  1  0  0  0  0
 20 22  2  0  0  0  0
 20 40  1  0  0  0  0
 21 55  1  0  0  0  0
 22 41  1  0  0  0  0
 23 24  1  0  0  0  0
 23 26  2  0  0  0  0
 23 54  1  0  0  0  0
 24 60  1  0  0  0  0
 25 26  1  0  0  0  0
 25 61  1  0  0  0  0
 26 62  1  0  0  0  0
 27 86  1  0  0  0  0
 28 87  1  0  0  0  0
 29 31  2  0  0  0  0
 29 86  1  0  0  0  0
 30 88  1  0  0  0  0
 31 89  1  0  0  0  0
 32 71  2  0  0  0  0
 33 72  1  0  0  0  0
 33 75  1  0  0  0  0
 34 73  1  0  0  0  0
 34 81  2  0  0  0  0
 35 76  1  0  0  0  0
 35 82  2  0  0  0  0
 36 56  1  0  0  0  0
 36 77  1  0  0  0  0
 36 83  2  0  0  0  0
 37 68  1  0  0  0  0
 37 74  1  0  0  0  0
 37 84  2  0  0  0  0
 38 69  1  0  0  0  0
 38 78  1  0  0  0  0
 38 85  2  0  0  0  0
 39 42  1  0  0  0  0
 40 56  1  0  0  0  0
 41 74  1  0  0  0  0
 42 44  1  0  0  0  0
 43 45  1  0  0  0  0
 43 50  1  0  0  0  0
 44 55  1  0  0  0  0
 45 57  1  0  0  0  0
 46 47  1  0  0  0  0
 46 58  1  0  0  0  0
 47 59  1  0  0  0  0
 48 52  1  0  0  0  0
 48 54  1  0  0  0  0
 49 58  1  0  0  0  0
 49 59  1  0  0  0  0
 50 73  1  0  0  0  0
 51 57  1  0  0  0  0
 51 73  1  0  0  0  0
 52 79  1  0  0  0  0
 53 54  1  0  0  0  0
 53 79  1  0  0  0  0
 55 77  1  0  0  0  0
 56 74  1  0  0  0  0
 57 72  1  0  0  0  0
 58 79  1  0  0  0  0
 59 87  1  0  0  0  0
 63 69  1  0  0  0  0
 64 70  1  0  0  0  0
 65 70  1  0  0  0  0
 66 70  1  0  0  0  0
 67 80  1  0  0  0  0
 68 70  1  0  0  0  0
 68 78  1  0  0  0  0
 69 80  1  0  0  0  0
 71 72  1  0  0  0  0
M  CHG  2  79   1  80   1
M  ISO  4  17 100  34 100  59 101  87 101
M  END
> <Batch ID>
0159

> <Smiles>
CNC(C)C(=O)NC(C(=O)N1Cc2cc([101O:1][101CH:1]3CCC(N4CCC(c5c(C)c[100c:0]([100C:0](=O)N6CCCC(n7nc(-c8ccc(Oc9ccc(F)cc9F)cc8)c(C(N)=O)c7N)C6)c(C)c5C)C4)C3)ccc2CC1C(=O)NC1CCCc2ccccc21)C(C)(C)C

> <Shape>
0.255

> <Color>
0.091

> <Negative vol penalty>
0.000

$$$$

  -OEChem-04052322073D

 85 94  0     1  0  0  0  0  0999 V2000
  -29.9589  -30.1232   26.2465 C   0  0  0  0  0  0  0  0  0  0  0  0
  -29.4963  -29.2277   25.2876 C   0  0  0  0  0  0  0  0  0  0  0  0
  -22.8616  -10.3234   20.2514 C   0  0  0  0  0  0  0  0  0  0  0  0
  -24.5394   -9.0624   21.4480 C   0  0  0  0  0  0  0  0  0  0  0  0
  -29.0528  -30.8966   26.9710 C   0  0  0  0  0  0  0  0  0  0  0  0
  -28.1272  -29.1042   25.0534 C   0  0  0  0  0  0  0  0  0  0  0  0
  -27.0031  -28.9902   20.1170 C   0  0  0  0  0  0  0  0  0  0  0  0
  -21.8805   -9.8387   21.1163 C   0  0  0  0  0  0  0  0  0  0  0  0
  -23.5583   -8.5777   22.3129 C   0  0  0  0  0  0  0  0  0  0  0  0
  -27.2194  -27.7895   19.4423 C   0  0  0  0  0  0  0  0  0  0  0  0
  -21.1557   -6.1993   22.2723 C   0  0  0  0  0  0  0  0  0  0  0  0
  -21.1730   -4.8375   22.5740 C   0  0  0  0  0  0  0  0  0  0  0  0
  -27.3211  -20.9372   19.1996 C   0  0  0  0  0  0  0  0  0  0  0  0
  -24.8681  -27.2777   19.6116 C   0  0  0  0  0  0  0  0  0  0  0  0
  -26.3816  -21.5941   21.3462 C   0  0  0  0  0  0  0  0  0  0  0  0
  -21.4584   -5.3598   24.9155 C   0  0  0  0  0  0  0  0  0  0  0  0
  -24.1911   -9.9352   20.4173 C   0  0  0  0  0  0  0  0  0  0  0  0
  -25.2663  -10.2658   18.1276 C   0  0  0  0  0  0  0  0  0  0  0  0
  -27.6725  -30.7895   26.7388 C   0  0  0  0  0  0  0  0  0  0  0  0
  -25.7173  -29.3392   20.5544 C   0  0  0  0  0  0  0  0  0  0  0  0
  -27.2018  -29.8759   25.7765 C   0  0  0  0  0  0  0  0  0  0  0  0
  -27.5037  -19.6630   19.7099 C   0  0  0  0  0  0  0  0  0  0  0  0
  -24.6377  -28.4846   20.2894 C   0  0  0  0  0  0  0  0  0  0  0  0
  -27.1259  -19.3491   21.0212 C   0  0  0  0  0  0  0  0  0  0  0  0
  -26.5578  -20.3030   21.8486 C   0  0  0  0  0  0  0  0  0  0  0  0
  -22.2288   -8.9659   22.1470 C   0  0  0  0  0  0  0  0  0  0  0  0
  -26.1524  -26.9317   19.1920 C   0  0  0  0  0  0  0  0  0  0  0  0
  -21.2898   -7.1413   23.2923 C   0  0  0  0  0  0  0  0  0  0  0  0
  -26.7605  -21.9089   20.0314 C   0  0  0  0  0  0  0  0  0  0  0  0
  -21.3243   -4.4178   23.8955 C   0  0  0  0  0  0  0  0  0  0  0  0
  -21.4411   -6.7216   24.6139 C   0  0  0  0  0  0  0  0  0  0  0  0
  -25.2050  -10.4352   19.5238 C   0  0  0  0  0  0  0  0  0  0  0  0
  -26.4113  -10.9247   17.7518 C   0  0  0  0  0  0  0  0  0  0  0  0
  -24.3685   -9.5746   17.2490 C   0  0  0  0  0  0  0  0  0  0  0  0
  -24.3834  -29.8874   23.3871 C   0  0  0  0  0  0  0  0  0  0  0  0
  -21.8216  -30.7263   21.5827 C   0  0  0  0  0  0  0  0  0  0  0  0
  -20.1489  -30.4504   18.6208 C   0  0  0  0  0  0  0  0  0  0  0  0
  -29.5283  -15.3752   20.0219 C   0  0  0  0  0  0  0  0  0  0  0  0
  -26.7290  -31.6122   27.5800 C   0  0  0  0  0  0  0  0  0  0  0  0
  -25.4960  -30.6504   21.2574 C   0  0  0  0  0  0  0  0  0  0  0  0
  -28.0437  -18.4567   19.0054 C   0  0  0  0  0  0  0  0  0  0  0  0
  -27.3778  -17.9031   21.3190 C   0  0  0  0  0  0  0  0  0  0  0  0
  -23.2346  -28.8223   20.7202 C   0  0  0  0  0  0  0  0  0  0  0  0
  -25.3159  -31.6927   27.0083 C   0  0  0  0  0  0  0  0  0  0  0  0
  -30.7225  -12.1844   19.3750 C   0  0  0  0  0  0  0  0  0  0  0  0
  -24.8333  -30.3102   26.5810 C   0  0  0  0  0  0  0  0  0  0  0  0
  -29.4566  -11.3457   19.2051 C   0  0  0  0  0  0  0  0  0  0  0  0
  -30.5652  -13.1826   20.5158 C   0  0  0  0  0  0  0  0  0  0  0  0
  -28.1148  -13.2727   20.1862 C   0  0  0  0  0  0  0  0  0  0  0  0
  -25.7256  -29.7314   25.4763 C   0  0  1  0  0  0  0  0  0  0  0  0
  -24.2314  -30.6651   22.1105 C   0  0  1  0  0  0  0  0  0  0  0  0
  -28.2181  -12.2440   19.0415 C   0  0  2  0  0  0  0  0  0  0  0  0
  -28.3765  -17.5474   20.2028 C   0  0  1  0  0  0  0  0  0  0  0  0
  -26.1342  -19.9766   23.2383 C   0  0  0  0  0  0  0  0  0  0  0  0
  -18.0645  -31.2228   17.4562 C   0  0  0  0  0  0  0  0  0  0  0  0
  -20.1740  -28.7560   23.2299 C   0  0  0  0  0  0  0  0  0  0  0  0
  -18.4081  -28.8588   21.4581 C   0  0  0  0  0  0  0  0  0  0  0  0
  -19.0197  -30.9170   22.7278 C   0  0  0  0  0  0  0  0  0  0  0  0
  -27.0318  -15.5547   19.6480 C   0  0  0  0  0  0  0  0  0  0  0  0
  -21.6994  -31.7966   16.4895 C   0  0  0  0  0  0  0  0  0  0  0  0
  -27.6374  -25.1417   18.6955 C   0  0  0  0  0  0  0  0  0  1  0  0
  -27.4808  -23.6389   18.5671 C   0  0  0  0  0  0  0  0  0  0  0  0
  -20.6308  -29.9951   21.0114 C   0  0  1  0  0  0  0  0  0  0  0  0
  -19.5390  -31.4980   17.7070 C   0  0  2  0  0  0  0  0  0  0  0  0
  -19.5848  -29.6242   22.1003 C   0  0  0  0  0  0  0  0  0  0  0  0
  -26.2296  -11.1459   20.0025 N   0  0  0  0  0  0  0  0  0  0  0  0
  -26.9456  -11.4288   18.9010 N   0  0  0  0  0  0  0  0  0  0  0  0
  -23.0704  -30.1128   21.4096 N   0  0  0  0  0  0  0  0  0  0  0  0
  -29.3764  -14.0153   20.3307 N   0  0  0  0  0  0  0  0  0  0  0  0
  -27.0032  -11.1162   16.5537 N   0  0  0  0  0  0  0  0  0  0  0  0
  -24.5974   -8.2157   16.9938 N   0  0  0  0  0  0  0  0  0  0  0  0
  -25.4066  -30.3355   24.2005 N   0  0  0  0  0  0  0  0  0  0  0  0
  -20.1074  -30.8394   19.9430 N   0  0  0  0  0  0  0  0  0  0  0  0
  -28.3575  -16.1318   19.8630 N   0  0  0  0  0  0  0  0  0  0  0  0
  -20.2441  -31.5139   16.3941 N   0  3  0  0  0  0  0  0  0  0  0  0
  -23.4018  -10.1493   16.6934 O   0  0  0  0  0  0  0  0  0  0  0  0
  -23.6273  -28.9510   23.6177 O   0  0  0  0  0  0  0  0  0  0  0  0
  -21.6509  -31.8056   22.1550 O   0  0  0  0  0  0  0  0  0  0  0  0
  -20.6121  -29.3911   18.2038 O   0  0  0  0  0  0  0  0  0  0  0  0
  -30.6483  -15.8885   19.9022 O   0  0  0  0  0  0  0  0  0  0  0  0
  -21.2717   -8.4929   22.9913 O   0  0  0  0  0  0  0  0  0  0  0  0
  -26.3609  -25.7588   18.5342 O   0  0  0  0  0  0  0  0  0  1  0  0
  -26.5694  -23.1804   19.5583 O   0  0  0  0  0  0  0  0  0  0  0  0
  -21.3393   -3.1101   24.1852 F   0  0  0  0  0  0  0  0  0  0  0  0
  -21.5692   -7.6219   25.5981 F   0  0  0  0  0  0  0  0  0  0  0  0
  1  2  1  0  0  0  0
  1  5  2  0  0  0  0
  2  6  2  0  0  0  0
  3  8  2  0  0  0  0
  3 17  1  0  0  0  0
  4  9  1  0  0  0  0
  4 17  2  0  0  0  0
  5 19  1  0  0  0  0
  6 21  1  0  0  0  0
  7 10  2  0  0  0  0
  7 20  1  0  0  0  0
  8 26  1  0  0  0  0
  9 26  2  0  0  0  0
 10 27  1  0  0  0  0
 11 12  2  0  0  0  0
 11 28  1  0  0  0  0
 12 30  1  0  0  0  0
 13 22  1  0  0  0  0
 13 29  2  0  0  0  0
 14 23  1  0  0  0  0
 14 27  2  0  0  0  0
 15 25  2  0  0  0  0
 15 29  1  0  0  0  0
 16 30  2  0  0  0  0
 16 31  1  0  0  0  0
 17 32  1  0  0  0  0
 18 32  1  0  0  0  0
 18 33  2  0  0  0  0
 18 34  1  0  0  0  0
 19 21  2  0  0  0  0
 19 39  1  0  0  0  0
 20 23  2  0  0  0  0
 20 40  1  0  0  0  0
 21 50  1  0  0  0  0
 22 24  2  0  0  0  0
 22 41  1  0  0  0  0
 23 43  1  0  0  0  0
 24 25  1  0  0  0  0
 24 42  1  0  0  0  0
 25 54  1  0  0  0  0
 26 81  1  0  0  0  0
 27 82  1  0  0  0  0
 28 31  2  0  0  0  0
 28 81  1  0  0  0  0
 29 83  1  0  0  0  0
 30 84  1  0  0  0  0
 31 85  1  0  0  0  0
 32 66  2  0  0  0  0
 33 67  1  0  0  0  0
 33 70  1  0  0  0  0
 34 71  1  0  0  0  0
 34 76  2  0  0  0  0
 35 51  1  0  0  0  0
 35 72  1  0  0  0  0
 35 77  2  0  0  0  0
 36 63  1  0  0  0  0
 36 68  1  0  0  0  0
 36 78  2  0  0  0  0
 37 64  1  0  0  0  0
 37 73  1  0  0  0  0
 37 79  2  0  0  0  0
 38 69  1  0  0  0  0
 38 74  1  0  0  0  0
 38 80  2  0  0  0  0
 39 44  1  0  0  0  0
 40 51  1  0  0  0  0
 41 53  1  0  0  0  0
 42 53  1  0  0  0  0
 43 68  1  0  0  0  0
 44 46  1  0  0  0  0
 45 47  1  0  0  0  0
 45 48  1  0  0  0  0
 46 50  1  0  0  0  0
 47 52  1  0  0  0  0
 48 69  1  0  0  0  0
 49 52  1  0  0  0  0
 49 69  1  0  0  0  0
 50 72  1  0  0  0  0
 51 68  1  0  0  0  0
 52 67  1  0  0  0  0
 53 74  1  0  0  0  0
 55 64  1  0  0  0  0
 56 65  1  0  0  0  0
 57 65  1  0  0  0  0
 58 65  1  0  0  0  0
 59 74  1  0  0  0  0
 60 75  1  0  0  0  0
 61 62  1  0  0  0  0
 61 82  1  0  0  0  0
 62 83  1  0  0  0  0
 63 65  1  0  0  0  0
 63 73  1  0  0  0  0
 64 75  1  0  0  0  0
 66 67  1  0  0  0  0
M  CHG  1  75   1
M  ISO  4  38 100  61 101  74 100  82 101
M  END
> <Batch ID>
0159

> <Smiles>
CNC(C)C(=O)NC(C(=O)N1Cc2cc([101O:1][101CH2:1]COc3cc(C)c4c(c3)CC([100N:0](C)[100C:0](=O)N3CCCC(n5nc(-c6ccc(Oc7ccc(F)cc7F)cc6)c(C(N)=O)c5N)C3)C4)ccc2CC1C(=O)NC1CCCc2ccccc21)C(C)(C)C

> <Shape>
0.297

> <Color>
0.112

> <Negative vol penalty>
0.000

$$$$

  -OEChem-04052322073D

 87 96  0     1  0  0  0  0  0999 V2000
  -21.1703  -35.0812   22.2953 C   0  0  0  0  0  0  0  0  0  0  0  0
  -22.3591  -34.4286   21.9850 C   0  0  0  0  0  0  0  0  0  0  0  0
  -24.6334   -9.2266   21.7902 C   0  0  0  0  0  0  0  0  0  0  0  0
  -23.1219   -9.7926   19.9924 C   0  0  0  0  0  0  0  0  0  0  0  0
  -20.1783  -34.4159   23.0144 C   0  0  0  0  0  0  0  0  0  0  0  0
  -22.5570  -33.1105   22.3948 C   0  0  0  0  0  0  0  0  0  0  0  0
  -25.6118  -28.7387   19.3845 C   0  0  0  0  0  0  0  0  0  0  0  0
  -29.0351  -24.0795   17.9386 C   0  0  0  0  0  0  0  0  0  0  0  0
  -28.4678  -22.8173   17.7641 C   0  0  0  0  0  0  0  0  0  0  0  0
  -23.5843   -8.6209   22.4816 C   0  0  0  0  0  0  0  0  0  0  0  0
  -22.0727   -9.1869   20.6838 C   0  0  0  0  0  0  0  0  0  0  0  0
  -26.9099  -28.2457   19.5095 C   0  0  0  0  0  0  0  0  0  0  0  0
  -21.8946   -5.6940   22.3787 C   0  0  0  0  0  0  0  0  0  0  0  0
  -22.1335   -4.4473   22.9569 C   0  0  0  0  0  0  0  0  0  0  0  0
  -26.0899  -26.4576   20.9057 C   0  0  0  0  0  0  0  0  0  0  0  0
  -29.3578  -22.1219   19.8999 C   0  0  0  0  0  0  0  0  0  0  0  0
  -21.6187   -5.3586   25.1345 C   0  0  0  0  0  0  0  0  0  0  0  0
  -24.4022   -9.8125   20.5456 C   0  0  0  0  0  0  0  0  0  0  0  0
  -26.3572   -9.8325   18.9069 C   0  0  0  0  0  0  0  0  0  0  0  0
  -20.3603  -33.0858   23.4249 C   0  0  0  0  0  0  0  0  0  0  0  0
  -24.5427  -28.1000   20.0292 C   0  0  0  0  0  0  0  0  0  0  0  0
  -21.5671  -32.4272   23.1213 C   0  0  0  0  0  0  0  0  0  0  0  0
  -24.7788  -26.9430   20.7852 C   0  0  0  0  0  0  0  0  0  0  0  0
  -29.7639  -24.3630   19.0937 C   0  0  0  0  0  0  0  0  0  0  0  0
  -28.6291  -21.8385   18.7447 C   0  0  0  0  0  0  0  0  0  0  0  0
  -22.3040   -8.6010   21.9284 C   0  0  0  0  0  0  0  0  0  0  0  0
  -27.1496  -27.1067   20.2725 C   0  0  0  0  0  0  0  0  0  0  0  0
  -21.5177   -6.7730   23.1784 C   0  0  0  0  0  0  0  0  0  0  0  0
  -29.9252  -23.3842   20.0744 C   0  0  0  0  0  0  0  0  0  0  0  0
  -21.9956   -4.2796   24.3348 C   0  0  0  0  0  0  0  0  0  0  0  0
  -21.3798   -6.6053   24.5562 C   0  0  0  0  0  0  0  0  0  0  0  0
  -25.4854  -10.4389   19.8311 C   0  0  0  0  0  0  0  0  0  0  0  0
  -27.2001  -10.8439   18.5155 C   0  0  0  0  0  0  0  0  0  0  0  0
  -26.4011   -8.4764   18.4436 C   0  0  0  0  0  0  0  0  0  0  0  0
  -22.4455  -28.9419   22.2645 C   0  0  0  0  0  0  0  0  0  0  0  0
  -21.1471  -26.0482   21.5839 C   0  0  0  0  0  0  0  0  0  0  0  0
  -21.5828  -22.8932   20.3581 C   0  0  0  0  0  0  0  0  0  0  0  0
  -26.6820  -16.5923   18.1760 C   0  0  0  0  0  0  0  0  0  0  0  0
  -19.2786  -32.4235   24.2410 C   0  0  0  0  0  0  0  0  0  0  0  0
  -23.1446  -28.6290   19.8625 C   0  0  0  0  0  0  0  0  0  0  0  0
  -23.6628  -26.2087   21.4807 C   0  0  0  0  0  0  0  0  0  0  0  0
  -19.4143  -30.9048   24.3140 C   0  0  0  0  0  0  0  0  0  0  0  0
  -29.1321  -14.9301   20.0664 C   0  0  0  0  0  0  0  0  0  0  0  0
  -20.8545  -30.5119   24.6279 C   0  0  0  0  0  0  0  0  0  0  0  0
  -28.5563  -13.5159   20.1337 C   0  0  0  0  0  0  0  0  0  0  0  0
  -28.0488  -15.9981   20.2252 C   0  0  0  0  0  0  0  0  0  0  0  0
  -28.4583  -19.7574   17.4151 C   0  0  0  0  0  0  0  0  0  0  0  0
  -27.6281  -19.8440   19.7708 C   0  0  0  0  0  0  0  0  0  0  0  0
  -27.4114  -18.6909   17.1047 C   0  0  0  0  0  0  0  0  0  0  0  0
  -26.5888  -18.7864   19.4158 C   0  0  0  0  0  0  0  0  0  0  0  0
  -26.3420  -14.4370   19.3491 C   0  0  0  0  0  0  0  0  0  0  0  0
  -21.8090  -30.9894   23.5268 C   0  0  1  0  0  0  0  0  0  0  0  0
  -22.2043  -28.1955   20.9829 C   0  0  1  0  0  0  0  0  0  0  0  0
  -27.3990  -13.3426   19.1341 C   0  0  2  0  0  0  0  0  0  0  0  0
  -31.4086  -26.0305   18.1741 C   0  0  0  0  0  0  0  0  0  0  0  0
  -20.3478  -20.7441   19.9662 C   0  0  0  0  0  0  0  0  0  0  0  0
  -21.3107  -25.4136   24.5639 C   0  0  0  0  0  0  0  0  0  0  0  0
  -20.9795  -22.9977   23.9966 C   0  0  0  0  0  0  0  0  0  0  0  0
  -19.2015  -24.6603   23.4512 C   0  0  0  0  0  0  0  0  0  0  0  0
  -22.0369  -23.0299   17.4368 C   0  0  0  0  0  0  0  0  0  0  0  0
  -30.7491  -22.5870   22.1580 C   0  0  0  0  0  0  0  0  0  0  0  0
  -29.3053  -26.8451   19.3027 C   0  0  0  0  0  0  0  0  0  1  0  0
  -30.3635  -25.7196   19.2636 C   0  0  1  0  0  0  0  0  0  0  0  0
  -21.3384  -24.6425   22.1001 C   0  0  1  0  0  0  0  0  0  0  0  0
  -20.7722  -22.0763   19.3681 C   0  0  2  0  0  0  0  0  0  0  0  0
  -20.7290  -24.4433   23.5166 C   0  0  0  0  0  0  0  0  0  0  0  0
  -25.7501  -11.7349   20.0159 N   0  0  0  0  0  0  0  0  0  0  0  0
  -26.7978  -11.9513   19.2025 N   0  0  0  0  0  0  0  0  0  0  0  0
  -28.0598  -20.5708   18.5690 N   0  0  0  0  0  0  0  0  0  0  0  0
  -22.3142  -26.7685   21.2927 N   0  0  0  0  0  0  0  0  0  0  0  0
  -26.9483  -15.7681   19.2796 N   0  0  0  0  0  0  0  0  0  0  0  0
  -27.0271  -17.9474   18.2985 N   0  0  0  0  0  0  0  0  0  0  0  0
  -28.2388  -10.8850   17.6542 N   0  0  0  0  0  0  0  0  0  0  0  0
  -25.4616   -7.5671   18.9483 N   0  0  0  0  0  0  0  0  0  0  0  0
  -21.7278  -30.1176   22.3745 N   0  0  0  0  0  0  0  0  0  0  0  0
  -20.7865  -23.7552   21.0820 N   0  0  0  0  0  0  0  0  0  0  0  0
  -21.5731  -21.8066   18.1406 N   0  3  0  0  0  0  0  0  0  0  0  0
  -27.2589   -8.0787   17.6192 O   0  0  0  0  0  0  0  0  0  0  0  0
  -23.2240  -28.4842   23.0929 O   0  0  0  0  0  0  0  0  0  0  0  0
  -20.0040  -26.4884   21.4375 O   0  0  0  0  0  0  0  0  0  0  0  0
  -22.8001  -22.7755   20.4799 O   0  0  0  0  0  0  0  0  0  0  0  0
  -26.1701  -16.1461   17.1418 O   0  0  0  0  0  0  0  0  0  0  0  0
  -21.2801   -8.0098   22.6027 O   0  0  0  0  0  0  0  0  0  0  0  0
  -30.6342  -23.6447   21.2084 O   0  0  0  0  0  0  0  0  0  0  0  0
  -28.4241  -26.6206   20.3975 O   0  0  0  0  0  0  0  0  0  1  0  0
  -22.2236   -3.0820   24.8897 F   0  0  0  0  0  0  0  0  0  0  0  0
  -21.0168   -7.6379   25.3295 F   0  0  0  0  0  0  0  0  0  0  0  0
  1  2  1  0  0  0  0
  1  5  2  0  0  0  0
  2  6  2  0  0  0  0
  3 10  2  0  0  0  0
  3 18  1  0  0  0  0
  4 11  1  0  0  0  0
  4 18  2  0  0  0  0
  5 20  1  0  0  0  0
  6 22  1  0  0  0  0
  7 12  2  0  0  0  0
  7 21  1  0  0  0  0
  8  9  2  0  0  0  0
  8 24  1  0  0  0  0
  9 25  1  0  0  0  0
 10 26  1  0  0  0  0
 11 26  2  0  0  0  0
 12 27  1  0  0  0  0
 13 14  2  0  0  0  0
 13 28  1  0  0  0  0
 14 30  1  0  0  0  0
 15 23  1  0  0  0  0
 15 27  2  0  0  0  0
 16 25  2  0  0  0  0
 16 29  1  0  0  0  0
 17 30  2  0  0  0  0
 17 31  1  0  0  0  0
 18 32  1  0  0  0  0
 19 32  1  0  0  0  0
 19 33  2  0  0  0  0
 19 34  1  0  0  0  0
 20 22  2  0  0  0  0
 20 39  1  0  0  0  0
 21 23  2  0  0  0  0
 21 40  1  0  0  0  0
 22 52  1  0  0  0  0
 23 41  1  0  0  0  0
 24 29  2  0  0  0  0
 24 63  1  0  0  0  0
 25 69  1  0  0  0  0
 26 83  1  0  0  0  0
 27 85  1  0  0  0  0
 28 31  2  0  0  0  0
 28 83  1  0  0  0  0
 29 84  1  0  0  0  0
 30 86  1  0  0  0  0
 31 87  1  0  0  0  0
 32 67  2  0  0  0  0
 33 68  1  0  0  0  0
 33 73  1  0  0  0  0
 34 74  1  0  0  0  0
 34 78  2  0  0  0  0
 35 53  1  0  0  0  0
 35 75  1  0  0  0  0
 35 79  2  0  0  0  0
 36 64  1  0  0  0  0
 36 70  1  0  0  0  0
 36 80  2  0  0  0  0
 37 65  1  0  0  0  0
 37 76  1  0  0  0  0
 37 81  2  0  0  0  0
 38 71  1  0  0  0  0
 38 72  1  0  0  0  0
 38 82  2  0  0  0  0
 39 42  1  0  0  0  0
 40 53  1  0  0  0  0
 41 70  1  0  0  0  0
 42 44  1  0  0  0  0
 43 45  1  0  0  0  0
 43 46  1  0  0  0  0
 44 52  1  0  0  0  0
 45 54  1  0  0  0  0
 46 71  1  0  0  0  0
 47 49  1  0  0  0  0
 47 69  1  0  0  0  0
 48 50  1  0  0  0  0
 48 69  1  0  0  0  0
 49 72  1  0  0  0  0
 50 72  1  0  0  0  0
 51 54  1  0  0  0  0
 51 71  1  0  0  0  0
 52 75  1  0  0  0  0
 53 70  1  0  0  0  0
 54 68  1  0  0  0  0
 55 63  1  0  0  0  0
 56 65  1  0  0  0  0
 57 66  1  0  0  0  0
 58 66  1  0  0  0  0
 59 66  1  0  0  0  0
 60 77  1  0  0  0  0
 61 84  1  0  0  0  0
 62 63  1  0  0  0  0
 62 85  1  0  0  0  0
 64 66  1  0  0  0  0
 64 76  1  0  0  0  0
 65 77  1  0  0  0  0
 67 68  1  0  0  0  0
M  CHG  1  77   1
M  ISO  4  38 100  62 101  72 100  85 101
M  END
> <Batch ID>
0159

> <Smiles>
CNC(C)C(=O)NC(C(=O)N1Cc2cc([101O:1][101CH2:1]C(C)c3ccc(N4CC[100N:0]([100C:0](=O)N5CCCC(n6nc(-c7ccc(Oc8ccc(F)cc8F)cc7)c(C(N)=O)c6N)C5)CC4)cc3OC)ccc2CC1C(=O)NC1CCCc2ccccc21)C(C)(C)C

> <Shape>
0.265

> <Color>
0.107

> <Negative vol penalty>
0.000

$$$$

  -OEChem-04052322073D

 81 90  0     1  0  0  0  0  0999 V2000
  -27.4755  -32.9395   26.9481 C   0  0  0  0  0  0  0  0  0  0  0  0
  -27.7463  -31.8535   26.1219 C   0  0  0  0  0  0  0  0  0  0  0  0
  -26.9740  -11.7776   22.4222 C   0  0  0  0  0  0  0  0  0  0  0  0
  -25.7696  -11.0808   20.4471 C   0  0  0  0  0  0  0  0  0  0  0  0
  -26.1580  -33.2439   27.2879 C   0  0  0  0  0  0  0  0  0  0  0  0
  -26.6998  -31.0705   25.6359 C   0  0  0  0  0  0  0  0  0  0  0  0
  -27.1926  -30.0107   20.7085 C   0  0  0  0  0  0  0  0  0  0  0  0
  -25.9868  -11.2068   23.2255 C   0  0  0  0  0  0  0  0  0  0  0  0
  -24.7825  -10.5100   21.2504 C   0  0  0  0  0  0  0  0  0  0  0  0
  -28.0956  -29.0071   20.3603 C   0  0  0  0  0  0  0  0  0  0  0  0
  -24.3653   -7.6792   23.0486 C   0  0  0  0  0  0  0  0  0  0  0  0
  -23.9103   -6.4057   22.7071 C   0  0  0  0  0  0  0  0  0  0  0  0
  -26.2676  -27.4494   20.1339 C   0  0  0  0  0  0  0  0  0  0  0  0
  -21.6731   -7.2773   22.4379 C   0  0  0  0  0  0  0  0  0  0  0  0
  -26.8654  -11.7146   21.0330 C   0  0  0  0  0  0  0  0  0  0  0  0
  -29.0480  -11.6814   19.7128 C   0  0  0  0  0  0  0  0  0  0  0  0
  -25.0941  -32.4701   26.7980 C   0  0  0  0  0  0  0  0  0  0  0  0
  -25.8191  -29.7380   20.7827 C   0  0  0  0  0  0  0  0  0  0  0  0
  -25.3669  -31.3641   25.9705 C   0  0  0  0  0  0  0  0  0  0  0  0
  -25.3491  -28.4519   20.4808 C   0  0  0  0  0  0  0  0  0  0  0  0
  -24.8911  -10.5730   22.6397 C   0  0  0  0  0  0  0  0  0  0  0  0
  -27.6334  -27.7255   20.0757 C   0  0  0  0  0  0  0  0  0  0  0  0
  -23.4743   -8.7518   23.0848 C   0  0  0  0  0  0  0  0  0  0  0  0
  -22.5642   -6.2047   22.4017 C   0  0  0  0  0  0  0  0  0  0  0  0
  -22.1282   -8.5508   22.7794 C   0  0  0  0  0  0  0  0  0  0  0  0
  -27.8845  -12.3045   20.2027 C   0  0  0  0  0  0  0  0  0  0  0  0
  -29.6791  -12.6584   18.9823 C   0  0  0  0  0  0  0  0  0  0  0  0
  -29.5163  -10.3395   19.9012 C   0  0  0  0  0  0  0  0  0  0  0  0
  -23.6373  -29.8213   23.0928 C   0  0  0  0  0  0  0  0  0  0  0  0
  -21.5973  -29.1744   20.6552 C   0  0  0  0  0  0  0  0  0  0  0  0
  -21.1331  -27.8796   17.5319 C   0  0  0  0  0  0  0  0  0  0  0  0
  -29.7639  -18.4346   19.2435 C   0  0  0  0  0  0  0  0  0  0  0  0
  -23.6899  -32.8096   27.2311 C   0  0  0  0  0  0  0  0  0  0  0  0
  -24.8555  -30.8382   21.1338 C   0  0  0  0  0  0  0  0  0  0  0  0
  -23.8823  -28.1127   20.5263 C   0  0  0  0  0  0  0  0  0  0  0  0
  -22.6121  -32.1550   26.3707 C   0  0  0  0  0  0  0  0  0  0  0  0
  -28.7879  -16.5904   16.4160 C   0  0  0  0  0  0  0  0  0  0  0  0
  -22.9287  -30.6793   26.1496 C   0  0  0  0  0  0  0  0  0  0  0  0
  -28.5552  -15.2065   17.0215 C   0  0  0  0  0  0  0  0  0  0  0  0
  -29.8214  -24.7233   20.5290 C   0  0  0  0  0  0  0  0  0  0  0  0
  -27.7508  -24.3588   20.0956 C   0  0  0  0  0  0  0  0  0  0  0  0
  -28.2742  -17.7078   17.3256 C   0  0  0  0  0  0  0  0  0  0  0  0
  -28.5271  -20.4608   18.3525 C   0  0  0  0  0  0  0  0  0  0  0  0
  -30.8809  -20.6400   19.0897 C   0  0  0  0  0  0  0  0  0  0  0  0
  -28.5719  -16.2643   19.3124 C   0  0  0  0  0  0  0  0  0  0  0  0
  -28.1254  -21.5555   19.3378 C   0  0  0  0  0  0  0  0  0  0  0  0
  -30.5124  -21.7167   20.0993 C   0  0  0  0  0  0  0  0  0  0  0  0
  -24.2571  -30.5059   25.4033 C   0  0  1  0  0  0  0  0  0  0  0  0
  -23.5287  -30.3190   21.6793 C   0  0  1  0  0  0  0  0  0  0  0  0
  -29.1295  -15.1237   18.4470 C   0  0  1  0  0  0  0  0  0  0  0  0
  -28.5420  -25.5899   20.5950 C   0  0  0  0  0  0  0  0  0  1  0  0
  -28.9181  -23.4653   20.5865 C   0  0  0  0  0  0  0  0  0  0  0  0
  -28.7443  -22.8276   21.9552 C   0  0  0  0  0  0  0  0  0  0  0  0
  -19.3477  -27.4579   15.8197 C   0  0  0  0  0  0  0  0  0  0  0  0
  -20.5899  -26.8052   22.2928 C   0  0  0  0  0  0  0  0  0  0  0  0
  -19.5422  -25.8986   20.2074 C   0  0  0  0  0  0  0  0  0  0  0  0
  -18.7998  -28.0986   21.1192 C   0  0  0  0  0  0  0  0  0  0  0  0
  -22.4690  -29.6157   15.5418 C   0  0  0  0  0  0  0  0  0  0  0  0
  -21.0652  -27.9168   20.0115 C   0  0  1  0  0  0  0  0  0  0  0  0
  -20.4127  -28.4253   16.3121 C   0  0  2  0  0  0  0  0  0  0  0  0
  -20.0272  -27.1854   20.9087 C   0  0  0  0  0  0  0  0  0  0  0  0
  -27.7803  -13.5788   19.8161 N   0  0  0  0  0  0  0  0  0  0  0  0
  -28.8864  -13.7644   19.0757 N   0  0  0  0  0  0  0  0  0  0  0  0
  -22.9803  -29.2209   20.8808 N   0  0  0  0  0  0  0  0  0  0  0  0
  -28.8166  -17.5642   18.6838 N   0  0  0  0  0  0  0  0  0  0  0  0
  -29.7416  -19.7670   18.8050 N   0  0  0  0  0  0  0  0  0  0  0  0
  -30.8293  -12.6709   18.2757 N   0  0  0  0  0  0  0  0  0  0  0  0
  -28.7454   -9.4660   20.6803 N   0  0  0  0  0  0  0  0  0  0  0  0
  -24.0821  -30.7721   23.9915 N   0  0  0  0  0  0  0  0  0  0  0  0
  -20.5517  -28.3129   18.7047 N   0  0  0  0  0  0  0  0  0  0  0  0
  -29.3061  -22.4531   19.5833 N   0  3  0  0  0  0  0  0  0  0  0  0
  -21.3795  -28.6641   15.2034 N   0  3  0  0  0  0  0  0  0  0  0  0
  -30.5949   -9.9320   19.4072 O   0  0  0  0  0  0  0  0  0  0  0  0
  -23.3382  -28.6609   23.3494 O   0  0  0  0  0  0  0  0  0  0  0  0
  -20.8156  -30.0850   20.9405 O   0  0  0  0  0  0  0  0  0  0  0  0
  -22.1113  -27.1398   17.4523 O   0  0  0  0  0  0  0  0  0  0  0  0
  -30.5814  -18.0442   20.0864 O   0  0  0  0  0  0  0  0  0  0  0  0
  -23.9277  -10.0157   23.4232 O   0  0  0  0  0  0  0  0  0  0  0  0
  -28.5143  -26.7421   19.7356 O   0  0  0  0  0  0  0  0  0  1  0  0
  -22.1276   -4.9820   22.0723 F   0  0  0  0  0  0  0  0  0  0  0  0
  -21.2676   -9.5776   22.8113 F   0  0  0  0  0  0  0  0  0  0  0  0
  1  2  1  0  0  0  0
  1  5  2  0  0  0  0
  2  6  2  0  0  0  0
  3  8  2  0  0  0  0
  3 15  1  0  0  0  0
  4  9  1  0  0  0  0
  4 15  2  0  0  0  0
  5 17  1  0  0  0  0
  6 19  1  0  0  0  0
  7 10  2  0  0  0  0
  7 18  1  0  0  0  0
  8 21  1  0  0  0  0
  9 21  2  0  0  0  0
 10 22  1  0  0  0  0
 11 12  2  0  0  0  0
 11 23  1  0  0  0  0
 12 24  1  0  0  0  0
 13 20  1  0  0  0  0
 13 22  2  0  0  0  0
 14 24  2  0  0  0  0
 14 25  1  0  0  0  0
 15 26  1  0  0  0  0
 16 26  1  0  0  0  0
 16 27  2  0  0  0  0
 16 28  1  0  0  0  0
 17 19  2  0  0  0  0
 17 33  1  0  0  0  0
 18 20  2  0  0  0  0
 18 34  1  0  0  0  0
 19 48  1  0  0  0  0
 20 35  1  0  0  0  0
 21 78  1  0  0  0  0
 22 79  1  0  0  0  0
 23 25  2  0  0  0  0
 23 78  1  0  0  0  0
 24 80  1  0  0  0  0
 25 81  1  0  0  0  0
 26 62  2  0  0  0  0
 27 63  1  0  0  0  0
 27 67  1  0  0  0  0
 28 68  1  0  0  0  0
 28 73  2  0  0  0  0
 29 49  1  0  0  0  0
 29 69  1  0  0  0  0
 29 74  2  0  0  0  0
 30 59  1  0  0  0  0
 30 64  1  0  0  0  0
 30 75  2  0  0  0  0
 31 60  1  0  0  0  0
 31 70  1  0  0  0  0
 31 76  2  0  0  0  0
 32 65  1  0  0  0  0
 32 66  1  0  0  0  0
 32 77  2  0  0  0  0
 33 36  1  0  0  0  0
 34 49  1  0  0  0  0
 35 64  1  0  0  0  0
 36 38  1  0  0  0  0
 37 39  1  0  0  0  0
 37 42  1  0  0  0  0
 38 48  1  0  0  0  0
 39 50  1  0  0  0  0
 40 51  1  0  0  0  0
 40 52  1  0  0  0  0
 41 51  1  0  0  0  0
 41 52  1  0  0  0  0
 42 65  1  0  0  0  0
 43 46  1  0  0  0  0
 43 66  1  0  0  0  0
 44 47  1  0  0  0  0
 44 66  1  0  0  0  0
 45 50  1  0  0  0  0
 45 65  1  0  0  0  0
 46 71  1  0  0  0  0
 47 71  1  0  0  0  0
 48 69  1  0  0  0  0
 49 64  1  0  0  0  0
 50 63  1  0  0  0  0
 51 79  1  0  0  0  0
 52 53  1  0  0  0  0
 52 71  1  0  0  0  0
 54 60  1  0  0  0  0
 55 61  1  0  0  0  0
 56 61  1  0  0  0  0
 57 61  1  0  0  0  0
 58 72  1  0  0  0  0
 59 61  1  0  0  0  0
 59 70  1  0  0  0  0
 60 72  1  0  0  0  0
 62 63  1  0  0  0  0
M  CHG  2  71   1  72   1
M  ISO  4  32 100  51 101  66 100  79 101
M  END
> <Batch ID>
0159

> <Smiles>
CNC(C)C(=O)NC(C(=O)N1Cc2cc([101O:1][101CH:1]3CC(C)(N4CC[100N:0]([100C:0](=O)N5CCCC(n6nc(-c7ccc(Oc8ccc(F)cc8F)cc7)c(C(N)=O)c6N)C5)CC4)C3)ccc2CC1C(=O)NC1CCCc2ccccc21)C(C)(C)C

> <Shape>
0.309

> <Color>
0.090

> <Negative vol penalty>
0.000

$$$$

  -OEChem-04052322073D

 90100  0     1  0  0  0  0  0999 V2000
  -19.8504  -24.4033   22.6538 C   0  0  0  0  0  0  0  0  0  0  0  0
  -20.9654  -24.8715   21.9661 C   0  0  0  0  0  0  0  0  0  0  0  0
  -21.8453  -17.2568   23.4826 C   0  0  0  0  0  0  0  0  0  0  0  0
  -23.0204  -16.2812   25.3546 C   0  0  0  0  0  0  0  0  0  0  0  0
  -18.8479  -25.2916   23.0410 C   0  0  0  0  0  0  0  0  0  0  0  0
  -21.0780  -26.2282   21.6642 C   0  0  0  0  0  0  0  0  0  0  0  0
  -25.7040  -28.0537   22.6196 C   0  0  0  0  0  0  0  0  0  0  0  0
  -20.8192  -17.6603   24.3370 C   0  0  0  0  0  0  0  0  0  0  0  0
  -21.9944  -16.6847   26.2090 C   0  0  0  0  0  0  0  0  0  0  0  0
  -26.7043  -27.7713   21.6905 C   0  0  0  0  0  0  0  0  0  0  0  0
  -18.1478  -16.2553   25.8581 C   0  0  0  0  0  0  0  0  0  0  0  0
  -16.8348  -16.0361   25.4415 C   0  0  0  0  0  0  0  0  0  0  0  0
  -32.4885  -22.6223   19.5634 C   0  0  0  0  0  0  0  0  0  0  0  0
  -32.7661  -21.6761   17.3579 C   0  0  0  0  0  0  0  0  0  0  0  0
  -26.4352  -29.9724   20.7408 C   0  0  0  0  0  0  0  0  0  0  0  0
  -32.9417  -24.0643   17.6786 C   0  0  0  0  0  0  0  0  0  0  0  0
  -16.4036  -18.4108   25.5516 C   0  0  0  0  0  0  0  0  0  0  0  0
  -22.9459  -16.5672   23.9914 C   0  0  0  0  0  0  0  0  0  0  0  0
  -23.9001  -15.2863   22.0023 C   0  0  0  0  0  0  0  0  0  0  0  0
  -18.9528  -26.6613   22.7521 C   0  0  0  0  0  0  0  0  0  0  0  0
  -25.0531  -29.2957   22.6093 C   0  0  0  0  0  0  0  0  0  0  0  0
  -20.0753  -27.1354   22.0467 C   0  0  0  0  0  0  0  0  0  0  0  0
  -32.5225  -21.5109   18.7213 C   0  0  0  0  0  0  0  0  0  0  0  0
  -25.4287  -30.2690   21.6725 C   0  0  0  0  0  0  0  0  0  0  0  0
  -32.6980  -23.8990   19.0421 C   0  0  0  0  0  0  0  0  0  0  0  0
  -20.8938  -17.3743   25.7002 C   0  0  0  0  0  0  0  0  0  0  0  0
  -27.0681  -28.7296   20.7491 C   0  0  0  0  0  0  0  0  0  0  0  0
  -18.5887  -17.5521   26.1215 C   0  0  0  0  0  0  0  0  0  0  0  0
  -32.9757  -22.9528   16.8365 C   0  0  0  0  0  0  0  0  0  0  0  0
  -15.9627  -17.1139   25.2883 C   0  0  0  0  0  0  0  0  0  0  0  0
  -17.7166  -18.6299   25.9683 C   0  0  0  0  0  0  0  0  0  0  0  0
  -24.0058  -16.1496   23.1092 C   0  0  0  0  0  0  0  0  0  0  0  0
  -25.1773  -15.2102   21.5030 C   0  0  0  0  0  0  0  0  0  0  0  0
  -22.7501  -14.6134   21.4728 C   0  0  0  0  0  0  0  0  0  0  0  0
  -22.0547  -30.2532   22.1661 C   0  0  0  0  0  0  0  0  0  0  0  0
  -23.2731  -33.1507   22.9675 C   0  0  0  0  0  0  0  0  0  0  0  0
  -26.0004  -35.1926   23.1654 C   0  0  0  0  0  0  0  0  0  0  0  0
  -29.7593  -17.7969   19.8975 C   0  0  0  0  0  0  0  0  0  0  0  0
  -17.8213  -27.5758   23.1495 C   0  0  0  0  0  0  0  0  0  0  0  0
  -23.9946  -29.5945   23.6354 C   0  0  0  0  0  0  0  0  0  0  0  0
  -24.7748  -31.6252   21.6323 C   0  0  0  0  0  0  0  0  0  0  0  0
  -18.1950  -29.0556   23.1200 C   0  0  0  0  0  0  0  0  0  0  0  0
  -29.5768  -16.7360   23.4126 C   0  0  0  0  0  0  0  0  0  0  0  0
  -18.9354  -29.3936   21.8299 C   0  0  0  0  0  0  0  0  0  0  0  0
  -30.1770  -25.3636   19.6328 C   0  0  0  0  0  0  0  0  0  0  0  0
  -31.5696  -27.2870   20.5028 C   0  0  0  0  0  0  0  0  0  0  0  0
  -28.0800  -16.4903   23.5664 C   0  0  0  0  0  0  0  0  0  0  0  0
  -29.0387  -26.3318   19.3249 C   0  0  0  0  0  0  0  0  0  0  0  0
  -30.4272  -28.2499   20.1931 C   0  0  0  0  0  0  0  0  0  0  0  0
  -29.8848  -17.8702   22.4348 C   0  0  0  0  0  0  0  0  0  0  0  0
  -31.2323  -19.8693   20.4313 C   0  0  0  0  0  0  0  0  0  0  0  0
  -31.4738  -19.0360   18.4919 C   0  0  0  0  0  0  0  0  0  0  0  0
  -27.7312  -17.4499   21.2651 C   0  0  0  0  0  0  0  0  0  0  0  0
  -32.2846  -20.0592   19.3139 C   0  0  0  0  0  0  0  0  0  0  0  0
  -20.2454  -28.6038   21.7225 C   0  0  1  0  0  0  0  0  0  0  0  0
  -23.0417  -30.7054   23.2048 C   0  0  1  0  0  0  0  0  0  0  0  0
  -31.5430  -26.0618   19.5785 C   0  0  0  0  0  0  0  0  0  0  0  0
  -27.4308  -16.2653   22.1933 C   0  0  2  0  0  0  0  0  0  0  0  0
  -29.0706  -27.5503   20.2436 C   0  0  0  0  0  0  0  0  0  1  0  0
  -34.0088  -25.8325   19.9893 C   0  0  0  0  0  0  0  0  0  0  0  0
  -26.6770  -37.5174   23.8251 C   0  0  0  0  0  0  0  0  0  0  0  0
  -22.0720  -34.2321   20.3795 C   0  0  0  0  0  0  0  0  0  0  0  0
  -23.5481  -36.2405   20.6155 C   0  0  0  0  0  0  0  0  0  0  0  0
  -21.8294  -35.7466   22.3548 C   0  0  0  0  0  0  0  0  0  0  0  0
  -27.8264  -34.1895   25.2673 C   0  0  0  0  0  0  0  0  0  0  0  0
  -33.4195  -24.4466   15.0400 C   0  0  0  0  0  0  0  0  0  0  0  0
  -32.6615  -25.0872   19.9426 C   0  0  2  0  0  0  0  0  0  0  0  0
  -23.8952  -34.2965   22.2065 C   0  0  1  0  0  0  0  0  0  0  0  0
  -26.5175  -36.0769   24.2857 C   0  0  2  0  0  0  0  0  0  0  0  0
  -22.8474  -35.1028   21.3883 C   0  0  0  0  0  0  0  0  0  0  0  0
  -25.2519  -16.5903   23.3023 N   0  0  0  0  0  0  0  0  0  0  0  0
  -25.9408  -16.0014   22.3099 N   0  0  0  0  0  0  0  0  0  0  0  0
  -23.7410  -31.8672   22.6522 N   0  0  0  0  0  0  0  0  0  0  0  0
  -29.1700  -17.7162   21.1636 N   0  0  0  0  0  0  0  0  0  0  0  0
  -30.8396  -18.6432   19.7471 N   0  0  0  0  0  0  0  0  0  0  0  0
  -25.7106  -14.5442   20.4568 N   0  0  0  0  0  0  0  0  0  0  0  0
  -22.4423  -13.3346   21.9570 N   0  0  0  0  0  0  0  0  0  0  0  0
  -21.2622  -29.1943   22.5663 N   0  0  0  0  0  0  0  0  0  0  0  0
  -24.6255  -35.0902   23.1888 N   0  0  0  0  0  0  0  0  0  0  0  0
  -27.8415  -35.5868   24.7631 N   0  3  0  0  0  0  0  0  0  0  0  0
  -22.0265  -15.1240   20.5844 O   0  0  0  0  0  0  0  0  0  0  0  0
  -22.0140  -30.8238   21.0824 O   0  0  0  0  0  0  0  0  0  0  0  0
  -22.4090  -33.3865   23.8158 O   0  0  0  0  0  0  0  0  0  0  0  0
  -26.7416  -34.6503   22.3487 O   0  0  0  0  0  0  0  0  0  0  0  0
  -29.3211  -17.1658   18.9273 O   0  0  0  0  0  0  0  0  0  0  0  0
  -19.8928  -17.7681   26.5342 O   0  0  0  0  0  0  0  0  0  0  0  0
  -28.0502  -28.4545   19.8347 O   0  0  0  0  0  0  0  0  0  1  0  0
  -33.2138  -23.1139   15.5061 O   0  0  0  0  0  0  0  0  0  0  0  0
  -14.7022  -16.9035   24.8868 F   0  0  0  0  0  0  0  0  0  0  0  0
  -18.1348  -19.8782   26.2187 F   0  0  0  0  0  0  0  0  0  0  0  0
  1  2  1  0  0  0  0
  1  5  2  0  0  0  0
  2  6  2  0  0  0  0
  3  8  2  0  0  0  0
  3 18  1  0  0  0  0
  4  9  1  0  0  0  0
  4 18  2  0  0  0  0
  5 20  1  0  0  0  0
  6 22  1  0  0  0  0
  7 10  2  0  0  0  0
  7 21  1  0  0  0  0
  8 26  1  0  0  0  0
  9 26  2  0  0  0  0
 10 27  1  0  0  0  0
 11 12  2  0  0  0  0
 11 28  1  0  0  0  0
 12 30  1  0  0  0  0
 13 23  1  0  0  0  0
 13 25  2  0  0  0  0
 14 23  2  0  0  0  0
 14 29  1  0  0  0  0
 15 24  1  0  0  0  0
 15 27  2  0  0  0  0
 16 25  1  0  0  0  0
 16 29  2  0  0  0  0
 17 30  2  0  0  0  0
 17 31  1  0  0  0  0
 18 32  1  0  0  0  0
 19 32  1  0  0  0  0
 19 33  2  0  0  0  0
 19 34  1  0  0  0  0
 20 22  2  0  0  0  0
 20 39  1  0  0  0  0
 21 24  2  0  0  0  0
 21 40  1  0  0  0  0
 22 55  1  0  0  0  0
 23 54  1  0  0  0  0
 24 41  1  0  0  0  0
 25 67  1  0  0  0  0
 26 86  1  0  0  0  0
 27 87  1  0  0  0  0
 28 31  2  0  0  0  0
 28 86  1  0  0  0  0
 29 88  1  0  0  0  0
 30 89  1  0  0  0  0
 31 90  1  0  0  0  0
 32 71  2  0  0  0  0
 33 72  1  0  0  0  0
 33 76  1  0  0  0  0
 34 77  1  0  0  0  0
 34 81  2  0  0  0  0
 35 56  1  0  0  0  0
 35 78  1  0  0  0  0
 35 82  2  0  0  0  0
 36 68  1  0  0  0  0
 36 73  1  0  0  0  0
 36 83  2  0  0  0  0
 37 69  1  0  0  0  0
 37 79  1  0  0  0  0
 37 84  2  0  0  0  0
 38 74  1  0  0  0  0
 38 75  1  0  0  0  0
 38 85  2  0  0  0  0
 39 42  1  0  0  0  0
 40 56  1  0  0  0  0
 41 73  1  0  0  0  0
 42 44  1  0  0  0  0
 43 47  1  0  0  0  0
 43 50  1  0  0  0  0
 44 55  1  0  0  0  0
 45 48  1  0  0  0  0
 45 57  1  0  0  0  0
 46 49  1  0  0  0  0
 46 57  1  0  0  0  0
 47 58  1  0  0  0  0
 48 59  1  0  0  0  0
 49 59  1  0  0  0  0
 50 74  1  0  0  0  0
 51 54  1  0  0  0  0
 51 75  1  0  0  0  0
 52 54  1  0  0  0  0
 52 75  1  0  0  0  0
 53 58  1  0  0  0  0
 53 74  1  0  0  0  0
 55 78  1  0  0  0  0
 56 73  1  0  0  0  0
 57 67  1  0  0  0  0
 58 72  1  0  0  0  0
 59 87  1  0  0  0  0
 60 67  1  0  0  0  0
 61 69  1  0  0  0  0
 62 70  1  0  0  0  0
 63 70  1  0  0  0  0
 64 70  1  0  0  0  0
 65 80  1  0  0  0  0
 66 88  1  0  0  0  0
 68 70  1  0  0  0  0
 68 79  1  0  0  0  0
 69 80  1  0  0  0  0
 71 72  1  0  0  0  0
M  CHG  1  80   1
M  ISO  4  38 100  59 101  75 100  87 101
M  END
> <Batch ID>
0159

> <Smiles>
CNC(C)C(=O)NC(C(=O)N1Cc2cc([101O:1][101CH:1]3CCC(C(C)c4cc(OC)cc(C5C[100N:0]([100C:0](=O)N6CCCC(n7nc(-c8ccc(Oc9ccc(F)cc9F)cc8)c(C(N)=O)c7N)C6)C5)c4)CC3)ccc2CC1C(=O)NC1CCCc2ccccc21)C(C)(C)C

> <Shape>
0.233

> <Color>
0.106

> <Negative vol penalty>
0.000

$$$$

  -OEChem-04052322073D

 87 96  0     1  0  0  0  0  0999 V2000
  -27.3087  -38.0128   21.2571 C   0  0  0  0  0  0  0  0  0  0  0  0
  -27.4460  -37.0015   20.3117 C   0  0  0  0  0  0  0  0  0  0  0  0
  -24.2843   -8.9215   20.3306 C   0  0  0  0  0  0  0  0  0  0  0  0
  -22.8490  -10.7905   20.8633 C   0  0  0  0  0  0  0  0  0  0  0  0
  -27.2631  -37.6954   22.6140 C   0  0  0  0  0  0  0  0  0  0  0  0
  -27.5390  -35.6723   20.7227 C   0  0  0  0  0  0  0  0  0  0  0  0
  -25.7648  -29.0497   18.6466 C   0  0  0  0  0  0  0  0  0  0  0  0
  -23.3809   -8.0531   20.9433 C   0  0  0  0  0  0  0  0  0  0  0  0
  -21.9456   -9.9221   21.4760 C   0  0  0  0  0  0  0  0  0  0  0  0
  -26.3357  -27.7926   18.4522 C   0  0  0  0  0  0  0  0  0  0  0  0
  -22.5720   -7.1129   24.0875 C   0  0  0  0  0  0  0  0  0  0  0  0
  -23.0885   -6.1379   24.9408 C   0  0  0  0  0  0  0  0  0  0  0  0
  -28.7610  -19.5178   19.3995 C   0  0  0  0  0  0  0  0  0  0  0  0
  -26.1656  -27.3562   20.8186 C   0  0  0  0  0  0  0  0  0  0  0  0
  -22.1436   -4.4112   23.5398 C   0  0  0  0  0  0  0  0  0  0  0  0
  -27.3645  -18.7938   17.5922 C   0  0  0  0  0  0  0  0  0  0  0  0
  -24.0184  -10.2902   20.2906 C   0  0  0  0  0  0  0  0  0  0  0  0
  -24.9670  -11.5850   18.3079 C   0  0  0  0  0  0  0  0  0  0  0  0
  -27.3459  -36.3608   23.0413 C   0  0  0  0  0  0  0  0  0  0  0  0
  -25.3995  -29.4745   19.9321 C   0  0  0  0  0  0  0  0  0  0  0  0
  -27.4958  -35.3369   22.0866 C   0  0  0  0  0  0  0  0  0  0  0  0
  -28.5447  -20.8124   18.9675 C   0  0  0  0  0  0  0  0  0  0  0  0
  -25.5880  -28.6181   21.0263 C   0  0  0  0  0  0  0  0  0  0  0  0
  -28.1525  -18.4800   18.6980 C   0  0  0  0  0  0  0  0  0  0  0  0
  -22.2116   -8.5534   21.5160 C   0  0  0  0  0  0  0  0  0  0  0  0
  -26.5388  -26.9468   19.5387 C   0  0  0  0  0  0  0  0  0  0  0  0
  -21.8412   -6.7371   22.9603 C   0  0  0  0  0  0  0  0  0  0  0  0
  -22.8743   -4.7870   24.6670 C   0  0  0  0  0  0  0  0  0  0  0  0
  -21.6270   -5.3862   22.6865 C   0  0  0  0  0  0  0  0  0  0  0  0
  -24.9514  -11.1878   19.6584 C   0  0  0  0  0  0  0  0  0  0  0  0
  -27.7441  -21.0228   17.8490 C   0  0  0  0  0  0  0  0  0  0  0  0
  -26.0400  -12.4371   18.2129 C   0  0  0  0  0  0  0  0  0  0  0  0
  -24.0899  -11.2166   17.2352 C   0  0  0  0  0  0  0  0  0  0  0  0
  -26.2847  -31.8544   21.8441 C   0  0  0  0  0  0  0  0  0  0  0  0
  -23.8676  -30.7435   23.7005 C   0  0  0  0  0  0  0  0  0  0  0  0
  -21.8593  -28.1295   24.5838 C   0  0  0  0  0  0  0  0  0  0  0  0
  -29.0916  -16.6635   20.1694 C   0  0  0  0  0  0  0  0  0  0  0  0
  -27.3396  -36.0707   24.5214 C   0  0  0  0  0  0  0  0  0  0  0  0
  -24.7603  -30.8228   20.1213 C   0  0  0  0  0  0  0  0  0  0  0  0
  -25.1944  -29.0187   22.4238 C   0  0  0  0  0  0  0  0  0  0  0  0
  -27.0679  -34.6058   24.8538 C   0  0  0  0  0  0  0  0  0  0  0  0
  -29.7595  -13.4291   21.4997 C   0  0  0  0  0  0  0  0  0  0  0  0
  -27.9166  -33.6927   23.9748 C   0  0  0  0  0  0  0  0  0  0  0  0
  -28.5694  -12.5903   21.0281 C   0  0  0  0  0  0  0  0  0  0  0  0
  -29.3429  -14.8552   21.8552 C   0  0  0  0  0  0  0  0  0  0  0  0
  -27.4087  -14.7255   20.3349 C   0  0  0  0  0  0  0  0  0  0  0  0
  -27.5749  -33.8810   22.4918 C   0  0  1  0  0  0  0  0  0  0  0  0
  -29.0802  -22.1017   19.5037 C   0  0  2  0  0  0  0  0  0  0  0  0
  -24.8995  -31.3556   21.5441 C   0  0  1  0  0  0  0  0  0  0  0  0
  -27.7901  -13.3000   19.9035 C   0  0  2  0  0  0  0  0  0  0  0  0
  -27.6675  -22.4981   17.5123 C   0  0  2  0  0  0  0  0  0  0  0  0
  -28.8909  -22.2784   21.0036 C   0  0  0  0  0  0  0  0  0  0  0  0
  -26.2241  -22.9806   17.3629 C   0  0  0  0  0  0  0  0  0  0  0  0
  -27.9897  -22.0037   15.0832 C   0  0  0  0  0  0  0  0  0  0  0  0
  -20.0040  -27.5151   26.1579 C   0  0  0  0  0  0  0  0  0  0  0  0
  -29.8429  -24.7561   19.8070 C   0  0  0  0  0  0  0  0  0  0  0  0
  -25.8712  -30.5842   25.9961 C   0  0  0  0  0  0  0  0  0  0  0  0
  -24.2532  -29.1122   27.2140 C   0  0  0  0  0  0  0  0  0  0  0  0
  -23.6162  -31.4543   26.6381 C   0  0  0  0  0  0  0  0  0  0  0  0
  -20.0150  -27.5120   22.3531 C   0  0  0  0  0  0  0  0  0  0  0  0
  -28.4935  -22.7804   16.2528 C   0  0  0  0  0  0  0  0  0  0  0  0
  -28.0156  -25.5817   18.2693 C   0  0  0  0  0  0  0  0  0  1  0  0
  -23.7507  -29.7197   24.8037 C   0  0  1  0  0  0  0  0  0  0  0  0
  -20.3561  -28.0329   24.7720 C   0  0  2  0  0  0  0  0  0  0  0  0
  -29.0260  -24.4766   18.5559 C   0  0  2  0  0  0  0  0  0  0  0  0
  -24.3821  -30.2105   26.1370 C   0  0  0  0  0  0  0  0  0  0  0  0
  -27.1436  -20.0504   17.1394 N   0  0  0  0  0  0  0  0  0  0  0  0
  -25.9364  -11.7420   20.3702 N   0  0  0  0  0  0  0  0  0  0  0  0
  -26.5810  -12.4960   19.4635 N   0  0  0  0  0  0  0  0  0  0  0  0
  -24.5790  -30.3493   22.5584 N   0  0  0  0  0  0  0  0  0  0  0  0
  -28.6135  -15.4657   20.7415 N   0  0  0  0  0  0  0  0  0  0  0  0
  -26.5641  -13.1342   17.1825 N   0  0  0  0  0  0  0  0  0  0  0  0
  -23.0382  -10.3307   17.5063 N   0  0  0  0  0  0  0  0  0  0  0  0
  -28.3344  -17.1324   19.0963 N   0  0  0  0  0  0  0  0  0  0  0  0
  -26.3417  -33.1969   22.1666 N   0  0  0  0  0  0  0  0  0  0  0  0
  -22.3342  -29.3845   24.9011 N   0  0  0  0  0  0  0  0  0  0  0  0
  -28.2814  -23.1932   18.7612 N   0  3  2  0  0  0  0  0  0  0  0  0
  -19.7658  -27.1103   23.7615 N   0  3  0  0  0  0  0  0  0  0  0  0
  -24.2443  -11.6471   16.0671 O   0  0  0  0  0  0  0  0  0  0  0  0
  -27.2315  -31.0784   21.7887 O   0  0  0  0  0  0  0  0  0  0  0  0
  -23.3409  -31.8497   23.8437 O   0  0  0  0  0  0  0  0  0  0  0  0
  -22.5444  -27.1849   24.1979 O   0  0  0  0  0  0  0  0  0  0  0  0
  -30.1141  -17.2169   20.5821 O   0  0  0  0  0  0  0  0  0  0  0  0
  -21.3297   -7.7062   22.1137 O   0  0  0  0  0  0  0  0  0  0  0  0
  -27.1002  -25.7113   19.3506 O   0  0  0  0  0  0  0  0  0  1  0  0
  -23.3717   -3.8508   25.4857 F   0  0  0  0  0  0  0  0  0  0  0  0
  -20.9267   -5.0190   21.6046 F   0  0  0  0  0  0  0  0  0  0  0  0
  1  2  1  0  0  0  0
  1  5  2  0  0  0  0
  2  6  2  0  0  0  0
  3  8  2  0  0  0  0
  3 17  1  0  0  0  0
  4  9  1  0  0  0  0
  4 17  2  0  0  0  0
  5 19  1  0  0  0  0
  6 21  1  0  0  0  0
  7 10  2  0  0  0  0
  7 20  1  0  0  0  0
  8 25  1  0  0  0  0
  9 25  2  0  0  0  0
 10 26  1  0  0  0  0
 11 12  2  0  0  0  0
 11 27  1  0  0  0  0
 12 28  1  0  0  0  0
 13 22  1  0  0  0  0
 13 24  2  0  0  0  0
 14 23  1  0  0  0  0
 14 26  2  0  0  0  0
 15 28  2  0  0  0  0
 15 29  1  0  0  0  0
 16 24  1  0  0  0  0
 16 67  2  0  0  0  0
 17 30  1  0  0  0  0
 18 30  1  0  0  0  0
 18 32  2  0  0  0  0
 18 33  1  0  0  0  0
 19 21  2  0  0  0  0
 19 38  1  0  0  0  0
 20 23  2  0  0  0  0
 20 39  1  0  0  0  0
 21 47  1  0  0  0  0
 22 31  2  0  0  0  0
 22 48  1  0  0  0  0
 23 40  1  0  0  0  0
 24 74  1  0  0  0  0
 25 84  1  0  0  0  0
 26 85  1  0  0  0  0
 27 29  2  0  0  0  0
 27 84  1  0  0  0  0
 28 86  1  0  0  0  0
 29 87  1  0  0  0  0
 30 68  2  0  0  0  0
 31 51  1  0  0  0  0
 31 67  1  0  0  0  0
 32 69  1  0  0  0  0
 32 72  1  0  0  0  0
 33 73  1  0  0  0  0
 33 79  2  0  0  0  0
 34 49  1  0  0  0  0
 34 75  1  0  0  0  0
 34 80  2  0  0  0  0
 35 63  1  0  0  0  0
 35 70  1  0  0  0  0
 35 81  2  0  0  0  0
 36 64  1  0  0  0  0
 36 76  1  0  0  0  0
 36 82  2  0  0  0  0
 37 71  1  0  0  0  0
 37 74  1  0  0  0  0
 37 83  2  0  0  0  0
 38 41  1  0  0  0  0
 39 49  1  0  0  0  0
 40 70  1  0  0  0  0
 41 43  1  0  0  0  0
 42 44  1  0  0  0  0
 42 45  1  0  0  0  0
 43 47  1  0  0  0  0
 44 50  1  0  0  0  0
 45 71  1  0  0  0  0
 46 50  1  0  0  0  0
 46 71  1  0  0  0  0
 47 75  1  0  0  0  0
 48 52  1  0  0  0  0
 48 77  1  0  0  0  0
 49 70  1  0  0  0  0
 50 69  1  0  0  0  0
 51 53  1  0  0  0  0
 51 61  1  0  0  0  0
 51 77  1  0  0  0  0
 54 61  1  0  0  0  0
 55 64  1  0  0  0  0
 56 65  1  0  0  0  0
 57 66  1  0  0  0  0
 58 66  1  0  0  0  0
 59 66  1  0  0  0  0
 60 78  1  0  0  0  0
 62 65  1  0  0  0  0
 62 85  1  0  0  0  0
 63 66  1  0  0  0  0
 63 76  1  0  0  0  0
 64 78  1  0  0  0  0
 65 77  1  0  0  0  0
 68 69  1  0  0  0  0
M  CHG  2  77   1  78   1
M  ISO  4  37 100  62 101  74 100  85 101
M  END
> <Batch ID>
0159

> <Smiles>
CCC1(C)c2ncc([100NH:0][100C:0](=O)N3CCCC(n4nc(-c5ccc(Oc6ccc(F)cc6F)cc5)c(C(N)=O)c4N)C3)cc2C(C)N1C(C)[101CH2:1][101O:1]c1ccc2c(c1)CN(C(=O)C(NC(=O)C(C)NC)C(C)(C)C)C(C(=O)NC1CCCc3ccccc31)C2

> <Shape>
0.312

> <Color>
0.108

> <Negative vol penalty>
0.000

$$$$

  -OEChem-04052322073D

 88 97  0     1  0  0  0  0  0999 V2000
  -17.0667  -29.7645   24.8086 C   0  0  0  0  0  0  0  0  0  0  0  0
  -18.3471  -29.5252   25.2972 C   0  0  0  0  0  0  0  0  0  0  0  0
  -26.0318  -13.5397   21.5471 C   0  0  0  0  0  0  0  0  0  0  0  0
  -25.0224  -13.1493   19.3870 C   0  0  0  0  0  0  0  0  0  0  0  0
  -16.7699  -29.4956   23.4731 C   0  0  0  0  0  0  0  0  0  0  0  0
  -19.3312  -29.0157   24.4508 C   0  0  0  0  0  0  0  0  0  0  0  0
  -26.3961  -29.2947   23.2993 C   0  0  0  0  0  0  0  0  0  0  0  0
  -25.0725  -12.7213   22.1433 C   0  0  0  0  0  0  0  0  0  0  0  0
  -24.0631  -12.3308   19.9833 C   0  0  0  0  0  0  0  0  0  0  0  0
  -27.4959  -28.4524   23.1427 C   0  0  0  0  0  0  0  0  0  0  0  0
  -21.8426  -12.9663   23.1088 C   0  0  0  0  0  0  0  0  0  0  0  0
  -21.2430  -13.4213   24.2831 C   0  0  0  0  0  0  0  0  0  0  0  0
  -26.8900  -28.1003   20.8345 C   0  0  0  0  0  0  0  0  0  0  0  0
  -31.6257  -28.8602   20.4736 C   0  0  0  0  0  0  0  0  0  0  0  0
  -31.6370  -27.3809   18.1084 C   0  0  0  0  0  0  0  0  0  0  0  0
  -22.0716  -11.4800   25.4585 C   0  0  0  0  0  0  0  0  0  0  0  0
  -26.0067  -13.7538   20.1690 C   0  0  0  0  0  0  0  0  0  0  0  0
  -28.2479  -14.2085   19.0385 C   0  0  0  0  0  0  0  0  0  0  0  0
  -17.7534  -28.9916   22.6075 C   0  0  0  0  0  0  0  0  0  0  0  0
  -25.5273  -29.5380   22.2258 C   0  0  0  0  0  0  0  0  0  0  0  0
  -19.0469  -28.7384   23.1028 C   0  0  0  0  0  0  0  0  0  0  0  0
  -25.7813  -28.9481   20.9793 C   0  0  0  0  0  0  0  0  0  0  0  0
  -31.8196  -29.5021   19.2505 C   0  0  0  0  0  0  0  0  0  0  0  0
  -31.4375  -27.4786   20.5141 C   0  0  0  0  0  0  0  0  0  0  0  0
  -31.8252  -28.7625   18.0679 C   0  0  0  0  0  0  0  0  0  0  0  0
  -24.0881  -12.1168   21.3614 C   0  0  0  0  0  0  0  0  0  0  0  0
  -27.7414  -27.8527   21.9110 C   0  0  0  0  0  0  0  0  0  0  0  0
  -22.5567  -11.7680   23.1093 C   0  0  0  0  0  0  0  0  0  0  0  0
  -31.4431  -26.7390   19.3315 C   0  0  0  0  0  0  0  0  0  0  0  0
  -21.3575  -12.6782   25.4580 C   0  0  0  0  0  0  0  0  0  0  0  0
  -22.6712  -11.0249   24.2842 C   0  0  0  0  0  0  0  0  0  0  0  0
  -26.9971  -14.5996   19.5526 C   0  0  0  0  0  0  0  0  0  0  0  0
  -28.8045  -15.3723   18.5672 C   0  0  0  0  0  0  0  0  0  0  0  0
  -28.8526  -12.9093   18.9913 C   0  0  0  0  0  0  0  0  0  0  0  0
  -22.4428  -29.0065   21.6715 C   0  0  0  0  0  0  0  0  0  0  0  0
  -23.0381  -30.6950   18.9665 C   0  0  0  0  0  0  0  0  0  0  0  0
  -25.3149  -31.7608   16.6585 C   0  0  0  0  0  0  0  0  0  0  0  0
  -30.0620  -20.5753   18.9680 C   0  0  0  0  0  0  0  0  0  0  0  0
  -17.3725  -28.6718   21.1837 C   0  0  0  0  0  0  0  0  0  0  0  0
  -24.3604  -30.4703   22.4037 C   0  0  0  0  0  0  0  0  0  0  0  0
  -24.8904  -29.1930   19.7898 C   0  0  0  0  0  0  0  0  0  0  0  0
  -18.5729  -28.4858   20.2592 C   0  0  0  0  0  0  0  0  0  0  0  0
  -26.7886  -19.9505   17.8650 C   0  0  0  0  0  0  0  0  0  0  0  0
  -19.6163  -27.5858   20.9135 C   0  0  0  0  0  0  0  0  0  0  0  0
  -26.6467  -18.4586   18.1658 C   0  0  0  0  0  0  0  0  0  0  0  0
  -30.6150  -23.9417   17.5156 C   0  0  0  0  0  0  0  0  0  0  0  0
  -29.1795  -24.1640   19.5892 C   0  0  0  0  0  0  0  0  0  0  0  0
  -27.5310  -20.6913   18.9785 C   0  0  0  0  0  0  0  0  0  0  0  0
  -31.1231  -22.6000   18.0413 C   0  0  0  0  0  0  0  0  0  0  0  0
  -29.7230  -22.8201   20.0688 C   0  0  0  0  0  0  0  0  0  0  0  0
  -28.7026  -18.6103   19.6212 C   0  0  0  0  0  0  0  0  0  0  0  0
  -20.1480  -28.2095   22.2096 C   0  0  1  0  0  0  0  0  0  0  0  0
  -23.2506  -30.2401   21.3826 C   0  0  1  0  0  0  0  0  0  0  0  0
  -28.0123  -17.8284   18.4927 C   0  0  1  0  0  0  0  0  0  0  0  0
  -30.1411  -24.8717   18.6330 C   0  0  0  0  0  0  0  0  0  0  0  0
  -32.0207  -30.9819   19.2315 C   0  0  0  0  0  0  0  0  0  0  0  0
  -32.0308  -29.4273   16.7465 C   0  0  0  0  0  0  0  0  0  0  0  0
  -32.4524  -26.9643   22.7585 C   0  0  0  0  0  0  0  0  0  0  0  0
  -25.4964  -33.0950   14.5409 C   0  0  0  0  0  0  0  0  0  0  0  0
  -21.8462  -28.3644   17.3989 C   0  0  0  0  0  0  0  0  0  0  0  0
  -22.9006  -29.3060   15.3325 C   0  0  0  0  0  0  0  0  0  0  0  0
  -21.1834  -30.6281   16.5678 C   0  0  0  0  0  0  0  0  0  0  0  0
  -27.1396  -33.7235   17.9144 C   0  0  0  0  0  0  0  0  0  0  0  0
  -29.9599  -27.2969   22.5632 C   0  0  0  0  0  0  0  0  0  1  0  0
  -31.2305  -26.8081   21.8321 C   0  0  1  0  0  0  0  0  0  0  0  0
  -23.4887  -30.3493   17.5678 C   0  0  1  0  0  0  0  0  0  0  0  0
  -25.5758  -33.1309   16.0591 C   0  0  2  0  0  0  0  0  0  0  0  0
  -22.3706  -29.6556   16.7395 C   0  0  0  0  0  0  0  0  0  0  0  0
  -26.7720  -15.9095   19.4204 N   0  0  0  0  0  0  0  0  0  0  0  0
  -27.8890  -16.3517   18.8181 N   0  0  0  0  0  0  0  0  0  0  0  0
  -23.7588  -30.1072   20.0157 N   0  0  0  0  0  0  0  0  0  0  0  0
  -28.8076  -20.0309   19.2817 N   0  0  0  0  0  0  0  0  0  0  0  0
  -30.1588  -21.9770   18.9474 N   0  0  0  0  0  0  0  0  0  0  0  0
  -29.9829  -15.6433   17.9668 N   0  0  0  0  0  0  0  0  0  0  0  0
  -28.1431  -11.8225   19.5201 N   0  0  0  0  0  0  0  0  0  0  0  0
  -21.1048  -29.2539   21.9125 N   0  0  0  0  0  0  0  0  0  0  0  0
  -23.9853  -31.5891   16.9808 N   0  0  0  0  0  0  0  0  0  0  0  0
  -26.9300  -33.6169   16.4476 N   0  3  0  0  0  0  0  0  0  0  0  0
  -29.9954  -12.7206   18.5096 O   0  0  0  0  0  0  0  0  0  0  0  0
  -22.9924  -27.9113   21.6741 O   0  0  0  0  0  0  0  0  0  0  0  0
  -22.0863  -31.4641   19.1225 O   0  0  0  0  0  0  0  0  0  0  0  0
  -26.2013  -30.9250   16.8209 O   0  0  0  0  0  0  0  0  0  0  0  0
  -31.0368  -19.8554   18.7177 O   0  0  0  0  0  0  0  0  0  0  0  0
  -23.1520  -11.3180   21.9428 O   0  0  0  0  0  0  0  0  0  0  0  0
  -31.2612  -25.3813   19.3535 O   0  0  0  0  0  0  0  0  0  0  0  0
  -28.8210  -27.0241   21.7546 O   0  0  0  0  0  0  0  0  0  1  0  0
  -20.7830  -13.1161   26.5859 F   0  0  0  0  0  0  0  0  0  0  0  0
  -23.3570   -9.8736   24.2911 F   0  0  0  0  0  0  0  0  0  0  0  0
  1  2  1  0  0  0  0
  1  5  2  0  0  0  0
  2  6  2  0  0  0  0
  3  8  2  0  0  0  0
  3 17  1  0  0  0  0
  4  9  1  0  0  0  0
  4 17  2  0  0  0  0
  5 19  1  0  0  0  0
  6 21  1  0  0  0  0
  7 10  2  0  0  0  0
  7 20  1  0  0  0  0
  8 26  1  0  0  0  0
  9 26  2  0  0  0  0
 10 27  1  0  0  0  0
 11 12  2  0  0  0  0
 11 28  1  0  0  0  0
 12 30  1  0  0  0  0
 13 22  1  0  0  0  0
 13 27  2  0  0  0  0
 14 23  2  0  0  0  0
 14 24  1  0  0  0  0
 15 25  2  0  0  0  0
 15 29  1  0  0  0  0
 16 30  2  0  0  0  0
 16 31  1  0  0  0  0
 17 32  1  0  0  0  0
 18 32  1  0  0  0  0
 18 33  2  0  0  0  0
 18 34  1  0  0  0  0
 19 21  2  0  0  0  0
 19 39  1  0  0  0  0
 20 22  2  0  0  0  0
 20 40  1  0  0  0  0
 21 52  1  0  0  0  0
 22 41  1  0  0  0  0
 23 25  1  0  0  0  0
 23 56  1  0  0  0  0
 24 29  2  0  0  0  0
 24 65  1  0  0  0  0
 25 57  1  0  0  0  0
 26 84  1  0  0  0  0
 27 86  1  0  0  0  0
 28 31  2  0  0  0  0
 28 84  1  0  0  0  0
 29 85  1  0  0  0  0
 30 87  1  0  0  0  0
 31 88  1  0  0  0  0
 32 69  2  0  0  0  0
 33 70  1  0  0  0  0
 33 74  1  0  0  0  0
 34 75  1  0  0  0  0
 34 79  2  0  0  0  0
 35 53  1  0  0  0  0
 35 76  1  0  0  0  0
 35 80  2  0  0  0  0
 36 66  1  0  0  0  0
 36 71  1  0  0  0  0
 36 81  2  0  0  0  0
 37 67  1  0  0  0  0
 37 77  1  0  0  0  0
 37 82  2  0  0  0  0
 38 72  1  0  0  0  0
 38 73  1  0  0  0  0
 38 83  2  0  0  0  0
 39 42  1  0  0  0  0
 40 53  1  0  0  0  0
 41 71  1  0  0  0  0
 42 44  1  0  0  0  0
 43 45  1  0  0  0  0
 43 48  1  0  0  0  0
 44 52  1  0  0  0  0
 45 54  1  0  0  0  0
 46 49  1  0  0  0  0
 46 55  1  0  0  0  0
 47 50  1  0  0  0  0
 47 55  1  0  0  0  0
 48 72  1  0  0  0  0
 49 73  1  0  0  0  0
 50 73  1  0  0  0  0
 51 54  1  0  0  0  0
 51 72  1  0  0  0  0
 52 76  1  0  0  0  0
 53 71  1  0  0  0  0
 54 70  1  0  0  0  0
 55 85  1  0  0  0  0
 58 65  1  0  0  0  0
 59 67  1  0  0  0  0
 60 68  1  0  0  0  0
 61 68  1  0  0  0  0
 62 68  1  0  0  0  0
 63 78  1  0  0  0  0
 64 65  1  0  0  0  0
 64 86  1  0  0  0  0
 66 68  1  0  0  0  0
 66 77  1  0  0  0  0
 67 78  1  0  0  0  0
 69 70  1  0  0  0  0
M  CHG  1  78   1
M  ISO  4  38 100  64 101  73 100  86 101
M  END
> <Batch ID>
0159

> <Smiles>
CNC(C)C(=O)NC(C(=O)N1Cc2cc([101O:1][101CH2:1]C(C)c3cc(C)c(C)cc3OC3CC[100N:0]([100C:0](=O)N4CCCC(n5nc(-c6ccc(Oc7ccc(F)cc7F)cc6)c(C(N)=O)c5N)C4)CC3)ccc2CC1C(=O)NC1CCCc2ccccc21)C(C)(C)C

> <Shape>
0.270

> <Color>
0.082

> <Negative vol penalty>
0.000

$$$$

  -OEChem-04052322073D

 87 96  0     1  0  0  0  0  0999 V2000
  -16.2292  -21.3445   32.9289 C   0  0  0  0  0  0  0  0  0  0  0  0
  -17.4402  -21.0755   32.2993 C   0  0  0  0  0  0  0  0  0  0  0  0
  -23.0785   -9.8292   20.1644 C   0  0  0  0  0  0  0  0  0  0  0  0
  -23.7308  -10.1258   22.4717 C   0  0  0  0  0  0  0  0  0  0  0  0
  -15.1279  -21.7492   32.1757 C   0  0  0  0  0  0  0  0  0  0  0  0
  -17.5503  -21.2099   30.9157 C   0  0  0  0  0  0  0  0  0  0  0  0
  -22.4630  -23.0896   27.7791 C   0  0  0  0  0  0  0  0  0  0  0  0
  -22.3098   -8.7223   20.5240 C   0  0  0  0  0  0  0  0  0  0  0  0
  -22.9620   -9.0189   22.8313 C   0  0  0  0  0  0  0  0  0  0  0  0
  -23.4633  -22.3964   27.0990 C   0  0  0  0  0  0  0  0  0  0  0  0
  -19.6998   -8.3247   23.3761 C   0  0  0  0  0  0  0  0  0  0  0  0
  -18.8888   -8.4400   24.5050 C   0  0  0  0  0  0  0  0  0  0  0  0
  -22.2556  -22.6937   25.0320 C   0  0  0  0  0  0  0  0  0  0  0  0
  -27.5945  -21.0056   24.5817 C   0  0  0  0  0  0  0  0  0  0  0  0
  -20.0708   -6.6055   25.5416 C   0  0  0  0  0  0  0  0  0  0  0  0
  -23.7890  -10.5310   21.1382 C   0  0  0  0  0  0  0  0  0  0  0  0
  -24.1668  -13.0177   20.7127 C   0  0  0  0  0  0  0  0  0  0  0  0
  -15.2273  -21.8980   30.7833 C   0  0  0  0  0  0  0  0  0  0  0  0
  -21.3442  -23.5815   27.0914 C   0  0  0  0  0  0  0  0  0  0  0  0
  -16.4490  -21.6157   30.1430 C   0  0  0  0  0  0  0  0  0  0  0  0
  -21.2438  -23.3951   25.7053 C   0  0  0  0  0  0  0  0  0  0  0  0
  -26.4083  -20.3537   24.9186 C   0  0  0  0  0  0  0  0  0  0  0  0
  -28.5149  -20.3862   23.7361 C   0  0  0  0  0  0  0  0  0  0  0  0
  -26.1424  -19.0823   24.4100 C   0  0  0  0  0  0  0  0  0  0  0  0
  -27.0628  -18.4629   23.5645 C   0  0  0  0  0  0  0  0  0  0  0  0
  -28.2490  -19.1148   23.2276 C   0  0  0  0  0  0  0  0  0  0  0  0
  -22.2515   -8.3171   21.8574 C   0  0  0  0  0  0  0  0  0  0  0  0
  -23.3583  -22.1958   25.7257 C   0  0  0  0  0  0  0  0  0  0  0  0
  -20.6964   -7.3498   23.3299 C   0  0  0  0  0  0  0  0  0  0  0  0
  -19.0743   -7.5804   25.5877 C   0  0  0  0  0  0  0  0  0  0  0  0
  -20.8819   -6.4902   24.4126 C   0  0  0  0  0  0  0  0  0  0  0  0
  -24.5837  -11.6742   20.7673 C   0  0  0  0  0  0  0  0  0  0  0  0
  -25.2837  -13.7077   20.3091 C   0  0  0  0  0  0  0  0  0  0  0  0
  -22.8846  -13.5908   21.0011 C   0  0  0  0  0  0  0  0  0  0  0  0
  -18.2134  -23.0501   27.2305 C   0  0  0  0  0  0  0  0  0  0  0  0
  -18.0994  -25.4834   25.0885 C   0  0  0  0  0  0  0  0  0  0  0  0
  -19.6986  -27.3074   22.6881 C   0  0  0  0  0  0  0  0  0  0  0  0
  -30.7647  -14.7090   20.6272 C   0  0  0  0  0  0  0  0  0  0  0  0
  -13.9966  -22.2923   30.0058 C   0  0  0  0  0  0  0  0  0  0  0  0
  -20.2870  -24.3504   27.8352 C   0  0  0  0  0  0  0  0  0  0  0  0
  -20.0728  -23.9208   24.9173 C   0  0  0  0  0  0  0  0  0  0  0  0
  -14.2993  -22.7722   28.5886 C   0  0  0  0  0  0  0  0  0  0  0  0
  -29.7106  -12.0449   18.5134 C   0  0  0  0  0  0  0  0  0  0  0  0
  -15.2760  -21.8236   27.9009 C   0  0  0  0  0  0  0  0  0  0  0  0
  -28.2511  -11.8180   18.9112 C   0  0  0  0  0  0  0  0  0  0  0  0
  -30.5734  -12.4124   19.7186 C   0  0  0  0  0  0  0  0  0  0  0  0
  -28.6182  -13.3270   20.9079 C   0  0  0  0  0  0  0  0  0  0  0  0
  -30.2473  -17.6427   22.8592 C   0  0  0  0  0  0  0  0  0  0  0  0
  -29.1527  -18.6392   20.9354 C   0  0  0  0  0  0  0  0  0  0  0  0
  -16.6148  -21.7740   28.6471 C   0  0  1  0  0  0  0  0  0  0  0  0
  -18.9402  -24.3604   27.1187 C   0  0  1  0  0  0  0  0  0  0  0  0
  -27.6979  -13.0087   19.7171 C   0  0  2  0  0  0  0  0  0  0  0  0
  -30.7991  -17.0001   21.5806 C   0  0  2  0  0  0  0  0  0  0  0  0
  -30.4824  -18.0252   20.4945 C   0  0  2  0  0  0  0  0  0  0  0  0
  -29.7767  -21.1095   23.3930 C   0  0  0  0  0  0  0  0  0  0  0  0
  -24.8692  -18.3859   24.7736 C   0  0  0  0  0  0  0  0  0  0  0  0
  -26.7739  -17.0983   23.0211 C   0  0  0  0  0  0  0  0  0  0  0  0
  -19.3356  -29.2071   21.0891 C   0  0  0  0  0  0  0  0  0  0  0  0
  -16.4840  -23.6410   23.2703 C   0  0  0  0  0  0  0  0  0  0  0  0
  -16.9674  -25.2031   21.3744 C   0  0  0  0  0  0  0  0  0  0  0  0
  -15.6704  -26.0046   23.3489 C   0  0  0  0  0  0  0  0  0  0  0  0
  -21.8329  -28.9267   23.9458 C   0  0  0  0  0  0  0  0  0  0  0  0
  -25.4352  -21.0418   25.8301 C   0  0  0  0  0  0  0  0  0  1  0  0
  -18.1527  -25.5861   23.5833 C   0  0  1  0  0  0  0  0  0  0  0  0
  -19.8184  -28.8056   22.4741 C   0  0  2  0  0  0  0  0  0  0  0  0
  -16.8399  -25.0970   22.9091 C   0  0  0  0  0  0  0  0  0  0  0  0
  -25.8654  -11.5178   20.4256 N   0  0  0  0  0  0  0  0  0  0  0  0
  -26.2635  -12.7720   20.1523 N   0  0  0  0  0  0  0  0  0  0  0  0
  -29.1605  -18.5037   22.3921 N   0  0  3  0  0  0  0  0  0  0  0  0
  -19.0619  -24.6607   25.6907 N   0  0  0  0  0  0  0  0  0  0  0  0
  -29.9947  -13.5495   20.4385 N   0  0  0  0  0  0  0  0  0  0  0  0
  -25.5135  -15.0175   20.0765 N   0  0  0  0  0  0  0  0  0  0  0  0
  -21.8470  -12.7386   21.4031 N   0  0  0  0  0  0  0  0  0  0  0  0
  -17.4048  -22.9487   28.3465 N   0  0  0  0  0  0  0  0  0  0  0  0
  -18.5001  -26.9703   23.2807 N   0  0  0  0  0  0  0  0  0  0  0  0
  -30.1384  -15.7418   21.3140 N   0  0  0  0  0  0  0  0  0  0  0  0
  -31.5283  -19.0886   20.5025 N   0  3  0  0  0  0  0  0  0  0  0  0
  -21.2369  -29.2380   22.6210 N   0  3  0  0  0  0  0  0  0  0  0  0
  -22.6609  -14.8200   20.8892 O   0  0  0  0  0  0  0  0  0  0  0  0
  -18.3733  -22.1950   26.3675 O   0  0  0  0  0  0  0  0  0  0  0  0
  -17.2402  -26.1157   25.7078 O   0  0  0  0  0  0  0  0  0  0  0  0
  -20.5786  -26.5151   22.3588 O   0  0  0  0  0  0  0  0  0  0  0  0
  -31.9226  -14.8179   20.2096 O   0  0  0  0  0  0  0  0  0  0  0  0
  -21.5013   -7.2371   22.2087 O   0  0  0  0  0  0  0  0  0  0  0  0
  -24.3330  -21.5189   25.0595 O   0  0  0  0  0  0  0  0  0  1  0  0
  -18.2963   -7.6922   26.6724 F   0  0  0  0  0  0  0  0  0  0  0  0
  -21.8384   -5.5524   24.3745 F   0  0  0  0  0  0  0  0  0  0  0  0
  1  2  1  0  0  0  0
  1  5  2  0  0  0  0
  2  6  2  0  0  0  0
  3  8  2  0  0  0  0
  3 16  1  0  0  0  0
  4  9  1  0  0  0  0
  4 16  2  0  0  0  0
  5 18  1  0  0  0  0
  6 20  1  0  0  0  0
  7 10  2  0  0  0  0
  7 19  1  0  0  0  0
  8 27  1  0  0  0  0
  9 27  2  0  0  0  0
 10 28  1  0  0  0  0
 11 12  2  0  0  0  0
 11 29  1  0  0  0  0
 12 30  1  0  0  0  0
 13 21  1  0  0  0  0
 13 28  2  0  0  0  0
 14 22  1  0  0  0  0
 14 23  2  0  0  0  0
 15 30  2  0  0  0  0
 15 31  1  0  0  0  0
 16 32  1  0  0  0  0
 17 32  1  0  0  0  0
 17 33  2  0  0  0  0
 17 34  1  0  0  0  0
 18 20  2  0  0  0  0
 18 39  1  0  0  0  0
 19 21  2  0  0  0  0
 19 40  1  0  0  0  0
 20 50  1  0  0  0  0
 21 41  1  0  0  0  0
 22 24  2  0  0  0  0
 22 63  1  0  0  0  0
 23 26  1  0  0  0  0
 23 55  1  0  0  0  0
 24 25  1  0  0  0  0
 24 56  1  0  0  0  0
 25 26  2  0  0  0  0
 25 57  1  0  0  0  0
 26 69  1  0  0  0  0
 27 84  1  0  0  0  0
 28 85  1  0  0  0  0
 29 31  2  0  0  0  0
 29 84  1  0  0  0  0
 30 86  1  0  0  0  0
 31 87  1  0  0  0  0
 32 67  2  0  0  0  0
 33 68  1  0  0  0  0
 33 72  1  0  0  0  0
 34 73  1  0  0  0  0
 34 79  2  0  0  0  0
 35 51  1  0  0  0  0
 35 74  1  0  0  0  0
 35 80  2  0  0  0  0
 36 64  1  0  0  0  0
 36 70  1  0  0  0  0
 36 81  2  0  0  0  0
 37 65  1  0  0  0  0
 37 75  1  0  0  0  0
 37 82  2  0  0  0  0
 38 71  1  0  0  0  0
 38 76  1  0  0  0  0
 38 83  2  0  0  0  0
 39 42  1  0  0  0  0
 40 51  1  0  0  0  0
 41 70  1  0  0  0  0
 42 44  1  0  0  0  0
 43 45  1  0  0  0  0
 43 46  1  0  0  0  0
 44 50  1  0  0  0  0
 45 52  1  0  0  0  0
 46 71  1  0  0  0  0
 47 52  1  0  0  0  0
 47 71  1  0  0  0  0
 48 53  1  0  0  0  0
 48 69  1  0  0  0  0
 49 54  1  0  0  0  0
 49 69  1  0  0  0  0
 50 74  1  0  0  0  0
 51 70  1  0  0  0  0
 52 68  1  0  0  0  0
 53 54  1  0  0  0  0
 53 76  1  0  0  0  0
 54 77  1  0  0  0  0
 58 65  1  0  0  0  0
 59 66  1  0  0  0  0
 60 66  1  0  0  0  0
 61 66  1  0  0  0  0
 62 78  1  0  0  0  0
 63 85  1  0  0  0  0
 64 66  1  0  0  0  0
 64 75  1  0  0  0  0
 65 78  1  0  0  0  0
 67 68  1  0  0  0  0
M  CHG  2  77   1  78   1
M  ISO  4  38 100  63 101  76 100  85 101
M  END
> <Batch ID>
0159

> <Smiles>
CNC(C)C(=O)NC(C(=O)N1Cc2cc([101O:1][101CH2:1]c3cc(C)c(N4CC(N)C([100NH:0][100C:0](=O)N5CCCC(n6nc(-c7ccc(Oc8ccc(F)cc8F)cc7)c(C(N)=O)c6N)C5)C4)c(C)c3C)ccc2CC1C(=O)NC1CCCc2ccccc21)C(C)(C)C

> <Shape>
0.220

> <Color>
0.194

> <Negative vol penalty>
0.000

$$$$

  -OEChem-04052322073D

 87 96  0     1  0  0  0  0  0999 V2000
  -15.4321  -28.1794   17.5604 C   0  0  0  0  0  0  0  0  0  0  0  0
  -15.9718  -26.9149   17.7732 C   0  0  0  0  0  0  0  0  0  0  0  0
  -23.0728   -9.8684   19.9478 C   0  0  0  0  0  0  0  0  0  0  0  0
  -23.8334   -9.8831   22.2409 C   0  0  0  0  0  0  0  0  0  0  0  0
  -16.2508  -29.3059   17.6284 C   0  0  0  0  0  0  0  0  0  0  0  0
  -17.3308  -26.7761   18.0531 C   0  0  0  0  0  0  0  0  0  0  0  0
  -21.8716  -22.6871   21.7917 C   0  0  0  0  0  0  0  0  0  0  0  0
  -22.3292   -8.7159   20.2019 C   0  0  0  0  0  0  0  0  0  0  0  0
  -23.0898   -8.7307   22.4950 C   0  0  0  0  0  0  0  0  0  0  0  0
  -23.0400  -21.9450   21.6247 C   0  0  0  0  0  0  0  0  0  0  0  0
  -19.3816   -7.9236   21.6568 C   0  0  0  0  0  0  0  0  0  0  0  0
  -18.0746   -7.8755   21.1721 C   0  0  0  0  0  0  0  0  0  0  0  0
  -27.1499  -19.1205   22.2510 C   0  0  0  0  0  0  0  0  0  0  0  0
  -28.6171  -19.3379   19.8996 C   0  0  0  0  0  0  0  0  0  0  0  0
  -24.3424  -23.9683   21.7955 C   0  0  0  0  0  0  0  0  0  0  0  0
  -18.6342   -5.9281   19.8561 C   0  0  0  0  0  0  0  0  0  0  0  0
  -23.8249  -10.4520   20.9674 C   0  0  0  0  0  0  0  0  0  0  0  0
  -24.1662  -12.9768   20.8388 C   0  0  0  0  0  0  0  0  0  0  0  0
  -17.6186  -29.1816   17.9188 C   0  0  0  0  0  0  0  0  0  0  0  0
  -21.9292  -24.0791   21.9513 C   0  0  0  0  0  0  0  0  0  0  0  0
  -18.1688  -27.9019   18.1237 C   0  0  0  0  0  0  0  0  0  0  0  0
  -28.4173  -18.5194   22.1740 C   0  0  0  0  0  0  0  0  0  0  0  0
  -29.1594  -18.6244   20.9829 C   0  0  0  0  0  0  0  0  0  0  0  0
  -23.1734  -24.7255   21.9669 C   0  0  0  0  0  0  0  0  0  0  0  0
  -27.3608  -19.9355   19.9927 C   0  0  0  0  0  0  0  0  0  0  0  0
  -26.6273  -19.8275   21.1691 C   0  0  0  0  0  0  0  0  0  0  0  0
  -22.3377   -8.1471   21.4754 C   0  0  0  0  0  0  0  0  0  0  0  0
  -24.2754  -22.5859   21.6237 C   0  0  0  0  0  0  0  0  0  0  0  0
  -20.3150   -6.9740   21.2411 C   0  0  0  0  0  0  0  0  0  0  0  0
  -17.7008   -6.8778   20.2718 C   0  0  0  0  0  0  0  0  0  0  0  0
  -19.9413   -5.9763   20.3408 C   0  0  0  0  0  0  0  0  0  0  0  0
  -24.5937  -11.6421   20.7054 C   0  0  0  0  0  0  0  0  0  0  0  0
  -25.2581  -13.7253   20.4727 C   0  0  0  0  0  0  0  0  0  0  0  0
  -22.8958  -13.4937   21.2565 C   0  0  0  0  0  0  0  0  0  0  0  0
  -20.8322  -26.5720   20.3125 C   0  0  0  0  0  0  0  0  0  0  0  0
  -21.9626  -28.2439   22.8520 C   0  0  0  0  0  0  0  0  0  0  0  0
  -24.1215  -28.3973   25.4907 C   0  0  0  0  0  0  0  0  0  0  0  0
  -30.7417  -14.7460   20.6559 C   0  0  0  0  0  0  0  0  0  0  0  0
  -18.4731  -30.4243   17.9351 C   0  0  0  0  0  0  0  0  0  0  0  0
  -20.6615  -24.8620   22.1571 C   0  0  0  0  0  0  0  0  0  0  0  0
  -28.9058  -17.7234   23.3591 C   0  0  0  0  0  0  0  0  0  0  0  0
  -23.2908  -26.2153   22.1549 C   0  0  0  0  0  0  0  0  0  0  0  0
  -19.8289  -30.2225   18.6069 C   0  0  0  0  0  0  0  0  0  0  0  0
  -29.6038  -12.3533   18.2775 C   0  0  0  0  0  0  0  0  0  0  0  0
  -20.4859  -28.9393   18.1084 C   0  0  0  0  0  0  0  0  0  0  0  0
  -28.1665  -12.0608   18.7118 C   0  0  0  0  0  0  0  0  0  0  0  0
  -30.5213  -12.5783   19.4773 C   0  0  0  0  0  0  0  0  0  0  0  0
  -28.6198  -13.3137   20.8621 C   0  0  0  0  0  0  0  0  0  0  0  0
  -30.5410  -18.0109   20.8444 C   0  0  2  0  0  0  0  0  0  0  0  0
  -19.6334  -27.7126   18.4543 C   0  0  1  0  0  0  0  0  0  0  0  0
  -20.8050  -26.3373   21.7963 C   0  0  1  0  0  0  0  0  0  0  0  0
  -30.3963  -17.3562   23.2995 C   0  0  2  0  0  0  0  0  0  0  0  0
  -27.6453  -13.1350   19.6853 C   0  0  2  0  0  0  0  0  0  0  0  0
  -30.8075  -16.9007   21.8856 C   0  0  1  0  0  0  0  0  0  0  0  0
  -26.8245  -20.6846   18.8173 C   0  0  0  0  0  0  0  0  0  0  0  0
  -31.6111  -19.1105   20.9236 C   0  0  0  0  0  0  0  0  0  0  0  0
  -24.8401  -29.9060   27.3628 C   0  0  0  0  0  0  0  0  0  0  0  0
  -32.2137  -15.9629   24.3517 C   0  0  0  0  0  0  0  0  0  0  0  0
  -23.5324  -29.9517   20.8698 C   0  0  0  0  0  0  0  0  0  0  0  0
  -24.9196  -30.7749   22.7845 C   0  0  0  0  0  0  0  0  0  0  0  0
  -22.4678  -31.2321   22.7357 C   0  0  0  0  0  0  0  0  0  0  0  0
  -23.3008  -26.4313   27.5451 C   0  0  0  0  0  0  0  0  0  0  0  0
  -25.2778  -20.4545   21.2950 C   0  0  0  0  0  0  0  0  0  1  0  0
  -23.2819  -28.8856   23.2079 C   0  0  1  0  0  0  0  0  0  0  0  0
  -23.9094  -28.7782   26.9448 C   0  0  2  0  0  0  0  0  0  0  0  0
  -30.7372  -16.3129   24.3665 C   0  0  1  0  0  0  0  0  0  0  0  0
  -23.5485  -30.1832   22.3940 C   0  0  0  0  0  0  0  0  0  0  0  0
  -25.8584  -11.5452   20.2870 N   0  0  0  0  0  0  0  0  0  0  0  0
  -26.2350  -12.8284   20.1543 N   0  0  0  0  0  0  0  0  0  0  0  0
  -22.0223  -26.9377   22.3459 N   0  0  0  0  0  0  0  0  0  0  0  0
  -29.9708  -13.6097   20.3600 N   0  0  0  0  0  0  0  0  0  0  0  0
  -25.4682  -15.0565   20.3952 N   0  0  0  0  0  0  0  0  0  0  0  0
  -21.8841  -12.5855   21.5971 N   0  0  0  0  0  0  0  0  0  0  0  0
  -19.7966  -27.3605   19.8485 N   0  0  0  0  0  0  0  0  0  0  0  0
  -23.2644  -29.0800   24.6537 N   0  0  0  0  0  0  0  0  0  0  0  0
  -30.1426  -15.6775   21.4951 N   0  0  0  0  0  0  0  0  0  0  0  0
  -24.1640  -27.6064   27.8297 N   0  3  0  0  0  0  0  0  0  0  0  0
  -22.6593  -14.7245   21.3098 O   0  0  0  0  0  0  0  0  0  0  0  0
  -21.7274  -26.0758   19.6386 O   0  0  0  0  0  0  0  0  0  0  0  0
  -20.9171  -28.8756   23.0237 O   0  0  0  0  0  0  0  0  0  0  0  0
  -24.9656  -27.5789   25.1328 O   0  0  0  0  0  0  0  0  0  0  0  0
  -31.8775  -14.9202   20.2013 O   0  0  0  0  0  0  0  0  0  0  0  0
  -30.3822  -16.8282   25.6425 O   0  0  0  0  0  0  0  0  0  0  0  0
  -21.6120   -7.0227   21.7237 O   0  0  0  0  0  0  0  0  0  0  0  0
  -25.4255  -21.8589   21.4591 O   0  0  0  0  0  0  0  0  0  1  0  0
  -16.4452   -6.8308   19.8076 F   0  0  0  0  0  0  0  0  0  0  0  0
  -20.8333   -5.0606   19.9387 F   0  0  0  0  0  0  0  0  0  0  0  0
  1  2  1  0  0  0  0
  1  5  2  0  0  0  0
  2  6  2  0  0  0  0
  3  8  2  0  0  0  0
  3 17  1  0  0  0  0
  4  9  1  0  0  0  0
  4 17  2  0  0  0  0
  5 19  1  0  0  0  0
  6 21  1  0  0  0  0
  7 10  2  0  0  0  0
  7 20  1  0  0  0  0
  8 27  1  0  0  0  0
  9 27  2  0  0  0  0
 10 28  1  0  0  0  0
 11 12  2  0  0  0  0
 11 29  1  0  0  0  0
 12 30  1  0  0  0  0
 13 22  2  0  0  0  0
 13 26  1  0  0  0  0
 14 23  2  0  0  0  0
 14 25  1  0  0  0  0
 15 24  1  0  0  0  0
 15 28  2  0  0  0  0
 16 30  2  0  0  0  0
 16 31  1  0  0  0  0
 17 32  1  0  0  0  0
 18 32  1  0  0  0  0
 18 33  2  0  0  0  0
 18 34  1  0  0  0  0
 19 21  2  0  0  0  0
 19 39  1  0  0  0  0
 20 24  2  0  0  0  0
 20 40  1  0  0  0  0
 21 50  1  0  0  0  0
 22 23  1  0  0  0  0
 22 41  1  0  0  0  0
 23 49  1  0  0  0  0
 24 42  1  0  0  0  0
 25 26  2  0  0  0  0
 25 55  1  0  0  0  0
 26 63  1  0  0  0  0
 27 84  1  0  0  0  0
 28 85  1  0  0  0  0
 29 31  2  0  0  0  0
 29 84  1  0  0  0  0
 30 86  1  0  0  0  0
 31 87  1  0  0  0  0
 32 68  2  0  0  0  0
 33 69  1  0  0  0  0
 33 72  1  0  0  0  0
 34 73  1  0  0  0  0
 34 78  2  0  0  0  0
 35 51  1  0  0  0  0
 35 74  1  0  0  0  0
 35 79  2  0  0  0  0
 36 64  1  0  0  0  0
 36 70  1  0  0  0  0
 36 80  2  0  0  0  0
 37 65  1  0  0  0  0
 37 75  1  0  0  0  0
 37 81  2  0  0  0  0
 38 71  1  0  0  0  0
 38 76  1  0  0  0  0
 38 82  2  0  0  0  0
 39 43  1  0  0  0  0
 40 51  1  0  0  0  0
 41 52  1  0  0  0  0
 42 70  1  0  0  0  0
 43 45  1  0  0  0  0
 44 46  1  0  0  0  0
 44 47  1  0  0  0  0
 45 50  1  0  0  0  0
 46 53  1  0  0  0  0
 47 71  1  0  0  0  0
 48 53  1  0  0  0  0
 48 71  1  0  0  0  0
 49 54  1  0  0  0  0
 49 56  1  0  0  0  0
 50 74  1  0  0  0  0
 51 70  1  0  0  0  0
 52 54  1  0  0  0  0
 52 66  1  0  0  0  0
 53 69  1  0  0  0  0
 54 76  1  0  0  0  0
 57 65  1  0  0  0  0
 58 66  1  0  0  0  0
 59 67  1  0  0  0  0
 60 67  1  0  0  0  0
 61 67  1  0  0  0  0
 62 77  1  0  0  0  0
 63 85  1  0  0  0  0
 64 67  1  0  0  0  0
 64 75  1  0  0  0  0
 65 77  1  0  0  0  0
 66 83  1  0  0  0  0
 68 69  1  0  0  0  0
M  CHG  1  77   1
M  ISO  4  38 100  63 101  76 100  85 101
M  END
> <Batch ID>
0159

> <Smiles>
CNC(C)C(=O)NC(C(=O)N1Cc2cc([101O:1][101CH2:1]c3cc4c(cc3C)C(C)C([100NH:0][100C:0](=O)N3CCCC(n5nc(-c6ccc(Oc7ccc(F)cc7F)cc6)c(C(N)=O)c5N)C3)C(C(C)O)C4)ccc2CC1C(=O)NC1CCCc2ccccc21)C(C)(C)C

> <Shape>
0.250

> <Color>
0.187

> <Negative vol penalty>
0.000

$$$$

  -OEChem-04052322073D

 85 94  0     1  0  0  0  0  0999 V2000
  -18.1331  -10.6479   19.7375 C   0  0  0  0  0  0  0  0  0  0  0  0
  -18.4408  -11.9605   19.3941 C   0  0  0  0  0  0  0  0  0  0  0  0
  -22.3759  -30.2892   21.9245 C   0  0  0  0  0  0  0  0  0  0  0  0
  -23.4253  -28.4250   23.0472 C   0  0  0  0  0  0  0  0  0  0  0  0
  -18.8011  -10.0301   20.7939 C   0  0  0  0  0  0  0  0  0  0  0  0
  -19.4160  -12.6564   20.1077 C   0  0  0  0  0  0  0  0  0  0  0  0
  -24.4728  -17.6542   19.2324 C   0  0  0  0  0  0  0  0  0  0  0  0
  -21.3020  -30.2191   22.8118 C   0  0  0  0  0  0  0  0  0  0  0  0
  -22.3514  -28.3549   23.9346 C   0  0  0  0  0  0  0  0  0  0  0  0
  -24.8953  -18.8659   19.7773 C   0  0  0  0  0  0  0  0  0  0  0  0
  -18.5308  -28.3282   23.2233 C   0  0  0  0  0  0  0  0  0  0  0  0
  -17.2445  -28.4148   22.6910 C   0  0  0  0  0  0  0  0  0  0  0  0
  -26.0400  -17.6707   21.5323 C   0  0  0  0  0  0  0  0  0  0  0  0
  -16.8255  -30.3857   24.0239 C   0  0  0  0  0  0  0  0  0  0  0  0
  -27.3470  -22.5493   19.8497 C   0  0  0  0  0  0  0  0  0  0  0  0
  -23.4376  -29.3921   22.0421 C   0  0  0  0  0  0  0  0  0  0  0  0
  -25.7263  -30.2175   21.2753 C   0  0  0  0  0  0  0  0  0  0  0  0
  -19.7917  -10.7155   21.5146 C   0  0  0  0  0  0  0  0  0  0  0  0
  -24.8223  -16.4399   19.8405 C   0  0  0  0  0  0  0  0  0  0  0  0
  -20.0969  -12.0476   21.1756 C   0  0  0  0  0  0  0  0  0  0  0  0
  -25.6229  -16.4448   20.9917 C   0  0  0  0  0  0  0  0  0  0  0  0
  -28.2418  -21.8896   20.6783 C   0  0  0  0  0  0  0  0  0  0  0  0
  -29.4652  -21.7007   19.9623 C   0  0  0  0  0  0  0  0  0  0  0  0
  -21.2898  -29.2520   23.8169 C   0  0  0  0  0  0  0  0  0  0  0  0
  -25.6766  -18.8744   20.9290 C   0  0  0  0  0  0  0  0  0  0  0  0
  -18.9645  -29.2703   24.1561 C   0  0  0  0  0  0  0  0  0  0  0  0
  -16.3918  -29.4435   23.0912 C   0  0  0  0  0  0  0  0  0  0  0  0
  -18.1118  -30.2991   24.5563 C   0  0  0  0  0  0  0  0  0  0  0  0
  -24.5469  -29.4636   21.1254 C   0  0  0  0  0  0  0  0  0  0  0  0
  -29.2675  -22.2536   18.7254 C   0  0  0  0  0  0  0  0  0  0  0  0
  -26.4545  -29.9445   20.1432 C   0  0  0  0  0  0  0  0  0  0  0  0
  -26.1277  -31.0868   22.3425 C   0  0  0  0  0  0  0  0  0  0  0  0
  -23.2031  -14.0486   21.1686 C   0  0  0  0  0  0  0  0  0  0  0  0
  -26.1347  -12.6697   21.3307 C   0  0  0  0  0  0  0  0  0  0  0  0
  -29.5227  -13.0686   21.4282 C   0  0  0  0  0  0  0  0  0  0  0  0
  -26.5220  -25.3053   16.3585 C   0  0  0  0  0  0  0  0  0  0  0  0
  -20.4533  -10.0218   22.6790 C   0  0  0  0  0  0  0  0  0  0  0  0
  -24.3809  -15.1403   19.2252 C   0  0  0  0  0  0  0  0  0  0  0  0
  -26.0423  -15.1678   21.6714 C   0  0  0  0  0  0  0  0  0  0  0  0
  -29.9643  -22.4739   17.4420 C   0  0  0  0  0  0  0  0  0  0  0  0
  -21.7377  -10.7032   23.1441 C   0  0  0  0  0  0  0  0  0  0  0  0
  -29.0625  -23.5438   16.7729 C   0  0  0  0  0  0  0  0  0  0  0  0
  -25.9165  -28.7194   15.5497 C   0  0  0  0  0  0  0  0  0  0  0  0
  -21.5292  -12.2094   23.2656 C   0  0  0  0  0  0  0  0  0  0  0  0
  -25.6032  -29.3653   16.9005 C   0  0  0  0  0  0  0  0  0  0  0  0
  -25.3600  -27.3001   15.4602 C   0  0  0  0  0  0  0  0  0  0  0  0
  -25.4536  -27.0508   17.9103 C   0  0  0  0  0  0  0  0  0  0  0  0
  -21.1661  -12.8272   21.9098 C   0  0  1  0  0  0  0  0  0  0  0  0
  -24.3659  -13.9832   20.2192 C   0  0  1  0  0  0  0  0  0  0  0  0
  -26.0430  -28.4628   18.0690 C   0  0  2  0  0  0  0  0  0  0  0  0
  -27.6635  -23.3678   17.4084 C   0  0  1  0  0  0  0  0  0  0  0  0
  -31.9103  -21.9910   20.5015 C   0  0  0  0  0  0  0  0  0  0  0  0
  -31.0637  -19.7787   19.6389 C   0  0  0  0  0  0  0  0  0  0  0  0
  -31.6563  -11.7587   21.5993 C   0  0  0  0  0  0  0  0  0  0  0  0
  -25.6327  -12.2458   24.3103 C   0  0  0  0  0  0  0  0  0  0  0  0
  -28.0857  -11.8326   24.5938 C   0  0  0  0  0  0  0  0  0  0  0  0
  -26.7259  -10.3177   23.1519 C   0  0  0  0  0  0  0  0  0  0  0  0
  -30.4710  -14.0487   18.8016 C   0  0  0  0  0  0  0  0  0  0  0  0
  -27.3328  -20.0523   22.1641 C   0  0  0  0  0  0  0  0  0  1  0  0
  -30.6904  -21.0412   20.4510 C   0  0  0  0  0  0  0  0  0  0  0  0
  -27.9605  -21.4463   22.0952 C   0  0  2  0  0  0  0  0  0  0  0  0
  -27.2543  -12.6541   22.3432 C   0  0  1  0  0  0  0  0  0  0  0  0
  -30.6398  -12.3870   20.6588 C   0  0  2  0  0  0  0  0  0  0  0  0
  -26.9153  -11.7868   23.5884 C   0  0  0  0  0  0  0  0  0  0  0  0
  -24.5231  -28.7643   19.9877 N   0  0  0  0  0  0  0  0  0  0  0  0
  -28.0006  -22.7586   18.6890 N   0  0  0  0  0  0  0  0  0  0  0  0
  -25.6964  -29.0777   19.4124 N   0  0  0  0  0  0  0  0  0  0  0  0
  -25.5804  -13.9231   21.0351 N   0  0  0  0  0  0  0  0  0  0  0  0
  -25.8157  -26.4958   16.5966 N   0  0  0  0  0  0  0  0  0  0  0  0
  -27.6629  -30.3638   19.7115 N   0  0  0  0  0  0  0  0  0  0  0  0
  -25.2598  -31.2543   23.4302 N   0  0  0  0  0  0  0  0  0  0  0  0
  -22.3473  -12.9669   21.0855 N   0  0  0  0  0  0  0  0  0  0  0  0
  -28.4492  -12.2257   21.6240 N   0  0  0  0  0  0  0  0  0  0  0  0
  -26.9229  -24.6069   17.4909 N   0  0  0  0  0  0  0  0  0  0  0  0
  -27.0606  -22.4001   22.8200 N   0  3  0  0  0  0  0  0  0  0  0  0
  -31.3472  -13.3713   19.7919 N   0  3  0  0  0  0  0  0  0  0  0  0
  -27.2164  -31.7097   22.3242 O   0  0  0  0  0  0  0  0  0  0  0  0
  -23.0914  -15.0087   21.9219 O   0  0  0  0  0  0  0  0  0  0  0  0
  -25.7705  -11.6097   20.8156 O   0  0  0  0  0  0  0  0  0  0  0  0
  -29.5967  -14.2312   21.8199 O   0  0  0  0  0  0  0  0  0  0  0  0
  -26.7812  -24.8979   15.2210 O   0  0  0  0  0  0  0  0  0  0  0  0
  -20.2421  -29.1835   24.6831 O   0  0  0  0  0  0  0  0  0  0  0  0
  -26.0898  -20.0558   21.4634 O   0  0  0  0  0  0  0  0  0  1  0  0
  -15.1571  -29.5275   22.5787 F   0  0  0  0  0  0  0  0  0  0  0  0
  -18.5232  -31.2079   25.4512 F   0  0  0  0  0  0  0  0  0  0  0  0
  1  2  1  0  0  0  0
  1  5  2  0  0  0  0
  2  6  2  0  0  0  0
  3  8  2  0  0  0  0
  3 16  1  0  0  0  0
  4  9  1  0  0  0  0
  4 16  2  0  0  0  0
  5 18  1  0  0  0  0
  6 20  1  0  0  0  0
  7 10  2  0  0  0  0
  7 19  1  0  0  0  0
  8 24  1  0  0  0  0
  9 24  2  0  0  0  0
 10 25  1  0  0  0  0
 11 12  2  0  0  0  0
 11 26  1  0  0  0  0
 12 27  1  0  0  0  0
 13 21  1  0  0  0  0
 13 25  2  0  0  0  0
 14 27  2  0  0  0  0
 14 28  1  0  0  0  0
 15 22  2  0  0  0  0
 15 66  1  0  0  0  0
 16 29  1  0  0  0  0
 17 29  1  0  0  0  0
 17 31  2  0  0  0  0
 17 32  1  0  0  0  0
 18 20  2  0  0  0  0
 18 37  1  0  0  0  0
 19 21  2  0  0  0  0
 19 38  1  0  0  0  0
 20 48  1  0  0  0  0
 21 39  1  0  0  0  0
 22 23  1  0  0  0  0
 22 61  1  0  0  0  0
 23 30  2  0  0  0  0
 23 60  1  0  0  0  0
 24 82  1  0  0  0  0
 25 83  1  0  0  0  0
 26 28  2  0  0  0  0
 26 82  1  0  0  0  0
 27 84  1  0  0  0  0
 28 85  1  0  0  0  0
 29 65  2  0  0  0  0
 30 40  1  0  0  0  0
 30 66  1  0  0  0  0
 31 67  1  0  0  0  0
 31 70  1  0  0  0  0
 32 71  1  0  0  0  0
 32 77  2  0  0  0  0
 33 49  1  0  0  0  0
 33 72  1  0  0  0  0
 33 78  2  0  0  0  0
 34 62  1  0  0  0  0
 34 68  1  0  0  0  0
 34 79  2  0  0  0  0
 35 63  1  0  0  0  0
 35 73  1  0  0  0  0
 35 80  2  0  0  0  0
 36 69  1  0  0  0  0
 36 74  1  0  0  0  0
 36 81  2  0  0  0  0
 37 41  1  0  0  0  0
 38 49  1  0  0  0  0
 39 68  1  0  0  0  0
 40 42  1  0  0  0  0
 41 44  1  0  0  0  0
 42 51  1  0  0  0  0
 43 45  1  0  0  0  0
 43 46  1  0  0  0  0
 44 48  1  0  0  0  0
 45 50  1  0  0  0  0
 46 69  1  0  0  0  0
 47 50  1  0  0  0  0
 47 69  1  0  0  0  0
 48 72  1  0  0  0  0
 49 68  1  0  0  0  0
 50 67  1  0  0  0  0
 51 66  1  0  0  0  0
 51 74  1  0  0  0  0
 52 60  1  0  0  0  0
 53 60  1  0  0  0  0
 54 63  1  0  0  0  0
 55 64  1  0  0  0  0
 56 64  1  0  0  0  0
 57 64  1  0  0  0  0
 58 76  1  0  0  0  0
 59 61  1  0  0  0  0
 59 83  1  0  0  0  0
 61 75  1  0  0  0  0
 62 64  1  0  0  0  0
 62 73  1  0  0  0  0
 63 76  1  0  0  0  0
 65 67  1  0  0  0  0
M  CHG  2  75   1  76   1
M  ISO  4  36 100  59 101  74 100  83 101
M  END
> <Batch ID>
0159

> <Smiles>
CNC(C)C(=O)NC(C(=O)N1Cc2cc([101O:1][101CH2:1]C(N)c3cn4c(c3C(C)C)CCC4[100NH:0][100C:0](=O)N3CCCC(n4nc(-c5ccc(Oc6ccc(F)cc6F)cc5)c(C(N)=O)c4N)C3)ccc2CC1C(=O)NC1CCCc2ccccc21)C(C)(C)C

> <Shape>
0.249

> <Color>
0.051

> <Negative vol penalty>
0.000

$$$$

  -OEChem-04052322073D

 89 98  0     1  0  0  0  0  0999 V2000
  -29.7233  -11.8365   19.8779 C   0  0  0  0  0  0  0  0  0  0  0  0
  -29.2867  -12.6282   20.9341 C   0  0  0  0  0  0  0  0  0  0  0  0
  -28.1917  -21.1711   20.0621 C   0  0  0  0  0  0  0  0  0  0  0  0
  -30.4469  -21.5325   20.8498 C   0  0  0  0  0  0  0  0  0  0  0  0
  -29.2321  -12.0616   18.5937 C   0  0  0  0  0  0  0  0  0  0  0  0
  -28.3498  -13.6373   20.7087 C   0  0  0  0  0  0  0  0  0  0  0  0
  -24.9364  -19.2002   23.6771 C   0  0  0  0  0  0  0  0  0  0  0  0
  -28.0693  -20.0747   20.9156 C   0  0  0  0  0  0  0  0  0  0  0  0
  -30.3245  -20.4361   21.7034 C   0  0  0  0  0  0  0  0  0  0  0  0
  -24.6956  -20.5700   23.5793 C   0  0  0  0  0  0  0  0  0  0  0  0
  -30.7337  -17.5156   23.8277 C   0  0  0  0  0  0  0  0  0  0  0  0
  -31.7965  -16.6139   23.8814 C   0  0  0  0  0  0  0  0  0  0  0  0
  -23.1130  -20.1588   21.8056 C   0  0  0  0  0  0  0  0  0  0  0  0
  -31.5339  -16.1639   21.5222 C   0  0  0  0  0  0  0  0  0  0  0  0
  -29.3806  -21.9000   20.0291 C   0  0  0  0  0  0  0  0  0  0  0  0
  -29.3974  -23.0334   17.7438 C   0  0  0  0  0  0  0  0  0  0  0  0
  -28.2981  -13.0823   18.3511 C   0  0  0  0  0  0  0  0  0  0  0  0
  -24.2743  -18.2989   22.8312 C   0  0  0  0  0  0  0  0  0  0  0  0
  -27.8241  -13.8644   19.4239 C   0  0  0  0  0  0  0  0  0  0  0  0
  -23.3453  -18.7779   21.8966 C   0  0  0  0  0  0  0  0  0  0  0  0
  -21.7181  -26.3356   22.6216 C   0  0  0  0  0  0  0  0  0  0  0  0
  -21.8126  -24.9440   22.6061 C   0  0  0  0  0  0  0  0  0  0  0  0
  -22.3157  -27.0865   21.6093 C   0  0  0  0  0  0  0  0  0  0  0  0
  -23.1023  -25.0543   20.5661 C   0  0  0  0  0  0  0  0  0  0  0  0
  -22.5047  -24.3034   21.5783 C   0  0  0  0  0  0  0  0  0  0  0  0
  -23.0078  -26.4459   20.5816 C   0  0  0  0  0  0  0  0  0  0  0  0
  -29.1356  -19.7072   21.7363 C   0  0  0  0  0  0  0  0  0  0  0  0
  -23.7860  -21.0497   22.6414 C   0  0  0  0  0  0  0  0  0  0  0  0
  -30.0709  -17.7415   22.6213 C   0  0  0  0  0  0  0  0  0  0  0  0
  -32.1966  -15.9380   22.7286 C   0  0  0  0  0  0  0  0  0  0  0  0
  -30.4710  -17.0657   21.4685 C   0  0  0  0  0  0  0  0  0  0  0  0
  -29.5079  -23.0323   19.1472 C   0  0  0  0  0  0  0  0  0  0  0  0
  -29.5968  -24.3440   17.3847 C   0  0  0  0  0  0  0  0  0  0  0  0
  -29.1378  -21.9468   16.8451 C   0  0  0  0  0  0  0  0  0  0  0  0
  -25.1934  -16.2154   20.6135 C   0  0  0  0  0  0  0  0  0  0  0  0
  -22.0506  -15.4123   20.6221 C   0  0  0  0  0  0  0  0  0  0  0  0
  -18.8278  -16.3287   21.2709 C   0  0  0  0  0  0  0  0  0  0  0  0
  -28.8414  -29.5047   20.0697 C   0  0  0  0  0  0  0  0  0  0  0  0
  -27.7936  -13.2772   16.9430 C   0  0  0  0  0  0  0  0  0  0  0  0
  -24.5253  -16.8221   22.9675 C   0  0  0  0  0  0  0  0  0  0  0  0
  -22.5933  -17.8502   20.9788 C   0  0  0  0  0  0  0  0  0  0  0  0
  -27.1495  -14.6426   16.7259 C   0  0  0  0  0  0  0  0  0  0  0  0
  -31.8317  -28.3255   18.7963 C   0  0  0  0  0  0  0  0  0  0  0  0
  -26.1391  -14.9219   17.8285 C   0  0  0  0  0  0  0  0  0  0  0  0
  -31.5774  -26.8314   18.5974 C   0  0  0  0  0  0  0  0  0  0  0  0
  -25.3572  -29.0330   18.9017 C   0  0  0  0  0  0  0  0  0  0  0  0
  -25.8281  -27.3906   20.7537 C   0  0  0  0  0  0  0  0  0  0  0  0
  -31.2195  -28.8142   20.1041 C   0  0  0  0  0  0  0  0  0  0  0  0
  -26.4973  -29.9089   19.4138 C   0  0  0  0  0  0  0  0  0  0  0  0
  -26.9548  -28.2994   21.2338 C   0  0  0  0  0  0  0  0  0  0  0  0
  -29.4850  -27.0532   20.0262 C   0  0  0  0  0  0  0  0  0  0  0  0
  -26.8286  -14.9878   19.1972 C   0  0  1  0  0  0  0  0  0  0  0  0
  -24.1773  -16.0379   21.7061 C   0  0  1  0  0  0  0  0  0  0  0  0
  -24.7397  -28.1908   20.0256 C   0  0  0  0  0  0  0  0  0  0  0  0
  -30.0774  -26.5062   18.7119 C   0  0  2  0  0  0  0  0  0  0  0  0
  -20.9740  -27.0229   23.7230 C   0  0  0  0  0  0  0  0  0  0  0  0
  -21.1697  -24.1385   23.6910 C   0  0  0  0  0  0  0  0  0  0  0  0
  -22.2134  -28.5793   21.6252 C   0  0  0  0  0  0  0  0  0  0  0  0
  -23.8446  -24.3665   19.4637 C   0  0  0  0  0  0  0  0  0  0  0  0
  -22.6154  -28.0485   18.6759 C   0  0  0  0  0  0  0  0  0  0  0  0
  -16.4724  -15.4727   21.1418 C   0  0  0  0  0  0  0  0  0  0  0  0
  -22.0583  -15.8533   17.6029 C   0  0  0  0  0  0  0  0  0  0  0  0
  -19.5567  -15.9226   17.6768 C   0  0  0  0  0  0  0  0  0  0  0  0
  -20.7660  -13.8510   18.3614 C   0  0  0  0  0  0  0  0  0  0  0  0
  -18.4509  -16.5861   24.1950 C   0  0  0  0  0  0  0  0  0  0  0  0
  -22.6066  -22.8106   21.5624 C   0  0  0  0  0  0  0  0  0  1  0  0
  -23.6575  -27.2631   19.4785 C   0  0  2  0  0  0  0  0  0  0  0  0
  -20.8261  -15.8777   19.8717 C   0  0  1  0  0  0  0  0  0  0  0  0
  -17.7094  -15.6206   22.0140 C   0  0  2  0  0  0  0  0  0  0  0  0
  -20.8172  -15.3941   18.3940 C   0  0  0  0  0  0  0  0  0  0  0  0
  -29.7581  -24.2459   19.6457 N   0  0  0  0  0  0  0  0  0  0  0  0
  -29.8067  -25.0218   18.5494 N   0  0  0  0  0  0  0  0  0  0  0  0
  -22.8780  -16.4155   21.1463 N   0  0  0  0  0  0  0  0  0  0  0  0
  -29.7967  -28.4825   20.1761 N   0  0  0  0  0  0  0  0  0  0  0  0
  -27.4918  -29.1216   20.1413 N   0  0  0  0  0  0  0  0  0  0  0  0
  -29.6114  -24.9713   16.1894 N   0  0  0  0  0  0  0  0  0  0  0  0
  -30.2270  -21.2302   16.3309 N   0  0  0  0  0  0  0  0  0  0  0  0
  -25.8195  -15.0442   20.2318 N   0  0  0  0  0  0  0  0  0  0  0  0
  -19.6760  -15.4347   20.6523 N   0  0  0  0  0  0  0  0  0  0  0  0
  -17.3339  -16.3861   23.2363 N   0  3  0  0  0  0  0  0  0  0  0  0
  -27.9752  -21.6315   16.4951 O   0  0  0  0  0  0  0  0  0  0  0  0
  -25.3933  -17.3320   20.1500 O   0  0  0  0  0  0  0  0  0  0  0  0
  -22.2612  -14.2031   20.7449 O   0  0  0  0  0  0  0  0  0  0  0  0
  -18.9359  -17.5526   21.2390 O   0  0  0  0  0  0  0  0  0  0  0  0
  -29.1711  -30.6873   19.9155 O   0  0  0  0  0  0  0  0  0  0  0  0
  -29.0164  -18.6376   22.5695 O   0  0  0  0  0  0  0  0  0  0  0  0
  -23.5478  -22.3962   22.5426 O   0  0  0  0  0  0  0  0  0  1  0  0
  -33.2183  -15.0733   22.7800 F   0  0  0  0  0  0  0  0  0  0  0  0
  -29.8389  -17.2794   20.3064 F   0  0  0  0  0  0  0  0  0  0  0  0
  1  2  1  0  0  0  0
  1  5  2  0  0  0  0
  2  6  2  0  0  0  0
  3  8  2  0  0  0  0
  3 15  1  0  0  0  0
  4  9  1  0  0  0  0
  4 15  2  0  0  0  0
  5 17  1  0  0  0  0
  6 19  1  0  0  0  0
  7 10  2  0  0  0  0
  7 18  1  0  0  0  0
  8 27  1  0  0  0  0
  9 27  2  0  0  0  0
 10 28  1  0  0  0  0
 11 12  2  0  0  0  0
 11 29  1  0  0  0  0
 12 30  1  0  0  0  0
 13 20  1  0  0  0  0
 13 28  2  0  0  0  0
 14 30  2  0  0  0  0
 14 31  1  0  0  0  0
 15 32  1  0  0  0  0
 16 32  1  0  0  0  0
 16 33  2  0  0  0  0
 16 34  1  0  0  0  0
 17 19  2  0  0  0  0
 17 39  1  0  0  0  0
 18 20  2  0  0  0  0
 18 40  1  0  0  0  0
 19 52  1  0  0  0  0
 20 41  1  0  0  0  0
 21 22  2  0  0  0  0
 21 23  1  0  0  0  0
 21 56  1  0  0  0  0
 22 25  1  0  0  0  0
 22 57  1  0  0  0  0
 23 26  2  0  0  0  0
 23 58  1  0  0  0  0
 24 25  2  0  0  0  0
 24 26  1  0  0  0  0
 24 59  1  0  0  0  0
 25 66  1  0  0  0  0
 26 67  1  0  0  0  0
 27 86  1  0  0  0  0
 28 87  1  0  0  0  0
 29 31  2  0  0  0  0
 29 86  1  0  0  0  0
 30 88  1  0  0  0  0
 31 89  1  0  0  0  0
 32 71  2  0  0  0  0
 33 72  1  0  0  0  0
 33 76  1  0  0  0  0
 34 77  1  0  0  0  0
 34 81  2  0  0  0  0
 35 53  1  0  0  0  0
 35 78  1  0  0  0  0
 35 82  2  0  0  0  0
 36 68  1  0  0  0  0
 36 73  1  0  0  0  0
 36 83  2  0  0  0  0
 37 69  1  0  0  0  0
 37 79  1  0  0  0  0
 37 84  2  0  0  0  0
 38 74  1  0  0  0  0
 38 75  1  0  0  0  0
 38 85  2  0  0  0  0
 39 42  1  0  0  0  0
 40 53  1  0  0  0  0
 41 73  1  0  0  0  0
 42 44  1  0  0  0  0
 43 45  1  0  0  0  0
 43 48  1  0  0  0  0
 44 52  1  0  0  0  0
 45 55  1  0  0  0  0
 46 49  1  0  0  0  0
 46 54  1  0  0  0  0
 47 50  1  0  0  0  0
 47 54  1  0  0  0  0
 48 74  1  0  0  0  0
 49 75  1  0  0  0  0
 50 75  1  0  0  0  0
 51 55  1  0  0  0  0
 51 74  1  0  0  0  0
 52 78  1  0  0  0  0
 53 73  1  0  0  0  0
 54 67  1  0  0  0  0
 55 72  1  0  0  0  0
 60 67  1  0  0  0  0
 61 69  1  0  0  0  0
 62 70  1  0  0  0  0
 63 70  1  0  0  0  0
 64 70  1  0  0  0  0
 65 80  1  0  0  0  0
 66 87  1  0  0  0  0
 68 70  1  0  0  0  0
 68 79  1  0  0  0  0
 69 80  1  0  0  0  0
 71 72  1  0  0  0  0
M  CHG  1  80   1
M  ISO  4  38 100  66 101  75 100  87 101
M  END
> <Batch ID>
0159

> <Smiles>
CNC(C)C(=O)NC(C(=O)N1Cc2cc([101O:1][101CH2:1]c3c(C)c(C)c(C)c(C(C)C4CC[100N:0]([100C:0](=O)N5CCCC(n6nc(-c7ccc(Oc8ccc(F)cc8F)cc7)c(C(N)=O)c6N)C5)CC4)c3C)ccc2CC1C(=O)NC1CCCc2ccccc21)C(C)(C)C

> <Shape>
0.226

> <Color>
0.070

> <Negative vol penalty>
0.000

$$$$

  -OEChem-04052322073D

 87 97  0     1  0  0  0  0  0999 V2000
  -24.7923  -33.5074   14.1728 C   0  0  0  0  0  0  0  0  0  0  0  0
  -25.8397  -32.7149   14.6315 C   0  0  0  0  0  0  0  0  0  0  0  0
  -23.7429   -9.7109   20.0111 C   0  0  0  0  0  0  0  0  0  0  0  0
  -23.1988   -9.9371   22.3541 C   0  0  0  0  0  0  0  0  0  0  0  0
  -23.9738  -34.1745   15.0833 C   0  0  0  0  0  0  0  0  0  0  0  0
  -26.0699  -32.5900   16.0011 C   0  0  0  0  0  0  0  0  0  0  0  0
  -26.9501  -27.8015   17.3941 C   0  0  0  0  0  0  0  0  0  0  0  0
  -23.0599   -8.4955   19.9697 C   0  0  0  0  0  0  0  0  0  0  0  0
  -22.5157   -8.7217   22.3128 C   0  0  0  0  0  0  0  0  0  0  0  0
  -28.2213  -27.2881   17.1409 C   0  0  0  0  0  0  0  0  0  0  0  0
  -23.2843   -5.4294   22.3481 C   0  0  0  0  0  0  0  0  0  0  0  0
  -23.5072   -4.5252   23.3864 C   0  0  0  0  0  0  0  0  0  0  0  0
  -28.8312  -27.6799   19.4417 C   0  0  0  0  0  0  0  0  0  0  0  0
  -28.3368  -20.7406   17.8607 C   0  0  0  0  0  0  0  0  0  0  0  0
  -21.1598   -4.5976   23.9533 C   0  0  0  0  0  0  0  0  0  0  0  0
  -23.8124  -10.4317   21.2033 C   0  0  0  0  0  0  0  0  0  0  0  0
  -23.9900  -12.9685   21.0005 C   0  0  0  0  0  0  0  0  0  0  0  0
  -24.1882  -34.0499   16.4650 C   0  0  0  0  0  0  0  0  0  0  0  0
  -26.6128  -28.2687   18.6725 C   0  0  0  0  0  0  0  0  0  0  0  0
  -25.2543  -33.2571   16.9309 C   0  0  0  0  0  0  0  0  0  0  0  0
  -27.5541  -28.1963   19.7092 C   0  0  0  0  0  0  0  0  0  0  0  0
  -30.4422  -21.7803   18.3986 C   0  0  0  0  0  0  0  0  0  0  0  0
  -29.6900  -20.6327   18.1670 C   0  0  0  0  0  0  0  0  0  0  0  0
  -22.4462   -8.0008   21.1206 C   0  0  0  0  0  0  0  0  0  0  0  0
  -29.1631  -27.2299   18.1641 C   0  0  0  0  0  0  0  0  0  0  0  0
  -21.9992   -5.9179   22.1124 C   0  0  0  0  0  0  0  0  0  0  0  0
  -22.4450   -4.1092   24.1891 C   0  0  0  0  0  0  0  0  0  0  0  0
  -20.9369   -5.5019   22.9150 C   0  0  0  0  0  0  0  0  0  0  0  0
  -24.5184  -11.6871   21.2467 C   0  0  0  0  0  0  0  0  0  0  0  0
  -29.8174  -23.0166   18.3175 C   0  0  0  0  0  0  0  0  0  0  0  0
  -27.7652  -22.0032   17.7934 C   0  0  0  0  0  0  0  0  0  0  0  0
  -25.0566  -13.8175   21.1671 C   0  0  0  0  0  0  0  0  0  0  0  0
  -22.6543  -13.3566   20.6524 C   0  0  0  0  0  0  0  0  0  0  0  0
  -25.7386  -31.0781   19.8755 C   0  0  0  0  0  0  0  0  0  0  0  0
  -25.3075  -29.3451   22.5835 C   0  0  0  0  0  0  0  0  0  0  0  0
  -26.0951  -26.5659   24.4007 C   0  0  0  0  0  0  0  0  0  0  0  0
  -30.4799  -14.8834   20.0142 C   0  0  0  0  0  0  0  0  0  0  0  0
  -23.3064  -34.8278   17.4095 C   0  0  0  0  0  0  0  0  0  0  0  0
  -25.2285  -28.7949   18.9359 C   0  0  0  0  0  0  0  0  0  0  0  0
  -27.2353  -28.6663   21.1042 C   0  0  0  0  0  0  0  0  0  0  0  0
  -23.3857  -34.3437   18.8550 C   0  0  0  0  0  0  0  0  0  0  0  0
  -29.6738  -12.9956   23.0572 C   0  0  0  0  0  0  0  0  0  0  0  0
  -24.8394  -34.1457   19.2727 C   0  0  0  0  0  0  0  0  0  0  0  0
  -28.2308  -12.5539   22.8094 C   0  0  0  0  0  0  0  0  0  0  0  0
  -29.0482  -18.2693   20.0593 C   0  0  0  0  0  0  0  0  0  0  0  0
  -31.7440  -24.6367   17.7349 C   0  0  0  0  0  0  0  0  0  0  0  0
  -30.4604  -13.1350   21.7558 C   0  0  0  0  0  0  0  0  0  0  0  0
  -28.8267  -16.8019   20.4107 C   0  0  0  0  0  0  0  0  0  0  0  0
  -28.3824  -13.5509   20.4981 C   0  0  0  0  0  0  0  0  0  0  0  0
  -30.4756  -16.9674   18.6732 C   0  0  0  0  0  0  0  0  0  0  0  0
  -25.5206  -33.0768   18.4097 C   0  0  1  0  0  0  0  0  0  0  0  0
  -30.5097  -24.3094   18.5414 C   0  0  1  0  0  0  0  0  0  0  0  0
  -25.1610  -29.7182   20.1485 C   0  0  1  0  0  0  0  0  0  0  0  0
  -27.5401  -13.4660   21.7784 C   0  0  1  0  0  0  0  0  0  0  0  0
  -29.5630  -18.1836   18.6266 C   0  0  2  0  0  0  0  0  0  0  0  0
  -30.4652  -25.3678   17.4619 C   0  0  1  0  0  0  0  0  0  1  0  0
  -31.8960  -21.6914   18.7297 C   0  0  0  0  0  0  0  0  0  0  0  0
  -26.3283  -22.2027   17.4734 C   0  0  0  0  0  0  0  0  0  0  0  0
  -25.6121  -25.4432   26.5925 C   0  0  0  0  0  0  0  0  0  0  0  0
  -27.1088  -31.3547   24.0070 C   0  0  0  0  0  0  0  0  0  0  0  0
  -27.3571  -29.7047   25.8735 C   0  0  0  0  0  0  0  0  0  0  0  0
  -25.1081  -30.6325   25.3223 C   0  0  0  0  0  0  0  0  0  0  0  0
  -24.9850  -24.1713   23.0619 C   0  0  0  0  0  0  0  0  0  0  0  0
  -26.1768  -28.9601   23.7561 C   0  0  1  0  0  0  0  0  0  0  0  0
  -25.2238  -25.5566   25.1265 C   0  0  2  0  0  0  0  0  0  0  0  0
  -26.4446  -30.1558   24.7131 C   0  0  0  0  0  0  0  0  0  0  0  0
  -25.8196  -11.7148   21.5467 N   0  0  0  0  0  0  0  0  0  0  0  0
  -26.1178  -13.0240   21.4901 N   0  0  0  0  0  0  0  0  0  0  0  0
  -28.5128  -23.0918   18.0208 N   0  3  0  0  0  0  0  0  0  0  0  0
  -25.8704  -29.1783   21.3102 N   0  0  0  0  0  0  0  0  0  0  0  0
  -29.7497  -13.9867   20.8018 N   0  0  0  0  0  0  0  0  0  0  0  0
  -29.8663  -16.0861   19.6665 N   0  0  0  0  0  0  0  0  0  0  0  0
  -25.1810  -15.1581   21.0673 N   0  0  0  0  0  0  0  0  0  0  0  0
  -21.6806  -12.3569   20.5220 N   0  0  0  0  0  0  0  0  0  0  0  0
  -30.2715  -19.3740   18.2365 N   0  0  0  0  0  0  0  0  0  0  0  0
  -25.1236  -31.7527   18.8381 N   0  0  0  0  0  0  0  0  0  0  0  0
  -25.5238  -27.8208   24.3916 N   0  0  0  0  0  0  0  0  0  0  0  0
  -25.3575  -24.2113   24.4995 N   0  3  0  0  0  0  0  0  0  0  0  0
  -22.3376  -14.5527   20.4465 O   0  0  0  0  0  0  0  0  0  0  0  0
  -26.6722  -31.4858   20.5565 O   0  0  0  0  0  0  0  0  0  0  0  0
  -24.1683  -29.7711   22.7893 O   0  0  0  0  0  0  0  0  0  0  0  0
  -27.1763  -26.2714   23.8959 O   0  0  0  0  0  0  0  0  0  0  0  0
  -31.6461  -14.6415   19.6758 O   0  0  0  0  0  0  0  0  0  0  0  0
  -21.7794   -6.8150   21.0806 O   0  0  0  0  0  0  0  0  0  0  0  0
  -30.4075  -26.7289   17.9190 O   0  0  0  0  0  0  0  0  0  1  0  0
  -22.6589   -3.2397   25.1852 F   0  0  0  0  0  0  0  0  0  0  0  0
  -19.6999   -5.9667   22.6926 F   0  0  0  0  0  0  0  0  0  0  0  0
  1  2  1  0  0  0  0
  1  5  2  0  0  0  0
  2  6  2  0  0  0  0
  3  8  2  0  0  0  0
  3 16  1  0  0  0  0
  4  9  1  0  0  0  0
  4 16  2  0  0  0  0
  5 18  1  0  0  0  0
  6 20  1  0  0  0  0
  7 10  2  0  0  0  0
  7 19  1  0  0  0  0
  8 24  1  0  0  0  0
  9 24  2  0  0  0  0
 10 25  1  0  0  0  0
 11 12  2  0  0  0  0
 11 26  1  0  0  0  0
 12 27  1  0  0  0  0
 13 21  1  0  0  0  0
 13 25  2  0  0  0  0
 14 23  2  0  0  0  0
 14 31  1  0  0  0  0
 15 27  2  0  0  0  0
 15 28  1  0  0  0  0
 16 29  1  0  0  0  0
 17 29  1  0  0  0  0
 17 32  2  0  0  0  0
 17 33  1  0  0  0  0
 18 20  2  0  0  0  0
 18 38  1  0  0  0  0
 19 21  2  0  0  0  0
 19 39  1  0  0  0  0
 20 51  1  0  0  0  0
 21 40  1  0  0  0  0
 22 23  1  0  0  0  0
 22 30  2  0  0  0  0
 22 57  1  0  0  0  0
 23 75  1  0  0  0  0
 24 84  1  0  0  0  0
 25 85  1  0  0  0  0
 26 28  2  0  0  0  0
 26 84  1  0  0  0  0
 27 86  1  0  0  0  0
 28 87  1  0  0  0  0
 29 67  2  0  0  0  0
 30 52  1  0  0  0  0
 30 69  1  0  0  0  0
 31 58  1  0  0  0  0
 31 69  2  0  0  0  0
 32 68  1  0  0  0  0
 32 73  1  0  0  0  0
 33 74  1  0  0  0  0
 33 79  2  0  0  0  0
 34 53  1  0  0  0  0
 34 76  1  0  0  0  0
 34 80  2  0  0  0  0
 35 64  1  0  0  0  0
 35 70  1  0  0  0  0
 35 81  2  0  0  0  0
 36 65  1  0  0  0  0
 36 77  1  0  0  0  0
 36 82  2  0  0  0  0
 37 71  1  0  0  0  0
 37 72  1  0  0  0  0
 37 83  2  0  0  0  0
 38 41  1  0  0  0  0
 39 53  1  0  0  0  0
 40 70  1  0  0  0  0
 41 43  1  0  0  0  0
 42 44  1  0  0  0  0
 42 47  1  0  0  0  0
 43 51  1  0  0  0  0
 44 54  1  0  0  0  0
 45 48  1  0  0  0  0
 45 55  1  0  0  0  0
 46 52  1  0  0  0  0
 46 56  1  0  0  0  0
 47 71  1  0  0  0  0
 48 72  1  0  0  0  0
 49 54  1  0  0  0  0
 49 71  1  0  0  0  0
 50 55  1  0  0  0  0
 50 72  1  0  0  0  0
 51 76  1  0  0  0  0
 52 56  1  0  0  0  0
 53 70  1  0  0  0  0
 54 68  1  0  0  0  0
 55 75  1  0  0  0  0
 56 85  1  0  0  0  0
 59 65  1  0  0  0  0
 60 66  1  0  0  0  0
 61 66  1  0  0  0  0
 62 66  1  0  0  0  0
 63 78  1  0  0  0  0
 64 66  1  0  0  0  0
 64 77  1  0  0  0  0
 65 78  1  0  0  0  0
 67 68  1  0  0  0  0
M  CHG  2  69   1  78   1
M  ISO  4  37 100  56 101  72 100  85 101
M  END
> <Batch ID>
0159

> <Smiles>
CNC(C)C(=O)NC(C(=O)N1Cc2cc([101O:1][101CH:1]3CC3c3nc(C)cc(NC4CC[100N:0]([100C:0](=O)N5CCCC(n6nc(-c7ccc(Oc8ccc(F)cc8F)cc7)c(C(N)=O)c6N)C5)C4)c3C)ccc2CC1C(=O)NC1CCCc2ccccc21)C(C)(C)C

> <Shape>
0.276

> <Color>
0.161

> <Negative vol penalty>
0.000

$$$$

  -OEChem-04052322073D

 93103  0     1  0  0  0  0  0999 V2000
  -22.6246   -7.9822   20.2232 C   0  0  0  0  0  0  0  0  0  0  0  0
  -22.3522   -9.3314   20.0214 C   0  0  0  0  0  0  0  0  0  0  0  0
  -28.7800  -26.5242   19.3653 C   0  0  0  0  0  0  0  0  0  0  0  0
  -26.7231  -25.2579   19.3120 C   0  0  0  0  0  0  0  0  0  0  0  0
  -23.2678   -7.5689   21.3892 C   0  0  0  0  0  0  0  0  0  0  0  0
  -22.7218  -10.2681   20.9860 C   0  0  0  0  0  0  0  0  0  0  0  0
  -24.6284  -16.0050   20.0066 C   0  0  0  0  0  0  0  0  0  0  0  0
  -29.5077  -25.3504   19.1702 C   0  0  0  0  0  0  0  0  0  0  0  0
  -27.4509  -24.0841   19.1168 C   0  0  0  0  0  0  0  0  0  0  0  0
  -23.9714  -17.2335   20.0586 C   0  0  0  0  0  0  0  0  0  0  0  0
  -29.2541  -21.9291   20.9971 C   0  0  0  0  0  0  0  0  0  0  0  0
  -28.8976  -20.8123   21.7529 C   0  0  0  0  0  0  0  0  0  0  0  0
  -20.0005  -26.7550   23.3261 C   0  0  0  0  0  0  0  0  0  0  0  0
  -24.7569  -17.5514   22.3171 C   0  0  0  0  0  0  0  0  0  0  0  0
  -22.6262  -22.0907   19.7621 C   0  0  0  0  0  0  0  0  0  0  0  0
  -18.9603  -28.9330   23.2623 C   0  0  0  0  0  0  0  0  0  0  0  0
  -28.4291  -19.5882   19.7234 C   0  0  0  0  0  0  0  0  0  0  0  0
  -27.3876  -26.4780   19.4363 C   0  0  0  0  0  0  0  0  0  0  0  0
  -26.1300  -28.5523   18.6469 C   0  0  0  0  0  0  0  0  0  0  0  0
  -23.6542   -8.5021   22.3642 C   0  0  0  0  0  0  0  0  0  0  0  0
  -25.3468  -15.5346   21.1153 C   0  0  0  0  0  0  0  0  0  0  0  0
  -23.3695   -9.8668   22.1667 C   0  0  0  0  0  0  0  0  0  0  0  0
  -19.1094  -26.2832   22.3500 C   0  0  0  0  0  0  0  0  0  0  0  0
  -25.4244  -16.3177   22.2758 C   0  0  0  0  0  0  0  0  0  0  0  0
  -19.9267  -28.0730   23.7779 C   0  0  0  0  0  0  0  0  0  0  0  0
  -22.0673  -20.9605   20.3481 C   0  0  0  0  0  0  0  0  0  0  0  0
  -22.0588  -23.3391   19.9924 C   0  0  0  0  0  0  0  0  0  0  0  0
  -18.1497  -27.1617   21.8272 C   0  0  0  0  0  0  0  0  0  0  0  0
  -28.8432  -24.1303   19.0459 C   0  0  0  0  0  0  0  0  0  0  0  0
  -24.0331  -18.0056   21.2149 C   0  0  0  0  0  0  0  0  0  0  0  0
  -29.1980  -21.8754   19.6043 C   0  0  0  0  0  0  0  0  0  0  0  0
  -28.4851  -19.6419   21.1161 C   0  0  0  0  0  0  0  0  0  0  0  0
  -28.7856  -20.7050   18.9675 C   0  0  0  0  0  0  0  0  0  0  0  0
  -18.0698  -28.4778   22.2913 C   0  0  0  0  0  0  0  0  0  0  0  0
  -26.6353  -27.6901   19.6384 C   0  0  0  0  0  0  0  0  0  0  0  0
  -20.9502  -21.1307   21.1499 C   0  0  0  0  0  0  0  0  0  0  0  0
  -20.9419  -23.4028   20.8099 C   0  0  0  0  0  0  0  0  0  0  0  0
  -25.4972  -29.5491   19.3487 C   0  0  0  0  0  0  0  0  0  0  0  0
  -26.2242  -28.4604   17.2192 C   0  0  0  0  0  0  0  0  0  0  0  0
  -25.1189  -13.0055   23.0273 C   0  0  0  0  0  0  0  0  0  0  0  0
  -27.8972  -14.1601   24.2401 C   0  0  0  0  0  0  0  0  0  0  0  0
  -29.9523  -16.8402   24.7299 C   0  0  0  0  0  0  0  0  0  0  0  0
  -23.0472  -29.7686   24.8077 C   0  0  0  0  0  0  0  0  0  0  0  0
  -24.3046   -8.0024   23.6298 C   0  0  0  0  0  0  0  0  0  0  0  0
  -26.0723  -14.2195   21.0339 C   0  0  0  0  0  0  0  0  0  0  0  0
  -26.1992  -15.8671   23.4862 C   0  0  0  0  0  0  0  0  0  0  0  0
  -24.9988   -9.1000   24.4322 C   0  0  0  0  0  0  0  0  0  0  0  0
  -25.6434  -31.8499   23.5410 C   0  0  0  0  0  0  0  0  0  0  0  0
  -24.0956  -10.3229   24.5564 C   0  0  0  0  0  0  0  0  0  0  0  0
  -26.1464  -31.0976   22.3077 C   0  0  0  0  0  0  0  0  0  0  0  0
  -17.9282  -24.4666   21.1169 C   0  0  0  0  0  0  0  0  0  0  0  0
  -25.2498  -30.8930   24.6642 C   0  0  0  0  0  0  0  0  0  0  0  0
  -24.7880  -29.0947   23.0436 C   0  0  0  0  0  0  0  0  0  0  0  0
  -17.5174  -25.5929   20.1783 C   0  0  0  0  0  0  0  0  0  0  0  0
  -23.7771  -10.9157   23.1785 C   0  0  1  0  0  0  0  0  0  0  0  0
  -19.1913  -24.8531   21.8852 C   0  0  1  0  0  0  0  0  0  0  0  0
  -26.3476  -13.6033   22.4021 C   0  0  1  0  0  0  0  0  0  0  0  0
  -25.1442  -30.0152   21.8637 C   0  0  2  0  0  0  0  0  0  0  0  0
  -22.6605  -24.5490   19.3624 C   0  0  0  0  0  0  0  0  0  0  0  0
  -20.3081  -19.9520   21.8053 C   0  0  0  0  0  0  0  0  0  0  0  0
  -32.0087  -18.1022   25.4198 C   0  0  0  0  0  0  0  0  0  0  0  0
  -26.5857  -14.0731   26.9937 C   0  0  0  0  0  0  0  0  0  0  0  0
  -28.4066  -15.5732   27.8315 C   0  0  0  0  0  0  0  0  0  0  0  0
  -28.9665  -13.3088   26.9475 C   0  0  0  0  0  0  0  0  0  0  0  0
  -31.2421  -16.4048   22.1021 C   0  0  0  0  0  0  0  0  0  0  0  0
  -20.8804  -28.5587   24.8167 C   0  0  0  0  0  0  0  0  0  0  0  0
  -22.6750  -19.6106   20.1035 C   0  0  0  0  0  0  0  0  0  1  0  0
  -28.2634  -15.1282   25.3390 C   0  0  1  0  0  0  0  0  0  0  0  0
  -31.4445  -17.0180   24.5149 C   0  0  2  0  0  0  0  0  0  0  0  0
  -28.0392  -14.5287   26.7560 C   0  0  0  0  0  0  0  0  0  0  0  0
  -26.3484  -28.1031   20.8758 N   0  0  0  0  0  0  0  0  0  0  0  0
  -20.3710  -22.3271   21.3967 N   0  0  0  0  0  0  0  0  0  0  0  0
  -25.6560  -29.2357   20.6666 N   0  0  0  0  0  0  0  0  0  0  0  0
  -26.8862  -14.5712   23.3598 N   0  0  0  0  0  0  0  0  0  0  0  0
  -24.2966  -29.8927   24.1778 N   0  0  0  0  0  0  0  0  0  0  0  0
  -24.8260  -30.6543   18.9609 N   0  0  0  0  0  0  0  0  0  0  0  0
  -26.9098  -27.3716   16.6635 N   0  0  0  0  0  0  0  0  0  0  0  0
  -20.3595  -24.6730   21.0474 N   0  0  0  0  0  0  0  0  0  0  0  0
  -24.9006  -11.6842   22.6869 N   0  0  0  0  0  0  0  0  0  0  0  0
  -29.6371  -15.5433   25.0762 N   0  0  0  0  0  0  0  0  0  0  0  0
  -22.2012  -28.8007   24.2803 N   0  0  0  0  0  0  0  0  0  0  0  0
  -31.7227  -17.3947   23.1001 N   0  3  0  0  0  0  0  0  0  0  0  0
  -25.7295  -29.3271   16.4591 O   0  0  0  0  0  0  0  0  0  0  0  0
  -24.4216  -13.6919   23.7650 O   0  0  0  0  0  0  0  0  0  0  0  0
  -28.4913  -13.0819   24.1612 O   0  0  0  0  0  0  0  0  0  0  0  0
  -29.1473  -17.7608   24.6069 O   0  0  0  0  0  0  0  0  0  0  0  0
  -22.7086  -30.4721   25.7655 O   0  0  0  0  0  0  0  0  0  0  0  0
  -17.2222  -26.8014   20.8839 O   0  0  0  0  0  0  0  0  0  0  0  0
  -29.5530  -22.9848   18.8553 O   0  0  0  0  0  0  0  0  0  0  0  0
  -23.3922  -19.2048   21.2685 O   0  0  0  0  0  0  0  0  0  1  0  0
  -28.1443  -18.5690   21.8420 F   0  0  0  0  0  0  0  0  0  0  0  0
  -28.7308  -20.6471   17.6298 F   0  0  0  0  0  0  0  0  0  0  0  0
  -16.8863  -29.5813   21.6831 Cl  0  0  0  0  0  0  0  0  0  0  0  0
  1  2  1  0  0  0  0
  1  5  2  0  0  0  0
  2  6  2  0  0  0  0
  3  8  2  0  0  0  0
  3 18  1  0  0  0  0
  4  9  1  0  0  0  0
  4 18  2  0  0  0  0
  5 20  1  0  0  0  0
  6 22  1  0  0  0  0
  7 10  2  0  0  0  0
  7 21  1  0  0  0  0
  8 29  1  0  0  0  0
  9 29  2  0  0  0  0
 10 30  1  0  0  0  0
 11 12  2  0  0  0  0
 11 31  1  0  0  0  0
 12 32  1  0  0  0  0
 13 23  1  0  0  0  0
 13 25  2  0  0  0  0
 14 24  1  0  0  0  0
 14 30  2  0  0  0  0
 15 26  1  0  0  0  0
 15 27  2  0  0  0  0
 16 25  1  0  0  0  0
 16 34  2  0  0  0  0
 17 32  2  0  0  0  0
 17 33  1  0  0  0  0
 18 35  1  0  0  0  0
 19 35  1  0  0  0  0
 19 38  2  0  0  0  0
 19 39  1  0  0  0  0
 20 22  2  0  0  0  0
 20 44  1  0  0  0  0
 21 24  2  0  0  0  0
 21 45  1  0  0  0  0
 22 55  1  0  0  0  0
 23 28  2  0  0  0  0
 23 56  1  0  0  0  0
 24 46  1  0  0  0  0
 25 66  1  0  0  0  0
 26 36  2  0  0  0  0
 26 67  1  0  0  0  0
 27 37  1  0  0  0  0
 27 59  1  0  0  0  0
 28 34  1  0  0  0  0
 28 88  1  0  0  0  0
 29 89  1  0  0  0  0
 30 90  1  0  0  0  0
 31 33  2  0  0  0  0
 31 89  1  0  0  0  0
 32 91  1  0  0  0  0
 33 92  1  0  0  0  0
 34 93  1  0  0  0  0
 35 71  2  0  0  0  0
 36 60  1  0  0  0  0
 36 72  1  0  0  0  0
 37 72  2  0  0  0  0
 37 78  1  0  0  0  0
 38 73  1  0  0  0  0
 38 76  1  0  0  0  0
 39 77  1  0  0  0  0
 39 83  2  0  0  0  0
 40 57  1  0  0  0  0
 40 79  1  0  0  0  0
 40 84  2  0  0  0  0
 41 68  1  0  0  0  0
 41 74  1  0  0  0  0
 41 85  2  0  0  0  0
 42 69  1  0  0  0  0
 42 80  1  0  0  0  0
 42 86  2  0  0  0  0
 43 75  1  0  0  0  0
 43 81  1  0  0  0  0
 43 87  2  0  0  0  0
 44 47  1  0  0  0  0
 45 57  1  0  0  0  0
 46 74  1  0  0  0  0
 47 49  1  0  0  0  0
 48 50  1  0  0  0  0
 48 52  1  0  0  0  0
 49 55  1  0  0  0  0
 50 58  1  0  0  0  0
 51 54  1  0  0  0  0
 51 56  1  0  0  0  0
 52 75  1  0  0  0  0
 53 58  1  0  0  0  0
 53 75  1  0  0  0  0
 54 88  1  0  0  0  0
 55 79  1  0  0  0  0
 56 78  1  0  0  0  0
 57 74  1  0  0  0  0
 58 73  1  0  0  0  0
 61 69  1  0  0  0  0
 62 70  1  0  0  0  0
 63 70  1  0  0  0  0
 64 70  1  0  0  0  0
 65 82  1  0  0  0  0
 66 81  1  0  0  0  0
 67 90  1  0  0  0  0
 68 70  1  0  0  0  0
 68 80  1  0  0  0  0
 69 82  1  0  0  0  0
 71 73  1  0  0  0  0
M  CHG  1  82   1
M  ISO  4  43 100  67 101  81 100  90 101
M  END
> <Batch ID>
0159

> <Smiles>
CNC(C)C(=O)NC(C(=O)N1Cc2cc([101O:1][101CH2:1]c3cc(C)c(NC4CCOc5c(Cl)cc(C[100NH:0][100C:0](=O)N6CCCC(n7nc(-c8ccc(Oc9ccc(F)cc9F)cc8)c(C(N)=O)c7N)C6)cc54)nc3C)ccc2CC1C(=O)NC1CCCc2ccccc21)C(C)(C)C

> <Shape>
0.234

> <Color>
0.059

> <Negative vol penalty>
0.000

$$$$

  -OEChem-04052322073D

 87 96  0     1  0  0  0  0  0999 V2000
  -27.5398  -37.5052   25.9419 C   0  0  0  0  0  0  0  0  0  0  0  0
  -28.1833  -36.8483   24.8980 C   0  0  0  0  0  0  0  0  0  0  0  0
  -22.9902  -10.3173   21.7566 C   0  0  0  0  0  0  0  0  0  0  0  0
  -24.7403   -8.6526   21.8105 C   0  0  0  0  0  0  0  0  0  0  0  0
  -26.7153  -36.7913   26.8104 C   0  0  0  0  0  0  0  0  0  0  0  0
  -28.0035  -35.4767   24.7226 C   0  0  0  0  0  0  0  0  0  0  0  0
  -27.6601  -30.5038   19.5778 C   0  0  0  0  0  0  0  0  0  0  0  0
  -22.0445   -9.3159   21.5363 C   0  0  0  0  0  0  0  0  0  0  0  0
  -23.7947   -7.6512   21.5902 C   0  0  0  0  0  0  0  0  0  0  0  0
  -28.2208  -29.2765   19.2270 C   0  0  0  0  0  0  0  0  0  0  0  0
  -21.7961   -4.6200   21.4016 C   0  0  0  0  0  0  0  0  0  0  0  0
  -21.8800   -3.4653   22.1795 C   0  0  0  0  0  0  0  0  0  0  0  0
  -26.7106  -28.1604   20.7411 C   0  0  0  0  0  0  0  0  0  0  0  0
  -29.4277  -24.9023   17.0363 C   0  0  0  0  0  0  0  0  0  0  0  0
  -30.5763  -24.8432   19.1608 C   0  0  0  0  0  0  0  0  0  0  0  0
  -21.5877   -4.7905   24.1784 C   0  0  0  0  0  0  0  0  0  0  0  0
  -24.3381   -9.9856   21.8937 C   0  0  0  0  0  0  0  0  0  0  0  0
  -25.7523  -11.5188   23.3625 C   0  0  0  0  0  0  0  0  0  0  0  0
  -26.5176  -35.4119   26.6398 C   0  0  0  0  0  0  0  0  0  0  0  0
  -26.6260  -30.5698   20.5227 C   0  0  0  0  0  0  0  0  0  0  0  0
  -27.1766  -34.7433   25.5905 C   0  0  0  0  0  0  0  0  0  0  0  0
  -26.1366  -29.3895   21.1003 C   0  0  0  0  0  0  0  0  0  0  0  0
  -29.7937  -25.5254   18.2293 C   0  0  0  0  0  0  0  0  0  0  0  0
  -29.8441  -23.5970   16.7748 C   0  0  0  0  0  0  0  0  0  0  0  0
  -30.9929  -23.5379   18.8994 C   0  0  0  0  0  0  0  0  0  0  0  0
  -30.6267  -22.9148   17.7063 C   0  0  0  0  0  0  0  0  0  0  0  0
  -22.4467   -7.9829   21.4531 C   0  0  0  0  0  0  0  0  0  0  0  0
  -27.7481  -28.1049   19.8108 C   0  0  0  0  0  0  0  0  0  0  0  0
  -21.6080   -5.8601   22.0121 C   0  0  0  0  0  0  0  0  0  0  0  0
  -21.7758   -3.5505   23.5679 C   0  0  0  0  0  0  0  0  0  0  0  0
  -21.5038   -5.9453   23.4005 C   0  0  0  0  0  0  0  0  0  0  0  0
  -25.3156  -11.0197   22.1207 C   0  0  0  0  0  0  0  0  0  0  0  0
  -26.6782  -12.4805   23.0395 C   0  0  0  0  0  0  0  0  0  0  0  0
  -25.3565  -11.1463   24.6892 C   0  0  0  0  0  0  0  0  0  0  0  0
  -26.2789  -31.9238   23.3775 C   0  0  0  0  0  0  0  0  0  0  0  0
  -23.2185  -30.8965   23.0604 C   0  0  0  0  0  0  0  0  0  0  0  0
  -21.0322  -28.7048   21.6238 C   0  0  0  0  0  0  0  0  0  0  0  0
  -28.3978  -16.6995   20.2011 C   0  0  0  0  0  0  0  0  0  0  0  0
  -25.6545  -34.6740   27.6324 C   0  0  0  0  0  0  0  0  0  0  0  0
  -26.0136  -31.8988   20.8705 C   0  0  0  0  0  0  0  0  0  0  0  0
  -25.0145  -29.4043   22.1049 C   0  0  0  0  0  0  0  0  0  0  0  0
  -25.2204  -33.2914   27.1525 C   0  0  0  0  0  0  0  0  0  0  0  0
  -28.8829  -13.5962   18.6338 C   0  0  0  0  0  0  0  0  0  0  0  0
  -26.4079  -32.5311   26.5707 C   0  0  0  0  0  0  0  0  0  0  0  0
  -28.0267  -12.6785   19.5062 C   0  0  0  0  0  0  0  0  0  0  0  0
  -31.0630  -18.6888   18.5622 C   0  0  0  0  0  0  0  0  0  0  0  0
  -29.1098  -18.4560   16.9683 C   0  0  0  0  0  0  0  0  0  0  0  0
  -28.2056  -14.9447   18.3836 C   0  0  0  0  0  0  0  0  0  0  0  0
  -30.1150  -18.4053   19.7263 C   0  0  0  0  0  0  0  0  0  0  0  0
  -28.2064  -18.1818   18.1685 C   0  0  0  0  0  0  0  0  0  0  0  0
  -26.9283  -14.7263   20.4901 C   0  0  0  0  0  0  0  0  0  0  0  0
  -26.9871  -33.2609   25.3527 C   0  0  1  0  0  0  0  0  0  0  0  0
  -25.3138  -31.8979   22.2261 C   0  0  1  0  0  0  0  0  0  0  0  0
  -27.6086  -13.3856   20.8077 C   0  0  1  0  0  0  0  0  0  0  0  0
  -30.3450  -19.2753   17.3462 C   0  0  0  0  0  0  0  0  0  0  0  0
  -29.4394  -22.9528   15.4891 C   0  0  0  0  0  0  0  0  0  0  0  0
  -31.8304  -22.8291   19.9132 C   0  0  0  0  0  0  0  0  0  0  0  0
  -18.6003  -28.0867   21.5880 C   0  0  0  0  0  0  0  0  0  0  0  0
  -23.5280  -29.5313   25.7715 C   0  0  0  0  0  0  0  0  0  0  0  0
  -21.4834  -28.1843   25.2486 C   0  0  0  0  0  0  0  0  0  0  0  0
  -21.3281  -30.6680   25.4210 C   0  0  0  0  0  0  0  0  0  0  0  0
  -20.8045  -29.2991   18.7335 C   0  0  0  0  0  0  0  0  0  0  0  0
  -29.3479  -26.9207   18.5092 C   0  0  0  0  0  0  0  0  0  1  0  0
  -31.0749  -21.5108   17.4245 C   0  0  0  0  0  0  0  0  0  0  0  0
  -22.4722  -29.6338   23.4177 C   0  0  1  0  0  0  0  0  0  0  0  0
  -19.6947  -28.9196   20.9387 C   0  0  2  0  0  0  0  0  0  0  0  0
  -22.2254  -29.5039   24.9473 C   0  0  0  0  0  0  0  0  0  0  0  0
  -25.9146  -11.6152   21.0861 N   0  0  0  0  0  0  0  0  0  0  0  0
  -26.7371  -12.4986   21.6770 N   0  0  0  0  0  0  0  0  0  0  0  0
  -24.4528  -30.7289   22.4169 N   0  0  0  0  0  0  0  0  0  0  0  0
  -27.7898  -15.5613   19.6504 N   0  0  0  0  0  0  0  0  0  0  0  0
  -28.9578  -17.6197   19.2989 N   0  0  0  0  0  0  0  0  0  0  0  0
  -27.4394  -13.3041   23.7910 N   0  0  0  0  0  0  0  0  0  0  0  0
  -24.3933  -10.1396   24.8413 N   0  0  0  0  0  0  0  0  0  0  0  0
  -26.1581  -33.0366   24.1878 N   0  0  0  0  0  0  0  0  0  0  0  0
  -21.2545  -29.6381   22.6142 N   0  0  0  0  0  0  0  0  0  0  0  0
  -19.7828  -28.5406   19.5001 N   0  3  0  0  0  0  0  0  0  0  0  0
  -25.8306  -11.7014   25.7093 O   0  0  0  0  0  0  0  0  0  0  0  0
  -27.0732  -31.0018   23.5209 O   0  0  0  0  0  0  0  0  0  0  0  0
  -22.7211  -31.9913   23.3355 O   0  0  0  0  0  0  0  0  0  0  0  0
  -21.8012  -27.7974   21.3140 O   0  0  0  0  0  0  0  0  0  0  0  0
  -28.4421  -16.8831   21.4240 O   0  0  0  0  0  0  0  0  0  0  0  0
  -21.5242   -7.0055   21.2384 O   0  0  0  0  0  0  0  0  0  0  0  0
  -28.2978  -26.8974   19.4683 O   0  0  0  0  0  0  0  0  0  1  0  0
  -29.9755  -20.6286   17.6017 O   0  0  0  0  0  0  0  0  0  0  0  0
  -21.8548   -2.4413   24.3146 F   0  0  0  0  0  0  0  0  0  0  0  0
  -21.3219   -7.1336   23.9926 F   0  0  0  0  0  0  0  0  0  0  0  0
  1  2  1  0  0  0  0
  1  5  2  0  0  0  0
  2  6  2  0  0  0  0
  3  8  2  0  0  0  0
  3 17  1  0  0  0  0
  4  9  1  0  0  0  0
  4 17  2  0  0  0  0
  5 19  1  0  0  0  0
  6 21  1  0  0  0  0
  7 10  2  0  0  0  0
  7 20  1  0  0  0  0
  8 27  1  0  0  0  0
  9 27  2  0  0  0  0
 10 28  1  0  0  0  0
 11 12  2  0  0  0  0
 11 29  1  0  0  0  0
 12 30  1  0  0  0  0
 13 22  1  0  0  0  0
 13 28  2  0  0  0  0
 14 23  1  0  0  0  0
 14 24  2  0  0  0  0
 15 23  2  0  0  0  0
 15 25  1  0  0  0  0
 16 30  2  0  0  0  0
 16 31  1  0  0  0  0
 17 32  1  0  0  0  0
 18 32  1  0  0  0  0
 18 33  2  0  0  0  0
 18 34  1  0  0  0  0
 19 21  2  0  0  0  0
 19 39  1  0  0  0  0
 20 22  2  0  0  0  0
 20 40  1  0  0  0  0
 21 52  1  0  0  0  0
 22 41  1  0  0  0  0
 23 63  1  0  0  0  0
 24 26  1  0  0  0  0
 24 56  1  0  0  0  0
 25 26  2  0  0  0  0
 25 57  1  0  0  0  0
 26 64  1  0  0  0  0
 27 83  1  0  0  0  0
 28 84  1  0  0  0  0
 29 31  2  0  0  0  0
 29 83  1  0  0  0  0
 30 86  1  0  0  0  0
 31 87  1  0  0  0  0
 32 68  2  0  0  0  0
 33 69  1  0  0  0  0
 33 73  1  0  0  0  0
 34 74  1  0  0  0  0
 34 78  2  0  0  0  0
 35 53  1  0  0  0  0
 35 75  1  0  0  0  0
 35 79  2  0  0  0  0
 36 65  1  0  0  0  0
 36 70  1  0  0  0  0
 36 80  2  0  0  0  0
 37 66  1  0  0  0  0
 37 76  1  0  0  0  0
 37 81  2  0  0  0  0
 38 71  1  0  0  0  0
 38 72  1  0  0  0  0
 38 82  2  0  0  0  0
 39 42  1  0  0  0  0
 40 53  1  0  0  0  0
 41 70  1  0  0  0  0
 42 44  1  0  0  0  0
 43 45  1  0  0  0  0
 43 48  1  0  0  0  0
 44 52  1  0  0  0  0
 45 54  1  0  0  0  0
 46 49  1  0  0  0  0
 46 55  1  0  0  0  0
 47 50  1  0  0  0  0
 47 55  1  0  0  0  0
 48 71  1  0  0  0  0
 49 72  1  0  0  0  0
 50 72  1  0  0  0  0
 51 54  1  0  0  0  0
 51 71  1  0  0  0  0
 52 75  1  0  0  0  0
 53 70  1  0  0  0  0
 54 69  1  0  0  0  0
 55 85  1  0  0  0  0
 58 66  1  0  0  0  0
 59 67  1  0  0  0  0
 60 67  1  0  0  0  0
 61 67  1  0  0  0  0
 62 77  1  0  0  0  0
 63 84  1  0  0  0  0
 64 85  1  0  0  0  0
 65 67  1  0  0  0  0
 65 76  1  0  0  0  0
 66 77  1  0  0  0  0
 68 69  1  0  0  0  0
M  CHG  1  77   1
M  ISO  4  38 100  63 101  72 100  84 101
M  END
> <Batch ID>
0159

> <Smiles>
CNC(C)C(=O)NC(C(=O)N1Cc2cc([101O:1][101CH2:1]c3cc(C)c(COC4CC[100N:0]([100C:0](=O)N5CCCC(n6nc(-c7ccc(Oc8ccc(F)cc8F)cc7)c(C(N)=O)c6N)C5)CC4)c(C)c3)ccc2CC1C(=O)NC1CCCc2ccccc21)C(C)(C)C

> <Shape>
0.340

> <Color>
0.112

> <Negative vol penalty>
0.000

$$$$

  -OEChem-04052322073D

 88 97  0     1  0  0  0  0  0999 V2000
  -23.6963   -7.9730   22.6415 C   0  0  0  0  0  0  0  0  0  0  0  0
  -24.3325   -8.8450   21.7637 C   0  0  0  0  0  0  0  0  0  0  0  0
  -22.3038  -27.8835   20.2568 C   0  0  0  0  0  0  0  0  0  0  0  0
  -22.6717  -28.8233   22.4519 C   0  0  0  0  0  0  0  0  0  0  0  0
  -22.3755   -8.2082   23.0209 C   0  0  0  0  0  0  0  0  0  0  0  0
  -23.6477   -9.9522   21.2640 C   0  0  0  0  0  0  0  0  0  0  0  0
  -26.4370  -14.1772   21.3814 C   0  0  0  0  0  0  0  0  0  0  0  0
  -20.9972  -27.5539   20.6169 C   0  0  0  0  0  0  0  0  0  0  0  0
  -21.3651  -28.4936   22.8120 C   0  0  0  0  0  0  0  0  0  0  0  0
  -27.4000  -14.3323   20.3852 C   0  0  0  0  0  0  0  0  0  0  0  0
  -18.2590  -29.7283   22.3135 C   0  0  0  0  0  0  0  0  0  0  0  0
  -17.5107  -30.6939   22.9867 C   0  0  0  0  0  0  0  0  0  0  0  0
  -25.9072  -15.7929   19.1780 C   0  0  0  0  0  0  0  0  0  0  0  0
  -29.6816  -19.6062   18.8742 C   0  0  0  0  0  0  0  0  0  0  0  0
  -29.4795  -18.0694   16.5547 C   0  0  0  0  0  0  0  0  0  0  0  0
  -17.2627  -29.1931   24.8637 C   0  0  0  0  0  0  0  0  0  0  0  0
  -23.1411  -28.5182   21.1743 C   0  0  0  0  0  0  0  0  0  0  0  0
  -24.9344  -30.0584   20.2153 C   0  0  0  0  0  0  0  0  0  0  0  0
  -21.6773   -9.3241   22.5331 C   0  0  0  0  0  0  0  0  0  0  0  0
  -25.1957  -14.8212   21.2778 C   0  0  0  0  0  0  0  0  0  0  0  0
  -22.3158  -10.2017   21.6363 C   0  0  0  0  0  0  0  0  0  0  0  0
  -24.9312  -15.6464   20.1755 C   0  0  0  0  0  0  0  0  0  0  0  0
  -29.2264  -20.1868   17.6904 C   0  0  0  0  0  0  0  0  0  0  0  0
  -29.1253  -19.4184   16.5306 C   0  0  0  0  0  0  0  0  0  0  0  0
  -29.9347  -17.4889   17.7385 C   0  0  0  0  0  0  0  0  0  0  0  0
  -20.5278  -27.8589   21.8944 C   0  0  0  0  0  0  0  0  0  0  0  0
  -27.1341  -15.1379   19.2819 C   0  0  0  0  0  0  0  0  0  0  0  0
  -18.5091  -28.4950   22.9154 C   0  0  0  0  0  0  0  0  0  0  0  0
  -30.0358  -18.2573   18.8982 C   0  0  0  0  0  0  0  0  0  0  0  0
  -17.0126  -30.4264   24.2618 C   0  0  0  0  0  0  0  0  0  0  0  0
  -18.0109  -28.2275   24.1905 C   0  0  0  0  0  0  0  0  0  0  0  0
  -24.4911  -28.8585   20.8031 C   0  0  0  0  0  0  0  0  0  0  0  0
  -26.2885  -29.8864   20.0630 C   0  0  0  0  0  0  0  0  0  0  0  0
  -24.1887  -31.2243   19.8407 C   0  0  0  0  0  0  0  0  0  0  0  0
  -22.1754  -13.8513   21.0762 C   0  0  0  0  0  0  0  0  0  0  0  0
  -21.5490  -17.0255   21.3103 C   0  0  0  0  0  0  0  0  0  0  0  0
  -22.6368  -20.2322   20.8857 C   0  0  0  0  0  0  0  0  0  0  0  0
  -29.8076  -25.2279   19.4628 C   0  0  0  0  0  0  0  0  0  0  0  0
  -20.2356   -9.5107   22.9347 C   0  0  0  0  0  0  0  0  0  0  0  0
  -24.1777  -14.6650   22.3741 C   0  0  0  0  0  0  0  0  0  0  0  0
  -23.6218  -16.3758   20.0270 C   0  0  0  0  0  0  0  0  0  0  0  0
  -19.7016  -10.9129   22.6536 C   0  0  0  0  0  0  0  0  0  0  0  0
  -30.0197  -27.5950   21.9728 C   0  0  0  0  0  0  0  0  0  0  0  0
  -20.0903  -11.3603   21.2480 C   0  0  0  0  0  0  0  0  0  0  0  0
  -28.6724  -28.3142   21.9088 C   0  0  0  0  0  0  0  0  0  0  0  0
  -28.2659  -22.1033   19.0417 C   0  0  0  0  0  0  0  0  0  0  0  0
  -30.0294  -22.5557   17.2825 C   0  0  0  0  0  0  0  0  0  0  0  0
  -29.8458  -26.0927   21.7826 C   0  0  0  0  0  0  0  0  0  0  0  0
  -27.9165  -23.5943   19.0434 C   0  0  0  0  0  0  0  0  0  0  0  0
  -29.6221  -24.0261   17.3064 C   0  0  0  0  0  0  0  0  0  0  0  0
  -27.7996  -26.4333   20.4352 C   0  0  0  0  0  0  0  0  0  0  0  0
  -28.8482  -21.6560   17.6888 C   0  0  0  0  0  0  0  0  0  0  0  0
  -21.6144  -11.4273   21.0921 C   0  0  1  0  0  0  0  0  0  0  0  0
  -22.7533  -14.9575   21.9128 C   0  0  1  0  0  0  0  0  0  0  0  0
  -27.9177  -27.9605   20.6151 C   0  0  1  0  0  0  0  0  0  0  0  0
  -28.6401  -20.0183   15.2519 C   0  0  0  0  0  0  0  0  0  0  0  0
  -31.8004  -15.8357   18.0820 C   0  0  0  0  0  0  0  0  0  0  0  0
  -21.8871  -22.6149   21.1268 C   0  0  0  0  0  0  0  0  0  0  0  0
  -19.8898  -16.7585   18.7636 C   0  0  0  0  0  0  0  0  0  0  0  0
  -19.9682  -19.2505   18.5345 C   0  0  0  0  0  0  0  0  0  0  0  0
  -18.8732  -18.2163   20.5230 C   0  0  0  0  0  0  0  0  0  0  0  0
  -24.7551  -20.8200   22.8672 C   0  0  0  0  0  0  0  0  0  0  0  0
  -30.5499  -18.5638   21.1998 C   0  0  0  0  0  0  0  0  0  0  0  0
  -29.4402  -15.2001   18.7040 C   0  0  0  0  0  0  0  0  0  1  0  0
  -30.3107  -16.0438   17.7457 C   0  0  1  0  0  0  0  0  0  0  0  0
  -21.3931  -18.1598   20.3265 C   0  0  1  0  0  0  0  0  0  0  0  0
  -22.5845  -21.4430   21.7999 C   0  0  2  0  0  0  0  0  0  0  0  0
  -20.0551  -18.0811   19.5384 C   0  0  0  0  0  0  0  0  0  0  0  0
  -25.4832  -27.9884   21.0099 N   0  0  0  0  0  0  0  0  0  0  0  0
  -26.5633  -28.6422   20.5494 N   0  0  0  0  0  0  0  0  0  0  0  0
  -22.6563  -16.1862   21.1221 N   0  0  0  0  0  0  0  0  0  0  0  0
  -29.1221  -25.7982   20.5459 N   0  0  0  0  0  0  0  0  0  0  0  0
  -29.0673  -24.3976   18.6078 N   0  0  0  0  0  0  0  0  0  0  0  0
  -27.2591  -30.6795   19.5615 N   0  0  0  0  0  0  0  0  0  0  0  0
  -22.8057  -31.2343   20.0674 N   0  0  0  0  0  0  0  0  0  0  0  0
  -22.1338  -12.6263   21.7142 N   0  0  0  0  0  0  0  0  0  0  0  0
  -21.5645  -19.3902   21.0915 N   0  0  0  0  0  0  0  0  0  0  0  0
  -23.9626  -21.8687   22.1750 N   0  3  0  0  0  0  0  0  0  0  0  0
  -24.7303  -32.2211   19.3053 O   0  0  0  0  0  0  0  0  0  0  0  0
  -21.7939  -14.0917   19.9367 O   0  0  0  0  0  0  0  0  0  0  0  0
  -20.7230  -16.8933   22.2168 O   0  0  0  0  0  0  0  0  0  0  0  0
  -23.5368  -20.0533   20.0680 O   0  0  0  0  0  0  0  0  0  0  0  0
  -31.0099  -25.4478   19.2698 O   0  0  0  0  0  0  0  0  0  0  0  0
  -19.2528  -27.5376   22.2461 O   0  0  0  0  0  0  0  0  0  0  0  0
  -30.4778  -17.7057   20.0631 O   0  0  0  0  0  0  0  0  0  0  0  0
  -28.0782  -15.2915   18.3014 O   0  0  0  0  0  0  0  0  0  1  0  0
  -16.2953  -31.3543   24.9088 F   0  0  0  0  0  0  0  0  0  0  0  0
  -18.2489  -27.0449   24.7743 F   0  0  0  0  0  0  0  0  0  0  0  0
  1  2  1  0  0  0  0
  1  5  2  0  0  0  0
  2  6  2  0  0  0  0
  3  8  2  0  0  0  0
  3 17  1  0  0  0  0
  4  9  1  0  0  0  0
  4 17  2  0  0  0  0
  5 19  1  0  0  0  0
  6 21  1  0  0  0  0
  7 10  2  0  0  0  0
  7 20  1  0  0  0  0
  8 26  1  0  0  0  0
  9 26  2  0  0  0  0
 10 27  1  0  0  0  0
 11 12  2  0  0  0  0
 11 28  1  0  0  0  0
 12 30  1  0  0  0  0
 13 22  1  0  0  0  0
 13 27  2  0  0  0  0
 14 23  2  0  0  0  0
 14 29  1  0  0  0  0
 15 24  2  0  0  0  0
 15 25  1  0  0  0  0
 16 30  2  0  0  0  0
 16 31  1  0  0  0  0
 17 32  1  0  0  0  0
 18 32  1  0  0  0  0
 18 33  2  0  0  0  0
 18 34  1  0  0  0  0
 19 21  2  0  0  0  0
 19 39  1  0  0  0  0
 20 22  2  0  0  0  0
 20 40  1  0  0  0  0
 21 53  1  0  0  0  0
 22 41  1  0  0  0  0
 23 24  1  0  0  0  0
 23 52  1  0  0  0  0
 24 56  1  0  0  0  0
 25 29  2  0  0  0  0
 25 65  1  0  0  0  0
 26 84  1  0  0  0  0
 27 86  1  0  0  0  0
 28 31  2  0  0  0  0
 28 84  1  0  0  0  0
 29 85  1  0  0  0  0
 30 87  1  0  0  0  0
 31 88  1  0  0  0  0
 32 69  2  0  0  0  0
 33 70  1  0  0  0  0
 33 74  1  0  0  0  0
 34 75  1  0  0  0  0
 34 79  2  0  0  0  0
 35 54  1  0  0  0  0
 35 76  1  0  0  0  0
 35 80  2  0  0  0  0
 36 66  1  0  0  0  0
 36 71  1  0  0  0  0
 36 81  2  0  0  0  0
 37 67  1  0  0  0  0
 37 77  1  0  0  0  0
 37 82  2  0  0  0  0
 38 72  1  0  0  0  0
 38 73  1  0  0  0  0
 38 83  2  0  0  0  0
 39 42  1  0  0  0  0
 40 54  1  0  0  0  0
 41 71  1  0  0  0  0
 42 44  1  0  0  0  0
 43 45  1  0  0  0  0
 43 48  1  0  0  0  0
 44 53  1  0  0  0  0
 45 55  1  0  0  0  0
 46 49  1  0  0  0  0
 46 52  1  0  0  0  0
 47 50  1  0  0  0  0
 47 52  1  0  0  0  0
 48 72  1  0  0  0  0
 49 73  1  0  0  0  0
 50 73  1  0  0  0  0
 51 55  1  0  0  0  0
 51 72  1  0  0  0  0
 53 76  1  0  0  0  0
 54 71  1  0  0  0  0
 55 70  1  0  0  0  0
 57 65  1  0  0  0  0
 58 67  1  0  0  0  0
 59 68  1  0  0  0  0
 60 68  1  0  0  0  0
 61 68  1  0  0  0  0
 62 78  1  0  0  0  0
 63 85  1  0  0  0  0
 64 65  1  0  0  0  0
 64 86  1  0  0  0  0
 66 68  1  0  0  0  0
 66 77  1  0  0  0  0
 67 78  1  0  0  0  0
 69 70  1  0  0  0  0
M  CHG  1  78   1
M  ISO  4  38 100  64 101  73 100  86 101
M  END
> <Batch ID>
0159

> <Smiles>
CNC(C)C(=O)NC(C(=O)N1Cc2cc([101O:1][101CH2:1]C(C)c3cc(C)c(C4CC[100N:0]([100C:0](=O)N5CCCC(n6nc(-c7ccc(Oc8ccc(F)cc8F)cc7)c(C(N)=O)c6N)C5)CC4)cc3OC)ccc2CC1C(=O)NC1CCCc2ccccc21)C(C)(C)C

> <Shape>
0.262

> <Color>
0.097

> <Negative vol penalty>
0.000

$$$$

  -OEChem-04052322073D

 89 98  0     1  0  0  0  0  0999 V2000
  -27.1618  -35.4965   23.3489 C   0  0  0  0  0  0  0  0  0  0  0  0
  -28.0187  -34.6454   22.6585 C   0  0  0  0  0  0  0  0  0  0  0  0
  -24.0132  -17.7408   20.4215 C   0  0  0  0  0  0  0  0  0  0  0  0
  -22.7818  -15.7587   21.0474 C   0  0  0  0  0  0  0  0  0  0  0  0
  -26.0979  -34.9698   24.0801 C   0  0  0  0  0  0  0  0  0  0  0  0
  -27.8129  -33.2668   22.6999 C   0  0  0  0  0  0  0  0  0  0  0  0
  -28.5518  -27.3885   18.6730 C   0  0  0  0  0  0  0  0  0  0  0  0
  -22.8240  -18.3566   20.0315 C   0  0  0  0  0  0  0  0  0  0  0  0
  -21.5925  -16.3744   20.6575 C   0  0  0  0  0  0  0  0  0  0  0  0
  -29.1136  -26.1135   18.7213 C   0  0  0  0  0  0  0  0  0  0  0  0
  -20.2139  -19.9033   21.5242 C   0  0  0  0  0  0  0  0  0  0  0  0
  -20.0049  -21.2226   21.9259 C   0  0  0  0  0  0  0  0  0  0  0  0
  -30.8070  -17.0364   19.0188 C   0  0  0  0  0  0  0  0  0  0  0  0
  -27.1961  -25.3218   19.9525 C   0  0  0  0  0  0  0  0  0  0  0  0
  -30.7663  -15.4957   21.3442 C   0  0  0  0  0  0  0  0  0  0  0  0
  -19.8602  -21.9041   19.6126 C   0  0  0  0  0  0  0  0  0  0  0  0
  -23.9922  -16.4418   20.9293 C   0  0  0  0  0  0  0  0  0  0  0  0
  -25.8166  -15.8370   22.6067 C   0  0  0  0  0  0  0  0  0  0  0  0
  -25.8732  -33.5848   24.1225 C   0  0  0  0  0  0  0  0  0  0  0  0
  -27.3108  -27.6428   19.2745 C   0  0  0  0  0  0  0  0  0  0  0  0
  -26.7458  -32.7210   23.4334 C   0  0  0  0  0  0  0  0  0  0  0  0
  -30.8342  -17.6575   20.2675 C   0  0  0  0  0  0  0  0  0  0  0  0
  -26.6195  -26.6003   19.9081 C   0  0  0  0  0  0  0  0  0  0  0  0
  -30.8138  -16.8872   21.4302 C   0  0  0  0  0  0  0  0  0  0  0  0
  -30.7391  -14.8746   20.0956 C   0  0  0  0  0  0  0  0  0  0  0  0
  -30.7594  -15.6450   18.9329 C   0  0  0  0  0  0  0  0  0  0  0  0
  -21.6136  -17.6734   20.1496 C   0  0  0  0  0  0  0  0  0  0  0  0
  -28.4371  -25.0805   19.3637 C   0  0  0  0  0  0  0  0  0  0  0  0
  -20.2461  -19.5844   20.1666 C   0  0  0  0  0  0  0  0  0  0  0  0
  -19.8281  -22.2230   20.9702 C   0  0  0  0  0  0  0  0  0  0  0  0
  -20.0692  -20.5848   19.2108 C   0  0  0  0  0  0  0  0  0  0  0  0
  -25.2204  -15.8050   21.3318 C   0  0  0  0  0  0  0  0  0  0  0  0
  -26.9575  -15.0844   22.4713 C   0  0  0  0  0  0  0  0  0  0  0  0
  -25.3781  -16.4887   23.8062 C   0  0  0  0  0  0  0  0  0  0  0  0
  -26.3023  -29.5291   21.6258 C   0  0  0  0  0  0  0  0  0  0  0  0
  -23.3797  -28.4757   20.6923 C   0  0  0  0  0  0  0  0  0  0  0  0
  -21.5269  -26.0577   19.1538 C   0  0  0  0  0  0  0  0  0  0  0  0
  -30.0997  -13.7891   17.3798 C   0  0  0  0  0  0  0  0  0  0  0  0
  -24.7381  -33.0590   24.9650 C   0  0  0  0  0  0  0  0  0  0  0  0
  -26.7060  -29.0174   19.1904 C   0  0  0  0  0  0  0  0  0  0  0  0
  -25.2751  -26.8165   20.5518 C   0  0  0  0  0  0  0  0  0  0  0  0
  -24.3670  -31.6117   24.6521 C   0  0  0  0  0  0  0  0  0  0  0  0
  -28.8085  -11.4665   19.9549 C   0  0  0  0  0  0  0  0  0  0  0  0
  -25.6200  -30.7463   24.5643 C   0  0  0  0  0  0  0  0  0  0  0  0
  -27.7322  -12.2968   20.6517 C   0  0  0  0  0  0  0  0  0  0  0  0
  -32.1083  -19.7734   19.6520 C   0  0  0  0  0  0  0  0  0  0  0  0
  -28.9897  -11.8819   18.4981 C   0  0  0  0  0  0  0  0  0  0  0  0
  -28.1986  -14.1710   19.0234 C   0  0  0  0  0  0  0  0  0  0  0  0
  -31.7694  -21.2501   19.5701 C   0  0  0  0  0  0  0  0  0  0  0  0
  -30.8856  -19.1660   20.3356 C   0  0  1  0  0  0  0  0  0  0  0  0
  -26.5407  -31.2217   23.4338 C   0  0  1  0  0  0  0  0  0  0  0  0
  -25.6749  -29.2843   20.2826 C   0  0  1  0  0  0  0  0  0  0  0  0
  -28.0253  -13.7989   20.5035 C   0  0  1  0  0  0  0  0  0  0  0  0
  -29.7271  -19.8800   19.6276 C   0  0  1  0  0  0  0  0  0  0  0  0
  -30.8424  -17.5299   22.7780 C   0  0  0  0  0  0  0  0  0  0  0  0
  -30.6881  -13.3825   20.0333 C   0  0  0  0  0  0  0  0  0  0  0  0
  -28.4418  -19.9183   20.4400 C   0  0  0  0  0  0  0  0  0  0  0  0
  -30.8573  -16.4429   15.6240 C   0  0  0  0  0  0  0  0  0  0  0  0
  -19.1591  -25.4573   18.5793 C   0  0  0  0  0  0  0  0  0  0  0  0
  -22.8848  -27.6635   23.5915 C   0  0  0  0  0  0  0  0  0  0  0  0
  -20.9763  -26.2512   22.7970 C   0  0  0  0  0  0  0  0  0  0  0  0
  -20.9242  -28.7217   22.4554 C   0  0  0  0  0  0  0  0  0  0  0  0
  -22.1034  -26.0785   16.2510 C   0  0  0  0  0  0  0  0  0  0  0  0
  -31.6115  -15.5592   16.5968 C   0  0  0  0  0  0  0  0  0  0  0  0
  -29.7926  -21.9462   18.1640 C   0  0  0  0  0  0  0  0  0  0  0  0
  -29.8275  -23.4529   18.3276 C   0  0  0  0  0  0  0  0  0  1  0  0
  -22.4943  -27.3108   21.0638 C   0  0  1  0  0  0  0  0  0  0  0  0
  -20.4319  -26.1419   18.1059 C   0  0  2  0  0  0  0  0  0  0  0  0
  -21.8461  -27.4829   22.4666 C   0  0  0  0  0  0  0  0  0  0  0  0
  -25.9246  -15.0889   20.4512 N   0  0  0  0  0  0  0  0  0  0  0  0
  -26.9749  -14.6641   21.1739 N   0  0  0  0  0  0  0  0  0  0  0  0
  -24.7283  -28.1795   20.4484 N   0  0  0  0  0  0  0  0  0  0  0  0
  -29.2080  -13.3234   18.3679 N   0  0  0  0  0  0  0  0  0  0  0  0
  -27.9375  -14.7479   23.3365 N   0  0  0  0  0  0  0  0  0  0  0  0
  -24.1834  -17.2206   23.7705 N   0  0  0  0  0  0  0  0  0  0  0  0
  -26.0365  -30.7790   22.1515 N   0  0  0  0  0  0  0  0  0  0  0  0
  -21.5337  -27.1649   19.9755 N   0  0  0  0  0  0  0  0  0  0  0  0
  -30.7317  -15.0217   17.6323 N   0  0  0  0  0  0  0  0  0  0  0  0
  -30.2572  -21.2999   19.4338 N   0  3  2  0  0  0  0  0  0  0  0  0
  -20.8739  -25.4893   16.8411 N   0  3  0  0  0  0  0  0  0  0  0  0
  -26.0350  -16.4375   24.8736 O   0  0  0  0  0  0  0  0  0  0  0  0
  -26.9763  -28.6485   22.1472 O   0  0  0  0  0  0  0  0  0  0  0  0
  -22.8913  -29.6058   20.6142 O   0  0  0  0  0  0  0  0  0  0  0  0
  -22.2968  -25.1033   19.2375 O   0  0  0  0  0  0  0  0  0  0  0  0
  -30.2792  -13.1774   16.3196 O   0  0  0  0  0  0  0  0  0  0  0  0
  -20.4529  -18.2740   19.7694 O   0  0  0  0  0  0  0  0  0  0  0  0
  -28.9836  -23.8352   19.4129 O   0  0  0  0  0  0  0  0  0  1  0  0
  -19.6259  -23.4896   21.3561 F   0  0  0  0  0  0  0  0  0  0  0  0
  -20.0980  -20.2843   17.9052 F   0  0  0  0  0  0  0  0  0  0  0  0
  1  2  1  0  0  0  0
  1  5  2  0  0  0  0
  2  6  2  0  0  0  0
  3  8  2  0  0  0  0
  3 17  1  0  0  0  0
  4  9  1  0  0  0  0
  4 17  2  0  0  0  0
  5 19  1  0  0  0  0
  6 21  1  0  0  0  0
  7 10  2  0  0  0  0
  7 20  1  0  0  0  0
  8 27  1  0  0  0  0
  9 27  2  0  0  0  0
 10 28  1  0  0  0  0
 11 12  2  0  0  0  0
 11 29  1  0  0  0  0
 12 30  1  0  0  0  0
 13 22  2  0  0  0  0
 13 26  1  0  0  0  0
 14 23  1  0  0  0  0
 14 28  2  0  0  0  0
 15 24  2  0  0  0  0
 15 25  1  0  0  0  0
 16 30  2  0  0  0  0
 16 31  1  0  0  0  0
 17 32  1  0  0  0  0
 18 32  1  0  0  0  0
 18 33  2  0  0  0  0
 18 34  1  0  0  0  0
 19 21  2  0  0  0  0
 19 39  1  0  0  0  0
 20 23  2  0  0  0  0
 20 40  1  0  0  0  0
 21 51  1  0  0  0  0
 22 24  1  0  0  0  0
 22 50  1  0  0  0  0
 23 41  1  0  0  0  0
 24 55  1  0  0  0  0
 25 26  2  0  0  0  0
 25 56  1  0  0  0  0
 26 78  1  0  0  0  0
 27 86  1  0  0  0  0
 28 87  1  0  0  0  0
 29 31  2  0  0  0  0
 29 86  1  0  0  0  0
 30 88  1  0  0  0  0
 31 89  1  0  0  0  0
 32 70  2  0  0  0  0
 33 71  1  0  0  0  0
 33 74  1  0  0  0  0
 34 75  1  0  0  0  0
 34 81  2  0  0  0  0
 35 52  1  0  0  0  0
 35 76  1  0  0  0  0
 35 82  2  0  0  0  0
 36 67  1  0  0  0  0
 36 72  1  0  0  0  0
 36 83  2  0  0  0  0
 37 68  1  0  0  0  0
 37 77  1  0  0  0  0
 37 84  2  0  0  0  0
 38 73  1  0  0  0  0
 38 78  1  0  0  0  0
 38 85  2  0  0  0  0
 39 42  1  0  0  0  0
 40 52  1  0  0  0  0
 41 72  1  0  0  0  0
 42 44  1  0  0  0  0
 43 45  1  0  0  0  0
 43 47  1  0  0  0  0
 44 51  1  0  0  0  0
 45 53  1  0  0  0  0
 46 49  1  0  0  0  0
 46 50  1  0  0  0  0
 47 73  1  0  0  0  0
 48 53  1  0  0  0  0
 48 73  1  0  0  0  0
 49 79  1  0  0  0  0
 50 54  1  0  0  0  0
 51 76  1  0  0  0  0
 52 72  1  0  0  0  0
 53 71  1  0  0  0  0
 54 57  1  0  0  0  0
 54 79  1  0  0  0  0
 58 64  1  0  0  0  0
 59 68  1  0  0  0  0
 60 69  1  0  0  0  0
 61 69  1  0  0  0  0
 62 69  1  0  0  0  0
 63 80  1  0  0  0  0
 64 78  1  0  0  0  0
 65 66  1  0  0  0  0
 65 79  1  0  0  0  0
 66 87  1  0  0  0  0
 67 69  1  0  0  0  0
 67 77  1  0  0  0  0
 68 80  1  0  0  0  0
 70 71  1  0  0  0  0
M  CHG  2  79   1  80   1
M  ISO  4  38 100  66 101  78 100  87 101
M  END
> <Batch ID>
0159

> <Smiles>
CC[100N:0](c1cc(C2CCN(C[101CH2:1][101O:1]c3ccc4c(c3)CN(C(=O)C(NC(=O)C(C)NC)C(C)(C)C)C(C(=O)NC3CCCc5ccccc53)C4)C2C)c(C)cc1C)[100C:0](=O)N1CCCC(n2nc(-c3ccc(Oc4ccc(F)cc4F)cc3)c(C(N)=O)c2N)C1

> <Shape>
0.267

> <Color>
0.051

> <Negative vol penalty>
0.000

$$$$

  -OEChem-04052322073D

 90100  0     1  0  0  0  0  0999 V2000
  -22.8016  -29.3000   22.9196 C   0  0  0  0  0  0  0  0  0  0  0  0
  -23.1933  -27.9828   23.1364 C   0  0  0  0  0  0  0  0  0  0  0  0
  -29.1202  -26.0849   18.1419 C   0  0  0  0  0  0  0  0  0  0  0  0
  -27.8323  -24.7662   16.5800 C   0  0  0  0  0  0  0  0  0  0  0  0
  -21.4699  -29.5908   22.6262 C   0  0  0  0  0  0  0  0  0  0  0  0
  -22.2533  -26.9557   23.0610 C   0  0  0  0  0  0  0  0  0  0  0  0
  -23.1795  -21.2610   21.0071 C   0  0  0  0  0  0  0  0  0  0  0  0
  -29.2684  -27.0820   17.1779 C   0  0  0  0  0  0  0  0  0  0  0  0
  -27.9804  -25.7634   15.6160 C   0  0  0  0  0  0  0  0  0  0  0  0
  -23.4250  -20.0556   21.6632 C   0  0  0  0  0  0  0  0  0  0  0  0
  -26.6006  -28.7660   14.9081 C   0  0  0  0  0  0  0  0  0  0  0  0
  -25.4696  -29.1338   14.1794 C   0  0  0  0  0  0  0  0  0  0  0  0
  -21.0756  -19.5207   21.5466 C   0  0  0  0  0  0  0  0  0  0  0  0
  -25.6686  -11.7204   20.3968 C   0  0  0  0  0  0  0  0  0  0  0  0
  -26.5790  -28.4890   12.1323 C   0  0  0  0  0  0  0  0  0  0  0  0
  -28.4022  -24.9269   17.8430 C   0  0  0  0  0  0  0  0  0  0  0  0
  -27.2172  -23.7785   19.7884 C   0  0  0  0  0  0  0  0  0  0  0  0
  -20.5150  -28.5656   22.5377 C   0  0  0  0  0  0  0  0  0  0  0  0
  -21.8765  -21.6108   20.6249 C   0  0  0  0  0  0  0  0  0  0  0  0
  -20.9073  -27.2331   22.7675 C   0  0  0  0  0  0  0  0  0  0  0  0
  -20.8167  -20.7299   20.8835 C   0  0  0  0  0  0  0  0  0  0  0  0
  -25.4321  -14.1248   20.4139 C   0  0  0  0  0  0  0  0  0  0  0  0
  -24.3747  -11.5896   20.9010 C   0  0  0  0  0  0  0  0  0  0  0  0
  -24.1381  -13.9939   20.9181 C   0  0  0  0  0  0  0  0  0  0  0  0
  -23.6094  -12.7263   21.1616 C   0  0  0  0  0  0  0  0  0  0  0  0
  -28.6984  -26.9213   15.9149 C   0  0  0  0  0  0  0  0  0  0  0  0
  -22.3726  -19.1865   21.9356 C   0  0  0  0  0  0  0  0  0  0  0  0
  -27.7208  -28.2597   14.2490 C   0  0  0  0  0  0  0  0  0  0  0  0
  -26.1973  -12.9881   20.1533 C   0  0  0  0  0  0  0  0  0  0  0  0
  -25.4588  -28.9953   12.7914 C   0  0  0  0  0  0  0  0  0  0  0  0
  -27.7100  -28.1212   12.8611 C   0  0  0  0  0  0  0  0  0  0  0  0
  -28.2493  -23.8963   18.8382 C   0  0  0  0  0  0  0  0  0  0  0  0
  -27.5270  -22.6406   20.4924 C   0  0  0  0  0  0  0  0  0  0  0  0
  -26.0802  -24.6222   20.0143 C   0  0  0  0  0  0  0  0  0  0  0  0
  -19.8822  -23.9749   21.3583 C   0  0  0  0  0  0  0  0  0  0  0  0
  -18.0526  -22.6276   19.0431 C   0  0  0  0  0  0  0  0  0  0  0  0
  -17.2548  -19.8471   17.2323 C   0  0  0  0  0  0  0  0  0  0  0  0
  -29.2167  -17.3273   20.6014 C   0  0  0  0  0  0  0  0  0  0  0  0
  -19.0781  -28.9337   22.2645 C   0  0  0  0  0  0  0  0  0  0  0  0
  -21.6322  -22.9026   19.8942 C   0  0  0  0  0  0  0  0  0  0  0  0
  -19.4024  -21.0495   20.4759 C   0  0  0  0  0  0  0  0  0  0  0  0
  -18.2173  -27.7490   21.8335 C   0  0  0  0  0  0  0  0  0  0  0  0
  -31.7102  -19.8301   20.5638 C   0  0  0  0  0  0  0  0  0  0  0  0
  -18.4618  -26.5514   22.7461 C   0  0  0  0  0  0  0  0  0  0  0  0
  -30.9644  -21.0983   20.1578 C   0  0  0  0  0  0  0  0  0  0  0  0
  -23.2363  -15.3359   23.7945 C   0  0  0  0  0  0  0  0  0  0  0  0
  -24.6798  -15.1720   23.4132 C   0  0  0  0  0  0  0  0  0  0  0  0
  -26.4780  -15.7847   18.7109 C   0  0  0  0  0  0  0  0  0  0  0  0
  -31.1683  -18.6204   19.8142 C   0  0  0  0  0  0  0  0  0  0  0  0
  -27.3481  -17.0236   18.8750 C   0  0  0  0  0  0  0  0  0  0  0  0
  -27.2855  -15.8157   20.9436 C   0  0  0  0  0  0  0  0  0  0  0  0
  -28.9245  -19.6621   19.6388 C   0  0  0  0  0  0  0  0  0  0  0  0
  -26.0125  -15.4961   20.1473 C   0  0  2  0  0  0  0  0  0  0  0  0
  -19.9218  -26.0888   22.6699 C   0  0  1  0  0  0  0  0  0  0  0  0
  -20.1914  -23.3908   20.0089 C   0  0  1  0  0  0  0  0  0  0  0  0
  -29.4507  -20.9231   20.3551 C   0  0  2  0  0  0  0  0  0  0  0  0
  -23.7376  -15.9069   22.4886 C   0  0  0  0  0  0  0  0  0  0  0  0
  -23.8331  -10.2206   21.1538 C   0  0  0  0  0  0  0  0  0  0  0  0
  -22.2216  -12.5826   21.7017 C   0  0  0  0  0  0  0  0  0  0  0  0
  -15.6925  -19.0450   15.4397 C   0  0  0  0  0  0  0  0  0  0  0  0
  -15.7783  -22.5253   21.0745 C   0  0  0  0  0  0  0  0  0  0  0  0
  -14.6058  -20.8983   19.5757 C   0  0  0  0  0  0  0  0  0  0  0  0
  -15.0886  -23.2092   18.7699 C   0  0  0  0  0  0  0  0  0  0  0  0
  -19.4947  -19.1839   15.4150 C   0  0  0  0  0  0  0  0  0  0  0  0
  -28.1721  -11.8814   19.4242 C   0  0  0  0  0  0  0  0  0  0  0  0
  -23.3178  -15.2136   21.1972 C   0  0  0  0  0  0  0  0  0  0  0  0
  -23.8786  -17.4003   22.3797 C   0  0  0  0  0  0  0  0  0  1  0  0
  -16.9880  -21.5578   19.0089 C   0  0  1  0  0  0  0  0  0  0  0  0
  -17.0602  -19.6375   15.7414 C   0  0  2  0  0  0  0  0  0  0  0  0
  -15.6414  -22.0422   19.6168 C   0  0  0  0  0  0  0  0  0  0  0  0
  -29.1475  -22.9119   18.9278 N   0  0  0  0  0  0  0  0  0  0  0  0
  -28.6809  -22.1647   19.9428 N   0  0  0  0  0  0  0  0  0  0  0  0
  -19.2136  -22.3274   19.7696 N   0  0  0  0  0  0  0  0  0  0  0  0
  -29.7212  -18.4780   19.9853 N   0  0  0  0  0  0  0  0  0  0  0  0
  -27.9707  -16.8586   20.1868 N   0  0  0  0  0  0  0  0  0  0  0  0
  -26.9221  -22.0107   21.5219 N   0  0  0  0  0  0  0  0  0  0  0  0
  -25.9134  -25.7508   19.2002 N   0  0  0  0  0  0  0  0  0  0  0  0
  -20.1482  -25.3270   21.4605 N   0  0  0  0  0  0  0  0  0  0  0  0
  -16.8937  -21.1199   17.6205 N   0  0  0  0  0  0  0  0  0  0  0  0
  -18.1008  -18.7136   15.2080 N   0  3  0  0  0  0  0  0  0  0  0  0
  -25.2460  -24.3914   20.9223 O   0  0  0  0  0  0  0  0  0  0  0  0
  -19.4339  -23.2526   22.2409 O   0  0  0  0  0  0  0  0  0  0  0  0
  -17.8642  -23.6877   18.4411 O   0  0  0  0  0  0  0  0  0  0  0  0
  -17.6808  -18.9683   17.9784 O   0  0  0  0  0  0  0  0  0  0  0  0
  -29.8706  -16.7179   21.4587 O   0  0  0  0  0  0  0  0  0  0  0  0
  -28.8426  -27.8942   14.9741 O   0  0  0  0  0  0  0  0  0  0  0  0
  -27.4630  -13.0960   19.6606 O   0  0  0  0  0  0  0  0  0  0  0  0
  -22.6114  -17.9990   22.5822 O   0  0  0  0  0  0  0  0  0  1  0  0
  -24.3721  -29.3471   12.0918 F   0  0  0  0  0  0  0  0  0  0  0  0
  -28.7828  -27.6343   12.2224 F   0  0  0  0  0  0  0  0  0  0  0  0
  1  2  1  0  0  0  0
  1  5  2  0  0  0  0
  2  6  2  0  0  0  0
  3  8  2  0  0  0  0
  3 16  1  0  0  0  0
  4  9  1  0  0  0  0
  4 16  2  0  0  0  0
  5 18  1  0  0  0  0
  6 20  1  0  0  0  0
  7 10  2  0  0  0  0
  7 19  1  0  0  0  0
  8 26  1  0  0  0  0
  9 26  2  0  0  0  0
 10 27  1  0  0  0  0
 11 12  2  0  0  0  0
 11 28  1  0  0  0  0
 12 30  1  0  0  0  0
 13 21  1  0  0  0  0
 13 27  2  0  0  0  0
 14 23  1  0  0  0  0
 14 29  2  0  0  0  0
 15 30  2  0  0  0  0
 15 31  1  0  0  0  0
 16 32  1  0  0  0  0
 17 32  1  0  0  0  0
 17 33  2  0  0  0  0
 17 34  1  0  0  0  0
 18 20  2  0  0  0  0
 18 39  1  0  0  0  0
 19 21  2  0  0  0  0
 19 40  1  0  0  0  0
 20 54  1  0  0  0  0
 21 41  1  0  0  0  0
 22 24  2  0  0  0  0
 22 29  1  0  0  0  0
 22 53  1  0  0  0  0
 23 25  2  0  0  0  0
 23 58  1  0  0  0  0
 24 25  1  0  0  0  0
 24 66  1  0  0  0  0
 25 59  1  0  0  0  0
 26 86  1  0  0  0  0
 27 88  1  0  0  0  0
 28 31  2  0  0  0  0
 28 86  1  0  0  0  0
 29 87  1  0  0  0  0
 30 89  1  0  0  0  0
 31 90  1  0  0  0  0
 32 71  2  0  0  0  0
 33 72  1  0  0  0  0
 33 76  1  0  0  0  0
 34 77  1  0  0  0  0
 34 81  2  0  0  0  0
 35 55  1  0  0  0  0
 35 78  1  0  0  0  0
 35 82  2  0  0  0  0
 36 68  1  0  0  0  0
 36 73  1  0  0  0  0
 36 83  2  0  0  0  0
 37 69  1  0  0  0  0
 37 79  1  0  0  0  0
 37 84  2  0  0  0  0
 38 74  1  0  0  0  0
 38 75  1  0  0  0  0
 38 85  2  0  0  0  0
 39 42  1  0  0  0  0
 40 55  1  0  0  0  0
 41 73  1  0  0  0  0
 42 44  1  0  0  0  0
 43 45  1  0  0  0  0
 43 49  1  0  0  0  0
 44 54  1  0  0  0  0
 45 56  1  0  0  0  0
 46 47  1  0  0  0  0
 46 57  1  0  0  0  0
 47 57  1  0  0  0  0
 48 50  1  0  0  0  0
 48 53  1  0  0  0  0
 49 74  1  0  0  0  0
 50 75  1  0  0  0  0
 51 53  1  0  0  0  0
 51 75  1  0  0  0  0
 52 56  1  0  0  0  0
 52 74  1  0  0  0  0
 54 78  1  0  0  0  0
 55 73  1  0  0  0  0
 56 72  1  0  0  0  0
 57 66  1  0  0  0  0
 57 67  1  0  0  0  0
 60 69  1  0  0  0  0
 61 70  1  0  0  0  0
 62 70  1  0  0  0  0
 63 70  1  0  0  0  0
 64 80  1  0  0  0  0
 65 87  1  0  0  0  0
 67 88  1  0  0  0  0
 68 70  1  0  0  0  0
 68 79  1  0  0  0  0
 69 80  1  0  0  0  0
 71 72  1  0  0  0  0
M  CHG  1  80   1
M  ISO  4  38 100  67 101  75 100  88 101
M  END
> <Batch ID>
0159

> <Smiles>
CNC(C)C(=O)NC(C(=O)N1Cc2cc([101O:1][101CH2:1]C3(Cc4c(C)c(C)cc(OC)c4C4CC[100N:0]([100C:0](=O)N5CCCC(n6nc(-c7ccc(Oc8ccc(F)cc8F)cc7)c(C(N)=O)c6N)C5)C4)CC3)ccc2CC1C(=O)NC1CCCc2ccccc21)C(C)(C)C

> <Shape>
0.193

> <Color>
0.054

> <Negative vol penalty>
0.000

$$$$

  -OEChem-04052322073D

 89 99  0     1  0  0  0  0  0999 V2000
  -23.5255  -31.4696   31.1120 C   0  0  0  0  0  0  0  0  0  0  0  0
  -24.5598  -30.5895   30.8104 C   0  0  0  0  0  0  0  0  0  0  0  0
  -23.1107   -9.8539   21.3951 C   0  0  0  0  0  0  0  0  0  0  0  0
  -23.8738  -10.6879   23.5304 C   0  0  0  0  0  0  0  0  0  0  0  0
  -22.6096  -31.8316   30.1251 C   0  0  0  0  0  0  0  0  0  0  0  0
  -24.6781  -30.0698   29.5218 C   0  0  0  0  0  0  0  0  0  0  0  0
  -29.6192  -27.9334   24.7955 C   0  0  0  0  0  0  0  0  0  0  0  0
  -22.3944   -8.8482   22.0439 C   0  0  0  0  0  0  0  0  0  0  0  0
  -23.1574   -9.6822   24.1792 C   0  0  0  0  0  0  0  0  0  0  0  0
  -29.9373  -26.8414   23.9892 C   0  0  0  0  0  0  0  0  0  0  0  0
  -23.0446   -5.8602   23.4839 C   0  0  0  0  0  0  0  0  0  0  0  0
  -23.1341   -4.5668   22.9694 C   0  0  0  0  0  0  0  0  0  0  0  0
  -27.9000  -19.7868   19.8970 C   0  0  0  0  0  0  0  0  0  0  0  0
  -28.3435  -27.5993   22.3446 C   0  0  0  0  0  0  0  0  0  0  0  0
  -20.7458   -4.5466   22.6050 C   0  0  0  0  0  0  0  0  0  0  0  0
  -23.8505  -10.7738   22.1383 C   0  0  0  0  0  0  0  0  0  0  0  0
  -24.1330  -13.0999   21.1298 C   0  0  0  0  0  0  0  0  0  0  0  0
  -22.7224  -31.3237   28.8213 C   0  0  0  0  0  0  0  0  0  0  0  0
  -28.6513  -28.8622   24.3867 C   0  0  0  0  0  0  0  0  0  0  0  0
  -23.7620  -30.4243   28.5168 C   0  0  0  0  0  0  0  0  0  0  0  0
  -28.3381  -20.8708   20.6971 C   0  0  0  0  0  0  0  0  0  0  0  0
  -28.0168  -28.7036   23.1464 C   0  0  0  0  0  0  0  0  0  0  0  0
  -30.1967  -19.5060   21.4109 C   0  0  0  0  0  0  0  0  0  0  0  0
  -29.5136  -20.7261   21.4716 C   0  0  0  0  0  0  0  0  0  0  0  0
  -29.7406  -18.4480   20.6101 C   0  0  0  0  0  0  0  0  0  0  0  0
  -28.5969  -18.5794   19.8463 C   0  0  0  0  0  0  0  0  0  0  0  0
  -22.4177   -8.7623   23.4359 C   0  0  0  0  0  0  0  0  0  0  0  0
  -29.2973  -26.6727   22.7648 C   0  0  0  0  0  0  0  0  0  0  0  0
  -21.8057   -6.4968   23.5590 C   0  0  0  0  0  0  0  0  0  0  0  0
  -21.9847   -3.9100   22.5299 C   0  0  0  0  0  0  0  0  0  0  0  0
  -20.6563   -5.8400   23.1195 C   0  0  0  0  0  0  0  0  0  0  0  0
  -24.5911  -11.8126   21.4687 C   0  0  0  0  0  0  0  0  0  0  0  0
  -25.2068  -13.6955   20.5144 C   0  0  0  0  0  0  0  0  0  0  0  0
  -22.8514  -13.7033   21.3516 C   0  0  0  0  0  0  0  0  0  0  0  0
  -25.8423  -29.8221   25.5231 C   0  0  0  0  0  0  0  0  0  0  0  0
  -26.0415  -31.9785   23.1080 C   0  0  0  0  0  0  0  0  0  0  0  0
  -27.3370  -32.8041   20.0606 C   0  0  0  0  0  0  0  0  0  0  0  0
  -30.6655  -14.8320   20.2770 C   0  0  0  0  0  0  0  0  0  0  0  0
  -21.6806  -31.7070   27.8002 C   0  0  0  0  0  0  0  0  0  0  0  0
  -28.3389  -30.0493   25.2559 C   0  0  0  0  0  0  0  0  0  0  0  0
  -31.4933  -19.1260   22.0703 C   0  0  0  0  0  0  0  0  0  0  0  0
  -26.9852  -29.6835   22.6524 C   0  0  0  0  0  0  0  0  0  0  0  0
  -22.0962  -31.4042   26.3629 C   0  0  0  0  0  0  0  0  0  0  0  0
  -31.4580  -17.5955   21.9613 C   0  0  0  0  0  0  0  0  0  0  0  0
  -29.5802  -11.7336   18.8988 C   0  0  0  0  0  0  0  0  0  0  0  0
  -22.6789  -29.9982   26.2605 C   0  0  0  0  0  0  0  0  0  0  0  0
  -28.1507  -11.5815   19.4215 C   0  0  0  0  0  0  0  0  0  0  0  0
  -30.4938  -12.3845   19.9350 C   0  0  0  0  0  0  0  0  0  0  0  0
  -28.5776  -13.5181   20.9919 C   0  0  0  0  0  0  0  0  0  0  0  0
  -30.0145  -21.8509   22.3600 C   0  0  1  0  0  0  0  0  0  0  0  0
  -23.9382  -29.8587   27.1243 C   0  0  1  0  0  0  0  0  0  0  0  0
  -30.6829  -17.2819   20.6728 C   0  0  1  0  0  0  0  0  0  0  0  0
  -26.9667  -30.6528   24.9724 C   0  0  1  0  0  0  0  0  0  0  0  0
  -27.6060  -12.9175   19.9616 C   0  0  2  0  0  0  0  0  0  0  0  0
  -29.6132  -23.2169   21.7748 C   0  0  2  0  0  0  0  0  0  0  0  0
  -27.5635  -22.1901   20.6683 C   0  0  0  0  0  0  0  0  0  0  0  0
  -28.1070  -17.4935   18.9517 C   0  0  0  0  0  0  0  0  0  0  0  0
  -29.5382  -21.6197   23.8026 C   0  0  0  0  0  0  0  0  0  0  0  0
  -26.1008  -21.9872   21.1057 C   0  0  0  0  0  0  0  0  0  0  0  0
  -27.6016  -22.8103   19.2573 C   0  0  0  0  0  0  0  0  0  0  0  0
  -27.2870  -34.6147   18.3238 C   0  0  0  0  0  0  0  0  0  0  0  0
  -23.2891  -31.0263   22.1982 C   0  0  0  0  0  0  0  0  0  0  0  0
  -23.7078  -32.1422   19.9965 C   0  0  0  0  0  0  0  0  0  0  0  0
  -23.6262  -33.5019   22.0863 C   0  0  0  0  0  0  0  0  0  0  0  0
  -30.2411  -33.3055   20.3326 C   0  0  0  0  0  0  0  0  0  0  0  0
  -30.0266  -24.4135   22.6234 C   0  0  0  0  0  0  0  0  0  1  0  0
  -25.6174  -32.0035   21.6594 C   0  0  1  0  0  0  0  0  0  0  0  0
  -27.9953  -34.0759   19.5570 C   0  0  2  0  0  0  0  0  0  0  0  0
  -24.0781  -32.1488   21.4950 C   0  0  0  0  0  0  0  0  0  0  0  0
  -25.8572  -11.6020   21.0990 N   0  0  0  0  0  0  0  0  0  0  0  0
  -26.2038  -12.7649   20.5215 N   0  0  0  0  0  0  0  0  0  0  0  0
  -26.7095  -30.8244   23.5411 N   0  0  0  0  0  0  0  0  0  0  0  0
  -29.9207  -13.6479   20.4053 N   0  0  0  0  0  0  0  0  0  0  0  0
  -25.3859  -14.9192   19.9732 N   0  0  0  0  0  0  0  0  0  0  0  0
  -21.8616  -12.9509   21.9984 N   0  0  0  0  0  0  0  0  0  0  0  0
  -25.0721  -30.4732   26.4677 N   0  0  0  0  0  0  0  0  0  0  0  0
  -26.3890  -33.0677   21.0265 N   0  0  0  0  0  0  0  0  0  0  0  0
  -30.0461  -15.9856   20.7419 N   0  0  0  0  0  0  0  0  0  0  0  0
  -28.1231  -23.2458   21.6177 N   0  3  0  0  0  0  0  0  0  0  0  0
  -29.4202  -33.8173   19.2051 N   0  3  0  0  0  0  0  0  0  0  0  0
  -22.5866  -14.8693   20.9724 O   0  0  0  0  0  0  0  0  0  0  0  0
  -25.6842  -28.6758   25.1197 O   0  0  0  0  0  0  0  0  0  0  0  0
  -25.7956  -32.9502   23.8270 O   0  0  0  0  0  0  0  0  0  0  0  0
  -27.6316  -31.6887   19.6367 O   0  0  0  0  0  0  0  0  0  0  0  0
  -31.7963  -14.8598   19.7796 O   0  0  0  0  0  0  0  0  0  0  0  0
  -21.7187   -7.7812   24.0694 O   0  0  0  0  0  0  0  0  0  0  0  0
  -29.6082  -25.5979   21.9691 O   0  0  0  0  0  0  0  0  0  1  0  0
  -22.0709   -2.6686   22.0344 F   0  0  0  0  0  0  0  0  0  0  0  0
  -19.4635   -6.4469   23.1881 F   0  0  0  0  0  0  0  0  0  0  0  0
  1  2  1  0  0  0  0
  1  5  2  0  0  0  0
  2  6  2  0  0  0  0
  3  8  2  0  0  0  0
  3 16  1  0  0  0  0
  4  9  1  0  0  0  0
  4 16  2  0  0  0  0
  5 18  1  0  0  0  0
  6 20  1  0  0  0  0
  7 10  2  0  0  0  0
  7 19  1  0  0  0  0
  8 27  1  0  0  0  0
  9 27  2  0  0  0  0
 10 28  1  0  0  0  0
 11 12  2  0  0  0  0
 11 29  1  0  0  0  0
 12 30  1  0  0  0  0
 13 21  1  0  0  0  0
 13 26  2  0  0  0  0
 14 22  1  0  0  0  0
 14 28  2  0  0  0  0
 15 30  2  0  0  0  0
 15 31  1  0  0  0  0
 16 32  1  0  0  0  0
 17 32  1  0  0  0  0
 17 33  2  0  0  0  0
 17 34  1  0  0  0  0
 18 20  2  0  0  0  0
 18 39  1  0  0  0  0
 19 22  2  0  0  0  0
 19 40  1  0  0  0  0
 20 51  1  0  0  0  0
 21 24  2  0  0  0  0
 21 56  1  0  0  0  0
 22 42  1  0  0  0  0
 23 24  1  0  0  0  0
 23 25  2  0  0  0  0
 23 41  1  0  0  0  0
 24 50  1  0  0  0  0
 25 26  1  0  0  0  0
 25 52  1  0  0  0  0
 26 57  1  0  0  0  0
 27 86  1  0  0  0  0
 28 87  1  0  0  0  0
 29 31  2  0  0  0  0
 29 86  1  0  0  0  0
 30 88  1  0  0  0  0
 31 89  1  0  0  0  0
 32 70  2  0  0  0  0
 33 71  1  0  0  0  0
 33 74  1  0  0  0  0
 34 75  1  0  0  0  0
 34 81  2  0  0  0  0
 35 53  1  0  0  0  0
 35 76  1  0  0  0  0
 35 82  2  0  0  0  0
 36 67  1  0  0  0  0
 36 72  1  0  0  0  0
 36 83  2  0  0  0  0
 37 68  1  0  0  0  0
 37 77  1  0  0  0  0
 37 84  2  0  0  0  0
 38 73  1  0  0  0  0
 38 78  1  0  0  0  0
 38 85  2  0  0  0  0
 39 43  1  0  0  0  0
 40 53  1  0  0  0  0
 41 44  1  0  0  0  0
 42 72  1  0  0  0  0
 43 46  1  0  0  0  0
 44 52  1  0  0  0  0
 45 47  1  0  0  0  0
 45 48  1  0  0  0  0
 46 51  1  0  0  0  0
 47 54  1  0  0  0  0
 48 73  1  0  0  0  0
 49 54  1  0  0  0  0
 49 73  1  0  0  0  0
 50 55  1  0  0  0  0
 50 58  1  0  0  0  0
 51 76  1  0  0  0  0
 52 78  1  0  0  0  0
 53 72  1  0  0  0  0
 54 71  1  0  0  0  0
 55 66  1  0  0  0  0
 55 79  1  0  0  0  0
 56 59  1  0  0  0  0
 56 60  1  0  0  0  0
 56 79  1  0  0  0  0
 61 68  1  0  0  0  0
 62 69  1  0  0  0  0
 63 69  1  0  0  0  0
 64 69  1  0  0  0  0
 65 80  1  0  0  0  0
 66 87  1  0  0  0  0
 67 69  1  0  0  0  0
 67 77  1  0  0  0  0
 68 80  1  0  0  0  0
 70 71  1  0  0  0  0
M  CHG  2  79   1  80   1
M  ISO  4  38 100  66 101  78 100  87 101
M  END
> <Batch ID>
0159

> <Smiles>
CNC(C)C(=O)NC(C(=O)N1Cc2cc([101O:1][101CH2:1]C3NC(C)(C)c4cc(C)c5c(c4C3C)CCC5[100NH:0][100C:0](=O)N3CCCC(n4nc(-c5ccc(Oc6ccc(F)cc6F)cc5)c(C(N)=O)c4N)C3)ccc2CC1C(=O)NC1CCCc2ccccc21)C(C)(C)C

> <Shape>
0.297

> <Color>
0.144

> <Negative vol penalty>
0.000

$$$$

  -OEChem-04052322073D

 88 98  0     1  0  0  0  0  0999 V2000
  -17.9268  -31.1736   25.2670 C   0  0  0  0  0  0  0  0  0  0  0  0
  -18.0787  -31.1766   23.8850 C   0  0  0  0  0  0  0  0  0  0  0  0
  -23.2291  -10.1236   22.6626 C   0  0  0  0  0  0  0  0  0  0  0  0
  -23.5120  -10.0999   20.2633 C   0  0  0  0  0  0  0  0  0  0  0  0
  -18.9989  -30.8152   26.0815 C   0  0  0  0  0  0  0  0  0  0  0  0
  -19.2991  -30.8098   23.3167 C   0  0  0  0  0  0  0  0  0  0  0  0
  -25.4865  -27.9411   18.5324 C   0  0  0  0  0  0  0  0  0  0  0  0
  -22.5145   -8.9279   22.5901 C   0  0  0  0  0  0  0  0  0  0  0  0
  -22.7975   -8.9042   20.1909 C   0  0  0  0  0  0  0  0  0  0  0  0
  -26.7017  -27.3036   18.7786 C   0  0  0  0  0  0  0  0  0  0  0  0
  -23.1984   -5.6338   22.2522 C   0  0  0  0  0  0  0  0  0  0  0  0
  -23.5085   -4.6363   23.1765 C   0  0  0  0  0  0  0  0  0  0  0  0
  -28.6521  -19.5047   19.3771 C   0  0  0  0  0  0  0  0  0  0  0  0
  -25.6551  -25.9908   20.5108 C   0  0  0  0  0  0  0  0  0  0  0  0
  -21.2381   -4.6940   24.0004 C   0  0  0  0  0  0  0  0  0  0  0  0
  -23.7278  -10.7097   21.4991 C   0  0  0  0  0  0  0  0  0  0  0  0
  -25.6621  -12.1798   22.2768 C   0  0  0  0  0  0  0  0  0  0  0  0
  -20.2364  -30.4560   25.5224 C   0  0  0  0  0  0  0  0  0  0  0  0
  -24.3471  -27.6155   19.2823 C   0  0  0  0  0  0  0  0  0  0  0  0
  -20.3859  -30.4219   24.1211 C   0  0  0  0  0  0  0  0  0  0  0  0
  -29.7445  -20.2778   19.7703 C   0  0  0  0  0  0  0  0  0  0  0  0
  -24.4261  -26.6239   20.2705 C   0  0  0  0  0  0  0  0  0  0  0  0
  -30.9762  -19.6710   20.0155 C   0  0  0  0  0  0  0  0  0  0  0  0
  -31.1156  -18.2910   19.8677 C   0  0  0  0  0  0  0  0  0  0  0  0
  -30.0232  -17.5178   19.4745 C   0  0  0  0  0  0  0  0  0  0  0  0
  -28.7914  -18.1247   19.2293 C   0  0  0  0  0  0  0  0  0  0  0  0
  -22.2987   -8.3182   21.3543 C   0  0  0  0  0  0  0  0  0  0  0  0
  -26.7868  -26.3303   19.7699 C   0  0  0  0  0  0  0  0  0  0  0  0
  -21.9082   -6.1615   22.2020 C   0  0  0  0  0  0  0  0  0  0  0  0
  -22.5284   -4.1664   24.0506 C   0  0  0  0  0  0  0  0  0  0  0  0
  -20.9280   -5.6916   23.0761 C   0  0  0  0  0  0  0  0  0  0  0  0
  -24.4656  -11.9451   21.5732 C   0  0  0  0  0  0  0  0  0  0  0  0
  -25.9520  -13.4996   22.0306 C   0  0  0  0  0  0  0  0  0  0  0  0
  -26.4419  -11.2848   23.0809 C   0  0  0  0  0  0  0  0  0  0  0  0
  -22.4305  -29.2074   21.2562 C   0  0  0  0  0  0  0  0  0  0  0  0
  -20.7168  -26.4541   21.1874 C   0  0  0  0  0  0  0  0  0  0  0  0
  -21.4152  -22.9151   21.2585 C   0  0  0  0  0  0  0  0  0  0  0  0
  -26.3840  -17.8246   18.5505 C   0  0  0  0  0  0  0  0  0  0  0  0
  -21.3609  -30.0693   26.4504 C   0  0  0  0  0  0  0  0  0  0  0  0
  -23.0374  -28.2934   18.9863 C   0  0  0  0  0  0  0  0  0  0  0  0
  -23.2273  -26.2235   21.0897 C   0  0  0  0  0  0  0  0  0  0  0  0
  -22.7303  -30.1272   25.7814 C   0  0  0  0  0  0  0  0  0  0  0  0
  -23.1594  -17.1429   19.8975 C   0  0  0  0  0  0  0  0  0  0  0  0
  -32.8655  -20.1522   21.7104 C   0  0  0  0  0  0  0  0  0  0  0  0
  -32.0154  -21.3826   21.6492 C   0  0  0  0  0  0  0  0  0  0  0  0
  -28.5428  -22.1213   21.0228 C   0  0  0  0  0  0  0  0  0  0  0  0
  -29.1875  -22.4473   18.5902 C   0  0  0  0  0  0  0  0  0  0  0  0
  -22.6920  -29.3855   24.4536 C   0  0  0  0  0  0  0  0  0  0  0  0
  -23.3102  -15.7492   20.5114 C   0  0  0  0  0  0  0  0  0  0  0  0
  -28.3748  -23.6310   21.1739 C   0  0  0  0  0  0  0  0  0  0  0  0
  -29.0167  -23.9553   18.7543 C   0  0  0  0  0  0  0  0  0  0  0  0
  -23.9595  -17.2823   18.6036 C   0  0  0  0  0  0  0  0  0  0  0  0
  -25.5292  -15.5249   19.3228 C   0  0  0  0  0  0  0  0  0  0  0  0
  -29.5637  -21.7770   19.9236 C   0  0  0  0  0  0  0  0  0  0  0  0
  -32.1466  -20.5024   20.4369 C   0  0  0  0  0  0  0  0  0  0  0  0
  -21.7131  -30.0561   23.4815 C   0  0  1  0  0  0  0  0  0  0  0  0
  -22.0630  -28.2486   20.1593 C   0  0  1  0  0  0  0  0  0  0  0  0
  -24.7932  -15.3572   20.6621 C   0  0  2  0  0  0  0  0  0  0  0  0
  -28.0061  -24.2934   19.8476 C   0  0  0  0  0  0  0  0  0  1  0  0
  -32.4366  -17.6384   20.1304 C   0  0  0  0  0  0  0  0  0  0  0  0
  -30.1739  -16.0368   19.3171 C   0  0  0  0  0  0  0  0  0  0  0  0
  -20.1102  -20.9759   20.3454 C   0  0  0  0  0  0  0  0  0  0  0  0
  -19.5313  -26.3035   23.9949 C   0  0  0  0  0  0  0  0  0  0  0  0
  -19.5982  -23.8073   23.8137 C   0  0  0  0  0  0  0  0  0  0  0  0
  -18.1951  -25.1335   22.2341 C   0  0  0  0  0  0  0  0  0  0  0  0
  -23.7259  -21.9545   19.6785 C   0  0  0  0  0  0  0  0  0  0  0  0
  -20.7115  -25.1777   21.9934 C   0  0  1  0  0  0  0  0  0  0  0  0
  -21.2655  -21.9360   20.1082 C   0  0  2  0  0  0  0  0  0  0  0  0
  -19.5327  -25.1209   23.0057 C   0  0  0  0  0  0  0  0  0  0  0  0
  -24.0253  -13.0289   20.9286 N   0  0  0  0  0  0  0  0  0  0  0  0
  -24.9502  -13.9574   21.2262 N   0  0  0  0  0  0  0  0  0  0  0  0
  -21.9707  -26.9196   20.7670 N   0  0  0  0  0  0  0  0  0  0  0  0
  -25.3555  -16.8981   18.8237 N   0  0  0  0  0  0  0  0  0  0  0  0
  -26.9634  -14.3016   22.4259 N   0  0  0  0  0  0  0  0  0  0  0  0
  -27.4544  -10.5398   22.4611 N   0  0  0  0  0  0  0  0  0  0  0  0
  -27.6686  -17.3587   18.8288 N   0  0  0  0  0  0  0  0  0  0  0  0
  -21.5481  -29.2108   22.3196 N   0  0  0  0  0  0  0  0  0  0  0  0
  -20.7225  -24.0847   21.0271 N   0  0  0  0  0  0  0  0  0  0  0  0
  -22.5131  -21.1380   19.9415 N   0  3  0  0  0  0  0  0  0  0  0  0
  -26.2359  -11.1376   24.3095 O   0  0  0  0  0  0  0  0  0  0  0  0
  -23.4408  -29.8923   21.1466 O   0  0  0  0  0  0  0  0  0  0  0  0
  -19.6470  -27.0136   20.9338 O   0  0  0  0  0  0  0  0  0  0  0  0
  -22.0771  -22.6658   22.2636 O   0  0  0  0  0  0  0  0  0  0  0  0
  -26.1411  -18.9580   18.1282 O   0  0  0  0  0  0  0  0  0  0  0  0
  -21.6017   -7.1513   21.2833 O   0  0  0  0  0  0  0  0  0  0  0  0
  -27.9718  -25.7069   20.0126 O   0  0  0  0  0  0  0  0  0  1  0  0
  -22.8259   -3.2073   24.9371 F   0  0  0  0  0  0  0  0  0  0  0  0
  -19.6864   -6.1938   23.0319 F   0  0  0  0  0  0  0  0  0  0  0  0
  1  2  1  0  0  0  0
  1  5  2  0  0  0  0
  2  6  2  0  0  0  0
  3  8  2  0  0  0  0
  3 16  1  0  0  0  0
  4  9  1  0  0  0  0
  4 16  2  0  0  0  0
  5 18  1  0  0  0  0
  6 20  1  0  0  0  0
  7 10  2  0  0  0  0
  7 19  1  0  0  0  0
  8 27  1  0  0  0  0
  9 27  2  0  0  0  0
 10 28  1  0  0  0  0
 11 12  2  0  0  0  0
 11 29  1  0  0  0  0
 12 30  1  0  0  0  0
 13 21  1  0  0  0  0
 13 26  2  0  0  0  0
 14 22  1  0  0  0  0
 14 28  2  0  0  0  0
 15 30  2  0  0  0  0
 15 31  1  0  0  0  0
 16 32  1  0  0  0  0
 17 32  1  0  0  0  0
 17 33  2  0  0  0  0
 17 34  1  0  0  0  0
 18 20  2  0  0  0  0
 18 39  1  0  0  0  0
 19 22  2  0  0  0  0
 19 40  1  0  0  0  0
 20 56  1  0  0  0  0
 21 23  2  0  0  0  0
 21 54  1  0  0  0  0
 22 41  1  0  0  0  0
 23 24  1  0  0  0  0
 23 55  1  0  0  0  0
 24 25  2  0  0  0  0
 24 60  1  0  0  0  0
 25 26  1  0  0  0  0
 25 61  1  0  0  0  0
 26 76  1  0  0  0  0
 27 85  1  0  0  0  0
 28 86  1  0  0  0  0
 29 31  2  0  0  0  0
 29 85  1  0  0  0  0
 30 87  1  0  0  0  0
 31 88  1  0  0  0  0
 32 70  2  0  0  0  0
 33 71  1  0  0  0  0
 33 74  1  0  0  0  0
 34 75  1  0  0  0  0
 34 80  2  0  0  0  0
 35 57  1  0  0  0  0
 35 77  1  0  0  0  0
 35 81  2  0  0  0  0
 36 67  1  0  0  0  0
 36 72  1  0  0  0  0
 36 82  2  0  0  0  0
 37 68  1  0  0  0  0
 37 78  1  0  0  0  0
 37 83  2  0  0  0  0
 38 73  1  0  0  0  0
 38 76  1  0  0  0  0
 38 84  2  0  0  0  0
 39 42  1  0  0  0  0
 40 57  1  0  0  0  0
 41 72  1  0  0  0  0
 42 48  1  0  0  0  0
 43 49  1  0  0  0  0
 43 52  1  0  0  0  0
 44 45  1  0  0  0  0
 44 55  1  0  0  0  0
 45 55  1  0  0  0  0
 46 50  1  0  0  0  0
 46 54  1  0  0  0  0
 47 51  1  0  0  0  0
 47 54  1  0  0  0  0
 48 56  1  0  0  0  0
 49 58  1  0  0  0  0
 50 59  1  0  0  0  0
 51 59  1  0  0  0  0
 52 73  1  0  0  0  0
 53 58  1  0  0  0  0
 53 73  1  0  0  0  0
 56 77  1  0  0  0  0
 57 72  1  0  0  0  0
 58 71  1  0  0  0  0
 59 86  1  0  0  0  0
 62 68  1  0  0  0  0
 63 69  1  0  0  0  0
 64 69  1  0  0  0  0
 65 69  1  0  0  0  0
 66 79  1  0  0  0  0
 67 69  1  0  0  0  0
 67 78  1  0  0  0  0
 68 79  1  0  0  0  0
 70 71  1  0  0  0  0
M  CHG  1  79   1
M  ISO  4  38 100  59 101  76 100  86 101
M  END
> <Batch ID>
0159

> <Smiles>
CNC(C)C(=O)NC(C(=O)N1Cc2cc([101O:1][101CH:1]3CCC(c4cc([100NH:0][100C:0](=O)N5CCCC(n6nc(-c7ccc(Oc8ccc(F)cc8F)cc7)c(C(N)=O)c6N)C5)c(C)c(C)c4C4CC4)CC3)ccc2CC1C(=O)NC1CCCc2ccccc21)C(C)(C)C

> <Shape>
0.261

> <Color>
0.080

> <Negative vol penalty>
0.000

$$$$

  -OEChem-04052322073D

 89 99  0     1  0  0  0  0  0999 V2000
  -29.5992  -34.2551   26.9184 C   0  0  0  0  0  0  0  0  0  0  0  0
  -29.3068  -33.1927   26.0691 C   0  0  0  0  0  0  0  0  0  0  0  0
  -23.7501   -9.6580   22.3285 C   0  0  0  0  0  0  0  0  0  0  0  0
  -24.9541   -7.8981   21.1926 C   0  0  0  0  0  0  0  0  0  0  0  0
  -28.5735  -35.0770   27.3835 C   0  0  0  0  0  0  0  0  0  0  0  0
  -27.9882  -32.9510   25.6853 C   0  0  0  0  0  0  0  0  0  0  0  0
  -28.8482  -24.4725   19.3515 C   0  0  0  0  0  0  0  0  0  0  0  0
  -27.5518  -31.9894   20.7325 C   0  0  0  0  0  0  0  0  0  0  0  0
  -28.6760  -25.7742   19.8219 C   0  0  0  0  0  0  0  0  0  0  0  0
  -22.5606   -8.9473   22.1689 C   0  0  0  0  0  0  0  0  0  0  0  0
  -23.7645   -7.1873   21.0330 C   0  0  0  0  0  0  0  0  0  0  0  0
  -27.9047  -30.7124   20.2984 C   0  0  0  0  0  0  0  0  0  0  0  0
  -21.1018   -4.7424   20.6449 C   0  0  0  0  0  0  0  0  0  0  0  0
  -21.1198   -3.3757   20.9229 C   0  0  0  0  0  0  0  0  0  0  0  0
  -25.5740  -30.0922   20.2474 C   0  0  0  0  0  0  0  0  0  0  0  0
  -29.1592  -26.6350   17.6167 C   0  0  0  0  0  0  0  0  0  0  0  0
  -21.7864   -3.8471   23.1968 C   0  0  0  0  0  0  0  0  0  0  0  0
  -24.9469   -9.1334   21.8404 C   0  0  0  0  0  0  0  0  0  0  0  0
  -27.0766   -9.7868   23.0835 C   0  0  0  0  0  0  0  0  0  0  0  0
  -27.2429  -34.8511   26.9974 C   0  0  0  0  0  0  0  0  0  0  0  0
  -26.2058  -32.3246   20.9382 C   0  0  0  0  0  0  0  0  0  0  0  0
  -26.9436  -33.7699   26.1467 C   0  0  0  0  0  0  0  0  0  0  0  0
  -29.1761  -24.2519   18.0137 C   0  0  0  0  0  0  0  0  0  0  0  0
  -25.2065  -31.3750   20.6818 C   0  0  0  0  0  0  0  0  0  0  0  0
  -28.8314  -26.8555   18.9545 C   0  0  0  0  0  0  0  0  0  0  0  0
  -29.3315  -25.3332   17.1464 C   0  0  0  0  0  0  0  0  0  0  0  0
  -22.5678   -7.7120   21.5211 C   0  0  0  0  0  0  0  0  0  0  0  0
  -26.9159  -29.7627   20.0585 C   0  0  0  0  0  0  0  0  0  0  0  0
  -21.4263   -5.6615   21.6428 C   0  0  0  0  0  0  0  0  0  0  0  0
  -21.4620   -2.9280   22.1989 C   0  0  0  0  0  0  0  0  0  0  0  0
  -21.7685   -5.2138   22.9187 C   0  0  0  0  0  0  0  0  0  0  0  0
  -26.1759   -9.8673   22.0045 C   0  0  0  0  0  0  0  0  0  0  0  0
  -28.0749  -10.6745   22.7644 C   0  0  0  0  0  0  0  0  0  0  0  0
  -27.0162   -8.9814   24.2682 C   0  0  0  0  0  0  0  0  0  0  0  0
  -24.4783  -33.2323   23.4473 C   0  0  0  0  0  0  0  0  0  0  0  0
  -22.1553  -33.6182   21.2165 C   0  0  0  0  0  0  0  0  0  0  0  0
  -20.9134  -32.7763   18.1513 C   0  0  0  0  0  0  0  0  0  0  0  0
  -27.8410  -15.4583   19.0800 C   0  0  0  0  0  0  0  0  0  0  0  0
  -26.1622  -35.7378   27.5637 C   0  0  0  0  0  0  0  0  0  0  0  0
  -25.8400  -33.7147   21.3811 C   0  0  0  0  0  0  0  0  0  0  0  0
  -23.7457  -31.6910   20.8678 C   0  0  0  0  0  0  0  0  0  0  0  0
  -24.8381  -35.6410   26.8104 C   0  0  0  0  0  0  0  0  0  0  0  0
  -30.2713  -12.6577   19.0082 C   0  0  0  0  0  0  0  0  0  0  0  0
  -24.4724  -34.1817   26.5587 C   0  0  0  0  0  0  0  0  0  0  0  0
  -29.5381  -11.6028   19.8381 C   0  0  0  0  0  0  0  0  0  0  0  0
  -30.5727  -17.8868   18.6903 C   0  0  0  0  0  0  0  0  0  0  0  0
  -30.5069  -22.1689   18.2910 C   0  0  0  0  0  0  0  0  0  0  0  0
  -28.0505  -22.0550   17.7081 C   0  0  0  0  0  0  0  0  0  0  0  0
  -29.2847  -13.5481   18.2641 C   0  0  0  0  0  0  0  0  0  0  0  0
  -30.1835  -16.4121   18.6591 C   0  0  0  0  0  0  0  0  0  0  0  0
  -27.5473  -13.1760   19.9729 C   0  0  0  0  0  0  0  0  0  0  0  0
  -28.2356  -17.7573   18.2402 C   0  0  0  0  0  0  0  0  0  0  0  0
  -30.6618  -20.7097   17.8817 C   0  0  0  0  0  0  0  0  0  0  0  0
  -28.2242  -20.5968   17.3030 C   0  0  0  0  0  0  0  0  0  0  0  0
  -29.3554  -22.8482   17.5324 C   0  0  0  0  0  0  0  0  0  0  0  0
  -25.5287  -33.4905   25.6881 C   0  0  1  0  0  0  0  0  0  0  0  0
  -24.4713  -33.7875   22.0512 C   0  0  1  0  0  0  0  0  0  0  0  0
  -28.4905  -12.2504   20.7618 C   0  0  1  0  0  0  0  0  0  0  0  0
  -29.4862  -18.5121   17.8283 C   0  0  1  0  0  0  0  0  0  0  0  0
  -29.6828  -25.1216   15.7101 C   0  0  0  0  0  0  0  0  0  0  0  0
  -18.9785  -33.2269   16.6182 C   0  0  0  0  0  0  0  0  0  0  0  0
  -20.3769  -31.8373   22.9415 C   0  0  0  0  0  0  0  0  0  0  0  0
  -18.8661  -31.5512   20.9657 C   0  0  0  0  0  0  0  0  0  0  0  0
  -19.2183  -33.8177   21.9463 C   0  0  0  0  0  0  0  0  0  0  0  0
  -22.6859  -33.8597   16.0434 C   0  0  0  0  0  0  0  0  0  0  0  0
  -28.6475  -28.2473   19.4576 C   0  0  0  0  0  0  0  0  0  1  0  0
  -21.0828  -32.7350   20.6259 C   0  0  1  0  0  0  0  0  0  0  0  0
  -20.3932  -33.6272   17.0068 C   0  0  2  0  0  0  0  0  0  0  0  0
  -19.9136  -32.4784   21.6181 C   0  0  0  0  0  0  0  0  0  0  0  0
  -26.5674  -10.7376   21.0700 N   0  0  0  0  0  0  0  0  0  0  0  0
  -27.7250  -11.2121   21.5608 N   0  0  0  0  0  0  0  0  0  0  0  0
  -23.4390  -33.0619   21.3083 N   0  0  0  0  0  0  0  0  0  0  0  0
  -28.3113  -14.1443   19.1834 N   0  0  0  0  0  0  0  0  0  0  0  0
  -28.7188  -16.4207   18.5831 N   0  0  0  0  0  0  0  0  0  0  0  0
  -29.2091  -11.0399   23.3989 N   0  0  0  0  0  0  0  0  0  0  0  0
  -25.9209   -8.1236   24.4378 N   0  0  0  0  0  0  0  0  0  0  0  0
  -25.3630  -33.8647   24.2999 N   0  0  0  0  0  0  0  0  0  0  0  0
  -20.6772  -33.3664   19.3748 N   0  0  0  0  0  0  0  0  0  0  0  0
  -29.3570  -19.9548   18.0910 N   0  3  0  0  0  0  0  0  0  0  0  0
  -21.2693  -33.4778   15.8105 N   0  3  0  0  0  0  0  0  0  0  0  0
  -27.8989   -9.0334   25.1579 O   0  0  0  0  0  0  0  0  0  0  0  0
  -23.7350  -32.3001   23.7306 O   0  0  0  0  0  0  0  0  0  0  0  0
  -21.8663  -34.7622   21.5763 O   0  0  0  0  0  0  0  0  0  0  0  0
  -21.4701  -31.6944   17.9774 O   0  0  0  0  0  0  0  0  0  0  0  0
  -26.7039  -15.7677   19.4601 O   0  0  0  0  0  0  0  0  0  0  0  0
  -21.4072   -7.0181   21.3654 O   0  0  0  0  0  0  0  0  0  0  0  0
  -27.2600  -28.5067   19.6324 O   0  0  0  0  0  0  0  0  0  1  0  0
  -21.4777   -1.6156   22.4662 F   0  0  0  0  0  0  0  0  0  0  0  0
  -22.0799   -6.0921   23.8818 F   0  0  0  0  0  0  0  0  0  0  0  0
  1  2  1  0  0  0  0
  1  5  2  0  0  0  0
  2  6  2  0  0  0  0
  3 10  2  0  0  0  0
  3 18  1  0  0  0  0
  4 11  1  0  0  0  0
  4 18  2  0  0  0  0
  5 20  1  0  0  0  0
  6 22  1  0  0  0  0
  7  9  2  0  0  0  0
  7 23  1  0  0  0  0
  8 12  2  0  0  0  0
  8 21  1  0  0  0  0
  9 25  1  0  0  0  0
 10 27  1  0  0  0  0
 11 27  2  0  0  0  0
 12 28  1  0  0  0  0
 13 14  2  0  0  0  0
 13 29  1  0  0  0  0
 14 30  1  0  0  0  0
 15 24  1  0  0  0  0
 15 28  2  0  0  0  0
 16 25  2  0  0  0  0
 16 26  1  0  0  0  0
 17 30  2  0  0  0  0
 17 31  1  0  0  0  0
 18 32  1  0  0  0  0
 19 32  1  0  0  0  0
 19 33  2  0  0  0  0
 19 34  1  0  0  0  0
 20 22  2  0  0  0  0
 20 39  1  0  0  0  0
 21 24  2  0  0  0  0
 21 40  1  0  0  0  0
 22 56  1  0  0  0  0
 23 26  2  0  0  0  0
 23 55  1  0  0  0  0
 24 41  1  0  0  0  0
 25 66  1  0  0  0  0
 26 60  1  0  0  0  0
 27 86  1  0  0  0  0
 28 87  1  0  0  0  0
 29 31  2  0  0  0  0
 29 86  1  0  0  0  0
 30 88  1  0  0  0  0
 31 89  1  0  0  0  0
 32 70  2  0  0  0  0
 33 71  1  0  0  0  0
 33 75  1  0  0  0  0
 34 76  1  0  0  0  0
 34 81  2  0  0  0  0
 35 57  1  0  0  0  0
 35 77  1  0  0  0  0
 35 82  2  0  0  0  0
 36 67  1  0  0  0  0
 36 72  1  0  0  0  0
 36 83  2  0  0  0  0
 37 68  1  0  0  0  0
 37 78  1  0  0  0  0
 37 84  2  0  0  0  0
 38 73  1  0  0  0  0
 38 74  1  0  0  0  0
 38 85  2  0  0  0  0
 39 42  1  0  0  0  0
 40 57  1  0  0  0  0
 41 72  1  0  0  0  0
 42 44  1  0  0  0  0
 43 45  1  0  0  0  0
 43 49  1  0  0  0  0
 44 56  1  0  0  0  0
 45 58  1  0  0  0  0
 46 50  1  0  0  0  0
 46 59  1  0  0  0  0
 47 53  1  0  0  0  0
 47 55  1  0  0  0  0
 48 54  1  0  0  0  0
 48 55  1  0  0  0  0
 49 73  1  0  0  0  0
 50 74  1  0  0  0  0
 51 58  1  0  0  0  0
 51 73  1  0  0  0  0
 52 59  1  0  0  0  0
 52 74  1  0  0  0  0
 53 79  1  0  0  0  0
 54 79  1  0  0  0  0
 56 77  1  0  0  0  0
 57 72  1  0  0  0  0
 58 71  1  0  0  0  0
 59 79  1  0  0  0  0
 61 68  1  0  0  0  0
 62 69  1  0  0  0  0
 63 69  1  0  0  0  0
 64 69  1  0  0  0  0
 65 80  1  0  0  0  0
 66 87  1  0  0  0  0
 67 69  1  0  0  0  0
 67 78  1  0  0  0  0
 68 80  1  0  0  0  0
 70 71  1  0  0  0  0
M  CHG  2  79   1  80   1
M  ISO  4  38 100  66 101  74 100  87 101
M  END
> <Batch ID>
0159

> <Smiles>
CNC(C)C(=O)NC(C(=O)N1Cc2cc([101O:1][101CH2:1]c3ccc(C4CCN(C5CC[100N:0]([100C:0](=O)N6CCCC(n7nc(-c8ccc(Oc9ccc(F)cc9F)cc8)c(C(N)=O)c7N)C6)C5)CC4)c(C)c3)ccc2CC1C(=O)NC1CCCc2ccccc21)C(C)(C)C

> <Shape>
0.231

> <Color>
0.083

> <Negative vol penalty>
0.000

$$$$

  -OEChem-04052322073D

 87 96  0     1  0  0  0  0  0999 V2000
  -20.2376  -32.8781   19.0742 C   0  0  0  0  0  0  0  0  0  0  0  0
  -20.1694  -31.5429   18.6893 C   0  0  0  0  0  0  0  0  0  0  0  0
  -22.8828  -10.1846   20.0744 C   0  0  0  0  0  0  0  0  0  0  0  0
  -23.6176  -10.0190   22.3700 C   0  0  0  0  0  0  0  0  0  0  0  0
  -20.9140  -33.2324   20.2408 C   0  0  0  0  0  0  0  0  0  0  0  0
  -20.7787  -30.5614   19.4703 C   0  0  0  0  0  0  0  0  0  0  0  0
  -18.8013  -24.8394   20.3948 C   0  0  0  0  0  0  0  0  0  0  0  0
  -22.0157   -9.1106   20.2745 C   0  0  0  0  0  0  0  0  0  0  0  0
  -22.7504   -8.9449   22.5701 C   0  0  0  0  0  0  0  0  0  0  0  0
  -19.1523  -23.6207   19.8159 C   0  0  0  0  0  0  0  0  0  0  0  0
  -22.6836   -5.6354   21.8821 C   0  0  0  0  0  0  0  0  0  0  0  0
  -23.1772   -4.5218   22.5616 C   0  0  0  0  0  0  0  0  0  0  0  0
  -25.2580  -18.3410   18.4942 C   0  0  0  0  0  0  0  0  0  0  0  0
  -25.5047  -19.6144   16.4560 C   0  0  0  0  0  0  0  0  0  0  0  0
  -20.6704  -23.1973   21.6421 C   0  0  0  0  0  0  0  0  0  0  0  0
  -21.4890   -4.8129   24.2652 C   0  0  0  0  0  0  0  0  0  0  0  0
  -23.6838  -10.6388   21.1222 C   0  0  0  0  0  0  0  0  0  0  0  0
  -24.2992  -13.1144   21.1047 C   0  0  0  0  0  0  0  0  0  0  0  0
  -21.5235  -32.2537   21.0415 C   0  0  0  0  0  0  0  0  0  0  0  0
  -19.3913  -25.2519   21.5982 C   0  0  0  0  0  0  0  0  0  0  0  0
  -21.4650  -30.9032   20.6479 C   0  0  0  0  0  0  0  0  0  0  0  0
  -25.9229  -18.5785   17.2912 C   0  0  0  0  0  0  0  0  0  0  0  0
  -20.3233  -24.4205   22.2356 C   0  0  0  0  0  0  0  0  0  0  0  0
  -24.1748  -19.1393   18.8618 C   0  0  0  0  0  0  0  0  0  0  0  0
  -24.4215  -20.4128   16.8236 C   0  0  0  0  0  0  0  0  0  0  0  0
  -21.9494   -8.4907   21.5223 C   0  0  0  0  0  0  0  0  0  0  0  0
  -20.0891  -22.8007   20.4380 C   0  0  0  0  0  0  0  0  0  0  0  0
  -21.5926   -6.3378   22.3941 C   0  0  0  0  0  0  0  0  0  0  0  0
  -23.7566  -20.1752   18.0266 C   0  0  0  0  0  0  0  0  0  0  0  0
  -22.5800   -4.1105   23.7531 C   0  0  0  0  0  0  0  0  0  0  0  0
  -20.9954   -5.9266   23.5857 C   0  0  0  0  0  0  0  0  0  0  0  0
  -24.5802  -11.7479   20.9160 C   0  0  0  0  0  0  0  0  0  0  0  0
  -25.4697  -13.7540   20.7771 C   0  0  0  0  0  0  0  0  0  0  0  0
  -23.0885  -13.7489   21.5376 C   0  0  0  0  0  0  0  0  0  0  0  0
  -21.2130  -27.7034   22.4786 C   0  0  0  0  0  0  0  0  0  0  0  0
  -20.7841  -26.4547   25.4415 C   0  0  0  0  0  0  0  0  0  0  0  0
  -20.0692  -23.7235   27.3588 C   0  0  0  0  0  0  0  0  0  0  0  0
  -29.8776  -14.5041   17.6272 C   0  0  0  0  0  0  0  0  0  0  0  0
  -22.2838  -32.6901   22.2688 C   0  0  0  0  0  0  0  0  0  0  0  0
  -18.9821  -26.5573   22.2235 C   0  0  0  0  0  0  0  0  0  0  0  0
  -20.9706  -24.8081   23.5391 C   0  0  0  0  0  0  0  0  0  0  0  0
  -22.5821  -31.5493   23.2382 C   0  0  0  0  0  0  0  0  0  0  0  0
  -30.1069  -11.9376   19.9320 C   0  0  0  0  0  0  0  0  0  0  0  0
  -23.1224  -30.3372   22.4860 C   0  0  0  0  0  0  0  0  0  0  0  0
  -28.6689  -11.7598   20.4194 C   0  0  0  0  0  0  0  0  0  0  0  0
  -28.2678  -17.8262   17.8866 C   0  0  0  0  0  0  0  0  0  0  0  0
  -26.6933  -16.2379   16.7038 C   0  0  0  0  0  0  0  0  0  0  0  0
  -30.1482  -12.1754   18.4266 C   0  0  0  0  0  0  0  0  0  0  0  0
  -29.4365  -16.9286   17.4872 C   0  0  0  0  0  0  0  0  0  0  0  0
  -27.8968  -15.3776   16.3297 C   0  0  0  0  0  0  0  0  0  0  0  0
  -27.8864  -13.1741   18.4569 C   0  0  0  0  0  0  0  0  0  0  0  0
  -27.1008  -17.7100   16.8909 C   0  0  0  0  0  0  0  0  0  0  0  0
  -22.0920  -29.8069   21.4817 C   0  0  1  0  0  0  0  0  0  0  0  0
  -20.0271  -27.1120   23.1867 C   0  0  1  0  0  0  0  0  0  0  0  0
  -27.7863  -12.9404   19.9776 C   0  0  1  0  0  0  0  0  0  0  0  0
  -23.4759  -18.8695   20.1537 C   0  0  0  0  0  0  0  0  0  0  0  0
  -23.9888  -21.5171   15.9164 C   0  0  0  0  0  0  0  0  0  0  0  0
  -19.8289  -23.0042   29.7509 C   0  0  0  0  0  0  0  0  0  0  0  0
  -23.8204  -26.4496   25.7425 C   0  0  0  0  0  0  0  0  0  0  0  0
  -23.5560  -24.8867   27.6804 C   0  0  0  0  0  0  0  0  0  0  0  0
  -22.5711  -27.1762   27.7834 C   0  0  0  0  0  0  0  0  0  0  0  0
  -17.2356  -22.9646   26.9672 C   0  0  0  0  0  0  0  0  0  0  0  0
  -20.3702  -21.5227   18.4521 C   0  0  0  0  0  0  0  0  0  1  0  0
  -21.4057  -20.5284   17.9635 C   0  0  0  0  0  0  0  0  0  0  0  0
  -21.5092  -25.4363   26.2877 C   0  0  1  0  0  0  0  0  0  0  0  0
  -19.1093  -23.5304   28.5189 C   0  0  2  0  0  0  0  0  0  0  0  0
  -22.8536  -25.9805   26.8479 C   0  0  0  0  0  0  0  0  0  0  0  0
  -25.8309  -11.5312   20.5005 N   0  0  0  0  0  0  0  0  0  0  0  0
  -26.3463  -12.7701   20.4254 N   0  0  0  0  0  0  0  0  0  0  0  0
  -20.5423  -26.0968   24.1076 N   0  0  0  0  0  0  0  0  0  0  0  0
  -29.2929  -13.2996   18.0470 N   0  0  0  0  0  0  0  0  0  0  0  0
  -29.0024  -15.5472   17.2824 N   0  0  0  0  0  0  0  0  0  0  0  0
  -25.8243  -15.0564   20.7583 N   0  0  0  0  0  0  0  0  0  0  0  0
  -21.9807  -12.9429   21.8333 N   0  0  0  0  0  0  0  0  0  0  0  0
  -21.0702  -29.0411   22.1627 N   0  0  0  0  0  0  0  0  0  0  0  0
  -20.5633  -25.0100   27.3134 N   0  0  0  0  0  0  0  0  0  0  0  0
  -18.0391  -22.5612   28.1499 N   0  3  0  0  0  0  0  0  0  0  0  0
  -22.9870  -14.9947   21.6428 O   0  0  0  0  0  0  0  0  0  0  0  0
  -22.1863  -26.9988   22.2380 O   0  0  0  0  0  0  0  0  0  0  0  0
  -20.4385  -27.5254   25.9474 O   0  0  0  0  0  0  0  0  0  0  0  0
  -20.3553  -22.8221   26.5739 O   0  0  0  0  0  0  0  0  0  0  0  0
  -31.1056  -14.6437   17.5684 O   0  0  0  0  0  0  0  0  0  0  0  0
  -21.1032   -7.4428   21.7179 O   0  0  0  0  0  0  0  0  0  0  0  0
  -20.4363  -21.6028   19.8709 O   0  0  0  0  0  0  0  0  0  1  0  0
  -22.6980  -20.9562   18.3866 O   0  0  0  0  0  0  0  0  0  0  0  0
  -23.0532   -3.0402   24.4048 F   0  0  0  0  0  0  0  0  0  0  0  0
  -19.9463   -6.5967   24.0819 F   0  0  0  0  0  0  0  0  0  0  0  0
  1  2  1  0  0  0  0
  1  5  2  0  0  0  0
  2  6  2  0  0  0  0
  3  8  2  0  0  0  0
  3 17  1  0  0  0  0
  4  9  1  0  0  0  0
  4 17  2  0  0  0  0
  5 19  1  0  0  0  0
  6 21  1  0  0  0  0
  7 10  2  0  0  0  0
  7 20  1  0  0  0  0
  8 26  1  0  0  0  0
  9 26  2  0  0  0  0
 10 27  1  0  0  0  0
 11 12  2  0  0  0  0
 11 28  1  0  0  0  0
 12 30  1  0  0  0  0
 13 22  1  0  0  0  0
 13 24  2  0  0  0  0
 14 22  2  0  0  0  0
 14 25  1  0  0  0  0
 15 23  1  0  0  0  0
 15 27  2  0  0  0  0
 16 30  2  0  0  0  0
 16 31  1  0  0  0  0
 17 32  1  0  0  0  0
 18 32  1  0  0  0  0
 18 33  2  0  0  0  0
 18 34  1  0  0  0  0
 19 21  2  0  0  0  0
 19 39  1  0  0  0  0
 20 23  2  0  0  0  0
 20 40  1  0  0  0  0
 21 53  1  0  0  0  0
 22 52  1  0  0  0  0
 23 41  1  0  0  0  0
 24 29  1  0  0  0  0
 24 56  1  0  0  0  0
 25 29  2  0  0  0  0
 25 57  1  0  0  0  0
 26 83  1  0  0  0  0
 27 84  1  0  0  0  0
 28 31  2  0  0  0  0
 28 83  1  0  0  0  0
 29 85  1  0  0  0  0
 30 86  1  0  0  0  0
 31 87  1  0  0  0  0
 32 68  2  0  0  0  0
 33 69  1  0  0  0  0
 33 73  1  0  0  0  0
 34 74  1  0  0  0  0
 34 78  2  0  0  0  0
 35 54  1  0  0  0  0
 35 75  1  0  0  0  0
 35 79  2  0  0  0  0
 36 65  1  0  0  0  0
 36 70  1  0  0  0  0
 36 80  2  0  0  0  0
 37 66  1  0  0  0  0
 37 76  1  0  0  0  0
 37 81  2  0  0  0  0
 38 71  1  0  0  0  0
 38 72  1  0  0  0  0
 38 82  2  0  0  0  0
 39 42  1  0  0  0  0
 40 54  1  0  0  0  0
 41 70  1  0  0  0  0
 42 44  1  0  0  0  0
 43 45  1  0  0  0  0
 43 48  1  0  0  0  0
 44 53  1  0  0  0  0
 45 55  1  0  0  0  0
 46 49  1  0  0  0  0
 46 52  1  0  0  0  0
 47 50  1  0  0  0  0
 47 52  1  0  0  0  0
 48 71  1  0  0  0  0
 49 72  1  0  0  0  0
 50 72  1  0  0  0  0
 51 55  1  0  0  0  0
 51 71  1  0  0  0  0
 53 75  1  0  0  0  0
 54 70  1  0  0  0  0
 55 69  1  0  0  0  0
 58 66  1  0  0  0  0
 59 67  1  0  0  0  0
 60 67  1  0  0  0  0
 61 67  1  0  0  0  0
 62 77  1  0  0  0  0
 63 64  1  0  0  0  0
 63 84  1  0  0  0  0
 64 85  1  0  0  0  0
 65 67  1  0  0  0  0
 65 76  1  0  0  0  0
 66 77  1  0  0  0  0
 68 69  1  0  0  0  0
M  CHG  1  77   1
M  ISO  4  38 100  63 101  72 100  84 101
M  END
> <Batch ID>
0159

> <Smiles>
CNC(C)C(=O)NC(C(=O)N1Cc2cc([101O:1][101CH2:1]COc3c(C)cc(C4CC[100N:0]([100C:0](=O)N5CCCC(n6nc(-c7ccc(Oc8ccc(F)cc8F)cc7)c(C(N)=O)c6N)C5)CC4)cc3C)ccc2CC1C(=O)NC1CCCc2ccccc21)C(C)(C)C

> <Shape>
0.215

> <Color>
0.172

> <Negative vol penalty>
0.000

$$$$

  -OEChem-04052322073D

 91101  0     1  0  0  0  0  0999 V2000
  -21.4166  -23.3974   19.5184 C   0  0  0  0  0  0  0  0  0  0  0  0
  -22.7492  -23.0045   19.4460 C   0  0  0  0  0  0  0  0  0  0  0  0
  -22.6012  -29.7775   21.3364 C   0  0  0  0  0  0  0  0  0  0  0  0
  -23.8518  -28.6517   23.0700 C   0  0  0  0  0  0  0  0  0  0  0  0
  -20.5193  -22.6734   20.3024 C   0  0  0  0  0  0  0  0  0  0  0  0
  -23.1855  -21.8881   20.1585 C   0  0  0  0  0  0  0  0  0  0  0  0
  -27.4742  -17.8686   18.4390 C   0  0  0  0  0  0  0  0  0  0  0  0
  -21.5336  -29.9486   22.2176 C   0  0  0  0  0  0  0  0  0  0  0  0
  -22.7842  -28.8228   23.9513 C   0  0  0  0  0  0  0  0  0  0  0  0
  -28.8251  -17.7434   18.7602 C   0  0  0  0  0  0  0  0  0  0  0  0
  -19.0016  -28.0820   23.4544 C   0  0  0  0  0  0  0  0  0  0  0  0
  -17.7199  -27.8020   22.9806 C   0  0  0  0  0  0  0  0  0  0  0  0
  -30.3695  -21.2790   21.1210 C   0  0  0  0  0  0  0  0  0  0  0  0
  -28.2635  -16.1369   20.4699 C   0  0  0  0  0  0  0  0  0  0  0  0
  -17.0560  -30.0811   23.4300 C   0  0  0  0  0  0  0  0  0  0  0  0
  -23.7603  -29.1290   21.7625 C   0  0  0  0  0  0  0  0  0  0  0  0
  -25.9433  -29.8301   20.6442 C   0  0  0  0  0  0  0  0  0  0  0  0
  -20.9427  -21.5419   21.0172 C   0  0  0  0  0  0  0  0  0  0  0  0
  -26.5052  -17.1358   19.1394 C   0  0  0  0  0  0  0  0  0  0  0  0
  -22.2933  -21.1491   20.9538 C   0  0  0  0  0  0  0  0  0  0  0  0
  -31.5630  -21.8322   20.6574 C   0  0  0  0  0  0  0  0  0  0  0  0
  -26.9012  -16.2526   20.1540 C   0  0  0  0  0  0  0  0  0  0  0  0
  -29.1476  -21.8045   20.7008 C   0  0  0  0  0  0  0  0  0  0  0  0
  -31.5347  -22.9111   19.7738 C   0  0  0  0  0  0  0  0  0  0  0  0
  -30.3128  -23.4368   19.3537 C   0  0  0  0  0  0  0  0  0  0  0  0
  -29.1193  -22.8834   19.8172 C   0  0  0  0  0  0  0  0  0  0  0  0
  -21.6251  -29.4712   23.5250 C   0  0  0  0  0  0  0  0  0  0  0  0
  -29.2197  -16.8796   19.7777 C   0  0  0  0  0  0  0  0  0  0  0  0
  -19.3105  -29.3616   23.9160 C   0  0  0  0  0  0  0  0  0  0  0  0
  -16.7471  -28.8015   22.9684 C   0  0  0  0  0  0  0  0  0  0  0  0
  -18.3377  -30.3611   23.9038 C   0  0  0  0  0  0  0  0  0  0  0  0
  -24.8632  -28.9515   20.8525 C   0  0  0  0  0  0  0  0  0  0  0  0
  -26.7109  -29.2100   19.6888 C   0  0  0  0  0  0  0  0  0  0  0  0
  -26.2273  -31.0937   21.2593 C   0  0  0  0  0  0  0  0  0  0  0  0
  -24.0218  -17.8835   20.9772 C   0  0  0  0  0  0  0  0  0  0  0  0
  -23.4913  -14.6845   20.8904 C   0  0  0  0  0  0  0  0  0  0  0  0
  -24.7621  -11.5479   20.4502 C   0  0  0  0  0  0  0  0  0  0  0  0
  -27.3991  -23.4961   18.0817 C   0  0  0  0  0  0  0  0  0  0  0  0
  -19.9463  -20.8190   21.8886 C   0  0  0  0  0  0  0  0  0  0  0  0
  -25.0544  -17.2620   18.7628 C   0  0  0  0  0  0  0  0  0  0  0  0
  -25.9020  -15.4282   20.9224 C   0  0  0  0  0  0  0  0  0  0  0  0
  -20.4072  -19.4278   22.3157 C   0  0  0  0  0  0  0  0  0  0  0  0
  -26.3667  -26.1867   15.9908 C   0  0  0  0  0  0  0  0  0  0  0  0
  -21.8507  -19.4711   22.8070 C   0  0  0  0  0  0  0  0  0  0  0  0
  -25.9681  -27.2831   16.9812 C   0  0  0  0  0  0  0  0  0  0  0  0
  -32.7457  -20.6868   22.5612 C   0  0  0  0  0  0  0  0  0  0  0  0
  -34.6037  -19.0470   22.0860 C   0  0  0  0  0  0  0  0  0  0  0  0
  -25.9902  -24.7970   16.5013 C   0  0  0  0  0  0  0  0  0  0  0  0
  -26.0828  -25.5724   18.8379 C   0  0  0  0  0  0  0  0  0  0  0  0
  -32.4062  -18.9225   20.1987 C   0  0  0  0  0  0  0  0  0  0  0  0
  -32.8592  -21.2491   21.1221 C   0  0  1  0  0  0  0  0  0  0  0  0
  -22.7992  -19.9291   21.6925 C   0  0  1  0  0  0  0  0  0  0  0  0
  -24.1076  -16.8531   19.8870 C   0  0  1  0  0  0  0  0  0  0  0  0
  -33.3657  -20.1227   20.1698 C   0  0  1  0  0  0  0  0  0  0  0  0
  -34.7605  -19.6770   20.6882 C   0  0  2  0  0  0  0  0  0  0  0  0
  -26.5003  -26.9847   18.3966 C   0  0  2  0  0  0  0  0  0  0  0  0
  -33.1632  -19.2068   22.5912 C   0  0  2  0  0  0  0  0  0  0  0  0
  -27.8859  -21.1892   21.2140 C   0  0  0  0  0  0  0  0  0  0  0  0
  -32.8167  -23.5023   19.2786 C   0  0  0  0  0  0  0  0  0  0  0  0
  -30.2881  -24.5949   18.4054 C   0  0  0  0  0  0  0  0  0  0  0  0
  -35.4956  -18.7426   19.7281 C   0  0  0  0  0  0  0  0  0  0  0  0
  -24.0927   -9.1295   20.4779 C   0  0  0  0  0  0  0  0  0  0  0  0
  -23.4356  -14.7374   23.9407 C   0  0  0  0  0  0  0  0  0  0  0  0
  -23.7210  -12.2501   23.9196 C   0  0  0  0  0  0  0  0  0  0  0  0
  -21.6954  -13.2802   22.8906 C   0  0  0  0  0  0  0  0  0  0  0  0
  -25.5195  -11.1858   17.6122 C   0  0  0  0  0  0  0  0  0  0  0  0
  -32.2262  -16.9819   21.7959 C   0  0  0  0  0  0  0  0  0  0  0  0
  -30.8551  -16.4375   21.4468 C   0  0  0  0  0  0  0  0  0  1  0  0
  -23.9280  -13.5054   21.7258 C   0  0  1  0  0  0  0  0  0  0  0  0
  -24.2779  -10.3722   19.6209 C   0  0  2  0  0  0  0  0  0  0  0  0
  -23.2139  -13.4601   23.1062 C   0  0  0  0  0  0  0  0  0  0  0  0
  -24.9347  -27.8567   20.0907 N   0  0  0  0  0  0  0  0  0  0  0  0
  -26.0688  -28.0433   19.3942 N   0  0  0  0  0  0  0  0  0  0  0  0
  -24.4949  -15.5915   20.5213 N   0  0  0  0  0  0  0  0  0  0  0  0
  -26.5319  -24.5836   17.8452 N   0  0  0  0  0  0  0  0  0  0  0  0
  -27.8657  -29.5543   19.0804 N   0  0  0  0  0  0  0  0  0  0  0  0
  -25.3339  -31.5843   22.2213 N   0  0  0  0  0  0  0  0  0  0  0  0
  -27.8768  -23.4133   19.3892 N   0  0  0  0  0  0  0  0  0  0  0  0
  -23.0524  -18.8455   20.7672 N   0  0  0  0  0  0  0  0  0  0  0  0
  -23.7132  -12.3201   20.9028 N   0  0  0  0  0  0  0  0  0  0  0  0
  -32.2217  -18.4756   21.6377 N   0  3  2  0  0  0  0  0  0  0  0  0
  -25.2593  -10.0586   18.5442 N   0  3  0  0  0  0  0  0  0  0  0  0
  -27.2346  -31.7754   20.9526 O   0  0  0  0  0  0  0  0  0  0  0  0
  -24.7782  -17.8102   21.9386 O   0  0  0  0  0  0  0  0  0  0  0  0
  -22.3048  -14.7930   20.5709 O   0  0  0  0  0  0  0  0  0  0  0  0
  -25.9515  -11.7580   20.6771 O   0  0  0  0  0  0  0  0  0  0  0  0
  -27.7177  -22.7128   17.1834 O   0  0  0  0  0  0  0  0  0  0  0  0
  -20.5836  -29.6382   24.3853 O   0  0  0  0  0  0  0  0  0  0  0  0
  -30.5470  -16.7552   20.0960 O   0  0  0  0  0  0  0  0  0  1  0  0
  -15.5168  -28.5329   22.5120 F   0  0  0  0  0  0  0  0  0  0  0  0
  -18.6288  -31.5926   24.3448 F   0  0  0  0  0  0  0  0  0  0  0  0
  1  2  1  0  0  0  0
  1  5  2  0  0  0  0
  2  6  2  0  0  0  0
  3  8  2  0  0  0  0
  3 16  1  0  0  0  0
  4  9  1  0  0  0  0
  4 16  2  0  0  0  0
  5 18  1  0  0  0  0
  6 20  1  0  0  0  0
  7 10  2  0  0  0  0
  7 19  1  0  0  0  0
  8 27  1  0  0  0  0
  9 27  2  0  0  0  0
 10 28  1  0  0  0  0
 11 12  2  0  0  0  0
 11 29  1  0  0  0  0
 12 30  1  0  0  0  0
 13 21  1  0  0  0  0
 13 23  2  0  0  0  0
 14 22  1  0  0  0  0
 14 28  2  0  0  0  0
 15 30  2  0  0  0  0
 15 31  1  0  0  0  0
 16 32  1  0  0  0  0
 17 32  1  0  0  0  0
 17 33  2  0  0  0  0
 17 34  1  0  0  0  0
 18 20  2  0  0  0  0
 18 39  1  0  0  0  0
 19 22  2  0  0  0  0
 19 40  1  0  0  0  0
 20 52  1  0  0  0  0
 21 24  2  0  0  0  0
 21 51  1  0  0  0  0
 22 41  1  0  0  0  0
 23 26  1  0  0  0  0
 23 58  1  0  0  0  0
 24 25  1  0  0  0  0
 24 59  1  0  0  0  0
 25 26  2  0  0  0  0
 25 60  1  0  0  0  0
 26 78  1  0  0  0  0
 27 88  1  0  0  0  0
 28 89  1  0  0  0  0
 29 31  2  0  0  0  0
 29 88  1  0  0  0  0
 30 90  1  0  0  0  0
 31 91  1  0  0  0  0
 32 72  2  0  0  0  0
 33 73  1  0  0  0  0
 33 76  1  0  0  0  0
 34 77  1  0  0  0  0
 34 83  2  0  0  0  0
 35 53  1  0  0  0  0
 35 79  1  0  0  0  0
 35 84  2  0  0  0  0
 36 69  1  0  0  0  0
 36 74  1  0  0  0  0
 36 85  2  0  0  0  0
 37 70  1  0  0  0  0
 37 80  1  0  0  0  0
 37 86  2  0  0  0  0
 38 75  1  0  0  0  0
 38 78  1  0  0  0  0
 38 87  2  0  0  0  0
 39 42  1  0  0  0  0
 40 53  1  0  0  0  0
 41 74  1  0  0  0  0
 42 44  1  0  0  0  0
 43 45  1  0  0  0  0
 43 48  1  0  0  0  0
 44 52  1  0  0  0  0
 45 56  1  0  0  0  0
 46 51  1  0  0  0  0
 46 57  1  0  0  0  0
 47 55  1  0  0  0  0
 47 57  1  0  0  0  0
 48 75  1  0  0  0  0
 49 56  1  0  0  0  0
 49 75  1  0  0  0  0
 50 54  1  0  0  0  0
 50 81  1  0  0  0  0
 51 54  1  0  0  0  0
 52 79  1  0  0  0  0
 53 74  1  0  0  0  0
 54 55  1  0  0  0  0
 55 61  1  0  0  0  0
 56 73  1  0  0  0  0
 57 81  1  0  0  0  0
 62 70  1  0  0  0  0
 63 71  1  0  0  0  0
 64 71  1  0  0  0  0
 65 71  1  0  0  0  0
 66 82  1  0  0  0  0
 67 68  1  0  0  0  0
 67 81  1  0  0  0  0
 68 89  1  0  0  0  0
 69 71  1  0  0  0  0
 69 80  1  0  0  0  0
 70 82  1  0  0  0  0
 72 73  1  0  0  0  0
M  CHG  2  81   1  82   1
M  ISO  4  38 100  68 101  78 100  89 101
M  END
> <Batch ID>
0159

> <Smiles>
CNC(C)C(=O)NC(C(=O)N1Cc2cc([101O:1][101CH2:1]CN3CC4C(C)CC3CC4c3cc(C)c([100NH:0][100C:0](=O)N4CCCC(n5nc(-c6ccc(Oc7ccc(F)cc7F)cc6)c(C(N)=O)c5N)C4)c(C)c3C)ccc2CC1C(=O)NC1CCCc2ccccc21)C(C)(C)C

> <Shape>
0.249

> <Color>
0.068

> <Negative vol penalty>
0.000

$$$$

  -OEChem-04052322073D

 92102  0     1  0  0  0  0  0999 V2000
  -30.3116  -19.7792   29.2282 C   0  0  0  0  0  0  0  0  0  0  0  0
  -31.3280  -20.2607   28.4094 C   0  0  0  0  0  0  0  0  0  0  0  0
  -23.2345   -9.8221   19.9201 C   0  0  0  0  0  0  0  0  0  0  0  0
  -23.6961   -9.9436   22.2885 C   0  0  0  0  0  0  0  0  0  0  0  0
  -29.2802  -19.0166   28.6819 C   0  0  0  0  0  0  0  0  0  0  0  0
  -31.3142  -19.9789   27.0438 C   0  0  0  0  0  0  0  0  0  0  0  0
  -32.3778  -24.0398   24.2113 C   0  0  0  0  0  0  0  0  0  0  0  0
  -22.4683   -8.6753   20.1283 C   0  0  0  0  0  0  0  0  0  0  0  0
  -22.9297   -8.7969   22.4967 C   0  0  0  0  0  0  0  0  0  0  0  0
  -33.7171  -24.4145   24.1131 C   0  0  0  0  0  0  0  0  0  0  0  0
  -19.6535   -7.9993   22.7214 C   0  0  0  0  0  0  0  0  0  0  0  0
  -18.7537   -8.0076   23.7872 C   0  0  0  0  0  0  0  0  0  0  0  0
  -33.8546  -23.3360   21.9597 C   0  0  0  0  0  0  0  0  0  0  0  0
  -34.2093  -16.5379   21.4148 C   0  0  0  0  0  0  0  0  0  0  0  0
  -19.8968   -6.1181   24.7671 C   0  0  0  0  0  0  0  0  0  0  0  0
  -23.8485  -10.4562   21.0002 C   0  0  0  0  0  0  0  0  0  0  0  0
  -24.1954  -12.9759   20.8042 C   0  0  0  0  0  0  0  0  0  0  0  0
  -29.2485  -18.7335   27.3073 C   0  0  0  0  0  0  0  0  0  0  0  0
  -31.7688  -23.2997   23.1877 C   0  0  0  0  0  0  0  0  0  0  0  0
  -30.2821  -19.2107   26.4788 C   0  0  0  0  0  0  0  0  0  0  0  0
  -32.5068  -22.9553   22.0462 C   0  0  0  0  0  0  0  0  0  0  0  0
  -36.1711  -17.5522   22.3942 C   0  0  0  0  0  0  0  0  0  0  0  0
  -34.9218  -17.6779   21.7868 C   0  0  0  0  0  0  0  0  0  0  0  0
  -36.7080  -16.2865   22.6297 C   0  0  0  0  0  0  0  0  0  0  0  0
  -35.9955  -15.1465   22.2577 C   0  0  0  0  0  0  0  0  0  0  0  0
  -34.7462  -15.2722   21.6503 C   0  0  0  0  0  0  0  0  0  0  0  0
  -22.3158   -8.1627   21.4165 C   0  0  0  0  0  0  0  0  0  0  0  0
  -34.4565  -24.0601   22.9885 C   0  0  0  0  0  0  0  0  0  0  0  0
  -20.6750   -7.0503   22.6784 C   0  0  0  0  0  0  0  0  0  0  0  0
  -18.8754   -7.0670   24.8100 C   0  0  0  0  0  0  0  0  0  0  0  0
  -20.7966   -6.1098   23.7013 C   0  0  0  0  0  0  0  0  0  0  0  0
  -24.6406  -11.6405   20.7858 C   0  0  0  0  0  0  0  0  0  0  0  0
  -25.3227  -13.7173   20.5473 C   0  0  0  0  0  0  0  0  0  0  0  0
  -22.8804  -13.4994   21.0331 C   0  0  0  0  0  0  0  0  0  0  0  0
  -31.0834  -12.5012   21.4486 C   0  0  0  0  0  0  0  0  0  0  0  0
  -30.4245  -20.4260   22.9923 C   0  0  0  0  0  0  0  0  0  0  0  0
  -29.6721  -21.4112   19.9947 C   0  0  0  0  0  0  0  0  0  0  0  0
  -30.3753  -23.4575   17.3556 C   0  0  0  0  0  0  0  0  0  0  0  0
  -28.1384  -17.8652   26.7703 C   0  0  0  0  0  0  0  0  0  0  0  0
  -30.3159  -22.9263   23.2968 C   0  0  0  0  0  0  0  0  0  0  0  0
  -31.8942  -22.1787   20.9104 C   0  0  0  0  0  0  0  0  0  0  0  0
  -27.9973  -17.9268   25.2516 C   0  0  0  0  0  0  0  0  0  0  0  0
  -29.5337  -13.4917   18.3045 C   0  0  0  0  0  0  0  0  0  0  0  0
  -29.3620  -17.7948   24.5829 C   0  0  0  0  0  0  0  0  0  0  0  0
  -28.0572  -13.2152   18.5851 C   0  0  0  0  0  0  0  0  0  0  0  0
  -37.2422  -19.6354   21.5573 C   0  0  0  0  0  0  0  0  0  0  0  0
  -36.1330  -19.5848   23.8275 C   0  0  0  0  0  0  0  0  0  0  0  0
  -30.4364  -12.4706   18.9916 C   0  0  0  0  0  0  0  0  0  0  0  0
  -33.5604  -13.1057   22.1239 C   0  0  0  0  0  0  0  0  0  0  0  0
  -32.8927  -14.1138   20.4068 C   0  0  0  0  0  0  0  0  0  0  0  0
  -28.7337  -12.0865   20.7484 C   0  0  0  0  0  0  0  0  0  0  0  0
  -37.9452  -20.9314   21.9404 C   0  0  0  0  0  0  0  0  0  0  0  0
  -36.8448  -20.8810   24.1933 C   0  0  0  0  0  0  0  0  0  0  0  0
  -36.9318  -18.7755   22.7931 C   0  0  0  0  0  0  0  0  0  0  0  0
  -30.2889  -18.9471   24.9886 C   0  0  1  0  0  0  0  0  0  0  0  0
  -32.5403  -12.7495   21.0271 C   0  0  0  0  0  0  0  0  0  0  0  0
  -29.9393  -21.7308   22.4270 C   0  0  1  0  0  0  0  0  0  0  0  0
  -27.7928  -13.1142   20.0976 C   0  0  2  0  0  0  0  0  0  0  0  0
  -34.3251  -19.0215   21.5225 C   0  0  0  0  0  0  0  0  0  0  0  0
  -38.0482  -16.1523   23.2817 C   0  0  0  0  0  0  0  0  0  0  0  0
  -36.5740  -13.7889   22.5079 C   0  0  0  0  0  0  0  0  0  0  0  0
  -29.6084  -24.0075   15.0303 C   0  0  0  0  0  0  0  0  0  0  0  0
  -37.2428  -25.1241   24.6609 C   0  0  0  0  0  0  0  0  0  0  0  0
  -30.9815  -18.8564   18.9612 C   0  0  0  0  0  0  0  0  0  0  0  0
  -31.0400  -19.8913   16.6822 C   0  0  0  0  0  0  0  0  0  0  0  0
  -28.8520  -19.4780   17.8065 C   0  0  0  0  0  0  0  0  0  0  0  0
  -29.7634  -26.2572   18.0948 C   0  0  0  0  0  0  0  0  0  0  0  0
  -37.6881  -23.0323   23.2575 C   0  0  0  0  0  0  0  0  0  0  0  0
  -30.3445  -21.3384   18.6451 C   0  0  1  0  0  0  0  0  0  0  0  0
  -29.4863  -24.3489   16.5073 C   0  0  2  0  0  0  0  0  0  0  0  0
  -36.6494  -23.9446   23.9017 C   0  0  2  0  0  0  0  0  0  1  0  0
  -30.3169  -19.9040   18.0458 C   0  0  0  0  0  0  0  0  0  0  0  0
  -25.9487  -11.5365   20.5367 N   0  0  0  0  0  0  0  0  0  0  0  0
  -26.3352  -12.8160   20.3962 N   0  0  0  0  0  0  0  0  0  0  0  0
  -34.0091  -14.1298   21.2663 N   0  0  0  0  0  0  0  0  0  0  0  0
  -30.1327  -12.3784   20.4231 N   0  0  0  0  0  0  0  0  0  0  0  0
  -30.4721  -21.8314   21.0668 N   0  0  0  0  0  0  0  0  0  0  0  0
  -25.5368  -15.0457   20.4382 N   0  0  0  0  0  0  0  0  0  0  0  0
  -21.8364  -12.5980   21.2821 N   0  0  0  0  0  0  0  0  0  0  0  0
  -29.9484  -20.1502   24.2598 N   0  0  0  0  0  0  0  0  0  0  0  0
  -29.6980  -22.3466   17.8120 N   0  0  0  0  0  0  0  0  0  0  0  0
  -37.1090  -21.7020   22.9449 N   0  3  0  0  0  0  0  0  0  0  0  0
  -29.8606  -25.7796   16.6914 N   0  3  0  0  0  0  0  0  0  0  0  0
  -22.6352  -14.7292   21.0012 O   0  0  0  0  0  0  0  0  0  0  0  0
  -30.7832  -12.4166   22.6491 O   0  0  0  0  0  0  0  0  0  0  0  0
  -31.1742  -19.7208   22.3271 O   0  0  0  0  0  0  0  0  0  0  0  0
  -28.4791  -21.1134   20.0928 O   0  0  0  0  0  0  0  0  0  0  0  0
  -31.5538  -23.7186   17.5869 O   0  0  0  0  0  0  0  0  0  0  0  0
  -21.5680   -7.0438   21.6200 O   0  0  0  0  0  0  0  0  0  0  0  0
  -35.7641  -24.4240   22.8904 O   0  0  0  0  0  0  0  0  0  1  0  0
  -18.0121   -7.0761   25.8342 F   0  0  0  0  0  0  0  0  0  0  0  0
  -21.7766   -5.1964   23.6661 F   0  0  0  0  0  0  0  0  0  0  0  0
  1  2  1  0  0  0  0
  1  5  2  0  0  0  0
  2  6  2  0  0  0  0
  3  8  2  0  0  0  0
  3 16  1  0  0  0  0
  4  9  1  0  0  0  0
  4 16  2  0  0  0  0
  5 18  1  0  0  0  0
  6 20  1  0  0  0  0
  7 10  2  0  0  0  0
  7 19  1  0  0  0  0
  8 27  1  0  0  0  0
  9 27  2  0  0  0  0
 10 28  1  0  0  0  0
 11 12  2  0  0  0  0
 11 29  1  0  0  0  0
 12 30  1  0  0  0  0
 13 21  1  0  0  0  0
 13 28  2  0  0  0  0
 14 23  2  0  0  0  0
 14 26  1  0  0  0  0
 15 30  2  0  0  0  0
 15 31  1  0  0  0  0
 16 32  1  0  0  0  0
 17 32  1  0  0  0  0
 17 33  2  0  0  0  0
 17 34  1  0  0  0  0
 18 20  2  0  0  0  0
 18 39  1  0  0  0  0
 19 21  2  0  0  0  0
 19 40  1  0  0  0  0
 20 55  1  0  0  0  0
 21 41  1  0  0  0  0
 22 23  1  0  0  0  0
 22 24  2  0  0  0  0
 22 54  1  0  0  0  0
 23 59  1  0  0  0  0
 24 25  1  0  0  0  0
 24 60  1  0  0  0  0
 25 26  2  0  0  0  0
 25 61  1  0  0  0  0
 26 75  1  0  0  0  0
 27 89  1  0  0  0  0
 28 90  1  0  0  0  0
 29 31  2  0  0  0  0
 29 89  1  0  0  0  0
 30 91  1  0  0  0  0
 31 92  1  0  0  0  0
 32 73  2  0  0  0  0
 33 74  1  0  0  0  0
 33 78  1  0  0  0  0
 34 79  1  0  0  0  0
 34 84  2  0  0  0  0
 35 56  1  0  0  0  0
 35 76  1  0  0  0  0
 35 85  2  0  0  0  0
 36 57  1  0  0  0  0
 36 80  1  0  0  0  0
 36 86  2  0  0  0  0
 37 69  1  0  0  0  0
 37 77  1  0  0  0  0
 37 87  2  0  0  0  0
 38 70  1  0  0  0  0
 38 81  1  0  0  0  0
 38 88  2  0  0  0  0
 39 42  1  0  0  0  0
 40 57  1  0  0  0  0
 41 77  1  0  0  0  0
 42 44  1  0  0  0  0
 43 45  1  0  0  0  0
 43 48  1  0  0  0  0
 44 55  1  0  0  0  0
 45 58  1  0  0  0  0
 46 52  1  0  0  0  0
 46 54  1  0  0  0  0
 47 53  1  0  0  0  0
 47 54  1  0  0  0  0
 48 76  1  0  0  0  0
 49 56  1  0  0  0  0
 49 75  1  0  0  0  0
 50 56  1  0  0  0  0
 50 75  1  0  0  0  0
 51 58  1  0  0  0  0
 51 76  1  0  0  0  0
 52 82  1  0  0  0  0
 53 82  1  0  0  0  0
 55 80  1  0  0  0  0
 57 77  1  0  0  0  0
 58 74  1  0  0  0  0
 62 70  1  0  0  0  0
 63 71  1  0  0  0  0
 64 72  1  0  0  0  0
 65 72  1  0  0  0  0
 66 72  1  0  0  0  0
 67 83  1  0  0  0  0
 68 71  1  0  0  0  0
 68 82  1  0  0  0  0
 69 72  1  0  0  0  0
 69 81  1  0  0  0  0
 70 83  1  0  0  0  0
 71 90  1  0  0  0  0
 73 74  1  0  0  0  0
M  CHG  2  82   1  83   1
M  ISO  4  35 100  56 100  71 101  90 101
M  END
> <Batch ID>
0159

> <Smiles>
CNC(C)C(=O)NC(C(=O)N1Cc2cc([101O:1][101CH:1](C)CN3CCC(c4c(C)cc(N5C[100CH:0]([100C:0](=O)N6CCCC(n7nc(-c8ccc(Oc9ccc(F)cc9F)cc8)c(C(N)=O)c7N)C6)C5)c(C)c4C)CC3)ccc2CC1C(=O)NC1CCCc2ccccc21)C(C)(C)C

> <Shape>
0.184

> <Color>
0.174

> <Negative vol penalty>
0.000

$$$$

  -OEChem-04052322073D

 84 93  0     1  0  0  0  0  0999 V2000
  -27.6543  -37.2091   23.9938 C   0  0  0  0  0  0  0  0  0  0  0  0
  -28.1779  -36.0933   23.3486 C   0  0  0  0  0  0  0  0  0  0  0  0
  -23.8411  -12.6376   19.3096 C   0  0  0  0  0  0  0  0  0  0  0  0
  -24.9169  -11.9565   21.3629 C   0  0  0  0  0  0  0  0  0  0  0  0
  -26.5974  -37.0619   24.8912 C   0  0  0  0  0  0  0  0  0  0  0  0
  -27.6457  -34.8295   23.6013 C   0  0  0  0  0  0  0  0  0  0  0  0
  -27.0697  -30.2138   19.6176 C   0  0  0  0  0  0  0  0  0  0  0  0
  -23.7083  -11.3004   18.9356 C   0  0  0  0  0  0  0  0  0  0  0  0
  -24.7841  -10.6193   20.9889 C   0  0  0  0  0  0  0  0  0  0  0  0
  -27.8455  -29.0809   19.3762 C   0  0  0  0  0  0  0  0  0  0  0  0
  -22.3527   -8.2724   20.9599 C   0  0  0  0  0  0  0  0  0  0  0  0
  -21.9013   -7.3727   21.9255 C   0  0  0  0  0  0  0  0  0  0  0  0
  -28.7890  -23.8807   18.7585 C   0  0  0  0  0  0  0  0  0  0  0  0
  -30.6285  -22.4360   19.3634 C   0  0  0  0  0  0  0  0  0  0  0  0
  -26.3927  -27.7891   20.8045 C   0  0  0  0  0  0  0  0  0  0  0  0
  -29.7703  -24.0322   20.9610 C   0  0  0  0  0  0  0  0  0  0  0  0
  -23.9508   -6.1119   21.7088 C   0  0  0  0  0  0  0  0  0  0  0  0
  -24.4455  -12.9657   20.5232 C   0  0  0  0  0  0  0  0  0  0  0  0
  -23.6658  -15.1190   21.6471 C   0  0  0  0  0  0  0  0  0  0  0  0
  -26.0456  -35.7969   25.1477 C   0  0  0  0  0  0  0  0  0  0  0  0
  -25.9540  -30.1453   20.4644 C   0  0  0  0  0  0  0  0  0  0  0  0
  -26.5813  -34.6651   24.5039 C   0  0  0  0  0  0  0  0  0  0  0  0
  -29.6883  -22.8671   18.4276 C   0  0  0  0  0  0  0  0  0  0  0  0
  -25.6029  -28.9220   21.0530 C   0  0  0  0  0  0  0  0  0  0  0  0
  -28.8300  -24.4633   20.0252 C   0  0  0  0  0  0  0  0  0  0  0  0
  -24.1798  -10.2913   19.7752 C   0  0  0  0  0  0  0  0  0  0  0  0
  -27.5087  -27.8689   19.9719 C   0  0  0  0  0  0  0  0  0  0  0  0
  -23.6031   -8.0918   20.3686 C   0  0  0  0  0  0  0  0  0  0  0  0
  -30.6696  -23.0186   20.6301 C   0  0  0  0  0  0  0  0  0  0  0  0
  -22.7004   -6.2925   22.3000 C   0  0  0  0  0  0  0  0  0  0  0  0
  -24.4022   -7.0116   20.7431 C   0  0  0  0  0  0  0  0  0  0  0  0
  -24.5834  -14.3468   20.9099 C   0  0  0  0  0  0  0  0  0  0  0  0
  -24.2585  -16.3539   21.7472 C   0  0  0  0  0  0  0  0  0  0  0  0
  -22.3915  -14.7526   22.1927 C   0  0  0  0  0  0  0  0  0  0  0  0
  -25.1339  -31.5213   23.2099 C   0  0  0  0  0  0  0  0  0  0  0  0
  -22.3147  -30.0081   22.6767 C   0  0  0  0  0  0  0  0  0  0  0  0
  -20.6416  -27.4485   21.1614 C   0  0  0  0  0  0  0  0  0  0  0  0
  -28.2664  -18.9908   18.2140 C   0  0  0  0  0  0  0  0  0  0  0  0
  -24.9349  -35.6814   26.1615 C   0  0  0  0  0  0  0  0  0  0  0  0
  -25.1119  -31.3704   20.6934 C   0  0  0  0  0  0  0  0  0  0  0  0
  -24.4031  -28.7909   21.9540 C   0  0  0  0  0  0  0  0  0  0  0  0
  -24.1810  -34.3559   26.0907 C   0  0  0  0  0  0  0  0  0  0  0  0
  -28.5289  -18.4710   21.8573 C   0  0  0  0  0  0  0  0  0  0  0  0
  -25.1597  -33.1891   26.0027 C   0  0  0  0  0  0  0  0  0  0  0  0
  -27.4875  -17.3770   22.0733 C   0  0  0  0  0  0  0  0  0  0  0  0
  -28.3376  -21.6943   16.5683 C   0  0  0  0  0  0  0  0  0  0  0  0
  -29.2256  -18.3404   20.5035 C   0  0  0  0  0  0  0  0  0  0  0  0
  -27.2379  -17.1926   19.5676 C   0  0  0  0  0  0  0  0  0  0  0  0
  -29.6444  -22.2441   17.0745 C   0  0  2  0  0  0  0  0  0  0  0  0
  -26.0146  -33.2807   24.7330 C   0  0  1  0  0  0  0  0  0  0  0  0
  -24.2969  -31.3030   21.9813 C   0  0  1  0  0  0  0  0  0  0  0  0
  -26.4926  -17.3365   20.9034 C   0  0  1  0  0  0  0  0  0  0  0  0
  -29.4524  -20.7403   16.9237 C   0  0  2  0  0  0  0  0  0  0  0  0
  -30.1759  -20.0671   15.7870 C   0  0  0  0  0  0  0  0  0  0  0  0
  -18.3501  -26.4490   20.9432 C   0  0  0  0  0  0  0  0  0  0  0  0
  -22.5780  -28.8014   25.4667 C   0  0  0  0  0  0  0  0  0  0  0  0
  -20.8268  -27.1283   24.8325 C   0  0  0  0  0  0  0  0  0  0  0  0
  -20.2703  -29.5597   24.8716 C   0  0  0  0  0  0  0  0  0  0  0  0
  -20.5957  -27.9018   18.2371 C   0  0  0  0  0  0  0  0  0  0  0  0
  -32.4748  -21.5570   21.1405 C   0  0  0  0  0  0  0  0  0  0  0  0
  -27.8621  -25.5530   20.3814 C   0  0  0  0  0  0  0  0  0  1  0  0
  -21.7444  -28.6551   23.0275 C   0  0  1  0  0  0  0  0  0  0  0  0
  -19.3571  -27.4238   20.3528 C   0  0  2  0  0  0  0  0  0  0  0  0
  -21.3787  -28.5387   24.5342 C   0  0  0  0  0  0  0  0  0  0  0  0
  -25.6761  -15.0337   20.5659 N   0  0  0  0  0  0  0  0  0  0  0  0
  -25.4487  -16.2505   21.0891 N   0  0  0  0  0  0  0  0  0  0  0  0
  -23.6149  -30.0185   22.1521 N   0  0  0  0  0  0  0  0  0  0  0  0
  -28.2545  -18.2389   19.4027 N   0  0  0  0  0  0  0  0  0  0  0  0
  -23.8726  -17.5073   22.3329 N   0  0  0  0  0  0  0  0  0  0  0  0
  -21.9328  -13.4427   21.9977 N   0  0  0  0  0  0  0  0  0  0  0  0
  -25.2550  -32.8471   23.5799 N   0  0  0  0  0  0  0  0  0  0  0  0
  -20.6217  -28.4379   22.1216 N   0  0  0  0  0  0  0  0  0  0  0  0
  -29.3056  -19.9054   18.0861 N   0  0  0  0  0  0  0  0  0  0  0  0
  -19.6376  -27.0158   18.9471 N   0  3  0  0  0  0  0  0  0  0  0  0
  -21.6733  -15.5676   22.8201 O   0  0  0  0  0  0  0  0  0  0  0  0
  -25.6318  -30.5580   23.7808 O   0  0  0  0  0  0  0  0  0  0  0  0
  -21.6290  -31.0180   22.8546 O   0  0  0  0  0  0  0  0  0  0  0  0
  -21.5683  -26.6658   20.9637 O   0  0  0  0  0  0  0  0  0  0  0  0
  -27.4167  -18.8545   17.3267 O   0  0  0  0  0  0  0  0  0  0  0  0
  -24.0501   -8.9863   19.4107 O   0  0  0  0  0  0  0  0  0  0  0  0
  -31.5862  -22.5977   21.5441 O   0  0  0  0  0  0  0  0  0  0  0  0
  -28.2646  -26.7617   19.7384 O   0  0  0  0  0  0  0  0  0  1  0  0
  -22.2674   -5.4295   23.2284 F   0  0  0  0  0  0  0  0  0  0  0  0
  -25.6049   -6.8336   20.1795 F   0  0  0  0  0  0  0  0  0  0  0  0
  1  2  1  0  0  0  0
  1  5  2  0  0  0  0
  2  6  2  0  0  0  0
  3  8  2  0  0  0  0
  3 18  1  0  0  0  0
  4  9  1  0  0  0  0
  4 18  2  0  0  0  0
  5 20  1  0  0  0  0
  6 22  1  0  0  0  0
  7 10  2  0  0  0  0
  7 21  1  0  0  0  0
  8 26  1  0  0  0  0
  9 26  2  0  0  0  0
 10 27  1  0  0  0  0
 11 12  2  0  0  0  0
 11 28  1  0  0  0  0
 12 30  1  0  0  0  0
 13 23  1  0  0  0  0
 13 25  2  0  0  0  0
 14 23  2  0  0  0  0
 14 29  1  0  0  0  0
 15 24  1  0  0  0  0
 15 27  2  0  0  0  0
 16 25  1  0  0  0  0
 16 29  2  0  0  0  0
 17 30  2  0  0  0  0
 17 31  1  0  0  0  0
 18 32  1  0  0  0  0
 19 32  1  0  0  0  0
 19 33  2  0  0  0  0
 19 34  1  0  0  0  0
 20 22  2  0  0  0  0
 20 39  1  0  0  0  0
 21 24  2  0  0  0  0
 21 40  1  0  0  0  0
 22 50  1  0  0  0  0
 23 49  1  0  0  0  0
 24 41  1  0  0  0  0
 25 61  1  0  0  0  0
 26 80  1  0  0  0  0
 27 82  1  0  0  0  0
 28 31  2  0  0  0  0
 28 80  1  0  0  0  0
 29 81  1  0  0  0  0
 30 83  1  0  0  0  0
 31 84  1  0  0  0  0
 32 65  2  0  0  0  0
 33 66  1  0  0  0  0
 33 69  1  0  0  0  0
 34 70  1  0  0  0  0
 34 75  2  0  0  0  0
 35 51  1  0  0  0  0
 35 71  1  0  0  0  0
 35 76  2  0  0  0  0
 36 62  1  0  0  0  0
 36 67  1  0  0  0  0
 36 77  2  0  0  0  0
 37 63  1  0  0  0  0
 37 72  1  0  0  0  0
 37 78  2  0  0  0  0
 38 68  1  0  0  0  0
 38 73  1  0  0  0  0
 38 79  2  0  0  0  0
 39 42  1  0  0  0  0
 40 51  1  0  0  0  0
 41 67  1  0  0  0  0
 42 44  1  0  0  0  0
 43 45  1  0  0  0  0
 43 47  1  0  0  0  0
 44 50  1  0  0  0  0
 45 52  1  0  0  0  0
 46 49  1  0  0  0  0
 46 53  1  0  0  0  0
 47 68  1  0  0  0  0
 48 52  1  0  0  0  0
 48 68  1  0  0  0  0
 49 53  1  0  0  0  0
 50 71  1  0  0  0  0
 51 67  1  0  0  0  0
 52 66  1  0  0  0  0
 53 54  1  0  0  0  0
 53 73  1  0  0  0  0
 55 63  1  0  0  0  0
 56 64  1  0  0  0  0
 57 64  1  0  0  0  0
 58 64  1  0  0  0  0
 59 74  1  0  0  0  0
 60 81  1  0  0  0  0
 61 82  1  0  0  0  0
 62 64  1  0  0  0  0
 62 72  1  0  0  0  0
 63 74  1  0  0  0  0
 65 66  1  0  0  0  0
M  CHG  1  74   1
M  ISO  4  38 100  61 101  73 100  82 101
M  END
> <Batch ID>
0159

> <Smiles>
CNC(C)C(=O)NC(C(=O)N1Cc2cc([101O:1][101CH2:1]c3cc(OC)cc(C4CC4(C)[100NH:0][100C:0](=O)N4CCCC(n5nc(-c6ccc(Oc7ccc(F)cc7F)cc6)c(C(N)=O)c5N)C4)c3)ccc2CC1C(=O)NC1CCCc2ccccc21)C(C)(C)C

> <Shape>
0.315

> <Color>
0.083

> <Negative vol penalty>
0.000

$$$$

  -OEChem-04052322073D

 85 94  0     1  0  0  0  0  0999 V2000
  -34.8000  -36.3746   19.9536 C   0  0  0  0  0  0  0  0  0  0  0  0
  -34.4433  -35.0494   19.7254 C   0  0  0  0  0  0  0  0  0  0  0  0
  -24.7837   -8.8064   21.6903 C   0  0  0  0  0  0  0  0  0  0  0  0
  -24.2463   -8.3260   19.3844 C   0  0  0  0  0  0  0  0  0  0  0  0
  -34.2190  -37.0803   21.0064 C   0  0  0  0  0  0  0  0  0  0  0  0
  -33.5061  -34.4288   20.5506 C   0  0  0  0  0  0  0  0  0  0  0  0
  -29.3631  -30.2287   18.9074 C   0  0  0  0  0  0  0  0  0  0  0  0
  -28.2909  -23.9394   18.6288 C   0  0  0  0  0  0  0  0  0  0  0  0
  -23.5961   -8.1966   22.0942 C   0  0  0  0  0  0  0  0  0  0  0  0
  -23.0586   -7.7162   19.7882 C   0  0  0  0  0  0  0  0  0  0  0  0
  -29.3477  -28.8381   19.0049 C   0  0  0  0  0  0  0  0  0  0  0  0
  -28.1336  -22.5708   18.8473 C   0  0  0  0  0  0  0  0  0  0  0  0
  -20.8789   -6.4467   23.7586 C   0  0  0  0  0  0  0  0  0  0  0  0
  -20.9353   -5.5721   24.8437 C   0  0  0  0  0  0  0  0  0  0  0  0
  -28.0978  -29.0021   21.0616 C   0  0  0  0  0  0  0  0  0  0  0  0
  -29.7908  -22.6606   20.6030 C   0  0  0  0  0  0  0  0  0  0  0  0
  -22.4963   -4.1769   23.6379 C   0  0  0  0  0  0  0  0  0  0  0  0
  -25.1088   -8.8712   20.3354 C   0  0  0  0  0  0  0  0  0  0  0  0
  -27.5922   -8.8894   19.7519 C   0  0  0  0  0  0  0  0  0  0  0  0
  -33.2670  -36.4710   21.8389 C   0  0  0  0  0  0  0  0  0  0  0  0
  -28.7543  -31.0182   19.8936 C   0  0  0  0  0  0  0  0  0  0  0  0
  -32.9128  -35.1266   21.6163 C   0  0  0  0  0  0  0  0  0  0  0  0
  -28.1047  -30.4026   20.9730 C   0  0  0  0  0  0  0  0  0  0  0  0
  -29.1982  -24.6686   19.3974 C   0  0  0  0  0  0  0  0  0  0  0  0
  -29.9482  -24.0292   20.3845 C   0  0  0  0  0  0  0  0  0  0  0  0
  -22.7335   -7.6515   21.1432 C   0  0  0  0  0  0  0  0  0  0  0  0
  -28.7175  -28.2246   20.0836 C   0  0  0  0  0  0  0  0  0  0  0  0
  -28.8835  -21.9314   19.8344 C   0  0  0  0  0  0  0  0  0  0  0  0
  -21.6311   -6.1864   22.6131 C   0  0  0  0  0  0  0  0  0  0  0  0
  -21.7440   -4.4372   24.7834 C   0  0  0  0  0  0  0  0  0  0  0  0
  -22.4398   -5.0515   22.5528 C   0  0  0  0  0  0  0  0  0  0  0  0
  -26.3353   -9.5015   19.9175 C   0  0  0  0  0  0  0  0  0  0  0  0
  -28.4193   -9.9080   19.3460 C   0  0  0  0  0  0  0  0  0  0  0  0
  -27.9775   -7.5223   19.9474 C   0  0  0  0  0  0  0  0  0  0  0  0
  -29.7744  -33.2070   21.9605 C   0  0  0  0  0  0  0  0  0  0  0  0
  -26.6073  -33.5330   22.5813 C   0  0  0  0  0  0  0  0  0  0  0  0
  -23.4881  -32.1491   22.5333 C   0  0  0  0  0  0  0  0  0  0  0  0
  -28.4390  -15.6284   20.1612 C   0  0  0  0  0  0  0  0  0  0  0  0
  -32.7013  -37.2597   22.9933 C   0  0  0  0  0  0  0  0  0  0  0  0
  -28.7565  -32.5164   19.7599 C   0  0  0  0  0  0  0  0  0  0  0  0
  -27.4189  -31.2045   22.0477 C   0  0  0  0  0  0  0  0  0  0  0  0
  -31.4388  -36.6440   23.5911 C   0  0  0  0  0  0  0  0  0  0  0  0
  -28.3704  -14.0781   17.0126 C   0  0  0  0  0  0  0  0  0  0  0  0
  -31.6253  -35.1451   23.8044 C   0  0  0  0  0  0  0  0  0  0  0  0
  -27.9594  -12.6537   17.3846 C   0  0  0  0  0  0  0  0  0  0  0  0
  -30.1724  -18.7910   19.3004 C   0  0  0  0  0  0  0  0  0  0  0  0
  -27.7578  -18.9451   18.5552 C   0  0  0  0  0  0  0  0  0  0  0  0
  -27.6043  -15.1255   17.8224 C   0  0  0  0  0  0  0  0  0  0  0  0
  -29.7709  -17.7004   20.2923 C   0  0  0  0  0  0  0  0  0  0  0  0
  -27.4112  -17.8545   19.5661 C   0  0  0  0  0  0  0  0  0  0  0  0
  -27.2702  -13.5030   19.6587 C   0  0  0  0  0  0  0  0  0  0  0  0
  -31.8816  -34.4263   22.4744 C   0  0  1  0  0  0  0  0  0  0  0  0
  -28.5504  -33.2352   21.0896 C   0  0  1  0  0  0  0  0  0  0  0  0
  -28.0653  -12.4268   18.9032 C   0  0  1  0  0  0  0  0  0  0  0  0
  -29.0135  -19.7246   18.9493 C   0  0  0  0  0  0  0  0  0  0  0  0
  -30.9263  -24.7892   21.2187 C   0  0  0  0  0  0  0  0  0  0  0  0
  -21.1038  -32.6441   23.1397 C   0  0  0  0  0  0  0  0  0  0  0  0
  -27.2663  -33.0867   25.5269 C   0  0  0  0  0  0  0  0  0  0  0  0
  -24.8354  -32.6457   25.9321 C   0  0  0  0  0  0  0  0  0  0  0  0
  -25.5740  -34.8769   25.0962 C   0  0  0  0  0  0  0  0  0  0  0  0
  -22.5909  -31.8495   19.7290 C   0  0  0  0  0  0  0  0  0  0  0  0
  -29.3492  -26.1327   19.1450 C   0  0  0  0  0  0  0  0  0  1  0  0
  -25.6332  -32.8875   23.5371 C   0  0  1  0  0  0  0  0  0  0  0  0
  -22.1556  -32.6854   22.0421 C   0  0  2  0  0  0  0  0  0  0  0  0
  -25.8417  -33.3589   25.0040 C   0  0  0  0  0  0  0  0  0  0  0  0
  -26.3573  -10.8078   19.6398 N   0  0  0  0  0  0  0  0  0  0  0  0
  -27.6381  -11.0249   19.2956 N   0  0  0  0  0  0  0  0  0  0  0  0
  -27.4538  -32.6662   21.8756 N   0  0  0  0  0  0  0  0  0  0  0  0
  -27.7018  -14.8446   19.2610 N   0  0  0  0  0  0  0  0  0  0  0  0
  -28.5662  -16.9945   19.8573 N   0  0  0  0  0  0  0  0  0  0  0  0
  -29.7314   -9.9483   19.0311 N   0  0  0  0  0  0  0  0  0  0  0  0
  -27.0025   -6.6067   20.3661 N   0  0  0  0  0  0  0  0  0  0  0  0
  -30.6437  -34.2590   21.7435 N   0  0  0  0  0  0  0  0  0  0  0  0
  -24.3012  -33.1571   23.0065 N   0  0  0  0  0  0  0  0  0  0  0  0
  -21.6648  -31.8771   20.8902 N   0  3  0  0  0  0  0  0  0  0  0  0
  -29.1553   -7.1278   19.7722 O   0  0  0  0  0  0  0  0  0  0  0  0
  -29.9187  -32.2989   22.7706 O   0  0  0  0  0  0  0  0  0  0  0  0
  -26.6119  -34.7605   22.4598 O   0  0  0  0  0  0  0  0  0  0  0  0
  -23.7771  -30.9549   22.5039 O   0  0  0  0  0  0  0  0  0  0  0  0
  -28.9562  -15.1396   21.1734 O   0  0  0  0  0  0  0  0  0  0  0  0
  -21.5746   -7.0561   21.5369 O   0  0  0  0  0  0  0  0  0  0  0  0
  -28.7295  -20.5870   20.0488 O   0  0  0  0  0  0  0  0  0  0  0  0
  -28.7015  -26.8578   20.1823 O   0  0  0  0  0  0  0  0  0  1  0  0
  -21.7993   -3.5982   25.8261 F   0  0  0  0  0  0  0  0  0  0  0  0
  -23.1656   -4.7968   21.4554 F   0  0  0  0  0  0  0  0  0  0  0  0
  1  2  1  0  0  0  0
  1  5  2  0  0  0  0
  2  6  2  0  0  0  0
  3  9  2  0  0  0  0
  3 18  1  0  0  0  0
  4 10  1  0  0  0  0
  4 18  2  0  0  0  0
  5 20  1  0  0  0  0
  6 22  1  0  0  0  0
  7 11  2  0  0  0  0
  7 21  1  0  0  0  0
  8 12  2  0  0  0  0
  8 24  1  0  0  0  0
  9 26  1  0  0  0  0
 10 26  2  0  0  0  0
 11 27  1  0  0  0  0
 12 28  1  0  0  0  0
 13 14  2  0  0  0  0
 13 29  1  0  0  0  0
 14 30  1  0  0  0  0
 15 23  1  0  0  0  0
 15 27  2  0  0  0  0
 16 25  1  0  0  0  0
 16 28  2  0  0  0  0
 17 30  2  0  0  0  0
 17 31  1  0  0  0  0
 18 32  1  0  0  0  0
 19 32  1  0  0  0  0
 19 33  2  0  0  0  0
 19 34  1  0  0  0  0
 20 22  2  0  0  0  0
 20 39  1  0  0  0  0
 21 23  2  0  0  0  0
 21 40  1  0  0  0  0
 22 52  1  0  0  0  0
 23 41  1  0  0  0  0
 24 25  2  0  0  0  0
 24 62  1  0  0  0  0
 25 56  1  0  0  0  0
 26 81  1  0  0  0  0
 27 83  1  0  0  0  0
 28 82  1  0  0  0  0
 29 31  2  0  0  0  0
 29 81  1  0  0  0  0
 30 84  1  0  0  0  0
 31 85  1  0  0  0  0
 32 66  2  0  0  0  0
 33 67  1  0  0  0  0
 33 71  1  0  0  0  0
 34 72  1  0  0  0  0
 34 76  2  0  0  0  0
 35 53  1  0  0  0  0
 35 73  1  0  0  0  0
 35 77  2  0  0  0  0
 36 63  1  0  0  0  0
 36 68  1  0  0  0  0
 36 78  2  0  0  0  0
 37 64  1  0  0  0  0
 37 74  1  0  0  0  0
 37 79  2  0  0  0  0
 38 69  1  0  0  0  0
 38 70  1  0  0  0  0
 38 80  2  0  0  0  0
 39 42  1  0  0  0  0
 40 53  1  0  0  0  0
 41 68  1  0  0  0  0
 42 44  1  0  0  0  0
 43 45  1  0  0  0  0
 43 48  1  0  0  0  0
 44 52  1  0  0  0  0
 45 54  1  0  0  0  0
 46 49  1  0  0  0  0
 46 55  1  0  0  0  0
 47 50  1  0  0  0  0
 47 55  1  0  0  0  0
 48 69  1  0  0  0  0
 49 70  1  0  0  0  0
 50 70  1  0  0  0  0
 51 54  1  0  0  0  0
 51 69  1  0  0  0  0
 52 73  1  0  0  0  0
 53 68  1  0  0  0  0
 54 67  1  0  0  0  0
 55 82  1  0  0  0  0
 57 64  1  0  0  0  0
 58 65  1  0  0  0  0
 59 65  1  0  0  0  0
 60 65  1  0  0  0  0
 61 75  1  0  0  0  0
 62 83  1  0  0  0  0
 63 65  1  0  0  0  0
 63 74  1  0  0  0  0
 64 75  1  0  0  0  0
 66 67  1  0  0  0  0
M  CHG  1  75   1
M  ISO  4  38 100  62 101  70 100  83 101
M  END
> <Batch ID>
0159

> <Smiles>
CNC(C)C(=O)NC(C(=O)N1Cc2cc([101O:1][101CH2:1]c3ccc(OC4CC[100N:0]([100C:0](=O)N5CCCC(n6nc(-c7ccc(Oc8ccc(F)cc8F)cc7)c(C(N)=O)c6N)C5)CC4)cc3C)ccc2CC1C(=O)NC1CCCc2ccccc21)C(C)(C)C

> <Shape>
0.254

> <Color>
0.097

> <Negative vol penalty>
0.000

$$$$

  -OEChem-04052322073D

 83 92  0     1  0  0  0  0  0999 V2000
  -24.6930  -31.1224   21.6430 C   0  0  0  0  0  0  0  0  0  0  0  0
  -24.2657  -29.9490   22.2561 C   0  0  0  0  0  0  0  0  0  0  0  0
  -24.6737  -12.5776   20.8619 C   0  0  0  0  0  0  0  0  0  0  0  0
  -24.9428  -14.5364   22.2504 C   0  0  0  0  0  0  0  0  0  0  0  0
  -25.2986  -31.0713   20.3882 C   0  0  0  0  0  0  0  0  0  0  0  0
  -24.4428  -28.7238   21.6142 C   0  0  0  0  0  0  0  0  0  0  0  0
  -26.2128  -25.1397   24.7233 C   0  0  0  0  0  0  0  0  0  0  0  0
  -26.0576  -12.4057   20.8362 C   0  0  0  0  0  0  0  0  0  0  0  0
  -26.3268  -14.3645   22.2246 C   0  0  0  0  0  0  0  0  0  0  0  0
  -25.3005  -24.5440   25.5930 C   0  0  0  0  0  0  0  0  0  0  0  0
  -29.5415  -11.6596   20.1083 C   0  0  0  0  0  0  0  0  0  0  0  0
  -30.1379  -11.3702   18.8810 C   0  0  0  0  0  0  0  0  0  0  0  0
  -21.6539  -21.9443   22.6655 C   0  0  0  0  0  0  0  0  0  0  0  0
  -25.1299  -22.6508   24.1078 C   0  0  0  0  0  0  0  0  0  0  0  0
  -18.9761  -21.1655   22.7396 C   0  0  0  0  0  0  0  0  0  0  0  0
  -29.3026  -13.4524   17.9843 C   0  0  0  0  0  0  0  0  0  0  0  0
  -24.1163  -13.6430   21.5690 C   0  0  0  0  0  0  0  0  0  0  0  0
  -21.7802  -13.2845   22.5291 C   0  0  0  0  0  0  0  0  0  0  0  0
  -25.4920  -29.8439   19.7348 C   0  0  0  0  0  0  0  0  0  0  0  0
  -26.5829  -24.4993   23.5319 C   0  0  0  0  0  0  0  0  0  0  0  0
  -25.0504  -28.6564   20.3489 C   0  0  0  0  0  0  0  0  0  0  0  0
  -20.9357  -22.0289   23.8583 C   0  0  0  0  0  0  0  0  0  0  0  0
  -26.0491  -23.2394   23.2258 C   0  0  0  0  0  0  0  0  0  0  0  0
  -21.0331  -21.4705   21.5098 C   0  0  0  0  0  0  0  0  0  0  0  0
  -19.5968  -21.6394   23.8954 C   0  0  0  0  0  0  0  0  0  0  0  0
  -19.6942  -21.0810   21.5468 C   0  0  0  0  0  0  0  0  0  0  0  0
  -26.8842  -13.2991   21.5175 C   0  0  0  0  0  0  0  0  0  0  0  0
  -24.7567  -23.3007   25.2839 C   0  0  0  0  0  0  0  0  0  0  0  0
  -28.8256  -12.8453   20.2736 C   0  0  0  0  0  0  0  0  0  0  0  0
  -30.0184  -12.2666   17.8190 C   0  0  0  0  0  0  0  0  0  0  0  0
  -28.7061  -13.7417   19.2116 C   0  0  0  0  0  0  0  0  0  0  0  0
  -22.6867  -13.8215   21.5955 C   0  0  0  0  0  0  0  0  0  0  0  0
  -20.5526  -13.7446   22.1194 C   0  0  0  0  0  0  0  0  0  0  0  0
  -22.0258  -12.4450   23.6651 C   0  0  0  0  0  0  0  0  0  0  0  0
  -26.3187  -25.1871   20.4398 C   0  0  0  0  0  0  0  0  0  0  0  0
  -28.1120  -22.5069   20.0896 C   0  0  0  0  0  0  0  0  0  0  0  0
  -29.1355  -19.5169   21.3777 C   0  0  0  0  0  0  0  0  0  0  0  0
  -18.8423  -18.5184   18.9355 C   0  0  0  0  0  0  0  0  0  0  0  0
  -26.1087  -29.8435   18.3585 C   0  0  0  0  0  0  0  0  0  0  0  0
  -27.5886  -25.1431   22.6173 C   0  0  0  0  0  0  0  0  0  0  0  0
  -26.4292  -22.5010   21.9693 C   0  0  0  0  0  0  0  0  0  0  0  0
  -26.5979  -28.4685   17.9107 C   0  0  0  0  0  0  0  0  0  0  0  0
  -18.1822  -15.0999   18.1907 C   0  0  0  0  0  0  0  0  0  0  0  0
  -25.5394  -27.4071   18.1934 C   0  0  0  0  0  0  0  0  0  0  0  0
  -19.1800  -14.3362   19.0630 C   0  0  0  0  0  0  0  0  0  0  0  0
  -21.6135  -21.6948   26.3291 C   0  0  0  0  0  0  0  0  0  0  0  0
  -18.7799  -16.3989   17.6547 C   0  0  0  0  0  0  0  0  0  0  0  0
  -20.3422  -16.5281   19.5563 C   0  0  0  0  0  0  0  0  0  0  0  0
  -21.6146  -22.5364   25.0744 C   0  0  1  0  0  0  0  0  0  0  0  0
  -25.2472  -27.3057   19.6954 C   0  0  1  0  0  0  0  0  0  0  0  0
  -27.5026  -24.6341   21.1817 C   0  0  1  0  0  0  0  0  0  0  0  0
  -19.7662  -15.2384   20.1656 C   0  0  2  0  0  0  0  0  0  0  0  0
  -22.8823  -21.8613   25.5502 C   0  0  1  0  0  0  0  0  0  1  0  0
  -21.8220  -21.3885   20.2442 C   0  0  0  0  0  0  0  0  0  0  0  0
  -18.8065  -21.7194   25.1604 C   0  0  0  0  0  0  0  0  0  0  0  0
  -30.5731  -17.5306   20.8438 C   0  0  0  0  0  0  0  0  0  0  0  0
  -25.9731  -21.4771   18.1727 C   0  0  0  0  0  0  0  0  0  0  0  0
  -26.9510  -19.1860   18.4227 C   0  0  0  0  0  0  0  0  0  0  0  0
  -28.3248  -21.0273   17.4506 C   0  0  0  0  0  0  0  0  0  0  0  0
  -30.8786  -20.0029   23.7196 C   0  0  0  0  0  0  0  0  0  0  0  0
  -19.0084  -20.5697   20.3226 C   0  0  0  0  0  0  0  0  0  0  0  0
  -27.8153  -21.0357   19.9270 C   0  0  1  0  0  0  0  0  0  0  0  0
  -30.5146  -18.8963   21.5102 C   0  0  2  0  0  0  0  0  0  0  0  0
  -27.2572  -20.6960   18.5161 C   0  0  0  0  0  0  0  0  0  0  0  0
  -22.0863  -14.5656   20.6629 N   0  0  0  0  0  0  0  0  0  0  0  0
  -20.7892  -14.4995   21.0084 N   0  0  0  0  0  0  0  0  0  0  0  0
  -27.4115  -23.1747   21.1040 N   0  0  0  0  0  0  0  0  0  0  0  0
  -19.3167  -17.2093   18.7507 N   0  0  0  0  0  0  0  0  0  0  0  0
  -19.3046  -13.5730   22.6047 N   0  0  0  0  0  0  0  0  0  0  0  0
  -23.3462  -12.0659   23.9427 N   0  0  0  0  0  0  0  0  0  0  0  0
  -26.2957  -26.5668   20.3655 N   0  0  0  0  0  0  0  0  0  0  0  0
  -29.0461  -20.3308   20.2683 N   0  0  0  0  0  0  0  0  0  0  0  0
  -19.3990  -19.2151   20.0011 N   0  0  0  0  0  0  0  0  0  0  0  0
  -30.8736  -18.7338   22.9474 N   0  3  0  0  0  0  0  0  0  0  0  0
  -21.0998  -12.0295   24.4024 O   0  0  0  0  0  0  0  0  0  0  0  0
  -25.4885  -24.4189   19.9684 O   0  0  0  0  0  0  0  0  0  0  0  0
  -28.9403  -23.0422   19.3486 O   0  0  0  0  0  0  0  0  0  0  0  0
  -28.2273  -19.2984   22.1764 O   0  0  0  0  0  0  0  0  0  0  0  0
  -17.9821  -19.0266   18.2084 O   0  0  0  0  0  0  0  0  0  0  0  0
  -28.2347  -13.1315   21.4928 O   0  0  0  0  0  0  0  0  0  0  0  0
  -23.8654  -22.7172   26.1308 O   0  0  0  0  0  0  0  0  0  1  0  0
  -30.5925  -11.9894   16.6410 F   0  0  0  0  0  0  0  0  0  0  0  0
  -28.0206  -14.8829   19.3647 F   0  0  0  0  0  0  0  0  0  0  0  0
  1  2  1  0  0  0  0
  1  5  2  0  0  0  0
  2  6  2  0  0  0  0
  3  8  2  0  0  0  0
  3 17  1  0  0  0  0
  4  9  1  0  0  0  0
  4 17  2  0  0  0  0
  5 19  1  0  0  0  0
  6 21  1  0  0  0  0
  7 10  2  0  0  0  0
  7 20  1  0  0  0  0
  8 27  1  0  0  0  0
  9 27  2  0  0  0  0
 10 28  1  0  0  0  0
 11 12  2  0  0  0  0
 11 29  1  0  0  0  0
 12 30  1  0  0  0  0
 13 22  1  0  0  0  0
 13 24  2  0  0  0  0
 14 23  1  0  0  0  0
 14 28  2  0  0  0  0
 15 25  1  0  0  0  0
 15 26  2  0  0  0  0
 16 30  2  0  0  0  0
 16 31  1  0  0  0  0
 17 32  1  0  0  0  0
 18 32  1  0  0  0  0
 18 33  2  0  0  0  0
 18 34  1  0  0  0  0
 19 21  2  0  0  0  0
 19 39  1  0  0  0  0
 20 23  2  0  0  0  0
 20 40  1  0  0  0  0
 21 50  1  0  0  0  0
 22 25  2  0  0  0  0
 22 49  1  0  0  0  0
 23 41  1  0  0  0  0
 24 26  1  0  0  0  0
 24 54  1  0  0  0  0
 25 55  1  0  0  0  0
 26 61  1  0  0  0  0
 27 80  1  0  0  0  0
 28 81  1  0  0  0  0
 29 31  2  0  0  0  0
 29 80  1  0  0  0  0
 30 82  1  0  0  0  0
 31 83  1  0  0  0  0
 32 65  2  0  0  0  0
 33 66  1  0  0  0  0
 33 69  1  0  0  0  0
 34 70  1  0  0  0  0
 34 75  2  0  0  0  0
 35 51  1  0  0  0  0
 35 71  1  0  0  0  0
 35 76  2  0  0  0  0
 36 62  1  0  0  0  0
 36 67  1  0  0  0  0
 36 77  2  0  0  0  0
 37 63  1  0  0  0  0
 37 72  1  0  0  0  0
 37 78  2  0  0  0  0
 38 68  1  0  0  0  0
 38 73  1  0  0  0  0
 38 79  2  0  0  0  0
 39 42  1  0  0  0  0
 40 51  1  0  0  0  0
 41 67  1  0  0  0  0
 42 44  1  0  0  0  0
 43 45  1  0  0  0  0
 43 47  1  0  0  0  0
 44 50  1  0  0  0  0
 45 52  1  0  0  0  0
 46 49  1  0  0  0  0
 46 53  1  0  0  0  0
 47 68  1  0  0  0  0
 48 52  1  0  0  0  0
 48 68  1  0  0  0  0
 49 53  1  0  0  0  0
 50 71  1  0  0  0  0
 51 67  1  0  0  0  0
 52 66  1  0  0  0  0
 53 81  1  0  0  0  0
 56 63  1  0  0  0  0
 57 64  1  0  0  0  0
 58 64  1  0  0  0  0
 59 64  1  0  0  0  0
 60 74  1  0  0  0  0
 61 73  1  0  0  0  0
 62 64  1  0  0  0  0
 62 72  1  0  0  0  0
 63 74  1  0  0  0  0
 65 66  1  0  0  0  0
M  CHG  1  74   1
M  ISO  4  38 100  53 101  73 100  81 101
M  END
> <Batch ID>
0159

> <Smiles>
CNC(C)C(=O)NC(C(=O)N1Cc2cc([101O:1][101CH:1]3CC3c3cc(C)c(C[100NH:0][100C:0](=O)N4CCCC(n5nc(-c6ccc(Oc7ccc(F)cc7F)cc6)c(C(N)=O)c5N)C4)cc3C)ccc2CC1C(=O)NC1CCCc2ccccc21)C(C)(C)C

> <Shape>
0.178

> <Color>
0.074

> <Negative vol penalty>
0.000

$$$$

  -OEChem-04052322073D

 80 88  0     1  0  0  0  0  0999 V2000
  -31.2231  -32.6663   28.2223 C   0  0  0  0  0  0  0  0  0  0  0  0
  -31.6662  -31.3488   28.2798 C   0  0  0  0  0  0  0  0  0  0  0  0
  -23.0054   -9.8857   19.9775 C   0  0  0  0  0  0  0  0  0  0  0  0
  -23.7291   -9.9386   22.2819 C   0  0  0  0  0  0  0  0  0  0  0  0
  -30.2991  -33.0480   27.2505 C   0  0  0  0  0  0  0  0  0  0  0  0
  -31.1846  -30.4120   27.3661 C   0  0  0  0  0  0  0  0  0  0  0  0
  -33.2176  -24.5512   23.7837 C   0  0  0  0  0  0  0  0  0  0  0  0
  -22.2418   -8.7491   20.2433 C   0  0  0  0  0  0  0  0  0  0  0  0
  -22.9654   -8.8020   22.5478 C   0  0  0  0  0  0  0  0  0  0  0  0
  -32.8097  -23.2397   23.5440 C   0  0  0  0  0  0  0  0  0  0  0  0
  -23.2191   -5.4637   22.0760 C   0  0  0  0  0  0  0  0  0  0  0  0
  -23.8089   -4.4481   22.8284 C   0  0  0  0  0  0  0  0  0  0  0  0
  -31.2756  -24.0311   21.8590 C   0  0  0  0  0  0  0  0  0  0  0  0
  -29.7457  -17.7039   22.6738 C   0  0  0  0  0  0  0  0  0  0  0  0
  -22.0834   -4.6864   24.5027 C   0  0  0  0  0  0  0  0  0  0  0  0
  -23.7491  -10.4804   20.9968 C   0  0  0  0  0  0  0  0  0  0  0  0
  -24.1277  -12.9970   20.8210 C   0  0  0  0  0  0  0  0  0  0  0  0
  -29.8132  -32.1176   26.3184 C   0  0  0  0  0  0  0  0  0  0  0  0
  -32.6488  -25.6153   23.0692 C   0  0  0  0  0  0  0  0  0  0  0  0
  -30.2522  -30.7813   26.3818 C   0  0  0  0  0  0  0  0  0  0  0  0
  -31.6798  -25.3549   22.0897 C   0  0  0  0  0  0  0  0  0  0  0  0
  -30.2306  -18.9417   23.0814 C   0  0  0  0  0  0  0  0  0  0  0  0
  -31.5054  -19.3432   22.6980 C   0  0  0  0  0  0  0  0  0  0  0  0
  -22.2218   -8.2073   21.5285 C   0  0  0  0  0  0  0  0  0  0  0  0
  -31.8365  -22.9798   22.5836 C   0  0  0  0  0  0  0  0  0  0  0  0
  -22.0614   -6.0908   22.5369 C   0  0  0  0  0  0  0  0  0  0  0  0
  -23.2411   -4.0594   24.0417 C   0  0  0  0  0  0  0  0  0  0  0  0
  -21.4936   -5.7020   23.7502 C   0  0  0  0  0  0  0  0  0  0  0  0
  -24.5386  -11.6541   20.7226 C   0  0  0  0  0  0  0  0  0  0  0  0
  -32.2494  -18.4773   21.9129 C   0  0  0  0  0  0  0  0  0  0  0  0
  -30.5684  -16.9115   21.8896 C   0  0  0  0  0  0  0  0  0  0  0  0
  -25.2357  -13.7226   20.4573 C   0  0  0  0  0  0  0  0  0  0  0  0
  -22.8581  -13.5400   21.2068 C   0  0  0  0  0  0  0  0  0  0  0  0
  -30.9439  -28.1825   23.8479 C   0  0  0  0  0  0  0  0  0  0  0  0
  -31.3176  -28.9026   20.7071 C   0  0  0  0  0  0  0  0  0  0  0  0
  -31.9069  -27.7990   17.5320 C   0  0  0  0  0  0  0  0  0  0  0  0
  -30.7125  -14.6985   20.6945 C   0  0  0  0  0  0  0  0  0  0  0  0
  -28.7794  -32.5663   25.3161 C   0  0  0  0  0  0  0  0  0  0  0  0
  -33.1189  -27.0218   23.3208 C   0  0  0  0  0  0  0  0  0  0  0  0
  -31.0526  -26.4601   21.2812 C   0  0  0  0  0  0  0  0  0  0  0  0
  -28.6019  -31.5981   24.1493 C   0  0  0  0  0  0  0  0  0  0  0  0
  -29.6022  -12.2426   18.3679 C   0  0  0  0  0  0  0  0  0  0  0  0
  -28.4941  -30.1639   24.6573 C   0  0  0  0  0  0  0  0  0  0  0  0
  -28.1521  -11.9811   18.7812 C   0  0  0  0  0  0  0  0  0  0  0  0
  -30.5013  -12.4884   19.5782 C   0  0  0  0  0  0  0  0  0  0  0  0
  -28.5831  -13.2721   20.9106 C   0  0  0  0  0  0  0  0  0  0  0  0
  -29.7718  -29.7416   25.3927 C   0  0  1  0  0  0  0  0  0  0  0  0
  -32.1018  -28.0766   22.8963 C   0  0  1  0  0  0  0  0  0  0  0  0
  -27.6266  -13.0832   19.7218 C   0  0  2  0  0  0  0  0  0  0  0  0
  -29.3674  -19.8180   23.9276 C   0  0  0  0  0  0  0  0  0  0  0  0
  -33.6261  -18.8544   21.4716 C   0  0  0  0  0  0  0  0  0  0  0  0
  -32.1161  -28.6176   15.1690 C   0  0  0  0  0  0  0  0  0  0  0  0
  -28.2846  -29.1916   20.5412 C   0  0  0  0  0  0  0  0  0  0  0  0
  -28.4783  -29.0607   18.0485 C   0  0  0  0  0  0  0  0  0  0  0  0
  -29.5686  -30.9322   19.2859 C   0  0  0  0  0  0  0  0  0  0  0  0
  -34.7018  -26.8475   17.3271 C   0  0  0  0  0  0  0  0  0  0  0  0
  -32.0552  -20.6735   23.1216 C   0  0  0  0  0  0  0  0  0  1  0  0
  -30.5469  -28.6062   19.4433 C   0  0  1  0  0  0  0  0  0  0  0  0
  -32.8581  -28.2895   16.4554 C   0  0  2  0  0  0  0  0  0  0  0  0
  -29.2298  -29.4268   19.3462 C   0  0  0  0  0  0  0  0  0  0  0  0
  -25.8084  -11.5311   20.3272 N   0  0  0  0  0  0  0  0  0  0  0  0
  -31.8123  -17.2674   21.4974 N   0  0  0  0  0  0  0  0  0  0  0  0
  -26.2050  -12.8059   20.1738 N   0  0  0  0  0  0  0  0  0  0  0  0
  -31.5410  -27.8190   21.5683 N   0  0  0  0  0  0  0  0  0  0  0  0
  -29.9429  -13.5479   20.4212 N   0  0  0  0  0  0  0  0  0  0  0  0
  -25.4657  -15.0489   20.3554 N   0  0  0  0  0  0  0  0  0  0  0  0
  -21.8285  -12.6530   21.5497 N   0  0  0  0  0  0  0  0  0  0  0  0
  -30.0651  -15.6519   21.4797 N   0  0  0  0  0  0  0  0  0  0  0  0
  -30.8181  -29.4222   24.4452 N   0  0  0  0  0  0  0  0  0  0  0  0
  -31.4731  -28.8298   18.3385 N   0  0  0  0  0  0  0  0  0  0  0  0
  -33.8817  -27.2488   16.1552 N   0  3  0  0  0  0  0  0  0  0  0  0
  -22.6380  -14.7747   21.2304 O   0  0  0  0  0  0  0  0  0  0  0  0
  -30.2173  -27.2119   24.0258 O   0  0  0  0  0  0  0  0  0  0  0  0
  -31.7131  -30.0516   20.9189 O   0  0  0  0  0  0  0  0  0  0  0  0
  -31.5784  -26.6200   17.6438 O   0  0  0  0  0  0  0  0  0  0  0  0
  -31.8510  -14.8405   20.2411 O   0  0  0  0  0  0  0  0  0  0  0  0
  -21.4766   -7.0984   21.7884 O   0  0  0  0  0  0  0  0  0  0  0  0
  -31.4361  -21.7007   22.3482 O   0  0  0  0  0  0  0  0  0  1  0  0
  -23.8068   -3.0830   24.7635 F   0  0  0  0  0  0  0  0  0  0  0  0
  -20.3808   -6.2999   24.1976 F   0  0  0  0  0  0  0  0  0  0  0  0
  1  2  1  0  0  0  0
  1  5  2  0  0  0  0
  2  6  2  0  0  0  0
  3  8  2  0  0  0  0
  3 16  1  0  0  0  0
  4  9  1  0  0  0  0
  4 16  2  0  0  0  0
  5 18  1  0  0  0  0
  6 20  1  0  0  0  0
  7 10  2  0  0  0  0
  7 19  1  0  0  0  0
  8 24  1  0  0  0  0
  9 24  2  0  0  0  0
 10 25  1  0  0  0  0
 11 12  2  0  0  0  0
 11 26  1  0  0  0  0
 12 27  1  0  0  0  0
 13 21  1  0  0  0  0
 13 25  2  0  0  0  0
 14 22  2  0  0  0  0
 14 31  1  0  0  0  0
 15 27  2  0  0  0  0
 15 28  1  0  0  0  0
 16 29  1  0  0  0  0
 17 29  1  0  0  0  0
 17 32  2  0  0  0  0
 17 33  1  0  0  0  0
 18 20  2  0  0  0  0
 18 38  1  0  0  0  0
 19 21  2  0  0  0  0
 19 39  1  0  0  0  0
 20 47  1  0  0  0  0
 21 40  1  0  0  0  0
 22 23  1  0  0  0  0
 22 50  1  0  0  0  0
 23 30  2  0  0  0  0
 23 57  1  0  0  0  0
 24 77  1  0  0  0  0
 25 78  1  0  0  0  0
 26 28  2  0  0  0  0
 26 77  1  0  0  0  0
 27 79  1  0  0  0  0
 28 80  1  0  0  0  0
 29 61  2  0  0  0  0
 30 51  1  0  0  0  0
 30 62  1  0  0  0  0
 31 62  2  0  0  0  0
 31 68  1  0  0  0  0
 32 63  1  0  0  0  0
 32 66  1  0  0  0  0
 33 67  1  0  0  0  0
 33 72  2  0  0  0  0
 34 48  1  0  0  0  0
 34 69  1  0  0  0  0
 34 73  2  0  0  0  0
 35 58  1  0  0  0  0
 35 64  1  0  0  0  0
 35 74  2  0  0  0  0
 36 59  1  0  0  0  0
 36 70  1  0  0  0  0
 36 75  2  0  0  0  0
 37 65  1  0  0  0  0
 37 68  1  0  0  0  0
 37 76  2  0  0  0  0
 38 41  1  0  0  0  0
 39 48  1  0  0  0  0
 40 64  1  0  0  0  0
 41 43  1  0  0  0  0
 42 44  1  0  0  0  0
 42 45  1  0  0  0  0
 43 47  1  0  0  0  0
 44 49  1  0  0  0  0
 45 65  1  0  0  0  0
 46 49  1  0  0  0  0
 46 65  1  0  0  0  0
 47 69  1  0  0  0  0
 48 64  1  0  0  0  0
 49 63  1  0  0  0  0
 52 59  1  0  0  0  0
 53 60  1  0  0  0  0
 54 60  1  0  0  0  0
 55 60  1  0  0  0  0
 56 71  1  0  0  0  0
 57 78  1  0  0  0  0
 58 60  1  0  0  0  0
 58 70  1  0  0  0  0
 59 71  1  0  0  0  0
 61 63  1  0  0  0  0
M  CHG  1  71   1
M  ISO  4  37 100  57 101  68 100  78 101
M  END
> <Batch ID>
0159

> <Smiles>
CNC(C)C(=O)NC(C(=O)N1Cc2cc([101O:1][101CH2:1]c3c(C)cc([100NH:0][100C:0](=O)N4CCCC(n5nc(-c6ccc(Oc7ccc(F)cc7F)cc6)c(C(N)=O)c5N)C4)nc3C)ccc2CC1C(=O)NC1CCCc2ccccc21)C(C)(C)C

> <Shape>
0.219

> <Color>
0.202

> <Negative vol penalty>
0.000

$$$$

  -OEChem-04052322073D

 94105  0     1  0  0  0  0  0999 V2000
  -18.0582  -27.3514   22.8726 C   0  0  0  0  0  0  0  0  0  0  0  0
  -19.3485  -26.8853   22.6416 C   0  0  0  0  0  0  0  0  0  0  0  0
  -23.1801   -9.7959   21.3468 C   0  0  0  0  0  0  0  0  0  0  0  0
  -23.8795  -10.6641   23.4902 C   0  0  0  0  0  0  0  0  0  0  0  0
  -17.8036  -28.7222   22.8757 C   0  0  0  0  0  0  0  0  0  0  0  0
  -20.3847  -27.7898   22.4125 C   0  0  0  0  0  0  0  0  0  0  0  0
  -24.5809  -26.6328   25.0007 C   0  0  0  0  0  0  0  0  0  0  0  0
  -22.4634   -8.7865   21.9895 C   0  0  0  0  0  0  0  0  0  0  0  0
  -23.1628   -9.6547   24.1330 C   0  0  0  0  0  0  0  0  0  0  0  0
  -25.3765  -25.6048   24.4970 C   0  0  0  0  0  0  0  0  0  0  0  0
  -23.1232   -5.8242   23.4775 C   0  0  0  0  0  0  0  0  0  0  0  0
  -23.2440   -4.5269   22.9796 C   0  0  0  0  0  0  0  0  0  0  0  0
  -28.7568  -21.9621   23.8093 C   0  0  0  0  0  0  0  0  0  0  0  0
  -26.8665  -27.2386   23.5326 C   0  0  0  0  0  0  0  0  0  0  0  0
  -20.8656   -4.4669   22.5588 C   0  0  0  0  0  0  0  0  0  0  0  0
  -23.8882  -10.7347   22.0972 C   0  0  0  0  0  0  0  0  0  0  0  0
  -24.1603  -13.0539   21.0700 C   0  0  0  0  0  0  0  0  0  0  0  0
  -18.8390  -29.6442   22.6562 C   0  0  0  0  0  0  0  0  0  0  0  0
  -24.9166  -27.9737   24.7645 C   0  0  0  0  0  0  0  0  0  0  0  0
  -20.1435  -29.1742   22.4114 C   0  0  0  0  0  0  0  0  0  0  0  0
  -29.6802  -21.0447   23.2964 C   0  0  0  0  0  0  0  0  0  0  0  0
  -26.0748  -28.2818   24.0366 C   0  0  0  0  0  0  0  0  0  0  0  0
  -29.7008  -20.7455   21.9140 C   0  0  0  0  0  0  0  0  0  0  0  0
  -28.8548  -21.4578   21.0458 C   0  0  0  0  0  0  0  0  0  0  0  0
  -27.8735  -22.6109   22.9567 C   0  0  0  0  0  0  0  0  0  0  0  0
  -27.9235  -22.3621   21.5875 C   0  0  0  0  0  0  0  0  0  0  0  0
  -22.4548   -8.7159   23.3826 C   0  0  0  0  0  0  0  0  0  0  0  0
  -26.5180  -25.9075   23.7603 C   0  0  0  0  0  0  0  0  0  0  0  0
  -21.8735   -6.4429   23.5162 C   0  0  0  0  0  0  0  0  0  0  0  0
  -22.1153   -3.8482   22.5202 C   0  0  0  0  0  0  0  0  0  0  0  0
  -20.7448   -5.7642   23.0568 C   0  0  0  0  0  0  0  0  0  0  0  0
  -24.6292  -11.7773   21.4339 C   0  0  0  0  0  0  0  0  0  0  0  0
  -25.2395  -13.6590   20.4737 C   0  0  0  0  0  0  0  0  0  0  0  0
  -22.8650  -13.6403   21.2547 C   0  0  0  0  0  0  0  0  0  0  0  0
  -23.5200  -30.4058   23.2686 C   0  0  0  0  0  0  0  0  0  0  0  0
  -26.0193  -32.0801   24.4823 C   0  0  0  0  0  0  0  0  0  0  0  0
  -29.2164  -32.0556   25.6758 C   0  0  0  0  0  0  0  0  0  0  0  0
  -30.6849  -14.8748   20.3533 C   0  0  0  0  0  0  0  0  0  0  0  0
  -18.5064  -31.1149   22.6221 C   0  0  0  0  0  0  0  0  0  0  0  0
  -24.0625  -29.0712   25.3375 C   0  0  0  0  0  0  0  0  0  0  0  0
  -30.6286  -20.3401   24.2274 C   0  0  0  0  0  0  0  0  0  0  0  0
  -26.4902  -29.7052   23.7725 C   0  0  0  0  0  0  0  0  0  0  0  0
  -19.7303  -32.0192   22.7428 C   0  0  0  0  0  0  0  0  0  0  0  0
  -32.0124  -20.1240   23.6116 C   0  0  0  0  0  0  0  0  0  0  0  0
  -29.6789  -11.7460   18.9840 C   0  0  0  0  0  0  0  0  0  0  0  0
  -20.8412  -31.5409   21.8134 C   0  0  0  0  0  0  0  0  0  0  0  0
  -28.2397  -11.5779   19.4744 C   0  0  0  0  0  0  0  0  0  0  0  0
  -32.0407  -19.9808   22.0822 C   0  0  0  0  0  0  0  0  0  0  0  0
  -30.1861  -18.2514   21.8427 C   0  0  0  0  0  0  0  0  0  0  0  0
  -30.5577  -12.4216   20.0344 C   0  0  0  0  0  0  0  0  0  0  0  0
  -28.6003  -13.5374   21.0330 C   0  0  0  0  0  0  0  0  0  0  0  0
  -21.2987  -30.1248   22.1835 C   0  0  1  0  0  0  0  0  0  0  0  0
  -28.9042  -21.2313   19.5528 C   0  0  2  0  0  0  0  0  0  0  0  0
  -24.2184  -30.3970   24.5989 C   0  0  1  0  0  0  0  0  0  0  0  0
  -30.8431  -19.5677   19.8670 C   0  0  1  0  0  0  0  0  0  0  0  0
  -30.2888  -20.7621   19.0611 C   0  0  2  0  0  0  0  0  0  0  0  0
  -27.6625  -12.9113   19.9866 C   0  0  2  0  0  0  0  0  0  0  0  0
  -30.6567  -17.3289   20.7223 C   0  0  2  0  0  0  0  0  0  0  0  0
  -30.6668  -19.6714   21.4270 C   0  0  1  0  0  0  0  0  0  0  0  0
  -30.3561  -18.1342   19.4416 C   0  0  0  0  0  0  0  0  0  0  0  0
  -26.9049  -23.0599   20.7354 C   0  0  0  0  0  0  0  0  0  0  0  0
  -31.3100  -21.9209   19.0583 C   0  0  0  0  0  0  0  0  0  0  0  0
  -28.8734  -18.0376   19.0390 C   0  0  0  0  0  0  0  0  0  0  0  0
  -31.1932  -17.6097   18.2596 C   0  0  0  0  0  0  0  0  0  0  0  0
  -31.0024  -33.5832   26.5556 C   0  0  0  0  0  0  0  0  0  0  0  0
  -26.5922  -33.0411   21.6436 C   0  0  0  0  0  0  0  0  0  0  0  0
  -28.8654  -33.7502   22.4171 C   0  0  0  0  0  0  0  0  0  0  0  0
  -26.8297  -34.7979   23.4077 C   0  0  0  0  0  0  0  0  0  0  0  0
  -29.2771  -30.6690   28.2897 C   0  0  0  0  0  0  0  0  0  0  0  0
  -28.1775  -22.0726   17.4823 C   0  0  0  0  0  0  0  0  0  0  0  0
  -26.8857  -23.5682   23.5406 C   0  0  0  0  0  0  0  0  0  1  0  0
  -27.4137  -32.4127   24.0093 C   0  0  1  0  0  0  0  0  0  0  0  0
  -29.8339  -32.6786   26.9147 C   0  0  2  0  0  0  0  0  0  0  0  0
  -27.4167  -33.4735   22.8726 C   0  0  0  0  0  0  0  0  0  0  0  0
  -25.9067  -11.5819   21.0967 N   0  0  0  0  0  0  0  0  0  0  0  0
  -26.2498  -12.7436   20.5147 N   0  0  0  0  0  0  0  0  0  0  0  0
  -25.6190  -30.7430   24.3483 N   0  0  0  0  0  0  0  0  0  0  0  0
  -29.9549  -13.6812   20.4770 N   0  0  0  0  0  0  0  0  0  0  0  0
  -25.4134  -14.8794   19.9234 N   0  0  0  0  0  0  0  0  0  0  0  0
  -21.8712  -12.8800   21.8861 N   0  0  0  0  0  0  0  0  0  0  0  0
  -22.1624  -30.1599   23.3442 N   0  0  0  0  0  0  0  0  0  0  0  0
  -28.1643  -32.8070   25.1965 N   0  0  0  0  0  0  0  0  0  0  0  0
  -30.0376  -16.0239   20.7906 N   0  0  0  0  0  0  0  0  0  0  0  0
  -30.3275  -31.6172   27.8371 N   0  3  0  0  0  0  0  0  0  0  0  0
  -22.5921  -14.7981   20.8564 O   0  0  0  0  0  0  0  0  0  0  0  0
  -24.1649  -30.6213   22.2491 O   0  0  0  0  0  0  0  0  0  0  0  0
  -25.3138  -32.9721   24.9599 O   0  0  0  0  0  0  0  0  0  0  0  0
  -29.6287  -31.0091   25.1803 O   0  0  0  0  0  0  0  0  0  0  0  0
  -31.8268  -14.9144   19.8826 O   0  0  0  0  0  0  0  0  0  0  0  0
  -21.7553   -7.7312   24.0101 O   0  0  0  0  0  0  0  0  0  0  0  0
  -27.3016  -24.8987   23.2634 O   0  0  0  0  0  0  0  0  0  1  0  0
  -28.5668  -22.4032   18.8048 O   0  0  0  0  0  0  0  0  0  0  0  0
  -22.2317   -2.6030   22.0407 F   0  0  0  0  0  0  0  0  0  0  0  0
  -19.5419   -6.3538   23.0904 F   0  0  0  0  0  0  0  0  0  0  0  0
  1  2  1  0  0  0  0
  1  5  2  0  0  0  0
  2  6  2  0  0  0  0
  3  8  2  0  0  0  0
  3 16  1  0  0  0  0
  4  9  1  0  0  0  0
  4 16  2  0  0  0  0
  5 18  1  0  0  0  0
  6 20  1  0  0  0  0
  7 10  2  0  0  0  0
  7 19  1  0  0  0  0
  8 27  1  0  0  0  0
  9 27  2  0  0  0  0
 10 28  1  0  0  0  0
 11 12  2  0  0  0  0
 11 29  1  0  0  0  0
 12 30  1  0  0  0  0
 13 21  2  0  0  0  0
 13 25  1  0  0  0  0
 14 22  1  0  0  0  0
 14 28  2  0  0  0  0
 15 30  2  0  0  0  0
 15 31  1  0  0  0  0
 16 32  1  0  0  0  0
 17 32  1  0  0  0  0
 17 33  2  0  0  0  0
 17 34  1  0  0  0  0
 18 20  2  0  0  0  0
 18 39  1  0  0  0  0
 19 22  2  0  0  0  0
 19 40  1  0  0  0  0
 20 52  1  0  0  0  0
 21 23  1  0  0  0  0
 21 41  1  0  0  0  0
 22 42  1  0  0  0  0
 23 24  2  0  0  0  0
 23 59  1  0  0  0  0
 24 26  1  0  0  0  0
 24 53  1  0  0  0  0
 25 26  2  0  0  0  0
 25 71  1  0  0  0  0
 26 61  1  0  0  0  0
 27 90  1  0  0  0  0
 28 91  1  0  0  0  0
 29 31  2  0  0  0  0
 29 90  1  0  0  0  0
 30 93  1  0  0  0  0
 31 94  1  0  0  0  0
 32 75  2  0  0  0  0
 33 76  1  0  0  0  0
 33 79  1  0  0  0  0
 34 80  1  0  0  0  0
 34 85  2  0  0  0  0
 35 54  1  0  0  0  0
 35 81  1  0  0  0  0
 35 86  2  0  0  0  0
 36 72  1  0  0  0  0
 36 77  1  0  0  0  0
 36 87  2  0  0  0  0
 37 73  1  0  0  0  0
 37 82  1  0  0  0  0
 37 88  2  0  0  0  0
 38 78  1  0  0  0  0
 38 83  1  0  0  0  0
 38 89  2  0  0  0  0
 39 43  1  0  0  0  0
 40 54  1  0  0  0  0
 41 44  1  0  0  0  0
 42 77  1  0  0  0  0
 43 46  1  0  0  0  0
 44 48  1  0  0  0  0
 45 47  1  0  0  0  0
 45 50  1  0  0  0  0
 46 52  1  0  0  0  0
 47 57  1  0  0  0  0
 48 59  1  0  0  0  0
 49 58  1  0  0  0  0
 49 59  1  0  0  0  0
 50 78  1  0  0  0  0
 51 57  1  0  0  0  0
 51 78  1  0  0  0  0
 52 81  1  0  0  0  0
 53 56  1  0  0  0  0
 53 92  1  0  0  0  0
 54 77  1  0  0  0  0
 55 56  1  0  0  0  0
 55 59  1  0  0  0  0
 55 60  1  0  0  0  0
 56 62  1  0  0  0  0
 57 76  1  0  0  0  0
 58 60  1  0  0  0  0
 58 83  1  0  0  0  0
 60 63  1  0  0  0  0
 60 64  1  0  0  0  0
 65 73  1  0  0  0  0
 66 74  1  0  0  0  0
 67 74  1  0  0  0  0
 68 74  1  0  0  0  0
 69 84  1  0  0  0  0
 70 92  1  0  0  0  0
 71 91  1  0  0  0  0
 72 74  1  0  0  0  0
 72 82  1  0  0  0  0
 73 84  1  0  0  0  0
 75 76  1  0  0  0  0
M  CHG  1  84   1
M  ISO  4  38 100  71 101  83 100  91 101
M  END
> <Batch ID>
0159

> <Smiles>
CNC(C)C(=O)NC(C(=O)N1Cc2cc([101O:1][101CH2:1]c3cc4c5c(c3C)C(OC)C(C)C3C5(CCC4)CC([100NH:0][100C:0](=O)N4CCCC(n5nc(-c6ccc(Oc7ccc(F)cc7F)cc6)c(C(N)=O)c5N)C4)C3(C)C)ccc2CC1C(=O)NC1CCCc2ccccc21)C(C)(C)C

> <Shape>
0.339

> <Color>
0.174

> <Negative vol penalty>
0.000

$$$$

  -OEChem-04052322073D

 88 98  0     1  0  0  0  0  0999 V2000
  -27.7219  -17.0137   16.3064 C   0  0  0  0  0  0  0  0  0  0  0  0
  -27.9276  -17.4913   17.5967 C   0  0  0  0  0  0  0  0  0  0  0  0
  -23.2590   -9.8000   21.3339 C   0  0  0  0  0  0  0  0  0  0  0  0
  -23.9040  -10.6450   23.5034 C   0  0  0  0  0  0  0  0  0  0  0  0
  -27.9331  -17.8516   15.2122 C   0  0  0  0  0  0  0  0  0  0  0  0
  -28.3457  -18.8069   17.7936 C   0  0  0  0  0  0  0  0  0  0  0  0
  -25.7826  -21.1268   21.4940 C   0  0  0  0  0  0  0  0  0  0  0  0
  -22.5709   -8.7526   21.9464 C   0  0  0  0  0  0  0  0  0  0  0  0
  -23.2158   -9.5977   24.1160 C   0  0  0  0  0  0  0  0  0  0  0  0
  -26.1439  -20.8233   22.8059 C   0  0  0  0  0  0  0  0  0  0  0  0
  -20.9446   -5.6524   22.9301 C   0  0  0  0  0  0  0  0  0  0  0  0
  -21.1126   -4.3704   22.4069 C   0  0  0  0  0  0  0  0  0  0  0  0
  -32.1613  -16.5235   23.1396 C   0  0  0  0  0  0  0  0  0  0  0  0
  -27.4256  -22.8638   22.9187 C   0  0  0  0  0  0  0  0  0  0  0  0
  -23.4833   -4.4981   22.8548 C   0  0  0  0  0  0  0  0  0  0  0  0
  -23.9256  -10.7461   22.1124 C   0  0  0  0  0  0  0  0  0  0  0  0
  -24.1282  -13.0951   21.1383 C   0  0  0  0  0  0  0  0  0  0  0  0
  -28.3447  -19.1811   15.3962 C   0  0  0  0  0  0  0  0  0  0  0  0
  -26.2497  -22.2977   20.8799 C   0  0  0  0  0  0  0  0  0  0  0  0
  -28.5639  -19.6630   16.7008 C   0  0  0  0  0  0  0  0  0  0  0  0
  -31.8391  -17.8211   23.5358 C   0  0  0  0  0  0  0  0  0  0  0  0
  -27.0667  -23.1812   21.5997 C   0  0  0  0  0  0  0  0  0  0  0  0
  -30.8698  -18.0423   24.5237 C   0  0  0  0  0  0  0  0  0  0  0  0
  -30.2382  -16.9448   25.1343 C   0  0  0  0  0  0  0  0  0  0  0  0
  -31.5213  -15.4365   23.7293 C   0  0  0  0  0  0  0  0  0  0  0  0
  -30.5617  -15.6452   24.7196 C   0  0  0  0  0  0  0  0  0  0  0  0
  -22.5492   -8.6515   23.3374 C   0  0  0  0  0  0  0  0  0  0  0  0
  -26.9678  -21.6904   23.5175 C   0  0  0  0  0  0  0  0  0  0  0  0
  -22.0461   -6.3574   23.4156 C   0  0  0  0  0  0  0  0  0  0  0  0
  -22.3818   -3.7932   22.3692 C   0  0  0  0  0  0  0  0  0  0  0  0
  -23.3153   -5.7802   23.3779 C   0  0  0  0  0  0  0  0  0  0  0  0
  -24.6372  -11.8279   21.4803 C   0  0  0  0  0  0  0  0  0  0  0  0
  -25.1922  -13.7500   20.5678 C   0  0  0  0  0  0  0  0  0  0  0  0
  -22.8113  -13.6322   21.3200 C   0  0  0  0  0  0  0  0  0  0  0  0
  -28.0643  -22.9324   18.3484 C   0  0  0  0  0  0  0  0  0  0  0  0
  -27.2488  -25.9993   19.0203 C   0  0  0  0  0  0  0  0  0  0  0  0
  -26.2039  -28.2786   21.3354 C   0  0  0  0  0  0  0  0  0  0  0  0
  -31.1236  -13.1325   21.1054 C   0  0  0  0  0  0  0  0  0  0  0  0
  -28.6057  -20.0350   14.1807 C   0  0  0  0  0  0  0  0  0  0  0  0
  -25.8291  -22.6240   19.4731 C   0  0  0  0  0  0  0  0  0  0  0  0
  -29.1719  -17.1490   26.1803 C   0  0  0  0  0  0  0  0  0  0  0  0
  -27.5783  -24.4612   20.9929 C   0  0  0  0  0  0  0  0  0  0  0  0
  -30.5593  -19.4498   24.9546 C   0  0  0  0  0  0  0  0  0  0  0  0
  -28.6870  -21.5274   14.4909 C   0  0  0  0  0  0  0  0  0  0  0  0
  -29.2128  -12.9279   18.1081 C   0  0  0  0  0  0  0  0  0  0  0  0
  -34.0627  -18.9810   22.9160 C   0  0  0  0  0  0  0  0  0  0  0  0
  -33.2849  -19.9527   23.7473 C   0  0  0  0  0  0  0  0  0  0  0  0
  -29.5714  -21.7720   15.7095 C   0  0  0  0  0  0  0  0  0  0  0  0
  -27.7775  -12.7371   18.6016 C   0  0  0  0  0  0  0  0  0  0  0  0
  -30.2171  -12.1985   18.9977 C   0  0  0  0  0  0  0  0  0  0  0  0
  -28.6891  -12.3340   20.9265 C   0  0  0  0  0  0  0  0  0  0  0  0
  -29.2383  -18.5173   26.8497 C   0  0  0  0  0  0  0  0  0  0  0  0
  -32.5589  -18.9576   22.8835 C   0  0  0  0  0  0  0  0  0  0  0  0
  -28.9935  -21.0914   16.9562 C   0  0  1  0  0  0  0  0  0  0  0  0
  -26.7813  -23.5889   18.7733 C   0  0  1  0  0  0  0  0  0  0  0  0
  -27.6451  -13.0972   20.0936 C   0  0  2  0  0  0  0  0  0  0  0  0
  -29.8752  -14.4584   25.3234 C   0  0  0  0  0  0  0  0  0  0  0  0
  -25.6633  -30.7152   21.5963 C   0  0  0  0  0  0  0  0  0  0  0  0
  -30.2284  -26.6562   19.0360 C   0  0  0  0  0  0  0  0  0  0  0  0
  -29.6788  -28.7987   20.2091 C   0  0  0  0  0  0  0  0  0  0  0  0
  -28.7885  -28.3688   17.9189 C   0  0  0  0  0  0  0  0  0  0  0  0
  -23.4027  -27.6952   22.0915 C   0  0  0  0  0  0  0  0  0  0  0  0
  -31.8813  -14.0577   23.2800 C   0  0  0  0  0  0  0  0  0  0  0  0
  -29.1205  -20.9610   26.3343 C   0  0  0  0  0  0  0  0  0  0  0  0
  -28.5899  -21.8744   25.2470 C   0  0  0  0  0  0  0  0  0  1  0  0
  -27.8286  -27.0957   19.8810 C   0  0  1  0  0  0  0  0  0  0  0  0
  -25.1113  -29.3315   21.2905 C   0  0  2  0  0  0  0  0  0  0  0  0
  -29.1232  -27.7049   19.2723 C   0  0  0  0  0  0  0  0  0  0  0  0
  -25.9244  -11.6841   21.1542 N   0  0  0  0  0  0  0  0  0  0  0  0
  -26.2332  -12.8694   20.6012 N   0  0  0  0  0  0  0  0  0  0  0  0
  -27.1444  -24.7327   19.6124 N   0  0  0  0  0  0  0  0  0  0  0  0
  -30.0395  -12.5855   20.3993 N   0  0  0  0  0  0  0  0  0  0  0  0
  -25.3296  -14.9873   20.0458 N   0  0  0  0  0  0  0  0  0  0  0  0
  -21.8377  -12.8245   21.9232 N   0  0  0  0  0  0  0  0  0  0  0  0
  -27.8919  -21.8642   17.4890 N   0  0  0  0  0  0  0  0  0  0  0  0
  -26.7551  -28.0611   20.0903 N   0  0  0  0  0  0  0  0  0  0  0  0
  -30.8680  -13.4780   22.4268 N   0  0  0  0  0  0  0  0  0  0  0  0
  -29.2937  -19.5764   25.7780 N   0  3  1  0  0  0  0  0  0  0  0  0
  -24.0489  -29.0184   22.2876 N   0  3  0  0  0  0  0  0  0  0  0  0
  -22.5027  -14.7882   20.9433 O   0  0  0  0  0  0  0  0  0  0  0  0
  -29.1317  -23.3640   18.7680 O   0  0  0  0  0  0  0  0  0  0  0  0
  -26.8947  -26.2588   17.8675 O   0  0  0  0  0  0  0  0  0  0  0  0
  -26.5378  -27.7090   22.3720 O   0  0  0  0  0  0  0  0  0  0  0  0
  -32.2353  -13.3054   20.5944 O   0  0  0  0  0  0  0  0  0  0  0  0
  -21.8776   -7.6298   23.9354 O   0  0  0  0  0  0  0  0  0  0  0  0
  -27.3226  -21.3962   24.7979 O   0  0  0  0  0  0  0  0  0  1  0  0
  -22.5427   -2.5614   21.8682 F   0  0  0  0  0  0  0  0  0  0  0  0
  -24.3770   -6.4521   23.8439 F   0  0  0  0  0  0  0  0  0  0  0  0
  1  2  1  0  0  0  0
  1  5  2  0  0  0  0
  2  6  2  0  0  0  0
  3  8  2  0  0  0  0
  3 16  1  0  0  0  0
  4  9  1  0  0  0  0
  4 16  2  0  0  0  0
  5 18  1  0  0  0  0
  6 20  1  0  0  0  0
  7 10  2  0  0  0  0
  7 19  1  0  0  0  0
  8 27  1  0  0  0  0
  9 27  2  0  0  0  0
 10 28  1  0  0  0  0
 11 12  2  0  0  0  0
 11 29  1  0  0  0  0
 12 30  1  0  0  0  0
 13 21  2  0  0  0  0
 13 25  1  0  0  0  0
 14 22  1  0  0  0  0
 14 28  2  0  0  0  0
 15 30  2  0  0  0  0
 15 31  1  0  0  0  0
 16 32  1  0  0  0  0
 17 32  1  0  0  0  0
 17 33  2  0  0  0  0
 17 34  1  0  0  0  0
 18 20  2  0  0  0  0
 18 39  1  0  0  0  0
 19 22  2  0  0  0  0
 19 40  1  0  0  0  0
 20 54  1  0  0  0  0
 21 23  1  0  0  0  0
 21 53  1  0  0  0  0
 22 42  1  0  0  0  0
 23 24  2  0  0  0  0
 23 43  1  0  0  0  0
 24 26  1  0  0  0  0
 24 41  1  0  0  0  0
 25 26  2  0  0  0  0
 25 63  1  0  0  0  0
 26 57  1  0  0  0  0
 27 85  1  0  0  0  0
 28 86  1  0  0  0  0
 29 31  2  0  0  0  0
 29 85  1  0  0  0  0
 30 87  1  0  0  0  0
 31 88  1  0  0  0  0
 32 69  2  0  0  0  0
 33 70  1  0  0  0  0
 33 73  1  0  0  0  0
 34 74  1  0  0  0  0
 34 80  2  0  0  0  0
 35 55  1  0  0  0  0
 35 75  1  0  0  0  0
 35 81  2  0  0  0  0
 36 66  1  0  0  0  0
 36 71  1  0  0  0  0
 36 82  2  0  0  0  0
 37 67  1  0  0  0  0
 37 76  1  0  0  0  0
 37 83  2  0  0  0  0
 38 72  1  0  0  0  0
 38 77  1  0  0  0  0
 38 84  2  0  0  0  0
 39 44  1  0  0  0  0
 40 55  1  0  0  0  0
 41 52  1  0  0  0  0
 42 71  1  0  0  0  0
 43 78  1  0  0  0  0
 44 48  1  0  0  0  0
 45 49  1  0  0  0  0
 45 50  1  0  0  0  0
 46 47  1  0  0  0  0
 46 53  1  0  0  0  0
 47 53  1  0  0  0  0
 48 54  1  0  0  0  0
 49 56  1  0  0  0  0
 50 72  1  0  0  0  0
 51 56  1  0  0  0  0
 51 72  1  0  0  0  0
 52 78  1  0  0  0  0
 54 75  1  0  0  0  0
 55 71  1  0  0  0  0
 56 70  1  0  0  0  0
 58 67  1  0  0  0  0
 59 68  1  0  0  0  0
 60 68  1  0  0  0  0
 61 68  1  0  0  0  0
 62 79  1  0  0  0  0
 63 77  1  0  0  0  0
 64 65  1  0  0  0  0
 64 78  1  0  0  0  0
 65 86  1  0  0  0  0
 66 68  1  0  0  0  0
 66 76  1  0  0  0  0
 67 79  1  0  0  0  0
 69 70  1  0  0  0  0
M  CHG  2  78   1  79   1
M  ISO  4  38 100  65 101  77 100  86 101
M  END
> <Batch ID>
0159

> <Smiles>
CNC(C)C(=O)NC(C(=O)N1Cc2cc([101O:1][101CH2:1]CN3CCc4c(C)c(C[100NH:0][100C:0](=O)N5CCCC(n6nc(-c7ccc(Oc8ccc(F)cc8F)cc7)c(C(N)=O)c6N)C5)cc(C5CC5)c4C3)ccc2CC1C(=O)NC1CCCc2ccccc21)C(C)(C)C

> <Shape>
0.221

> <Color>
0.152

> <Negative vol penalty>
0.000

$$$$

  -OEChem-04052322073D

 89 98  0     1  0  0  0  0  0999 V2000
  -28.4576  -36.3104   23.4416 C   0  0  0  0  0  0  0  0  0  0  0  0
  -28.6200  -34.9405   23.6213 C   0  0  0  0  0  0  0  0  0  0  0  0
  -23.6320   -9.7755   21.2417 C   0  0  0  0  0  0  0  0  0  0  0  0
  -25.1948  -10.1510   23.0455 C   0  0  0  0  0  0  0  0  0  0  0  0
  -27.1773  -36.8502   23.3259 C   0  0  0  0  0  0  0  0  0  0  0  0
  -27.5021  -34.1096   23.6865 C   0  0  0  0  0  0  0  0  0  0  0  0
  -28.0450  -29.9019   20.9213 C   0  0  0  0  0  0  0  0  0  0  0  0
  -23.2485   -8.5681   21.8253 C   0  0  0  0  0  0  0  0  0  0  0  0
  -24.8113   -8.9435   23.6291 C   0  0  0  0  0  0  0  0  0  0  0  0
  -28.8261  -28.8813   21.4616 C   0  0  0  0  0  0  0  0  0  0  0  0
  -21.2585   -7.5485   24.3618 C   0  0  0  0  0  0  0  0  0  0  0  0
  -19.8941   -7.2683   24.4346 C   0  0  0  0  0  0  0  0  0  0  0  0
  -26.8254  -27.7248   22.1538 C   0  0  0  0  0  0  0  0  0  0  0  0
  -30.0531  -17.6070   23.6546 C   0  0  0  0  0  0  0  0  0  0  0  0
  -31.9524  -18.0718   22.2356 C   0  0  0  0  0  0  0  0  0  0  0  0
  -20.2313   -5.2805   23.1033 C   0  0  0  0  0  0  0  0  0  0  0  0
  -24.6052  -10.5669   21.8518 C   0  0  0  0  0  0  0  0  0  0  0  0
  -24.1824  -12.9256   20.9768 C   0  0  0  0  0  0  0  0  0  0  0  0
  -26.0434  -36.0242   23.3800 C   0  0  0  0  0  0  0  0  0  0  0  0
  -26.6462  -29.8469   21.0030 C   0  0  0  0  0  0  0  0  0  0  0  0
  -26.2053  -34.6389   23.5727 C   0  0  0  0  0  0  0  0  0  0  0  0
  -26.0288  -28.7448   21.6115 C   0  0  0  0  0  0  0  0  0  0  0  0
  -30.5008  -19.8706   22.9386 C   0  0  0  0  0  0  0  0  0  0  0  0
  -31.1700  -17.1623   22.9472 C   0  0  0  0  0  0  0  0  0  0  0  0
  -29.7184  -18.9612   23.6502 C   0  0  0  0  0  0  0  0  0  0  0  0
  -31.6178  -19.4259   22.2312 C   0  0  0  0  0  0  0  0  0  0  0  0
  -23.8381   -8.1521   23.0190 C   0  0  0  0  0  0  0  0  0  0  0  0
  -28.2165  -27.7940   22.0806 C   0  0  0  0  0  0  0  0  0  0  0  0
  -22.1094   -6.6948   23.6597 C   0  0  0  0  0  0  0  0  0  0  0  0
  -19.3805   -6.1343   23.8054 C   0  0  0  0  0  0  0  0  0  0  0  0
  -21.5958   -5.5608   23.0305 C   0  0  0  0  0  0  0  0  0  0  0  0
  -25.0022  -11.8140   21.2491 C   0  0  0  0  0  0  0  0  0  0  0  0
  -25.0289  -13.8453   20.4076 C   0  0  0  0  0  0  0  0  0  0  0  0
  -22.7811  -13.1103   21.2171 C   0  0  0  0  0  0  0  0  0  0  0  0
  -24.4056  -31.6495   22.3573 C   0  0  0  0  0  0  0  0  0  0  0  0
  -22.3950  -29.6285   20.8097 C   0  0  0  0  0  0  0  0  0  0  0  0
  -22.2040  -26.0832   20.1681 C   0  0  0  0  0  0  0  0  0  0  0  0
  -30.9436  -14.7083   20.7591 C   0  0  0  0  0  0  0  0  0  0  0  0
  -24.6780  -36.6594   23.2975 C   0  0  0  0  0  0  0  0  0  0  0  0
  -25.8171  -30.9429   20.3915 C   0  0  0  0  0  0  0  0  0  0  0  0
  -24.5302  -28.6282   21.7072 C   0  0  0  0  0  0  0  0  0  0  0  0
  -23.5597  -35.6633   23.0017 C   0  0  0  0  0  0  0  0  0  0  0  0
  -29.0344  -14.1414   17.8077 C   0  0  0  0  0  0  0  0  0  0  0  0
  -23.6950  -34.4300   23.8890 C   0  0  0  0  0  0  0  0  0  0  0  0
  -27.7106  -13.5809   18.3305 C   0  0  0  0  0  0  0  0  0  0  0  0
  -31.2311  -22.2068   23.5910 C   0  0  0  0  0  0  0  0  0  0  0  0
  -29.7898  -21.8619   21.5312 C   0  0  0  0  0  0  0  0  0  0  0  0
  -30.2204  -13.6541   18.6373 C   0  0  0  0  0  0  0  0  0  0  0  0
  -28.7786  -13.3346   20.6103 C   0  0  0  0  0  0  0  0  0  0  0  0
  -31.4167  -23.5628   22.9203 C   0  0  0  0  0  0  0  0  0  0  0  0
  -30.1367  -21.3439   22.9344 C   0  0  1  0  0  0  0  0  0  0  0  0
  -25.0182  -33.7018   23.6236 C   0  0  1  0  0  0  0  0  0  0  0  0
  -24.4153  -31.0344   20.9865 C   0  0  1  0  0  0  0  0  0  0  0  0
  -27.5479  -13.8427   19.8399 C   0  0  2  0  0  0  0  0  0  0  0  0
  -29.2674  -23.3047   21.5772 C   0  0  2  0  0  0  0  0  0  0  0  0
  -28.5180  -19.4117   24.4167 C   0  0  0  0  0  0  0  0  0  0  0  0
  -32.4719  -20.3796   21.4613 C   0  0  0  0  0  0  0  0  0  0  0  0
  -29.2759  -23.9496   20.1950 C   0  0  0  0  0  0  0  0  0  0  0  0
  -21.1192  -24.8212   18.2898 C   0  0  0  0  0  0  0  0  0  0  0  0
  -20.0070  -29.4418   22.6999 C   0  0  0  0  0  0  0  0  0  0  0  0
  -19.6208  -27.1116   21.8699 C   0  0  0  0  0  0  0  0  0  0  0  0
  -19.4656  -29.0375   20.2921 C   0  0  0  0  0  0  0  0  0  0  0  0
  -24.7253  -24.6866   19.4959 C   0  0  0  0  0  0  0  0  0  0  0  0
  -31.5274  -15.7145   22.9513 C   0  0  0  0  0  0  0  0  0  0  0  0
  -29.2979  -24.6565   23.7125 C   0  0  0  0  0  0  0  0  0  0  0  0
  -28.2847  -25.6828   23.2454 C   0  0  0  0  0  0  0  0  0  1  0  0
  -21.7328  -28.3141   21.1456 C   0  0  1  0  0  0  0  0  0  0  0  0
  -22.4205  -25.3877   18.8362 C   0  0  2  0  0  0  0  0  0  0  0  0
  -20.2316  -28.4836   21.5132 C   0  0  0  0  0  0  0  0  0  0  0  0
  -26.2720  -12.0078   20.8828 N   0  0  0  0  0  0  0  0  0  0  0  0
  -26.2564  -13.2517   20.3744 N   0  0  0  0  0  0  0  0  0  0  0  0
  -23.7631  -29.7283   21.0999 N   0  0  0  0  0  0  0  0  0  0  0  0
  -30.0039  -13.9339   20.0588 N   0  0  0  0  0  0  0  0  0  0  0  0
  -24.8356  -15.0958   19.9370 N   0  0  0  0  0  0  0  0  0  0  0  0
  -22.0612  -12.0641   21.8100 N   0  0  0  0  0  0  0  0  0  0  0  0
  -24.9326  -32.9260   22.4049 N   0  0  0  0  0  0  0  0  0  0  0  0
  -21.9736  -27.4332   20.0079 N   0  0  0  0  0  0  0  0  0  0  0  0
  -30.6590  -14.9314   22.1007 N   0  0  0  0  0  0  0  0  0  0  0  0
  -30.0934  -24.1679   22.5287 N   0  3  1  0  0  0  0  0  0  0  0  0
  -23.3931  -24.2689   18.9881 N   0  3  0  0  0  0  0  0  0  0  0  0
  -22.1815  -14.1655   20.9000 O   0  0  0  0  0  0  0  0  0  0  0  0
  -23.9523  -31.0136   23.3017 O   0  0  0  0  0  0  0  0  0  0  0  0
  -21.7247  -30.5309   20.3017 O   0  0  0  0  0  0  0  0  0  0  0  0
  -22.2325  -25.4877   21.2429 O   0  0  0  0  0  0  0  0  0  0  0  0
  -31.9580  -15.1714   20.2267 O   0  0  0  0  0  0  0  0  0  0  0  0
  -23.4639   -6.9740   23.5889 O   0  0  0  0  0  0  0  0  0  0  0  0
  -28.9765  -26.7967   22.6094 O   0  0  0  0  0  0  0  0  0  1  0  0
  -18.0704   -5.8645   23.8768 F   0  0  0  0  0  0  0  0  0  0  0  0
  -22.4085   -4.7363   22.3555 F   0  0  0  0  0  0  0  0  0  0  0  0
  1  2  1  0  0  0  0
  1  5  2  0  0  0  0
  2  6  2  0  0  0  0
  3  8  2  0  0  0  0
  3 17  1  0  0  0  0
  4  9  1  0  0  0  0
  4 17  2  0  0  0  0
  5 19  1  0  0  0  0
  6 21  1  0  0  0  0
  7 10  2  0  0  0  0
  7 20  1  0  0  0  0
  8 27  1  0  0  0  0
  9 27  2  0  0  0  0
 10 28  1  0  0  0  0
 11 12  2  0  0  0  0
 11 29  1  0  0  0  0
 12 30  1  0  0  0  0
 13 22  1  0  0  0  0
 13 28  2  0  0  0  0
 14 24  1  0  0  0  0
 14 25  2  0  0  0  0
 15 24  2  0  0  0  0
 15 26  1  0  0  0  0
 16 30  2  0  0  0  0
 16 31  1  0  0  0  0
 17 32  1  0  0  0  0
 18 32  1  0  0  0  0
 18 33  2  0  0  0  0
 18 34  1  0  0  0  0
 19 21  2  0  0  0  0
 19 39  1  0  0  0  0
 20 22  2  0  0  0  0
 20 40  1  0  0  0  0
 21 52  1  0  0  0  0
 22 41  1  0  0  0  0
 23 25  1  0  0  0  0
 23 26  2  0  0  0  0
 23 51  1  0  0  0  0
 24 64  1  0  0  0  0
 25 56  1  0  0  0  0
 26 57  1  0  0  0  0
 27 86  1  0  0  0  0
 28 87  1  0  0  0  0
 29 31  2  0  0  0  0
 29 86  1  0  0  0  0
 30 88  1  0  0  0  0
 31 89  1  0  0  0  0
 32 70  2  0  0  0  0
 33 71  1  0  0  0  0
 33 74  1  0  0  0  0
 34 75  1  0  0  0  0
 34 81  2  0  0  0  0
 35 53  1  0  0  0  0
 35 76  1  0  0  0  0
 35 82  2  0  0  0  0
 36 67  1  0  0  0  0
 36 72  1  0  0  0  0
 36 83  2  0  0  0  0
 37 68  1  0  0  0  0
 37 77  1  0  0  0  0
 37 84  2  0  0  0  0
 38 73  1  0  0  0  0
 38 78  1  0  0  0  0
 38 85  2  0  0  0  0
 39 42  1  0  0  0  0
 40 53  1  0  0  0  0
 41 72  1  0  0  0  0
 42 44  1  0  0  0  0
 43 45  1  0  0  0  0
 43 48  1  0  0  0  0
 44 52  1  0  0  0  0
 45 54  1  0  0  0  0
 46 50  1  0  0  0  0
 46 51  1  0  0  0  0
 47 51  1  0  0  0  0
 47 55  1  0  0  0  0
 48 73  1  0  0  0  0
 49 54  1  0  0  0  0
 49 73  1  0  0  0  0
 50 79  1  0  0  0  0
 52 76  1  0  0  0  0
 53 72  1  0  0  0  0
 54 71  1  0  0  0  0
 55 58  1  0  0  0  0
 55 79  1  0  0  0  0
 59 68  1  0  0  0  0
 60 69  1  0  0  0  0
 61 69  1  0  0  0  0
 62 69  1  0  0  0  0
 63 80  1  0  0  0  0
 64 78  1  0  0  0  0
 65 66  1  0  0  0  0
 65 79  1  0  0  0  0
 66 87  1  0  0  0  0
 67 69  1  0  0  0  0
 67 77  1  0  0  0  0
 68 80  1  0  0  0  0
 70 71  1  0  0  0  0
M  CHG  2  79   1  80   1
M  ISO  4  38 100  66 101  78 100  87 101
M  END
> <Batch ID>
0159

> <Smiles>
CNC(C)C(=O)NC(C(=O)N1Cc2cc([101O:1][101CH2:1]CN3CCC(c4c(C)cc(C[100NH:0][100C:0](=O)N5CCCC(n6nc(-c7ccc(Oc8ccc(F)cc8F)cc7)c(C(N)=O)c6N)C5)cc4C)CC3C)ccc2CC1C(=O)NC1CCCc2ccccc21)C(C)(C)C

> <Shape>
0.328

> <Color>
0.125

> <Negative vol penalty>
0.000

$$$$

  -OEChem-04052322073D

 89 98  0     1  0  0  0  0  0999 V2000
  -27.4665  -37.6995   23.3833 C   0  0  0  0  0  0  0  0  0  0  0  0
  -27.9895  -36.7505   22.5107 C   0  0  0  0  0  0  0  0  0  0  0  0
  -29.9805  -10.6944   16.5842 C   0  0  0  0  0  0  0  0  0  0  0  0
  -30.8000  -12.9667   16.6256 C   0  0  0  0  0  0  0  0  0  0  0  0
  -26.6933  -37.2941   24.4703 C   0  0  0  0  0  0  0  0  0  0  0  0
  -27.7404  -35.3954   22.7254 C   0  0  0  0  0  0  0  0  0  0  0  0
  -26.7497  -29.2667   19.1514 C   0  0  0  0  0  0  0  0  0  0  0  0
  -30.5139  -10.5252   15.3066 C   0  0  0  0  0  0  0  0  0  0  0  0
  -31.3335  -12.7976   15.3480 C   0  0  0  0  0  0  0  0  0  0  0  0
  -27.2281  -27.9580   19.1041 C   0  0  0  0  0  0  0  0  0  0  0  0
  -29.6916  -11.3544   12.1347 C   0  0  0  0  0  0  0  0  0  0  0  0
  -28.8916  -10.7323   11.1763 C   0  0  0  0  0  0  0  0  0  0  0  0
  -25.8126  -27.3795   20.9699 C   0  0  0  0  0  0  0  0  0  0  0  0
  -28.0513  -23.1065   18.0880 C   0  0  0  0  0  0  0  0  0  0  0  0
  -30.5453   -8.9885   10.9278 C   0  0  0  0  0  0  0  0  0  0  0  0
  -30.1235  -11.9152   17.2437 C   0  0  0  0  0  0  0  0  0  0  0  0
  -30.2110  -11.8381   19.7921 C   0  0  0  0  0  0  0  0  0  0  0  0
  -26.4265  -35.9340   24.6929 C   0  0  0  0  0  0  0  0  0  0  0  0
  -25.8057  -29.6450   20.1168 C   0  0  0  0  0  0  0  0  0  0  0  0
  -26.9639  -34.9713   23.8172 C   0  0  0  0  0  0  0  0  0  0  0  0
  -25.3219  -28.6930   21.0256 C   0  0  0  0  0  0  0  0  0  0  0  0
  -28.5571  -23.9837   19.0472 C   0  0  0  0  0  0  0  0  0  0  0  0
  -28.3776  -21.7513   18.1410 C   0  0  0  0  0  0  0  0  0  0  0  0
  -29.3893  -23.5058   20.0595 C   0  0  0  0  0  0  0  0  0  0  0  0
  -29.7157  -22.1506   20.1125 C   0  0  0  0  0  0  0  0  0  0  0  0
  -29.2098  -21.2734   19.1532 C   0  0  0  0  0  0  0  0  0  0  0  0
  -31.1905  -11.5768   14.6884 C   0  0  0  0  0  0  0  0  0  0  0  0
  -26.7618  -27.0149   20.0153 C   0  0  0  0  0  0  0  0  0  0  0  0
  -30.9186  -10.7936   12.4896 C   0  0  0  0  0  0  0  0  0  0  0  0
  -29.3184   -9.5494   10.5729 C   0  0  0  0  0  0  0  0  0  0  0  0
  -31.3453   -9.6107   11.8861 C   0  0  0  0  0  0  0  0  0  0  0  0
  -29.5722  -12.0907   18.5633 C   0  0  0  0  0  0  0  0  0  0  0  0
  -29.2713  -12.1606   20.7404 C   0  0  0  0  0  0  0  0  0  0  0  0
  -31.5356  -11.3551   20.0529 C   0  0  0  0  0  0  0  0  0  0  0  0
  -25.7640  -31.7269   22.5184 C   0  0  0  0  0  0  0  0  0  0  0  0
  -22.6490  -30.8439   22.7160 C   0  0  0  0  0  0  0  0  0  0  0  0
  -20.2596  -28.4895   22.0882 C   0  0  0  0  0  0  0  0  0  0  0  0
  -24.6516  -15.7728   20.8907 C   0  0  0  0  0  0  0  0  0  0  0  0
  -25.6247  -35.5409   25.9083 C   0  0  0  0  0  0  0  0  0  0  0  0
  -25.2797  -31.0540   20.1375 C   0  0  0  0  0  0  0  0  0  0  0  0
  -24.2934  -29.0433   22.0687 C   0  0  0  0  0  0  0  0  0  0  0  0
  -25.0953  -34.1102   25.8522 C   0  0  0  0  0  0  0  0  0  0  0  0
  -24.5462  -12.3591   21.4284 C   0  0  0  0  0  0  0  0  0  0  0  0
  -26.1960  -33.1506   25.4112 C   0  0  0  0  0  0  0  0  0  0  0  0
  -25.8841  -11.8639   20.8796 C   0  0  0  0  0  0  0  0  0  0  0  0
  -27.2675  -18.2715   21.6910 C   0  0  0  0  0  0  0  0  0  0  0  0
  -27.4951  -17.5949   19.2746 C   0  0  0  0  0  0  0  0  0  0  0  0
  -23.9461  -13.4277   20.5218 C   0  0  0  0  0  0  0  0  0  0  0  0
  -25.8139  -17.8072   21.6648 C   0  0  0  0  0  0  0  0  0  0  0  0
  -26.0368  -17.1488   19.2922 C   0  0  0  0  0  0  0  0  0  0  0  0
  -26.1889  -14.1175   19.7408 C   0  0  0  0  0  0  0  0  0  0  0  0
  -26.6952  -33.4937   24.0024 C   0  0  1  0  0  0  0  0  0  0  0  0
  -24.7017  -31.4562   21.4908 C   0  0  1  0  0  0  0  0  0  0  0  0
  -27.7493  -18.7070   20.3011 C   0  0  0  0  0  0  0  0  0  0  0  0
  -26.8456  -13.0383   20.6249 C   0  0  2  0  0  0  0  0  0  0  0  0
  -27.8203  -20.8359   17.0995 C   0  0  0  0  0  0  0  0  0  0  0  0
  -29.9304  -24.4494   21.0867 C   0  0  0  0  0  0  0  0  0  0  0  0
  -30.6094  -21.6418   21.2002 C   0  0  0  0  0  0  0  0  0  0  0  0
  -17.8111  -28.0360   22.3992 C   0  0  0  0  0  0  0  0  0  0  0  0
  -23.1396  -30.2307   25.6644 C   0  0  0  0  0  0  0  0  0  0  0  0
  -21.0049  -28.9226   25.6757 C   0  0  0  0  0  0  0  0  0  0  0  0
  -20.9647  -31.3677   25.1832 C   0  0  0  0  0  0  0  0  0  0  0  0
  -30.2409  -19.2994   18.0576 C   0  0  0  0  0  0  0  0  0  0  0  0
  -19.8039  -28.3083   19.1695 C   0  0  0  0  0  0  0  0  0  0  0  0
  -28.1926  -25.4301   18.9678 C   0  0  0  0  0  0  0  0  0  1  0  0
  -29.2271  -19.0897   20.3328 C   0  0  0  0  0  0  0  0  0  0  0  0
  -21.8869  -29.7701   23.4543 C   0  0  1  0  0  0  0  0  0  0  0  0
  -18.8769  -28.5972   21.4709 C   0  0  2  0  0  0  0  0  0  0  0  0
  -21.7698  -30.0664   24.9761 C   0  0  0  0  0  0  0  0  0  0  0  0
  -28.3231  -12.5390   18.7142 N   0  0  0  0  0  0  0  0  0  0  0  0
  -28.1694  -12.5705   20.0490 N   0  0  0  0  0  0  0  0  0  0  0  0
  -23.8146  -30.4355   22.0525 N   0  0  0  0  0  0  0  0  0  0  0  0
  -24.8909  -14.5225   20.3010 N   0  0  0  0  0  0  0  0  0  0  0  0
  -25.5979  -16.7815   20.6452 N   0  0  0  0  0  0  0  0  0  0  0  0
  -29.2882  -12.1307   22.0899 N   0  0  0  0  0  0  0  0  0  0  0  0
  -32.3706  -11.0730   18.9632 N   0  0  0  0  0  0  0  0  0  0  0  0
  -25.7592  -33.0201   23.0054 N   0  0  0  0  0  0  0  0  0  0  0  0
  -20.6048  -29.6365   22.7712 N   0  0  0  0  0  0  0  0  0  0  0  0
  -29.5395  -19.9012   19.2048 N   0  0  3  0  0  0  0  0  0  0  0  0
  -18.8236  -27.8453   20.1853 N   0  3  0  0  0  0  0  0  0  0  0  0
  -31.9603  -11.1634   21.2176 O   0  0  0  0  0  0  0  0  0  0  0  0
  -26.5304  -30.8286   22.8462 O   0  0  0  0  0  0  0  0  0  0  0  0
  -22.2218  -32.0011   22.7216 O   0  0  0  0  0  0  0  0  0  0  0  0
  -20.9616  -27.4866   21.9788 O   0  0  0  0  0  0  0  0  0  0  0  0
  -23.6568  -15.9771   21.5976 O   0  0  0  0  0  0  0  0  0  0  0  0
  -31.7113  -11.4120   13.4418 O   0  0  0  0  0  0  0  0  0  0  0  0
  -27.2309  -25.7279   19.9714 O   0  0  0  0  0  0  0  0  0  1  0  0
  -28.5493   -8.9513    9.6537 F   0  0  0  0  0  0  0  0  0  0  0  0
  -32.5225   -9.0666   12.2238 F   0  0  0  0  0  0  0  0  0  0  0  0
  1  2  1  0  0  0  0
  1  5  2  0  0  0  0
  2  6  2  0  0  0  0
  3  8  2  0  0  0  0
  3 16  1  0  0  0  0
  4  9  1  0  0  0  0
  4 16  2  0  0  0  0
  5 18  1  0  0  0  0
  6 20  1  0  0  0  0
  7 10  2  0  0  0  0
  7 19  1  0  0  0  0
  8 27  1  0  0  0  0
  9 27  2  0  0  0  0
 10 28  1  0  0  0  0
 11 12  2  0  0  0  0
 11 29  1  0  0  0  0
 12 30  1  0  0  0  0
 13 21  1  0  0  0  0
 13 28  2  0  0  0  0
 14 22  1  0  0  0  0
 14 23  2  0  0  0  0
 15 30  2  0  0  0  0
 15 31  1  0  0  0  0
 16 32  1  0  0  0  0
 17 32  1  0  0  0  0
 17 33  2  0  0  0  0
 17 34  1  0  0  0  0
 18 20  2  0  0  0  0
 18 39  1  0  0  0  0
 19 21  2  0  0  0  0
 19 40  1  0  0  0  0
 20 52  1  0  0  0  0
 21 41  1  0  0  0  0
 22 24  2  0  0  0  0
 22 65  1  0  0  0  0
 23 26  1  0  0  0  0
 23 56  1  0  0  0  0
 24 25  1  0  0  0  0
 24 57  1  0  0  0  0
 25 26  2  0  0  0  0
 25 58  1  0  0  0  0
 26 79  1  0  0  0  0
 27 86  1  0  0  0  0
 28 87  1  0  0  0  0
 29 31  2  0  0  0  0
 29 86  1  0  0  0  0
 30 88  1  0  0  0  0
 31 89  1  0  0  0  0
 32 70  2  0  0  0  0
 33 71  1  0  0  0  0
 33 75  1  0  0  0  0
 34 76  1  0  0  0  0
 34 81  2  0  0  0  0
 35 53  1  0  0  0  0
 35 77  1  0  0  0  0
 35 82  2  0  0  0  0
 36 67  1  0  0  0  0
 36 72  1  0  0  0  0
 36 83  2  0  0  0  0
 37 68  1  0  0  0  0
 37 78  1  0  0  0  0
 37 84  2  0  0  0  0
 38 73  1  0  0  0  0
 38 74  1  0  0  0  0
 38 85  2  0  0  0  0
 39 42  1  0  0  0  0
 40 53  1  0  0  0  0
 41 72  1  0  0  0  0
 42 44  1  0  0  0  0
 43 45  1  0  0  0  0
 43 48  1  0  0  0  0
 44 52  1  0  0  0  0
 45 55  1  0  0  0  0
 46 49  1  0  0  0  0
 46 54  1  0  0  0  0
 47 50  1  0  0  0  0
 47 54  1  0  0  0  0
 48 73  1  0  0  0  0
 49 74  1  0  0  0  0
 50 74  1  0  0  0  0
 51 55  1  0  0  0  0
 51 73  1  0  0  0  0
 52 77  1  0  0  0  0
 53 72  1  0  0  0  0
 54 66  1  0  0  0  0
 55 71  1  0  0  0  0
 59 68  1  0  0  0  0
 60 69  1  0  0  0  0
 61 69  1  0  0  0  0
 62 69  1  0  0  0  0
 63 79  1  0  0  0  0
 64 80  1  0  0  0  0
 65 87  1  0  0  0  0
 66 79  1  0  0  0  0
 67 69  1  0  0  0  0
 67 78  1  0  0  0  0
 68 80  1  0  0  0  0
 70 71  1  0  0  0  0
M  CHG  1  80   1
M  ISO  4  38 100  65 101  74 100  87 101
M  END
> <Batch ID>
0159

> <Smiles>
CNC(C)C(=O)NC(C(=O)N1Cc2cc([101O:1][101CH2:1]c3cc(C)c(N(C)CC4CC[100N:0]([100C:0](=O)N5CCCC(n6nc(-c7ccc(Oc8ccc(F)cc8F)cc7)c(C(N)=O)c6N)C5)CC4)c(C)c3C)ccc2CC1C(=O)NC1CCCc2ccccc21)C(C)(C)C

> <Shape>
0.313

> <Color>
0.081

> <Negative vol penalty>
0.000

$$$$

  -OEChem-04052322073D

 89100  0     1  0  0  0  0  0999 V2000
  -17.0553  -28.4743   23.9992 C   0  0  0  0  0  0  0  0  0  0  0  0
  -18.1894  -27.7549   23.6363 C   0  0  0  0  0  0  0  0  0  0  0  0
  -23.8235   -9.6483   21.7044 C   0  0  0  0  0  0  0  0  0  0  0  0
  -24.2390  -10.9017   23.7276 C   0  0  0  0  0  0  0  0  0  0  0  0
  -17.0409  -29.8625   23.8702 C   0  0  0  0  0  0  0  0  0  0  0  0
  -19.3094  -28.4233   23.1431 C   0  0  0  0  0  0  0  0  0  0  0  0
  -23.6281  -26.7525   25.1932 C   0  0  0  0  0  0  0  0  0  0  0  0
  -23.2948   -8.6025   22.4608 C   0  0  0  0  0  0  0  0  0  0  0  0
  -23.7102   -9.8558   24.4841 C   0  0  0  0  0  0  0  0  0  0  0  0
  -24.1403  -25.5504   24.7071 C   0  0  0  0  0  0  0  0  0  0  0  0
  -20.3888   -7.8882   24.0350 C   0  0  0  0  0  0  0  0  0  0  0  0
  -19.1977   -7.3092   23.5972 C   0  0  0  0  0  0  0  0  0  0  0  0
  -25.6988  -26.7768   23.3338 C   0  0  0  0  0  0  0  0  0  0  0  0
  -28.3639  -19.2310   20.5222 C   0  0  0  0  0  0  0  0  0  0  0  0
  -20.3095   -5.1736   23.3966 C   0  0  0  0  0  0  0  0  0  0  0  0
  -24.2957  -10.7979   22.3378 C   0  0  0  0  0  0  0  0  0  0  0  0
  -24.1452  -12.9769   21.0198 C   0  0  0  0  0  0  0  0  0  0  0  0
  -18.1647  -30.5491   23.3842 C   0  0  0  0  0  0  0  0  0  0  0  0
  -24.1408  -27.9780   24.7442 C   0  0  0  0  0  0  0  0  0  0  0  0
  -19.3095  -29.8218   23.0062 C   0  0  0  0  0  0  0  0  0  0  0  0
  -25.1931  -27.9930   23.8176 C   0  0  0  0  0  0  0  0  0  0  0  0
  -28.5209  -20.5967   20.3136 C   0  0  0  0  0  0  0  0  0  0  0  0
  -29.7167  -21.0824   19.7962 C   0  0  0  0  0  0  0  0  0  0  0  0
  -23.2380   -8.7062   23.8506 C   0  0  0  0  0  0  0  0  0  0  0  0
  -25.1739  -25.5624   23.7751 C   0  0  0  0  0  0  0  0  0  0  0  0
  -21.5403   -7.1099   24.1535 C   0  0  0  0  0  0  0  0  0  0  0  0
  -19.1580   -5.9520   23.2780 C   0  0  0  0  0  0  0  0  0  0  0  0
  -21.5006   -5.7526   23.8344 C   0  0  0  0  0  0  0  0  0  0  0  0
  -24.8426  -11.8783   21.5569 C   0  0  0  0  0  0  0  0  0  0  0  0
  -29.4243  -18.3996   20.1998 C   0  0  0  0  0  0  0  0  0  0  0  0
  -30.7166  -20.1680   19.5064 C   0  0  0  0  0  0  0  0  0  0  0  0
  -25.1075  -13.7098   20.3692 C   0  0  0  0  0  0  0  0  0  0  0  0
  -22.7520  -13.3056   21.1018 C   0  0  0  0  0  0  0  0  0  0  0  0
  -22.9419  -30.4751   23.1850 C   0  0  0  0  0  0  0  0  0  0  0  0
  -25.8585  -31.7593   23.7906 C   0  0  0  0  0  0  0  0  0  0  0  0
  -29.1613  -31.2501   24.4825 C   0  0  0  0  0  0  0  0  0  0  0  0
  -30.1801  -15.9967   20.1655 C   0  0  0  0  0  0  0  0  0  0  0  0
  -18.0851  -32.0460   23.2180 C   0  0  0  0  0  0  0  0  0  0  0  0
  -23.5954  -29.2656   25.2983 C   0  0  0  0  0  0  0  0  0  0  0  0
  -25.7923  -29.2817   23.3189 C   0  0  0  0  0  0  0  0  0  0  0  0
  -19.4469  -32.7123   23.0396 C   0  0  0  0  0  0  0  0  0  0  0  0
  -29.9068  -12.5716   19.2321 C   0  0  0  0  0  0  0  0  0  0  0  0
  -28.9384  -23.2847   18.6926 C   0  0  0  0  0  0  0  0  0  0  0  0
  -30.3199  -23.0112   18.1856 C   0  0  0  0  0  0  0  0  0  0  0  0
  -20.2857  -31.9481   22.0202 C   0  0  0  0  0  0  0  0  0  0  0  0
  -25.3148  -21.6798   22.2710 C   0  0  0  0  0  0  0  0  0  0  0  0
  -28.5075  -12.1763   19.7095 C   0  0  0  0  0  0  0  0  0  0  0  0
  -24.7279  -22.9361   21.6274 C   0  0  0  0  0  0  0  0  0  0  0  0
  -26.9900  -24.0237   21.3003 C   0  0  0  0  0  0  0  0  0  0  0  0
  -30.5816  -13.5446   20.1973 C   0  0  0  0  0  0  0  0  0  0  0  0
  -28.3951  -14.3448   21.0025 C   0  0  0  0  0  0  0  0  0  0  0  0
  -27.3814  -21.5298   20.6557 C   0  0  1  0  0  0  0  0  0  0  0  0
  -29.9202  -22.5417   19.5592 C   0  0  0  0  0  0  0  0  0  0  0  0
  -20.5530  -30.5132   22.4904 C   0  0  1  0  0  0  0  0  0  0  0  0
  -23.8452  -30.4623   24.3856 C   0  0  1  0  0  0  0  0  0  0  0  0
  -26.7862  -21.5209   22.0470 C   0  0  1  0  0  0  0  0  0  0  0  0
  -27.6193  -22.6944   21.6073 C   0  0  2  0  0  0  0  0  0  0  0  0
  -27.6500  -13.4163   20.0297 C   0  0  2  0  0  0  0  0  0  0  0  0
  -25.5874  -24.1711   21.8925 C   0  0  2  0  0  0  0  0  0  1  0  0
  -31.3037  -32.4928   24.8864 C   0  0  0  0  0  0  0  0  0  0  0  0
  -26.0932  -32.3214   20.8008 C   0  0  0  0  0  0  0  0  0  0  0  0
  -28.5517  -32.6624   21.1288 C   0  0  0  0  0  0  0  0  0  0  0  0
  -26.9222  -34.1623   22.2766 C   0  0  0  0  0  0  0  0  0  0  0  0
  -29.4313  -30.1320   27.2094 C   0  0  0  0  0  0  0  0  0  0  0  0
  -32.8913  -19.6111   18.7214 C   0  0  0  0  0  0  0  0  0  0  0  0
  -27.1877  -31.7783   23.0753 C   0  0  1  0  0  0  0  0  0  0  0  0
  -30.0775  -31.8615   25.5271 C   0  0  2  0  0  0  0  0  0  0  0  0
  -27.1763  -32.7067   21.8281 C   0  0  0  0  0  0  0  0  0  0  0  0
  -26.1473  -11.9066   21.2721 N   0  0  0  0  0  0  0  0  0  0  0  0
  -30.6008  -18.8344   19.6954 N   0  0  0  0  0  0  0  0  0  0  0  0
  -26.2772  -13.0318   20.5489 N   0  0  0  0  0  0  0  0  0  0  0  0
  -25.2206  -30.5144   23.8857 N   0  0  0  0  0  0  0  0  0  0  0  0
  -29.7129  -14.6962   20.4504 N   0  0  0  0  0  0  0  0  0  0  0  0
  -25.0587  -14.8615   19.6666 N   0  0  0  0  0  0  0  0  0  0  0  0
  -21.9027  -12.4438   21.8092 N   0  0  0  0  0  0  0  0  0  0  0  0
  -29.2548  -17.0095   20.4158 N   0  0  0  0  0  0  0  0  0  0  0  0
  -21.5953  -30.4962   23.4943 N   0  0  0  0  0  0  0  0  0  0  0  0
  -28.1856  -32.1362   24.0775 N   0  0  0  0  0  0  0  0  0  0  0  0
  -30.5342  -30.8191   26.4894 N   0  3  0  0  0  0  0  0  0  0  0  0
  -22.2715  -14.3244   20.5498 O   0  0  0  0  0  0  0  0  0  0  0  0
  -23.4305  -30.4679   22.0612 O   0  0  0  0  0  0  0  0  0  0  0  0
  -25.4062  -32.8091   24.2544 O   0  0  0  0  0  0  0  0  0  0  0  0
  -29.2998  -30.1026   24.0646 O   0  0  0  0  0  0  0  0  0  0  0  0
  -31.3076  -16.1949   19.7057 O   0  0  0  0  0  0  0  0  0  0  0  0
  -22.7219   -7.6860   24.5891 O   0  0  0  0  0  0  0  0  0  0  0  0
  -25.6754  -24.3905   23.2986 O   0  0  0  0  0  0  0  0  0  1  0  0
  -31.9111  -20.6048   18.9949 O   0  0  0  0  0  0  0  0  0  0  0  0
  -18.0138   -5.3958   22.8591 F   0  0  0  0  0  0  0  0  0  0  0  0
  -22.6034   -4.9996   23.9474 F   0  0  0  0  0  0  0  0  0  0  0  0
  1  2  1  0  0  0  0
  1  5  2  0  0  0  0
  2  6  2  0  0  0  0
  3  8  2  0  0  0  0
  3 16  1  0  0  0  0
  4  9  1  0  0  0  0
  4 16  2  0  0  0  0
  5 18  1  0  0  0  0
  6 20  1  0  0  0  0
  7 10  2  0  0  0  0
  7 19  1  0  0  0  0
  8 24  1  0  0  0  0
  9 24  2  0  0  0  0
 10 25  1  0  0  0  0
 11 12  2  0  0  0  0
 11 26  1  0  0  0  0
 12 27  1  0  0  0  0
 13 21  1  0  0  0  0
 13 25  2  0  0  0  0
 14 22  1  0  0  0  0
 14 30  2  0  0  0  0
 15 27  2  0  0  0  0
 15 28  1  0  0  0  0
 16 29  1  0  0  0  0
 17 29  1  0  0  0  0
 17 32  2  0  0  0  0
 17 33  1  0  0  0  0
 18 20  2  0  0  0  0
 18 38  1  0  0  0  0
 19 21  2  0  0  0  0
 19 39  1  0  0  0  0
 20 54  1  0  0  0  0
 21 40  1  0  0  0  0
 22 23  2  0  0  0  0
 22 52  1  0  0  0  0
 23 31  1  0  0  0  0
 23 53  1  0  0  0  0
 24 85  1  0  0  0  0
 25 86  1  0  0  0  0
 26 28  2  0  0  0  0
 26 85  1  0  0  0  0
 27 88  1  0  0  0  0
 28 89  1  0  0  0  0
 29 69  2  0  0  0  0
 30 70  1  0  0  0  0
 30 76  1  0  0  0  0
 31 70  2  0  0  0  0
 31 87  1  0  0  0  0
 32 71  1  0  0  0  0
 32 74  1  0  0  0  0
 33 75  1  0  0  0  0
 33 80  2  0  0  0  0
 34 55  1  0  0  0  0
 34 77  1  0  0  0  0
 34 81  2  0  0  0  0
 35 66  1  0  0  0  0
 35 72  1  0  0  0  0
 35 82  2  0  0  0  0
 36 67  1  0  0  0  0
 36 78  1  0  0  0  0
 36 83  2  0  0  0  0
 37 73  1  0  0  0  0
 37 76  1  0  0  0  0
 37 84  2  0  0  0  0
 38 41  1  0  0  0  0
 39 55  1  0  0  0  0
 40 72  1  0  0  0  0
 41 45  1  0  0  0  0
 42 47  1  0  0  0  0
 42 50  1  0  0  0  0
 43 44  1  0  0  0  0
 43 53  1  0  0  0  0
 44 53  1  0  0  0  0
 45 54  1  0  0  0  0
 46 48  1  0  0  0  0
 46 56  1  0  0  0  0
 47 58  1  0  0  0  0
 48 59  1  0  0  0  0
 49 57  1  0  0  0  0
 49 59  1  0  0  0  0
 50 73  1  0  0  0  0
 51 58  1  0  0  0  0
 51 73  1  0  0  0  0
 52 56  1  0  0  0  0
 52 57  1  0  0  0  0
 54 77  1  0  0  0  0
 55 72  1  0  0  0  0
 56 57  1  0  0  0  0
 58 71  1  0  0  0  0
 59 86  1  0  0  0  0
 60 67  1  0  0  0  0
 61 68  1  0  0  0  0
 62 68  1  0  0  0  0
 63 68  1  0  0  0  0
 64 79  1  0  0  0  0
 65 87  1  0  0  0  0
 66 68  1  0  0  0  0
 66 78  1  0  0  0  0
 67 79  1  0  0  0  0
 69 71  1  0  0  0  0
M  CHG  1  79   1
M  ISO  4  37 100  59 101  76 100  86 101
M  END
> <Batch ID>
0159

> <Smiles>
CNC(C)C(=O)NC(C(=O)N1Cc2cc([101O:1][101CH:1]3CCC4C(C3)C4c3cc([100NH:0][100C:0](=O)N4CCCC(n5nc(-c6ccc(Oc7ccc(F)cc7F)cc6)c(C(N)=O)c5N)C4)nc(OC)c3C3CC3)ccc2CC1C(=O)NC1CCCc2ccccc21)C(C)(C)C

> <Shape>
0.300

> <Color>
0.111

> <Negative vol penalty>
0.000

$$$$

  -OEChem-04052322073D

 88 97  0     1  0  0  0  0  0999 V2000
  -25.6489  -37.0335   27.0720 C   0  0  0  0  0  0  0  0  0  0  0  0
  -24.9144  -35.8795   27.3256 C   0  0  0  0  0  0  0  0  0  0  0  0
  -22.6349  -10.3122   20.6531 C   0  0  0  0  0  0  0  0  0  0  0  0
  -24.4344   -9.2865   21.8968 C   0  0  0  0  0  0  0  0  0  0  0  0
  -26.1194  -37.2902   25.7849 C   0  0  0  0  0  0  0  0  0  0  0  0
  -24.6492  -34.9820   26.2919 C   0  0  0  0  0  0  0  0  0  0  0  0
  -23.7703  -27.9789   25.0668 C   0  0  0  0  0  0  0  0  0  0  0  0
  -21.9564   -9.0937   20.6298 C   0  0  0  0  0  0  0  0  0  0  0  0
  -23.7559   -8.0680   21.8735 C   0  0  0  0  0  0  0  0  0  0  0  0
  -22.8697  -27.0935   24.4761 C   0  0  0  0  0  0  0  0  0  0  0  0
  -22.3316   -4.7737   22.4540 C   0  0  0  0  0  0  0  0  0  0  0  0
  -22.2682   -4.0430   23.6405 C   0  0  0  0  0  0  0  0  0  0  0  0
  -23.8008  -27.6014   22.3095 C   0  0  0  0  0  0  0  0  0  0  0  0
  -21.1256   -5.8824   24.7121 C   0  0  0  0  0  0  0  0  0  0  0  0
  -23.8739  -10.4086   21.2866 C   0  0  0  0  0  0  0  0  0  0  0  0
  -24.4769  -12.6768   22.2864 C   0  0  0  0  0  0  0  0  0  0  0  0
  -25.8681  -36.3906   24.7370 C   0  0  0  0  0  0  0  0  0  0  0  0
  -24.6871  -28.6916   24.2807 C   0  0  0  0  0  0  0  0  0  0  0  0
  -25.1157  -35.2275   24.9893 C   0  0  0  0  0  0  0  0  0  0  0  0
  -24.7136  -28.4933   22.8929 C   0  0  0  0  0  0  0  0  0  0  0  0
  -22.5169   -7.9716   21.2400 C   0  0  0  0  0  0  0  0  0  0  0  0
  -22.8829  -26.9068   23.0970 C   0  0  0  0  0  0  0  0  0  0  0  0
  -21.7920   -6.0587   22.3966 C   0  0  0  0  0  0  0  0  0  0  0  0
  -21.6653   -4.5974   24.7695 C   0  0  0  0  0  0  0  0  0  0  0  0
  -21.1891   -6.6130   23.5256 C   0  0  0  0  0  0  0  0  0  0  0  0
  -24.5755  -11.6669   21.3105 C   0  0  0  0  0  0  0  0  0  0  0  0
  -25.3360  -13.6573   21.8538 C   0  0  0  0  0  0  0  0  0  0  0  0
  -23.6802  -12.7242   23.4774 C   0  0  0  0  0  0  0  0  0  0  0  0
  -25.2209  -31.7693   23.6922 C   0  0  0  0  0  0  0  0  0  0  0  0
  -27.7916  -30.6152   22.0854 C   0  0  0  0  0  0  0  0  0  0  0  0
  -29.2509  -27.9992   20.4503 C   0  0  0  0  0  0  0  0  0  0  0  0
  -27.0147  -16.7615   17.3926 C   0  0  0  0  0  0  0  0  0  0  0  0
  -26.3569  -36.7343   23.3522 C   0  0  0  0  0  0  0  0  0  0  0  0
  -25.6698  -29.6229   24.9361 C   0  0  0  0  0  0  0  0  0  0  0  0
  -25.6916  -29.2190   22.0067 C   0  0  0  0  0  0  0  0  0  0  0  0
  -26.3527  -35.5471   22.3926 C   0  0  0  0  0  0  0  0  0  0  0  0
  -28.8234  -13.6310   18.2046 C   0  0  0  0  0  0  0  0  0  0  0  0
  -25.0342  -34.7864   22.4904 C   0  0  0  0  0  0  0  0  0  0  0  0
  -27.8292  -12.8989   19.1043 C   0  0  0  0  0  0  0  0  0  0  0  0
  -25.6226  -22.5668   18.5695 C   0  0  0  0  0  0  0  0  0  0  0  0
  -28.1191  -14.5612   17.2220 C   0  0  0  0  0  0  0  0  0  0  0  0
  -25.3917  -18.6300   17.3548 C   0  0  0  0  0  0  0  0  0  0  0  0
  -26.2078  -14.8083   18.7739 C   0  0  0  0  0  0  0  0  0  0  0  0
  -26.1054  -17.7495   19.5440 C   0  0  0  0  0  0  0  0  0  0  0  0
  -24.1015  -22.6556   18.5756 C   0  0  0  0  0  0  0  0  0  0  0  0
  -25.8827  -20.0242   17.7093 C   0  0  0  0  0  0  0  0  0  0  0  0
  -24.0620  -22.0092   21.0043 C   0  0  0  0  0  0  0  0  0  0  0  0
  -24.8286  -34.2176   23.8995 C   0  0  1  0  0  0  0  0  0  0  0  0
  -26.2160  -30.6819   23.9834 C   0  0  1  0  0  0  0  0  0  0  0  0
  -25.5917  -21.9183   21.0176 C   0  0  2  0  0  0  0  0  0  0  0  0
  -26.8884  -13.8945   19.8044 C   0  0  1  0  0  0  0  0  0  0  0  0
  -26.1705  -21.6053   19.6259 C   0  0  1  0  0  0  0  0  0  0  0  0
  -26.6222  -19.1304   19.9748 C   0  0  1  0  0  0  0  0  0  0  0  0
  -26.0526  -20.9302   22.0916 C   0  0  0  0  0  0  0  0  0  0  0  0
  -28.8877  -18.2685   20.5862 C   0  0  0  0  0  0  0  0  0  0  0  0
  -31.3407  -27.3690   19.2121 C   0  0  0  0  0  0  0  0  0  0  0  0
  -26.8292  -32.1977   19.6606 C   0  0  0  0  0  0  0  0  0  0  0  0
  -28.3561  -30.8138   18.2388 C   0  0  0  0  0  0  0  0  0  0  0  0
  -29.3010  -32.2637   20.0354 C   0  0  0  0  0  0  0  0  0  0  0  0
  -29.8989  -25.8650   22.3956 C   0  0  0  0  0  0  0  0  0  0  0  0
  -28.1315  -19.2715   19.7790 C   0  0  0  0  0  0  0  0  0  0  0  0
  -21.7416  -24.0343   21.2274 C   0  0  0  0  0  0  0  0  0  0  0  0
  -22.1368  -23.2331   19.9961 C   0  0  0  0  0  0  0  0  0  0  0  0
  -22.4264  -25.3923   21.3211 C   0  0  0  0  0  0  0  0  0  1  0  0
  -28.0512  -30.1595   20.6698 C   0  0  1  0  0  0  0  0  0  0  0  0
  -30.6369  -27.3896   20.5600 C   0  0  2  0  0  0  0  0  0  0  0  0
  -28.1145  -31.3463   19.6673 C   0  0  0  0  0  0  0  0  0  0  0  0
  -25.4296  -11.9774   20.3317 N   0  0  0  0  0  0  0  0  0  0  0  0
  -25.8755  -13.1934   20.6902 N   0  0  0  0  0  0  0  0  0  0  0  0
  -26.6281  -30.1236   22.6940 N   0  0  0  0  0  0  0  0  0  0  0  0
  -27.1963  -15.4670   17.9064 N   0  0  0  0  0  0  0  0  0  0  0  0
  -26.1274  -17.6002   18.0836 N   0  0  0  0  0  0  0  0  0  0  0  0
  -25.6748  -14.8625   22.3589 N   0  0  0  0  0  0  0  0  0  0  0  0
  -22.8530  -11.6318   23.7719 N   0  0  0  0  0  0  0  0  0  0  0  0
  -25.6318  -33.0283   24.0866 N   0  0  0  0  0  0  0  0  0  0  0  0
  -29.2653  -29.3519   20.7171 N   0  0  0  0  0  0  0  0  0  0  0  0
  -23.6247  -23.0130   19.9623 N   0  3  2  0  0  0  0  0  0  0  0  0
  -25.8464  -20.1958   19.2116 N   0  3  2  0  0  0  0  0  0  0  0  0
  -30.5489  -25.9906   21.0657 N   0  3  0  0  0  0  0  0  0  0  0  0
  -23.6888  -13.7132   24.2489 O   0  0  0  0  0  0  0  0  0  0  0  0
  -24.1595  -31.4872   23.1484 O   0  0  0  0  0  0  0  0  0  0  0  0
  -28.5954  -31.3735   22.6336 O   0  0  0  0  0  0  0  0  0  0  0  0
  -28.2558  -27.3418   20.1536 O   0  0  0  0  0  0  0  0  0  0  0  0
  -27.6155  -17.1457   16.3813 O   0  0  0  0  0  0  0  0  0  0  0  0
  -21.8550   -6.7825   21.2177 O   0  0  0  0  0  0  0  0  0  0  0  0
  -21.9985  -26.0377   22.5137 O   0  0  0  0  0  0  0  0  0  1  0  0
  -21.6031   -3.8950   25.9084 F   0  0  0  0  0  0  0  0  0  0  0  0
  -20.6679   -7.8466   23.4762 F   0  0  0  0  0  0  0  0  0  0  0  0
  1  2  1  0  0  0  0
  1  5  2  0  0  0  0
  2  6  2  0  0  0  0
  3  8  2  0  0  0  0
  3 15  1  0  0  0  0
  4  9  1  0  0  0  0
  4 15  2  0  0  0  0
  5 17  1  0  0  0  0
  6 19  1  0  0  0  0
  7 10  2  0  0  0  0
  7 18  1  0  0  0  0
  8 21  1  0  0  0  0
  9 21  2  0  0  0  0
 10 22  1  0  0  0  0
 11 12  2  0  0  0  0
 11 23  1  0  0  0  0
 12 24  1  0  0  0  0
 13 20  1  0  0  0  0
 13 22  2  0  0  0  0
 14 24  2  0  0  0  0
 14 25  1  0  0  0  0
 15 26  1  0  0  0  0
 16 26  1  0  0  0  0
 16 27  2  0  0  0  0
 16 28  1  0  0  0  0
 17 19  2  0  0  0  0
 17 33  1  0  0  0  0
 18 20  2  0  0  0  0
 18 34  1  0  0  0  0
 19 48  1  0  0  0  0
 20 35  1  0  0  0  0
 21 85  1  0  0  0  0
 22 86  1  0  0  0  0
 23 25  2  0  0  0  0
 23 85  1  0  0  0  0
 24 87  1  0  0  0  0
 25 88  1  0  0  0  0
 26 68  2  0  0  0  0
 27 69  1  0  0  0  0
 27 73  1  0  0  0  0
 28 74  1  0  0  0  0
 28 80  2  0  0  0  0
 29 49  1  0  0  0  0
 29 75  1  0  0  0  0
 29 81  2  0  0  0  0
 30 65  1  0  0  0  0
 30 70  1  0  0  0  0
 30 82  2  0  0  0  0
 31 66  1  0  0  0  0
 31 76  1  0  0  0  0
 31 83  2  0  0  0  0
 32 71  1  0  0  0  0
 32 72  1  0  0  0  0
 32 84  2  0  0  0  0
 33 36  1  0  0  0  0
 34 49  1  0  0  0  0
 35 70  1  0  0  0  0
 36 38  1  0  0  0  0
 37 39  1  0  0  0  0
 37 41  1  0  0  0  0
 38 48  1  0  0  0  0
 39 51  1  0  0  0  0
 40 45  1  0  0  0  0
 40 52  1  0  0  0  0
 41 71  1  0  0  0  0
 42 46  1  0  0  0  0
 42 72  1  0  0  0  0
 43 51  1  0  0  0  0
 43 71  1  0  0  0  0
 44 53  1  0  0  0  0
 44 72  1  0  0  0  0
 45 77  1  0  0  0  0
 46 78  1  0  0  0  0
 47 50  1  0  0  0  0
 47 77  1  0  0  0  0
 48 75  1  0  0  0  0
 49 70  1  0  0  0  0
 50 52  1  0  0  0  0
 50 54  1  0  0  0  0
 51 69  1  0  0  0  0
 52 78  1  0  0  0  0
 53 61  1  0  0  0  0
 53 78  1  0  0  0  0
 55 61  1  0  0  0  0
 56 66  1  0  0  0  0
 57 67  1  0  0  0  0
 58 67  1  0  0  0  0
 59 67  1  0  0  0  0
 60 79  1  0  0  0  0
 62 63  1  0  0  0  0
 62 64  1  0  0  0  0
 63 77  1  0  0  0  0
 64 86  1  0  0  0  0
 65 67  1  0  0  0  0
 65 76  1  0  0  0  0
 66 79  1  0  0  0  0
 68 69  1  0  0  0  0
M  CHG  3  77   1  78   1  79   1
M  ISO  4  32 100  64 101  72 100  86 101
M  END
> <Batch ID>
0159

> <Smiles>
CCC1C[100N:0]([100C:0](=O)N2CCCC(n3nc(-c4ccc(Oc5ccc(F)cc5F)cc4)c(C(N)=O)c3N)C2)CCN1C1CCN(CC[101CH2:1][101O:1]c2ccc3c(c2)CN(C(=O)C(NC(=O)C(C)NC)C(C)(C)C)C(C(=O)NC2CCCc4ccccc42)C3)CC1C

> <Shape>
0.278

> <Color>
0.107

> <Negative vol penalty>
0.000

$$$$

  -OEChem-04052322073D

 87 96  0     1  0  0  0  0  0999 V2000
  -22.5914   -8.2673   20.6296 C   0  0  0  0  0  0  0  0  0  0  0  0
  -21.7671   -9.3875   20.6654 C   0  0  0  0  0  0  0  0  0  0  0  0
  -29.5395  -26.6841   18.4128 C   0  0  0  0  0  0  0  0  0  0  0  0
  -28.9172  -25.3995   20.3620 C   0  0  0  0  0  0  0  0  0  0  0  0
  -23.8763   -8.3313   21.1669 C   0  0  0  0  0  0  0  0  0  0  0  0
  -22.2269  -10.5720   21.2398 C   0  0  0  0  0  0  0  0  0  0  0  0
  -20.9077  -16.2812   19.4591 C   0  0  0  0  0  0  0  0  0  0  0  0
  -18.8306  -27.2066   21.7746 C   0  0  0  0  0  0  0  0  0  0  0  0
  -18.3544  -25.9226   22.0394 C   0  0  0  0  0  0  0  0  0  0  0  0
  -30.8269  -26.1507   18.4722 C   0  0  0  0  0  0  0  0  0  0  0  0
  -30.2047  -24.8660   20.4214 C   0  0  0  0  0  0  0  0  0  0  0  0
  -19.9890  -17.2205   19.9254 C   0  0  0  0  0  0  0  0  0  0  0  0
  -33.2233  -22.8904   20.8720 C   0  0  0  0  0  0  0  0  0  0  0  0
  -33.3481  -21.5185   21.0907 C   0  0  0  0  0  0  0  0  0  0  0  0
  -21.7164  -18.2335   21.2705 C   0  0  0  0  0  0  0  0  0  0  0  0
  -32.1028  -21.0825   19.0668 C   0  0  0  0  0  0  0  0  0  0  0  0
  -28.5846  -26.3086   19.3577 C   0  0  0  0  0  0  0  0  0  0  0  0
  -26.1489  -26.3372   18.6001 C   0  0  0  0  0  0  0  0  0  0  0  0
  -24.3556   -9.5201   21.7395 C   0  0  0  0  0  0  0  0  0  0  0  0
  -22.2373  -16.3043   19.9041 C   0  0  0  0  0  0  0  0  0  0  0  0
  -23.5190  -10.6516   21.7865 C   0  0  0  0  0  0  0  0  0  0  0  0
  -22.6507  -17.2949   20.8063 C   0  0  0  0  0  0  0  0  0  0  0  0
  -19.5470  -27.8998   22.7503 C   0  0  0  0  0  0  0  0  0  0  0  0
  -18.5945  -25.3318   23.2800 C   0  0  0  0  0  0  0  0  0  0  0  0
  -19.7871  -27.3090   23.9908 C   0  0  0  0  0  0  0  0  0  0  0  0
  -19.3109  -26.0250   24.2557 C   0  0  0  0  0  0  0  0  0  0  0  0
  -31.1595  -25.2416   19.4765 C   0  0  0  0  0  0  0  0  0  0  0  0
  -20.3926  -18.1951   20.8334 C   0  0  0  0  0  0  0  0  0  0  0  0
  -32.5381  -23.3584   19.7507 C   0  0  0  0  0  0  0  0  0  0  0  0
  -32.7879  -20.6145   20.1881 C   0  0  0  0  0  0  0  0  0  0  0  0
  -31.9779  -22.4544   18.8481 C   0  0  0  0  0  0  0  0  0  0  0  0
  -27.2547  -26.8597   19.2972 C   0  0  0  0  0  0  0  0  0  0  0  0
  -25.1306  -27.2218   18.8590 C   0  0  0  0  0  0  0  0  0  0  0  0
  -26.0509  -25.1577   17.7909 C   0  0  0  0  0  0  0  0  0  0  0  0
  -24.1017  -14.2896   21.5068 C   0  0  0  0  0  0  0  0  0  0  0  0
  -26.3898  -16.4909   20.8424 C   0  0  0  0  0  0  0  0  0  0  0  0
  -27.1623  -19.7244   20.0713 C   0  0  0  0  0  0  0  0  0  0  0  0
  -22.2472  -30.4198   22.4092 C   0  0  0  0  0  0  0  0  0  0  0  0
  -25.7347   -9.5272   22.3501 C   0  0  0  0  0  0  0  0  0  0  0  0
  -23.2225  -15.3005   19.3711 C   0  0  0  0  0  0  0  0  0  0  0  0
  -24.0715  -17.3754   21.2995 C   0  0  0  0  0  0  0  0  0  0  0  0
  -26.2810  -10.9298   22.6042 C   0  0  0  0  0  0  0  0  0  0  0  0
  -25.2138  -31.8009   21.0064 C   0  0  0  0  0  0  0  0  0  0  0  0
  -25.2241  -11.8009   23.2756 C   0  0  0  0  0  0  0  0  0  0  0  0
  -25.9205  -30.5949   20.3850 C   0  0  0  0  0  0  0  0  0  0  0  0
  -17.8177  -21.5732   22.4439 C   0  0  0  0  0  0  0  0  0  0  0  0
  -24.5061  -31.4314   22.3081 C   0  0  0  0  0  0  0  0  0  0  0  0
  -24.2812  -29.0866   21.5836 C   0  0  0  0  0  0  0  0  0  0  0  0
  -23.9908  -11.9619   22.3787 C   0  0  1  0  0  0  0  0  0  0  0  0
  -24.4274  -15.1022   20.2856 C   0  0  1  0  0  0  0  0  0  0  0  0
  -24.9625  -29.3972   20.2399 C   0  0  2  0  0  0  0  0  0  0  0  0
  -18.9302  -21.4338   21.3883 C   0  0  2  0  0  0  0  0  0  0  0  0
  -18.0162  -23.0916   22.2797 C   0  0  1  0  0  0  0  0  0  0  0  0
  -20.5576  -28.0575   25.0333 C   0  0  0  0  0  0  0  0  0  0  0  0
  -16.6868  -23.9835   24.2271 C   0  0  0  0  0  0  0  0  0  0  0  0
  -28.5849  -21.6876   19.4235 C   0  0  0  0  0  0  0  0  0  0  0  0
  -27.0068  -16.5674   23.8296 C   0  0  0  0  0  0  0  0  0  0  0  0
  -28.2493  -18.7071   23.4473 C   0  0  0  0  0  0  0  0  0  0  0  0
  -29.0206  -16.6054   22.3471 C   0  0  0  0  0  0  0  0  0  0  0  0
  -26.7977  -19.1838   17.1845 C   0  0  0  0  0  0  0  0  0  0  0  0
  -20.0465  -29.2730   22.4395 C   0  0  0  0  0  0  0  0  0  0  0  0
  -20.0080  -20.3979   21.6429 C   0  0  0  0  0  0  0  0  0  1  0  0
  -18.0605  -23.9285   23.5398 C   0  0  2  0  0  0  0  0  0  0  0  0
  -26.9107  -17.7315   21.5271 C   0  0  1  0  0  0  0  0  0  0  0  0
  -28.0714  -20.3172   19.0098 C   0  0  2  0  0  0  0  0  0  0  0  0
  -27.7695  -17.4004   22.7802 C   0  0  0  0  0  0  0  0  0  0  0  0
  -26.9662  -27.9888   19.9498 N   0  0  0  0  0  0  0  0  0  0  0  0
  -25.6675  -28.1831   19.6639 N   0  0  0  0  0  0  0  0  0  0  0  0
  -24.9959  -16.3677   20.7539 N   0  0  0  0  0  0  0  0  0  0  0  0
  -23.6116  -30.2899   22.1017 N   0  0  0  0  0  0  0  0  0  0  0  0
  -19.5532  -25.4242   25.5130 N   0  0  0  0  0  0  0  0  0  0  0  0
  -23.8372  -27.2634   18.4744 N   0  0  0  0  0  0  0  0  0  0  0  0
  -27.1929  -24.3613   17.6296 N   0  0  0  0  0  0  0  0  0  0  0  0
  -24.2497  -12.9269   21.3317 N   0  0  0  0  0  0  0  0  0  0  0  0
  -27.6160  -18.4964   20.5044 N   0  0  0  0  0  0  0  0  0  0  0  0
  -21.4684  -29.2924   22.1781 N   0  0  0  0  0  0  0  0  0  0  0  0
  -19.3645  -22.8038   21.7415 N   0  3  0  0  0  0  0  0  0  0  0  0
  -27.3378  -20.4597   17.7204 N   0  3  0  0  0  0  0  0  0  0  0  0
  -24.9866  -24.8288   17.2141 O   0  0  0  0  0  0  0  0  0  0  0  0
  -23.7442  -14.8570   22.5324 O   0  0  0  0  0  0  0  0  0  0  0  0
  -27.1901  -15.6652   20.3961 O   0  0  0  0  0  0  0  0  0  0  0  0
  -26.1530  -20.2954   20.4784 O   0  0  0  0  0  0  0  0  0  0  0  0
  -21.7582  -31.4648   22.8516 O   0  0  0  0  0  0  0  0  0  0  0  0
  -32.4156  -24.7207   19.5346 O   0  0  0  0  0  0  0  0  0  0  0  0
  -19.4977  -19.1127   21.2906 O   0  0  0  0  0  0  0  0  0  1  0  0
  -32.9092  -19.2971   20.3974 F   0  0  0  0  0  0  0  0  0  0  0  0
  -31.3195  -22.8980   17.7685 F   0  0  0  0  0  0  0  0  0  0  0  0
  1  2  1  0  0  0  0
  1  5  2  0  0  0  0
  2  6  2  0  0  0  0
  3 10  2  0  0  0  0
  3 17  1  0  0  0  0
  4 11  1  0  0  0  0
  4 17  2  0  0  0  0
  5 19  1  0  0  0  0
  6 21  1  0  0  0  0
  7 12  2  0  0  0  0
  7 20  1  0  0  0  0
  8  9  2  0  0  0  0
  8 23  1  0  0  0  0
  9 24  1  0  0  0  0
 10 27  1  0  0  0  0
 11 27  2  0  0  0  0
 12 28  1  0  0  0  0
 13 14  2  0  0  0  0
 13 29  1  0  0  0  0
 14 30  1  0  0  0  0
 15 22  1  0  0  0  0
 15 28  2  0  0  0  0
 16 30  2  0  0  0  0
 16 31  1  0  0  0  0
 17 32  1  0  0  0  0
 18 32  1  0  0  0  0
 18 33  2  0  0  0  0
 18 34  1  0  0  0  0
 19 21  2  0  0  0  0
 19 39  1  0  0  0  0
 20 22  2  0  0  0  0
 20 40  1  0  0  0  0
 21 49  1  0  0  0  0
 22 41  1  0  0  0  0
 23 25  2  0  0  0  0
 23 61  1  0  0  0  0
 24 26  2  0  0  0  0
 24 63  1  0  0  0  0
 25 26  1  0  0  0  0
 25 54  1  0  0  0  0
 26 71  1  0  0  0  0
 27 84  1  0  0  0  0
 28 85  1  0  0  0  0
 29 31  2  0  0  0  0
 29 84  1  0  0  0  0
 30 86  1  0  0  0  0
 31 87  1  0  0  0  0
 32 67  2  0  0  0  0
 33 68  1  0  0  0  0
 33 72  1  0  0  0  0
 34 73  1  0  0  0  0
 34 79  2  0  0  0  0
 35 50  1  0  0  0  0
 35 74  1  0  0  0  0
 35 80  2  0  0  0  0
 36 64  1  0  0  0  0
 36 69  1  0  0  0  0
 36 81  2  0  0  0  0
 37 65  1  0  0  0  0
 37 75  1  0  0  0  0
 37 82  2  0  0  0  0
 38 70  1  0  0  0  0
 38 76  1  0  0  0  0
 38 83  2  0  0  0  0
 39 42  1  0  0  0  0
 40 50  1  0  0  0  0
 41 69  1  0  0  0  0
 42 44  1  0  0  0  0
 43 45  1  0  0  0  0
 43 47  1  0  0  0  0
 44 49  1  0  0  0  0
 45 51  1  0  0  0  0
 46 52  1  0  0  0  0
 46 53  1  0  0  0  0
 47 70  1  0  0  0  0
 48 51  1  0  0  0  0
 48 70  1  0  0  0  0
 49 74  1  0  0  0  0
 50 69  1  0  0  0  0
 51 68  1  0  0  0  0
 52 62  1  0  0  0  0
 52 77  1  0  0  0  0
 53 63  1  0  0  0  0
 53 77  1  0  0  0  0
 55 63  1  0  0  0  0
 56 65  1  0  0  0  0
 57 66  1  0  0  0  0
 58 66  1  0  0  0  0
 59 66  1  0  0  0  0
 60 78  1  0  0  0  0
 61 76  1  0  0  0  0
 62 85  1  0  0  0  0
 64 66  1  0  0  0  0
 64 75  1  0  0  0  0
 65 78  1  0  0  0  0
 67 68  1  0  0  0  0
M  CHG  2  77   1  78   1
M  ISO  4  38 100  62 101  76 100  85 101
M  END
> <Batch ID>
0159

> <Smiles>
CNC(C)C(=O)NC(C(=O)N1Cc2cc([101O:1][101CH2:1]C3CC(C(C)c4ccc(C[100NH:0][100C:0](=O)N5CCCC(n6nc(-c7ccc(Oc8ccc(F)cc8F)cc7)c(C(N)=O)c6N)C5)c(C)c4N)N3)ccc2CC1C(=O)NC1CCCc2ccccc21)C(C)(C)C

> <Shape>
0.235

> <Color>
0.059

> <Negative vol penalty>
0.000

$$$$

  -OEChem-04052322073D

 88 98  0     1  0  0  0  0  0999 V2000
  -29.6852  -34.3960   26.6085 C   0  0  0  0  0  0  0  0  0  0  0  0
  -29.3148  -33.1807   26.0417 C   0  0  0  0  0  0  0  0  0  0  0  0
  -26.5602   -8.3713   22.3564 C   0  0  0  0  0  0  0  0  0  0  0  0
  -24.9137   -7.9581   20.6373 C   0  0  0  0  0  0  0  0  0  0  0  0
  -28.7255  -35.3840   26.8253 C   0  0  0  0  0  0  0  0  0  0  0  0
  -27.9844  -32.9522   25.6923 C   0  0  0  0  0  0  0  0  0  0  0  0
  -27.5144  -30.8196   21.1233 C   0  0  0  0  0  0  0  0  0  0  0  0
  -26.0337   -7.3241   23.1124 C   0  0  0  0  0  0  0  0  0  0  0  0
  -24.3872   -6.9108   21.3933 C   0  0  0  0  0  0  0  0  0  0  0  0
  -27.7662  -29.4515   21.0302 C   0  0  0  0  0  0  0  0  0  0  0  0
  -22.3463   -6.5467   24.0641 C   0  0  0  0  0  0  0  0  0  0  0  0
  -20.9589   -6.4690   24.1859 C   0  0  0  0  0  0  0  0  0  0  0  0
  -28.7082  -24.7495   19.4827 C   0  0  0  0  0  0  0  0  0  0  0  0
  -25.3934  -29.0184   21.0682 C   0  0  0  0  0  0  0  0  0  0  0  0
  -28.1364  -24.5068   21.8175 C   0  0  0  0  0  0  0  0  0  0  0  0
  -20.9909   -4.2841   23.1551 C   0  0  0  0  0  0  0  0  0  0  0  0
  -26.0002   -8.6884   21.1188 C   0  0  0  0  0  0  0  0  0  0  0  0
  -27.5675   -9.6934   19.3749 C   0  0  0  0  0  0  0  0  0  0  0  0
  -27.3844  -35.1712   26.4695 C   0  0  0  0  0  0  0  0  0  0  0  0
  -26.1983  -31.2975   21.2006 C   0  0  0  0  0  0  0  0  0  0  0  0
  -27.0057  -33.9378   25.9058 C   0  0  0  0  0  0  0  0  0  0  0  0
  -28.7763  -23.3622   19.3552 C   0  0  0  0  0  0  0  0  0  0  0  0
  -25.1275  -30.3931   21.1595 C   0  0  0  0  0  0  0  0  0  0  0  0
  -28.3883  -25.3218   20.7139 C   0  0  0  0  0  0  0  0  0  0  0  0
  -28.2044  -23.1194   21.6899 C   0  0  0  0  0  0  0  0  0  0  0  0
  -24.9472   -6.5938   22.6309 C   0  0  0  0  0  0  0  0  0  0  0  0
  -26.7058  -28.5505   21.0056 C   0  0  0  0  0  0  0  0  0  0  0  0
  -23.0560   -5.4932   23.4878 C   0  0  0  0  0  0  0  0  0  0  0  0
  -28.5244  -22.5471   20.4587 C   0  0  0  0  0  0  0  0  0  0  0  0
  -20.2813   -5.3377   23.7314 C   0  0  0  0  0  0  0  0  0  0  0  0
  -22.3783   -4.3619   23.0333 C   0  0  0  0  0  0  0  0  0  0  0  0
  -26.5433   -9.7705   20.3376 C   0  0  0  0  0  0  0  0  0  0  0  0
  -27.7130  -10.9827   18.9244 C   0  0  0  0  0  0  0  0  0  0  0  0
  -28.3200   -8.5578   18.9277 C   0  0  0  0  0  0  0  0  0  0  0  0
  -24.5285  -32.9327   23.3550 C   0  0  0  0  0  0  0  0  0  0  0  0
  -22.2638  -32.9253   21.0326 C   0  0  0  0  0  0  0  0  0  0  0  0
  -20.9844  -31.4415   18.2383 C   0  0  0  0  0  0  0  0  0  0  0  0
  -28.1485  -16.2824   19.6571 C   0  0  0  0  0  0  0  0  0  0  0  0
  -26.3744  -36.2511   26.7665 C   0  0  0  0  0  0  0  0  0  0  0  0
  -25.9426  -32.7779   21.2736 C   0  0  0  0  0  0  0  0  0  0  0  0
  -23.6956  -30.8563   21.2193 C   0  0  0  0  0  0  0  0  0  0  0  0
  -25.0533  -36.0707   26.0232 C   0  0  0  0  0  0  0  0  0  0  0  0
  -24.8506  -15.0801   19.6551 C   0  0  0  0  0  0  0  0  0  0  0  0
  -30.2850  -21.8181   17.9362 C   0  0  0  0  0  0  0  0  0  0  0  0
  -30.3944  -23.1898   17.3476 C   0  0  0  0  0  0  0  0  0  0  0  0
  -24.5726  -34.6270   26.1316 C   0  0  0  0  0  0  0  0  0  0  0  0
  -25.0774  -13.5719   19.7561 C   0  0  0  0  0  0  0  0  0  0  0  0
  -27.5684  -19.7981   18.6320 C   0  0  0  0  0  0  0  0  0  0  0  0
  -26.9706  -19.5434   21.0789 C   0  0  0  0  0  0  0  0  0  0  0  0
  -25.8134  -15.8653   20.5474 C   0  0  0  0  0  0  0  0  0  0  0  0
  -28.4480  -18.5536   18.7428 C   0  0  0  0  0  0  0  0  0  0  0  0
  -27.8662  -18.3079   21.1346 C   0  0  0  0  0  0  0  0  0  0  0  0
  -27.4662  -14.0295   20.4284 C   0  0  0  0  0  0  0  0  0  0  0  0
  -29.1205  -22.7676   18.0299 C   0  0  0  0  0  0  0  0  0  0  0  0
  -25.5769  -33.6616   25.4905 C   0  0  1  0  0  0  0  0  0  0  0  0
  -24.5787  -33.1203   21.8651 C   0  0  1  0  0  0  0  0  0  0  0  0
  -26.5525  -13.2164   19.4982 C   0  0  1  0  0  0  0  0  0  0  0  0
  -27.3866  -20.5130   19.9713 C   0  0  0  0  0  0  0  0  0  0  0  0
  -27.9321  -22.2636   22.8831 C   0  0  0  0  0  0  0  0  0  0  0  0
  -19.1058  -31.6412   16.5866 C   0  0  0  0  0  0  0  0  0  0  0  0
  -20.3319  -31.7732   23.0942 C   0  0  0  0  0  0  0  0  0  0  0  0
  -18.8200  -31.1187   21.2090 C   0  0  0  0  0  0  0  0  0  0  0  0
  -19.3465  -33.5246   21.6056 C   0  0  0  0  0  0  0  0  0  0  0  0
  -22.8572  -31.8251   15.9790 C   0  0  0  0  0  0  0  0  0  0  0  0
  -28.3138  -26.8052   20.8498 C   0  0  0  0  0  0  0  0  0  1  0  0
  -21.1284  -32.0071   20.6495 C   0  0  1  0  0  0  0  0  0  0  0  0
  -20.5449  -32.0165   16.9039 C   0  0  2  0  0  0  0  0  0  0  0  0
  -19.9336  -32.0967   21.6404 C   0  0  0  0  0  0  0  0  0  0  0  0
  -26.0716  -11.0107   20.4906 N   0  0  0  0  0  0  0  0  0  0  0  0
  -26.8028  -11.7248   19.6179 N   0  0  0  0  0  0  0  0  0  0  0  0
  -23.4973  -32.3131   21.2964 N   0  0  0  0  0  0  0  0  0  0  0  0
  -27.2033  -15.4637   20.2932 N   0  0  0  0  0  0  0  0  0  0  0  0
  -27.9973  -17.6701   19.8176 N   0  0  0  0  0  0  0  0  0  0  0  0
  -28.5296  -11.5427   18.0068 N   0  0  0  0  0  0  0  0  0  0  0  0
  -28.0424   -7.3068   19.4954 N   0  0  0  0  0  0  0  0  0  0  0  0
  -25.4541  -33.6885   24.0488 N   0  0  0  0  0  0  0  0  0  0  0  0
  -20.7862  -32.3349   19.2697 N   0  0  0  0  0  0  0  0  0  0  0  0
  -21.4163  -31.5065   15.8078 N   0  3  0  0  0  0  0  0  0  0  0  0
  -29.2233   -8.6526   18.0626 O   0  0  0  0  0  0  0  0  0  0  0  0
  -23.7095  -32.1605   23.8395 O   0  0  0  0  0  0  0  0  0  0  0  0
  -22.0655  -34.1415   21.0886 O   0  0  0  0  0  0  0  0  0  0  0  0
  -21.4529  -30.3112   18.3547 O   0  0  0  0  0  0  0  0  0  0  0  0
  -29.0702  -15.8054   18.9832 O   0  0  0  0  0  0  0  0  0  0  0  0
  -24.4334   -5.5716   23.3683 O   0  0  0  0  0  0  0  0  0  0  0  0
  -28.5908  -21.1843   20.3352 O   0  0  0  0  0  0  0  0  0  0  0  0
  -26.9505  -27.2053   20.9148 O   0  0  0  0  0  0  0  0  0  1  0  0
  -18.9492   -5.2625   23.8498 F   0  0  0  0  0  0  0  0  0  0  0  0
  -23.0548   -3.3461   22.4798 F   0  0  0  0  0  0  0  0  0  0  0  0
  1  2  1  0  0  0  0
  1  5  2  0  0  0  0
  2  6  2  0  0  0  0
  3  8  2  0  0  0  0
  3 17  1  0  0  0  0
  4  9  1  0  0  0  0
  4 17  2  0  0  0  0
  5 19  1  0  0  0  0
  6 21  1  0  0  0  0
  7 10  2  0  0  0  0
  7 20  1  0  0  0  0
  8 26  1  0  0  0  0
  9 26  2  0  0  0  0
 10 27  1  0  0  0  0
 11 12  2  0  0  0  0
 11 28  1  0  0  0  0
 12 30  1  0  0  0  0
 13 22  1  0  0  0  0
 13 24  2  0  0  0  0
 14 23  1  0  0  0  0
 14 27  2  0  0  0  0
 15 24  1  0  0  0  0
 15 25  2  0  0  0  0
 16 30  2  0  0  0  0
 16 31  1  0  0  0  0
 17 32  1  0  0  0  0
 18 32  1  0  0  0  0
 18 33  2  0  0  0  0
 18 34  1  0  0  0  0
 19 21  2  0  0  0  0
 19 39  1  0  0  0  0
 20 23  2  0  0  0  0
 20 40  1  0  0  0  0
 21 55  1  0  0  0  0
 22 29  2  0  0  0  0
 22 54  1  0  0  0  0
 23 41  1  0  0  0  0
 24 65  1  0  0  0  0
 25 29  1  0  0  0  0
 25 59  1  0  0  0  0
 26 84  1  0  0  0  0
 27 86  1  0  0  0  0
 28 31  2  0  0  0  0
 28 84  1  0  0  0  0
 29 85  1  0  0  0  0
 30 87  1  0  0  0  0
 31 88  1  0  0  0  0
 32 69  2  0  0  0  0
 33 70  1  0  0  0  0
 33 74  1  0  0  0  0
 34 75  1  0  0  0  0
 34 79  2  0  0  0  0
 35 56  1  0  0  0  0
 35 76  1  0  0  0  0
 35 80  2  0  0  0  0
 36 66  1  0  0  0  0
 36 71  1  0  0  0  0
 36 81  2  0  0  0  0
 37 67  1  0  0  0  0
 37 77  1  0  0  0  0
 37 82  2  0  0  0  0
 38 72  1  0  0  0  0
 38 73  1  0  0  0  0
 38 83  2  0  0  0  0
 39 42  1  0  0  0  0
 40 56  1  0  0  0  0
 41 71  1  0  0  0  0
 42 46  1  0  0  0  0
 43 47  1  0  0  0  0
 43 50  1  0  0  0  0
 44 45  1  0  0  0  0
 44 54  1  0  0  0  0
 45 54  1  0  0  0  0
 46 55  1  0  0  0  0
 47 57  1  0  0  0  0
 48 51  1  0  0  0  0
 48 58  1  0  0  0  0
 49 52  1  0  0  0  0
 49 58  1  0  0  0  0
 50 72  1  0  0  0  0
 51 73  1  0  0  0  0
 52 73  1  0  0  0  0
 53 57  1  0  0  0  0
 53 72  1  0  0  0  0
 55 76  1  0  0  0  0
 56 71  1  0  0  0  0
 57 70  1  0  0  0  0
 58 85  1  0  0  0  0
 60 67  1  0  0  0  0
 61 68  1  0  0  0  0
 62 68  1  0  0  0  0
 63 68  1  0  0  0  0
 64 78  1  0  0  0  0
 65 86  1  0  0  0  0
 66 68  1  0  0  0  0
 66 77  1  0  0  0  0
 67 78  1  0  0  0  0
 69 70  1  0  0  0  0
M  CHG  1  78   1
M  ISO  4  38 100  65 101  73 100  86 101
M  END
> <Batch ID>
0159

> <Smiles>
CNC(C)C(=O)NC(C(=O)N1Cc2cc([101O:1][101CH2:1]c3cc(C)c(OC4CC[100N:0]([100C:0](=O)N5CCCC(n6nc(-c7ccc(Oc8ccc(F)cc8F)cc7)c(C(N)=O)c6N)C5)CC4)c(C4CC4)c3)ccc2CC1C(=O)NC1CCCc2ccccc21)C(C)(C)C

> <Shape>
0.251

> <Color>
0.077

> <Negative vol penalty>
0.000

$$$$
