
  -OEChem-04052322093D

 84 93  0     1  0  0  0  0  0999 V2000
  -21.7097  -28.2501   14.3608 C   0  0  0  0  0  0  0  0  0  0  0  0
  -22.7317  -27.4816   14.9088 C   0  0  0  0  0  0  0  0  0  0  0  0
  -23.0686   -9.8689   19.9474 C   0  0  0  0  0  0  0  0  0  0  0  0
  -23.8253   -9.8825   22.2418 C   0  0  0  0  0  0  0  0  0  0  0  0
  -22.0174  -29.3836   13.6096 C   0  0  0  0  0  0  0  0  0  0  0  0
  -24.0623  -27.8456   14.7048 C   0  0  0  0  0  0  0  0  0  0  0  0
  -26.8232  -27.5689   18.9410 C   0  0  0  0  0  0  0  0  0  0  0  0
  -22.3195   -8.7200   20.2013 C   0  0  0  0  0  0  0  0  0  0  0  0
  -23.0762   -8.7336   22.4957 C   0  0  0  0  0  0  0  0  0  0  0  0
  -27.2397  -26.3022   19.3480 C   0  0  0  0  0  0  0  0  0  0  0  0
  -19.8438   -7.9520   23.0971 C   0  0  0  0  0  0  0  0  0  0  0  0
  -19.0851   -7.9204   24.2670 C   0  0  0  0  0  0  0  0  0  0  0  0
  -29.4169  -26.7189   18.3966 C   0  0  0  0  0  0  0  0  0  0  0  0
  -29.4664  -20.3367   19.9496 C   0  0  0  0  0  0  0  0  0  0  0  0
  -29.0104  -22.3155   21.8626 C   0  0  0  0  0  0  0  0  0  0  0  0
  -20.3172   -5.9809   25.0136 C   0  0  0  0  0  0  0  0  0  0  0  0
  -23.8216  -10.4501   20.9677 C   0  0  0  0  0  0  0  0  0  0  0  0
  -24.1743  -12.9733   20.8373 C   0  0  0  0  0  0  0  0  0  0  0  0
  -23.3521  -29.7671   13.4044 C   0  0  0  0  0  0  0  0  0  0  0  0
  -27.6986  -28.4174   18.2480 C   0  0  0  0  0  0  0  0  0  0  0  0
  -24.3882  -28.9845   13.9490 C   0  0  0  0  0  0  0  0  0  0  0  0
  -29.0100  -27.9969   17.9842 C   0  0  0  0  0  0  0  0  0  0  0  0
  -28.8661  -21.5400   19.5789 C   0  0  0  0  0  0  0  0  0  0  0  0
  -28.6381  -22.5294   20.5354 C   0  0  0  0  0  0  0  0  0  0  0  0
  -29.8386  -20.1228   21.2768 C   0  0  0  0  0  0  0  0  0  0  0  0
  -22.3233   -8.1523   21.4754 C   0  0  0  0  0  0  0  0  0  0  0  0
  -28.5358  -25.8759   19.0733 C   0  0  0  0  0  0  0  0  0  0  0  0
  -20.8392   -6.9981   22.8853 C   0  0  0  0  0  0  0  0  0  0  0  0
  -19.3218   -6.9348   25.2253 C   0  0  0  0  0  0  0  0  0  0  0  0
  -21.0760   -6.0125   23.8435 C   0  0  0  0  0  0  0  0  0  0  0  0
  -29.6106  -21.1122   22.2333 C   0  0  0  0  0  0  0  0  0  0  0  0
  -24.5961  -11.6366   20.7060 C   0  0  0  0  0  0  0  0  0  0  0  0
  -25.2701  -13.7165   20.4724 C   0  0  0  0  0  0  0  0  0  0  0  0
  -22.9054  -13.4962   21.2522 C   0  0  0  0  0  0  0  0  0  0  0  0
  -27.7145  -29.7519   15.3631 C   0  0  0  0  0  0  0  0  0  0  0  0
  -30.3530  -31.2568   16.5016 C   0  0  0  0  0  0  0  0  0  0  0  0
  -32.9561  -31.2682   18.7085 C   0  0  0  0  0  0  0  0  0  0  0  0
  -30.7507  -14.7234   20.6466 C   0  0  0  0  0  0  0  0  0  0  0  0
  -23.6369  -30.9737   12.5456 C   0  0  0  0  0  0  0  0  0  0  0  0
  -27.2424  -29.7912   17.8393 C   0  0  0  0  0  0  0  0  0  0  0  0
  -29.9948  -28.8776   17.2611 C   0  0  0  0  0  0  0  0  0  0  0  0
  -25.0618  -31.5019   12.6905 C   0  0  0  0  0  0  0  0  0  0  0  0
  -29.6157  -12.3227   18.2887 C   0  0  0  0  0  0  0  0  0  0  0  0
  -26.0655  -30.3551   12.6247 C   0  0  0  0  0  0  0  0  0  0  0  0
  -28.1754  -12.0380   18.7179 C   0  0  0  0  0  0  0  0  0  0  0  0
  -30.5295  -12.5454   19.4918 C   0  0  0  0  0  0  0  0  0  0  0  0
  -28.6283  -13.2904   20.8690 C   0  0  0  0  0  0  0  0  0  0  0  0
  -29.9502  -17.9579   22.5543 C   0  0  0  0  0  0  0  0  0  0  0  0
  -30.9764  -17.9490   20.7195 C   0  0  0  0  0  0  0  0  0  0  0  0
  -25.8431  -29.3608   13.7707 C   0  0  1  0  0  0  0  0  0  0  0  0
  -28.0564  -30.3732   16.6878 C   0  0  1  0  0  0  0  0  0  0  0  0
  -27.6560  -13.1149   19.6898 C   0  0  2  0  0  0  0  0  0  0  0  0
  -30.8432  -16.9237   21.8544 C   0  0  0  0  0  0  0  0  0  0  0  0
  -28.4748  -21.7466   18.1526 C   0  0  0  0  0  0  0  0  0  0  0  0
  -34.9686  -32.6115   19.3740 C   0  0  0  0  0  0  0  0  0  0  0  0
  -31.8402  -30.2451   14.0369 C   0  0  0  0  0  0  0  0  0  0  0  0
  -33.9911  -30.7814   15.2006 C   0  0  0  0  0  0  0  0  0  0  0  0
  -32.3691  -32.6035   14.6795 C   0  0  0  0  0  0  0  0  0  0  0  0
  -31.9173  -31.6831   21.4485 C   0  0  0  0  0  0  0  0  0  0  0  0
  -27.9937  -23.8316   20.1610 C   0  0  0  0  0  0  0  0  0  1  0  0
  -31.8320  -30.9547   16.5193 C   0  0  1  0  0  0  0  0  0  0  0  0
  -33.4921  -32.3504   19.6283 C   0  0  2  0  0  0  0  0  0  0  0  0
  -32.4892  -31.1286   15.1210 C   0  0  0  0  0  0  0  0  0  0  0  0
  -25.8611  -11.5336   20.2899 N   0  0  0  0  0  0  0  0  0  0  0  0
  -26.2436  -12.8150   20.1566 N   0  0  0  0  0  0  0  0  0  0  0  0
  -30.4448  -18.8938   21.6219 N   0  0  0  0  0  0  0  0  0  0  0  0
  -29.4993  -30.2096   16.8764 N   0  0  0  0  0  0  0  0  0  0  0  0
  -29.9808  -13.5829   20.3688 N   0  0  0  0  0  0  0  0  0  0  0  0
  -25.4863  -15.0468   20.3940 N   0  0  0  0  0  0  0  0  0  0  0  0
  -21.8892  -12.5928   21.5919 N   0  0  0  0  0  0  0  0  0  0  0  0
  -26.3861  -29.8838   15.0061 N   0  0  0  0  0  0  0  0  0  0  0  0
  -32.4086  -31.7993   17.5598 N   0  0  0  0  0  0  0  0  0  0  0  0
  -30.1603  -15.6685   21.4792 N   0  0  0  0  0  0  0  0  0  0  0  0
  -33.3246  -31.9486   21.0536 N   0  3  0  0  0  0  0  0  0  0  0  0
  -22.6743  -14.7281   21.3039 O   0  0  0  0  0  0  0  0  0  0  0  0
  -28.5912  -29.1955   14.7124 O   0  0  0  0  0  0  0  0  0  0  0  0
  -29.9696  -32.3827   16.1744 O   0  0  0  0  0  0  0  0  0  0  0  0
  -33.0202  -30.0713   18.9801 O   0  0  0  0  0  0  0  0  0  0  0  0
  -31.8826  -14.8980   20.1824 O   0  0  0  0  0  0  0  0  0  0  0  0
  -21.5922   -7.0314   21.7236 O   0  0  0  0  0  0  0  0  0  0  0  0
  -28.9447  -24.6396   19.4689 O   0  0  0  0  0  0  0  0  0  1  0  0
  -18.5941   -6.9054   26.3495 F   0  0  0  0  0  0  0  0  0  0  0  0
  -22.0317   -5.0941   23.6462 F   0  0  0  0  0  0  0  0  0  0  0  0
  -30.0568  -20.8880   23.8871 Cl  0  0  0  0  0  0  0  0  0  0  0  0
  1  2  1  0  0  0  0
  1  5  2  0  0  0  0
  2  6  2  0  0  0  0
  3  8  2  0  0  0  0
  3 17  1  0  0  0  0
  4  9  1  0  0  0  0
  4 17  2  0  0  0  0
  5 19  1  0  0  0  0
  6 21  1  0  0  0  0
  7 10  2  0  0  0  0
  7 20  1  0  0  0  0
  8 26  1  0  0  0  0
  9 26  2  0  0  0  0
 10 27  1  0  0  0  0
 11 12  2  0  0  0  0
 11 28  1  0  0  0  0
 12 29  1  0  0  0  0
 13 22  1  0  0  0  0
 13 27  2  0  0  0  0
 14 23  1  0  0  0  0
 14 25  2  0  0  0  0
 15 24  1  0  0  0  0
 15 31  2  0  0  0  0
 16 29  2  0  0  0  0
 16 30  1  0  0  0  0
 17 32  1  0  0  0  0
 18 32  1  0  0  0  0
 18 33  2  0  0  0  0
 18 34  1  0  0  0  0
 19 21  2  0  0  0  0
 19 39  1  0  0  0  0
 20 22  2  0  0  0  0
 20 40  1  0  0  0  0
 21 50  1  0  0  0  0
 22 41  1  0  0  0  0
 23 24  2  0  0  0  0
 23 54  1  0  0  0  0
 24 60  1  0  0  0  0
 25 31  1  0  0  0  0
 25 66  1  0  0  0  0
 26 80  1  0  0  0  0
 27 81  1  0  0  0  0
 28 30  2  0  0  0  0
 28 80  1  0  0  0  0
 29 82  1  0  0  0  0
 30 83  1  0  0  0  0
 31 84  1  0  0  0  0
 32 64  2  0  0  0  0
 33 65  1  0  0  0  0
 33 69  1  0  0  0  0
 34 70  1  0  0  0  0
 34 75  2  0  0  0  0
 35 51  1  0  0  0  0
 35 71  1  0  0  0  0
 35 76  2  0  0  0  0
 36 61  1  0  0  0  0
 36 67  1  0  0  0  0
 36 77  2  0  0  0  0
 37 62  1  0  0  0  0
 37 72  1  0  0  0  0
 37 78  2  0  0  0  0
 38 68  1  0  0  0  0
 38 73  1  0  0  0  0
 38 79  2  0  0  0  0
 39 42  1  0  0  0  0
 40 51  1  0  0  0  0
 41 67  1  0  0  0  0
 42 44  1  0  0  0  0
 43 45  1  0  0  0  0
 43 46  1  0  0  0  0
 44 50  1  0  0  0  0
 45 52  1  0  0  0  0
 46 68  1  0  0  0  0
 47 52  1  0  0  0  0
 47 68  1  0  0  0  0
 48 53  1  0  0  0  0
 48 66  1  0  0  0  0
 49 53  1  0  0  0  0
 49 66  1  0  0  0  0
 50 71  1  0  0  0  0
 51 67  1  0  0  0  0
 52 65  1  0  0  0  0
 53 73  1  0  0  0  0
 55 62  1  0  0  0  0
 56 63  1  0  0  0  0
 57 63  1  0  0  0  0
 58 63  1  0  0  0  0
 59 74  1  0  0  0  0
 60 81  1  0  0  0  0
 61 63  1  0  0  0  0
 61 72  1  0  0  0  0
 62 74  1  0  0  0  0
 64 65  1  0  0  0  0
M  CHG  1  74   1
M  ISO  4  38 100  60 101  73 100  81 101
M  END
> <Batch ID>
0160

> <Smiles>
CNC(C)C(=O)NC(C(=O)N1Cc2cc([101O:1][101CH2:1]c3cc(Cl)c(N4CC([100NH:0][100C:0](=O)N5CCCC(n6nc(-c7ccc(Oc8ccc(F)cc8F)cc7)c(C(N)=O)c6N)C5)C4)cc3C)ccc2CC1C(=O)NC1CCCc2ccccc21)C(C)(C)C

> <Shape>
0.234

> <Color>
0.198

> <Negative vol penalty>
0.000

$$$$

  -OEChem-04052322093D

 85 94  0     1  0  0  0  0  0999 V2000
  -28.6570  -11.9639   19.1412 C   0  0  0  0  0  0  0  0  0  0  0  0
  -28.4497  -13.2500   18.6531 C   0  0  0  0  0  0  0  0  0  0  0  0
  -28.8432  -26.6719   19.1405 C   0  0  0  0  0  0  0  0  0  0  0  0
  -26.8045  -25.4502   19.5741 C   0  0  0  0  0  0  0  0  0  0  0  0
  -27.6788  -11.3498   19.9222 C   0  0  0  0  0  0  0  0  0  0  0  0
  -27.2635  -13.9225   18.9450 C   0  0  0  0  0  0  0  0  0  0  0  0
  -24.7349  -20.5158   20.1496 C   0  0  0  0  0  0  0  0  0  0  0  0
  -29.4307  -25.5122   18.6351 C   0  0  0  0  0  0  0  0  0  0  0  0
  -27.3920  -24.2905   19.0686 C   0  0  0  0  0  0  0  0  0  0  0  0
  -23.7322  -21.3811   19.7140 C   0  0  0  0  0  0  0  0  0  0  0  0
  -29.5638  -21.9292   20.1357 C   0  0  0  0  0  0  0  0  0  0  0  0
  -29.3915  -20.7480   20.8573 C   0  0  0  0  0  0  0  0  0  0  0  0
  -22.1469  -20.2517   21.1389 C   0  0  0  0  0  0  0  0  0  0  0  0
  -18.3269  -27.7243   21.5226 C   0  0  0  0  0  0  0  0  0  0  0  0
  -28.3030  -19.7414   18.9497 C   0  0  0  0  0  0  0  0  0  0  0  0
  -27.5301  -26.6409   19.6101 C   0  0  0  0  0  0  0  0  0  0  0  0
  -26.7149  -29.0530   19.4520 C   0  0  0  0  0  0  0  0  0  0  0  0
  -26.4842  -12.0188   20.2318 C   0  0  0  0  0  0  0  0  0  0  0  0
  -24.4482  -19.5033   21.0765 C   0  0  0  0  0  0  0  0  0  0  0  0
  -26.2679  -13.3163   19.7298 C   0  0  0  0  0  0  0  0  0  0  0  0
  -23.1482  -19.3765   21.5866 C   0  0  0  0  0  0  0  0  0  0  0  0
  -19.2312  -25.5435   22.0352 C   0  0  0  0  0  0  0  0  0  0  0  0
  -18.4380  -26.3643   21.2335 C   0  0  0  0  0  0  0  0  0  0  0  0
  -19.0091  -28.2636   22.6132 C   0  0  0  0  0  0  0  0  0  0  0  0
  -19.9134  -26.0827   23.1259 C   0  0  0  0  0  0  0  0  0  0  0  0
  -19.8023  -27.4428   23.4149 C   0  0  0  0  0  0  0  0  0  0  0  0
  -28.7051  -24.3215   18.5991 C   0  0  0  0  0  0  0  0  0  0  0  0
  -22.4374  -21.2473   20.2064 C   0  0  0  0  0  0  0  0  0  0  0  0
  -29.1055  -22.0166   18.8211 C   0  0  0  0  0  0  0  0  0  0  0  0
  -28.7611  -19.6541   20.2643 C   0  0  0  0  0  0  0  0  0  0  0  0
  -28.4752  -20.9227   18.2281 C   0  0  0  0  0  0  0  0  0  0  0  0
  -26.9228  -27.8385   20.1328 C   0  0  0  0  0  0  0  0  0  0  0  0
  -26.1097  -29.8666   20.3784 C   0  0  0  0  0  0  0  0  0  0  0  0
  -27.0396  -29.4135   18.1029 C   0  0  0  0  0  0  0  0  0  0  0  0
  -24.5738  -16.3274   21.0398 C   0  0  0  0  0  0  0  0  0  0  0  0
  -23.8310  -16.6504   24.1809 C   0  0  0  0  0  0  0  0  0  0  0  0
  -22.4390  -18.5537   26.6480 C   0  0  0  0  0  0  0  0  0  0  0  0
  -22.8104  -28.7503   25.2487 C   0  0  0  0  0  0  0  0  0  0  0  0
  -25.4360  -11.2961   21.0404 C   0  0  0  0  0  0  0  0  0  0  0  0
  -25.5468  -18.5951   21.5565 C   0  0  0  0  0  0  0  0  0  0  0  0
  -22.7931  -18.3189   22.5985 C   0  0  0  0  0  0  0  0  0  0  0  0
  -24.3662  -12.2205   21.6160 C   0  0  0  0  0  0  0  0  0  0  0  0
  -25.8397  -30.6150   25.0963 C   0  0  0  0  0  0  0  0  0  0  0  0
  -23.8681  -13.1900   20.5489 C   0  0  0  0  0  0  0  0  0  0  0  0
  -26.4420  -30.2244   23.7455 C   0  0  0  0  0  0  0  0  0  0  0  0
  -19.4346  -23.5500   20.2178 C   0  0  0  0  0  0  0  0  0  0  0  0
  -20.7335  -23.2989   21.8810 C   0  0  0  0  0  0  0  0  0  0  0  0
  -25.1350  -29.4352   25.7623 C   0  0  0  0  0  0  0  0  0  0  0  0
  -24.7225  -28.3770   23.5750 C   0  0  0  0  0  0  0  0  0  0  0  0
  -19.3555  -23.9992   21.7051 C   0  0  0  0  0  0  0  0  0  0  0  0
  -25.0048  -14.0877   20.0453 C   0  0  1  0  0  0  0  0  0  0  0  0
  -25.0282  -17.2735   22.1150 C   0  0  1  0  0  0  0  0  0  0  0  0
  -25.3955  -29.5483   22.8393 C   0  0  2  0  0  0  0  0  0  0  0  0
  -20.3733  -22.4100   20.6707 C   0  0  0  0  0  0  0  0  0  1  0  0
  -17.6987  -25.8087   20.0613 C   0  0  0  0  0  0  0  0  0  0  0  0
  -18.8732  -29.7233   22.9010 C   0  0  0  0  0  0  0  0  0  0  0  0
  -20.7624  -25.1997   23.9841 C   0  0  0  0  0  0  0  0  0  0  0  0
  -21.9457  -18.5357   29.1084 C   0  0  0  0  0  0  0  0  0  0  0  0
  -21.4994  -14.7426   23.6970 C   0  0  0  0  0  0  0  0  0  0  0  0
  -20.5192  -15.4996   25.8728 C   0  0  0  0  0  0  0  0  0  0  0  0
  -22.7363  -14.3569   25.8361 C   0  0  0  0  0  0  0  0  0  0  0  0
  -24.1312  -20.9349   27.1226 C   0  0  0  0  0  0  0  0  0  0  0  0
  -20.5324  -28.0232   24.5844 C   0  0  0  0  0  0  0  0  0  0  0  0
  -22.5487  -16.7261   24.9739 C   0  0  1  0  0  0  0  0  0  0  0  0
  -22.9398  -18.9356   28.0293 C   0  0  2  0  0  0  0  0  0  0  0  0
  -21.8318  -15.3501   25.0744 C   0  0  0  0  0  0  0  0  0  0  0  0
  -26.4854  -27.8730   21.3944 N   0  0  0  0  0  0  0  0  0  0  0  0
  -25.9967  -29.1192   21.5137 N   0  0  0  0  0  0  0  0  0  0  0  0
  -23.9005  -17.4511   23.0321 N   0  0  0  0  0  0  0  0  0  0  0  0
  -24.1546  -28.8400   24.8510 N   0  0  0  0  0  0  0  0  0  0  0  0
  -25.6686  -31.1414   20.3246 N   0  0  0  0  0  0  0  0  0  0  0  0
  -26.0860  -29.1836   17.1019 N   0  0  0  0  0  0  0  0  0  0  0  0
  -25.2790  -15.1397   21.0006 N   0  0  0  0  0  0  0  0  0  0  0  0
  -22.8999  -17.3125   26.2628 N   0  0  0  0  0  0  0  0  0  0  0  0
  -21.9460  -28.1788   24.3230 N   0  0  0  0  0  0  0  0  0  0  0  0
  -23.1572  -20.4076   28.1127 N   0  3  0  0  0  0  0  0  0  0  0  0
  -28.1491  -29.9092   17.7916 O   0  0  0  0  0  0  0  0  0  0  0  0
  -23.6506  -16.6504   20.3015 O   0  0  0  0  0  0  0  0  0  0  0  0
  -24.7403  -15.9134   24.5705 O   0  0  0  0  0  0  0  0  0  0  0  0
  -21.7089  -19.2818   25.9793 O   0  0  0  0  0  0  0  0  0  0  0  0
  -22.4093  -29.1547   26.3453 O   0  0  0  0  0  0  0  0  0  0  0  0
  -29.2780  -23.1897   18.1058 O   0  0  0  0  0  0  0  0  0  0  0  0
  -21.4567  -22.0901   19.7824 O   0  0  0  0  0  0  0  0  0  1  0  0
  -28.5972  -18.5194   20.9568 F   0  0  0  0  0  0  0  0  0  0  0  0
  -28.0339  -21.0002   16.9651 F   0  0  0  0  0  0  0  0  0  0  0  0
  1  2  1  0  0  0  0
  1  5  2  0  0  0  0
  2  6  2  0  0  0  0
  3  8  2  0  0  0  0
  3 16  1  0  0  0  0
  4  9  1  0  0  0  0
  4 16  2  0  0  0  0
  5 18  1  0  0  0  0
  6 20  1  0  0  0  0
  7 10  2  0  0  0  0
  7 19  1  0  0  0  0
  8 27  1  0  0  0  0
  9 27  2  0  0  0  0
 10 28  1  0  0  0  0
 11 12  2  0  0  0  0
 11 29  1  0  0  0  0
 12 30  1  0  0  0  0
 13 21  1  0  0  0  0
 13 28  2  0  0  0  0
 14 23  2  0  0  0  0
 14 24  1  0  0  0  0
 15 30  2  0  0  0  0
 15 31  1  0  0  0  0
 16 32  1  0  0  0  0
 17 32  1  0  0  0  0
 17 33  2  0  0  0  0
 17 34  1  0  0  0  0
 18 20  2  0  0  0  0
 18 39  1  0  0  0  0
 19 21  2  0  0  0  0
 19 40  1  0  0  0  0
 20 51  1  0  0  0  0
 21 41  1  0  0  0  0
 22 23  1  0  0  0  0
 22 25  2  0  0  0  0
 22 50  1  0  0  0  0
 23 55  1  0  0  0  0
 24 26  2  0  0  0  0
 24 56  1  0  0  0  0
 25 26  1  0  0  0  0
 25 57  1  0  0  0  0
 26 63  1  0  0  0  0
 27 82  1  0  0  0  0
 28 83  1  0  0  0  0
 29 31  2  0  0  0  0
 29 82  1  0  0  0  0
 30 84  1  0  0  0  0
 31 85  1  0  0  0  0
 32 67  2  0  0  0  0
 33 68  1  0  0  0  0
 33 71  1  0  0  0  0
 34 72  1  0  0  0  0
 34 77  2  0  0  0  0
 35 52  1  0  0  0  0
 35 73  1  0  0  0  0
 35 78  2  0  0  0  0
 36 64  1  0  0  0  0
 36 69  1  0  0  0  0
 36 79  2  0  0  0  0
 37 65  1  0  0  0  0
 37 74  1  0  0  0  0
 37 80  2  0  0  0  0
 38 70  1  0  0  0  0
 38 75  1  0  0  0  0
 38 81  2  0  0  0  0
 39 42  1  0  0  0  0
 40 52  1  0  0  0  0
 41 69  1  0  0  0  0
 42 44  1  0  0  0  0
 43 45  1  0  0  0  0
 43 48  1  0  0  0  0
 44 51  1  0  0  0  0
 45 53  1  0  0  0  0
 46 50  1  0  0  0  0
 46 54  1  0  0  0  0
 47 50  1  0  0  0  0
 47 54  1  0  0  0  0
 48 70  1  0  0  0  0
 49 53  1  0  0  0  0
 49 70  1  0  0  0  0
 51 73  1  0  0  0  0
 52 69  1  0  0  0  0
 53 68  1  0  0  0  0
 54 83  1  0  0  0  0
 58 65  1  0  0  0  0
 59 66  1  0  0  0  0
 60 66  1  0  0  0  0
 61 66  1  0  0  0  0
 62 76  1  0  0  0  0
 63 75  1  0  0  0  0
 64 66  1  0  0  0  0
 64 74  1  0  0  0  0
 65 76  1  0  0  0  0
 67 68  1  0  0  0  0
M  CHG  1  76   1
M  ISO  4  38 100  54 101  75 100  83 101
M  END
> <Batch ID>
0160

> <Smiles>
CNC(C)C(=O)NC(C(=O)N1Cc2cc([101O:1][101CH:1]3CC(c4c(C)cc(C)c(C[100NH:0][100C:0](=O)N5CCCC(n6nc(-c7ccc(Oc8ccc(F)cc8F)cc7)c(C(N)=O)c6N)C5)c4C)C3)ccc2CC1C(=O)NC1CCCc2ccccc21)C(C)(C)C

> <Shape>
0.224

> <Color>
0.065

> <Negative vol penalty>
0.000

$$$$

  -OEChem-04052322093D

 88 97  0     1  0  0  0  0  0999 V2000
  -20.1794  -33.1967   15.5112 C   0  0  0  0  0  0  0  0  0  0  0  0
  -21.2300  -32.2870   15.5763 C   0  0  0  0  0  0  0  0  0  0  0  0
  -24.2840   -8.5676   18.6630 C   0  0  0  0  0  0  0  0  0  0  0  0
  -24.6540   -7.7016   20.8880 C   0  0  0  0  0  0  0  0  0  0  0  0
  -20.1056  -34.2416   16.4314 C   0  0  0  0  0  0  0  0  0  0  0  0
  -22.2080  -32.4223   16.5611 C   0  0  0  0  0  0  0  0  0  0  0  0
  -25.1832  -27.9093   19.4395 C   0  0  0  0  0  0  0  0  0  0  0  0
  -24.5515   -7.3075   18.1281 C   0  0  0  0  0  0  0  0  0  0  0  0
  -24.9214   -6.4414   20.3530 C   0  0  0  0  0  0  0  0  0  0  0  0
  -26.4402  -27.3393   19.2423 C   0  0  0  0  0  0  0  0  0  0  0  0
  -22.9243   -4.3689   17.7414 C   0  0  0  0  0  0  0  0  0  0  0  0
  -22.0670   -3.8899   16.7508 C   0  0  0  0  0  0  0  0  0  0  0  0
  -27.3551  -28.7826   20.9449 C   0  0  0  0  0  0  0  0  0  0  0  0
  -28.4518  -22.9505   21.9321 C   0  0  0  0  0  0  0  0  0  0  0  0
  -29.5711  -24.0002   19.6023 C   0  0  0  0  0  0  0  0  0  0  0  0
  -23.9235   -3.7523   15.2107 C   0  0  0  0  0  0  0  0  0  0  0  0
  -24.3353   -8.7646   20.0430 C   0  0  0  0  0  0  0  0  0  0  0  0
  -22.8090  -10.5705   21.0006 C   0  0  0  0  0  0  0  0  0  0  0  0
  -21.0779  -34.3841   17.4339 C   0  0  0  0  0  0  0  0  0  0  0  0
  -25.0047  -28.9295   20.3849 C   0  0  0  0  0  0  0  0  0  0  0  0
  -22.1478  -33.4709   17.4947 C   0  0  0  0  0  0  0  0  0  0  0  0
  -26.0944  -29.3621   21.1541 C   0  0  0  0  0  0  0  0  0  0  0  0
  -29.1784  -24.1400   21.9821 C   0  0  0  0  0  0  0  0  0  0  0  0
  -29.7380  -24.6649   20.8172 C   0  0  0  0  0  0  0  0  0  0  0  0
  -24.8702   -6.2444   18.9730 C   0  0  0  0  0  0  0  0  0  0  0  0
  -27.5270  -27.7780   19.9930 C   0  0  0  0  0  0  0  0  0  0  0  0
  -24.2811   -4.5397   17.4666 C   0  0  0  0  0  0  0  0  0  0  0  0
  -28.2849  -22.2857   20.7172 C   0  0  0  0  0  0  0  0  0  0  0  0
  -28.8445  -22.8106   19.5523 C   0  0  0  0  0  0  0  0  0  0  0  0
  -22.5666   -3.5816   15.4855 C   0  0  0  0  0  0  0  0  0  0  0  0
  -24.7807   -4.2314   16.2013 C   0  0  0  0  0  0  0  0  0  0  0  0
  -24.0596  -10.0662   20.5962 C   0  0  0  0  0  0  0  0  0  0  0  0
  -23.0798  -11.8397   21.4505 C   0  0  0  0  0  0  0  0  0  0  0  0
  -21.5181   -9.9474   20.9722 C   0  0  0  0  0  0  0  0  0  0  0  0
  -24.0900  -31.9710   20.2571 C   0  0  0  0  0  0  0  0  0  0  0  0
  -24.2187  -31.7398   23.4901 C   0  0  0  0  0  0  0  0  0  0  0  0
  -25.5011  -30.1660   26.2334 C   0  0  0  0  0  0  0  0  0  0  0  0
  -25.4279  -16.6509   21.0601 C   0  0  0  0  0  0  0  0  0  0  0  0
  -20.9816  -35.5572   18.3770 C   0  0  0  0  0  0  0  0  0  0  0  0
  -23.6369  -29.5154   20.6045 C   0  0  0  0  0  0  0  0  0  0  0  0
  -25.9513  -30.4403   22.1959 C   0  0  0  0  0  0  0  0  0  0  0  0
  -21.8538  -35.4115   19.6213 C   0  0  0  0  0  0  0  0  0  0  0  0
  -27.4754  -14.1377   22.4069 C   0  0  0  0  0  0  0  0  0  0  0  0
  -23.2553  -34.9458   19.2393 C   0  0  0  0  0  0  0  0  0  0  0  0
  -26.6646  -12.8820   22.0872 C   0  0  0  0  0  0  0  0  0  0  0  0
  -27.0198  -19.6576   22.5341 C   0  0  0  0  0  0  0  0  0  0  0  0
  -28.4231  -18.8527   20.5867 C   0  0  0  0  0  0  0  0  0  0  0  0
  -27.4544  -15.1424   21.2537 C   0  0  0  0  0  0  0  0  0  0  0  0
  -25.8194  -18.9211   21.9416 C   0  0  0  0  0  0  0  0  0  0  0  0
  -27.1905  -18.1383   20.0372 C   0  0  0  0  0  0  0  0  0  0  0  0
  -25.2837  -14.2479   20.4761 C   0  0  0  0  0  0  0  0  0  0  0  0
  -23.2144  -33.5698   18.5636 C   0  0  1  0  0  0  0  0  0  0  0  0
  -23.6760  -30.9053   21.2321 C   0  0  1  0  0  0  0  0  0  0  0  0
  -25.2375  -13.2448   21.6393 C   0  0  1  0  0  0  0  0  0  0  0  0
  -28.0568  -20.0408   21.4778 C   0  0  0  0  0  0  0  0  0  0  0  0
  -29.3427  -24.8345   23.2938 C   0  0  0  0  0  0  0  0  0  0  0  0
  -25.4498  -30.2247   28.7416 C   0  0  0  0  0  0  0  0  0  0  0  0
  -26.0395  -34.1880   23.4676 C   0  0  0  0  0  0  0  0  0  0  0  0
  -26.7036  -33.6292   25.8160 C   0  0  0  0  0  0  0  0  0  0  0  0
  -24.3275  -34.1779   25.2907 C   0  0  0  0  0  0  0  0  0  0  0  0
  -24.4061  -27.4210   26.3909 C   0  0  0  0  0  0  0  0  0  0  0  0
  -27.5489  -22.5264   17.5784 C   0  0  0  0  0  0  0  0  0  0  0  0
  -30.5199  -25.9368   20.8466 C   0  0  0  0  0  0  0  0  0  0  0  0
  -29.6313  -27.1810   20.9267 C   0  0  0  0  0  0  0  0  0  1  0  0
  -25.2840  -31.9624   24.5363 C   0  0  1  0  0  0  0  0  0  0  0  0
  -24.8368  -29.6241   27.4862 C   0  0  2  0  0  0  0  0  0  0  0  0
  -25.5921  -33.4704   24.7567 C   0  0  0  0  0  0  0  0  0  0  0  0
  -25.0511  -10.9435   20.7733 N   0  0  0  0  0  0  0  0  0  0  0  0
  -24.4237  -12.0118   21.2939 N   0  0  0  0  0  0  0  0  0  0  0  0
  -24.5951  -30.9864   22.3691 N   0  0  0  0  0  0  0  0  0  0  0  0
  -26.0750  -15.4264   20.8359 N   0  0  0  0  0  0  0  0  0  0  0  0
  -26.2375  -17.7986   21.1024 N   0  0  0  0  0  0  0  0  0  0  0  0
  -22.2971  -12.8141   21.9607 N   0  0  0  0  0  0  0  0  0  0  0  0
  -21.4182   -8.6394   20.4789 N   0  0  0  0  0  0  0  0  0  0  0  0
  -23.0399  -32.5267   19.5515 N   0  0  0  0  0  0  0  0  0  0  0  0
  -24.8319  -31.2635   25.7344 N   0  0  0  0  0  0  0  0  0  0  0  0
  -24.9864  -28.1429   27.5524 N   0  3  0  0  0  0  0  0  0  0  0  0
  -20.4812  -10.5392   21.3573 O   0  0  0  0  0  0  0  0  0  0  0  0
  -25.2744  -32.2682   20.1538 O   0  0  0  0  0  0  0  0  0  0  0  0
  -23.0920  -32.2106   23.6646 O   0  0  0  0  0  0  0  0  0  0  0  0
  -26.5146  -29.6680   25.7482 O   0  0  0  0  0  0  0  0  0  0  0  0
  -24.2023  -16.7171   21.2168 O   0  0  0  0  0  0  0  0  0  0  0  0
  -25.1311   -5.0146   18.4514 O   0  0  0  0  0  0  0  0  0  0  0  0
  -27.5689  -21.1182   20.6812 O   0  0  0  0  0  0  0  0  0  0  0  0
  -28.6878  -22.1709   18.3598 O   0  0  0  0  0  0  0  0  0  0  0  0
  -28.7638  -27.2200   19.8007 O   0  0  0  0  0  0  0  0  0  1  0  0
  -21.7435   -3.1201   14.5348 F   0  0  0  0  0  0  0  0  0  0  0  0
  -26.0835   -4.3923   15.9318 F   0  0  0  0  0  0  0  0  0  0  0  0
  1  2  1  0  0  0  0
  1  5  2  0  0  0  0
  2  6  2  0  0  0  0
  3  8  2  0  0  0  0
  3 17  1  0  0  0  0
  4  9  1  0  0  0  0
  4 17  2  0  0  0  0
  5 19  1  0  0  0  0
  6 21  1  0  0  0  0
  7 10  2  0  0  0  0
  7 20  1  0  0  0  0
  8 25  1  0  0  0  0
  9 25  2  0  0  0  0
 10 26  1  0  0  0  0
 11 12  2  0  0  0  0
 11 27  1  0  0  0  0
 12 30  1  0  0  0  0
 13 22  1  0  0  0  0
 13 26  2  0  0  0  0
 14 23  1  0  0  0  0
 14 28  2  0  0  0  0
 15 24  1  0  0  0  0
 15 29  2  0  0  0  0
 16 30  2  0  0  0  0
 16 31  1  0  0  0  0
 17 32  1  0  0  0  0
 18 32  1  0  0  0  0
 18 33  2  0  0  0  0
 18 34  1  0  0  0  0
 19 21  2  0  0  0  0
 19 39  1  0  0  0  0
 20 22  2  0  0  0  0
 20 40  1  0  0  0  0
 21 52  1  0  0  0  0
 22 41  1  0  0  0  0
 23 24  2  0  0  0  0
 23 56  1  0  0  0  0
 24 63  1  0  0  0  0
 25 83  1  0  0  0  0
 26 86  1  0  0  0  0
 27 31  2  0  0  0  0
 27 83  1  0  0  0  0
 28 29  1  0  0  0  0
 28 84  1  0  0  0  0
 29 85  1  0  0  0  0
 30 87  1  0  0  0  0
 31 88  1  0  0  0  0
 32 68  2  0  0  0  0
 33 69  1  0  0  0  0
 33 73  1  0  0  0  0
 34 74  1  0  0  0  0
 34 78  2  0  0  0  0
 35 53  1  0  0  0  0
 35 75  1  0  0  0  0
 35 79  2  0  0  0  0
 36 65  1  0  0  0  0
 36 70  1  0  0  0  0
 36 80  2  0  0  0  0
 37 66  1  0  0  0  0
 37 76  1  0  0  0  0
 37 81  2  0  0  0  0
 38 71  1  0  0  0  0
 38 72  1  0  0  0  0
 38 82  2  0  0  0  0
 39 42  1  0  0  0  0
 40 53  1  0  0  0  0
 41 70  1  0  0  0  0
 42 44  1  0  0  0  0
 43 45  1  0  0  0  0
 43 48  1  0  0  0  0
 44 52  1  0  0  0  0
 45 54  1  0  0  0  0
 46 49  1  0  0  0  0
 46 55  1  0  0  0  0
 47 50  1  0  0  0  0
 47 55  1  0  0  0  0
 48 71  1  0  0  0  0
 49 72  1  0  0  0  0
 50 72  1  0  0  0  0
 51 54  1  0  0  0  0
 51 71  1  0  0  0  0
 52 75  1  0  0  0  0
 53 70  1  0  0  0  0
 54 69  1  0  0  0  0
 55 84  1  0  0  0  0
 57 66  1  0  0  0  0
 58 67  1  0  0  0  0
 59 67  1  0  0  0  0
 60 67  1  0  0  0  0
 61 77  1  0  0  0  0
 62 85  1  0  0  0  0
 63 64  1  0  0  0  0
 64 86  1  0  0  0  0
 65 67  1  0  0  0  0
 65 76  1  0  0  0  0
 66 77  1  0  0  0  0
 68 69  1  0  0  0  0
M  CHG  1  77   1
M  ISO  4  38 100  64 101  72 100  86 101
M  END
> <Batch ID>
0160

> <Smiles>
CNC(C)C(=O)NC(C(=O)N1Cc2cc([101O:1][101CH2:1]Cc3cc(OC)c(OC4CC[100N:0]([100C:0](=O)N5CCCC(n6nc(-c7ccc(Oc8ccc(F)cc8F)cc7)c(C(N)=O)c6N)C5)CC4)cc3C)ccc2CC1C(=O)NC1CCCc2ccccc21)C(C)(C)C

> <Shape>
0.252

> <Color>
0.097

> <Negative vol penalty>
0.000

$$$$

  -OEChem-04052322093D

 92102  0     1  0  0  0  0  0999 V2000
  -29.6012  -36.0506   13.8216 C   0  0  0  0  0  0  0  0  0  0  0  0
  -29.5354  -34.7547   14.3234 C   0  0  0  0  0  0  0  0  0  0  0  0
  -23.0046   -9.8591   19.9411 C   0  0  0  0  0  0  0  0  0  0  0  0
  -23.8908   -9.8005   22.1879 C   0  0  0  0  0  0  0  0  0  0  0  0
  -29.7920  -37.1244   14.6902 C   0  0  0  0  0  0  0  0  0  0  0  0
  -29.6615  -34.5317   15.6941 C   0  0  0  0  0  0  0  0  0  0  0  0
  -26.8192  -30.2319   19.0014 C   0  0  0  0  0  0  0  0  0  0  0  0
  -22.2758   -8.6980   20.1983 C   0  0  0  0  0  0  0  0  0  0  0  0
  -23.1620   -8.6393   22.4451 C   0  0  0  0  0  0  0  0  0  0  0  0
  -27.2256  -28.9793   19.4591 C   0  0  0  0  0  0  0  0  0  0  0  0
  -23.4215   -5.3355   21.7758 C   0  0  0  0  0  0  0  0  0  0  0  0
  -24.0760   -4.2907   22.4282 C   0  0  0  0  0  0  0  0  0  0  0  0
  -27.8264  -29.9565   21.5812 C   0  0  0  0  0  0  0  0  0  0  0  0
  -22.4721   -4.4117   24.2310 C   0  0  0  0  0  0  0  0  0  0  0  0
  -23.8122  -10.4104   20.9359 C   0  0  0  0  0  0  0  0  0  0  0  0
  -24.1468  -12.9385   20.8708 C   0  0  0  0  0  0  0  0  0  0  0  0
  -29.9109  -36.9153   16.0733 C   0  0  0  0  0  0  0  0  0  0  0  0
  -26.9236  -31.3600   19.8278 C   0  0  0  0  0  0  0  0  0  0  0  0
  -29.8555  -35.6036   16.5819 C   0  0  0  0  0  0  0  0  0  0  0  0
  -27.4182  -31.2218   21.1325 C   0  0  0  0  0  0  0  0  0  0  0  0
  -29.2959  -22.9253   22.2364 C   0  0  0  0  0  0  0  0  0  0  0  0
  -28.2343  -23.6596   22.7649 C   0  0  0  0  0  0  0  0  0  0  0  0
  -29.9367  -23.3614   21.0767 C   0  0  0  0  0  0  0  0  0  0  0  0
  -27.8132  -24.8300   22.1336 C   0  0  0  0  0  0  0  0  0  0  0  0
  -29.5156  -24.5318   20.4454 C   0  0  0  0  0  0  0  0  0  0  0  0
  -28.4539  -25.2661   20.9738 C   0  0  0  0  0  0  0  0  0  0  0  0
  -22.3545   -8.0881   21.4503 C   0  0  0  0  0  0  0  0  0  0  0  0
  -27.7321  -28.8419   20.7482 C   0  0  0  0  0  0  0  0  0  0  0  0
  -22.2923   -5.9185   22.3510 C   0  0  0  0  0  0  0  0  0  0  0  0
  -23.6013   -3.8288   23.6558 C   0  0  0  0  0  0  0  0  0  0  0  0
  -21.8176   -5.4566   23.5786 C   0  0  0  0  0  0  0  0  0  0  0  0
  -24.5657  -11.6095   20.6707 C   0  0  0  0  0  0  0  0  0  0  0  0
  -25.2170  -13.7000   20.4694 C   0  0  0  0  0  0  0  0  0  0  0  0
  -22.9016  -13.4398   21.3746 C   0  0  0  0  0  0  0  0  0  0  0  0
  -28.5175  -34.1063   19.6837 C   0  0  0  0  0  0  0  0  0  0  0  0
  -26.7967  -34.7954   22.3457 C   0  0  0  0  0  0  0  0  0  0  0  0
  -25.0587  -33.6484   25.0494 C   0  0  0  0  0  0  0  0  0  0  0  0
  -30.8540  -14.3835   20.8121 C   0  0  0  0  0  0  0  0  0  0  0  0
  -30.1634  -38.1030   16.9679 C   0  0  0  0  0  0  0  0  0  0  0  0
  -26.4559  -32.6995   19.3283 C   0  0  0  0  0  0  0  0  0  0  0  0
  -27.5319  -32.3981   22.0663 C   0  0  0  0  0  0  0  0  0  0  0  0
  -29.9128  -37.8163   18.4462 C   0  0  0  0  0  0  0  0  0  0  0  0
  -29.4316  -12.4434   17.9919 C   0  0  0  0  0  0  0  0  0  0  0  0
  -30.5613  -36.4964   18.8513 C   0  0  0  0  0  0  0  0  0  0  0  0
  -28.0310  -12.1037   18.4983 C   0  0  0  0  0  0  0  0  0  0  0  0
  -31.6120  -17.1115   22.8171 C   0  0  0  0  0  0  0  0  0  0  0  0
  -29.5704  -17.6087   21.4146 C   0  0  0  0  0  0  0  0  0  0  0  0
  -28.7358  -20.5873   23.1855 C   0  0  0  0  0  0  0  0  0  0  0  0
  -30.4211  -12.6214   19.1391 C   0  0  0  0  0  0  0  0  0  0  0  0
  -31.1513  -15.6595   22.9141 C   0  0  0  0  0  0  0  0  0  0  0  0
  -29.1628  -16.1359   21.5175 C   0  0  0  0  0  0  0  0  0  0  0  0
  -28.5869  -13.2809   20.6632 C   0  0  0  0  0  0  0  0  0  0  0  0
  -29.7435  -21.6805   22.9065 C   0  0  1  0  0  0  0  0  0  0  0  0
  -29.9631  -35.3236   18.0652 C   0  0  1  0  0  0  0  0  0  0  0  0
  -27.0867  -33.8698   20.0766 C   0  0  1  0  0  0  0  0  0  0  0  0
  -27.5567  -13.1389   19.5326 C   0  0  2  0  0  0  0  0  0  0  0  0
  -30.4102  -18.0327   22.6176 C   0  0  0  0  0  0  0  0  0  0  0  0
  -29.7705  -20.3874   22.1208 C   0  0  1  0  0  0  0  0  0  0  0  0
  -27.5459  -23.1928   24.0092 C   0  0  0  0  0  0  0  0  0  0  0  0
  -31.0758  -22.5745   20.5084 C   0  0  0  0  0  0  0  0  0  0  0  0
  -26.6745  -25.6183   22.7000 C   0  0  0  0  0  0  0  0  0  0  0  0
  -30.2029  -25.0001   19.2013 C   0  0  0  0  0  0  0  0  0  0  0  0
  -23.7999  -34.4502   27.0668 C   0  0  0  0  0  0  0  0  0  0  0  0
  -29.4364  -35.4421   23.7327 C   0  0  0  0  0  0  0  0  0  0  0  0
  -28.2375  -35.3037   25.9263 C   0  0  0  0  0  0  0  0  0  0  0  0
  -27.5711  -37.0259   24.2492 C   0  0  0  0  0  0  0  0  0  0  0  0
  -22.5493  -32.3741   24.1339 C   0  0  0  0  0  0  0  0  0  0  0  0
  -31.7598  -19.9110   23.5408 C   0  0  0  0  0  0  0  0  0  0  0  0
  -28.0023  -26.5225   20.2978 C   0  0  0  0  0  0  0  0  0  1  0  0
  -26.9978  -34.5997   23.8290 C   0  0  1  0  0  0  0  0  0  0  0  0
  -23.6998  -34.0292   25.6089 C   0  0  2  0  0  0  0  0  0  0  0  0
  -28.0605  -35.5708   24.4163 C   0  0  0  0  0  0  0  0  0  0  0  0
  -25.8054  -11.5279   20.1801 N   0  0  0  0  0  0  0  0  0  0  0  0
  -26.1746  -12.8153   20.0685 N   0  0  0  0  0  0  0  0  0  0  0  0
  -27.0674  -33.6880   21.5295 N   0  0  0  0  0  0  0  0  0  0  0  0
  -29.9275  -13.5743   20.1335 N   0  0  0  0  0  0  0  0  0  0  0  0
  -30.3382  -15.2851   21.7554 N   0  0  0  0  0  0  0  0  0  0  0  0
  -25.4231  -15.0334   20.4237 N   0  0  0  0  0  0  0  0  0  0  0  0
  -21.9100  -12.5196   21.7409 N   0  0  0  0  0  0  0  0  0  0  0  0
  -28.6717  -34.9584   18.6067 N   0  0  0  0  0  0  0  0  0  0  0  0
  -25.6778  -34.7185   24.4390 N   0  0  0  0  0  0  0  0  0  0  0  0
  -22.7599  -32.8765   25.5160 N   0  3  0  0  0  0  0  0  0  0  0  0
  -30.8933  -19.4219   22.4073 N   0  3  1  0  0  0  0  0  0  0  0  0
  -22.6689  -14.6678   21.4808 O   0  0  0  0  0  0  0  0  0  0  0  0
  -29.4153  -33.5577   20.3120 O   0  0  0  0  0  0  0  0  0  0  0  0
  -26.4069  -35.8883   21.9273 O   0  0  0  0  0  0  0  0  0  0  0  0
  -25.5259  -32.5158   25.1476 O   0  0  0  0  0  0  0  0  0  0  0  0
  -32.0681  -14.3055   20.5860 O   0  0  0  0  0  0  0  0  0  0  0  0
  -21.6432   -6.9552   21.7017 O   0  0  0  0  0  0  0  0  0  0  0  0
  -28.1331  -27.6115   21.2006 O   0  0  0  0  0  0  0  0  0  1  0  0
  -24.2290   -2.8244   24.2814 F   0  0  0  0  0  0  0  0  0  0  0  0
  -20.7326   -6.0119   24.1355 F   0  0  0  0  0  0  0  0  0  0  0  0
  1  2  1  0  0  0  0
  1  5  2  0  0  0  0
  2  6  2  0  0  0  0
  3  8  2  0  0  0  0
  3 15  1  0  0  0  0
  4  9  1  0  0  0  0
  4 15  2  0  0  0  0
  5 17  1  0  0  0  0
  6 19  1  0  0  0  0
  7 10  2  0  0  0  0
  7 18  1  0  0  0  0
  8 27  1  0  0  0  0
  9 27  2  0  0  0  0
 10 28  1  0  0  0  0
 11 12  2  0  0  0  0
 11 29  1  0  0  0  0
 12 30  1  0  0  0  0
 13 20  1  0  0  0  0
 13 28  2  0  0  0  0
 14 30  2  0  0  0  0
 14 31  1  0  0  0  0
 15 32  1  0  0  0  0
 16 32  1  0  0  0  0
 16 33  2  0  0  0  0
 16 34  1  0  0  0  0
 17 19  2  0  0  0  0
 17 39  1  0  0  0  0
 18 20  2  0  0  0  0
 18 40  1  0  0  0  0
 19 54  1  0  0  0  0
 20 41  1  0  0  0  0
 21 22  1  0  0  0  0
 21 23  2  0  0  0  0
 21 53  1  0  0  0  0
 22 24  2  0  0  0  0
 22 59  1  0  0  0  0
 23 25  1  0  0  0  0
 23 60  1  0  0  0  0
 24 26  1  0  0  0  0
 24 61  1  0  0  0  0
 25 26  2  0  0  0  0
 25 62  1  0  0  0  0
 26 69  1  0  0  0  0
 27 89  1  0  0  0  0
 28 90  1  0  0  0  0
 29 31  2  0  0  0  0
 29 89  1  0  0  0  0
 30 91  1  0  0  0  0
 31 92  1  0  0  0  0
 32 73  2  0  0  0  0
 33 74  1  0  0  0  0
 33 78  1  0  0  0  0
 34 79  1  0  0  0  0
 34 84  2  0  0  0  0
 35 55  1  0  0  0  0
 35 80  1  0  0  0  0
 35 85  2  0  0  0  0
 36 70  1  0  0  0  0
 36 75  1  0  0  0  0
 36 86  2  0  0  0  0
 37 71  1  0  0  0  0
 37 81  1  0  0  0  0
 37 87  2  0  0  0  0
 38 76  1  0  0  0  0
 38 77  1  0  0  0  0
 38 88  2  0  0  0  0
 39 42  1  0  0  0  0
 40 55  1  0  0  0  0
 41 75  1  0  0  0  0
 42 44  1  0  0  0  0
 43 45  1  0  0  0  0
 43 49  1  0  0  0  0
 44 54  1  0  0  0  0
 45 56  1  0  0  0  0
 46 50  1  0  0  0  0
 46 57  1  0  0  0  0
 47 51  1  0  0  0  0
 47 57  1  0  0  0  0
 48 53  1  0  0  0  0
 48 58  1  0  0  0  0
 49 76  1  0  0  0  0
 50 77  1  0  0  0  0
 51 77  1  0  0  0  0
 52 56  1  0  0  0  0
 52 76  1  0  0  0  0
 53 58  1  0  0  0  0
 54 80  1  0  0  0  0
 55 75  1  0  0  0  0
 56 74  1  0  0  0  0
 57 83  1  0  0  0  0
 58 83  1  0  0  0  0
 63 71  1  0  0  0  0
 64 72  1  0  0  0  0
 65 72  1  0  0  0  0
 66 72  1  0  0  0  0
 67 82  1  0  0  0  0
 68 83  1  0  0  0  0
 69 90  1  0  0  0  0
 70 72  1  0  0  0  0
 70 81  1  0  0  0  0
 71 82  1  0  0  0  0
 73 74  1  0  0  0  0
M  CHG  2  82   1  83   1
M  ISO  4  38 100  69 101  77 100  90 101
M  END
> <Batch ID>
0160

> <Smiles>
CNC(C)C(=O)NC(C(=O)N1Cc2cc([101O:1][101CH2:1]c3c(C)c(C)c(C4CC4N(C)C4CC[100N:0]([100C:0](=O)N5CCCC(n6nc(-c7ccc(Oc8ccc(F)cc8F)cc7)c(C(N)=O)c6N)C5)CC4)c(C)c3C)ccc2CC1C(=O)NC1CCCc2ccccc21)C(C)(C)C

> <Shape>
0.301

> <Color>
0.203

> <Negative vol penalty>
0.000

$$$$

  -OEChem-04052322093D

 88 97  0     1  0  0  0  0  0999 V2000
  -17.9989  -33.2049   23.2655 C   0  0  0  0  0  0  0  0  0  0  0  0
  -19.1961  -33.3248   22.5671 C   0  0  0  0  0  0  0  0  0  0  0  0
  -26.4821  -11.6682   21.0626 C   0  0  0  0  0  0  0  0  0  0  0  0
  -24.9886  -13.2451   20.0043 C   0  0  0  0  0  0  0  0  0  0  0  0
  -17.8206  -32.1556   24.1661 C   0  0  0  0  0  0  0  0  0  0  0  0
  -20.2162  -32.3960   22.7698 C   0  0  0  0  0  0  0  0  0  0  0  0
  -25.5456  -29.1087   19.2902 C   0  0  0  0  0  0  0  0  0  0  0  0
  -25.4023  -10.8284   21.3352 C   0  0  0  0  0  0  0  0  0  0  0  0
  -23.9087  -12.4052   20.2768 C   0  0  0  0  0  0  0  0  0  0  0  0
  -26.9141  -28.8653   19.3988 C   0  0  0  0  0  0  0  0  0  0  0  0
  -23.5023   -8.5898   19.6583 C   0  0  0  0  0  0  0  0  0  0  0  0
  -23.6586   -7.2282   19.3993 C   0  0  0  0  0  0  0  0  0  0  0  0
  -29.7340  -23.3117   18.2824 C   0  0  0  0  0  0  0  0  0  0  0  0
  -26.4641  -27.0485   20.9206 C   0  0  0  0  0  0  0  0  0  0  0  0
  -23.2447   -6.7376   21.7285 C   0  0  0  0  0  0  0  0  0  0  0  0
  -26.2752  -12.8766   20.3972 C   0  0  0  0  0  0  0  0  0  0  0  0
  -28.2013  -13.7411   18.9653 C   0  0  0  0  0  0  0  0  0  0  0  0
  -18.8354  -31.2079   24.3727 C   0  0  0  0  0  0  0  0  0  0  0  0
  -24.6251  -28.3295   20.0057 C   0  0  0  0  0  0  0  0  0  0  0  0
  -20.0518  -31.3338   23.6750 C   0  0  0  0  0  0  0  0  0  0  0  0
  -30.0021  -23.5987   19.6124 C   0  0  0  0  0  0  0  0  0  0  0  0
  -25.0843  -27.2824   20.8174 C   0  0  0  0  0  0  0  0  0  0  0  0
  -28.7383  -22.3770   17.9944 C   0  0  0  0  0  0  0  0  0  0  0  0
  -28.0214  -21.7567   19.0285 C   0  0  0  0  0  0  0  0  0  0  0  0
  -28.2957  -22.0575   20.3648 C   0  0  0  0  0  0  0  0  0  0  0  0
  -29.3043  -22.9639   20.6449 C   0  0  0  0  0  0  0  0  0  0  0  0
  -24.1156  -11.1969   20.9423 C   0  0  0  0  0  0  0  0  0  0  0  0
  -27.3737  -27.8369   20.2163 C   0  0  0  0  0  0  0  0  0  0  0  0
  -23.2173   -9.0254   20.9525 C   0  0  0  0  0  0  0  0  0  0  0  0
  -23.5297   -6.3021   20.4343 C   0  0  0  0  0  0  0  0  0  0  0  0
  -23.0885   -8.0993   21.9875 C   0  0  0  0  0  0  0  0  0  0  0  0
  -27.3902  -13.7448   20.1159 C   0  0  0  0  0  0  0  0  0  0  0  0
  -29.1096  -14.7483   19.1823 C   0  0  0  0  0  0  0  0  0  0  0  0
  -28.1392  -12.9023   17.8042 C   0  0  0  0  0  0  0  0  0  0  0  0
  -22.4623  -28.9173   22.2597 C   0  0  0  0  0  0  0  0  0  0  0  0
  -21.6942  -25.8013   21.7877 C   0  0  0  0  0  0  0  0  0  0  0  0
  -22.6658  -22.7063   20.7277 C   0  0  0  0  0  0  0  0  0  0  0  0
  -28.9757  -19.7070   22.5356 C   0  0  0  0  0  0  0  0  0  0  0  0
  -18.6143  -30.1181   25.3915 C   0  0  0  0  0  0  0  0  0  0  0  0
  -23.1508  -28.5876   19.8570 C   0  0  0  0  0  0  0  0  0  0  0  0
  -24.1362  -26.4040   21.5905 C   0  0  0  0  0  0  0  0  0  0  0  0
  -19.6032  -28.9615   25.2706 C   0  0  0  0  0  0  0  0  0  0  0  0
  -31.3578  -17.0666   22.7124 C   0  0  0  0  0  0  0  0  0  0  0  0
  -21.0266  -29.4895   25.1221 C   0  0  0  0  0  0  0  0  0  0  0  0
  -30.6842  -15.9156   21.9632 C   0  0  0  0  0  0  0  0  0  0  0  0
  -30.3476  -17.8888   23.5096 C   0  0  0  0  0  0  0  0  0  0  0  0
  -28.5291  -17.2400   21.9780 C   0  0  0  0  0  0  0  0  0  0  0  0
  -30.9048  -24.2046   21.7142 C   0  0  0  0  0  0  0  0  0  0  0  0
  -21.1726  -30.3319   23.8491 C   0  0  1  0  0  0  0  0  0  0  0  0
  -22.3307  -28.0623   21.0312 C   0  0  1  0  0  0  0  0  0  0  0  0
  -29.4996  -16.4158   21.1148 C   0  0  2  0  0  0  0  0  0  0  0  0
  -30.9765  -24.5883   20.2026 C   0  0  2  0  0  0  0  0  0  0  0  0
  -28.4440  -22.0605   16.5636 C   0  0  0  0  0  0  0  0  0  0  0  0
  -26.9471  -20.7689   18.6949 C   0  0  0  0  0  0  0  0  0  0  0  0
  -21.8318  -20.3505   20.4996 C   0  0  0  0  0  0  0  0  0  0  0  0
  -33.3300  -25.4610   20.2581 C   0  0  0  0  0  0  0  0  0  0  0  0
  -32.9083  -23.0067   19.9390 C   0  0  0  0  0  0  0  0  0  0  0  0
  -22.0389  -25.3911   24.7915 C   0  0  0  0  0  0  0  0  0  0  0  0
  -22.1377  -22.9247   24.3728 C   0  0  0  0  0  0  0  0  0  0  0  0
  -20.0759  -24.2044   23.7951 C   0  0  0  0  0  0  0  0  0  0  0  0
  -23.0200  -22.7422   17.7896 C   0  0  0  0  0  0  0  0  0  0  0  0
  -27.5248  -21.4153   21.4700 C   0  0  0  0  0  0  0  0  0  0  0  0
  -30.4854  -26.0238   19.9775 C   0  0  0  0  0  0  0  0  0  0  0  0
  -29.1088  -26.2524   20.5828 C   0  0  0  0  0  0  0  0  0  1  0  0
  -22.1488  -24.4873   22.3755 C   0  0  1  0  0  0  0  0  0  0  0  0
  -21.9939  -21.6979   19.8133 C   0  0  2  0  0  0  0  0  0  0  0  0
  -32.3955  -24.4156   19.6562 C   0  0  0  0  0  0  0  0  0  0  0  0
  -21.6186  -24.2695   23.8208 C   0  0  0  0  0  0  0  0  0  0  0  0
  -27.7514  -14.6801   20.9984 N   0  0  0  0  0  0  0  0  0  0  0  0
  -28.7996  -15.2734   20.4023 N   0  0  0  0  0  0  0  0  0  0  0  0
  -29.6846  -23.4279   21.9018 N   0  0  0  0  0  0  0  0  0  0  0  0
  -22.7045  -26.7000   21.4170 N   0  0  0  0  0  0  0  0  0  0  0  0
  -29.2507  -18.3340   22.6468 N   0  0  0  0  0  0  0  0  0  0  0  0
  -30.1353  -15.2271   18.4466 N   0  0  0  0  0  0  0  0  0  0  0  0
  -27.1437  -11.9176   17.7437 N   0  0  0  0  0  0  0  0  0  0  0  0
  -21.2729  -29.4767   22.6859 N   0  0  0  0  0  0  0  0  0  0  0  0
  -21.7434  -23.4544   21.4283 N   0  0  0  0  0  0  0  0  0  0  0  0
  -27.9239  -20.0434   21.6923 N   0  0  0  0  0  0  0  0  0  0  0  0
  -22.8018  -21.5012   18.5766 N   0  3  0  0  0  0  0  0  0  0  0  0
  -28.9530  -13.0116   16.8558 O   0  0  0  0  0  0  0  0  0  0  0  0
  -23.5614  -29.0578   22.7831 O   0  0  0  0  0  0  0  0  0  0  0  0
  -20.4872  -26.0193   21.6555 O   0  0  0  0  0  0  0  0  0  0  0  0
  -23.8867  -22.8167   20.8146 O   0  0  0  0  0  0  0  0  0  0  0  0
  -29.6233  -20.5694   23.1388 O   0  0  0  0  0  0  0  0  0  0  0  0
  -23.0617  -10.3775   21.2079 O   0  0  0  0  0  0  0  0  0  0  0  0
  -28.7089  -27.5976   20.3246 O   0  0  0  0  0  0  0  0  0  1  0  0
  -23.6783   -4.9944   20.1851 F   0  0  0  0  0  0  0  0  0  0  0  0
  -22.8136   -8.5116   23.2326 F   0  0  0  0  0  0  0  0  0  0  0  0
  1  2  1  0  0  0  0
  1  5  2  0  0  0  0
  2  6  2  0  0  0  0
  3  8  2  0  0  0  0
  3 16  1  0  0  0  0
  4  9  1  0  0  0  0
  4 16  2  0  0  0  0
  5 18  1  0  0  0  0
  6 20  1  0  0  0  0
  7 10  2  0  0  0  0
  7 19  1  0  0  0  0
  8 27  1  0  0  0  0
  9 27  2  0  0  0  0
 10 28  1  0  0  0  0
 11 12  2  0  0  0  0
 11 29  1  0  0  0  0
 12 30  1  0  0  0  0
 13 21  2  0  0  0  0
 13 23  1  0  0  0  0
 14 22  1  0  0  0  0
 14 28  2  0  0  0  0
 15 30  2  0  0  0  0
 15 31  1  0  0  0  0
 16 32  1  0  0  0  0
 17 32  1  0  0  0  0
 17 33  2  0  0  0  0
 17 34  1  0  0  0  0
 18 20  2  0  0  0  0
 18 39  1  0  0  0  0
 19 22  2  0  0  0  0
 19 40  1  0  0  0  0
 20 49  1  0  0  0  0
 21 26  1  0  0  0  0
 21 52  1  0  0  0  0
 22 41  1  0  0  0  0
 23 24  2  0  0  0  0
 23 53  1  0  0  0  0
 24 25  1  0  0  0  0
 24 54  1  0  0  0  0
 25 26  2  0  0  0  0
 25 62  1  0  0  0  0
 26 71  1  0  0  0  0
 27 85  1  0  0  0  0
 28 86  1  0  0  0  0
 29 31  2  0  0  0  0
 29 85  1  0  0  0  0
 30 87  1  0  0  0  0
 31 88  1  0  0  0  0
 32 69  2  0  0  0  0
 33 70  1  0  0  0  0
 33 74  1  0  0  0  0
 34 75  1  0  0  0  0
 34 80  2  0  0  0  0
 35 50  1  0  0  0  0
 35 76  1  0  0  0  0
 35 81  2  0  0  0  0
 36 65  1  0  0  0  0
 36 72  1  0  0  0  0
 36 82  2  0  0  0  0
 37 66  1  0  0  0  0
 37 77  1  0  0  0  0
 37 83  2  0  0  0  0
 38 73  1  0  0  0  0
 38 78  1  0  0  0  0
 38 84  2  0  0  0  0
 39 42  1  0  0  0  0
 40 50  1  0  0  0  0
 41 72  1  0  0  0  0
 42 44  1  0  0  0  0
 43 45  1  0  0  0  0
 43 46  1  0  0  0  0
 44 49  1  0  0  0  0
 45 51  1  0  0  0  0
 46 73  1  0  0  0  0
 47 51  1  0  0  0  0
 47 73  1  0  0  0  0
 48 52  1  0  0  0  0
 48 71  1  0  0  0  0
 49 76  1  0  0  0  0
 50 72  1  0  0  0  0
 51 70  1  0  0  0  0
 52 63  1  0  0  0  0
 52 67  1  0  0  0  0
 55 66  1  0  0  0  0
 56 67  1  0  0  0  0
 57 67  1  0  0  0  0
 58 68  1  0  0  0  0
 59 68  1  0  0  0  0
 60 68  1  0  0  0  0
 61 79  1  0  0  0  0
 62 78  1  0  0  0  0
 63 64  1  0  0  0  0
 64 86  1  0  0  0  0
 65 68  1  0  0  0  0
 65 77  1  0  0  0  0
 66 79  1  0  0  0  0
 69 70  1  0  0  0  0
M  CHG  1  79   1
M  ISO  4  38 100  64 101  78 100  86 101
M  END
> <Batch ID>
0160

> <Smiles>
CNC(C)C(=O)NC(C(=O)N1Cc2cc([101O:1][101CH2:1]CC3(C(C)C)CNc4c3cc(C)c(C)c4C[100NH:0][100C:0](=O)N3CCCC(n4nc(-c5ccc(Oc6ccc(F)cc6F)cc5)c(C(N)=O)c4N)C3)ccc2CC1C(=O)NC1CCCc2ccccc21)C(C)(C)C

> <Shape>
0.272

> <Color>
0.070

> <Negative vol penalty>
0.000

$$$$

  -OEChem-04052322093D

 86 95  0     1  0  0  0  0  0999 V2000
  -28.2540  -31.8848   27.3990 C   0  0  0  0  0  0  0  0  0  0  0  0
  -28.1047  -30.7912   26.5520 C   0  0  0  0  0  0  0  0  0  0  0  0
  -26.0236   -7.7039   20.7313 C   0  0  0  0  0  0  0  0  0  0  0  0
  -23.7289   -7.7725   19.9785 C   0  0  0  0  0  0  0  0  0  0  0  0
  -27.2053  -32.7896   27.5587 C   0  0  0  0  0  0  0  0  0  0  0  0
  -26.9062  -30.6013   25.8651 C   0  0  0  0  0  0  0  0  0  0  0  0
  -27.6260  -29.3686   21.0064 C   0  0  0  0  0  0  0  0  0  0  0  0
  -25.7486   -6.5497   21.4647 C   0  0  0  0  0  0  0  0  0  0  0  0
  -23.4538   -6.6182   20.7118 C   0  0  0  0  0  0  0  0  0  0  0  0
  -27.9848  -28.0499   20.7305 C   0  0  0  0  0  0  0  0  0  0  0  0
  -22.8428   -5.8010   23.9351 C   0  0  0  0  0  0  0  0  0  0  0  0
  -21.6742   -5.7800   24.6964 C   0  0  0  0  0  0  0  0  0  0  0  0
  -25.6998  -27.5598   20.1323 C   0  0  0  0  0  0  0  0  0  0  0  0
  -20.8878   -3.8743   23.4366 C   0  0  0  0  0  0  0  0  0  0  0  0
  -25.0138   -8.3153   19.9883 C   0  0  0  0  0  0  0  0  0  0  0  0
  -25.7372   -9.5827   17.8959 C   0  0  0  0  0  0  0  0  0  0  0  0
  -25.9968  -32.6160   26.8659 C   0  0  0  0  0  0  0  0  0  0  0  0
  -26.2971  -29.7907   20.8575 C   0  0  0  0  0  0  0  0  0  0  0  0
  -25.8399  -31.5039   26.0167 C   0  0  0  0  0  0  0  0  0  0  0  0
  -25.3273  -28.8850   20.4045 C   0  0  0  0  0  0  0  0  0  0  0  0
  -28.9658  -24.0978   19.8240 C   0  0  0  0  0  0  0  0  0  0  0  0
  -28.5885  -22.9507   20.5649 C   0  0  0  0  0  0  0  0  0  0  0  0
  -24.4637   -6.0068   21.4549 C   0  0  0  0  0  0  0  0  0  0  0  0
  -27.0211  -27.1445   20.2961 C   0  0  0  0  0  0  0  0  0  0  0  0
  -23.0339   -4.8587   22.9245 C   0  0  0  0  0  0  0  0  0  0  0  0
  -20.6967   -4.8166   24.4471 C   0  0  0  0  0  0  0  0  0  0  0  0
  -22.0565   -3.8954   22.6753 C   0  0  0  0  0  0  0  0  0  0  0  0
  -25.2972   -9.5079   19.2310 C   0  0  0  0  0  0  0  0  0  0  0  0
  -29.5803  -23.6596   18.6718 C   0  0  0  0  0  0  0  0  0  0  0  0
  -25.8576  -10.9284   17.6489 C   0  0  0  0  0  0  0  0  0  0  0  0
  -28.9842  -21.8464   19.8429 C   0  0  0  0  0  0  0  0  0  0  0  0
  -26.0124   -8.5298   16.9624 C   0  0  0  0  0  0  0  0  0  0  0  0
  -24.0768  -30.9438   22.8182 C   0  0  0  0  0  0  0  0  0  0  0  0
  -22.4008  -31.3244   20.0671 C   0  0  0  0  0  0  0  0  0  0  0  0
  -21.8892  -30.3701   16.8307 C   0  0  0  0  0  0  0  0  0  0  0  0
  -27.3998  -15.9061   18.9360 C   0  0  0  0  0  0  0  0  0  0  0  0
  -24.8747  -33.5945   27.1071 C   0  0  0  0  0  0  0  0  0  0  0  0
  -25.9315  -31.2234   21.1336 C   0  0  0  0  0  0  0  0  0  0  0  0
  -23.8908  -29.2933   20.2091 C   0  0  0  0  0  0  0  0  0  0  0  0
  -23.7710  -33.5270   26.0547 C   0  0  0  0  0  0  0  0  0  0  0  0
  -24.3294  -14.9285   20.3284 C   0  0  0  0  0  0  0  0  0  0  0  0
  -23.3776  -32.0780   25.7858 C   0  0  0  0  0  0  0  0  0  0  0  0
  -24.3395  -13.4239   20.0593 C   0  0  0  0  0  0  0  0  0  0  0  0
  -26.9677  -19.5885   18.9086 C   0  0  0  0  0  0  0  0  0  0  0  0
  -27.5319  -18.8422   21.2611 C   0  0  0  0  0  0  0  0  0  0  0  0
  -25.7038  -15.4426   20.7604 C   0  0  0  0  0  0  0  0  0  0  0  0
  -27.5939  -18.3005   18.3762 C   0  0  0  0  0  0  0  0  0  0  0  0
  -28.1482  -17.5739   20.6750 C   0  0  0  0  0  0  0  0  0  0  0  0
  -26.8080  -13.5832   19.5605 C   0  0  0  0  0  0  0  0  0  0  0  0
  -24.5639  -31.2773   25.2353 C   0  0  1  0  0  0  0  0  0  0  0  0
  -24.4492  -31.4133   21.4403 C   0  0  1  0  0  0  0  0  0  0  0  0
  -25.4548  -13.0474   19.0678 C   0  0  1  0  0  0  0  0  0  0  0  0
  -27.5365  -20.0038   20.2658 C   0  0  0  0  0  0  0  0  0  0  0  0
  -27.8983  -22.9354   21.8708 C   0  0  0  0  0  0  0  0  0  0  0  0
  -30.1631  -24.4280   17.5511 C   0  0  0  0  0  0  0  0  0  0  0  0
  -20.4229  -30.8354   14.8480 C   0  0  0  0  0  0  0  0  0  0  0  0
  -20.1363  -29.7535   21.3763 C   0  0  0  0  0  0  0  0  0  0  0  0
  -19.1371  -29.4340   19.1030 C   0  0  0  0  0  0  0  0  0  0  0  0
  -19.3957  -31.7322   20.0381 C   0  0  0  0  0  0  0  0  0  0  0  0
  -30.1421  -21.4379   17.6635 C   0  0  0  0  0  0  0  0  0  0  0  0
  -24.1932  -31.2231   15.1806 C   0  0  0  0  0  0  0  0  0  0  0  0
  -28.7424  -25.5056   20.2128 C   0  0  0  0  0  0  0  0  0  1  0  0
  -21.4464  -30.4688   19.2696 C   0  0  1  0  0  0  0  0  0  0  0  0
  -21.7243  -31.1783   15.5563 C   0  0  2  0  0  0  0  0  0  0  0  0
  -20.0555  -30.3386   19.9522 C   0  0  0  0  0  0  0  0  0  0  0  0
  -25.1482  -10.7105   19.7929 N   0  0  0  0  0  0  0  0  0  0  0  0
  -29.5862  -22.2893   18.6942 N   0  0  0  0  0  0  0  0  0  0  0  0
  -25.4967  -11.5535   18.8061 N   0  0  0  0  0  0  0  0  0  0  0  0
  -23.5816  -30.7033   20.4983 N   0  0  0  0  0  0  0  0  0  0  0  0
  -26.7392  -15.0253   19.8055 N   0  0  0  0  0  0  0  0  0  0  0  0
  -27.5573  -17.2319   19.3741 N   0  0  0  0  0  0  0  0  0  0  0  0
  -26.2359  -11.6261   16.5569 N   0  0  0  0  0  0  0  0  0  0  0  0
  -25.8365   -7.2036   17.3802 N   0  0  0  0  0  0  0  0  0  0  0  0
  -24.7683  -31.5758   23.8340 N   0  0  0  0  0  0  0  0  0  0  0  0
  -21.4030  -31.0453   17.9302 N   0  0  0  0  0  0  0  0  0  0  0  0
  -22.8533  -30.9080   14.6218 N   0  3  0  0  0  0  0  0  0  0  0  0
  -26.4185   -8.7578   15.7977 O   0  0  0  0  0  0  0  0  0  0  0  0
  -23.2240  -30.0736   22.9501 O   0  0  0  0  0  0  0  0  0  0  0  0
  -22.1128  -32.5024   20.2928 O   0  0  0  0  0  0  0  0  0  0  0  0
  -22.3951  -29.2501   16.8484 O   0  0  0  0  0  0  0  0  0  0  0  0
  -27.8210  -15.5343   17.8336 O   0  0  0  0  0  0  0  0  0  0  0  0
  -24.1950   -4.8805   22.1702 O   0  0  0  0  0  0  0  0  0  0  0  0
  -27.3703  -25.8498   20.0253 O   0  0  0  0  0  0  0  0  0  1  0  0
  -28.8610  -20.5078   20.1079 O   0  0  0  0  0  0  0  0  0  0  0  0
  -19.5752   -4.7956   25.1792 F   0  0  0  0  0  0  0  0  0  0  0  0
  -22.2350   -2.9868   21.7066 F   0  0  0  0  0  0  0  0  0  0  0  0
  1  2  1  0  0  0  0
  1  5  2  0  0  0  0
  2  6  2  0  0  0  0
  3  8  2  0  0  0  0
  3 15  1  0  0  0  0
  4  9  1  0  0  0  0
  4 15  2  0  0  0  0
  5 17  1  0  0  0  0
  6 19  1  0  0  0  0
  7 10  2  0  0  0  0
  7 18  1  0  0  0  0
  8 23  1  0  0  0  0
  9 23  2  0  0  0  0
 10 24  1  0  0  0  0
 11 12  2  0  0  0  0
 11 25  1  0  0  0  0
 12 26  1  0  0  0  0
 13 20  1  0  0  0  0
 13 24  2  0  0  0  0
 14 26  2  0  0  0  0
 14 27  1  0  0  0  0
 15 28  1  0  0  0  0
 16 28  1  0  0  0  0
 16 30  2  0  0  0  0
 16 32  1  0  0  0  0
 17 19  2  0  0  0  0
 17 37  1  0  0  0  0
 18 20  2  0  0  0  0
 18 38  1  0  0  0  0
 19 50  1  0  0  0  0
 20 39  1  0  0  0  0
 21 22  1  0  0  0  0
 21 29  2  0  0  0  0
 21 62  1  0  0  0  0
 22 31  2  0  0  0  0
 22 54  1  0  0  0  0
 23 82  1  0  0  0  0
 24 83  1  0  0  0  0
 25 27  2  0  0  0  0
 25 82  1  0  0  0  0
 26 85  1  0  0  0  0
 27 86  1  0  0  0  0
 28 66  2  0  0  0  0
 29 55  1  0  0  0  0
 29 67  1  0  0  0  0
 30 68  1  0  0  0  0
 30 72  1  0  0  0  0
 31 67  1  0  0  0  0
 31 84  1  0  0  0  0
 32 73  1  0  0  0  0
 32 77  2  0  0  0  0
 33 51  1  0  0  0  0
 33 74  1  0  0  0  0
 33 78  2  0  0  0  0
 34 63  1  0  0  0  0
 34 69  1  0  0  0  0
 34 79  2  0  0  0  0
 35 64  1  0  0  0  0
 35 75  1  0  0  0  0
 35 80  2  0  0  0  0
 36 70  1  0  0  0  0
 36 71  1  0  0  0  0
 36 81  2  0  0  0  0
 37 40  1  0  0  0  0
 38 51  1  0  0  0  0
 39 69  1  0  0  0  0
 40 42  1  0  0  0  0
 41 43  1  0  0  0  0
 41 46  1  0  0  0  0
 42 50  1  0  0  0  0
 43 52  1  0  0  0  0
 44 47  1  0  0  0  0
 44 53  1  0  0  0  0
 45 48  1  0  0  0  0
 45 53  1  0  0  0  0
 46 70  1  0  0  0  0
 47 71  1  0  0  0  0
 48 71  1  0  0  0  0
 49 52  1  0  0  0  0
 49 70  1  0  0  0  0
 50 74  1  0  0  0  0
 51 69  1  0  0  0  0
 52 68  1  0  0  0  0
 53 84  1  0  0  0  0
 56 64  1  0  0  0  0
 57 65  1  0  0  0  0
 58 65  1  0  0  0  0
 59 65  1  0  0  0  0
 60 67  1  0  0  0  0
 61 76  1  0  0  0  0
 62 83  1  0  0  0  0
 63 65  1  0  0  0  0
 63 75  1  0  0  0  0
 64 76  1  0  0  0  0
 66 68  1  0  0  0  0
M  CHG  1  76   1
M  ISO  4  36 100  62 101  71 100  83 101
M  END
> <Batch ID>
0160

> <Smiles>
CNC(C)C(=O)NC(C(=O)N1Cc2cc([101O:1][101CH2:1]c3c(C)c(OC4CC[100N:0]([100C:0](=O)N5CCCC(n6nc(-c7ccc(Oc8ccc(F)cc8F)cc7)c(C(N)=O)c6N)C5)CC4)n(C)c3C)ccc2CC1C(=O)NC1CCCc2ccccc21)C(C)(C)C

> <Shape>
0.266

> <Color>
0.069

> <Negative vol penalty>
0.000

$$$$

  -OEChem-04052322093D

 87 96  0     1  0  0  0  0  0999 V2000
  -17.6653  -30.3382   20.7715 C   0  0  0  0  0  0  0  0  0  0  0  0
  -18.0328  -28.9964   20.7797 C   0  0  0  0  0  0  0  0  0  0  0  0
  -23.4441   -9.6143   20.6201 C   0  0  0  0  0  0  0  0  0  0  0  0
  -23.0910  -11.4234   22.1821 C   0  0  0  0  0  0  0  0  0  0  0  0
  -18.6332  -31.3259   20.9485 C   0  0  0  0  0  0  0  0  0  0  0  0
  -19.3687  -28.6417   20.9638 C   0  0  0  0  0  0  0  0  0  0  0  0
  -23.4322  -23.4996   23.8557 C   0  0  0  0  0  0  0  0  0  0  0  0
  -22.4867   -8.8508   21.2879 C   0  0  0  0  0  0  0  0  0  0  0  0
  -22.1336  -10.6599   22.8499 C   0  0  0  0  0  0  0  0  0  0  0  0
  -24.4806  -22.6419   23.5256 C   0  0  0  0  0  0  0  0  0  0  0  0
  -20.3932   -6.2897   22.7984 C   0  0  0  0  0  0  0  0  0  0  0  0
  -20.6957   -4.9540   23.0628 C   0  0  0  0  0  0  0  0  0  0  0  0
  -26.0544  -24.4313   23.9007 C   0  0  0  0  0  0  0  0  0  0  0  0
  -26.2813  -21.0391   18.9857 C   0  0  0  0  0  0  0  0  0  0  0  0
  -22.6099   -5.6453   24.3649 C   0  0  0  0  0  0  0  0  0  0  0  0
  -23.7464  -10.9006   21.0672 C   0  0  0  0  0  0  0  0  0  0  0  0
  -24.5204  -12.5746   19.3048 C   0  0  0  0  0  0  0  0  0  0  0  0
  -19.9802  -30.9829   21.1445 C   0  0  0  0  0  0  0  0  0  0  0  0
  -23.6865  -24.8347   24.2009 C   0  0  0  0  0  0  0  0  0  0  0  0
  -20.3558  -29.6259   21.1422 C   0  0  0  0  0  0  0  0  0  0  0  0
  -25.0077  -25.3031   24.2373 C   0  0  0  0  0  0  0  0  0  0  0  0
  -26.7962  -21.9632   19.9281 C   0  0  0  0  0  0  0  0  0  0  0  0
  -21.8314   -9.3736   22.4028 C   0  0  0  0  0  0  0  0  0  0  0  0
  -25.7917  -23.1085   23.5452 C   0  0  0  0  0  0  0  0  0  0  0  0
  -21.1990   -7.3033   23.3172 C   0  0  0  0  0  0  0  0  0  0  0  0
  -21.8040   -4.6318   23.8461 C   0  0  0  0  0  0  0  0  0  0  0  0
  -22.3073   -6.9811   24.1005 C   0  0  0  0  0  0  0  0  0  0  0  0
  -24.7357  -11.6896   20.3781 C   0  0  0  0  0  0  0  0  0  0  0  0
  -27.7997  -21.3254   20.6235 C   0  0  0  0  0  0  0  0  0  0  0  0
  -25.7675  -13.0708   19.0134 C   0  0  0  0  0  0  0  0  0  0  0  0
  -26.9856  -19.8647   19.1341 C   0  0  0  0  0  0  0  0  0  0  0  0
  -23.3019  -12.9176   18.6314 C   0  0  0  0  0  0  0  0  0  0  0  0
  -22.8862  -27.6586   22.9806 C   0  0  0  0  0  0  0  0  0  0  0  0
  -24.3249  -28.7871   25.6599 C   0  0  0  0  0  0  0  0  0  0  0  0
  -26.5760  -28.2769   28.1737 C   0  0  0  0  0  0  0  0  0  0  0  0
  -30.6504  -15.0784   20.4411 C   0  0  0  0  0  0  0  0  0  0  0  0
  -20.9977  -32.0873   21.2843 C   0  0  0  0  0  0  0  0  0  0  0  0
  -22.5467  -25.7398   24.5804 C   0  0  0  0  0  0  0  0  0  0  0  0
  -25.3356  -26.7222   24.6207 C   0  0  0  0  0  0  0  0  0  0  0  0
  -22.3357  -31.6152   21.8476 C   0  0  0  0  0  0  0  0  0  0  0  0
  -30.3492  -11.6366   20.5847 C   0  0  0  0  0  0  0  0  0  0  0  0
  -22.7917  -30.3413   21.1432 C   0  0  0  0  0  0  0  0  0  0  0  0
  -28.8444  -11.3993   20.4570 C   0  0  0  0  0  0  0  0  0  0  0  0
  -29.8682  -18.5732   19.5107 C   0  0  0  0  0  0  0  0  0  0  0  0
  -28.1778  -17.7767   21.2163 C   0  0  0  0  0  0  0  0  0  0  0  0
  -30.6393  -12.8324   21.4850 C   0  0  0  0  0  0  0  0  0  0  0  0
  -30.8366  -17.5005   20.0035 C   0  0  0  0  0  0  0  0  0  0  0  0
  -29.1844  -16.7243   21.6718 C   0  0  0  0  0  0  0  0  0  0  0  0
  -28.4709  -13.8730   20.9105 C   0  0  0  0  0  0  0  0  0  0  0  0
  -21.7911  -29.2005   21.3638 C   0  0  1  0  0  0  0  0  0  0  0  0
  -22.8793  -27.2198   24.4176 C   0  0  1  0  0  0  0  0  0  0  0  0
  -28.1211  -12.6786   20.0005 C   0  0  2  0  0  0  0  0  0  0  0  0
  -28.8901  -19.0026   20.6179 C   0  0  0  0  0  0  0  0  0  0  0  0
  -26.3365  -23.3525   20.1225 C   0  0  0  0  0  0  0  0  0  0  0  0
  -29.9959  -22.4144   21.1913 C   0  0  0  0  0  0  0  0  0  0  0  0
  -27.5611  -29.3949   30.1928 C   0  0  0  0  0  0  0  0  0  0  0  0
  -26.0440  -30.5395   23.8478 C   0  0  0  0  0  0  0  0  0  0  0  0
  -27.5980  -30.8912   25.7790 C   0  0  0  0  0  0  0  0  0  0  0  0
  -25.2324  -31.6687   25.9264 C   0  0  0  0  0  0  0  0  0  0  0  0
  -25.5654  -26.1625   29.9812 C   0  0  0  0  0  0  0  0  0  0  0  0
  -25.8937  -18.5842   17.4536 C   0  0  0  0  0  0  0  0  0  0  0  0
  -27.9723  -22.8639   22.6281 C   0  0  0  0  0  0  0  0  0  1  0  0
  -28.6666  -21.8207   21.7141 C   0  0  1  0  0  0  0  0  0  0  0  0
  -25.7317  -29.1924   26.0281 C   0  0  1  0  0  0  0  0  0  0  0  0
  -26.4698  -28.4706   29.6756 C   0  0  2  0  0  0  0  0  0  0  0  0
  -26.1455  -30.5467   25.3862 C   0  0  0  0  0  0  0  0  0  0  0  0
  -26.0187  -11.6250   20.7438 N   0  0  0  0  0  0  0  0  0  0  0  0
  -27.9057  -20.0502   20.1326 N   0  0  0  0  0  0  0  0  0  0  0  0
  -26.6209  -12.4757   19.8953 N   0  0  0  0  0  0  0  0  0  0  0  0
  -24.1862  -27.5703   24.9774 N   0  0  0  0  0  0  0  0  0  0  0  0
  -29.9291  -14.0248   21.0229 N   0  0  0  0  0  0  0  0  0  0  0  0
  -30.1232  -16.3709   20.5983 N   0  0  0  0  0  0  0  0  0  0  0  0
  -26.2065  -13.9536   18.0912 N   0  0  0  0  0  0  0  0  0  0  0  0
  -22.1104  -12.3156   19.0581 N   0  0  0  0  0  0  0  0  0  0  0  0
  -21.9533  -28.6344   22.6858 N   0  0  0  0  0  0  0  0  0  0  0  0
  -25.7921  -29.1788   27.4857 N   0  0  0  0  0  0  0  0  0  0  0  0
  -26.5917  -27.1612   30.3767 N   0  3  0  0  0  0  0  0  0  0  0  0
  -23.2732  -13.7214   17.6688 O   0  0  0  0  0  0  0  0  0  0  0  0
  -23.6801  -27.1505   22.1975 O   0  0  0  0  0  0  0  0  0  0  0  0
  -23.3830  -29.5197   25.9729 O   0  0  0  0  0  0  0  0  0  0  0  0
  -27.2863  -27.4143   27.6619 O   0  0  0  0  0  0  0  0  0  0  0  0
  -31.6982  -14.8789   19.8142 O   0  0  0  0  0  0  0  0  0  0  0  0
  -20.8969   -8.6289   23.0545 O   0  0  0  0  0  0  0  0  0  0  0  0
  -26.8236  -22.2682   23.2207 O   0  0  0  0  0  0  0  0  0  1  0  0
  -26.8859  -18.7071   18.4939 O   0  0  0  0  0  0  0  0  0  0  0  0
  -22.0936   -3.3491   24.1011 F   0  0  0  0  0  0  0  0  0  0  0  0
  -23.0845   -7.9504   24.6026 F   0  0  0  0  0  0  0  0  0  0  0  0
  1  2  1  0  0  0  0
  1  5  2  0  0  0  0
  2  6  2  0  0  0  0
  3  8  2  0  0  0  0
  3 16  1  0  0  0  0
  4  9  1  0  0  0  0
  4 16  2  0  0  0  0
  5 18  1  0  0  0  0
  6 20  1  0  0  0  0
  7 10  2  0  0  0  0
  7 19  1  0  0  0  0
  8 23  1  0  0  0  0
  9 23  2  0  0  0  0
 10 24  1  0  0  0  0
 11 12  2  0  0  0  0
 11 25  1  0  0  0  0
 12 26  1  0  0  0  0
 13 21  1  0  0  0  0
 13 24  2  0  0  0  0
 14 22  1  0  0  0  0
 14 31  2  0  0  0  0
 15 26  2  0  0  0  0
 15 27  1  0  0  0  0
 16 28  1  0  0  0  0
 17 28  1  0  0  0  0
 17 30  2  0  0  0  0
 17 32  1  0  0  0  0
 18 20  2  0  0  0  0
 18 37  1  0  0  0  0
 19 21  2  0  0  0  0
 19 38  1  0  0  0  0
 20 50  1  0  0  0  0
 21 39  1  0  0  0  0
 22 29  2  0  0  0  0
 22 54  1  0  0  0  0
 23 83  1  0  0  0  0
 24 84  1  0  0  0  0
 25 27  2  0  0  0  0
 25 83  1  0  0  0  0
 26 86  1  0  0  0  0
 27 87  1  0  0  0  0
 28 67  2  0  0  0  0
 29 63  1  0  0  0  0
 29 68  1  0  0  0  0
 30 69  1  0  0  0  0
 30 73  1  0  0  0  0
 31 68  1  0  0  0  0
 31 85  1  0  0  0  0
 32 74  1  0  0  0  0
 32 78  2  0  0  0  0
 33 51  1  0  0  0  0
 33 75  1  0  0  0  0
 33 79  2  0  0  0  0
 34 64  1  0  0  0  0
 34 70  1  0  0  0  0
 34 80  2  0  0  0  0
 35 65  1  0  0  0  0
 35 76  1  0  0  0  0
 35 81  2  0  0  0  0
 36 71  1  0  0  0  0
 36 72  1  0  0  0  0
 36 82  2  0  0  0  0
 37 40  1  0  0  0  0
 38 51  1  0  0  0  0
 39 70  1  0  0  0  0
 40 42  1  0  0  0  0
 41 43  1  0  0  0  0
 41 46  1  0  0  0  0
 42 50  1  0  0  0  0
 43 52  1  0  0  0  0
 44 47  1  0  0  0  0
 44 53  1  0  0  0  0
 45 48  1  0  0  0  0
 45 53  1  0  0  0  0
 46 71  1  0  0  0  0
 47 72  1  0  0  0  0
 48 72  1  0  0  0  0
 49 52  1  0  0  0  0
 49 71  1  0  0  0  0
 50 75  1  0  0  0  0
 51 70  1  0  0  0  0
 52 69  1  0  0  0  0
 53 68  1  0  0  0  0
 55 63  1  0  0  0  0
 56 65  1  0  0  0  0
 57 66  1  0  0  0  0
 58 66  1  0  0  0  0
 59 66  1  0  0  0  0
 60 77  1  0  0  0  0
 61 85  1  0  0  0  0
 62 63  1  0  0  0  0
 62 84  1  0  0  0  0
 64 66  1  0  0  0  0
 64 76  1  0  0  0  0
 65 77  1  0  0  0  0
 67 69  1  0  0  0  0
M  CHG  1  77   1
M  ISO  4  36 100  62 101  72 100  84 101
M  END
> <Batch ID>
0160

> <Smiles>
CNC(C)C(=O)NC(C(=O)N1Cc2cc([101O:1][101CH2:1]C(C)c3c(C)cc(OC)n3C3CC[100N:0]([100C:0](=O)N4CCCC(n5nc(-c6ccc(Oc7ccc(F)cc7F)cc6)c(C(N)=O)c5N)C4)CC3)ccc2CC1C(=O)NC1CCCc2ccccc21)C(C)(C)C

> <Shape>
0.247

> <Color>
0.086

> <Negative vol penalty>
0.000

$$$$

  -OEChem-04052322093D

 88 97  0     1  0  0  0  0  0999 V2000
  -16.5846  -27.1606   25.5694 C   0  0  0  0  0  0  0  0  0  0  0  0
  -17.5223  -26.3194   26.1598 C   0  0  0  0  0  0  0  0  0  0  0  0
  -23.1271   -9.7491   20.2116 C   0  0  0  0  0  0  0  0  0  0  0  0
  -23.7030  -10.1617   22.5214 C   0  0  0  0  0  0  0  0  0  0  0  0
  -16.8263  -27.6925   24.3035 C   0  0  0  0  0  0  0  0  0  0  0  0
  -18.7019  -26.0089   25.4841 C   0  0  0  0  0  0  0  0  0  0  0  0
  -25.6112  -24.5543   26.6934 C   0  0  0  0  0  0  0  0  0  0  0  0
  -22.3692   -8.6438   20.5980 C   0  0  0  0  0  0  0  0  0  0  0  0
  -22.9451   -9.0563   22.9078 C   0  0  0  0  0  0  0  0  0  0  0  0
  -26.5796  -23.5983   26.3903 C   0  0  0  0  0  0  0  0  0  0  0  0
  -19.6818   -8.3203   23.3868 C   0  0  0  0  0  0  0  0  0  0  0  0
  -18.8347   -8.4692   24.4849 C   0  0  0  0  0  0  0  0  0  0  0  0
  -29.5840  -18.1032   22.1333 C   0  0  0  0  0  0  0  0  0  0  0  0
  -26.9257  -24.6387   24.2416 C   0  0  0  0  0  0  0  0  0  0  0  0
  -31.7429  -17.5340   21.2030 C   0  0  0  0  0  0  0  0  0  0  0  0
  -20.0196   -6.7075   25.6378 C   0  0  0  0  0  0  0  0  0  0  0  0
  -23.7941  -10.5081   21.1733 C   0  0  0  0  0  0  0  0  0  0  0  0
  -30.0483  -19.3933   22.4032 C   0  0  0  0  0  0  0  0  0  0  0  0
  -24.1368  -12.9806   20.6471 C   0  0  0  0  0  0  0  0  0  0  0  0
  -18.0138  -27.3960   23.6160 C   0  0  0  0  0  0  0  0  0  0  0  0
  -25.2844  -25.5549   25.7669 C   0  0  0  0  0  0  0  0  0  0  0  0
  -18.9591  -26.5363   24.2073 C   0  0  0  0  0  0  0  0  0  0  0  0
  -25.9545  -25.6078   24.5364 C   0  0  0  0  0  0  0  0  0  0  0  0
  -32.2040  -18.8232   21.4706 C   0  0  0  0  0  0  0  0  0  0  0  0
  -30.4344  -17.1767   21.5291 C   0  0  0  0  0  0  0  0  0  0  0  0
  -31.3519  -19.7604   22.0569 C   0  0  0  0  0  0  0  0  0  0  0  0
  -22.2782   -8.2974   21.9461 C   0  0  0  0  0  0  0  0  0  0  0  0
  -27.2350  -23.6386   25.1632 C   0  0  0  0  0  0  0  0  0  0  0  0
  -20.6978   -7.3650   23.4142 C   0  0  0  0  0  0  0  0  0  0  0  0
  -19.0036   -7.6628   25.6104 C   0  0  0  0  0  0  0  0  0  0  0  0
  -20.8667   -6.5586   24.5397 C   0  0  0  0  0  0  0  0  0  0  0  0
  -24.5776  -11.6497   20.7747 C   0  0  0  0  0  0  0  0  0  0  0  0
  -25.2521  -13.6747   20.2459 C   0  0  0  0  0  0  0  0  0  0  0  0
  -29.1822  -20.3729   23.0936 C   0  0  0  0  0  0  0  0  0  0  0  0
  -22.8356  -13.5395   20.8712 C   0  0  0  0  0  0  0  0  0  0  0  0
  -22.6506  -26.3768   24.1885 C   0  0  0  0  0  0  0  0  0  0  0  0
  -24.4732  -28.8852   23.2353 C   0  0  0  0  0  0  0  0  0  0  0  0
  -27.5923  -30.1589   22.6916 C   0  0  0  0  0  0  0  0  0  0  0  0
  -30.6842  -14.8251   20.6608 C   0  0  0  0  0  0  0  0  0  0  0  0
  -18.2094  -27.9569   22.2297 C   0  0  0  0  0  0  0  0  0  0  0  0
  -24.2564  -26.5947   26.1198 C   0  0  0  0  0  0  0  0  0  0  0  0
  -25.6548  -26.6736   23.5153 C   0  0  0  0  0  0  0  0  0  0  0  0
  -19.6528  -27.8783   21.7390 C   0  0  0  0  0  0  0  0  0  0  0  0
  -29.7679  -12.0229   18.6644 C   0  0  0  0  0  0  0  0  0  0  0  0
  -20.2352  -26.4953   22.0128 C   0  0  0  0  0  0  0  0  0  0  0  0
  -28.2996  -11.7855   19.0250 C   0  0  0  0  0  0  0  0  0  0  0  0
  -30.5843  -12.4694   19.8760 C   0  0  0  0  0  0  0  0  0  0  0  0
  -28.5719  -13.3883   20.9599 C   0  0  0  0  0  0  0  0  0  0  0  0
  -30.8665  -22.0205   22.3758 C   0  0  0  0  0  0  0  0  0  0  0  0
  -20.2618  -26.1958   23.5165 C   0  0  1  0  0  0  0  0  0  0  0  0
  -29.8405  -21.6915   23.4549 C   0  0  1  0  0  0  0  0  0  0  0  0
  -23.6372  -27.2623   24.8957 C   0  0  1  0  0  0  0  0  0  0  0  0
  -27.6958  -12.9996   19.7578 C   0  0  2  0  0  0  0  0  0  0  0  0
  -28.7623  -32.2230   21.8745 C   0  0  0  0  0  0  0  0  0  0  0  0
  -23.7686  -28.1436   20.3607 C   0  0  0  0  0  0  0  0  0  0  0  0
  -25.6666  -29.5866   19.5968 C   0  0  0  0  0  0  0  0  0  0  0  0
  -23.7540  -30.5984   20.8382 C   0  0  0  0  0  0  0  0  0  0  0  0
  -35.6321  -17.0688   23.5889 C   0  0  0  0  0  0  0  0  0  0  0  0
  -28.9568  -30.5538   25.2880 C   0  0  0  0  0  0  0  0  0  0  0  0
  -28.8121  -22.8074   23.5891 C   0  0  0  0  0  0  0  0  0  1  0  0
  -34.6337  -18.9002   22.2148 C   0  0  0  0  0  0  0  0  0  0  0  0
  -33.6098  -19.1776   21.1093 C   0  0  1  0  0  0  0  0  0  0  0  0
  -25.4104  -29.1482   22.0814 C   0  0  1  0  0  0  0  0  0  0  0  0
  -28.2234  -31.4814   23.0879 C   0  0  2  0  0  0  0  0  0  0  0  0
  -24.6544  -29.3478   20.7375 C   0  0  0  0  0  0  0  0  0  0  0  0
  -25.8719  -11.5046   20.4784 N   0  0  0  0  0  0  0  0  0  0  0  0
  -26.2539  -12.7532   20.1605 N   0  0  0  0  0  0  0  0  0  0  0  0
  -24.6374  -27.6641   23.9045 N   0  0  0  0  0  0  0  0  0  0  0  0
  -29.9546  -13.6260   20.5168 N   0  0  0  0  0  0  0  0  0  0  0  0
  -25.4636  -14.9772   19.9612 N   0  0  0  0  0  0  0  0  0  0  0  0
  -21.8029  -12.6850   21.2806 N   0  0  0  0  0  0  0  0  0  0  0  0
  -29.9713  -15.8659   21.2551 N   0  0  0  0  0  0  0  0  0  0  0  0
  -21.3660  -26.8845   24.1495 N   0  0  0  0  0  0  0  0  0  0  0  0
  -26.2360  -30.2841   22.4770 N   0  0  0  0  0  0  0  0  0  0  0  0
  -34.6222  -17.4578   22.5680 N   0  3  0  0  0  0  0  0  0  0  0  0
  -29.3489  -31.2542   24.0379 N   0  3  0  0  0  0  0  0  0  0  0  0
  -28.0287  -20.0884   23.3936 O   0  0  0  0  0  0  0  0  0  0  0  0
  -22.5919  -14.7576   20.6973 O   0  0  0  0  0  0  0  0  0  0  0  0
  -23.0272  -25.3124   23.7120 O   0  0  0  0  0  0  0  0  0  0  0  0
  -23.6313  -29.7350   23.5364 O   0  0  0  0  0  0  0  0  0  0  0  0
  -28.2385  -29.1194   22.5798 O   0  0  0  0  0  0  0  0  0  0  0  0
  -31.8462  -14.9298   20.2600 O   0  0  0  0  0  0  0  0  0  0  0  0
  -31.8729  -21.0072   22.2866 O   0  0  0  0  0  0  0  0  0  0  0  0
  -21.5385   -7.2189   22.3235 O   0  0  0  0  0  0  0  0  0  0  0  0
  -28.1802  -22.7063   24.8646 O   0  0  0  0  0  0  0  0  0  1  0  0
  -18.1910   -7.8069   26.6654 F   0  0  0  0  0  0  0  0  0  0  0  0
  -21.8418   -5.6399   24.5723 F   0  0  0  0  0  0  0  0  0  0  0  0
  -34.0608  -18.5518   19.9730 F   0  0  0  0  0  0  0  0  0  0  0  0
  1  2  1  0  0  0  0
  1  5  2  0  0  0  0
  2  6  2  0  0  0  0
  3  8  2  0  0  0  0
  3 17  1  0  0  0  0
  4  9  1  0  0  0  0
  4 17  2  0  0  0  0
  5 20  1  0  0  0  0
  6 22  1  0  0  0  0
  7 10  2  0  0  0  0
  7 21  1  0  0  0  0
  8 27  1  0  0  0  0
  9 27  2  0  0  0  0
 10 28  1  0  0  0  0
 11 12  2  0  0  0  0
 11 29  1  0  0  0  0
 12 30  1  0  0  0  0
 13 18  2  0  0  0  0
 13 25  1  0  0  0  0
 14 23  1  0  0  0  0
 14 28  2  0  0  0  0
 15 24  1  0  0  0  0
 15 25  2  0  0  0  0
 16 30  2  0  0  0  0
 16 31  1  0  0  0  0
 17 32  1  0  0  0  0
 18 26  1  0  0  0  0
 18 34  1  0  0  0  0
 19 32  1  0  0  0  0
 19 33  2  0  0  0  0
 19 35  1  0  0  0  0
 20 22  2  0  0  0  0
 20 40  1  0  0  0  0
 21 23  2  0  0  0  0
 21 41  1  0  0  0  0
 22 50  1  0  0  0  0
 23 42  1  0  0  0  0
 24 26  2  0  0  0  0
 24 62  1  0  0  0  0
 25 72  1  0  0  0  0
 26 83  1  0  0  0  0
 27 84  1  0  0  0  0
 28 85  1  0  0  0  0
 29 31  2  0  0  0  0
 29 84  1  0  0  0  0
 30 86  1  0  0  0  0
 31 87  1  0  0  0  0
 32 66  2  0  0  0  0
 33 67  1  0  0  0  0
 33 70  1  0  0  0  0
 34 51  1  0  0  0  0
 34 77  2  0  0  0  0
 35 71  1  0  0  0  0
 35 78  2  0  0  0  0
 36 52  1  0  0  0  0
 36 73  1  0  0  0  0
 36 79  2  0  0  0  0
 37 63  1  0  0  0  0
 37 68  1  0  0  0  0
 37 80  2  0  0  0  0
 38 64  1  0  0  0  0
 38 74  1  0  0  0  0
 38 81  2  0  0  0  0
 39 69  1  0  0  0  0
 39 72  1  0  0  0  0
 39 82  2  0  0  0  0
 40 43  1  0  0  0  0
 41 52  1  0  0  0  0
 42 68  1  0  0  0  0
 43 45  1  0  0  0  0
 44 46  1  0  0  0  0
 44 47  1  0  0  0  0
 45 50  1  0  0  0  0
 46 53  1  0  0  0  0
 47 69  1  0  0  0  0
 48 53  1  0  0  0  0
 48 69  1  0  0  0  0
 49 51  1  0  0  0  0
 49 83  1  0  0  0  0
 50 73  1  0  0  0  0
 51 60  1  0  0  0  0
 52 68  1  0  0  0  0
 53 67  1  0  0  0  0
 54 64  1  0  0  0  0
 55 65  1  0  0  0  0
 56 65  1  0  0  0  0
 57 65  1  0  0  0  0
 58 75  1  0  0  0  0
 59 76  1  0  0  0  0
 60 85  1  0  0  0  0
 61 62  1  0  0  0  0
 61 75  1  0  0  0  0
 62 88  1  0  0  0  0
 63 65  1  0  0  0  0
 63 74  1  0  0  0  0
 64 76  1  0  0  0  0
 66 67  1  0  0  0  0
M  CHG  2  75   1  76   1
M  ISO  4  39 100  60 101  72 100  85 101
M  END
> <Batch ID>
0160

> <Smiles>
CNCC(F)c1cc([100NH:0][100C:0](=O)N2CCCC(n3nc(-c4ccc(Oc5ccc(F)cc5F)cc4)c(C(N)=O)c3N)C2)cc2c1OCC([101CH2:1][101O:1]c1ccc3c(c1)CN(C(=O)C(NC(=O)C(C)NC)C(C)(C)C)C(C(=O)NC1CCCc4ccccc41)C3)C2=O

> <Shape>
0.262

> <Color>
0.182

> <Negative vol penalty>
0.000

$$$$

  -OEChem-04052322093D

 87 96  0     1  0  0  0  0  0999 V2000
  -24.6222  -19.2027   25.4444 C   0  0  0  0  0  0  0  0  0  0  0  0
  -25.5967  -20.0956   25.0101 C   0  0  0  0  0  0  0  0  0  0  0  0
  -25.7663  -12.7378   21.4112 C   0  0  0  0  0  0  0  0  0  0  0  0
  -26.0949  -12.7197   19.0178 C   0  0  0  0  0  0  0  0  0  0  0  0
  -23.3126  -19.3222   24.9812 C   0  0  0  0  0  0  0  0  0  0  0  0
  -25.2622  -21.1080   24.1114 C   0  0  0  0  0  0  0  0  0  0  0  0
  -27.5984  -26.7653   23.9026 C   0  0  0  0  0  0  0  0  0  0  0  0
  -24.6654  -11.8935   21.2665 C   0  0  0  0  0  0  0  0  0  0  0  0
  -24.9940  -11.8754   18.8730 C   0  0  0  0  0  0  0  0  0  0  0  0
  -28.5940  -27.3404   23.1141 C   0  0  0  0  0  0  0  0  0  0  0  0
  -24.1033   -8.5977   20.7620 C   0  0  0  0  0  0  0  0  0  0  0  0
  -23.9970   -7.5156   21.6356 C   0  0  0  0  0  0  0  0  0  0  0  0
  -29.8430  -24.4763   17.0594 C   0  0  0  0  0  0  0  0  0  0  0  0
  -26.9077  -28.1772   21.6058 C   0  0  0  0  0  0  0  0  0  0  0  0
  -21.8817   -8.3675   22.4337 C   0  0  0  0  0  0  0  0  0  0  0  0
  -26.4810  -13.1510   20.2868 C   0  0  0  0  0  0  0  0  0  0  0  0
  -28.9609  -13.6455   20.6227 C   0  0  0  0  0  0  0  0  0  0  0  0
  -22.9599  -20.3425   24.0838 C   0  0  0  0  0  0  0  0  0  0  0  0
  -26.2484  -26.8827   23.5421 C   0  0  0  0  0  0  0  0  0  0  0  0
  -23.9470  -21.2405   23.6347 C   0  0  0  0  0  0  0  0  0  0  0  0
  -29.7839  -25.8546   17.3176 C   0  0  0  0  0  0  0  0  0  0  0  0
  -25.8967  -27.6048   22.3928 C   0  0  0  0  0  0  0  0  0  0  0  0
  -30.5531  -23.6343   17.8991 C   0  0  0  0  0  0  0  0  0  0  0  0
  -24.2793  -11.4623   19.9974 C   0  0  0  0  0  0  0  0  0  0  0  0
  -28.2489  -28.0441   21.9640 C   0  0  0  0  0  0  0  0  0  0  0  0
  -23.0988   -9.5649   20.7243 C   0  0  0  0  0  0  0  0  0  0  0  0
  -22.8863   -7.4004   22.4715 C   0  0  0  0  0  0  0  0  0  0  0  0
  -21.9880   -9.4497   21.5601 C   0  0  0  0  0  0  0  0  0  0  0  0
  -27.6179  -14.0235   20.4356 C   0  0  0  0  0  0  0  0  0  0  0  0
  -31.1867  -24.2063   18.9800 C   0  0  0  0  0  0  0  0  0  0  0  0
  -30.4572  -26.3647   18.4425 C   0  0  0  0  0  0  0  0  0  0  0  0
  -29.6438  -14.8342   20.7066 C   0  0  0  0  0  0  0  0  0  0  0  0
  -29.5396  -12.3367   20.7125 C   0  0  0  0  0  0  0  0  0  0  0  0
  -23.9475  -24.8317   22.7654 C   0  0  0  0  0  0  0  0  0  0  0  0
  -22.0960  -27.4950   22.8067 C   0  0  0  0  0  0  0  0  0  0  0  0
  -21.9002  -30.8917   22.5415 C   0  0  0  0  0  0  0  0  0  0  0  0
  -29.6192  -20.0306   18.3808 C   0  0  0  0  0  0  0  0  0  0  0  0
  -21.5417  -20.4028   23.5742 C   0  0  0  0  0  0  0  0  0  0  0  0
  -25.1846  -26.2792   24.4178 C   0  0  0  0  0  0  0  0  0  0  0  0
  -24.4605  -27.7771   21.9730 C   0  0  0  0  0  0  0  0  0  0  0  0
  -21.1880  -21.7325   22.9131 C   0  0  0  0  0  0  0  0  0  0  0  0
  -28.3955  -19.5049   21.7458 C   0  0  0  0  0  0  0  0  0  0  0  0
  -22.2881  -22.1567   21.9452 C   0  0  0  0  0  0  0  0  0  0  0  0
  -28.2013  -17.9877   21.7653 C   0  0  0  0  0  0  0  0  0  0  0  0
  -28.0203  -20.0929   20.3888 C   0  0  0  0  0  0  0  0  0  0  0  0
  -29.8504  -28.6732   17.7768 C   0  0  0  0  0  0  0  0  0  0  0  0
  -28.5495  -17.9715   19.2517 C   0  0  0  0  0  0  0  0  0  0  0  0
  -29.0134  -26.7513   16.3683 C   0  0  1  0  0  0  0  0  0  0  0  0
  -23.6178  -22.3670   22.6794 C   0  0  1  0  0  0  0  0  0  0  0  0
  -23.8754  -26.0236   23.6775 C   0  0  1  0  0  0  0  0  0  0  0  0
  -28.6416  -28.0919   17.0367 C   0  0  1  0  0  0  0  0  0  0  0  0
  -28.9335  -17.3139   20.5897 C   0  0  2  0  0  0  0  0  0  0  0  0
  -31.9719  -23.3620   19.9292 C   0  0  0  0  0  0  0  0  0  0  0  0
  -29.8291  -26.9763   15.0871 C   0  0  0  0  0  0  0  0  0  0  0  0
  -27.4334  -27.9423   17.9727 C   0  0  0  0  0  0  0  0  0  0  0  0
  -20.2463  -32.7786   22.5811 C   0  0  0  0  0  0  0  0  0  0  0  0
  -21.1911  -26.7577   19.9876 C   0  0  0  0  0  0  0  0  0  0  0  0
  -20.3292  -29.0940   19.7283 C   0  0  0  0  0  0  0  0  0  0  0  0
  -19.3703  -27.6000   21.4808 C   0  0  0  0  0  0  0  0  0  0  0  0
  -23.2002  -32.1357   24.8913 C   0  0  0  0  0  0  0  0  0  0  0  0
  -30.6134  -22.1732   17.6206 C   0  0  0  0  0  0  0  0  0  0  0  0
  -31.1866  -28.2350   19.8508 C   0  0  0  0  0  0  0  0  0  0  0  0
  -30.4902  -27.9598   21.1731 C   0  0  0  0  0  0  0  0  0  1  0  0
  -21.6984  -28.5365   21.7888 C   0  0  1  0  0  0  0  0  0  0  0  0
  -21.2051  -31.9309   23.4026 C   0  0  2  0  0  0  0  0  0  0  0  0
  -20.6745  -27.9923   20.7530 C   0  0  0  0  0  0  0  0  0  0  0  0
  -27.4550  -15.3488   20.4028 N   0  0  0  0  0  0  0  0  0  0  0  0
  -31.1515  -25.5275   19.2639 N   0  0  0  0  0  0  0  0  0  0  0  0
  -28.7047  -15.8139   20.5704 N   0  0  0  0  0  0  0  0  0  0  0  0
  -30.3904  -27.7263   18.7454 N   0  0  2  0  0  0  0  0  0  0  0  0
  -23.4573  -27.1633   22.8587 N   0  0  0  0  0  0  0  0  0  0  0  0
  -28.7655  -19.4208   19.3150 N   0  0  0  0  0  0  0  0  0  0  0  0
  -30.9498  -15.1266   20.8829 N   0  0  0  0  0  0  0  0  0  0  0  0
  -28.6944  -11.2238   20.6056 N   0  0  0  0  0  0  0  0  0  0  0  0
  -23.6162  -23.6364   23.3744 N   0  0  0  0  0  0  0  0  0  0  0  0
  -21.2255  -29.6893   22.5477 N   0  0  0  0  0  0  0  0  0  0  0  0
  -29.7640  -21.4069   18.5051 N   0  0  0  0  0  0  0  0  0  0  0  0
  -22.2076  -32.8344   24.0348 N   0  3  0  0  0  0  0  0  0  0  0  0
  -30.7673  -12.1596   20.8988 O   0  0  0  0  0  0  0  0  0  0  0  0
  -24.2777  -24.9854   21.5954 O   0  0  0  0  0  0  0  0  0  0  0  0
  -21.2317  -26.9993   23.5340 O   0  0  0  0  0  0  0  0  0  0  0  0
  -22.9359  -31.1246   21.9222 O   0  0  0  0  0  0  0  0  0  0  0  0
  -30.2132  -19.3945   17.5034 O   0  0  0  0  0  0  0  0  0  0  0  0
  -23.2053  -10.6382   19.8559 O   0  0  0  0  0  0  0  0  0  0  0  0
  -29.2256  -28.6098   21.1868 O   0  0  0  0  0  0  0  0  0  1  0  0
  -22.7836   -6.3603   23.3092 F   0  0  0  0  0  0  0  0  0  0  0  0
  -21.0192  -10.3750   21.5275 F   0  0  0  0  0  0  0  0  0  0  0  0
  1  2  1  0  0  0  0
  1  5  2  0  0  0  0
  2  6  2  0  0  0  0
  3  8  2  0  0  0  0
  3 16  1  0  0  0  0
  4  9  1  0  0  0  0
  4 16  2  0  0  0  0
  5 18  1  0  0  0  0
  6 20  1  0  0  0  0
  7 10  2  0  0  0  0
  7 19  1  0  0  0  0
  8 24  1  0  0  0  0
  9 24  2  0  0  0  0
 10 25  1  0  0  0  0
 11 12  2  0  0  0  0
 11 26  1  0  0  0  0
 12 27  1  0  0  0  0
 13 21  1  0  0  0  0
 13 23  2  0  0  0  0
 14 22  1  0  0  0  0
 14 25  2  0  0  0  0
 15 27  2  0  0  0  0
 15 28  1  0  0  0  0
 16 29  1  0  0  0  0
 17 29  1  0  0  0  0
 17 32  2  0  0  0  0
 17 33  1  0  0  0  0
 18 20  2  0  0  0  0
 18 38  1  0  0  0  0
 19 22  2  0  0  0  0
 19 39  1  0  0  0  0
 20 49  1  0  0  0  0
 21 31  2  0  0  0  0
 21 48  1  0  0  0  0
 22 40  1  0  0  0  0
 23 30  1  0  0  0  0
 23 61  1  0  0  0  0
 24 84  1  0  0  0  0
 25 85  1  0  0  0  0
 26 28  2  0  0  0  0
 26 84  1  0  0  0  0
 27 86  1  0  0  0  0
 28 87  1  0  0  0  0
 29 67  2  0  0  0  0
 30 53  1  0  0  0  0
 30 68  2  0  0  0  0
 31 68  1  0  0  0  0
 31 70  1  0  0  0  0
 32 69  1  0  0  0  0
 32 73  1  0  0  0  0
 33 74  1  0  0  0  0
 33 79  2  0  0  0  0
 34 50  1  0  0  0  0
 34 75  1  0  0  0  0
 34 80  2  0  0  0  0
 35 64  1  0  0  0  0
 35 71  1  0  0  0  0
 35 81  2  0  0  0  0
 36 65  1  0  0  0  0
 36 76  1  0  0  0  0
 36 82  2  0  0  0  0
 37 72  1  0  0  0  0
 37 77  1  0  0  0  0
 37 83  2  0  0  0  0
 38 41  1  0  0  0  0
 39 50  1  0  0  0  0
 40 71  1  0  0  0  0
 41 43  1  0  0  0  0
 42 44  1  0  0  0  0
 42 45  1  0  0  0  0
 43 49  1  0  0  0  0
 44 52  1  0  0  0  0
 45 72  1  0  0  0  0
 46 51  1  0  0  0  0
 46 70  1  0  0  0  0
 47 52  1  0  0  0  0
 47 72  1  0  0  0  0
 48 51  1  0  0  0  0
 48 54  1  0  0  0  0
 49 75  1  0  0  0  0
 50 71  1  0  0  0  0
 51 55  1  0  0  0  0
 52 69  1  0  0  0  0
 56 65  1  0  0  0  0
 57 66  1  0  0  0  0
 58 66  1  0  0  0  0
 59 66  1  0  0  0  0
 60 78  1  0  0  0  0
 61 77  1  0  0  0  0
 62 63  1  0  0  0  0
 62 70  1  0  0  0  0
 63 85  1  0  0  0  0
 64 66  1  0  0  0  0
 64 76  1  0  0  0  0
 65 78  1  0  0  0  0
 67 69  1  0  0  0  0
M  CHG  1  78   1
M  ISO  4  37 100  63 101  77 100  85 101
M  END
> <Batch ID>
0160

> <Smiles>
CNC(C)C(=O)NC(C(=O)N1Cc2cc([101O:1][101CH2:1]CN3CC(C)C(C)c4cc(C[100NH:0][100C:0](=O)N5CCCC(n6nc(-c7ccc(Oc8ccc(F)cc8F)cc7)c(C(N)=O)c6N)C5)c(C)nc43)ccc2CC1C(=O)NC1CCCc2ccccc21)C(C)(C)C

> <Shape>
0.252

> <Color>
0.057

> <Negative vol penalty>
0.000

$$$$

  -OEChem-04052322093D

 91101  0     1  0  0  0  0  0999 V2000
  -32.3499  -27.2480   13.7457 C   0  0  0  0  0  0  0  0  0  0  0  0
  -32.7778  -27.5625   15.0306 C   0  0  0  0  0  0  0  0  0  0  0  0
  -25.6769  -15.0872   20.6174 C   0  0  0  0  0  0  0  0  0  0  0  0
  -23.5282  -14.4488   19.7160 C   0  0  0  0  0  0  0  0  0  0  0  0
  -31.0009  -27.3624   13.4169 C   0  0  0  0  0  0  0  0  0  0  0  0
  -31.8551  -27.9800   15.9904 C   0  0  0  0  0  0  0  0  0  0  0  0
  -27.5106  -29.5708   22.9184 C   0  0  0  0  0  0  0  0  0  0  0  0
  -26.0351  -13.7428   20.7158 C   0  0  0  0  0  0  0  0  0  0  0  0
  -23.8864  -13.1043   19.8143 C   0  0  0  0  0  0  0  0  0  0  0  0
  -26.1539  -29.6205   23.2355 C   0  0  0  0  0  0  0  0  0  0  0  0
  -24.0760  -10.7469   22.2303 C   0  0  0  0  0  0  0  0  0  0  0  0
  -23.1359   -9.8628   22.7597 C   0  0  0  0  0  0  0  0  0  0  0  0
  -21.8475  -25.6881   18.3050 C   0  0  0  0  0  0  0  0  0  0  0  0
  -19.2208  -25.2509   19.2584 C   0  0  0  0  0  0  0  0  0  0  0  0
  -25.7650  -27.6854   21.8486 C   0  0  0  0  0  0  0  0  0  0  0  0
  -23.1546   -8.6071   20.6957 C   0  0  0  0  0  0  0  0  0  0  0  0
  -24.4234  -15.4403   20.1175 C   0  0  0  0  0  0  0  0  0  0  0  0
  -24.7003  -17.8293   19.2669 C   0  0  0  0  0  0  0  0  0  0  0  0
  -30.0637  -27.7935   14.3702 C   0  0  0  0  0  0  0  0  0  0  0  0
  -28.0038  -28.5829   22.0539 C   0  0  0  0  0  0  0  0  0  0  0  0
  -30.4856  -28.0788   15.6847 C   0  0  0  0  0  0  0  0  0  0  0  0
  -21.2222  -26.6128   19.1242 C   0  0  0  0  0  0  0  0  0  0  0  0
  -19.9229  -26.3953   19.6004 C   0  0  0  0  0  0  0  0  0  0  0  0
  -27.1288  -27.6238   21.5242 C   0  0  0  0  0  0  0  0  0  0  0  0
  -21.1435  -24.5357   17.9497 C   0  0  0  0  0  0  0  0  0  0  0  0
  -19.8395  -24.3189   18.4224 C   0  0  0  0  0  0  0  0  0  0  0  0
  -25.1399  -12.7513   20.3142 C   0  0  0  0  0  0  0  0  0  0  0  0
  -25.2803  -28.6795   22.6982 C   0  0  0  0  0  0  0  0  0  0  0  0
  -24.5553  -10.5611   20.9336 C   0  0  0  0  0  0  0  0  0  0  0  0
  -22.6753   -8.7929   21.9924 C   0  0  0  0  0  0  0  0  0  0  0  0
  -24.0947   -9.4912   20.1663 C   0  0  0  0  0  0  0  0  0  0  0  0
  -24.0525  -16.8289   20.0162 C   0  0  0  0  0  0  0  0  0  0  0  0
  -23.9652  -18.9652   19.5030 C   0  0  0  0  0  0  0  0  0  0  0  0
  -25.8624  -17.7397   18.4321 C   0  0  0  0  0  0  0  0  0  0  0  0
  -29.4493  -28.5977   19.2231 C   0  0  0  0  0  0  0  0  0  0  0  0
  -29.7160  -25.4129   19.7786 C   0  0  0  0  0  0  0  0  0  0  0  0
  -27.6300  -22.7889   21.1131 C   0  0  0  0  0  0  0  0  0  0  0  0
  -19.0535  -21.5664   20.0075 C   0  0  0  0  0  0  0  0  0  0  0  0
  -28.6148  -27.8920   13.9626 C   0  0  0  0  0  0  0  0  0  0  0  0
  -29.4744  -28.5267   21.7430 C   0  0  0  0  0  0  0  0  0  0  0  0
  -21.7819  -27.8916   19.6631 C   0  0  0  0  0  0  0  0  0  0  0  0
  -27.6114  -26.5307   20.6073 C   0  0  0  0  0  0  0  0  0  0  0  0
  -27.7893  -28.7601   14.9067 C   0  0  0  0  0  0  0  0  0  0  0  0
  -20.4998  -28.6115   20.1157 C   0  0  0  0  0  0  0  0  0  0  0  0
  -20.3117  -19.8800   22.8797 C   0  0  0  0  0  0  0  0  0  0  0  0
  -28.0375  -28.3417   16.3482 C   0  0  0  0  0  0  0  0  0  0  0  0
  -21.4457  -19.0142   22.3280 C   0  0  0  0  0  0  0  0  0  0  0  0
  -17.7265  -27.5937   22.8702 C   0  0  0  0  0  0  0  0  0  0  0  0
  -19.1435  -19.9710   21.9004 C   0  0  0  0  0  0  0  0  0  0  0  0
  -18.4086  -26.3392   22.3077 C   0  0  0  0  0  0  0  0  0  0  0  0
  -20.6417  -19.5481   19.9898 C   0  0  0  0  0  0  0  0  0  0  0  0
  -19.4859  -27.5158   20.4952 C   0  0  2  0  0  0  0  0  0  0  0  0
  -29.5047  -28.5643   16.7366 C   0  0  1  0  0  0  0  0  0  0  0  0
  -29.7827  -27.7882   20.4442 C   0  0  1  0  0  0  0  0  0  0  0  0
  -21.8658  -19.4720   20.9183 C   0  0  2  0  0  0  0  0  0  0  0  0
  -19.1061  -28.2725   22.7624 C   0  0  1  0  0  0  0  0  0  0  0  0
  -21.8066  -23.5338   17.0607 C   0  0  0  0  0  0  0  0  0  0  0  0
  -28.2421  -20.6414   22.2580 C   0  0  0  0  0  0  0  0  0  0  0  0
  -19.2190  -29.2320   25.0975 C   0  0  0  0  0  0  0  0  0  0  0  0
  -29.5007  -24.2004   16.9869 C   0  0  0  0  0  0  0  0  0  0  0  0
  -28.4686  -22.1691   18.0245 C   0  0  0  0  0  0  0  0  0  0  0  0
  -30.7993  -22.8262   18.6238 C   0  0  0  0  0  0  0  0  0  0  0  0
  -25.9718  -23.4410   23.4761 C   0  0  0  0  0  0  0  0  0  0  0  0
  -19.0881  -23.0836   18.0438 C   0  0  0  0  0  0  0  0  0  0  0  0
  -22.2919  -28.6410   24.7398 C   0  0  0  0  0  0  0  0  0  0  0  0
  -23.6037  -29.2500   24.2855 C   0  0  0  0  0  0  0  0  0  1  0  0
  -28.8624  -24.2020   19.4886 C   0  0  1  0  0  0  0  0  0  0  0  0
  -27.7985  -22.0837   22.4468 C   0  0  2  0  0  0  0  0  0  0  0  0
  -19.9057  -28.3640   24.0554 C   0  0  2  0  0  0  0  0  0  0  0  0
  -29.3962  -23.3751   18.2849 C   0  0  0  0  0  0  0  0  0  0  0  0
  -22.9879  -17.2889   20.6789 N   0  0  0  0  0  0  0  0  0  0  0  0
  -22.9612  -18.5909   20.3468 N   0  0  0  0  0  0  0  0  0  0  0  0
  -29.0569  -26.5217   20.3282 N   0  0  0  0  0  0  0  0  0  0  0  0
  -19.6091  -20.4119   20.5833 N   0  0  0  0  0  0  0  0  0  0  0  0
  -19.5763  -27.1535   21.9102 N   0  0  1  0  0  0  0  0  0  0  0  0
  -24.0862  -20.2379   19.0692 N   0  0  0  0  0  0  0  0  0  0  0  0
  -25.6884  -17.4362   17.0749 N   0  0  0  0  0  0  0  0  0  0  0  0
  -29.7465  -27.9656   18.0307 N   0  0  0  0  0  0  0  0  0  0  0  0
  -28.7787  -23.4530   20.7378 N   0  0  0  0  0  0  0  0  0  0  0  0
  -19.5555  -21.9179   18.7605 N   0  0  0  0  0  0  0  0  0  0  0  0
  -26.5124  -22.0852   23.1996 N   0  3  0  0  0  0  0  0  0  0  0  0
  -21.2344  -28.9587   23.7473 N   0  3  0  0  0  0  0  0  0  0  0  0
  -27.0222  -17.9072   18.8799 O   0  0  0  0  0  0  0  0  0  0  0  0
  -28.9575  -29.7125   19.3529 O   0  0  0  0  0  0  0  0  0  0  0  0
  -30.9242  -25.3739   19.5333 O   0  0  0  0  0  0  0  0  0  0  0  0
  -26.5853  -22.7511   20.4669 O   0  0  0  0  0  0  0  0  0  0  0  0
  -18.1789  -22.2374   20.5660 O   0  0  0  0  0  0  0  0  0  0  0  0
  -25.4892  -11.4393   20.4098 O   0  0  0  0  0  0  0  0  0  0  0  0
  -23.9555  -28.7262   23.0055 O   0  0  0  0  0  0  0  0  0  1  0  0
  -21.7737   -7.9430   22.5015 F   0  0  0  0  0  0  0  0  0  0  0  0
  -24.5524   -9.3069   18.9204 F   0  0  0  0  0  0  0  0  0  0  0  0
  1  2  1  0  0  0  0
  1  5  2  0  0  0  0
  2  6  2  0  0  0  0
  3  8  2  0  0  0  0
  3 17  1  0  0  0  0
  4  9  1  0  0  0  0
  4 17  2  0  0  0  0
  5 19  1  0  0  0  0
  6 21  1  0  0  0  0
  7 10  2  0  0  0  0
  7 20  1  0  0  0  0
  8 27  1  0  0  0  0
  9 27  2  0  0  0  0
 10 28  1  0  0  0  0
 11 12  2  0  0  0  0
 11 29  1  0  0  0  0
 12 30  1  0  0  0  0
 13 22  1  0  0  0  0
 13 25  2  0  0  0  0
 14 23  1  0  0  0  0
 14 26  2  0  0  0  0
 15 24  1  0  0  0  0
 15 28  2  0  0  0  0
 16 30  2  0  0  0  0
 16 31  1  0  0  0  0
 17 32  1  0  0  0  0
 18 32  1  0  0  0  0
 18 33  2  0  0  0  0
 18 34  1  0  0  0  0
 19 21  2  0  0  0  0
 19 39  1  0  0  0  0
 20 24  2  0  0  0  0
 20 40  1  0  0  0  0
 21 53  1  0  0  0  0
 22 23  2  0  0  0  0
 22 41  1  0  0  0  0
 23 52  1  0  0  0  0
 24 42  1  0  0  0  0
 25 26  1  0  0  0  0
 25 57  1  0  0  0  0
 26 64  1  0  0  0  0
 27 88  1  0  0  0  0
 28 89  1  0  0  0  0
 29 31  2  0  0  0  0
 29 88  1  0  0  0  0
 30 90  1  0  0  0  0
 31 91  1  0  0  0  0
 32 71  2  0  0  0  0
 33 72  1  0  0  0  0
 33 76  1  0  0  0  0
 34 77  1  0  0  0  0
 34 83  2  0  0  0  0
 35 54  1  0  0  0  0
 35 78  1  0  0  0  0
 35 84  2  0  0  0  0
 36 67  1  0  0  0  0
 36 73  1  0  0  0  0
 36 85  2  0  0  0  0
 37 68  1  0  0  0  0
 37 79  1  0  0  0  0
 37 86  2  0  0  0  0
 38 74  1  0  0  0  0
 38 80  1  0  0  0  0
 38 87  2  0  0  0  0
 39 43  1  0  0  0  0
 40 54  1  0  0  0  0
 41 44  1  0  0  0  0
 42 73  1  0  0  0  0
 43 46  1  0  0  0  0
 44 52  1  0  0  0  0
 45 47  1  0  0  0  0
 45 49  1  0  0  0  0
 46 53  1  0  0  0  0
 47 55  1  0  0  0  0
 48 50  1  0  0  0  0
 48 56  1  0  0  0  0
 49 74  1  0  0  0  0
 50 75  1  0  0  0  0
 51 55  1  0  0  0  0
 51 74  1  0  0  0  0
 52 75  1  0  0  0  0
 53 78  1  0  0  0  0
 54 73  1  0  0  0  0
 55 72  1  0  0  0  0
 56 69  1  0  0  0  0
 56 75  1  0  0  0  0
 58 68  1  0  0  0  0
 59 69  1  0  0  0  0
 60 70  1  0  0  0  0
 61 70  1  0  0  0  0
 62 70  1  0  0  0  0
 63 81  1  0  0  0  0
 64 80  1  0  0  0  0
 65 66  1  0  0  0  0
 65 82  1  0  0  0  0
 66 89  1  0  0  0  0
 67 70  1  0  0  0  0
 67 79  1  0  0  0  0
 68 81  1  0  0  0  0
 69 82  1  0  0  0  0
 71 72  1  0  0  0  0
M  CHG  2  81   1  82   1
M  ISO  4  38 100  66 101  80 100  89 101
M  END
> <Batch ID>
0160

> <Smiles>
CNC(C)C(=O)NC(C(=O)N1Cc2cc([101O:1][101CH2:1]CNC(C)C3CCN3C3CCc4cc(C)c(C[100NH:0][100C:0](=O)N5CCCC(n6nc(-c7ccc(Oc8ccc(F)cc8F)cc7)c(C(N)=O)c6N)C5)cc43)ccc2CC1C(=O)NC1CCCc2ccccc21)C(C)(C)C

> <Shape>
0.200

> <Color>
0.070

> <Negative vol penalty>
0.000

$$$$

  -OEChem-04052322093D

 88 98  0     1  0  0  0  0  0999 V2000
  -19.7075  -11.9770   14.4687 C   0  0  0  0  0  0  0  0  0  0  0  0
  -20.0233  -13.2659   14.8865 C   0  0  0  0  0  0  0  0  0  0  0  0
  -28.8313  -26.4599   19.2874 C   0  0  0  0  0  0  0  0  0  0  0  0
  -26.8252  -25.1142   19.3282 C   0  0  0  0  0  0  0  0  0  0  0  0
  -19.7850  -10.9151   15.3688 C   0  0  0  0  0  0  0  0  0  0  0  0
  -20.4158  -13.4937   16.2050 C   0  0  0  0  0  0  0  0  0  0  0  0
  -24.5004  -17.6114   18.1713 C   0  0  0  0  0  0  0  0  0  0  0  0
  -29.5993  -25.3096   19.1072 C   0  0  0  0  0  0  0  0  0  0  0  0
  -27.5932  -23.9638   19.1479 C   0  0  0  0  0  0  0  0  0  0  0  0
  -24.3584  -18.8852   18.7200 C   0  0  0  0  0  0  0  0  0  0  0  0
  -29.0550  -20.6374   19.0591 C   0  0  0  0  0  0  0  0  0  0  0  0
  -28.7606  -19.5300   19.8546 C   0  0  0  0  0  0  0  0  0  0  0  0
  -20.1623  -26.4705   23.4810 C   0  0  0  0  0  0  0  0  0  0  0  0
  -24.5148  -17.9420   20.9348 C   0  0  0  0  0  0  0  0  0  0  0  0
  -19.0248  -28.6248   23.3757 C   0  0  0  0  0  0  0  0  0  0  0  0
  -29.2326  -20.8284   21.8367 C   0  0  0  0  0  0  0  0  0  0  0  0
  -27.4442  -26.3622   19.3979 C   0  0  0  0  0  0  0  0  0  0  0  0
  -26.0855  -28.3613   18.5823 C   0  0  0  0  0  0  0  0  0  0  0  0
  -20.1880  -11.1285   16.6965 C   0  0  0  0  0  0  0  0  0  0  0  0
  -24.6399  -16.4902   19.0018 C   0  0  0  0  0  0  0  0  0  0  0  0
  -20.4975  -12.4338   17.1241 C   0  0  0  0  0  0  0  0  0  0  0  0
  -19.2506  -26.0133   22.5583 C   0  0  0  0  0  0  0  0  0  0  0  0
  -24.6609  -16.6554   20.3940 C   0  0  0  0  0  0  0  0  0  0  0  0
  -18.2557  -26.8184   22.0551 C   0  0  0  0  0  0  0  0  0  0  0  0
  -20.0432  -27.8004   23.8925 C   0  0  0  0  0  0  0  0  0  0  0  0
  -18.1123  -28.1304   22.4403 C   0  0  0  0  0  0  0  0  0  0  0  0
  -28.9803  -24.0616   19.0374 C   0  0  0  0  0  0  0  0  0  0  0  0
  -24.3627  -19.0503   20.1020 C   0  0  0  0  0  0  0  0  0  0  0  0
  -29.4382  -21.8402   19.6524 C   0  0  0  0  0  0  0  0  0  0  0  0
  -28.8493  -19.6256   21.2433 C   0  0  0  0  0  0  0  0  0  0  0  0
  -29.5270  -21.9357   21.0412 C   0  0  0  0  0  0  0  0  0  0  0  0
  -26.6503  -27.5501   19.5847 C   0  0  0  0  0  0  0  0  0  0  0  0
  -25.4326  -29.3539   19.2714 C   0  0  0  0  0  0  0  0  0  0  0  0
  -26.1456  -28.2293   17.1559 C   0  0  0  0  0  0  0  0  0  0  0  0
  -22.9511  -13.8437   19.4999 C   0  0  0  0  0  0  0  0  0  0  0  0
  -25.4790  -13.0492   21.3710 C   0  0  0  0  0  0  0  0  0  0  0  0
  -28.1408  -14.0864   23.2380 C   0  0  0  0  0  0  0  0  0  0  0  0
  -23.1205  -29.6462   24.7868 C   0  0  0  0  0  0  0  0  0  0  0  0
  -20.2112   -9.9564   17.6454 C   0  0  0  0  0  0  0  0  0  0  0  0
  -24.8187  -15.1261   18.3938 C   0  0  0  0  0  0  0  0  0  0  0  0
  -17.6944  -25.7395   21.1736 C   0  0  0  0  0  0  0  0  0  0  0  0
  -24.8280  -15.4864   21.3289 C   0  0  0  0  0  0  0  0  0  0  0  0
  -20.9966  -10.2253   18.9264 C   0  0  0  0  0  0  0  0  0  0  0  0
  -25.5984  -31.7863   23.3881 C   0  0  0  0  0  0  0  0  0  0  0  0
  -20.6143  -11.5807   19.5125 C   0  0  0  0  0  0  0  0  0  0  0  0
  -21.8287  -21.4939   21.8412 C   0  0  0  0  0  0  0  0  0  0  0  0
  -26.0980  -31.0165   22.1643 C   0  0  0  0  0  0  0  0  0  0  0  0
  -20.5743  -22.3703   21.9166 C   0  0  0  0  0  0  0  0  0  0  0  0
  -21.9274  -23.2483   20.1576 C   0  0  0  0  0  0  0  0  0  0  0  0
  -25.2725  -30.8498   24.5495 C   0  0  0  0  0  0  0  0  0  0  0  0
  -24.8394  -28.9861   22.9962 C   0  0  0  0  0  0  0  0  0  0  0  0
  -20.9511  -12.7172   18.5397 C   0  0  1  0  0  0  0  0  0  0  0  0
  -18.8193  -24.8169   21.7603 C   0  0  1  0  0  0  0  0  0  0  0  0
  -24.4379  -13.9942   19.3430 C   0  0  1  0  0  0  0  0  0  0  0  0
  -22.7857  -22.1945   20.8613 C   0  0  2  0  0  0  0  0  0  0  0  0
  -25.1279  -29.8831   21.7803 C   0  0  2  0  0  0  0  0  0  0  0  0
  -20.9889  -23.6810   21.2694 C   0  0  1  0  0  0  0  0  0  0  0  0
  -17.0333  -28.9853   21.8829 C   0  0  0  0  0  0  0  0  0  0  0  0
  -29.9988  -13.2078   24.6780 C   0  0  0  0  0  0  0  0  0  0  0  0
  -23.4906  -12.5582   23.6327 C   0  0  0  0  0  0  0  0  0  0  0  0
  -25.4094  -12.6214   25.2397 C   0  0  0  0  0  0  0  0  0  0  0  0
  -25.3244  -10.8654   23.4700 C   0  0  0  0  0  0  0  0  0  0  0  0
  -30.2142  -15.2107   21.4503 C   0  0  0  0  0  0  0  0  0  0  0  0
  -21.0040  -28.3544   24.8913 C   0  0  0  0  0  0  0  0  0  0  0  0
  -23.4577  -21.2401   19.8976 C   0  0  0  0  0  0  0  0  0  1  0  0
  -25.8411  -13.2540   22.8222 C   0  0  1  0  0  0  0  0  0  0  0  0
  -29.5865  -13.6245   23.2747 C   0  0  2  0  0  0  0  0  0  0  0  0
  -25.0113  -12.3468   23.7738 C   0  0  0  0  0  0  0  0  0  0  0  0
  -26.3801  -27.9894   20.8167 N   0  0  0  0  0  0  0  0  0  0  0  0
  -25.6383  -29.0875   20.5931 N   0  0  0  0  0  0  0  0  0  0  0  0
  -24.9931  -14.1721   20.6863 N   0  0  0  0  0  0  0  0  0  0  0  0
  -24.3470  -29.7990   24.1194 N   0  0  0  0  0  0  0  0  0  0  0  0
  -24.7084  -30.4200   18.8696 N   0  0  0  0  0  0  0  0  0  0  0  0
  -26.8587  -27.1512   16.6141 N   0  0  0  0  0  0  0  0  0  0  0  0
  -22.3693  -13.0041   18.5692 N   0  0  0  0  0  0  0  0  0  0  0  0
  -27.2835  -13.0559   22.9148 N   0  0  0  0  0  0  0  0  0  0  0  0
  -22.2996  -28.6306   24.3118 N   0  0  0  0  0  0  0  0  0  0  0  0
  -19.8238  -24.4069   20.7351 N   0  3  0  0  0  0  0  0  0  0  0  0
  -30.4916  -14.7195   22.8246 N   0  3  0  0  0  0  0  0  0  0  0  0
  -25.5973  -29.0525   16.3844 O   0  0  0  0  0  0  0  0  0  0  0  0
  -22.3747  -14.4437   20.3996 O   0  0  0  0  0  0  0  0  0  0  0  0
  -25.6287  -11.9357   20.8617 O   0  0  0  0  0  0  0  0  0  0  0  0
  -27.8053  -15.2445   23.4760 O   0  0  0  0  0  0  0  0  0  0  0  0
  -22.7798  -30.3652   25.7323 O   0  0  0  0  0  0  0  0  0  0  0  0
  -29.7294  -22.9389   18.8614 O   0  0  0  0  0  0  0  0  0  0  0  0
  -24.2237  -20.2924   20.6402 O   0  0  0  0  0  0  0  0  0  1  0  0
  -28.5651  -18.5626   22.0071 F   0  0  0  0  0  0  0  0  0  0  0  0
  -29.8935  -23.0890   21.6169 F   0  0  0  0  0  0  0  0  0  0  0  0
  1  2  1  0  0  0  0
  1  5  2  0  0  0  0
  2  6  2  0  0  0  0
  3  8  2  0  0  0  0
  3 17  1  0  0  0  0
  4  9  1  0  0  0  0
  4 17  2  0  0  0  0
  5 19  1  0  0  0  0
  6 21  1  0  0  0  0
  7 10  2  0  0  0  0
  7 20  1  0  0  0  0
  8 27  1  0  0  0  0
  9 27  2  0  0  0  0
 10 28  1  0  0  0  0
 11 12  2  0  0  0  0
 11 29  1  0  0  0  0
 12 30  1  0  0  0  0
 13 22  1  0  0  0  0
 13 25  2  0  0  0  0
 14 23  1  0  0  0  0
 14 28  2  0  0  0  0
 15 25  1  0  0  0  0
 15 26  2  0  0  0  0
 16 30  2  0  0  0  0
 16 31  1  0  0  0  0
 17 32  1  0  0  0  0
 18 32  1  0  0  0  0
 18 33  2  0  0  0  0
 18 34  1  0  0  0  0
 19 21  2  0  0  0  0
 19 39  1  0  0  0  0
 20 23  2  0  0  0  0
 20 40  1  0  0  0  0
 21 52  1  0  0  0  0
 22 24  2  0  0  0  0
 22 53  1  0  0  0  0
 23 42  1  0  0  0  0
 24 26  1  0  0  0  0
 24 41  1  0  0  0  0
 25 64  1  0  0  0  0
 26 58  1  0  0  0  0
 27 85  1  0  0  0  0
 28 86  1  0  0  0  0
 29 31  2  0  0  0  0
 29 85  1  0  0  0  0
 30 87  1  0  0  0  0
 31 88  1  0  0  0  0
 32 69  2  0  0  0  0
 33 70  1  0  0  0  0
 33 73  1  0  0  0  0
 34 74  1  0  0  0  0
 34 80  2  0  0  0  0
 35 54  1  0  0  0  0
 35 75  1  0  0  0  0
 35 81  2  0  0  0  0
 36 66  1  0  0  0  0
 36 71  1  0  0  0  0
 36 82  2  0  0  0  0
 37 67  1  0  0  0  0
 37 76  1  0  0  0  0
 37 83  2  0  0  0  0
 38 72  1  0  0  0  0
 38 77  1  0  0  0  0
 38 84  2  0  0  0  0
 39 43  1  0  0  0  0
 40 54  1  0  0  0  0
 41 53  1  0  0  0  0
 42 71  1  0  0  0  0
 43 45  1  0  0  0  0
 44 47  1  0  0  0  0
 44 50  1  0  0  0  0
 45 52  1  0  0  0  0
 46 48  1  0  0  0  0
 46 55  1  0  0  0  0
 47 56  1  0  0  0  0
 48 57  1  0  0  0  0
 49 55  1  0  0  0  0
 49 57  1  0  0  0  0
 50 72  1  0  0  0  0
 51 56  1  0  0  0  0
 51 72  1  0  0  0  0
 52 75  1  0  0  0  0
 53 78  1  0  0  0  0
 54 71  1  0  0  0  0
 55 65  1  0  0  0  0
 56 70  1  0  0  0  0
 57 78  1  0  0  0  0
 59 67  1  0  0  0  0
 60 68  1  0  0  0  0
 61 68  1  0  0  0  0
 62 68  1  0  0  0  0
 63 79  1  0  0  0  0
 64 77  1  0  0  0  0
 65 86  1  0  0  0  0
 66 68  1  0  0  0  0
 66 76  1  0  0  0  0
 67 79  1  0  0  0  0
 69 70  1  0  0  0  0
M  CHG  2  78   1  79   1
M  ISO  4  38 100  65 101  77 100  86 101
M  END
> <Batch ID>
0160

> <Smiles>
CNC(C)C(=O)NC(C(=O)N1Cc2cc([101O:1][101CH2:1]C3CCC(NC4Cc5c(C)cc(C[100NH:0][100C:0](=O)N6CCCC(n7nc(-c8ccc(Oc9ccc(F)cc9F)cc8)c(C(N)=O)c7N)C6)cc54)C3)ccc2CC1C(=O)NC1CCCc2ccccc21)C(C)(C)C

> <Shape>
0.221

> <Color>
0.072

> <Negative vol penalty>
0.000

$$$$

  -OEChem-04052322093D

 88 98  0     1  0  0  0  0  0999 V2000
  -16.8088  -26.1909   24.2392 C   0  0  0  0  0  0  0  0  0  0  0  0
  -17.7711  -25.9585   23.2617 C   0  0  0  0  0  0  0  0  0  0  0  0
  -22.9333  -10.3045   21.1180 C   0  0  0  0  0  0  0  0  0  0  0  0
  -24.6217   -8.9583   22.2017 C   0  0  0  0  0  0  0  0  0  0  0  0
  -16.5535  -27.4925   24.6689 C   0  0  0  0  0  0  0  0  0  0  0  0
  -18.4778  -27.0278   22.7126 C   0  0  0  0  0  0  0  0  0  0  0  0
  -23.4406  -26.0906   22.3420 C   0  0  0  0  0  0  0  0  0  0  0  0
  -22.1748   -9.1590   20.8768 C   0  0  0  0  0  0  0  0  0  0  0  0
  -23.8631   -7.8128   21.9604 C   0  0  0  0  0  0  0  0  0  0  0  0
  -23.8587  -25.2815   21.2864 C   0  0  0  0  0  0  0  0  0  0  0  0
  -21.1563   -6.2928   23.2958 C   0  0  0  0  0  0  0  0  0  0  0  0
  -21.0086   -5.3829   24.3426 C   0  0  0  0  0  0  0  0  0  0  0  0
  -24.5131  -27.2456   20.0481 C   0  0  0  0  0  0  0  0  0  0  0  0
  -22.0544   -3.6682   22.9997 C   0  0  0  0  0  0  0  0  0  0  0  0
  -24.1568  -10.2041   21.7805 C   0  0  0  0  0  0  0  0  0  0  0  0
  -24.8824  -12.2233   23.1603 C   0  0  0  0  0  0  0  0  0  0  0  0
  -17.2643  -28.5773   24.1317 C   0  0  0  0  0  0  0  0  0  0  0  0
  -23.5457  -27.4861   22.2540 C   0  0  0  0  0  0  0  0  0  0  0  0
  -18.2308  -28.3452   23.1346 C   0  0  0  0  0  0  0  0  0  0  0  0
  -24.0980  -28.0700   21.1050 C   0  0  0  0  0  0  0  0  0  0  0  0
  -26.1667  -21.2960   17.6741 C   0  0  0  0  0  0  0  0  0  0  0  0
  -26.9564  -21.3938   16.5022 C   0  0  0  0  0  0  0  0  0  0  0  0
  -22.6397   -7.9132   21.2980 C   0  0  0  0  0  0  0  0  0  0  0  0
  -24.3924  -25.8591   20.1380 C   0  0  0  0  0  0  0  0  0  0  0  0
  -21.7530   -5.8905   22.1009 C   0  0  0  0  0  0  0  0  0  0  0  0
  -21.4576   -4.0706   24.1946 C   0  0  0  0  0  0  0  0  0  0  0  0
  -22.2021   -4.5782   21.9529 C   0  0  0  0  0  0  0  0  0  0  0  0
  -24.9410  -11.3869   22.0295 C   0  0  0  0  0  0  0  0  0  0  0  0
  -25.3028  -22.3757   17.6914 C   0  0  0  0  0  0  0  0  0  0  0  0
  -26.5645  -22.5332   15.8350 C   0  0  0  0  0  0  0  0  0  0  0  0
  -25.8183  -13.1982   22.9153 C   0  0  0  0  0  0  0  0  0  0  0  0
  -24.0559  -12.1274   24.3280 C   0  0  0  0  0  0  0  0  0  0  0  0
  -21.4762  -29.8984   22.2929 C   0  0  0  0  0  0  0  0  0  0  0  0
  -24.1733  -31.7005   22.3058 C   0  0  0  0  0  0  0  0  0  0  0  0
  -27.4963  -31.9475   21.5685 C   0  0  0  0  0  0  0  0  0  0  0  0
  -28.3479  -16.7980   19.6497 C   0  0  0  0  0  0  0  0  0  0  0  0
  -16.9201  -29.9710   24.5939 C   0  0  0  0  0  0  0  0  0  0  0  0
  -23.1150  -28.3436   23.4123 C   0  0  0  0  0  0  0  0  0  0  0  0
  -24.2512  -29.5622   20.9692 C   0  0  0  0  0  0  0  0  0  0  0  0
  -17.9764  -31.0114   24.2306 C   0  0  0  0  0  0  0  0  0  0  0  0
  -29.4031  -13.5181   19.3715 C   0  0  0  0  0  0  0  0  0  0  0  0
  -18.4038  -30.8525   22.7750 C   0  0  0  0  0  0  0  0  0  0  0  0
  -28.3373  -12.7280   20.1305 C   0  0  0  0  0  0  0  0  0  0  0  0
  -23.6407  -24.6130   17.0277 C   0  0  0  0  0  0  0  0  0  0  0  0
  -25.9081  -18.8182   18.1385 C   0  0  0  0  0  0  0  0  0  0  0  0
  -27.6299  -20.1701   19.4103 C   0  0  0  0  0  0  0  0  0  0  0  0
  -24.9304  -24.3814   16.2417 C   0  0  0  0  0  0  0  0  0  0  0  0
  -28.7703  -14.6263   18.5379 C   0  0  0  0  0  0  0  0  0  0  0  0
  -26.0299  -17.7133   19.1917 C   0  0  0  0  0  0  0  0  0  0  0  0
  -27.6915  -19.0490   20.4437 C   0  0  0  0  0  0  0  0  0  0  0  0
  -26.8566  -14.7961   20.0958 C   0  0  0  0  0  0  0  0  0  0  0  0
  -26.2541  -20.2007   18.7202 C   0  0  0  0  0  0  0  0  0  0  0  0
  -19.0358  -29.4765   22.5327 C   0  0  1  0  0  0  0  0  0  0  0  0
  -24.2345  -22.7612   18.6786 C   0  0  1  0  0  0  0  0  0  0  0  0
  -22.7932  -29.7785   23.0062 C   0  0  1  0  0  0  0  0  0  0  0  0
  -27.4433  -13.6638   20.9632 C   0  0  1  0  0  0  0  0  0  0  0  0
  -23.8080  -24.2337   18.5031 C   0  0  1  0  0  0  0  0  0  1  0  0
  -28.0117  -20.4520   16.0750 C   0  0  0  0  0  0  0  0  0  0  0  0
  -27.0723  -23.1090   14.5708 C   0  0  0  0  0  0  0  0  0  0  0  0
  -23.0337  -21.8195   18.5387 C   0  0  0  0  0  0  0  0  0  0  0  0
  -29.4197  -33.5568   21.6582 C   0  0  0  0  0  0  0  0  0  0  0  0
  -23.0505  -33.1740   19.8813 C   0  0  0  0  0  0  0  0  0  0  0  0
  -25.3477  -34.0710   19.4499 C   0  0  0  0  0  0  0  0  0  0  0  0
  -24.1653  -34.6429   21.5706 C   0  0  0  0  0  0  0  0  0  0  0  0
  -29.0366  -30.1857   23.3801 C   0  0  0  0  0  0  0  0  0  0  0  0
  -25.0624  -32.3018   21.2443 C   0  0  1  0  0  0  0  0  0  0  0  0
  -28.6746  -32.4476   22.3844 C   0  0  2  0  0  0  0  0  0  0  0  0
  -24.4019  -33.5194   20.5380 C   0  0  0  0  0  0  0  0  0  0  0  0
  -25.8428  -11.7949   21.1326 N   0  0  0  0  0  0  0  0  0  0  0  0
  -25.5666  -23.1190   16.5656 N   0  0  0  0  0  0  0  0  0  0  0  0
  -26.3593  -12.8984   21.6997 N   0  0  0  0  0  0  0  0  0  0  0  0
  -23.8098  -30.3584   22.1262 N   0  0  0  0  0  0  0  0  0  0  0  0
  -27.9269  -15.4906   19.3633 N   0  0  0  0  0  0  0  0  0  0  0  0
  -27.3458  -17.7606   19.8440 N   0  0  0  0  0  0  0  0  0  0  0  0
  -26.2229  -14.2742   23.6231 N   0  0  0  0  0  0  0  0  0  0  0  0
  -23.1482  -11.0633   24.4186 N   0  0  0  0  0  0  0  0  0  0  0  0
  -20.3953  -29.4504   23.0281 N   0  0  0  0  0  0  0  0  0  0  0  0
  -26.3305  -32.6060   21.8982 N   0  0  0  0  0  0  0  0  0  0  0  0
  -29.6302  -31.3352   22.6499 N   0  3  0  0  0  0  0  0  0  0  0  0
  -24.1087  -12.9699   25.2558 O   0  0  0  0  0  0  0  0  0  0  0  0
  -21.4429  -30.3643   21.1600 O   0  0  0  0  0  0  0  0  0  0  0  0
  -23.8204  -32.3940   23.2630 O   0  0  0  0  0  0  0  0  0  0  0  0
  -27.6002  -31.0639   20.7206 O   0  0  0  0  0  0  0  0  0  0  0  0
  -29.5481  -17.0887   19.7281 O   0  0  0  0  0  0  0  0  0  0  0  0
  -21.8997   -6.7953   21.0629 O   0  0  0  0  0  0  0  0  0  0  0  0
  -24.8025  -25.0680   19.1011 O   0  0  0  0  0  0  0  0  0  1  0  0
  -21.3171   -3.1973   25.2004 F   0  0  0  0  0  0  0  0  0  0  0  0
  -22.7772   -4.1862   20.8078 F   0  0  0  0  0  0  0  0  0  0  0  0
  1  2  1  0  0  0  0
  1  5  2  0  0  0  0
  2  6  2  0  0  0  0
  3  8  2  0  0  0  0
  3 15  1  0  0  0  0
  4  9  1  0  0  0  0
  4 15  2  0  0  0  0
  5 17  1  0  0  0  0
  6 19  1  0  0  0  0
  7 10  2  0  0  0  0
  7 18  1  0  0  0  0
  8 23  1  0  0  0  0
  9 23  2  0  0  0  0
 10 24  1  0  0  0  0
 11 12  2  0  0  0  0
 11 25  1  0  0  0  0
 12 26  1  0  0  0  0
 13 20  1  0  0  0  0
 13 24  2  0  0  0  0
 14 26  2  0  0  0  0
 14 27  1  0  0  0  0
 15 28  1  0  0  0  0
 16 28  1  0  0  0  0
 16 31  2  0  0  0  0
 16 32  1  0  0  0  0
 17 19  2  0  0  0  0
 17 37  1  0  0  0  0
 18 20  2  0  0  0  0
 18 38  1  0  0  0  0
 19 53  1  0  0  0  0
 20 39  1  0  0  0  0
 21 22  1  0  0  0  0
 21 29  2  0  0  0  0
 21 52  1  0  0  0  0
 22 30  2  0  0  0  0
 22 58  1  0  0  0  0
 23 85  1  0  0  0  0
 24 86  1  0  0  0  0
 25 27  2  0  0  0  0
 25 85  1  0  0  0  0
 26 87  1  0  0  0  0
 27 88  1  0  0  0  0
 28 69  2  0  0  0  0
 29 54  1  0  0  0  0
 29 70  1  0  0  0  0
 30 59  1  0  0  0  0
 30 70  1  0  0  0  0
 31 71  1  0  0  0  0
 31 75  1  0  0  0  0
 32 76  1  0  0  0  0
 32 80  2  0  0  0  0
 33 55  1  0  0  0  0
 33 77  1  0  0  0  0
 33 81  2  0  0  0  0
 34 66  1  0  0  0  0
 34 72  1  0  0  0  0
 34 82  2  0  0  0  0
 35 67  1  0  0  0  0
 35 78  1  0  0  0  0
 35 83  2  0  0  0  0
 36 73  1  0  0  0  0
 36 74  1  0  0  0  0
 36 84  2  0  0  0  0
 37 40  1  0  0  0  0
 38 55  1  0  0  0  0
 39 72  1  0  0  0  0
 40 42  1  0  0  0  0
 41 43  1  0  0  0  0
 41 48  1  0  0  0  0
 42 53  1  0  0  0  0
 43 56  1  0  0  0  0
 44 47  1  0  0  0  0
 44 57  1  0  0  0  0
 45 49  1  0  0  0  0
 45 52  1  0  0  0  0
 46 50  1  0  0  0  0
 46 52  1  0  0  0  0
 47 70  1  0  0  0  0
 48 73  1  0  0  0  0
 49 74  1  0  0  0  0
 50 74  1  0  0  0  0
 51 56  1  0  0  0  0
 51 73  1  0  0  0  0
 53 77  1  0  0  0  0
 54 57  1  0  0  0  0
 54 60  1  0  0  0  0
 55 72  1  0  0  0  0
 56 71  1  0  0  0  0
 57 86  1  0  0  0  0
 61 67  1  0  0  0  0
 62 68  1  0  0  0  0
 63 68  1  0  0  0  0
 64 68  1  0  0  0  0
 65 79  1  0  0  0  0
 66 68  1  0  0  0  0
 66 78  1  0  0  0  0
 67 79  1  0  0  0  0
 69 71  1  0  0  0  0
M  CHG  1  79   1
M  ISO  4  36 100  57 101  74 100  86 101
M  END
> <Batch ID>
0160

> <Smiles>
CNC(C)C(=O)NC(C(=O)N1Cc2cc([101O:1][101CH:1]3CCn4c(C)c(C)c(C5CC[100N:0]([100C:0](=O)N6CCCC(n7nc(-c8ccc(Oc9ccc(F)cc9F)cc8)c(C(N)=O)c7N)C6)CC5)c4C3C)ccc2CC1C(=O)NC1CCCc2ccccc21)C(C)(C)C

> <Shape>
0.255

> <Color>
0.109

> <Negative vol penalty>
0.000

$$$$

  -OEChem-04052322093D

 86 95  0     1  0  0  0  0  0999 V2000
  -26.8683  -31.8060   27.2914 C   0  0  0  0  0  0  0  0  0  0  0  0
  -27.5130  -30.8040   26.5733 C   0  0  0  0  0  0  0  0  0  0  0  0
  -22.9124  -11.1655   20.9292 C   0  0  0  0  0  0  0  0  0  0  0  0
  -23.8638   -9.0152   21.4843 C   0  0  0  0  0  0  0  0  0  0  0  0
  -25.4959  -31.9986   27.1387 C   0  0  0  0  0  0  0  0  0  0  0  0
  -26.7854  -29.9932   25.7029 C   0  0  0  0  0  0  0  0  0  0  0  0
  -28.7122  -27.6383   20.3880 C   0  0  0  0  0  0  0  0  0  0  0  0
  -21.7120  -10.5450   20.5832 C   0  0  0  0  0  0  0  0  0  0  0  0
  -22.6634   -8.3947   21.1384 C   0  0  0  0  0  0  0  0  0  0  0  0
  -29.2079  -26.3815   20.0438 C   0  0  0  0  0  0  0  0  0  0  0  0
  -18.2795   -9.5639   19.8971 C   0  0  0  0  0  0  0  0  0  0  0  0
  -17.0955  -10.1409   20.3561 C   0  0  0  0  0  0  0  0  0  0  0  0
  -27.0022  -25.7132   19.3315 C   0  0  0  0  0  0  0  0  0  0  0  0
  -17.8340   -9.8419   22.6370 C   0  0  0  0  0  0  0  0  0  0  0  0
  -23.9884  -10.4005   21.3797 C   0  0  0  0  0  0  0  0  0  0  0  0
  -25.5986  -11.5313   23.0033 C   0  0  0  0  0  0  0  0  0  0  0  0
  -24.7528  -31.1960   26.2588 C   0  0  0  0  0  0  0  0  0  0  0  0
  -27.3533  -27.9388   20.2165 C   0  0  0  0  0  0  0  0  0  0  0  0
  -25.4015  -30.1743   25.5393 C   0  0  0  0  0  0  0  0  0  0  0  0
  -26.4922  -26.9754   19.6720 C   0  0  0  0  0  0  0  0  0  0  0  0
  -30.5744  -20.1951   19.2298 C   0  0  0  0  0  0  0  0  0  0  0  0
  -30.2303  -21.4637   19.6832 C   0  0  0  0  0  0  0  0  0  0  0  0
  -30.5795  -22.5820   18.9343 C   0  0  0  0  0  0  0  0  0  0  0  0
  -21.5875   -9.1597   20.6879 C   0  0  0  0  0  0  0  0  0  0  0  0
  -28.3524  -25.4178   19.5181 C   0  0  0  0  0  0  0  0  0  0  0  0
  -19.2408   -9.1258   20.8080 C   0  0  0  0  0  0  0  0  0  0  0  0
  -16.8727  -10.2799   21.7260 C   0  0  0  0  0  0  0  0  0  0  0  0
  -19.0181   -9.2648   22.1779 C   0  0  0  0  0  0  0  0  0  0  0  0
  -25.2288  -11.0408   21.7366 C   0  0  0  0  0  0  0  0  0  0  0  0
  -31.2622  -20.0994   18.0308 C   0  0  0  0  0  0  0  0  0  0  0  0
  -31.2672  -22.3794   17.7487 C   0  0  0  0  0  0  0  0  0  0  0  0
  -26.8606  -12.0411   22.8191 C   0  0  0  0  0  0  0  0  0  0  0  0
  -24.8668  -11.5263   24.2363 C   0  0  0  0  0  0  0  0  0  0  0  0
  -24.9703  -28.7402   22.1614 C   0  0  0  0  0  0  0  0  0  0  0  0
  -23.3508  -29.1373   19.3790 C   0  0  0  0  0  0  0  0  0  0  0  0
  -23.0363  -28.3532   16.0725 C   0  0  0  0  0  0  0  0  0  0  0  0
  -30.5932  -14.8723   19.9777 C   0  0  0  0  0  0  0  0  0  0  0  0
  -23.2631  -31.4110   26.1627 C   0  0  0  0  0  0  0  0  0  0  0  0
  -26.8395  -29.3081   20.5678 C   0  0  0  0  0  0  0  0  0  0  0  0
  -25.0291  -27.2549   19.4491 C   0  0  0  0  0  0  0  0  0  0  0  0
  -22.6305  -30.7536   24.9388 C   0  0  0  0  0  0  0  0  0  0  0  0
  -30.0559  -11.6224   18.9298 C   0  0  0  0  0  0  0  0  0  0  0  0
  -23.1331  -29.3219   24.7822 C   0  0  0  0  0  0  0  0  0  0  0  0
  -28.7823  -11.2088   19.6670 C   0  0  0  0  0  0  0  0  0  0  0  0
  -29.2541  -18.0322   19.2431 C   0  0  0  0  0  0  0  0  0  0  0  0
  -31.4510  -18.1802   20.4927 C   0  0  0  0  0  0  0  0  0  0  0  0
  -29.9514  -13.0559   18.4222 C   0  0  0  0  0  0  0  0  0  0  0  0
  -28.9129  -16.7681   20.0372 C   0  0  0  0  0  0  0  0  0  0  0  0
  -31.0480  -16.9324   21.2730 C   0  0  0  0  0  0  0  0  0  0  0  0
  -28.3840  -13.6551   20.2394 C   0  0  0  0  0  0  0  0  0  0  0  0
  -30.2066  -18.9558   20.0237 C   0  0  0  0  0  0  0  0  0  0  0  0
  -24.6510  -29.2905   24.5669 C   0  0  1  0  0  0  0  0  0  0  0  0
  -25.3369  -29.3333   20.8304 C   0  0  1  0  0  0  0  0  0  0  0  0
  -28.4380  -12.2124   20.7817 C   0  0  1  0  0  0  0  0  0  0  0  0
  -29.4895  -21.6253   20.9723 C   0  0  0  0  0  0  0  0  0  0  0  0
  -31.6589  -18.7637   17.4926 C   0  0  0  0  0  0  0  0  0  0  0  0
  -31.6717  -23.5418   16.9021 C   0  0  0  0  0  0  0  0  0  0  0  0
  -21.5932  -28.8041   14.0696 C   0  0  0  0  0  0  0  0  0  0  0  0
  -21.2132  -27.2721   20.5023 C   0  0  0  0  0  0  0  0  0  0  0  0
  -20.3213  -27.0079   18.1779 C   0  0  0  0  0  0  0  0  0  0  0  0
  -20.3223  -29.2537   19.2637 C   0  0  0  0  0  0  0  0  0  0  0  0
  -25.2946  -29.5317   14.5658 C   0  0  0  0  0  0  0  0  0  0  0  0
  -30.2246  -23.9566   19.3937 C   0  0  0  0  0  0  0  0  0  1  0  0
  -22.5107  -28.2478   18.4947 C   0  0  1  0  0  0  0  0  0  0  0  0
  -22.8318  -29.2238   14.8458 C   0  0  2  0  0  0  0  0  0  0  0  0
  -21.1190  -27.9392   19.1155 C   0  0  0  0  0  0  0  0  0  0  0  0
  -26.1789  -11.2229   20.8157 N   0  0  0  0  0  0  0  0  0  0  0  0
  -31.6188  -21.1627   17.2759 N   0  0  0  0  0  0  0  0  0  0  0  0
  -27.1582  -11.8335   21.5044 N   0  0  0  0  0  0  0  0  0  0  0  0
  -24.5733  -28.6063   19.8142 N   0  0  0  0  0  0  0  0  0  0  0  0
  -29.6198  -13.9771   19.5090 N   0  0  0  0  0  0  0  0  0  0  0  0
  -30.1371  -16.0950   20.4929 N   0  0  0  0  0  0  0  0  0  0  0  0
  -27.7335  -12.6424   23.6550 N   0  0  0  0  0  0  0  0  0  0  0  0
  -23.5837  -10.9627   24.2494 N   0  0  0  0  0  0  0  0  0  0  0  0
  -24.9755  -29.6486   23.2027 N   0  0  0  0  0  0  0  0  0  0  0  0
  -22.4520  -28.9044   17.1932 N   0  0  0  0  0  0  0  0  0  0  0  0
  -24.0103  -29.1261   13.9389 N   0  3  0  0  0  0  0  0  0  0  0  0
  -25.3304  -12.0221   25.2912 O   0  0  0  0  0  0  0  0  0  0  0  0
  -24.7012  -27.5472   22.2378 O   0  0  0  0  0  0  0  0  0  0  0  0
  -22.9408  -30.2645   19.6670 O   0  0  0  0  0  0  0  0  0  0  0  0
  -23.6496  -27.2887   16.0390 O   0  0  0  0  0  0  0  0  0  0  0  0
  -31.7987  -14.5959   19.9392 O   0  0  0  0  0  0  0  0  0  0  0  0
  -20.4162   -8.5539   20.3507 O   0  0  0  0  0  0  0  0  0  0  0  0
  -28.8369  -24.1815   19.1796 O   0  0  0  0  0  0  0  0  0  1  0  0
  -15.7363  -10.8354   22.1666 F   0  0  0  0  0  0  0  0  0  0  0  0
  -19.9384   -8.8469   23.0578 F   0  0  0  0  0  0  0  0  0  0  0  0
  1  2  1  0  0  0  0
  1  5  2  0  0  0  0
  2  6  2  0  0  0  0
  3  8  2  0  0  0  0
  3 15  1  0  0  0  0
  4  9  1  0  0  0  0
  4 15  2  0  0  0  0
  5 17  1  0  0  0  0
  6 19  1  0  0  0  0
  7 10  2  0  0  0  0
  7 18  1  0  0  0  0
  8 24  1  0  0  0  0
  9 24  2  0  0  0  0
 10 25  1  0  0  0  0
 11 12  2  0  0  0  0
 11 26  1  0  0  0  0
 12 27  1  0  0  0  0
 13 20  1  0  0  0  0
 13 25  2  0  0  0  0
 14 27  2  0  0  0  0
 14 28  1  0  0  0  0
 15 29  1  0  0  0  0
 16 29  1  0  0  0  0
 16 32  2  0  0  0  0
 16 33  1  0  0  0  0
 17 19  2  0  0  0  0
 17 38  1  0  0  0  0
 18 20  2  0  0  0  0
 18 39  1  0  0  0  0
 19 52  1  0  0  0  0
 20 40  1  0  0  0  0
 21 22  1  0  0  0  0
 21 30  2  0  0  0  0
 21 51  1  0  0  0  0
 22 23  2  0  0  0  0
 22 55  1  0  0  0  0
 23 31  1  0  0  0  0
 23 63  1  0  0  0  0
 24 83  1  0  0  0  0
 25 84  1  0  0  0  0
 26 28  2  0  0  0  0
 26 83  1  0  0  0  0
 27 85  1  0  0  0  0
 28 86  1  0  0  0  0
 29 67  2  0  0  0  0
 30 56  1  0  0  0  0
 30 68  1  0  0  0  0
 31 57  1  0  0  0  0
 31 68  2  0  0  0  0
 32 69  1  0  0  0  0
 32 73  1  0  0  0  0
 33 74  1  0  0  0  0
 33 78  2  0  0  0  0
 34 53  1  0  0  0  0
 34 75  1  0  0  0  0
 34 79  2  0  0  0  0
 35 64  1  0  0  0  0
 35 70  1  0  0  0  0
 35 80  2  0  0  0  0
 36 65  1  0  0  0  0
 36 76  1  0  0  0  0
 36 81  2  0  0  0  0
 37 71  1  0  0  0  0
 37 72  1  0  0  0  0
 37 82  2  0  0  0  0
 38 41  1  0  0  0  0
 39 53  1  0  0  0  0
 40 70  1  0  0  0  0
 41 43  1  0  0  0  0
 42 44  1  0  0  0  0
 42 47  1  0  0  0  0
 43 52  1  0  0  0  0
 44 54  1  0  0  0  0
 45 48  1  0  0  0  0
 45 51  1  0  0  0  0
 46 49  1  0  0  0  0
 46 51  1  0  0  0  0
 47 71  1  0  0  0  0
 48 72  1  0  0  0  0
 49 72  1  0  0  0  0
 50 54  1  0  0  0  0
 50 71  1  0  0  0  0
 52 75  1  0  0  0  0
 53 70  1  0  0  0  0
 54 69  1  0  0  0  0
 58 65  1  0  0  0  0
 59 66  1  0  0  0  0
 60 66  1  0  0  0  0
 61 66  1  0  0  0  0
 62 77  1  0  0  0  0
 63 84  1  0  0  0  0
 64 66  1  0  0  0  0
 64 76  1  0  0  0  0
 65 77  1  0  0  0  0
 67 69  1  0  0  0  0
M  CHG  1  77   1
M  ISO  4  37 100  63 101  72 100  84 101
M  END
> <Batch ID>
0160

> <Smiles>
CNC(C)C(=O)NC(C(=O)N1Cc2cc([101O:1][101CH2:1]c3c(C)nc(C)c(C4CC[100N:0]([100C:0](=O)N5CCCC(n6nc(-c7ccc(Oc8ccc(F)cc8F)cc7)c(C(N)=O)c6N)C5)CC4)c3C)ccc2CC1C(=O)NC1CCCc2ccccc21)C(C)(C)C

> <Shape>
0.267

> <Color>
0.090

> <Negative vol penalty>
0.000

$$$$

  -OEChem-04052322093D

 90 99  0     1  0  0  0  0  0999 V2000
  -26.1857  -37.9017   24.6123 C   0  0  0  0  0  0  0  0  0  0  0  0
  -26.9136  -37.1916   23.6629 C   0  0  0  0  0  0  0  0  0  0  0  0
  -25.8572  -13.8579   20.1715 C   0  0  0  0  0  0  0  0  0  0  0  0
  -24.9937  -12.8615   22.1960 C   0  0  0  0  0  0  0  0  0  0  0  0
  -25.4692  -37.2183   25.5939 C   0  0  0  0  0  0  0  0  0  0  0  0
  -26.9261  -35.7976   23.6952 C   0  0  0  0  0  0  0  0  0  0  0  0
  -27.2736  -30.1156   19.3466 C   0  0  0  0  0  0  0  0  0  0  0  0
  -25.1879  -12.8973   19.4132 C   0  0  0  0  0  0  0  0  0  0  0  0
  -24.3244  -11.9009   21.4377 C   0  0  0  0  0  0  0  0  0  0  0  0
  -27.9993  -28.9386   19.1682 C   0  0  0  0  0  0  0  0  0  0  0  0
  -25.0848   -9.0329   19.8169 C   0  0  0  0  0  0  0  0  0  0  0  0
  -25.1629   -7.7053   20.2376 C   0  0  0  0  0  0  0  0  0  0  0  0
  -26.6601  -27.8632   20.8621 C   0  0  0  0  0  0  0  0  0  0  0  0
  -22.7595   -7.6392   20.4751 C   0  0  0  0  0  0  0  0  0  0  0  0
  -25.7601  -13.8399   21.5629 C   0  0  0  0  0  0  0  0  0  0  0  0
  -25.9610  -16.0862   22.7552 C   0  0  0  0  0  0  0  0  0  0  0  0
  -25.4652  -35.8151   25.6324 C   0  0  0  0  0  0  0  0  0  0  0  0
  -26.2411  -30.1786   20.2934 C   0  0  0  0  0  0  0  0  0  0  0  0
  -26.2100  -35.0949   24.6790 C   0  0  0  0  0  0  0  0  0  0  0  0
  -25.9211  -29.0414   21.0488 C   0  0  0  0  0  0  0  0  0  0  0  0
  -29.6174  -22.5935   18.8015 C   0  0  0  0  0  0  0  0  0  0  0  0
  -30.7967  -22.9722   20.8759 C   0  0  0  0  0  0  0  0  0  0  0  0
  -28.7738  -23.6675   19.0850 C   0  0  0  0  0  0  0  0  0  0  0  0
  -29.9531  -24.0463   21.1594 C   0  0  0  0  0  0  0  0  0  0  0  0
  -30.6288  -22.2458   19.6970 C   0  0  0  0  0  0  0  0  0  0  0  0
  -28.9417  -24.3940   20.2639 C   0  0  0  0  0  0  0  0  0  0  0  0
  -24.4215  -11.9188   20.0463 C   0  0  0  0  0  0  0  0  0  0  0  0
  -27.6945  -27.8130   19.9280 C   0  0  0  0  0  0  0  0  0  0  0  0
  -23.8440   -9.6637   19.7253 C   0  0  0  0  0  0  0  0  0  0  0  0
  -24.0002   -7.0084   20.5666 C   0  0  0  0  0  0  0  0  0  0  0  0
  -22.6814   -8.9668   20.0544 C   0  0  0  0  0  0  0  0  0  0  0  0
  -26.4517  -14.8316   22.3468 C   0  0  0  0  0  0  0  0  0  0  0  0
  -26.9933  -16.6425   23.4703 C   0  0  0  0  0  0  0  0  0  0  0  0
  -24.6859  -16.6944   22.5101 C   0  0  0  0  0  0  0  0  0  0  0  0
  -25.7113  -31.8814   22.9246 C   0  0  0  0  0  0  0  0  0  0  0  0
  -22.8233  -30.4076   22.8279 C   0  0  0  0  0  0  0  0  0  0  0  0
  -20.9619  -27.7473   21.7766 C   0  0  0  0  0  0  0  0  0  0  0  0
  -31.1527  -15.8353   20.8919 C   0  0  0  0  0  0  0  0  0  0  0  0
  -24.7139  -35.1214   26.7410 C   0  0  0  0  0  0  0  0  0  0  0  0
  -25.4501  -31.4477   20.4549 C   0  0  0  0  0  0  0  0  0  0  0  0
  -24.8086  -29.0510   22.0640 C   0  0  0  0  0  0  0  0  0  0  0  0
  -24.4759  -33.6365   26.4792 C   0  0  0  0  0  0  0  0  0  0  0  0
  -30.5927  -13.6488   23.5862 C   0  0  0  0  0  0  0  0  0  0  0  0
  -25.7571  -32.9685   25.9903 C   0  0  0  0  0  0  0  0  0  0  0  0
  -29.8825  -14.4980   24.6370 C   0  0  0  0  0  0  0  0  0  0  0  0
  -31.6722  -14.4530   22.8765 C   0  0  0  0  0  0  0  0  0  0  0  0
  -30.0275  -18.0796   21.2084 C   0  0  0  0  0  0  0  0  0  0  0  0
  -30.4239  -16.5678   23.2201 C   0  0  0  0  0  0  0  0  0  0  0  0
  -30.7851  -19.3915   21.0520 C   0  0  0  0  0  0  0  0  0  0  0  0
  -31.5578  -18.6710   18.7930 C   0  0  0  0  0  0  0  0  0  0  0  0
  -26.2282  -33.5817   24.6660 C   0  0  1  0  0  0  0  0  0  0  0  0
  -24.7584  -31.5522   21.8106 C   0  0  1  0  0  0  0  0  0  0  0  0
  -29.3742  -15.8450   24.0940 C   0  0  1  0  0  0  0  0  0  0  0  0
  -30.8093  -17.3465   18.9499 C   0  0  2  0  0  0  0  0  0  0  0  0
  -29.4376  -21.8142   17.5368 C   0  0  0  0  0  0  0  0  0  0  0  0
  -31.8818  -22.5999   21.8367 C   0  0  0  0  0  0  0  0  0  0  0  0
  -27.6888  -24.0403   18.1242 C   0  0  0  0  0  0  0  0  0  0  0  0
  -30.1338  -24.8271   22.4231 C   0  0  0  0  0  0  0  0  0  0  0  0
  -28.8060  -15.9981   18.3044 C   0  0  0  0  0  0  0  0  0  0  0  0
  -18.6396  -26.8026   21.8842 C   0  0  0  0  0  0  0  0  0  0  0  0
  -23.3217  -29.5163   25.7031 C   0  0  0  0  0  0  0  0  0  0  0  0
  -21.4839  -27.8385   25.4280 C   0  0  0  0  0  0  0  0  0  0  0  0
  -20.9849  -30.2751   25.2364 C   0  0  0  0  0  0  0  0  0  0  0  0
  -20.6515  -27.8683   18.8358 C   0  0  0  0  0  0  0  0  0  0  0  0
  -31.5369  -21.0911   19.3918 C   0  0  0  0  0  0  0  0  0  0  0  0
  -28.0385  -25.5480   20.5662 C   0  0  0  0  0  0  0  0  0  1  0  0
  -29.4785  -17.3250   18.1920 C   0  0  0  0  0  0  0  0  0  0  0  0
  -22.2601  -29.1216   23.3829 C   0  0  1  0  0  0  0  0  0  0  0  0
  -19.6070  -27.6720   21.0962 C   0  0  2  0  0  0  0  0  0  0  0  0
  -22.0350  -29.1880   24.9199 C   0  0  0  0  0  0  0  0  0  0  0  0
  -27.6989  -14.6040   22.7673 N   0  0  0  0  0  0  0  0  0  0  0  0
  -28.0005  -15.7232   23.4473 N   0  0  0  0  0  0  0  0  0  0  0  0
  -24.0684  -30.3175   22.1897 N   0  0  0  0  0  0  0  0  0  0  0  0
  -31.1278  -15.6751   22.2871 N   0  0  0  0  0  0  0  0  0  0  0  0
  -30.6009  -17.0164   20.3705 N   0  0  0  0  0  0  0  0  0  0  0  0
  -27.1286  -17.8235   24.1101 N   0  0  0  0  0  0  0  0  0  0  0  0
  -23.7408  -15.9847   21.7568 N   0  0  0  0  0  0  0  0  0  0  0  0
  -25.4376  -33.0750   23.5649 N   0  0  0  0  0  0  0  0  0  0  0  0
  -21.0530  -28.8391   22.6138 N   0  0  0  0  0  0  0  0  0  0  0  0
  -30.8781  -19.7543   19.5926 N   0  3  2  0  0  0  0  0  0  0  0  0
  -19.7458  -27.0990   19.7275 N   0  3  0  0  0  0  0  0  0  0  0  0
  -24.3992  -17.8403   22.9324 O   0  0  0  0  0  0  0  0  0  0  0  0
  -26.6263  -31.1089   23.1851 O   0  0  0  0  0  0  0  0  0  0  0  0
  -22.1787  -31.4523   22.9495 O   0  0  0  0  0  0  0  0  0  0  0  0
  -21.8494  -26.9184   21.5873 O   0  0  0  0  0  0  0  0  0  0  0  0
  -31.6261  -14.9634   20.1520 O   0  0  0  0  0  0  0  0  0  0  0  0
  -23.7681  -10.9815   19.3067 O   0  0  0  0  0  0  0  0  0  0  0  0
  -28.4070  -26.6546   19.7551 O   0  0  0  0  0  0  0  0  0  1  0  0
  -24.0753   -5.7331   20.9691 F   0  0  0  0  0  0  0  0  0  0  0  0
  -21.4864   -9.5671   19.9673 F   0  0  0  0  0  0  0  0  0  0  0  0
  1  2  1  0  0  0  0
  1  5  2  0  0  0  0
  2  6  2  0  0  0  0
  3  8  2  0  0  0  0
  3 15  1  0  0  0  0
  4  9  1  0  0  0  0
  4 15  2  0  0  0  0
  5 17  1  0  0  0  0
  6 19  1  0  0  0  0
  7 10  2  0  0  0  0
  7 18  1  0  0  0  0
  8 27  1  0  0  0  0
  9 27  2  0  0  0  0
 10 28  1  0  0  0  0
 11 12  2  0  0  0  0
 11 29  1  0  0  0  0
 12 30  1  0  0  0  0
 13 20  1  0  0  0  0
 13 28  2  0  0  0  0
 14 30  2  0  0  0  0
 14 31  1  0  0  0  0
 15 32  1  0  0  0  0
 16 32  1  0  0  0  0
 16 33  2  0  0  0  0
 16 34  1  0  0  0  0
 17 19  2  0  0  0  0
 17 39  1  0  0  0  0
 18 20  2  0  0  0  0
 18 40  1  0  0  0  0
 19 51  1  0  0  0  0
 20 41  1  0  0  0  0
 21 23  2  0  0  0  0
 21 25  1  0  0  0  0
 21 55  1  0  0  0  0
 22 24  1  0  0  0  0
 22 25  2  0  0  0  0
 22 56  1  0  0  0  0
 23 26  1  0  0  0  0
 23 57  1  0  0  0  0
 24 26  2  0  0  0  0
 24 58  1  0  0  0  0
 25 65  1  0  0  0  0
 26 66  1  0  0  0  0
 27 87  1  0  0  0  0
 28 88  1  0  0  0  0
 29 31  2  0  0  0  0
 29 87  1  0  0  0  0
 30 89  1  0  0  0  0
 31 90  1  0  0  0  0
 32 71  2  0  0  0  0
 33 72  1  0  0  0  0
 33 76  1  0  0  0  0
 34 77  1  0  0  0  0
 34 82  2  0  0  0  0
 35 52  1  0  0  0  0
 35 78  1  0  0  0  0
 35 83  2  0  0  0  0
 36 68  1  0  0  0  0
 36 73  1  0  0  0  0
 36 84  2  0  0  0  0
 37 69  1  0  0  0  0
 37 79  1  0  0  0  0
 37 85  2  0  0  0  0
 38 74  1  0  0  0  0
 38 75  1  0  0  0  0
 38 86  2  0  0  0  0
 39 42  1  0  0  0  0
 40 52  1  0  0  0  0
 41 73  1  0  0  0  0
 42 44  1  0  0  0  0
 43 45  1  0  0  0  0
 43 46  1  0  0  0  0
 44 51  1  0  0  0  0
 45 53  1  0  0  0  0
 46 74  1  0  0  0  0
 47 49  1  0  0  0  0
 47 75  1  0  0  0  0
 48 53  1  0  0  0  0
 48 74  1  0  0  0  0
 49 80  1  0  0  0  0
 50 54  1  0  0  0  0
 50 80  1  0  0  0  0
 51 78  1  0  0  0  0
 52 73  1  0  0  0  0
 53 72  1  0  0  0  0
 54 67  1  0  0  0  0
 54 75  1  0  0  0  0
 59 67  1  0  0  0  0
 60 69  1  0  0  0  0
 61 70  1  0  0  0  0
 62 70  1  0  0  0  0
 63 70  1  0  0  0  0
 64 81  1  0  0  0  0
 65 80  1  0  0  0  0
 66 88  1  0  0  0  0
 68 70  1  0  0  0  0
 68 79  1  0  0  0  0
 69 81  1  0  0  0  0
 71 72  1  0  0  0  0
M  CHG  2  80   1  81   1
M  ISO  4  38 100  66 101  75 100  88 101
M  END
> <Batch ID>
0160

> <Smiles>
CCC1CN(Cc2c(C)c(C)c([101CH2:1][101O:1]c3ccc4c(c3)CN(C(=O)C(NC(=O)C(C)NC)C(C)(C)C)C(C(=O)NC3CCCc5ccccc53)C4)c(C)c2C)CC[100N:0]1[100C:0](=O)N1CCCC(n2nc(-c3ccc(Oc4ccc(F)cc4F)cc3)c(C(N)=O)c2N)C1

> <Shape>
0.301

> <Color>
0.092

> <Negative vol penalty>
0.000

$$$$

  -OEChem-04052322093D

 88 97  0     1  0  0  0  0  0999 V2000
  -19.0769  -29.9796   27.0121 C   0  0  0  0  0  0  0  0  0  0  0  0
  -20.3379  -29.4205   26.8310 C   0  0  0  0  0  0  0  0  0  0  0  0
  -23.0556  -10.5424   21.4566 C   0  0  0  0  0  0  0  0  0  0  0  0
  -24.7545   -8.8806   21.8917 C   0  0  0  0  0  0  0  0  0  0  0  0
  -18.1995  -30.0817   25.9334 C   0  0  0  0  0  0  0  0  0  0  0  0
  -20.7218  -28.9623   25.5713 C   0  0  0  0  0  0  0  0  0  0  0  0
  -26.5037  -28.3019   21.3940 C   0  0  0  0  0  0  0  0  0  0  0  0
  -22.1065   -9.5318   21.3028 C   0  0  0  0  0  0  0  0  0  0  0  0
  -23.8054   -7.8700   21.7379 C   0  0  0  0  0  0  0  0  0  0  0  0
  -27.1881  -27.3453   20.6455 C   0  0  0  0  0  0  0  0  0  0  0  0
  -21.7550   -4.8687   21.8159 C   0  0  0  0  0  0  0  0  0  0  0  0
  -21.7478   -3.8366   22.7541 C   0  0  0  0  0  0  0  0  0  0  0  0
  -25.6190  -27.6457   18.8381 C   0  0  0  0  0  0  0  0  0  0  0  0
  -30.3546  -24.8743   17.6271 C   0  0  0  0  0  0  0  0  0  0  0  0
  -21.3279   -5.4385   24.5133 C   0  0  0  0  0  0  0  0  0  0  0  0
  -24.3796  -10.2168   21.7511 C   0  0  0  0  0  0  0  0  0  0  0  0
  -25.7080  -11.9267   23.0999 C   0  0  0  0  0  0  0  0  0  0  0  0
  -18.5764  -29.6333   24.6577 C   0  0  0  0  0  0  0  0  0  0  0  0
  -25.3635  -28.9307   20.8736 C   0  0  0  0  0  0  0  0  0  0  0  0
  -19.8481  -29.0573   24.4748 C   0  0  0  0  0  0  0  0  0  0  0  0
  -24.9234  -28.6118   19.5810 C   0  0  0  0  0  0  0  0  0  0  0  0
  -30.9526  -23.9910   16.7284 C   0  0  0  0  0  0  0  0  0  0  0  0
  -29.1746  -24.5144   18.2782 C   0  0  0  0  0  0  0  0  0  0  0  0
  -30.3705  -22.7478   16.4805 C   0  0  0  0  0  0  0  0  0  0  0  0
  -28.5926  -23.2713   18.0303 C   0  0  0  0  0  0  0  0  0  0  0  0
  -29.1905  -22.3879   17.1315 C   0  0  0  0  0  0  0  0  0  0  0  0
  -22.4814   -8.1957   21.4435 C   0  0  0  0  0  0  0  0  0  0  0  0
  -26.7441  -27.0149   19.3685 C   0  0  0  0  0  0  0  0  0  0  0  0
  -21.5488   -6.1858   22.2264 C   0  0  0  0  0  0  0  0  0  0  0  0
  -21.5342   -4.1215   24.1028 C   0  0  0  0  0  0  0  0  0  0  0  0
  -21.3352   -6.4707   23.5750 C   0  0  0  0  0  0  0  0  0  0  0  0
  -25.3606  -11.2602   21.9095 C   0  0  0  0  0  0  0  0  0  0  0  0
  -26.6801  -12.8204   22.7218 C   0  0  0  0  0  0  0  0  0  0  0  0
  -25.1976  -11.7535   24.4285 C   0  0  0  0  0  0  0  0  0  0  0  0
  -22.3004  -29.0717   21.7109 C   0  0  0  0  0  0  0  0  0  0  0  0
  -22.1380  -31.2157   19.2820 C   0  0  0  0  0  0  0  0  0  0  0  0
  -23.4528  -32.3868   16.3585 C   0  0  0  0  0  0  0  0  0  0  0  0
  -28.7213  -16.5686   19.4676 C   0  0  0  0  0  0  0  0  0  0  0  0
  -17.5762  -29.7215   23.5323 C   0  0  0  0  0  0  0  0  0  0  0  0
  -24.6521  -29.9799   21.6832 C   0  0  0  0  0  0  0  0  0  0  0  0
  -23.7166  -29.2727   18.9685 C   0  0  0  0  0  0  0  0  0  0  0  0
  -18.1996  -29.5547   22.1489 C   0  0  0  0  0  0  0  0  0  0  0  0
  -29.2578  -13.2667   18.4004 C   0  0  0  0  0  0  0  0  0  0  0  0
  -19.1534  -28.3644   22.1332 C   0  0  0  0  0  0  0  0  0  0  0  0
  -28.3126  -12.4934   19.3194 C   0  0  0  0  0  0  0  0  0  0  0  0
  -28.3649  -18.7403   16.7208 C   0  0  0  0  0  0  0  0  0  0  0  0
  -29.6609  -19.7923   18.6133 C   0  0  0  0  0  0  0  0  0  0  0  0
  -28.6351  -14.5739   17.9065 C   0  0  0  0  0  0  0  0  0  0  0  0
  -28.9756  -17.3826   17.0803 C   0  0  0  0  0  0  0  0  0  0  0  0
  -30.2654  -18.4241   18.9163 C   0  0  0  0  0  0  0  0  0  0  0  0
  -27.1887  -14.6738   19.9106 C   0  0  0  0  0  0  0  0  0  0  0  0
  -20.3103  -28.5715   23.1181 C   0  0  1  0  0  0  0  0  0  0  0  0
  -23.2021  -30.1838   21.2549 C   0  0  1  0  0  0  0  0  0  0  0  0
  -27.8091  -13.3839   20.4694 C   0  0  1  0  0  0  0  0  0  0  0  0
  -29.2798  -19.8955   17.1342 C   0  0  0  0  0  0  0  0  0  0  0  0
  -32.2159  -24.4010   16.0448 C   0  0  0  0  0  0  0  0  0  0  0  0
  -31.0172  -21.8045   15.5150 C   0  0  0  0  0  0  0  0  0  0  0  0
  -26.1070  -23.0130   17.8252 C   0  0  0  0  0  0  0  0  0  0  0  0
  -23.0798  -34.1251   14.5875 C   0  0  0  0  0  0  0  0  0  0  0  0
  -19.8579  -29.5481   18.1289 C   0  0  0  0  0  0  0  0  0  0  0  0
  -20.1703  -30.7508   15.9554 C   0  0  0  0  0  0  0  0  0  0  0  0
  -19.5110  -32.0214   17.9984 C   0  0  0  0  0  0  0  0  0  0  0  0
  -26.0653  -33.6671   16.9012 C   0  0  0  0  0  0  0  0  0  0  0  0
  -27.3263  -22.8912   18.7322 C   0  0  0  0  0  0  0  0  0  0  0  0
  -28.5550  -25.4789   19.2358 C   0  0  0  0  0  0  0  0  0  1  0  0
  -21.8694  -31.1326   17.7988 C   0  0  1  0  0  0  0  0  0  0  0  0
  -23.7828  -33.7941   15.8948 C   0  0  2  0  0  0  0  0  0  0  0  0
  -20.3738  -30.8492   17.4824 C   0  0  0  0  0  0  0  0  0  0  0  0
  -26.0554  -11.6935   20.8543 N   0  0  0  0  0  0  0  0  0  0  0  0
  -26.8490  -12.6420   21.3803 N   0  0  0  0  0  0  0  0  0  0  0  0
  -23.0511  -30.2875   19.8021 N   0  0  0  0  0  0  0  0  0  0  0  0
  -28.1337  -15.3703   19.0352 N   0  0  0  0  0  0  0  0  0  0  0  0
  -29.3684  -17.3469   18.4963 N   0  0  0  0  0  0  0  0  0  0  0  0
  -27.3982  -13.7335   23.4094 N   0  0  0  0  0  0  0  0  0  0  0  0
  -24.2010  -10.7913   24.6412 N   0  0  0  0  0  0  0  0  0  0  0  0
  -28.6131  -21.1548   16.8857 N   0  0  0  0  0  0  0  0  0  0  0  0
  -21.2910  -29.4791   22.5622 N   0  0  0  0  0  0  0  0  0  0  0  0
  -22.3777  -32.3724   17.2218 N   0  0  0  0  0  0  0  0  0  0  0  0
  -25.2515  -33.9405   15.6888 N   0  3  0  0  0  0  0  0  0  0  0  0
  -25.6015  -12.4432   25.3953 O   0  0  0  0  0  0  0  0  0  0  0  0
  -22.5043  -27.9290   21.3181 O   0  0  0  0  0  0  0  0  0  0  0  0
  -21.5644  -32.0772   19.9531 O   0  0  0  0  0  0  0  0  0  0  0  0
  -24.0831  -31.3986   15.9888 O   0  0  0  0  0  0  0  0  0  0  0  0
  -28.6707  -16.9226   20.6521 O   0  0  0  0  0  0  0  0  0  0  0  0
  -21.5555   -7.2093   21.2936 O   0  0  0  0  0  0  0  0  0  0  0  0
  -27.4147  -26.0744   18.6308 O   0  0  0  0  0  0  0  0  0  1  0  0
  -21.5257   -3.1300   25.0034 F   0  0  0  0  0  0  0  0  0  0  0  0
  -21.1354   -7.7339   23.9752 F   0  0  0  0  0  0  0  0  0  0  0  0
  1  2  1  0  0  0  0
  1  5  2  0  0  0  0
  2  6  2  0  0  0  0
  3  8  2  0  0  0  0
  3 16  1  0  0  0  0
  4  9  1  0  0  0  0
  4 16  2  0  0  0  0
  5 18  1  0  0  0  0
  6 20  1  0  0  0  0
  7 10  2  0  0  0  0
  7 19  1  0  0  0  0
  8 27  1  0  0  0  0
  9 27  2  0  0  0  0
 10 28  1  0  0  0  0
 11 12  2  0  0  0  0
 11 29  1  0  0  0  0
 12 30  1  0  0  0  0
 13 21  1  0  0  0  0
 13 28  2  0  0  0  0
 14 22  1  0  0  0  0
 14 23  2  0  0  0  0
 15 30  2  0  0  0  0
 15 31  1  0  0  0  0
 16 32  1  0  0  0  0
 17 32  1  0  0  0  0
 17 33  2  0  0  0  0
 17 34  1  0  0  0  0
 18 20  2  0  0  0  0
 18 39  1  0  0  0  0
 19 21  2  0  0  0  0
 19 40  1  0  0  0  0
 20 52  1  0  0  0  0
 21 41  1  0  0  0  0
 22 24  2  0  0  0  0
 22 56  1  0  0  0  0
 23 25  1  0  0  0  0
 23 65  1  0  0  0  0
 24 26  1  0  0  0  0
 24 57  1  0  0  0  0
 25 26  2  0  0  0  0
 25 64  1  0  0  0  0
 26 76  1  0  0  0  0
 27 85  1  0  0  0  0
 28 86  1  0  0  0  0
 29 31  2  0  0  0  0
 29 85  1  0  0  0  0
 30 87  1  0  0  0  0
 31 88  1  0  0  0  0
 32 69  2  0  0  0  0
 33 70  1  0  0  0  0
 33 74  1  0  0  0  0
 34 75  1  0  0  0  0
 34 80  2  0  0  0  0
 35 53  1  0  0  0  0
 35 77  1  0  0  0  0
 35 81  2  0  0  0  0
 36 66  1  0  0  0  0
 36 71  1  0  0  0  0
 36 82  2  0  0  0  0
 37 67  1  0  0  0  0
 37 78  1  0  0  0  0
 37 83  2  0  0  0  0
 38 72  1  0  0  0  0
 38 73  1  0  0  0  0
 38 84  2  0  0  0  0
 39 42  1  0  0  0  0
 40 53  1  0  0  0  0
 41 71  1  0  0  0  0
 42 44  1  0  0  0  0
 43 45  1  0  0  0  0
 43 48  1  0  0  0  0
 44 52  1  0  0  0  0
 45 54  1  0  0  0  0
 46 49  1  0  0  0  0
 46 55  1  0  0  0  0
 47 50  1  0  0  0  0
 47 55  1  0  0  0  0
 48 72  1  0  0  0  0
 49 73  1  0  0  0  0
 50 73  1  0  0  0  0
 51 54  1  0  0  0  0
 51 72  1  0  0  0  0
 52 77  1  0  0  0  0
 53 71  1  0  0  0  0
 54 70  1  0  0  0  0
 55 76  1  0  0  0  0
 58 64  1  0  0  0  0
 59 67  1  0  0  0  0
 60 68  1  0  0  0  0
 61 68  1  0  0  0  0
 62 68  1  0  0  0  0
 63 79  1  0  0  0  0
 65 86  1  0  0  0  0
 66 68  1  0  0  0  0
 66 78  1  0  0  0  0
 67 79  1  0  0  0  0
 69 70  1  0  0  0  0
M  CHG  1  79   1
M  ISO  4  38 100  65 101  73 100  86 101
M  END
> <Batch ID>
0160

> <Smiles>
CCc1c([101CH2:1][101O:1]c2ccc3c(c2)CN(C(=O)C(NC(=O)C(C)NC)C(C)(C)C)C(C(=O)NC2CCCc4ccccc42)C3)cc(C)c(C)c1NC1CC[100N:0]([100C:0](=O)N2CCCC(n3nc(-c4ccc(Oc5ccc(F)cc5F)cc4)c(C(N)=O)c3N)C2)CC1

> <Shape>
0.284

> <Color>
0.123

> <Negative vol penalty>
0.000

$$$$

  -OEChem-04052322093D

 87 96  0     1  0  0  0  0  0999 V2000
  -25.0913  -37.6816   18.1506 C   0  0  0  0  0  0  0  0  0  0  0  0
  -25.0567  -36.4501   17.5042 C   0  0  0  0  0  0  0  0  0  0  0  0
  -22.4357  -15.6350   18.8606 C   0  0  0  0  0  0  0  0  0  0  0  0
  -22.1317  -14.8036   21.1086 C   0  0  0  0  0  0  0  0  0  0  0  0
  -25.6764  -37.7895   19.4115 C   0  0  0  0  0  0  0  0  0  0  0  0
  -25.6082  -35.3260   18.1179 C   0  0  0  0  0  0  0  0  0  0  0  0
  -24.6954  -28.2405   18.6446 C   0  0  0  0  0  0  0  0  0  0  0  0
  -21.1651  -15.1729   18.5179 C   0  0  0  0  0  0  0  0  0  0  0  0
  -20.8610  -14.3415   20.7659 C   0  0  0  0  0  0  0  0  0  0  0  0
  -25.4062  -27.0495   18.5033 C   0  0  0  0  0  0  0  0  0  0  0  0
  -19.7205  -12.2252   17.7123 C   0  0  0  0  0  0  0  0  0  0  0  0
  -19.5841  -11.5430   16.5034 C   0  0  0  0  0  0  0  0  0  0  0  0
  -28.4135  -21.3703   19.8343 C   0  0  0  0  0  0  0  0  0  0  0  0
  -26.3200  -27.3392   20.7169 C   0  0  0  0  0  0  0  0  0  0  0  0
  -18.0078  -13.2080   15.7416 C   0  0  0  0  0  0  0  0  0  0  0  0
  -22.9191  -15.4502   20.1560 C   0  0  0  0  0  0  0  0  0  0  0  0
  -24.5661  -17.1940   21.0245 C   0  0  0  0  0  0  0  0  0  0  0  0
  -26.2268  -36.6642   20.0452 C   0  0  0  0  0  0  0  0  0  0  0  0
  -24.8002  -28.9966   19.8209 C   0  0  0  0  0  0  0  0  0  0  0  0
  -26.2024  -35.4193   19.3880 C   0  0  0  0  0  0  0  0  0  0  0  0
  -29.7714  -21.3972   19.5168 C   0  0  0  0  0  0  0  0  0  0  0  0
  -25.6074  -28.5381   20.8717 C   0  0  0  0  0  0  0  0  0  0  0  0
  -27.7485  -22.5540   20.1546 C   0  0  0  0  0  0  0  0  0  0  0  0
  -30.4645  -22.6077   19.5198 C   0  0  0  0  0  0  0  0  0  0  0  0
  -28.4416  -23.7644   20.1576 C   0  0  0  0  0  0  0  0  0  0  0  0
  -20.3777  -14.5262   19.4705 C   0  0  0  0  0  0  0  0  0  0  0  0
  -26.2210  -26.6001   19.5384 C   0  0  0  0  0  0  0  0  0  0  0  0
  -19.0005  -13.3988   17.9360 C   0  0  0  0  0  0  0  0  0  0  0  0
  -29.7997  -23.7913   19.8402 C   0  0  0  0  0  0  0  0  0  0  0  0
  -18.7278  -12.0344   15.5180 C   0  0  0  0  0  0  0  0  0  0  0  0
  -18.1442  -13.8902   16.9506 C   0  0  0  0  0  0  0  0  0  0  0  0
  -24.2319  -15.9268   20.5105 C   0  0  0  0  0  0  0  0  0  0  0  0
  -25.9284  -17.1480   21.1927 C   0  0  0  0  0  0  0  0  0  0  0  0
  -23.7206  -18.3127   21.3235 C   0  0  0  0  0  0  0  0  0  0  0  0
  -25.8227  -31.9233   20.5225 C   0  0  0  0  0  0  0  0  0  0  0  0
  -24.6942  -31.1885   23.4736 C   0  0  0  0  0  0  0  0  0  0  0  0
  -23.8716  -28.7759   25.7429 C   0  0  0  0  0  0  0  0  0  0  0  0
  -30.9822  -15.8397   19.5611 C   0  0  0  0  0  0  0  0  0  0  0  0
  -26.8906  -36.8394   21.3880 C   0  0  0  0  0  0  0  0  0  0  0  0
  -24.0060  -30.2655   19.9682 C   0  0  0  0  0  0  0  0  0  0  0  0
  -25.7384  -29.3025   22.1628 C   0  0  0  0  0  0  0  0  0  0  0  0
  -27.1184  -35.5255   22.1310 C   0  0  0  0  0  0  0  0  0  0  0  0
  -29.1579  -13.2695   20.9815 C   0  0  0  0  0  0  0  0  0  0  0  0
  -27.7178  -34.4802   21.1956 C   0  0  0  0  0  0  0  0  0  0  0  0
  -27.7339  -13.8231   21.0345 C   0  0  0  0  0  0  0  0  0  0  0  0
  -31.1139  -19.4406   20.4046 C   0  0  0  0  0  0  0  0  0  0  0  0
  -29.5286  -19.1071   18.4614 C   0  0  0  0  0  0  0  0  0  0  0  0
  -29.8414  -13.6439   19.6711 C   0  0  0  0  0  0  0  0  0  0  0  0
  -31.7921  -18.1199   20.0481 C   0  0  0  0  0  0  0  0  0  0  0  0
  -30.2430  -17.7958   18.1478 C   0  0  0  0  0  0  0  0  0  0  0  0
  -28.4552  -15.6800   19.4547 C   0  0  0  0  0  0  0  0  0  0  0  0
  -30.4707  -20.0960   19.1704 C   0  0  0  0  0  0  0  0  0  0  0  0
  -26.7680  -34.1720   20.0318 C   0  0  1  0  0  0  0  0  0  0  0  0
  -24.5884  -31.2175   21.0084 C   0  0  1  0  0  0  0  0  0  0  0  0
  -27.7205  -15.3384   20.7664 C   0  0  1  0  0  0  0  0  0  0  0  0
  -26.2945  -22.4983   20.4919 C   0  0  0  0  0  0  0  0  0  0  0  0
  -31.9207  -22.6406   19.1792 C   0  0  0  0  0  0  0  0  0  0  0  0
  -23.0121  -28.4828   28.0823 C   0  0  0  0  0  0  0  0  0  0  0  0
  -27.4386  -31.9421   24.5737 C   0  0  0  0  0  0  0  0  0  0  0  0
  -26.8384  -30.7528   26.6935 C   0  0  0  0  0  0  0  0  0  0  0  0
  -25.5087  -32.7301   25.9553 C   0  0  0  0  0  0  0  0  0  0  0  0
  -21.4709  -27.3227   24.8028 C   0  0  0  0  0  0  0  0  0  0  0  0
  -30.5088  -25.7046   18.6186 C   0  0  0  0  0  0  0  0  0  0  0  0
  -27.7318  -25.0356   20.5004 C   0  0  0  0  0  0  0  0  0  1  0  0
  -25.2731  -30.5428   24.7093 C   0  0  1  0  0  0  0  0  0  0  0  0
  -22.6408  -28.5875   26.6113 C   0  0  2  0  0  0  0  0  0  0  0  0
  -26.2640  -31.4783   25.4580 C   0  0  0  0  0  0  0  0  0  0  0  0
  -25.2962  -15.1337   20.3616 N   0  0  0  0  0  0  0  0  0  0  0  0
  -26.3125  -15.9045   20.7846 N   0  0  0  0  0  0  0  0  0  0  0  0
  -24.9470  -30.5404   22.2563 N   0  0  0  0  0  0  0  0  0  0  0  0
  -29.8018  -15.0893   19.4503 N   0  0  0  0  0  0  0  0  0  0  0  0
  -30.8765  -17.2233   19.3435 N   0  0  0  0  0  0  0  0  0  0  0  0
  -26.8233  -18.0503   21.6481 N   0  0  0  0  0  0  0  0  0  0  0  0
  -22.3438  -18.1905   21.0913 N   0  0  0  0  0  0  0  0  0  0  0  0
  -25.6999  -33.2987   20.4689 N   0  0  0  0  0  0  0  0  0  0  0  0
  -24.1361  -30.1097   25.5144 N   0  0  0  0  0  0  0  0  0  0  0  0
  -21.9160  -27.3455   26.2200 N   0  3  0  0  0  0  0  0  0  0  0  0
  -24.1747  -19.3945   21.7674 O   0  0  0  0  0  0  0  0  0  0  0  0
  -26.8136  -31.2688   20.2203 O   0  0  0  0  0  0  0  0  0  0  0  0
  -24.0358  -32.2256   23.5852 O   0  0  0  0  0  0  0  0  0  0  0  0
  -24.5344  -27.8341   25.3135 O   0  0  0  0  0  0  0  0  0  0  0  0
  -32.0642  -15.3097   19.8425 O   0  0  0  0  0  0  0  0  0  0  0  0
  -19.1376  -14.0754   19.1364 O   0  0  0  0  0  0  0  0  0  0  0  0
  -30.4776  -24.9750   19.8428 O   0  0  0  0  0  0  0  0  0  0  0  0
  -26.9215  -25.4297   19.4017 O   0  0  0  0  0  0  0  0  0  1  0  0
  -18.5981  -11.3800   14.3565 F   0  0  0  0  0  0  0  0  0  0  0  0
  -17.4508  -15.0178   17.1593 F   0  0  0  0  0  0  0  0  0  0  0  0
  1  2  1  0  0  0  0
  1  5  2  0  0  0  0
  2  6  2  0  0  0  0
  3  8  2  0  0  0  0
  3 16  1  0  0  0  0
  4  9  1  0  0  0  0
  4 16  2  0  0  0  0
  5 18  1  0  0  0  0
  6 20  1  0  0  0  0
  7 10  2  0  0  0  0
  7 19  1  0  0  0  0
  8 26  1  0  0  0  0
  9 26  2  0  0  0  0
 10 27  1  0  0  0  0
 11 12  2  0  0  0  0
 11 28  1  0  0  0  0
 12 30  1  0  0  0  0
 13 21  1  0  0  0  0
 13 23  2  0  0  0  0
 14 22  1  0  0  0  0
 14 27  2  0  0  0  0
 15 30  2  0  0  0  0
 15 31  1  0  0  0  0
 16 32  1  0  0  0  0
 17 32  1  0  0  0  0
 17 33  2  0  0  0  0
 17 34  1  0  0  0  0
 18 20  2  0  0  0  0
 18 39  1  0  0  0  0
 19 22  2  0  0  0  0
 19 40  1  0  0  0  0
 20 53  1  0  0  0  0
 21 24  2  0  0  0  0
 21 52  1  0  0  0  0
 22 41  1  0  0  0  0
 23 25  1  0  0  0  0
 23 56  1  0  0  0  0
 24 29  1  0  0  0  0
 24 57  1  0  0  0  0
 25 29  2  0  0  0  0
 25 64  1  0  0  0  0
 26 83  1  0  0  0  0
 27 85  1  0  0  0  0
 28 31  2  0  0  0  0
 28 83  1  0  0  0  0
 29 84  1  0  0  0  0
 30 86  1  0  0  0  0
 31 87  1  0  0  0  0
 32 68  2  0  0  0  0
 33 69  1  0  0  0  0
 33 73  1  0  0  0  0
 34 74  1  0  0  0  0
 34 78  2  0  0  0  0
 35 54  1  0  0  0  0
 35 75  1  0  0  0  0
 35 79  2  0  0  0  0
 36 65  1  0  0  0  0
 36 70  1  0  0  0  0
 36 80  2  0  0  0  0
 37 66  1  0  0  0  0
 37 76  1  0  0  0  0
 37 81  2  0  0  0  0
 38 71  1  0  0  0  0
 38 72  1  0  0  0  0
 38 82  2  0  0  0  0
 39 42  1  0  0  0  0
 40 54  1  0  0  0  0
 41 70  1  0  0  0  0
 42 44  1  0  0  0  0
 43 45  1  0  0  0  0
 43 48  1  0  0  0  0
 44 53  1  0  0  0  0
 45 55  1  0  0  0  0
 46 49  1  0  0  0  0
 46 52  1  0  0  0  0
 47 50  1  0  0  0  0
 47 52  1  0  0  0  0
 48 71  1  0  0  0  0
 49 72  1  0  0  0  0
 50 72  1  0  0  0  0
 51 55  1  0  0  0  0
 51 71  1  0  0  0  0
 53 75  1  0  0  0  0
 54 70  1  0  0  0  0
 55 69  1  0  0  0  0
 58 66  1  0  0  0  0
 59 67  1  0  0  0  0
 60 67  1  0  0  0  0
 61 67  1  0  0  0  0
 62 77  1  0  0  0  0
 63 84  1  0  0  0  0
 64 85  1  0  0  0  0
 65 67  1  0  0  0  0
 65 76  1  0  0  0  0
 66 77  1  0  0  0  0
 68 69  1  0  0  0  0
M  CHG  1  77   1
M  ISO  4  38 100  64 101  72 100  85 101
M  END
> <Batch ID>
0160

> <Smiles>
CNC(C)C(=O)NC(C(=O)N1Cc2cc([101O:1][101CH2:1]c3c(C)cc(C4CC[100N:0]([100C:0](=O)N5CCCC(n6nc(-c7ccc(Oc8ccc(F)cc8F)cc7)c(C(N)=O)c6N)C5)CC4)c(C)c3OC)ccc2CC1C(=O)NC1CCCc2ccccc21)C(C)(C)C

> <Shape>
0.223

> <Color>
0.106

> <Negative vol penalty>
0.000

$$$$

  -OEChem-04052322093D

 86 95  0     1  0  0  0  0  0999 V2000
  -16.7011  -28.6190   24.1045 C   0  0  0  0  0  0  0  0  0  0  0  0
  -17.9017  -27.9422   23.9152 C   0  0  0  0  0  0  0  0  0  0  0  0
  -24.2645   -9.6933   21.5343 C   0  0  0  0  0  0  0  0  0  0  0  0
  -24.6384  -10.8199   23.6385 C   0  0  0  0  0  0  0  0  0  0  0  0
  -16.5949  -29.9619   23.7449 C   0  0  0  0  0  0  0  0  0  0  0  0
  -18.9967  -28.6078   23.3651 C   0  0  0  0  0  0  0  0  0  0  0  0
  -23.3042  -27.6422   25.8466 C   0  0  0  0  0  0  0  0  0  0  0  0
  -23.8413   -8.5544   22.2192 C   0  0  0  0  0  0  0  0  0  0  0  0
  -24.2152   -9.6810   24.3235 C   0  0  0  0  0  0  0  0  0  0  0  0
  -23.9267  -26.4214   25.5903 C   0  0  0  0  0  0  0  0  0  0  0  0
  -21.0467   -7.4922   23.7990 C   0  0  0  0  0  0  0  0  0  0  0  0
  -19.8926   -6.8541   23.3448 C   0  0  0  0  0  0  0  0  0  0  0  0
  -28.4637  -19.5538   22.9914 C   0  0  0  0  0  0  0  0  0  0  0  0
  -27.5279  -21.9572   21.8388 C   0  0  0  0  0  0  0  0  0  0  0  0
  -25.4670  -27.5267   24.0987 C   0  0  0  0  0  0  0  0  0  0  0  0
  -21.1622   -4.8360   22.9543 C   0  0  0  0  0  0  0  0  0  0  0  0
  -24.6631  -10.8261   22.2439 C   0  0  0  0  0  0  0  0  0  0  0  0
  -24.3043  -13.0791   21.1024 C   0  0  0  0  0  0  0  0  0  0  0  0
  -17.6920  -30.6469   23.1992 C   0  0  0  0  0  0  0  0  0  0  0  0
  -23.7523  -28.8147   25.2214 C   0  0  0  0  0  0  0  0  0  0  0  0
  -18.9047  -29.9608   22.9967 C   0  0  0  0  0  0  0  0  0  0  0  0
  -28.6417  -19.8108   21.6404 C   0  0  0  0  0  0  0  0  0  0  0  0
  -28.1802  -21.0042   21.0733 C   0  0  0  0  0  0  0  0  0  0  0  0
  -24.8501  -28.7616   24.3507 C   0  0  0  0  0  0  0  0  0  0  0  0
  -27.7961  -20.5032   23.7684 C   0  0  0  0  0  0  0  0  0  0  0  0
  -23.8166   -8.5482   23.6139 C   0  0  0  0  0  0  0  0  0  0  0  0
  -25.0064  -26.3630   24.7140 C   0  0  0  0  0  0  0  0  0  0  0  0
  -22.2587   -6.8023   23.8307 C   0  0  0  0  0  0  0  0  0  0  0  0
  -27.3308  -21.6965   23.1958 C   0  0  0  0  0  0  0  0  0  0  0  0
  -19.9503   -5.5260   22.9225 C   0  0  0  0  0  0  0  0  0  0  0  0
  -22.3163   -5.4742   23.4084 C   0  0  0  0  0  0  0  0  0  0  0  0
  -25.1009  -12.0028   21.5369 C   0  0  0  0  0  0  0  0  0  0  0  0
  -25.1871  -13.9339   20.4888 C   0  0  0  0  0  0  0  0  0  0  0  0
  -22.8926  -13.2876   21.2412 C   0  0  0  0  0  0  0  0  0  0  0  0
  -22.4660  -30.9205   23.2176 C   0  0  0  0  0  0  0  0  0  0  0  0
  -25.2460  -32.5137   23.7233 C   0  0  0  0  0  0  0  0  0  0  0  0
  -28.5337  -32.3880   24.6298 C   0  0  0  0  0  0  0  0  0  0  0  0
  -30.0789  -16.6176   20.3715 C   0  0  0  0  0  0  0  0  0  0  0  0
  -17.5152  -32.0854   22.7820 C   0  0  0  0  0  0  0  0  0  0  0  0
  -23.0869  -30.1282   25.5291 C   0  0  0  0  0  0  0  0  0  0  0  0
  -28.5318  -21.0860   19.6191 C   0  0  0  0  0  0  0  0  0  0  0  0
  -25.3824  -29.9950   23.6696 C   0  0  0  0  0  0  0  0  0  0  0  0
  -18.8338  -32.8195   22.5527 C   0  0  0  0  0  0  0  0  0  0  0  0
  -30.0208  -13.2728   19.1527 C   0  0  0  0  0  0  0  0  0  0  0  0
  -19.7796  -31.9680   21.7117 C   0  0  0  0  0  0  0  0  0  0  0  0
  -28.6733  -12.7316   19.6337 C   0  0  0  0  0  0  0  0  0  0  0  0
  -30.6489  -14.2147   20.1774 C   0  0  0  0  0  0  0  0  0  0  0  0
  -28.4329  -14.7831   21.0939 C   0  0  0  0  0  0  0  0  0  0  0  0
  -20.1222  -30.6550   22.4259 C   0  0  1  0  0  0  0  0  0  0  0  0
  -29.3581  -18.9800   20.6138 C   0  0  2  0  0  0  0  0  0  0  0  0
  -23.3006  -31.1756   24.4407 C   0  0  1  0  0  0  0  0  0  0  0  0
  -27.7343  -13.8723   20.0698 C   0  0  2  0  0  0  0  0  0  0  0  0
  -28.8434  -19.5999   19.2726 C   0  0  0  0  0  0  0  0  0  0  0  0
  -27.5907  -20.2336   25.2236 C   0  0  0  0  0  0  0  0  0  0  0  0
  -29.9217  -19.5158   18.1845 C   0  0  0  0  0  0  0  0  0  0  0  0
  -27.5607  -18.9157   18.7490 C   0  0  0  0  0  0  0  0  0  0  0  0
  -30.5568  -33.8459   24.9108 C   0  0  0  0  0  0  0  0  0  0  0  0
  -25.6039  -32.5967   20.6943 C   0  0  0  0  0  0  0  0  0  0  0  0
  -28.0102  -33.1807   21.0645 C   0  0  0  0  0  0  0  0  0  0  0  0
  -26.2174  -34.7139   21.8756 C   0  0  0  0  0  0  0  0  0  0  0  0
  -28.7325  -31.7552   27.5141 C   0  0  0  0  0  0  0  0  0  0  0  0
  -24.8063  -23.9997   24.5391 C   0  0  0  0  0  0  0  0  0  1  0  0
  -25.3518  -22.9575   23.5821 C   0  0  0  0  0  0  0  0  0  0  0  0
  -26.6078  -32.5210   23.0718 C   0  0  1  0  0  0  0  0  0  0  0  0
  -29.3453  -33.2325   25.5955 C   0  0  2  0  0  0  0  0  0  0  0  0
  -26.5988  -33.2293   21.6877 C   0  0  0  0  0  0  0  0  0  0  0  0
  -26.3906  -12.1572   21.2255 N   0  0  0  0  0  0  0  0  0  0  0  0
  -26.4111  -13.3406   20.5888 N   0  0  0  0  0  0  0  0  0  0  0  0
  -24.6942  -31.2544   23.9979 N   0  0  0  0  0  0  0  0  0  0  0  0
  -29.7076  -15.2744   20.5476 N   0  0  0  0  0  0  0  0  0  0  0  0
  -25.0280  -15.1276   19.8788 N   0  0  0  0  0  0  0  0  0  0  0  0
  -22.1342  -12.3095   21.8988 N   0  0  0  0  0  0  0  0  0  0  0  0
  -21.1064  -30.8850   23.4617 N   0  0  0  0  0  0  0  0  0  0  0  0
  -27.5211  -33.1158   24.0415 N   0  0  0  0  0  0  0  0  0  0  0  0
  -29.1258  -17.5586   20.7415 N   0  0  0  0  0  0  0  0  0  0  0  0
  -29.8216  -32.4008   26.7368 N   0  3  0  0  0  0  0  0  0  0  0  0
  -22.3181  -14.3033   20.7808 O   0  0  0  0  0  0  0  0  0  0  0  0
  -23.0148  -30.7687   22.1325 O   0  0  0  0  0  0  0  0  0  0  0  0
  -24.6954  -33.5859   23.9856 O   0  0  0  0  0  0  0  0  0  0  0  0
  -28.7763  -31.2023   24.4157 O   0  0  0  0  0  0  0  0  0  0  0  0
  -31.1762  -16.9533   19.9131 O   0  0  0  0  0  0  0  0  0  0  0  0
  -23.4035   -7.4370   24.2826 O   0  0  0  0  0  0  0  0  0  0  0  0
  -25.6155  -25.1725   24.4616 O   0  0  0  0  0  0  0  0  0  1  0  0
  -26.6817  -22.6272   23.9636 O   0  0  0  0  0  0  0  0  0  0  0  0
  -18.8416   -4.9128   22.4878 F   0  0  0  0  0  0  0  0  0  0  0  0
  -23.4775   -4.8058   23.4377 F   0  0  0  0  0  0  0  0  0  0  0  0
  1  2  1  0  0  0  0
  1  5  2  0  0  0  0
  2  6  2  0  0  0  0
  3  8  2  0  0  0  0
  3 17  1  0  0  0  0
  4  9  1  0  0  0  0
  4 17  2  0  0  0  0
  5 19  1  0  0  0  0
  6 21  1  0  0  0  0
  7 10  2  0  0  0  0
  7 20  1  0  0  0  0
  8 26  1  0  0  0  0
  9 26  2  0  0  0  0
 10 27  1  0  0  0  0
 11 12  2  0  0  0  0
 11 28  1  0  0  0  0
 12 30  1  0  0  0  0
 13 22  2  0  0  0  0
 13 25  1  0  0  0  0
 14 23  2  0  0  0  0
 14 29  1  0  0  0  0
 15 24  1  0  0  0  0
 15 27  2  0  0  0  0
 16 30  2  0  0  0  0
 16 31  1  0  0  0  0
 17 32  1  0  0  0  0
 18 32  1  0  0  0  0
 18 33  2  0  0  0  0
 18 34  1  0  0  0  0
 19 21  2  0  0  0  0
 19 39  1  0  0  0  0
 20 24  2  0  0  0  0
 20 40  1  0  0  0  0
 21 49  1  0  0  0  0
 22 23  1  0  0  0  0
 22 50  1  0  0  0  0
 23 41  1  0  0  0  0
 24 42  1  0  0  0  0
 25 29  2  0  0  0  0
 25 54  1  0  0  0  0
 26 82  1  0  0  0  0
 27 83  1  0  0  0  0
 28 31  2  0  0  0  0
 28 82  1  0  0  0  0
 29 84  1  0  0  0  0
 30 85  1  0  0  0  0
 31 86  1  0  0  0  0
 32 67  2  0  0  0  0
 33 68  1  0  0  0  0
 33 71  1  0  0  0  0
 34 72  1  0  0  0  0
 34 77  2  0  0  0  0
 35 51  1  0  0  0  0
 35 73  1  0  0  0  0
 35 78  2  0  0  0  0
 36 64  1  0  0  0  0
 36 69  1  0  0  0  0
 36 79  2  0  0  0  0
 37 65  1  0  0  0  0
 37 74  1  0  0  0  0
 37 80  2  0  0  0  0
 38 70  1  0  0  0  0
 38 75  1  0  0  0  0
 38 81  2  0  0  0  0
 39 43  1  0  0  0  0
 40 51  1  0  0  0  0
 41 53  1  0  0  0  0
 42 69  1  0  0  0  0
 43 45  1  0  0  0  0
 44 46  1  0  0  0  0
 44 47  1  0  0  0  0
 45 49  1  0  0  0  0
 46 52  1  0  0  0  0
 47 70  1  0  0  0  0
 48 52  1  0  0  0  0
 48 70  1  0  0  0  0
 49 73  1  0  0  0  0
 50 53  1  0  0  0  0
 50 75  1  0  0  0  0
 51 69  1  0  0  0  0
 52 68  1  0  0  0  0
 53 55  1  0  0  0  0
 53 56  1  0  0  0  0
 57 65  1  0  0  0  0
 58 66  1  0  0  0  0
 59 66  1  0  0  0  0
 60 66  1  0  0  0  0
 61 76  1  0  0  0  0
 62 63  1  0  0  0  0
 62 83  1  0  0  0  0
 63 84  1  0  0  0  0
 64 66  1  0  0  0  0
 64 74  1  0  0  0  0
 65 76  1  0  0  0  0
 67 68  1  0  0  0  0
M  CHG  1  76   1
M  ISO  4  38 100  62 101  75 100  83 101
M  END
> <Batch ID>
0160

> <Smiles>
CNC(C)C(=O)NC(C(=O)N1Cc2cc([101O:1][101CH2:1]COc3cc4c(cc3C)C([100NH:0][100C:0](=O)N3CCCC(n5nc(-c6ccc(Oc7ccc(F)cc7F)cc6)c(C(N)=O)c5N)C3)C(C)(C)C4)ccc2CC1C(=O)NC1CCCc2ccccc21)C(C)(C)C

> <Shape>
0.290

> <Color>
0.118

> <Negative vol penalty>
0.000

$$$$

  -OEChem-04052322093D

 90100  0     1  0  0  0  0  0999 V2000
  -25.9152  -31.1516   22.0262 C   0  0  0  0  0  0  0  0  0  0  0  0
  -25.6570  -30.0785   22.8730 C   0  0  0  0  0  0  0  0  0  0  0  0
  -22.9914  -22.6781   23.1229 C   0  0  0  0  0  0  0  0  0  0  0  0
  -20.9613  -22.8136   24.4257 C   0  0  0  0  0  0  0  0  0  0  0  0
  -26.1709  -30.9256   20.6744 C   0  0  0  0  0  0  0  0  0  0  0  0
  -25.6532  -28.7786   22.3681 C   0  0  0  0  0  0  0  0  0  0  0  0
  -27.2244  -22.0503   24.2595 C   0  0  0  0  0  0  0  0  0  0  0  0
  -22.9722  -24.0619   22.9489 C   0  0  0  0  0  0  0  0  0  0  0  0
  -20.9421  -24.1975   24.2518 C   0  0  0  0  0  0  0  0  0  0  0  0
  -26.6556  -20.7776   24.2839 C   0  0  0  0  0  0  0  0  0  0  0  0
  -20.1602  -27.7240   23.8490 C   0  0  0  0  0  0  0  0  0  0  0  0
  -18.9438  -28.3184   23.5137 C   0  0  0  0  0  0  0  0  0  0  0  0
  -27.1888  -20.5012   21.9475 C   0  0  0  0  0  0  0  0  0  0  0  0
  -18.8492  -26.9884   21.4990 C   0  0  0  0  0  0  0  0  0  0  0  0
  -21.9860  -22.0539   23.8613 C   0  0  0  0  0  0  0  0  0  0  0  0
  -22.6245  -19.9065   25.0813 C   0  0  0  0  0  0  0  0  0  0  0  0
  -26.1798  -29.6216   20.1546 C   0  0  0  0  0  0  0  0  0  0  0  0
  -27.7707  -22.5631   23.0742 C   0  0  0  0  0  0  0  0  0  0  0  0
  -25.9079  -28.5351   21.0078 C   0  0  0  0  0  0  0  0  0  0  0  0
  -27.7661  -21.7796   21.9114 C   0  0  0  0  0  0  0  0  0  0  0  0
  -27.3024  -16.0945   23.2625 C   0  0  0  0  0  0  0  0  0  0  0  0
  -28.6726  -16.2041   23.6054 C   0  0  0  0  0  0  0  0  0  0  0  0
  -21.9476  -24.8216   23.5133 C   0  0  0  0  0  0  0  0  0  0  0  0
  -26.6352  -20.0040   23.1271 C   0  0  0  0  0  0  0  0  0  0  0  0
  -20.7212  -26.7618   23.0093 C   0  0  0  0  0  0  0  0  0  0  0  0
  -18.2882  -27.9506   22.3387 C   0  0  0  0  0  0  0  0  0  0  0  0
  -20.0657  -26.3940   21.8343 C   0  0  0  0  0  0  0  0  0  0  0  0
  -22.0050  -20.6244   24.0408 C   0  0  0  0  0  0  0  0  0  0  0  0
  -27.2357  -15.5160   22.0142 C   0  0  0  0  0  0  0  0  0  0  0  0
  -29.4016  -15.6894   22.5561 C   0  0  0  0  0  0  0  0  0  0  0  0
  -22.3541  -18.5900   24.7985 C   0  0  0  0  0  0  0  0  0  0  0  0
  -23.3771  -20.3868   26.2032 C   0  0  0  0  0  0  0  0  0  0  0  0
  -27.1370  -25.0562   21.2069 C   0  0  0  0  0  0  0  0  0  0  0  0
  -29.8276  -24.0948   19.6711 C   0  0  0  0  0  0  0  0  0  0  0  0
  -31.9971  -21.5649   18.9363 C   0  0  0  0  0  0  0  0  0  0  0  0
  -21.7831  -14.9455   20.4988 C   0  0  0  0  0  0  0  0  0  0  0  0
  -26.4147  -29.4307   18.6771 C   0  0  0  0  0  0  0  0  0  0  0  0
  -28.4045  -23.9272   23.0711 C   0  0  0  0  0  0  0  0  0  0  0  0
  -28.3578  -22.2760   20.6183 C   0  0  0  0  0  0  0  0  0  0  0  0
  -26.7622  -27.9938   18.2963 C   0  0  0  0  0  0  0  0  0  0  0  0
  -29.3460  -12.8669   19.0511 C   0  0  0  0  0  0  0  0  0  0  0  0
  -18.9842  -16.2155   22.0816 C   0  0  0  0  0  0  0  0  0  0  0  0
  -25.8089  -27.0160   18.9759 C   0  0  0  0  0  0  0  0  0  0  0  0
  -30.1051  -13.6097   20.1671 C   0  0  0  0  0  0  0  0  0  0  0  0
  -28.0516  -13.4465   19.6530 C   0  0  0  0  0  0  0  0  0  0  0  0
  -19.5224  -17.4164   22.8595 C   0  0  0  0  0  0  0  0  0  0  0  0
  -25.1307  -14.1169   21.8411 C   0  0  0  0  0  0  0  0  0  0  0  0
  -25.2149  -16.4098   20.7753 C   0  0  0  0  0  0  0  0  0  0  0  0
  -19.6180  -16.1324   20.6975 C   0  0  0  0  0  0  0  0  0  0  0  0
  -23.9088  -13.7896   20.9861 C   0  0  0  0  0  0  0  0  0  0  0  0
  -23.9931  -16.0306   19.9435 C   0  0  0  0  0  0  0  0  0  0  0  0
  -21.6622  -17.2731   21.4939 C   0  0  0  0  0  0  0  0  0  0  0  0
  -25.9195  -27.1086   20.5026 C   0  0  1  0  0  0  0  0  0  0  0  0
  -26.0308  -15.1636   21.1622 C   0  0  0  0  0  0  0  0  0  0  0  0
  -28.4708  -24.5521   21.6809 C   0  0  1  0  0  0  0  0  0  0  0  0
  -28.9168  -14.6174   20.2096 C   0  0  0  0  0  0  0  0  0  0  0  0
  -21.0604  -17.3986   22.9078 C   0  0  1  0  0  0  0  0  0  0  0  0
  -29.2207  -16.7677   24.8561 C   0  0  0  0  0  0  0  0  0  0  0  0
  -30.8645  -15.5575   22.3868 C   0  0  0  0  0  0  0  0  0  0  0  0
  -26.0643  -15.7511   25.4260 C   0  0  0  0  0  0  0  0  0  0  0  0
  -34.0801  -21.0746   17.6256 C   0  0  0  0  0  0  0  0  0  0  0  0
  -28.1962  -24.0689   17.0927 C   0  0  0  0  0  0  0  0  0  0  0  0
  -30.0079  -22.6969   16.0423 C   0  0  0  0  0  0  0  0  0  0  0  0
  -30.5047  -25.0016   16.8573 C   0  0  0  0  0  0  0  0  0  0  0  0
  -33.4961  -20.8185   21.3766 C   0  0  0  0  0  0  0  0  0  0  0  0
  -26.1375  -18.0456   24.3813 C   0  0  0  0  0  0  0  0  0  1  0  0
  -26.1537  -16.5223   24.0877 C   0  0  1  0  0  0  0  0  0  0  0  0
  -30.1295  -23.1477   18.5349 C   0  0  1  0  0  0  0  0  0  0  0  0
  -33.5131  -21.4957   18.9724 C   0  0  2  0  0  0  0  0  0  0  0  0
  -29.6966  -23.7199   17.1555 C   0  0  0  0  0  0  0  0  0  0  0  0
  -21.3876  -19.8298   23.1625 N   0  0  0  0  0  0  0  0  0  0  0  0
  -28.5178  -15.2744   21.5944 N   0  0  0  0  0  0  0  0  0  0  0  0
  -21.6180  -18.5989   23.6503 N   0  0  0  0  0  0  0  0  0  0  0  0
  -28.9602  -23.6186   20.6644 N   0  0  0  0  0  0  0  0  0  0  0  0
  -21.0781  -16.1242   20.7861 N   0  0  0  0  0  0  0  0  0  0  0  0
  -23.1823  -15.0012   20.6082 N   0  0  0  0  0  0  0  0  0  0  0  0
  -22.6766  -17.4370   25.4223 N   0  0  0  0  0  0  0  0  0  0  0  0
  -23.5598  -21.7694   26.3426 N   0  0  0  0  0  0  0  0  0  0  0  0
  -27.1028  -26.4165   20.9665 N   0  0  0  0  0  0  0  0  0  0  0  0
  -31.5508  -22.8336   18.6320 N   0  0  0  0  0  0  0  0  0  0  0  0
  -33.9625  -20.5137   19.9994 N   0  3  0  0  0  0  0  0  0  0  0  0
  -23.8868  -19.6120   27.0478 O   0  0  0  0  0  0  0  0  0  0  0  0
  -26.2081  -24.2691   21.0682 O   0  0  0  0  0  0  0  0  0  0  0  0
  -30.3480  -25.2131   19.6806 O   0  0  0  0  0  0  0  0  0  0  0  0
  -31.2805  -20.5901   19.1525 O   0  0  0  0  0  0  0  0  0  0  0  0
  -21.2006  -13.9046   20.1700 O   0  0  0  0  0  0  0  0  0  0  0  0
  -21.9286  -26.1720   23.3440 O   0  0  0  0  0  0  0  0  0  0  0  0
  -26.0764  -18.7535   23.1481 O   0  0  0  0  0  0  0  0  0  1  0  0
  -17.1193  -28.5204   22.0176 F   0  0  0  0  0  0  0  0  0  0  0  0
  -20.5992  -25.4693   21.0242 F   0  0  0  0  0  0  0  0  0  0  0  0
  1  2  1  0  0  0  0
  1  5  2  0  0  0  0
  2  6  2  0  0  0  0
  3  8  2  0  0  0  0
  3 15  1  0  0  0  0
  4  9  1  0  0  0  0
  4 15  2  0  0  0  0
  5 17  1  0  0  0  0
  6 19  1  0  0  0  0
  7 10  2  0  0  0  0
  7 18  1  0  0  0  0
  8 23  1  0  0  0  0
  9 23  2  0  0  0  0
 10 24  1  0  0  0  0
 11 12  2  0  0  0  0
 11 25  1  0  0  0  0
 12 26  1  0  0  0  0
 13 20  1  0  0  0  0
 13 24  2  0  0  0  0
 14 26  2  0  0  0  0
 14 27  1  0  0  0  0
 15 28  1  0  0  0  0
 16 28  1  0  0  0  0
 16 31  2  0  0  0  0
 16 32  1  0  0  0  0
 17 19  2  0  0  0  0
 17 37  1  0  0  0  0
 18 20  2  0  0  0  0
 18 38  1  0  0  0  0
 19 53  1  0  0  0  0
 20 39  1  0  0  0  0
 21 22  1  0  0  0  0
 21 29  2  0  0  0  0
 21 67  1  0  0  0  0
 22 30  2  0  0  0  0
 22 58  1  0  0  0  0
 23 87  1  0  0  0  0
 24 88  1  0  0  0  0
 25 27  2  0  0  0  0
 25 87  1  0  0  0  0
 26 89  1  0  0  0  0
 27 90  1  0  0  0  0
 28 71  2  0  0  0  0
 29 54  1  0  0  0  0
 29 72  1  0  0  0  0
 30 59  1  0  0  0  0
 30 72  1  0  0  0  0
 31 73  1  0  0  0  0
 31 77  1  0  0  0  0
 32 78  1  0  0  0  0
 32 82  2  0  0  0  0
 33 55  1  0  0  0  0
 33 79  1  0  0  0  0
 33 83  2  0  0  0  0
 34 68  1  0  0  0  0
 34 74  1  0  0  0  0
 34 84  2  0  0  0  0
 35 69  1  0  0  0  0
 35 80  1  0  0  0  0
 35 85  2  0  0  0  0
 36 75  1  0  0  0  0
 36 76  1  0  0  0  0
 36 86  2  0  0  0  0
 37 40  1  0  0  0  0
 38 55  1  0  0  0  0
 39 74  1  0  0  0  0
 40 43  1  0  0  0  0
 41 44  1  0  0  0  0
 41 45  1  0  0  0  0
 42 46  1  0  0  0  0
 42 49  1  0  0  0  0
 43 53  1  0  0  0  0
 44 56  1  0  0  0  0
 45 56  1  0  0  0  0
 46 57  1  0  0  0  0
 47 50  1  0  0  0  0
 47 54  1  0  0  0  0
 48 51  1  0  0  0  0
 48 54  1  0  0  0  0
 49 75  1  0  0  0  0
 50 76  1  0  0  0  0
 51 76  1  0  0  0  0
 52 57  1  0  0  0  0
 52 75  1  0  0  0  0
 53 79  1  0  0  0  0
 55 74  1  0  0  0  0
 56 72  1  0  0  0  0
 57 73  1  0  0  0  0
 60 67  1  0  0  0  0
 61 69  1  0  0  0  0
 62 70  1  0  0  0  0
 63 70  1  0  0  0  0
 64 70  1  0  0  0  0
 65 81  1  0  0  0  0
 66 67  1  0  0  0  0
 66 88  1  0  0  0  0
 68 70  1  0  0  0  0
 68 80  1  0  0  0  0
 69 81  1  0  0  0  0
 71 73  1  0  0  0  0
M  CHG  1  81   1
M  ISO  4  36 100  66 101  76 100  88 101
M  END
> <Batch ID>
0160

> <Smiles>
CNC(C)C(=O)NC(C(=O)N1Cc2cc([101O:1][101CH2:1]C(C)c3c(C)c(C)n(C4CCC4)c3C3CC[100N:0]([100C:0](=O)N4CCCC(n5nc(-c6ccc(Oc7ccc(F)cc7F)cc6)c(C(N)=O)c5N)C4)CC3)ccc2CC1C(=O)NC1CCCc2ccccc21)C(C)(C)C

> <Shape>
0.202

> <Color>
0.061

> <Negative vol penalty>
0.000

$$$$

  -OEChem-04052322093D

 88 97  0     1  0  0  0  0  0999 V2000
  -29.9421  -24.3799   18.1624 C   0  0  0  0  0  0  0  0  0  0  0  0
  -28.5578  -24.5139   18.1975 C   0  0  0  0  0  0  0  0  0  0  0  0
  -24.2926  -15.0174   16.5045 C   0  0  0  0  0  0  0  0  0  0  0  0
  -26.6230  -14.5965   16.0255 C   0  0  0  0  0  0  0  0  0  0  0  0
  -30.7172  -24.8892   19.2035 C   0  0  0  0  0  0  0  0  0  0  0  0
  -27.9477  -25.1565   19.2742 C   0  0  0  0  0  0  0  0  0  0  0  0
  -22.9230  -28.6537   19.1078 C   0  0  0  0  0  0  0  0  0  0  0  0
  -23.9689  -14.7355   15.1774 C   0  0  0  0  0  0  0  0  0  0  0  0
  -26.2992  -14.3146   14.6983 C   0  0  0  0  0  0  0  0  0  0  0  0
  -21.5855  -28.3883   19.3980 C   0  0  0  0  0  0  0  0  0  0  0  0
  -24.1033  -16.3144   12.1919 C   0  0  0  0  0  0  0  0  0  0  0  0
  -23.2209  -17.1783   11.5433 C   0  0  0  0  0  0  0  0  0  0  0  0
  -21.9007  -29.2643   21.6234 C   0  0  0  0  0  0  0  0  0  0  0  0
  -19.8284  -25.0453   23.4528 C   0  0  0  0  0  0  0  0  0  0  0  0
  -21.6916  -15.3436   11.1798 C   0  0  0  0  0  0  0  0  0  0  0  0
  -25.6197  -14.9479   16.9286 C   0  0  0  0  0  0  0  0  0  0  0  0
  -26.0115  -14.3303   19.3725 C   0  0  0  0  0  0  0  0  0  0  0  0
  -30.1170  -25.5469   20.2888 C   0  0  0  0  0  0  0  0  0  0  0  0
  -23.7637  -29.2173   20.0784 C   0  0  0  0  0  0  0  0  0  0  0  0
  -28.7154  -25.6739   20.3314 C   0  0  0  0  0  0  0  0  0  0  0  0
  -23.2479  -29.5383   21.3422 C   0  0  0  0  0  0  0  0  0  0  0  0
  -20.5924  -24.0031   23.9660 C   0  0  0  0  0  0  0  0  0  0  0  0
  -19.2937  -24.9434   22.1733 C   0  0  0  0  0  0  0  0  0  0  0  0
  -24.9721  -14.3841   14.2743 C   0  0  0  0  0  0  0  0  0  0  0  0
  -21.0748  -28.6909   20.6569 C   0  0  0  0  0  0  0  0  0  0  0  0
  -23.7798  -14.9650   12.3344 C   0  0  0  0  0  0  0  0  0  0  0  0
  -22.0151  -16.6930   11.0373 C   0  0  0  0  0  0  0  0  0  0  0  0
  -22.5740  -14.4796   11.8284 C   0  0  0  0  0  0  0  0  0  0  0  0
  -25.9549  -15.2395   18.2993 C   0  0  0  0  0  0  0  0  0  0  0  0
  -19.5501  -23.7876   21.4534 C   0  0  0  0  0  0  0  0  0  0  0  0
  -20.7905  -22.8894   23.1660 C   0  0  0  0  0  0  0  0  0  0  0  0
  -26.3730  -15.0969   20.4533 C   0  0  0  0  0  0  0  0  0  0  0  0
  -25.7599  -12.9189   19.3908 C   0  0  0  0  0  0  0  0  0  0  0  0
  -26.4098  -28.2818   21.5706 C   0  0  0  0  0  0  0  0  0  0  0  0
  -26.3302  -31.2936   22.7728 C   0  0  0  0  0  0  0  0  0  0  0  0
  -24.4808  -34.0535   23.5538 C   0  0  0  0  0  0  0  0  0  0  0  0
  -25.7214  -21.0790   21.3466 C   0  0  0  0  0  0  0  0  0  0  0  0
  -30.9927  -26.0392   21.4137 C   0  0  0  0  0  0  0  0  0  0  0  0
  -25.1974  -29.5222   19.7409 C   0  0  0  0  0  0  0  0  0  0  0  0
  -24.1037  -30.1631   22.4126 C   0  0  0  0  0  0  0  0  0  0  0  0
  -30.2965  -27.0370   22.3356 C   0  0  0  0  0  0  0  0  0  0  0  0
  -28.7834  -19.0705   21.5975 C   0  0  0  0  0  0  0  0  0  0  0  0
  -28.9059  -26.5357   22.7119 C   0  0  0  0  0  0  0  0  0  0  0  0
  -28.4185  -17.7993   20.8296 C   0  0  0  0  0  0  0  0  0  0  0  0
  -23.1291  -19.9607   23.7017 C   0  0  0  0  0  0  0  0  0  0  0  0
  -28.0437  -20.2942   21.0616 C   0  0  0  0  0  0  0  0  0  0  0  0
  -24.2357  -19.5277   22.7456 C   0  0  0  0  0  0  0  0  0  0  0  0
  -26.2196  -18.8699   20.2148 C   0  0  0  0  0  0  0  0  0  0  0  0
  -23.4574  -21.7140   22.1293 C   0  0  0  0  0  0  0  0  0  0  0  0
  -28.0186  -26.3864   21.4702 C   0  0  1  0  0  0  0  0  0  0  0  0
  -26.0926  -29.6231   20.9721 C   0  0  1  0  0  0  0  0  0  0  0  0
  -26.8918  -17.6061   20.7690 C   0  0  1  0  0  0  0  0  0  0  0  0
  -22.3519  -20.9673   22.8605 C   0  0  2  0  0  0  0  0  0  0  0  0
  -21.1642  -24.1162   25.3383 C   0  0  0  0  0  0  0  0  0  0  0  0
  -19.0047  -23.6191   20.0726 C   0  0  0  0  0  0  0  0  0  0  0  0
  -24.6876  -36.3435   24.5590 C   0  0  0  0  0  0  0  0  0  0  0  0
  -17.0061  -27.8555   21.7655 C   0  0  0  0  0  0  0  0  0  0  0  0
  -26.5087  -30.0536   25.5549 C   0  0  0  0  0  0  0  0  0  0  0  0
  -25.7635  -32.2471   26.5043 C   0  0  0  0  0  0  0  0  0  0  0  0
  -27.9059  -32.1029   25.2346 C   0  0  0  0  0  0  0  0  0  0  0  0
  -23.5637  -35.3575   21.0603 C   0  0  0  0  0  0  0  0  0  0  0  0
  -19.4512  -28.1262   22.3004 C   0  0  0  0  0  0  0  0  0  1  0  0
  -25.7126  -31.9441   23.9870 C   0  0  1  0  0  0  0  0  0  0  0  0
  -24.7058  -35.5286   23.2751 C   0  0  2  0  0  0  0  0  0  0  0  0
  -18.2409  -27.1972   22.3668 C   0  0  2  0  0  0  0  0  0  0  0  0
  -26.4568  -31.5734   25.3009 C   0  0  0  0  0  0  0  0  0  0  0  0
  -26.2561  -16.4883   18.6650 N   0  0  0  0  0  0  0  0  0  0  0  0
  -20.2874  -22.7543   21.9184 N   0  0  0  0  0  0  0  0  0  0  0  0
  -26.5054  -16.3692   19.9802 N   0  0  0  0  0  0  0  0  0  0  0  0
  -25.5006  -30.4362   22.0363 N   0  0  0  0  0  0  0  0  0  0  0  0
  -26.6026  -20.0498   20.9976 N   0  0  0  0  0  0  0  0  0  0  0  0
  -24.5121  -20.7207   21.9410 N   0  0  0  0  0  0  0  0  0  0  0  0
  -26.5872  -14.8000   21.7527 N   0  0  0  0  0  0  0  0  0  0  0  0
  -25.3988  -12.2890   18.1920 N   0  0  0  0  0  0  0  0  0  0  0  0
  -18.5209  -25.9926   21.6442 N   0  0  0  0  0  0  0  0  0  0  0  0
  -21.5543  -21.8470   23.6735 N   0  0  0  0  0  0  0  0  0  0  0  0
  -27.5333  -27.6794   21.0374 N   0  0  0  0  0  0  0  0  0  0  0  0
  -25.6716  -33.3753   23.7070 N   0  0  0  0  0  0  0  0  0  0  0  0
  -23.6435  -36.0528   22.3707 N   0  3  0  0  0  0  0  0  0  0  0  0
  -25.8364  -12.2395   20.4425 O   0  0  0  0  0  0  0  0  0  0  0  0
  -25.6895  -27.8279   22.4520 O   0  0  0  0  0  0  0  0  0  0  0  0
  -27.5034  -31.5428   22.4841 O   0  0  0  0  0  0  0  0  0  0  0  0
  -23.3608  -33.5535   23.6317 O   0  0  0  0  0  0  0  0  0  0  0  0
  -26.0212  -22.2684   21.1781 O   0  0  0  0  0  0  0  0  0  0  0  0
  -24.6565  -14.1087   12.9793 O   0  0  0  0  0  0  0  0  0  0  0  0
  -19.7613  -28.4306   20.9449 O   0  0  0  0  0  0  0  0  0  1  0  0
  -21.1672  -17.5230   10.4158 F   0  0  0  0  0  0  0  0  0  0  0  0
  -22.2573  -13.1845   11.9633 F   0  0  0  0  0  0  0  0  0  0  0  0
  1  2  1  0  0  0  0
  1  5  2  0  0  0  0
  2  6  2  0  0  0  0
  3  8  2  0  0  0  0
  3 16  1  0  0  0  0
  4  9  1  0  0  0  0
  4 16  2  0  0  0  0
  5 18  1  0  0  0  0
  6 20  1  0  0  0  0
  7 10  2  0  0  0  0
  7 19  1  0  0  0  0
  8 24  1  0  0  0  0
  9 24  2  0  0  0  0
 10 25  1  0  0  0  0
 11 12  2  0  0  0  0
 11 26  1  0  0  0  0
 12 27  1  0  0  0  0
 13 21  1  0  0  0  0
 13 25  2  0  0  0  0
 14 22  2  0  0  0  0
 14 23  1  0  0  0  0
 15 27  2  0  0  0  0
 15 28  1  0  0  0  0
 16 29  1  0  0  0  0
 17 29  1  0  0  0  0
 17 32  2  0  0  0  0
 17 33  1  0  0  0  0
 18 20  2  0  0  0  0
 18 38  1  0  0  0  0
 19 21  2  0  0  0  0
 19 39  1  0  0  0  0
 20 50  1  0  0  0  0
 21 40  1  0  0  0  0
 22 31  1  0  0  0  0
 22 54  1  0  0  0  0
 23 30  2  0  0  0  0
 23 75  1  0  0  0  0
 24 85  1  0  0  0  0
 25 86  1  0  0  0  0
 26 28  2  0  0  0  0
 26 85  1  0  0  0  0
 27 87  1  0  0  0  0
 28 88  1  0  0  0  0
 29 67  2  0  0  0  0
 30 55  1  0  0  0  0
 30 68  1  0  0  0  0
 31 68  2  0  0  0  0
 31 76  1  0  0  0  0
 32 69  1  0  0  0  0
 32 73  1  0  0  0  0
 33 74  1  0  0  0  0
 33 80  2  0  0  0  0
 34 51  1  0  0  0  0
 34 77  1  0  0  0  0
 34 81  2  0  0  0  0
 35 63  1  0  0  0  0
 35 70  1  0  0  0  0
 35 82  2  0  0  0  0
 36 64  1  0  0  0  0
 36 78  1  0  0  0  0
 36 83  2  0  0  0  0
 37 71  1  0  0  0  0
 37 72  1  0  0  0  0
 37 84  2  0  0  0  0
 38 41  1  0  0  0  0
 39 51  1  0  0  0  0
 40 70  1  0  0  0  0
 41 43  1  0  0  0  0
 42 44  1  0  0  0  0
 42 46  1  0  0  0  0
 43 50  1  0  0  0  0
 44 52  1  0  0  0  0
 45 47  1  0  0  0  0
 45 53  1  0  0  0  0
 46 71  1  0  0  0  0
 47 72  1  0  0  0  0
 48 52  1  0  0  0  0
 48 71  1  0  0  0  0
 49 53  1  0  0  0  0
 49 72  1  0  0  0  0
 50 77  1  0  0  0  0
 51 70  1  0  0  0  0
 52 69  1  0  0  0  0
 53 76  1  0  0  0  0
 56 64  1  0  0  0  0
 57 65  1  0  0  0  0
 58 66  1  0  0  0  0
 59 66  1  0  0  0  0
 60 66  1  0  0  0  0
 61 79  1  0  0  0  0
 62 65  1  0  0  0  0
 62 86  1  0  0  0  0
 63 66  1  0  0  0  0
 63 78  1  0  0  0  0
 64 79  1  0  0  0  0
 65 75  1  0  0  0  0
 67 69  1  0  0  0  0
M  CHG  1  79   1
M  ISO  4  37 100  62 101  72 100  86 101
M  END
> <Batch ID>
0160

> <Smiles>
CNC(C)C(=O)NC(C(=O)N1Cc2cc([101O:1][101CH2:1]C(C)Nc3cc(C)c(NC4CC[100N:0]([100C:0](=O)N5CCCC(n6nc(-c7ccc(Oc8ccc(F)cc8F)cc7)c(C(N)=O)c6N)C5)C4)nc3C)ccc2CC1C(=O)NC1CCCc2ccccc21)C(C)(C)C

> <Shape>
0.240

> <Color>
0.061

> <Negative vol penalty>
0.000

$$$$

  -OEChem-04052322093D

 86 95  0     1  0  0  0  0  0999 V2000
  -26.2713  -35.4555   22.1890 C   0  0  0  0  0  0  0  0  0  0  0  0
  -26.7777  -34.1626   22.1036 C   0  0  0  0  0  0  0  0  0  0  0  0
  -25.9137  -10.4811   22.5922 C   0  0  0  0  0  0  0  0  0  0  0  0
  -23.5960  -10.9048   22.0574 C   0  0  0  0  0  0  0  0  0  0  0  0
  -25.0057  -35.6727   22.7322 C   0  0  0  0  0  0  0  0  0  0  0  0
  -26.0192  -33.0862   22.5623 C   0  0  0  0  0  0  0  0  0  0  0  0
  -26.0595  -29.1720   19.3495 C   0  0  0  0  0  0  0  0  0  0  0  0
  -25.5259   -9.4704   23.4718 C   0  0  0  0  0  0  0  0  0  0  0  0
  -23.2083   -9.8940   22.9370 C   0  0  0  0  0  0  0  0  0  0  0  0
  -27.1942  -28.3620   19.3469 C   0  0  0  0  0  0  0  0  0  0  0  0
  -21.6259   -7.1825   24.7706 C   0  0  0  0  0  0  0  0  0  0  0  0
  -20.6507   -6.2840   24.3378 C   0  0  0  0  0  0  0  0  0  0  0  0
  -26.0380  -26.7484   20.7176 C   0  0  0  0  0  0  0  0  0  0  0  0
  -22.0777   -5.6175   22.5058 C   0  0  0  0  0  0  0  0  0  0  0  0
  -24.9487  -11.1984   21.8851 C   0  0  0  0  0  0  0  0  0  0  0  0
  -25.6407  -12.1117   19.6059 C   0  0  0  0  0  0  0  0  0  0  0  0
  -24.2273  -34.5975   23.1889 C   0  0  0  0  0  0  0  0  0  0  0  0
  -24.9072  -28.7807   20.0463 C   0  0  0  0  0  0  0  0  0  0  0  0
  -24.7426  -33.2894   23.1133 C   0  0  0  0  0  0  0  0  0  0  0  0
  -24.8891  -27.5540   20.7253 C   0  0  0  0  0  0  0  0  0  0  0  0
  -24.1733   -9.1768   23.6442 C   0  0  0  0  0  0  0  0  0  0  0  0
  -27.1846  -27.1513   20.0334 C   0  0  0  0  0  0  0  0  0  0  0  0
  -22.8270   -7.2985   24.0709 C   0  0  0  0  0  0  0  0  0  0  0  0
  -20.8766   -5.5015   23.2055 C   0  0  0  0  0  0  0  0  0  0  0  0
  -23.0529   -6.5160   22.9385 C   0  0  0  0  0  0  0  0  0  0  0  0
  -25.3485  -12.2430   20.9767 C   0  0  0  0  0  0  0  0  0  0  0  0
  -31.8171  -26.1427   19.0343 C   0  0  0  0  0  0  0  0  0  0  0  0
  -30.5232  -25.8226   19.3817 C   0  0  0  0  0  0  0  0  0  0  0  0
  -32.4750  -24.0062   19.5157 C   0  0  0  0  0  0  0  0  0  0  0  0
  -31.1812  -23.6861   19.8638 C   0  0  0  0  0  0  0  0  0  0  0  0
  -25.9657  -13.3832   19.2008 C   0  0  0  0  0  0  0  0  0  0  0  0
  -25.6200  -10.9448   18.7731 C   0  0  0  0  0  0  0  0  0  0  0  0
  -23.2442  -29.9718   22.4793 C   0  0  0  0  0  0  0  0  0  0  0  0
  -21.2092  -27.5480   21.7678 C   0  0  0  0  0  0  0  0  0  0  0  0
  -20.7451  -24.4729   20.3625 C   0  0  0  0  0  0  0  0  0  0  0  0
  -28.4902  -18.0852   19.7758 C   0  0  0  0  0  0  0  0  0  0  0  0
  -22.8844  -34.8864   23.8117 C   0  0  0  0  0  0  0  0  0  0  0  0
  -23.6824  -29.6533   20.0171 C   0  0  0  0  0  0  0  0  0  0  0  0
  -23.6705  -27.0788   21.4719 C   0  0  0  0  0  0  0  0  0  0  0  0
  -21.9907  -33.6546   23.9311 C   0  0  0  0  0  0  0  0  0  0  0  0
  -25.4741  -17.8265   21.5528 C   0  0  0  0  0  0  0  0  0  0  0  0
  -22.7769  -32.4778   24.5002 C   0  0  0  0  0  0  0  0  0  0  0  0
  -25.1904  -16.3279   21.4525 C   0  0  0  0  0  0  0  0  0  0  0  0
  -28.7083  -21.7655   19.3811 C   0  0  0  0  0  0  0  0  0  0  0  0
  -29.3963  -21.1469   21.7377 C   0  0  0  0  0  0  0  0  0  0  0  0
  -26.9571  -18.1141   21.7928 C   0  0  0  0  0  0  0  0  0  0  0  0
  -29.0353  -20.3403   18.9379 C   0  0  0  0  0  0  0  0  0  0  0  0
  -29.7108  -19.7379   21.2402 C   0  0  0  0  0  0  0  0  0  0  0  0
  -27.5761  -15.9798   20.7073 C   0  0  0  0  0  0  0  0  0  0  0  0
  -23.9398  -32.0934   23.5775 C   0  0  1  0  0  0  0  0  0  0  0  0
  -22.7377  -29.3963   21.1871 C   0  0  1  0  0  0  0  0  0  0  0  0
  -26.1030  -15.6615   20.4076 C   0  0  1  0  0  0  0  0  0  0  0  0
  -29.4911  -22.1909   20.6238 C   0  0  0  0  0  0  0  0  0  0  0  0
  -32.1812  -27.5113   18.5701 C   0  0  0  0  0  0  0  0  0  0  0  0
  -33.5666  -22.9941   19.5850 C   0  0  0  0  0  0  0  0  0  0  0  0
  -18.9801  -22.7331   19.9687 C   0  0  0  0  0  0  0  0  0  0  0  0
  -21.3994  -26.6968   24.6917 C   0  0  0  0  0  0  0  0  0  0  0  0
  -20.4267  -24.4843   24.0384 C   0  0  0  0  0  0  0  0  0  0  0  0
  -19.1000  -26.5720   23.7163 C   0  0  0  0  0  0  0  0  0  0  0  0
  -21.0278  -24.6843   17.4241 C   0  0  0  0  0  0  0  0  0  0  0  0
  -29.4268  -26.8296   19.3089 C   0  0  0  0  0  0  0  0  0  1  0  0
  -21.0689  -26.1083   22.1996 C   0  0  1  0  0  0  0  0  0  0  0  0
  -19.6903  -23.9528   19.4026 C   0  0  2  0  0  0  0  0  0  0  0  0
  -20.5225  -25.9749   23.6491 C   0  0  0  0  0  0  0  0  0  0  0  0
  -25.4768  -13.4987   21.4133 N   0  0  0  0  0  0  0  0  0  0  0  0
  -32.8163  -25.2403   19.0950 N   0  0  0  0  0  0  0  0  0  0  0  0
  -30.1820  -24.5886   19.8027 N   0  0  0  0  0  0  0  0  0  0  0  0
  -25.8532  -14.1681   20.3105 N   0  0  0  0  0  0  0  0  0  0  0  0
  -22.5000  -27.9702   21.4189 N   0  0  0  0  0  0  0  0  0  0  0  0
  -27.7886  -17.4260   20.7963 N   0  0  0  0  0  0  0  0  0  0  0  0
  -28.9258  -19.3934   20.0472 N   0  0  0  0  0  0  0  0  0  0  0  0
  -26.3340  -13.8952   18.0072 N   0  0  0  0  0  0  0  0  0  0  0  0
  -25.2634   -9.7183   19.3502 N   0  0  0  0  0  0  0  0  0  0  0  0
  -23.4558  -31.3369   22.4426 N   0  0  0  0  0  0  0  0  0  0  0  0
  -20.2439  -25.4572   21.1878 N   0  0  0  0  0  0  0  0  0  0  0  0
  -20.3142  -23.5727   18.1037 N   0  3  0  0  0  0  0  0  0  0  0  0
  -25.9250  -10.9854   17.5570 O   0  0  0  0  0  0  0  0  0  0  0  0
  -23.4281  -29.2324   23.4391 O   0  0  0  0  0  0  0  0  0  0  0  0
  -20.2093  -28.2695   21.7341 O   0  0  0  0  0  0  0  0  0  0  0  0
  -21.8974  -24.0458   20.3811 O   0  0  0  0  0  0  0  0  0  0  0  0
  -28.7122  -17.5420   18.6864 O   0  0  0  0  0  0  0  0  0  0  0  0
  -23.7946   -8.1904   24.5022 O   0  0  0  0  0  0  0  0  0  0  0  0
  -28.2986  -26.3537   20.0331 O   0  0  0  0  0  0  0  0  0  1  0  0
  -30.8567  -22.4238   20.2861 O   0  0  0  0  0  0  0  0  0  0  0  0
  -19.9406   -4.6376   22.7909 F   0  0  0  0  0  0  0  0  0  0  0  0
  -24.2054   -6.6222   22.2629 F   0  0  0  0  0  0  0  0  0  0  0  0
  1  2  1  0  0  0  0
  1  5  2  0  0  0  0
  2  6  2  0  0  0  0
  3  8  2  0  0  0  0
  3 15  1  0  0  0  0
  4  9  1  0  0  0  0
  4 15  2  0  0  0  0
  5 17  1  0  0  0  0
  6 19  1  0  0  0  0
  7 10  2  0  0  0  0
  7 18  1  0  0  0  0
  8 21  1  0  0  0  0
  9 21  2  0  0  0  0
 10 22  1  0  0  0  0
 11 12  2  0  0  0  0
 11 23  1  0  0  0  0
 12 24  1  0  0  0  0
 13 20  1  0  0  0  0
 13 22  2  0  0  0  0
 14 24  2  0  0  0  0
 14 25  1  0  0  0  0
 15 26  1  0  0  0  0
 16 26  1  0  0  0  0
 16 31  2  0  0  0  0
 16 32  1  0  0  0  0
 17 19  2  0  0  0  0
 17 37  1  0  0  0  0
 18 20  2  0  0  0  0
 18 38  1  0  0  0  0
 19 50  1  0  0  0  0
 20 39  1  0  0  0  0
 21 82  1  0  0  0  0
 22 83  1  0  0  0  0
 23 25  2  0  0  0  0
 23 82  1  0  0  0  0
 24 85  1  0  0  0  0
 25 86  1  0  0  0  0
 26 65  2  0  0  0  0
 27 28  2  0  0  0  0
 27 54  1  0  0  0  0
 27 66  1  0  0  0  0
 28 61  1  0  0  0  0
 28 67  1  0  0  0  0
 29 30  1  0  0  0  0
 29 55  1  0  0  0  0
 29 66  2  0  0  0  0
 30 67  2  0  0  0  0
 30 84  1  0  0  0  0
 31 68  1  0  0  0  0
 31 72  1  0  0  0  0
 32 73  1  0  0  0  0
 32 77  2  0  0  0  0
 33 51  1  0  0  0  0
 33 74  1  0  0  0  0
 33 78  2  0  0  0  0
 34 62  1  0  0  0  0
 34 69  1  0  0  0  0
 34 79  2  0  0  0  0
 35 63  1  0  0  0  0
 35 75  1  0  0  0  0
 35 80  2  0  0  0  0
 36 70  1  0  0  0  0
 36 71  1  0  0  0  0
 36 81  2  0  0  0  0
 37 40  1  0  0  0  0
 38 51  1  0  0  0  0
 39 69  1  0  0  0  0
 40 42  1  0  0  0  0
 41 43  1  0  0  0  0
 41 46  1  0  0  0  0
 42 50  1  0  0  0  0
 43 52  1  0  0  0  0
 44 47  1  0  0  0  0
 44 53  1  0  0  0  0
 45 48  1  0  0  0  0
 45 53  1  0  0  0  0
 46 70  1  0  0  0  0
 47 71  1  0  0  0  0
 48 71  1  0  0  0  0
 49 52  1  0  0  0  0
 49 70  1  0  0  0  0
 50 74  1  0  0  0  0
 51 69  1  0  0  0  0
 52 68  1  0  0  0  0
 53 84  1  0  0  0  0
 56 63  1  0  0  0  0
 57 64  1  0  0  0  0
 58 64  1  0  0  0  0
 59 64  1  0  0  0  0
 60 76  1  0  0  0  0
 61 83  1  0  0  0  0
 62 64  1  0  0  0  0
 62 75  1  0  0  0  0
 63 76  1  0  0  0  0
 65 68  1  0  0  0  0
M  CHG  1  76   1
M  ISO  4  36 100  61 101  71 100  83 101
M  END
> <Batch ID>
0160

> <Smiles>
CNC(C)C(=O)NC(C(=O)N1Cc2cc([101O:1][101CH2:1]c3nc(OC4CC[100N:0]([100C:0](=O)N5CCCC(n6nc(-c7ccc(Oc8ccc(F)cc8F)cc7)c(C(N)=O)c6N)C5)CC4)c(C)nc3C)ccc2CC1C(=O)NC1CCCc2ccccc21)C(C)(C)C

> <Shape>
0.298

> <Color>
0.073

> <Negative vol penalty>
0.000

$$$$

  -OEChem-04052322093D

 90 99  0     1  0  0  0  0  0999 V2000
  -15.5760  -29.3603   24.8310 C   0  0  0  0  0  0  0  0  0  0  0  0
  -16.5966  -29.0782   23.9287 C   0  0  0  0  0  0  0  0  0  0  0  0
  -24.1651   -9.2873   21.1352 C   0  0  0  0  0  0  0  0  0  0  0  0
  -25.4719  -10.0058   23.0361 C   0  0  0  0  0  0  0  0  0  0  0  0
  -15.6061  -30.5434   25.5682 C   0  0  0  0  0  0  0  0  0  0  0  0
  -17.6474  -29.9797   23.7622 C   0  0  0  0  0  0  0  0  0  0  0  0
  -22.1664  -27.6967   23.6518 C   0  0  0  0  0  0  0  0  0  0  0  0
  -23.9378   -8.0589   21.7558 C   0  0  0  0  0  0  0  0  0  0  0  0
  -25.2446   -8.7775   23.6567 C   0  0  0  0  0  0  0  0  0  0  0  0
  -22.5310  -27.0635   22.4644 C   0  0  0  0  0  0  0  0  0  0  0  0
  -21.9241   -6.8257   24.1759 C   0  0  0  0  0  0  0  0  0  0  0  0
  -20.6250   -6.3183   24.1527 C   0  0  0  0  0  0  0  0  0  0  0  0
  -26.5125  -21.0032   20.9678 C   0  0  0  0  0  0  0  0  0  0  0  0
  -23.8908  -28.9665   21.8741 C   0  0  0  0  0  0  0  0  0  0  0  0
  -21.4105   -4.3612   22.9738 C   0  0  0  0  0  0  0  0  0  0  0  0
  -24.9323  -10.2607   21.7753 C   0  0  0  0  0  0  0  0  0  0  0  0
  -24.2017  -12.4702   20.7304 C   0  0  0  0  0  0  0  0  0  0  0  0
  -16.6628  -31.4552   25.4177 C   0  0  0  0  0  0  0  0  0  0  0  0
  -22.6534  -28.9763   23.9547 C   0  0  0  0  0  0  0  0  0  0  0  0
  -17.6910  -31.1766   24.4970 C   0  0  0  0  0  0  0  0  0  0  0  0
  -27.5454  -21.8177   20.5174 C   0  0  0  0  0  0  0  0  0  0  0  0
  -23.5329  -29.6127   23.0672 C   0  0  0  0  0  0  0  0  0  0  0  0
  -26.6917  -19.6252   21.0157 C   0  0  0  0  0  0  0  0  0  0  0  0
  -24.4775   -7.8040   23.0165 C   0  0  0  0  0  0  0  0  0  0  0  0
  -23.3910  -27.6995   21.5740 C   0  0  0  0  0  0  0  0  0  0  0  0
  -22.9664   -6.1009   23.5980 C   0  0  0  0  0  0  0  0  0  0  0  0
  -20.3682   -5.0860   23.5517 C   0  0  0  0  0  0  0  0  0  0  0  0
  -22.7096   -4.8686   22.9969 C   0  0  0  0  0  0  0  0  0  0  0  0
  -25.1679  -11.5295   21.1346 C   0  0  0  0  0  0  0  0  0  0  0  0
  -27.9130  -19.1154   20.6054 C   0  0  0  0  0  0  0  0  0  0  0  0
  -28.7285  -21.2098   20.1296 C   0  0  0  0  0  0  0  0  0  0  0  0
  -24.9304  -13.4957   20.1792 C   0  0  0  0  0  0  0  0  0  0  0  0
  -22.7732  -12.4214   20.8432 C   0  0  0  0  0  0  0  0  0  0  0  0
  -21.3281  -31.8252   24.4354 C   0  0  0  0  0  0  0  0  0  0  0  0
  -24.3629  -32.6741   25.2043 C   0  0  0  0  0  0  0  0  0  0  0  0
  -27.6787  -32.0328   23.9346 C   0  0  0  0  0  0  0  0  0  0  0  0
  -29.2517  -17.0055   20.2847 C   0  0  0  0  0  0  0  0  0  0  0  0
  -16.6276  -32.7430   26.2019 C   0  0  0  0  0  0  0  0  0  0  0  0
  -22.2718  -29.6347   25.2521 C   0  0  0  0  0  0  0  0  0  0  0  0
  -24.0997  -30.9782   23.3551 C   0  0  0  0  0  0  0  0  0  0  0  0
  -17.9696  -33.4695   26.2406 C   0  0  0  0  0  0  0  0  0  0  0  0
  -29.8315  -13.7595   18.9414 C   0  0  0  0  0  0  0  0  0  0  0  0
  -18.5861  -33.5266   24.8465 C   0  0  0  0  0  0  0  0  0  0  0  0
  -28.5904  -12.9674   19.3590 C   0  0  0  0  0  0  0  0  0  0  0  0
  -30.2618  -14.7504   20.0216 C   0  0  0  0  0  0  0  0  0  0  0  0
  -27.9648  -14.8665   20.9046 C   0  0  0  0  0  0  0  0  0  0  0  0
  -26.2244  -23.7540   19.5329 C   0  0  0  0  0  0  0  0  0  0  0  0
  -26.5345  -25.3540   21.3575 C   0  0  0  0  0  0  0  0  0  0  0  0
  -27.3627  -23.3167   20.4610 C   0  0  1  0  0  0  0  0  0  0  0  0
  -18.8606  -32.1179   24.3065 C   0  0  1  0  0  0  0  0  0  0  0  0
  -22.4201  -31.1527   25.2182 C   0  0  1  0  0  0  0  0  0  0  0  0
  -27.0177  -23.9815   21.8017 C   0  0  1  0  0  0  0  0  0  0  0  0
  -27.4551  -13.9014   19.8219 C   0  0  2  0  0  0  0  0  0  0  0  0
  -28.1947  -24.0687   22.7626 C   0  0  0  0  0  0  0  0  0  0  0  0
  -24.3288  -18.8479   20.6080 C   0  0  0  0  0  0  0  0  0  0  0  0
  -25.2026  -19.0432   22.9645 C   0  0  0  0  0  0  0  0  0  0  0  0
  -29.9004  -32.0313   25.1013 C   0  0  0  0  0  0  0  0  0  0  0  0
  -24.5338  -35.5712   24.2620 C   0  0  0  0  0  0  0  0  0  0  0  0
  -26.9739  -35.2139   23.8306 C   0  0  0  0  0  0  0  0  0  0  0  0
  -26.0734  -34.9947   26.1466 C   0  0  0  0  0  0  0  0  0  0  0  0
  -28.2796  -29.2780   23.0352 C   0  0  0  0  0  0  0  0  0  0  0  0
  -30.9550  -21.2903   19.2976 C   0  0  0  0  0  0  0  0  0  0  0  0
  -25.5976  -26.1815   19.1703 C   0  0  0  0  0  0  0  0  0  0  0  0
  -25.0353  -27.3956   19.8829 C   0  0  0  0  0  0  0  0  0  1  0  0
  -25.5819  -18.7550   21.4994 C   0  0  0  0  0  0  0  0  0  0  0  0
  -25.5511  -33.2048   24.4390 C   0  0  1  0  0  0  0  0  0  0  0  0
  -28.7516  -31.1787   24.5856 C   0  0  2  0  0  0  0  0  0  0  0  0
  -25.7636  -34.7295   24.6571 C   0  0  0  0  0  0  0  0  0  0  0  0
  -26.4153  -11.9225   20.8631 N   0  0  0  0  0  0  0  0  0  0  0  0
  -28.9397  -19.8749   20.1620 N   0  0  0  0  0  0  0  0  0  0  0  0
  -26.2379  -13.1214   20.2824 N   0  0  0  0  0  0  0  0  0  0  0  0
  -23.6918  -31.5834   24.6337 N   0  0  0  0  0  0  0  0  0  0  0  0
  -29.1364  -15.6046   20.4071 N   0  0  0  0  0  0  0  0  0  0  0  0
  -24.5740  -14.6721   19.6211 N   0  0  0  0  0  0  0  0  0  0  0  0
  -22.1761  -12.9430   21.9989 N   0  0  0  0  0  0  0  0  0  0  0  0
  -28.1066  -17.7124   20.6504 N   0  0  0  0  0  0  0  0  0  0  0  0
  -20.0559  -31.5691   24.9103 N   0  0  0  0  0  0  0  0  0  0  0  0
  -26.6897  -32.3808   24.8303 N   0  0  0  0  0  0  0  0  0  0  0  0
  -25.6989  -25.0454   20.1364 N   0  3  1  0  0  0  0  0  0  0  0  0
  -29.2976  -30.1973   23.6059 N   0  3  0  0  0  0  0  0  0  0  0  0
  -22.0489  -11.9150   19.9530 O   0  0  0  0  0  0  0  0  0  0  0  0
  -21.6182  -32.5258   23.4727 O   0  0  0  0  0  0  0  0  0  0  0  0
  -24.0464  -33.2032   26.2727 O   0  0  0  0  0  0  0  0  0  0  0  0
  -27.7161  -32.3618   22.7510 O   0  0  0  0  0  0  0  0  0  0  0  0
  -30.2803  -17.5373   19.8592 O   0  0  0  0  0  0  0  0  0  0  0  0
  -24.2557   -6.6056   23.6225 O   0  0  0  0  0  0  0  0  0  0  0  0
  -23.7480  -27.0840   20.4141 O   0  0  0  0  0  0  0  0  0  1  0  0
  -29.7701  -21.9786   19.6793 O   0  0  0  0  0  0  0  0  0  0  0  0
  -19.1209   -4.5981   23.5308 F   0  0  0  0  0  0  0  0  0  0  0  0
  -23.7070   -4.1672   22.4411 F   0  0  0  0  0  0  0  0  0  0  0  0
  1  2  1  0  0  0  0
  1  5  2  0  0  0  0
  2  6  2  0  0  0  0
  3  8  2  0  0  0  0
  3 16  1  0  0  0  0
  4  9  1  0  0  0  0
  4 16  2  0  0  0  0
  5 18  1  0  0  0  0
  6 20  1  0  0  0  0
  7 10  2  0  0  0  0
  7 19  1  0  0  0  0
  8 24  1  0  0  0  0
  9 24  2  0  0  0  0
 10 25  1  0  0  0  0
 11 12  2  0  0  0  0
 11 26  1  0  0  0  0
 12 27  1  0  0  0  0
 13 21  1  0  0  0  0
 13 23  2  0  0  0  0
 14 22  1  0  0  0  0
 14 25  2  0  0  0  0
 15 27  2  0  0  0  0
 15 28  1  0  0  0  0
 16 29  1  0  0  0  0
 17 29  1  0  0  0  0
 17 32  2  0  0  0  0
 17 33  1  0  0  0  0
 18 20  2  0  0  0  0
 18 38  1  0  0  0  0
 19 22  2  0  0  0  0
 19 39  1  0  0  0  0
 20 50  1  0  0  0  0
 21 31  2  0  0  0  0
 21 49  1  0  0  0  0
 22 40  1  0  0  0  0
 23 30  1  0  0  0  0
 23 65  1  0  0  0  0
 24 86  1  0  0  0  0
 25 87  1  0  0  0  0
 26 28  2  0  0  0  0
 26 86  1  0  0  0  0
 27 89  1  0  0  0  0
 28 90  1  0  0  0  0
 29 69  2  0  0  0  0
 30 70  2  0  0  0  0
 30 76  1  0  0  0  0
 31 70  1  0  0  0  0
 31 88  1  0  0  0  0
 32 71  1  0  0  0  0
 32 74  1  0  0  0  0
 33 75  1  0  0  0  0
 33 81  2  0  0  0  0
 34 51  1  0  0  0  0
 34 77  1  0  0  0  0
 34 82  2  0  0  0  0
 35 66  1  0  0  0  0
 35 72  1  0  0  0  0
 35 83  2  0  0  0  0
 36 67  1  0  0  0  0
 36 78  1  0  0  0  0
 36 84  2  0  0  0  0
 37 73  1  0  0  0  0
 37 76  1  0  0  0  0
 37 85  2  0  0  0  0
 38 41  1  0  0  0  0
 39 51  1  0  0  0  0
 40 72  1  0  0  0  0
 41 43  1  0  0  0  0
 42 44  1  0  0  0  0
 42 45  1  0  0  0  0
 43 50  1  0  0  0  0
 44 53  1  0  0  0  0
 45 73  1  0  0  0  0
 46 53  1  0  0  0  0
 46 73  1  0  0  0  0
 47 49  1  0  0  0  0
 47 79  1  0  0  0  0
 48 52  1  0  0  0  0
 48 79  1  0  0  0  0
 49 52  1  0  0  0  0
 50 77  1  0  0  0  0
 51 72  1  0  0  0  0
 52 54  1  0  0  0  0
 53 71  1  0  0  0  0
 55 65  1  0  0  0  0
 56 65  1  0  0  0  0
 57 67  1  0  0  0  0
 58 68  1  0  0  0  0
 59 68  1  0  0  0  0
 60 68  1  0  0  0  0
 61 80  1  0  0  0  0
 62 88  1  0  0  0  0
 63 64  1  0  0  0  0
 63 79  1  0  0  0  0
 64 87  1  0  0  0  0
 66 68  1  0  0  0  0
 66 78  1  0  0  0  0
 67 80  1  0  0  0  0
 69 71  1  0  0  0  0
M  CHG  2  79   1  80   1
M  ISO  4  37 100  64 101  76 100  87 101
M  END
> <Batch ID>
0160

> <Smiles>
CNC(C)C(=O)NC(C(=O)N1Cc2cc([101O:1][101CH2:1]CN3CC(C)C(c4cc(C(C)C)c([100NH:0][100C:0](=O)N5CCCC(n6nc(-c7ccc(Oc8ccc(F)cc8F)cc7)c(C(N)=O)c6N)C5)nc4OC)C3)ccc2CC1C(=O)NC1CCCc2ccccc21)C(C)(C)C

> <Shape>
0.313

> <Color>
0.106

> <Negative vol penalty>
0.000

$$$$

  -OEChem-04052322093D

 83 91  0     1  0  0  0  0  0999 V2000
  -25.5571  -27.2403   31.6262 C   0  0  0  0  0  0  0  0  0  0  0  0
  -26.7326  -26.5812   31.2811 C   0  0  0  0  0  0  0  0  0  0  0  0
  -22.9616   -9.9956   19.9214 C   0  0  0  0  0  0  0  0  0  0  0  0
  -23.7961   -9.8219   22.1821 C   0  0  0  0  0  0  0  0  0  0  0  0
  -24.4858  -27.2655   30.7342 C   0  0  0  0  0  0  0  0  0  0  0  0
  -26.8371  -25.9458   30.0443 C   0  0  0  0  0  0  0  0  0  0  0  0
  -31.6315  -24.3923   24.9534 C   0  0  0  0  0  0  0  0  0  0  0  0
  -22.1858   -8.8535   20.1200 C   0  0  0  0  0  0  0  0  0  0  0  0
  -23.0203   -8.6798   22.3807 C   0  0  0  0  0  0  0  0  0  0  0  0
  -32.1128  -23.3072   24.2222 C   0  0  0  0  0  0  0  0  0  0  0  0
  -23.1745   -5.3954   21.5934 C   0  0  0  0  0  0  0  0  0  0  0  0
  -23.7764   -4.3039   22.2195 C   0  0  0  0  0  0  0  0  0  0  0  0
  -30.2260  -23.4838   22.7295 C   0  0  0  0  0  0  0  0  0  0  0  0
  -22.1392   -4.4179   23.9925 C   0  0  0  0  0  0  0  0  0  0  0  0
  -23.7668  -10.4798   20.9524 C   0  0  0  0  0  0  0  0  0  0  0  0
  -24.1940  -12.9945   20.9889 C   0  0  0  0  0  0  0  0  0  0  0  0
  -24.5806  -26.6384   29.4819 C   0  0  0  0  0  0  0  0  0  0  0  0
  -30.4361  -25.0255   24.5839 C   0  0  0  0  0  0  0  0  0  0  0  0
  -25.7656  -25.9615   29.1353 C   0  0  0  0  0  0  0  0  0  0  0  0
  -29.7330  -24.5784   23.4561 C   0  0  0  0  0  0  0  0  0  0  0  0
  -22.2151   -8.1957   21.3496 C   0  0  0  0  0  0  0  0  0  0  0  0
  -31.4086  -22.8509   23.1118 C   0  0  0  0  0  0  0  0  0  0  0  0
  -22.0550   -5.9983   22.1670 C   0  0  0  0  0  0  0  0  0  0  0  0
  -23.2588   -3.8151   23.4189 C   0  0  0  0  0  0  0  0  0  0  0  0
  -21.5373   -5.5095   23.3664 C   0  0  0  0  0  0  0  0  0  0  0  0
  -24.5688  -11.6591   20.7477 C   0  0  0  0  0  0  0  0  0  0  0  0
  -25.2996  -13.7301   20.6382 C   0  0  0  0  0  0  0  0  0  0  0  0
  -30.6468  -16.9180   23.5182 C   0  0  0  0  0  0  0  0  0  0  0  0
  -22.9571  -13.5227   21.4856 C   0  0  0  0  0  0  0  0  0  0  0  0
  -27.6116  -25.4711   25.9722 C   0  0  0  0  0  0  0  0  0  0  0  0
  -27.0509  -27.3031   23.3547 C   0  0  0  0  0  0  0  0  0  0  0  0
  -27.7977  -28.0130   20.1012 C   0  0  0  0  0  0  0  0  0  0  0  0
  -30.8193  -14.5512   20.7013 C   0  0  0  0  0  0  0  0  0  0  0  0
  -23.3792  -26.6520   28.5703 C   0  0  0  0  0  0  0  0  0  0  0  0
  -29.9443  -26.2117   25.3672 C   0  0  0  0  0  0  0  0  0  0  0  0
  -28.4552  -25.2363   23.0058 C   0  0  0  0  0  0  0  0  0  0  0  0
  -23.7049  -26.2741   27.1276 C   0  0  0  0  0  0  0  0  0  0  0  0
  -29.5200  -12.3731   18.2025 C   0  0  0  0  0  0  0  0  0  0  0  0
  -24.5877  -25.0307   27.0878 C   0  0  0  0  0  0  0  0  0  0  0  0
  -28.0880  -12.0986   18.6651 C   0  0  0  0  0  0  0  0  0  0  0  0
  -30.4833  -12.4814   19.3824 C   0  0  0  0  0  0  0  0  0  0  0  0
  -28.6553  -13.1796   20.8806 C   0  0  0  0  0  0  0  0  0  0  0  0
  -25.9262  -25.2817   27.7928 C   0  0  1  0  0  0  0  0  0  0  0  0
  -31.0021  -16.6096   22.0756 C   0  0  2  0  0  0  0  0  0  0  0  0
  -28.4472  -26.4560   25.2046 C   0  0  1  0  0  0  0  0  0  0  0  0
  -27.6374  -13.1177   19.7289 C   0  0  2  0  0  0  0  0  0  0  0  0
  -31.0184  -18.9947   22.4048 C   0  0  2  0  0  0  0  0  0  0  0  0
  -30.6720  -17.9276   21.3297 C   0  0  0  0  0  0  0  0  0  0  0  0
  -29.1699  -18.0378   20.9756 C   0  0  0  0  0  0  0  0  0  0  0  0
  -31.4802  -18.0455   20.0320 C   0  0  0  0  0  0  0  0  0  0  0  0
  -27.1466  -29.5390   18.2184 C   0  0  0  0  0  0  0  0  0  0  0  0
  -33.3457  -18.4033   23.1345 C   0  0  0  0  0  0  0  0  0  0  0  0
  -24.5207  -25.6593   22.9007 C   0  0  0  0  0  0  0  0  0  0  0  0
  -24.4383  -26.5599   20.5660 C   0  0  0  0  0  0  0  0  0  0  0  0
  -24.2540  -28.1147   22.5080 C   0  0  0  0  0  0  0  0  0  0  0  0
  -30.3913  -18.9992   24.8880 C   0  0  0  0  0  0  0  0  0  0  0  0
  -30.5151  -29.1757   19.9498 C   0  0  0  0  0  0  0  0  0  0  0  0
  -32.6311  -20.8110   23.1070 C   0  0  0  0  0  0  0  0  0  1  0  0
  -26.4868  -27.0545   21.9766 C   0  0  1  0  0  0  0  0  0  0  0  0
  -28.0840  -29.3271   19.3971 C   0  0  2  0  0  0  0  0  0  0  0  0
  -32.4803  -19.4460   22.4301 C   0  0  2  0  0  0  0  0  0  0  0  0
  -24.9480  -26.8333   21.9972 C   0  0  0  0  0  0  0  0  0  0  0  0
  -25.8151  -11.5499   20.2798 N   0  0  0  0  0  0  0  0  0  0  0  0
  -26.2329  -12.8260   20.2241 N   0  0  0  0  0  0  0  0  0  0  0  0
  -30.6748  -18.3076   23.6465 N   0  0  0  0  0  0  0  0  0  0  0  0
  -28.0119  -26.3884   23.8081 N   0  0  0  0  0  0  0  0  0  0  0  0
  -29.9990  -13.4652   20.3537 N   0  0  0  0  0  0  0  0  0  0  0  0
  -25.5547  -15.0558   20.6467 N   0  0  0  0  0  0  0  0  0  0  0  0
  -21.9251  -12.6269   21.7969 N   0  0  0  0  0  0  0  0  0  0  0  0
  -26.8109  -26.0466   26.9403 N   0  0  0  0  0  0  0  0  0  0  0  0
  -26.9182  -28.1769   21.1504 N   0  0  0  0  0  0  0  0  0  0  0  0
  -30.2815  -15.4402   21.6239 N   0  0  0  0  0  0  0  0  0  0  0  0
  -29.4860  -29.3496   18.8925 N   0  3  0  0  0  0  0  0  0  0  0  0
  -30.4280  -16.0884   24.3886 O   0  0  0  0  0  0  0  0  0  0  0  0
  -22.7667  -14.7537   21.6330 O   0  0  0  0  0  0  0  0  0  0  0  0
  -27.6866  -24.2775   25.7050 O   0  0  0  0  0  0  0  0  0  0  0  0
  -26.6587  -28.2772   24.0020 O   0  0  0  0  0  0  0  0  0  0  0  0
  -28.3009  -26.9472   19.7529 O   0  0  0  0  0  0  0  0  0  0  0  0
  -31.9453  -14.7191   20.2208 O   0  0  0  0  0  0  0  0  0  0  0  0
  -21.4581   -7.0813   21.5438 O   0  0  0  0  0  0  0  0  0  0  0  0
  -31.8758  -21.7915   22.3968 O   0  0  0  0  0  0  0  0  0  1  0  0
  -23.8359   -2.7660   24.0192 F   0  0  0  0  0  0  0  0  0  0  0  0
  -20.4613   -6.0837   23.9216 F   0  0  0  0  0  0  0  0  0  0  0  0
  1  2  1  0  0  0  0
  1  5  2  0  0  0  0
  2  6  2  0  0  0  0
  3  8  2  0  0  0  0
  3 15  1  0  0  0  0
  4  9  1  0  0  0  0
  4 15  2  0  0  0  0
  5 17  1  0  0  0  0
  6 19  1  0  0  0  0
  7 10  2  0  0  0  0
  7 18  1  0  0  0  0
  8 21  1  0  0  0  0
  9 21  2  0  0  0  0
 10 22  1  0  0  0  0
 11 12  2  0  0  0  0
 11 23  1  0  0  0  0
 12 24  1  0  0  0  0
 13 20  1  0  0  0  0
 13 22  2  0  0  0  0
 14 24  2  0  0  0  0
 14 25  1  0  0  0  0
 15 26  1  0  0  0  0
 16 26  1  0  0  0  0
 16 27  2  0  0  0  0
 16 29  1  0  0  0  0
 17 19  2  0  0  0  0
 17 34  1  0  0  0  0
 18 20  2  0  0  0  0
 18 35  1  0  0  0  0
 19 43  1  0  0  0  0
 20 36  1  0  0  0  0
 21 80  1  0  0  0  0
 22 81  1  0  0  0  0
 23 25  2  0  0  0  0
 23 80  1  0  0  0  0
 24 82  1  0  0  0  0
 25 83  1  0  0  0  0
 26 63  2  0  0  0  0
 27 64  1  0  0  0  0
 27 68  1  0  0  0  0
 28 44  1  0  0  0  0
 28 65  1  0  0  0  0
 28 74  2  0  0  0  0
 29 69  1  0  0  0  0
 29 75  2  0  0  0  0
 30 45  1  0  0  0  0
 30 70  1  0  0  0  0
 30 76  2  0  0  0  0
 31 59  1  0  0  0  0
 31 66  1  0  0  0  0
 31 77  2  0  0  0  0
 32 60  1  0  0  0  0
 32 71  1  0  0  0  0
 32 78  2  0  0  0  0
 33 67  1  0  0  0  0
 33 72  1  0  0  0  0
 33 79  2  0  0  0  0
 34 37  1  0  0  0  0
 35 45  1  0  0  0  0
 36 66  1  0  0  0  0
 37 39  1  0  0  0  0
 38 40  1  0  0  0  0
 38 41  1  0  0  0  0
 39 43  1  0  0  0  0
 40 46  1  0  0  0  0
 41 67  1  0  0  0  0
 42 46  1  0  0  0  0
 42 67  1  0  0  0  0
 43 70  1  0  0  0  0
 44 48  1  0  0  0  0
 44 72  1  0  0  0  0
 45 66  1  0  0  0  0
 46 64  1  0  0  0  0
 47 48  1  0  0  0  0
 47 61  1  0  0  0  0
 47 65  1  0  0  0  0
 48 49  1  0  0  0  0
 48 50  1  0  0  0  0
 51 60  1  0  0  0  0
 52 61  1  0  0  0  0
 53 62  1  0  0  0  0
 54 62  1  0  0  0  0
 55 62  1  0  0  0  0
 56 65  1  0  0  0  0
 57 73  1  0  0  0  0
 58 61  1  0  0  0  0
 58 81  1  0  0  0  0
 59 62  1  0  0  0  0
 59 71  1  0  0  0  0
 60 73  1  0  0  0  0
 63 64  1  0  0  0  0
M  CHG  1  73   1
M  ISO  4  33 100  58 101  72 100  81 101
M  END
> <Batch ID>
0160

> <Smiles>
CNC(C)C(=O)NC(C(=O)N1Cc2cc([101O:1][101CH2:1]C(C)C3N(C)C(=O)C([100NH:0][100C:0](=O)N4CCCC(n5nc(-c6ccc(Oc7ccc(F)cc7F)cc6)c(C(N)=O)c5N)C4)C3(C)C)ccc2CC1C(=O)NC1CCCc2ccccc21)C(C)(C)C

> <Shape>
0.224

> <Color>
0.207

> <Negative vol penalty>
0.000

$$$$

  -OEChem-04052322093D

 88 97  0     1  0  0  0  0  0999 V2000
  -27.2108  -20.2405   27.3752 C   0  0  0  0  0  0  0  0  0  0  0  0
  -27.3586  -20.7370   26.0841 C   0  0  0  0  0  0  0  0  0  0  0  0
  -26.8471  -12.5189   21.8904 C   0  0  0  0  0  0  0  0  0  0  0  0
  -26.1127  -14.2769   20.4048 C   0  0  0  0  0  0  0  0  0  0  0  0
  -25.9857  -20.3586   28.0302 C   0  0  0  0  0  0  0  0  0  0  0  0
  -26.2810  -21.3511   25.4468 C   0  0  0  0  0  0  0  0  0  0  0  0
  -27.5994  -25.6402   23.0993 C   0  0  0  0  0  0  0  0  0  0  0  0
  -25.5470  -12.0158   21.9377 C   0  0  0  0  0  0  0  0  0  0  0  0
  -24.8126  -13.7738   20.4521 C   0  0  0  0  0  0  0  0  0  0  0  0
  -28.2481  -25.5203   21.8711 C   0  0  0  0  0  0  0  0  0  0  0  0
  -22.4935  -10.0559   22.1625 C   0  0  0  0  0  0  0  0  0  0  0  0
  -22.3267   -8.6770   22.0351 C   0  0  0  0  0  0  0  0  0  0  0  0
  -29.7834  -22.7227   18.5206 C   0  0  0  0  0  0  0  0  0  0  0  0
  -26.1686  -25.9729   20.7354 C   0  0  0  0  0  0  0  0  0  0  0  0
  -28.0904  -20.6111   17.8443 C   0  0  0  0  0  0  0  0  0  0  0  0
  -23.3640   -8.7532   19.8544 C   0  0  0  0  0  0  0  0  0  0  0  0
  -27.1299  -13.6495   21.1240 C   0  0  0  0  0  0  0  0  0  0  0  0
  -29.4864  -13.8225   20.1624 C   0  0  0  0  0  0  0  0  0  0  0  0
  -24.8953  -20.9830   27.4043 C   0  0  0  0  0  0  0  0  0  0  0  0
  -26.2258  -25.9170   23.1547 C   0  0  0  0  0  0  0  0  0  0  0  0
  -25.0398  -21.4764   26.0936 C   0  0  0  0  0  0  0  0  0  0  0  0
  -28.6054  -22.9714   17.8164 C   0  0  0  0  0  0  0  0  0  0  0  0
  -25.5053  -26.0983   21.9656 C   0  0  0  0  0  0  0  0  0  0  0  0
  -30.1150  -21.4181   18.8867 C   0  0  0  0  0  0  0  0  0  0  0  0
  -29.2684  -20.3624   18.5485 C   0  0  0  0  0  0  0  0  0  0  0  0
  -24.5297  -12.6432   21.2186 C   0  0  0  0  0  0  0  0  0  0  0  0
  -27.5322  -25.6838   20.6888 C   0  0  0  0  0  0  0  0  0  0  0  0
  -23.0955  -10.7836   21.1359 C   0  0  0  0  0  0  0  0  0  0  0  0
  -27.7589  -21.9157   17.4782 C   0  0  0  0  0  0  0  0  0  0  0  0
  -22.7620   -8.0256   20.8810 C   0  0  0  0  0  0  0  0  0  0  0  0
  -23.5307  -10.1322   19.9818 C   0  0  0  0  0  0  0  0  0  0  0  0
  -28.4726  -14.1700   21.0751 C   0  0  0  0  0  0  0  0  0  0  0  0
  -30.5628  -14.5893   20.5364 C   0  0  0  0  0  0  0  0  0  0  0  0
  -29.4577  -12.8899   19.0737 C   0  0  0  0  0  0  0  0  0  0  0  0
  -23.6743  -24.3935   24.2827 C   0  0  0  0  0  0  0  0  0  0  0  0
  -22.1620  -27.1529   23.4947 C   0  0  0  0  0  0  0  0  0  0  0  0
  -22.1023  -29.9807   21.5851 C   0  0  0  0  0  0  0  0  0  0  0  0
  -31.0427  -19.7966   23.4526 C   0  0  0  0  0  0  0  0  0  0  0  0
  -23.5771  -21.0451   28.1345 C   0  0  0  0  0  0  0  0  0  0  0  0
  -25.5462  -26.0696   24.4879 C   0  0  0  0  0  0  0  0  0  0  0  0
  -24.0332  -26.4167   21.9710 C   0  0  0  0  0  0  0  0  0  0  0  0
  -22.5928  -22.0435   27.5307 C   0  0  0  0  0  0  0  0  0  0  0  0
  -32.5153  -16.6868   24.3677 C   0  0  0  0  0  0  0  0  0  0  0  0
  -22.5355  -21.8863   26.0145 C   0  0  0  0  0  0  0  0  0  0  0  0
  -31.7377  -15.6578   23.5452 C   0  0  0  0  0  0  0  0  0  0  0  0
  -28.1114  -24.6819   15.9529 C   0  0  0  0  0  0  0  0  0  0  0  0
  -29.3175  -25.1763   16.6883 C   0  0  0  0  0  0  0  0  0  0  0  0
  -31.6163  -17.8269   24.8410 C   0  0  0  0  0  0  0  0  0  0  0  0
  -30.0769  -17.4705   22.9496 C   0  0  0  0  0  0  0  0  0  0  0  0
  -23.9014  -22.1711   25.3784 C   0  0  1  0  0  0  0  0  0  0  0  0
  -24.0389  -25.8447   24.4195 C   0  0  1  0  0  0  0  0  0  0  0  0
  -30.9529  -16.3303   22.4028 C   0  0  2  0  0  0  0  0  0  0  0  0
  -28.2668  -24.3702   17.4305 C   0  0  0  0  0  0  0  0  0  0  0  0
  -29.6024  -18.9576   18.9296 C   0  0  0  0  0  0  0  0  0  0  0  0
  -20.7201  -32.0269   21.1378 C   0  0  0  0  0  0  0  0  0  0  0  0
  -20.1911  -25.4672   21.8872 C   0  0  0  0  0  0  0  0  0  0  0  0
  -19.4515  -27.5608   20.7304 C   0  0  0  0  0  0  0  0  0  0  0  0
  -19.1489  -27.3265   23.1954 C   0  0  0  0  0  0  0  0  0  0  0  0
  -24.2884  -31.7851   22.4359 C   0  0  0  0  0  0  0  0  0  0  0  0
  -25.7997  -21.0020   16.4870 C   0  0  0  0  0  0  0  0  0  0  0  0
  -27.3852  -25.0930   18.3899 C   0  0  0  0  0  0  0  0  0  1  0  0
  -31.5105  -21.9587   20.9680 C   0  0  0  0  0  0  0  0  0  0  0  0
  -30.3857  -21.6694   21.9626 C   0  0  0  0  0  0  0  0  0  0  0  0
  -31.3833  -21.1759   19.6374 C   0  0  2  0  0  0  0  0  0  0  0  0
  -21.4711  -27.6783   22.2596 C   0  0  1  0  0  0  0  0  0  0  0  0
  -21.8641  -31.4356   21.9469 C   0  0  2  0  0  0  0  0  0  0  0  0
  -20.0930  -27.0003   22.0177 C   0  0  0  0  0  0  0  0  0  0  0  0
  -28.8695  -15.0862   21.9623 N   0  0  0  0  0  0  0  0  0  0  0  0
  -30.1447  -15.3208   21.6089 N   0  0  0  0  0  0  0  0  0  0  0  0
  -23.4125  -26.5497   23.2993 N   0  0  0  0  0  0  0  0  0  0  0  0
  -30.9019  -18.4228   23.7094 N   0  0  0  0  0  0  0  0  0  0  0  0
  -31.8167  -14.7024   20.0492 N   0  0  0  0  0  0  0  0  0  0  0  0
  -28.2710  -12.1857   18.8282 N   0  0  0  0  0  0  0  0  0  0  0  0
  -24.1402  -23.5969   25.3112 N   0  0  0  0  0  0  0  0  0  0  0  0
  -21.4051  -29.1275   22.4141 N   0  0  0  0  0  0  0  0  0  0  0  0
  -30.3366  -20.2793   22.3575 N   0  0  0  0  0  0  0  0  0  0  0  0
  -32.6065  -21.5066   18.8207 N   0  3  0  0  0  0  0  0  0  0  0  0
  -23.0901  -32.2417   21.6859 N   0  3  0  0  0  0  0  0  0  0  0  0
  -30.4599  -12.6750   18.3505 O   0  0  0  0  0  0  0  0  0  0  0  0
  -23.0175  -24.0240   23.3163 O   0  0  0  0  0  0  0  0  0  0  0  0
  -21.6155  -27.2795   24.5934 O   0  0  0  0  0  0  0  0  0  0  0  0
  -22.8309  -29.6357   20.6574 O   0  0  0  0  0  0  0  0  0  0  0  0
  -31.7499  -20.5370   24.1445 O   0  0  0  0  0  0  0  0  0  0  0  0
  -23.2610  -12.1524   21.2643 O   0  0  0  0  0  0  0  0  0  0  0  0
  -26.6042  -22.1397   16.7901 O   0  0  0  0  0  0  0  0  0  0  0  0
  -28.1628  -25.5667   19.4887 O   0  0  0  0  0  0  0  0  0  1  0  0
  -22.6031   -6.7011   20.7594 F   0  0  0  0  0  0  0  0  0  0  0  0
  -24.1108  -10.8256   18.9927 F   0  0  0  0  0  0  0  0  0  0  0  0
  1  2  1  0  0  0  0
  1  5  2  0  0  0  0
  2  6  2  0  0  0  0
  3  8  2  0  0  0  0
  3 17  1  0  0  0  0
  4  9  1  0  0  0  0
  4 17  2  0  0  0  0
  5 19  1  0  0  0  0
  6 21  1  0  0  0  0
  7 10  2  0  0  0  0
  7 20  1  0  0  0  0
  8 26  1  0  0  0  0
  9 26  2  0  0  0  0
 10 27  1  0  0  0  0
 11 12  2  0  0  0  0
 11 28  1  0  0  0  0
 12 30  1  0  0  0  0
 13 22  1  0  0  0  0
 13 24  2  0  0  0  0
 14 23  1  0  0  0  0
 14 27  2  0  0  0  0
 15 25  2  0  0  0  0
 15 29  1  0  0  0  0
 16 30  2  0  0  0  0
 16 31  1  0  0  0  0
 17 32  1  0  0  0  0
 18 32  1  0  0  0  0
 18 33  2  0  0  0  0
 18 34  1  0  0  0  0
 19 21  2  0  0  0  0
 19 39  1  0  0  0  0
 20 23  2  0  0  0  0
 20 40  1  0  0  0  0
 21 50  1  0  0  0  0
 22 29  2  0  0  0  0
 22 53  1  0  0  0  0
 23 41  1  0  0  0  0
 24 25  1  0  0  0  0
 24 64  1  0  0  0  0
 25 54  1  0  0  0  0
 26 84  1  0  0  0  0
 27 86  1  0  0  0  0
 28 31  2  0  0  0  0
 28 84  1  0  0  0  0
 29 85  1  0  0  0  0
 30 87  1  0  0  0  0
 31 88  1  0  0  0  0
 32 68  2  0  0  0  0
 33 69  1  0  0  0  0
 33 72  1  0  0  0  0
 34 73  1  0  0  0  0
 34 79  2  0  0  0  0
 35 51  1  0  0  0  0
 35 74  1  0  0  0  0
 35 80  2  0  0  0  0
 36 65  1  0  0  0  0
 36 70  1  0  0  0  0
 36 81  2  0  0  0  0
 37 66  1  0  0  0  0
 37 75  1  0  0  0  0
 37 82  2  0  0  0  0
 38 71  1  0  0  0  0
 38 76  1  0  0  0  0
 38 83  2  0  0  0  0
 39 42  1  0  0  0  0
 40 51  1  0  0  0  0
 41 70  1  0  0  0  0
 42 44  1  0  0  0  0
 43 45  1  0  0  0  0
 43 48  1  0  0  0  0
 44 50  1  0  0  0  0
 45 52  1  0  0  0  0
 46 47  1  0  0  0  0
 46 53  1  0  0  0  0
 47 53  1  0  0  0  0
 48 71  1  0  0  0  0
 49 52  1  0  0  0  0
 49 71  1  0  0  0  0
 50 74  1  0  0  0  0
 51 70  1  0  0  0  0
 52 69  1  0  0  0  0
 53 61  1  0  0  0  0
 55 66  1  0  0  0  0
 56 67  1  0  0  0  0
 57 67  1  0  0  0  0
 58 67  1  0  0  0  0
 59 78  1  0  0  0  0
 60 85  1  0  0  0  0
 61 86  1  0  0  0  0
 62 63  1  0  0  0  0
 62 64  1  0  0  0  0
 63 76  1  0  0  0  0
 64 77  1  0  0  0  0
 65 67  1  0  0  0  0
 65 75  1  0  0  0  0
 66 78  1  0  0  0  0
 68 69  1  0  0  0  0
M  CHG  2  77   1  78   1
M  ISO  4  38 100  61 101  76 100  86 101
M  END
> <Batch ID>
0160

> <Smiles>
CNC(C)C(=O)NC(C(=O)N1Cc2cc([101O:1][101CH2:1]C3(c4cc(C(N)CC[100NH:0][100C:0](=O)N5CCCC(n6nc(-c7ccc(Oc8ccc(F)cc8F)cc7)c(C(N)=O)c6N)C5)c(C)cc4OC)CC3)ccc2CC1C(=O)NC1CCCc2ccccc21)C(C)(C)C

> <Shape>
0.234

> <Color>
0.064

> <Negative vol penalty>
0.000

$$$$

  -OEChem-04052322093D

 87 95  0     1  0  0  0  0  0999 V2000
  -30.4746  -14.0062   21.1460 C   0  0  0  0  0  0  0  0  0  0  0  0
  -30.0132  -15.2734   21.4877 C   0  0  0  0  0  0  0  0  0  0  0  0
  -28.8949  -26.1442   19.3862 C   0  0  0  0  0  0  0  0  0  0  0  0
  -26.8936  -24.7980   19.2459 C   0  0  0  0  0  0  0  0  0  0  0  0
  -29.7613  -13.2281   20.2352 C   0  0  0  0  0  0  0  0  0  0  0  0
  -28.8386  -15.7636   20.9180 C   0  0  0  0  0  0  0  0  0  0  0  0
  -24.6840  -19.3850   23.5883 C   0  0  0  0  0  0  0  0  0  0  0  0
  -29.6764  -24.9948   19.2695 C   0  0  0  0  0  0  0  0  0  0  0  0
  -27.6751  -23.6485   19.1292 C   0  0  0  0  0  0  0  0  0  0  0  0
  -24.4679  -20.7614   23.5367 C   0  0  0  0  0  0  0  0  0  0  0  0
  -29.4416  -22.0738   16.7166 C   0  0  0  0  0  0  0  0  0  0  0  0
  -29.0815  -21.1434   15.7418 C   0  0  0  0  0  0  0  0  0  0  0  0
  -22.8076  -20.4300   21.8183 C   0  0  0  0  0  0  0  0  0  0  0  0
  -20.1380  -26.2162   23.6480 C   0  0  0  0  0  0  0  0  0  0  0  0
  -28.7817  -19.4654   17.4539 C   0  0  0  0  0  0  0  0  0  0  0  0
  -27.5035  -26.0459   19.3744 C   0  0  0  0  0  0  0  0  0  0  0  0
  -26.2205  -28.0479   18.4506 C   0  0  0  0  0  0  0  0  0  0  0  0
  -28.5722  -13.7051   19.6614 C   0  0  0  0  0  0  0  0  0  0  0  0
  -23.9702  -18.5203   22.7462 C   0  0  0  0  0  0  0  0  0  0  0  0
  -28.1094  -14.9916   19.9977 C   0  0  0  0  0  0  0  0  0  0  0  0
  -23.0147  -19.0429   21.8630 C   0  0  0  0  0  0  0  0  0  0  0  0
  -19.2165  -27.0643   23.0340 C   0  0  0  0  0  0  0  0  0  0  0  0
  -18.4944  -26.6238   21.9249 C   0  0  0  0  0  0  0  0  0  0  0  0
  -18.6940  -25.3351   21.4297 C   0  0  0  0  0  0  0  0  0  0  0  0
  -19.6156  -24.4870   22.0437 C   0  0  0  0  0  0  0  0  0  0  0  0
  -29.0665  -23.7469   19.1410 C   0  0  0  0  0  0  0  0  0  0  0  0
  -23.5317  -21.2843   22.6495 C   0  0  0  0  0  0  0  0  0  0  0  0
  -29.4718  -21.7000   18.0602 C   0  0  0  0  0  0  0  0  0  0  0  0
  -20.3377  -24.9275   23.1528 C   0  0  0  0  0  0  0  0  0  0  0  0
  -28.7516  -19.8393   16.1104 C   0  0  0  0  0  0  0  0  0  0  0  0
  -29.1418  -20.3958   18.4288 C   0  0  0  0  0  0  0  0  0  0  0  0
  -26.6957  -27.2328   19.4954 C   0  0  0  0  0  0  0  0  0  0  0  0
  -25.5092  -29.0377   19.0837 C   0  0  0  0  0  0  0  0  0  0  0  0
  -26.4053  -27.9215   17.0344 C   0  0  0  0  0  0  0  0  0  0  0  0
  -24.7566  -16.4806   20.4386 C   0  0  0  0  0  0  0  0  0  0  0  0
  -21.6007  -15.7394   20.5531 C   0  0  0  0  0  0  0  0  0  0  0  0
  -18.4261  -16.7007   21.3559 C   0  0  0  0  0  0  0  0  0  0  0  0
  -22.0409  -29.8258   23.6514 C   0  0  0  0  0  0  0  0  0  0  0  0
  -27.8608  -12.8464   18.6458 C   0  0  0  0  0  0  0  0  0  0  0  0
  -24.1958  -17.0357   22.8331 C   0  0  0  0  0  0  0  0  0  0  0  0
  -22.2076  -18.1555   20.9521 C   0  0  0  0  0  0  0  0  0  0  0  0
  -26.4259  -13.2894   18.3719 C   0  0  0  0  0  0  0  0  0  0  0  0
  -25.4384  -30.8902   23.6669 C   0  0  0  0  0  0  0  0  0  0  0  0
  -26.3637  -14.7993   18.1643 C   0  0  0  0  0  0  0  0  0  0  0  0
  -26.0648  -30.1314   22.4956 C   0  0  0  0  0  0  0  0  0  0  0  0
  -24.3942  -30.0451   24.3931 C   0  0  0  0  0  0  0  0  0  0  0  0
  -23.9665  -28.7256   22.3559 C   0  0  0  0  0  0  0  0  0  0  0  0
  -26.8264  -15.5483   19.4199 C   0  0  1  0  0  0  0  0  0  0  0  0
  -23.7816  -16.2933   21.5663 C   0  0  1  0  0  0  0  0  0  0  0  0
  -24.9856  -29.5570   21.5582 C   0  0  2  0  0  0  0  0  0  0  0  0
  -17.5061  -27.5356   21.2690 C   0  0  0  0  0  0  0  0  0  0  0  0
  -19.8351  -23.1038   21.5183 C   0  0  0  0  0  0  0  0  0  0  0  0
  -17.0187  -23.6591   20.5705 C   0  0  0  0  0  0  0  0  0  0  0  0
  -18.8302  -24.5255   19.0464 C   0  0  0  0  0  0  0  0  0  0  0  0
  -16.0502  -15.8949   21.2996 C   0  0  0  0  0  0  0  0  0  0  0  0
  -21.4970  -16.2626   17.5489 C   0  0  0  0  0  0  0  0  0  0  0  0
  -19.0023  -16.3788   17.7257 C   0  0  0  0  0  0  0  0  0  0  0  0
  -20.1949  -14.2660   18.3056 C   0  0  0  0  0  0  0  0  0  0  0  0
  -18.1717  -16.8853   24.2987 C   0  0  0  0  0  0  0  0  0  0  0  0
  -19.0229  -28.4397   23.5837 C   0  0  0  0  0  0  0  0  0  0  0  0
  -19.7379  -29.5278   22.7757 C   0  0  0  0  0  0  0  0  0  0  0  0
  -23.5226  -23.3651   23.8011 C   0  0  0  0  0  0  0  0  0  1  0  0
  -22.5941  -24.5641   23.8103 C   0  0  0  0  0  0  0  0  0  0  0  0
  -17.9196  -24.8619   20.2401 C   0  0  0  0  0  0  0  0  0  0  0  0
  -20.3572  -16.2491   19.8655 C   0  0  1  0  0  0  0  0  0  0  0  0
  -17.3239  -15.9946   22.1247 C   0  0  2  0  0  0  0  0  0  0  0  0
  -20.2793  -15.8063   18.3771 C   0  0  0  0  0  0  0  0  0  0  0  0
  -26.3184  -27.6673   20.7008 N   0  0  0  0  0  0  0  0  0  0  0  0
  -25.5985  -28.7662   20.4173 N   0  0  0  0  0  0  0  0  0  0  0  0
  -22.4690  -16.7114   21.0698 N   0  0  0  0  0  0  0  0  0  0  0  0
  -23.3993  -29.5321   23.4481 N   0  0  0  0  0  0  0  0  0  0  0  0
  -24.8225  -30.1052   18.6241 N   0  0  0  0  0  0  0  0  0  0  0  0
  -27.1637  -26.8456   16.5530 N   0  0  0  0  0  0  0  0  0  0  0  0
  -25.7804  -15.5527   20.4200 N   0  0  0  0  0  0  0  0  0  0  0  0
  -19.2303  -15.8075   20.6800 N   0  0  0  0  0  0  0  0  0  0  0  0
  -21.1651  -29.3064   22.7058 N   0  0  0  0  0  0  0  0  0  0  0  0
  -17.0134  -16.7336   23.3810 N   0  3  0  0  0  0  0  0  0  0  0  0
  -25.9264  -28.7476   16.2210 O   0  0  0  0  0  0  0  0  0  0  0  0
  -24.5916  -17.3983   19.6434 O   0  0  0  0  0  0  0  0  0  0  0  0
  -21.7911  -14.5233   20.6352 O   0  0  0  0  0  0  0  0  0  0  0  0
  -18.5582  -17.9226   21.3522 O   0  0  0  0  0  0  0  0  0  0  0  0
  -21.6388  -30.5053   24.6019 O   0  0  0  0  0  0  0  0  0  0  0  0
  -29.8287  -22.6250   19.0269 O   0  0  0  0  0  0  0  0  0  0  0  0
  -23.3192  -22.6274   22.5966 O   0  0  0  0  0  0  0  0  0  1  0  0
  -21.2471  -24.1089   23.7691 O   0  0  0  0  0  0  0  0  0  0  0  0
  -28.4043  -18.9464   15.1743 F   0  0  0  0  0  0  0  0  0  0  0  0
  -29.1679  -20.0312   19.7181 F   0  0  0  0  0  0  0  0  0  0  0  0
  1  2  1  0  0  0  0
  1  5  2  0  0  0  0
  2  6  2  0  0  0  0
  3  8  2  0  0  0  0
  3 16  1  0  0  0  0
  4  9  1  0  0  0  0
  4 16  2  0  0  0  0
  5 18  1  0  0  0  0
  6 20  1  0  0  0  0
  7 10  2  0  0  0  0
  7 19  1  0  0  0  0
  8 26  1  0  0  0  0
  9 26  2  0  0  0  0
 10 27  1  0  0  0  0
 11 12  2  0  0  0  0
 11 28  1  0  0  0  0
 12 30  1  0  0  0  0
 13 21  1  0  0  0  0
 13 27  2  0  0  0  0
 14 22  2  0  0  0  0
 14 29  1  0  0  0  0
 15 30  2  0  0  0  0
 15 31  1  0  0  0  0
 16 32  1  0  0  0  0
 17 32  1  0  0  0  0
 17 33  2  0  0  0  0
 17 34  1  0  0  0  0
 18 20  2  0  0  0  0
 18 39  1  0  0  0  0
 19 21  2  0  0  0  0
 19 40  1  0  0  0  0
 20 48  1  0  0  0  0
 21 41  1  0  0  0  0
 22 23  1  0  0  0  0
 22 60  1  0  0  0  0
 23 24  2  0  0  0  0
 23 51  1  0  0  0  0
 24 25  1  0  0  0  0
 24 64  1  0  0  0  0
 25 29  2  0  0  0  0
 25 52  1  0  0  0  0
 26 83  1  0  0  0  0
 27 84  1  0  0  0  0
 28 31  2  0  0  0  0
 28 83  1  0  0  0  0
 29 85  1  0  0  0  0
 30 86  1  0  0  0  0
 31 87  1  0  0  0  0
 32 68  2  0  0  0  0
 33 69  1  0  0  0  0
 33 72  1  0  0  0  0
 34 73  1  0  0  0  0
 34 78  2  0  0  0  0
 35 49  1  0  0  0  0
 35 74  1  0  0  0  0
 35 79  2  0  0  0  0
 36 65  1  0  0  0  0
 36 70  1  0  0  0  0
 36 80  2  0  0  0  0
 37 66  1  0  0  0  0
 37 75  1  0  0  0  0
 37 81  2  0  0  0  0
 38 71  1  0  0  0  0
 38 76  1  0  0  0  0
 38 82  2  0  0  0  0
 39 42  1  0  0  0  0
 40 49  1  0  0  0  0
 41 70  1  0  0  0  0
 42 44  1  0  0  0  0
 43 45  1  0  0  0  0
 43 46  1  0  0  0  0
 44 48  1  0  0  0  0
 45 50  1  0  0  0  0
 46 71  1  0  0  0  0
 47 50  1  0  0  0  0
 47 71  1  0  0  0  0
 48 74  1  0  0  0  0
 49 70  1  0  0  0  0
 50 69  1  0  0  0  0
 53 64  1  0  0  0  0
 54 64  1  0  0  0  0
 55 66  1  0  0  0  0
 56 67  1  0  0  0  0
 57 67  1  0  0  0  0
 58 67  1  0  0  0  0
 59 77  1  0  0  0  0
 60 61  1  0  0  0  0
 61 76  1  0  0  0  0
 62 63  1  0  0  0  0
 62 84  1  0  0  0  0
 63 85  1  0  0  0  0
 65 67  1  0  0  0  0
 65 75  1  0  0  0  0
 66 77  1  0  0  0  0
 68 69  1  0  0  0  0
M  CHG  1  77   1
M  ISO  4  38 100  62 101  76 100  84 101
M  END
> <Batch ID>
0160

> <Smiles>
CNC(C)C(=O)NC(C(=O)N1Cc2cc([101O:1][101CH2:1]COc3cc(CC[100NH:0][100C:0](=O)N4CCCC(n5nc(-c6ccc(Oc7ccc(F)cc7F)cc6)c(C(N)=O)c5N)C4)c(C)c(C(C)C)c3C)ccc2CC1C(=O)NC1CCCc2ccccc21)C(C)(C)C

> <Shape>
0.198

> <Color>
0.068

> <Negative vol penalty>
0.000

$$$$

  -OEChem-04052322093D

 92102  0     1  0  0  0  0  0999 V2000
  -30.7155  -33.8979   17.1679 C   0  0  0  0  0  0  0  0  0  0  0  0
  -30.7992  -32.5340   17.4290 C   0  0  0  0  0  0  0  0  0  0  0  0
  -25.2901   -9.9307   23.1197 C   0  0  0  0  0  0  0  0  0  0  0  0
  -23.7892   -9.3751   21.3098 C   0  0  0  0  0  0  0  0  0  0  0  0
  -29.9314  -34.7152   17.9809 C   0  0  0  0  0  0  0  0  0  0  0  0
  -30.0998  -31.9868   18.5040 C   0  0  0  0  0  0  0  0  0  0  0  0
  -27.5162  -26.4408   18.7754 C   0  0  0  0  0  0  0  0  0  0  0  0
  -24.5080   -9.1812   23.9985 C   0  0  0  0  0  0  0  0  0  0  0  0
  -23.0071   -8.6256   22.1886 C   0  0  0  0  0  0  0  0  0  0  0  0
  -27.9415  -25.2340   19.3290 C   0  0  0  0  0  0  0  0  0  0  0  0
  -23.1153   -5.5715   23.6313 C   0  0  0  0  0  0  0  0  0  0  0  0
  -22.6890   -4.3136   23.2052 C   0  0  0  0  0  0  0  0  0  0  0  0
  -31.8492  -20.1981   22.0218 C   0  0  0  0  0  0  0  0  0  0  0  0
  -26.6859  -25.7169   21.3314 C   0  0  0  0  0  0  0  0  0  0  0  0
  -34.6167  -20.5142   21.8677 C   0  0  0  0  0  0  0  0  0  0  0  0
  -20.3886   -5.0096   23.4523 C   0  0  0  0  0  0  0  0  0  0  0  0
  -24.9307  -10.0277   21.7754 C   0  0  0  0  0  0  0  0  0  0  0  0
  -26.8289  -10.3488   20.1016 C   0  0  0  0  0  0  0  0  0  0  0  0
  -29.2143  -34.1762   19.0607 C   0  0  0  0  0  0  0  0  0  0  0  0
  -26.6799  -27.3013   19.5012 C   0  0  0  0  0  0  0  0  0  0  0  0
  -29.3064  -32.7979   19.3331 C   0  0  0  0  0  0  0  0  0  0  0  0
  -32.6292  -19.2215   21.4027 C   0  0  0  0  0  0  0  0  0  0  0  0
  -32.4528  -21.3329   22.5638 C   0  0  0  0  0  0  0  0  0  0  0  0
  -26.2493  -26.9329   20.7838 C   0  0  0  0  0  0  0  0  0  0  0  0
  -34.0130  -19.3795   21.3257 C   0  0  0  0  0  0  0  0  0  0  0  0
  -23.3665   -8.5287   23.5329 C   0  0  0  0  0  0  0  0  0  0  0  0
  -27.5287  -24.8732   20.6083 C   0  0  0  0  0  0  0  0  0  0  0  0
  -22.1783   -6.5485   23.9679 C   0  0  0  0  0  0  0  0  0  0  0  0
  -33.8366  -21.4909   22.4867 C   0  0  0  0  0  0  0  0  0  0  0  0
  -21.3257   -4.0327   23.1157 C   0  0  0  0  0  0  0  0  0  0  0  0
  -20.8149   -6.2675   23.8784 C   0  0  0  0  0  0  0  0  0  0  0  0
  -25.7380  -10.8021   20.8673 C   0  0  0  0  0  0  0  0  0  0  0  0
  -27.2489  -11.4595   19.4113 C   0  0  0  0  0  0  0  0  0  0  0  0
  -27.4105   -9.0408   20.0215 C   0  0  0  0  0  0  0  0  0  0  0  0
  -26.9353  -30.2687   20.6114 C   0  0  0  0  0  0  0  0  0  0  0  0
  -23.8228  -29.8225   21.4085 C   0  0  0  0  0  0  0  0  0  0  0  0
  -21.3036  -27.6394   22.1396 C   0  0  0  0  0  0  0  0  0  0  0  0
  -28.4506  -16.7930   19.0503 C   0  0  0  0  0  0  0  0  0  0  0  0
  -28.4176  -35.1071   19.9401 C   0  0  0  0  0  0  0  0  0  0  0  0
  -26.2084  -28.5872   18.8795 C   0  0  0  0  0  0  0  0  0  0  0  0
  -25.3352  -27.8119   21.5963 C   0  0  0  0  0  0  0  0  0  0  0  0
  -27.4101  -34.3879   20.8333 C   0  0  0  0  0  0  0  0  0  0  0  0
  -25.0963  -15.9904   18.8212 C   0  0  0  0  0  0  0  0  0  0  0  0
  -28.0601  -33.1856   21.5107 C   0  0  0  0  0  0  0  0  0  0  0  0
  -25.0409  -14.5296   19.2676 C   0  0  0  0  0  0  0  0  0  0  0  0
  -30.7014  -17.5915   21.6221 C   0  0  0  0  0  0  0  0  0  0  0  0
  -31.6018  -18.1839   19.3313 C   0  0  0  0  0  0  0  0  0  0  0  0
  -30.8180  -21.8246   24.4416 C   0  0  0  0  0  0  0  0  0  0  0  0
  -30.5291  -23.0204   22.3129 C   0  0  0  0  0  0  0  0  0  0  0  0
  -26.0589  -16.7906   19.6910 C   0  0  0  0  0  0  0  0  0  0  0  0
  -30.0031  -16.3744   21.0087 C   0  0  0  0  0  0  0  0  0  0  0  0
  -30.9067  -16.9430   18.7787 C   0  0  0  0  0  0  0  0  0  0  0  0
  -27.4060  -14.7727   20.1718 C   0  0  0  0  0  0  0  0  0  0  0  0
  -31.9505  -17.9967   20.8190 C   0  0  0  0  0  0  0  0  0  0  0  0
  -31.5916  -22.3812   23.2322 C   0  0  2  0  0  0  0  0  0  0  0  0
  -28.5428  -32.1630   20.4750 C   0  0  1  0  0  0  0  0  0  0  0  0
  -25.7732  -29.6247   19.9098 C   0  0  1  0  0  0  0  0  0  0  0  0
  -29.4804  -22.5667   24.4218 C   0  0  1  0  0  0  0  0  0  0  0  0
  -29.1732  -22.6451   22.9221 C   0  0  1  0  0  0  0  0  0  0  0  0
  -26.4501  -13.9134   19.3195 C   0  0  1  0  0  0  0  0  0  0  0  0
  -34.8690  -18.3476   20.6678 C   0  0  0  0  0  0  0  0  0  0  0  0
  -28.4094  -21.8569   25.2359 C   0  0  0  0  0  0  0  0  0  0  0  0
  -18.8801  -27.5735   22.7874 C   0  0  0  0  0  0  0  0  0  0  0  0
  -24.5632  -30.6439   24.2523 C   0  0  0  0  0  0  0  0  0  0  0  0
  -22.3938  -29.6625   25.0261 C   0  0  0  0  0  0  0  0  0  0  0  0
  -22.3946  -31.5778   23.4279 C   0  0  0  0  0  0  0  0  0  0  0  0
  -20.5725  -26.1325   19.6995 C   0  0  0  0  0  0  0  0  0  0  0  0
  -35.8606  -22.6738   22.8866 C   0  0  0  0  0  0  0  0  0  0  0  0
  -28.0792  -23.6406   22.5662 C   0  0  0  0  0  0  0  0  0  1  0  0
  -23.0951  -29.2874   22.6181 C   0  0  1  0  0  0  0  0  0  0  0  0
  -19.8742  -27.5459   21.6369 C   0  0  2  0  0  0  0  0  0  0  0  0
  -23.1305  -30.2770   23.8168 C   0  0  0  0  0  0  0  0  0  0  0  0
  -25.4812  -12.0996   20.6814 N   0  0  0  0  0  0  0  0  0  0  0  0
  -26.4167  -12.4712   19.7909 N   0  0  0  0  0  0  0  0  0  0  0  0
  -24.9066  -29.0619   20.9473 N   0  0  0  0  0  0  0  0  0  0  0  0
  -27.3840  -16.1718   19.7174 N   0  0  0  0  0  0  0  0  0  0  0  0
  -29.7342  -16.5951   19.5810 N   0  0  0  0  0  0  0  0  0  0  0  0
  -28.2452  -11.6596   18.5226 N   0  0  0  0  0  0  0  0  0  0  0  0
  -26.8556   -8.0142   20.7977 N   0  0  0  0  0  0  0  0  0  0  0  0
  -27.4283  -31.3896   19.9710 N   0  0  0  0  0  0  0  0  0  0  0  0
  -21.7511  -28.9433   22.1668 N   0  0  0  0  0  0  0  0  0  0  0  0
  -19.6751  -26.2812   20.8741 N   0  3  0  0  0  0  0  0  0  0  0  0
  -28.4033   -8.7936   19.2958 O   0  0  0  0  0  0  0  0  0  0  0  0
  -27.3529  -29.7855   21.6573 O   0  0  0  0  0  0  0  0  0  0  0  0
  -23.4392  -30.8728   20.8876 O   0  0  0  0  0  0  0  0  0  0  0  0
  -21.9564  -26.6547   22.4780 O   0  0  0  0  0  0  0  0  0  0  0  0
  -28.2677  -17.4833   18.0398 O   0  0  0  0  0  0  0  0  0  0  0  0
  -22.6031   -7.7971   24.3900 O   0  0  0  0  0  0  0  0  0  0  0  0
  -34.4420  -22.5938   23.0097 O   0  0  0  0  0  0  0  0  0  0  0  0
  -27.9465  -23.6861   21.1558 O   0  0  0  0  0  0  0  0  0  1  0  0
  -20.9164   -2.8252   22.7051 F   0  0  0  0  0  0  0  0  0  0  0  0
  -19.9100   -7.2024   24.1993 F   0  0  0  0  0  0  0  0  0  0  0  0
  1  2  1  0  0  0  0
  1  5  2  0  0  0  0
  2  6  2  0  0  0  0
  3  8  2  0  0  0  0
  3 17  1  0  0  0  0
  4  9  1  0  0  0  0
  4 17  2  0  0  0  0
  5 19  1  0  0  0  0
  6 21  1  0  0  0  0
  7 10  2  0  0  0  0
  7 20  1  0  0  0  0
  8 26  1  0  0  0  0
  9 26  2  0  0  0  0
 10 27  1  0  0  0  0
 11 12  2  0  0  0  0
 11 28  1  0  0  0  0
 12 30  1  0  0  0  0
 13 22  2  0  0  0  0
 13 23  1  0  0  0  0
 14 24  1  0  0  0  0
 14 27  2  0  0  0  0
 15 25  2  0  0  0  0
 15 29  1  0  0  0  0
 16 30  2  0  0  0  0
 16 31  1  0  0  0  0
 17 32  1  0  0  0  0
 18 32  1  0  0  0  0
 18 33  2  0  0  0  0
 18 34  1  0  0  0  0
 19 21  2  0  0  0  0
 19 39  1  0  0  0  0
 20 24  2  0  0  0  0
 20 40  1  0  0  0  0
 21 56  1  0  0  0  0
 22 25  1  0  0  0  0
 22 54  1  0  0  0  0
 23 29  2  0  0  0  0
 23 55  1  0  0  0  0
 24 41  1  0  0  0  0
 25 61  1  0  0  0  0
 26 88  1  0  0  0  0
 27 90  1  0  0  0  0
 28 31  2  0  0  0  0
 28 88  1  0  0  0  0
 29 89  1  0  0  0  0
 30 91  1  0  0  0  0
 31 92  1  0  0  0  0
 32 73  2  0  0  0  0
 33 74  1  0  0  0  0
 33 78  1  0  0  0  0
 34 79  1  0  0  0  0
 34 83  2  0  0  0  0
 35 57  1  0  0  0  0
 35 80  1  0  0  0  0
 35 84  2  0  0  0  0
 36 70  1  0  0  0  0
 36 75  1  0  0  0  0
 36 85  2  0  0  0  0
 37 71  1  0  0  0  0
 37 81  1  0  0  0  0
 37 86  2  0  0  0  0
 38 76  1  0  0  0  0
 38 77  1  0  0  0  0
 38 87  2  0  0  0  0
 39 42  1  0  0  0  0
 40 57  1  0  0  0  0
 41 75  1  0  0  0  0
 42 44  1  0  0  0  0
 43 45  1  0  0  0  0
 43 50  1  0  0  0  0
 44 56  1  0  0  0  0
 45 60  1  0  0  0  0
 46 51  1  0  0  0  0
 46 54  1  0  0  0  0
 47 52  1  0  0  0  0
 47 54  1  0  0  0  0
 48 55  1  0  0  0  0
 48 58  1  0  0  0  0
 49 55  1  0  0  0  0
 49 59  1  0  0  0  0
 50 76  1  0  0  0  0
 51 77  1  0  0  0  0
 52 77  1  0  0  0  0
 53 60  1  0  0  0  0
 53 76  1  0  0  0  0
 56 80  1  0  0  0  0
 57 75  1  0  0  0  0
 58 59  1  0  0  0  0
 58 62  1  0  0  0  0
 59 69  1  0  0  0  0
 60 74  1  0  0  0  0
 63 71  1  0  0  0  0
 64 72  1  0  0  0  0
 65 72  1  0  0  0  0
 66 72  1  0  0  0  0
 67 82  1  0  0  0  0
 68 89  1  0  0  0  0
 69 90  1  0  0  0  0
 70 72  1  0  0  0  0
 70 81  1  0  0  0  0
 71 82  1  0  0  0  0
 73 74  1  0  0  0  0
M  CHG  1  82   1
M  ISO  4  38 100  69 101  77 100  90 101
M  END
> <Batch ID>
0160

> <Smiles>
CNC(C)C(=O)NC(C(=O)N1Cc2cc([101O:1][101CH2:1]C3CC(c4cc(C5CC[100N:0]([100C:0](=O)N6CCCC(n7nc(-c8ccc(Oc9ccc(F)cc9F)cc8)c(C(N)=O)c7N)C6)CC5)c(C)cc4OC)CC3C)ccc2CC1C(=O)NC1CCCc2ccccc21)C(C)(C)C

> <Shape>
0.235

> <Color>
0.065

> <Negative vol penalty>
0.000

$$$$

  -OEChem-04052322093D

 85 94  0     1  0  0  0  0  0999 V2000
  -27.8339  -28.5227   37.1930 C   0  0  0  0  0  0  0  0  0  0  0  0
  -27.4991  -27.8394   36.0283 C   0  0  0  0  0  0  0  0  0  0  0  0
  -23.0741   -9.8686   19.9417 C   0  0  0  0  0  0  0  0  0  0  0  0
  -23.8385   -9.8743   22.2336 C   0  0  0  0  0  0  0  0  0  0  0  0
  -29.1658  -28.8417   37.4542 C   0  0  0  0  0  0  0  0  0  0  0  0
  -28.4959  -27.4757   35.1236 C   0  0  0  0  0  0  0  0  0  0  0  0
  -28.6671  -22.4209   31.6703 C   0  0  0  0  0  0  0  0  0  0  0  0
  -22.3314   -8.7148   20.1923 C   0  0  0  0  0  0  0  0  0  0  0  0
  -23.0958   -8.7205   22.4842 C   0  0  0  0  0  0  0  0  0  0  0  0
  -28.3322  -22.1833   30.3379 C   0  0  0  0  0  0  0  0  0  0  0  0
  -19.8694   -7.9202   23.0925 C   0  0  0  0  0  0  0  0  0  0  0  0
  -19.1148   -7.8789   24.2648 C   0  0  0  0  0  0  0  0  0  0  0  0
  -30.1297  -16.7615   24.4049 C   0  0  0  0  0  0  0  0  0  0  0  0
  -29.9007  -19.5770   24.2784 C   0  0  0  0  0  0  0  0  0  0  0  0
  -30.6443  -22.4698   29.7121 C   0  0  0  0  0  0  0  0  0  0  0  0
  -20.3589   -5.9416   24.9973 C   0  0  0  0  0  0  0  0  0  0  0  0
  -23.8277  -10.4484   20.9624 C   0  0  0  0  0  0  0  0  0  0  0  0
  -24.1677  -12.9738   20.8436 C   0  0  0  0  0  0  0  0  0  0  0  0
  -30.1806  -28.4732   36.5569 C   0  0  0  0  0  0  0  0  0  0  0  0
  -29.9936  -22.6958   32.0327 C   0  0  0  0  0  0  0  0  0  0  0  0
  -29.8425  -27.7912   35.3725 C   0  0  0  0  0  0  0  0  0  0  0  0
  -30.3633  -17.4419   23.2201 C   0  0  0  0  0  0  0  0  0  0  0  0
  -30.2520  -18.8378   23.1611 C   0  0  0  0  0  0  0  0  0  0  0  0
  -30.9938  -22.7079   31.0501 C   0  0  0  0  0  0  0  0  0  0  0  0
  -29.7621  -17.4981   25.5334 C   0  0  0  0  0  0  0  0  0  0  0  0
  -22.3423   -8.1408   21.4635 C   0  0  0  0  0  0  0  0  0  0  0  0
  -29.3204  -22.2106   29.3582 C   0  0  0  0  0  0  0  0  0  0  0  0
  -20.8687   -6.9722   22.8725 C   0  0  0  0  0  0  0  0  0  0  0  0
  -29.6479  -18.8955   25.4704 C   0  0  0  0  0  0  0  0  0  0  0  0
  -19.3595   -6.8896   25.2173 C   0  0  0  0  0  0  0  0  0  0  0  0
  -21.1134   -5.9830   23.8249 C   0  0  0  0  0  0  0  0  0  0  0  0
  -24.5955  -11.6399   20.7040 C   0  0  0  0  0  0  0  0  0  0  0  0
  -25.2586  -13.7243   20.4787 C   0  0  0  0  0  0  0  0  0  0  0  0
  -22.8977  -13.4885   21.2654 C   0  0  0  0  0  0  0  0  0  0  0  0
  -31.4899  -25.1655   33.3615 C   0  0  0  0  0  0  0  0  0  0  0  0
  -34.0236  -23.1399   33.3440 C   0  0  0  0  0  0  0  0  0  0  0  0
  -35.5369  -20.4049   31.9743 C   0  0  0  0  0  0  0  0  0  0  0  0
  -30.7421  -14.7466   20.6570 C   0  0  0  0  0  0  0  0  0  0  0  0
  -31.6006  -28.8816   36.8594 C   0  0  0  0  0  0  0  0  0  0  0  0
  -30.3427  -22.9235   33.4779 C   0  0  0  0  0  0  0  0  0  0  0  0
  -30.6068  -19.3470   21.7989 C   0  0  0  0  0  0  0  0  0  0  0  0
  -32.4360  -22.9782   31.3898 C   0  0  0  0  0  0  0  0  0  0  0  0
  -32.6399  -28.1306   36.0311 C   0  0  0  0  0  0  0  0  0  0  0  0
  -30.4656  -18.0684   20.9584 C   0  0  0  0  0  0  0  0  0  0  0  0
  -29.6012  -12.3632   18.2707 C   0  0  0  0  0  0  0  0  0  0  0  0
  -32.2291  -28.0969   34.5625 C   0  0  0  0  0  0  0  0  0  0  0  0
  -28.1648  -12.0683   18.7062 C   0  0  0  0  0  0  0  0  0  0  0  0
  -30.5206  -12.5837   19.4699 C   0  0  0  0  0  0  0  0  0  0  0  0
  -28.6212  -13.3125   20.8608 C   0  0  0  0  0  0  0  0  0  0  0  0
  -30.8982  -27.3577   34.3787 C   0  0  1  0  0  0  0  0  0  0  0  0
  -30.8090  -16.8963   21.8954 C   0  0  2  0  0  0  0  0  0  0  0  0
  -31.6419  -23.7014   33.6633 C   0  0  1  0  0  0  0  0  0  0  0  0
  -27.6448  -13.1382   19.6850 C   0  0  2  0  0  0  0  0  0  0  0  0
  -30.6571  -16.9042   27.7989 C   0  0  0  0  0  0  0  0  0  0  0  0
  -37.6186  -19.0138   32.1439 C   0  0  0  0  0  0  0  0  0  0  0  0
  -35.5925  -25.3146   31.8882 C   0  0  0  0  0  0  0  0  0  0  0  0
  -37.2800  -23.5765   31.2560 C   0  0  0  0  0  0  0  0  0  0  0  0
  -36.8803  -24.1080   33.6602 C   0  0  0  0  0  0  0  0  0  0  0  0
  -33.9967  -17.9771   32.6763 C   0  0  0  0  0  0  0  0  0  0  0  0
  -29.4988  -16.7758   26.8148 C   0  0  0  0  0  0  0  0  0  0  0  0
  -27.8886  -21.1153   27.8070 C   0  0  0  0  0  0  0  0  0  1  0  0
  -28.1098  -20.3949   26.4910 C   0  0  0  0  0  0  0  0  0  0  0  0
  -35.1300  -22.8202   32.3680 C   0  0  1  0  0  0  0  0  0  0  0  0
  -36.1813  -19.1862   32.6099 C   0  0  2  0  0  0  0  0  0  0  0  0
  -36.1933  -23.9516   32.2861 C   0  0  0  0  0  0  0  0  0  0  0  0
  -25.8596  -11.5452   20.2831 N   0  0  0  0  0  0  0  0  0  0  0  0
  -26.2354  -12.8291   20.1551 N   0  0  0  0  0  0  0  0  0  0  0  0
  -32.7262  -23.2010   32.8159 N   0  0  0  0  0  0  0  0  0  0  0  0
  -29.9712  -13.6112   20.3577 N   0  0  0  0  0  0  0  0  0  0  0  0
  -25.4680  -15.0559   20.4063 N   0  0  0  0  0  0  0  0  0  0  0  0
  -21.8870  -12.5784   21.6040 N   0  0  0  0  0  0  0  0  0  0  0  0
  -31.1013  -25.9264   34.4474 N   0  0  0  0  0  0  0  0  0  0  0  0
  -35.6663  -21.5241   32.7691 N   0  0  0  0  0  0  0  0  0  0  0  0
  -30.1440  -15.6744   21.5009 N   0  0  0  0  0  0  0  0  0  0  0  0
  -35.4213  -17.9542   32.2556 N   0  3  0  0  0  0  0  0  0  0  0  0
  -22.6608  -14.7189   21.3242 O   0  0  0  0  0  0  0  0  0  0  0  0
  -31.7104  -25.5746   32.2276 O   0  0  0  0  0  0  0  0  0  0  0  0
  -34.2994  -23.3215   34.5325 O   0  0  0  0  0  0  0  0  0  0  0  0
  -34.9781  -20.3685   30.8802 O   0  0  0  0  0  0  0  0  0  0  0  0
  -31.8770  -14.9232   20.2013 O   0  0  0  0  0  0  0  0  0  0  0  0
  -21.6175   -7.0150   21.7084 O   0  0  0  0  0  0  0  0  0  0  0  0
  -28.9961  -21.9798   28.0569 O   0  0  0  0  0  0  0  0  0  1  0  0
  -29.2945  -19.6131   26.5827 O   0  0  0  0  0  0  0  0  0  0  0  0
  -18.6358   -6.8510   26.3438 F   0  0  0  0  0  0  0  0  0  0  0  0
  -22.0729   -5.0702   23.6197 F   0  0  0  0  0  0  0  0  0  0  0  0
  1  2  1  0  0  0  0
  1  5  2  0  0  0  0
  2  6  2  0  0  0  0
  3  8  2  0  0  0  0
  3 17  1  0  0  0  0
  4  9  1  0  0  0  0
  4 17  2  0  0  0  0
  5 19  1  0  0  0  0
  6 21  1  0  0  0  0
  7 10  2  0  0  0  0
  7 20  1  0  0  0  0
  8 26  1  0  0  0  0
  9 26  2  0  0  0  0
 10 27  1  0  0  0  0
 11 12  2  0  0  0  0
 11 28  1  0  0  0  0
 12 30  1  0  0  0  0
 13 22  2  0  0  0  0
 13 25  1  0  0  0  0
 14 23  2  0  0  0  0
 14 29  1  0  0  0  0
 15 24  1  0  0  0  0
 15 27  2  0  0  0  0
 16 30  2  0  0  0  0
 16 31  1  0  0  0  0
 17 32  1  0  0  0  0
 18 32  1  0  0  0  0
 18 33  2  0  0  0  0
 18 34  1  0  0  0  0
 19 21  2  0  0  0  0
 19 39  1  0  0  0  0
 20 24  2  0  0  0  0
 20 40  1  0  0  0  0
 21 50  1  0  0  0  0
 22 23  1  0  0  0  0
 22 51  1  0  0  0  0
 23 41  1  0  0  0  0
 24 42  1  0  0  0  0
 25 29  2  0  0  0  0
 25 60  1  0  0  0  0
 26 81  1  0  0  0  0
 27 82  1  0  0  0  0
 28 31  2  0  0  0  0
 28 81  1  0  0  0  0
 29 83  1  0  0  0  0
 30 84  1  0  0  0  0
 31 85  1  0  0  0  0
 32 66  2  0  0  0  0
 33 67  1  0  0  0  0
 33 70  1  0  0  0  0
 34 71  1  0  0  0  0
 34 76  2  0  0  0  0
 35 52  1  0  0  0  0
 35 72  1  0  0  0  0
 35 77  2  0  0  0  0
 36 63  1  0  0  0  0
 36 68  1  0  0  0  0
 36 78  2  0  0  0  0
 37 64  1  0  0  0  0
 37 73  1  0  0  0  0
 37 79  2  0  0  0  0
 38 69  1  0  0  0  0
 38 74  1  0  0  0  0
 38 80  2  0  0  0  0
 39 43  1  0  0  0  0
 40 52  1  0  0  0  0
 41 44  1  0  0  0  0
 42 68  1  0  0  0  0
 43 46  1  0  0  0  0
 44 51  1  0  0  0  0
 45 47  1  0  0  0  0
 45 48  1  0  0  0  0
 46 50  1  0  0  0  0
 47 53  1  0  0  0  0
 48 69  1  0  0  0  0
 49 53  1  0  0  0  0
 49 69  1  0  0  0  0
 50 72  1  0  0  0  0
 51 74  1  0  0  0  0
 52 68  1  0  0  0  0
 53 67  1  0  0  0  0
 54 60  1  0  0  0  0
 55 64  1  0  0  0  0
 56 65  1  0  0  0  0
 57 65  1  0  0  0  0
 58 65  1  0  0  0  0
 59 75  1  0  0  0  0
 61 62  1  0  0  0  0
 61 82  1  0  0  0  0
 62 83  1  0  0  0  0
 63 65  1  0  0  0  0
 63 73  1  0  0  0  0
 64 75  1  0  0  0  0
 66 67  1  0  0  0  0
M  CHG  1  75   1
M  ISO  4  38 100  61 101  74 100  82 101
M  END
> <Batch ID>
0160

> <Smiles>
CCc1cc2c(cc1OC[101CH2:1][101O:1]c1ccc3c(c1)CN(C(=O)C(NC(=O)C(C)NC)C(C)(C)C)C(C(=O)NC1CCCc4ccccc41)C3)CCC2[100NH:0][100C:0](=O)N1CCCC(n2nc(-c3ccc(Oc4ccc(F)cc4F)cc3)c(C(N)=O)c2N)C1

> <Shape>
0.172

> <Color>
0.187

> <Negative vol penalty>
0.000

$$$$

  -OEChem-04052322093D

 87 96  0     1  0  0  0  0  0999 V2000
  -29.4237  -32.2776   26.0786 C   0  0  0  0  0  0  0  0  0  0  0  0
  -29.2153  -31.1502   25.2907 C   0  0  0  0  0  0  0  0  0  0  0  0
  -22.9340  -10.0257   21.8606 C   0  0  0  0  0  0  0  0  0  0  0  0
  -24.6699   -8.4246   21.3505 C   0  0  0  0  0  0  0  0  0  0  0  0
  -28.3352  -32.9530   26.6289 C   0  0  0  0  0  0  0  0  0  0  0  0
  -27.9181  -30.6968   25.0535 C   0  0  0  0  0  0  0  0  0  0  0  0
  -27.1416  -29.4831   20.1987 C   0  0  0  0  0  0  0  0  0  0  0  0
  -21.9647   -9.0895   21.5007 C   0  0  0  0  0  0  0  0  0  0  0  0
  -23.7006   -7.4884   20.9906 C   0  0  0  0  0  0  0  0  0  0  0  0
  -27.6421  -28.2578   19.7608 C   0  0  0  0  0  0  0  0  0  0  0  0
  -21.6727   -4.5555   20.2808 C   0  0  0  0  0  0  0  0  0  0  0  0
  -21.8238   -3.2510   20.7509 C   0  0  0  0  0  0  0  0  0  0  0  0
  -25.4420  -27.2910   19.9701 C   0  0  0  0  0  0  0  0  0  0  0  0
  -29.2291  -24.3276   17.0640 C   0  0  0  0  0  0  0  0  0  0  0  0
  -21.7355   -4.0606   23.0256 C   0  0  0  0  0  0  0  0  0  0  0  0
  -24.2866   -9.6933   21.7855 C   0  0  0  0  0  0  0  0  0  0  0  0
  -25.8468  -10.8583   23.4336 C   0  0  0  0  0  0  0  0  0  0  0  0
  -27.0235  -32.5133   26.3905 C   0  0  0  0  0  0  0  0  0  0  0  0
  -25.7874  -29.6190   20.5366 C   0  0  0  0  0  0  0  0  0  0  0  0
  -26.8111  -31.3662   25.6022 C   0  0  0  0  0  0  0  0  0  0  0  0
  -24.9262  -28.5198   20.4096 C   0  0  0  0  0  0  0  0  0  0  0  0
  -29.0124  -24.5313   18.4222 C   0  0  0  0  0  0  0  0  0  0  0  0
  -29.1183  -23.4626   19.3053 C   0  0  0  0  0  0  0  0  0  0  0  0
  -22.3480   -7.8209   21.0657 C   0  0  0  0  0  0  0  0  0  0  0  0
  -26.7929  -27.1607   19.6492 C   0  0  0  0  0  0  0  0  0  0  0  0
  -21.5531   -5.6125   21.1830 C   0  0  0  0  0  0  0  0  0  0  0  0
  -21.8552   -3.0035   22.1233 C   0  0  0  0  0  0  0  0  0  0  0  0
  -21.5844   -5.3651   22.5554 C   0  0  0  0  0  0  0  0  0  0  0  0
  -25.2884  -10.6602   22.1566 C   0  0  0  0  0  0  0  0  0  0  0  0
  -29.5465  -23.0464   16.6428 C   0  0  0  0  0  0  0  0  0  0  0  0
  -29.4405  -22.2200   18.7838 C   0  0  0  0  0  0  0  0  0  0  0  0
  -26.7434  -11.8843   23.2609 C   0  0  0  0  0  0  0  0  0  0  0  0
  -25.5789  -10.1760   24.6658 C   0  0  0  0  0  0  0  0  0  0  0  0
  -24.2006  -30.3547   23.1907 C   0  0  0  0  0  0  0  0  0  0  0  0
  -21.6341  -30.2957   21.2078 C   0  0  0  0  0  0  0  0  0  0  0  0
  -20.2365  -29.1539   18.3113 C   0  0  0  0  0  0  0  0  0  0  0  0
  -28.2084  -16.6828   21.3527 C   0  0  0  0  0  0  0  0  0  0  0  0
  -25.8811  -33.2484   27.0456 C   0  0  0  0  0  0  0  0  0  0  0  0
  -25.2575  -30.9544   20.9818 C   0  0  0  0  0  0  0  0  0  0  0  0
  -23.4601  -28.6186   20.7404 C   0  0  0  0  0  0  0  0  0  0  0  0
  -24.5190  -32.9226   26.4382 C   0  0  0  0  0  0  0  0  0  0  0  0
  -28.5185  -14.0470   19.0552 C   0  0  0  0  0  0  0  0  0  0  0  0
  -24.3598  -31.4159   26.2617 C   0  0  0  0  0  0  0  0  0  0  0  0
  -27.7446  -12.9350   19.7629 C   0  0  0  0  0  0  0  0  0  0  0  0
  -30.7157  -19.0471   19.9848 C   0  0  0  0  0  0  0  0  0  0  0  0
  -28.6158  -19.1660   18.5757 C   0  0  0  0  0  0  0  0  0  0  0  0
  -27.8292  -15.4051   19.1978 C   0  0  0  0  0  0  0  0  0  0  0  0
  -29.8830  -18.4806   21.1338 C   0  0  0  0  0  0  0  0  0  0  0  0
  -27.8311  -18.6007   19.7574 C   0  0  0  0  0  0  0  0  0  0  0  0
  -26.7606  -14.6734   21.3048 C   0  0  0  0  0  0  0  0  0  0  0  0
  -25.4176  -30.8581   25.3017 C   0  0  1  0  0  0  0  0  0  0  0  0
  -23.9681  -30.8463   21.7900 C   0  0  1  0  0  0  0  0  0  0  0  0
  -27.4594  -13.3070   21.2288 C   0  0  1  0  0  0  0  0  0  0  0  0
  -29.8873  -19.8928   19.0171 C   0  0  0  0  0  0  0  0  0  0  0  0
  -28.8916  -23.6466   20.7681 C   0  0  0  0  0  0  0  0  0  0  0  0
  -18.1115  -29.2453   16.9797 C   0  0  0  0  0  0  0  0  0  0  0  0
  -20.3341  -28.3368   23.1526 C   0  0  0  0  0  0  0  0  0  0  0  0
  -18.6953  -27.7469   21.3541 C   0  0  0  0  0  0  0  0  0  0  0  0
  -18.7897  -30.0780   22.2373 C   0  0  0  0  0  0  0  0  0  0  0  0
  -30.0989  -21.5848   14.6975 C   0  0  0  0  0  0  0  0  0  0  0  0
  -21.6002  -30.4077   16.0032 C   0  0  0  0  0  0  0  0  0  0  0  0
  -28.6683  -25.9010   18.9063 C   0  0  0  0  0  0  0  0  0  1  0  0
  -20.6573  -29.2377   20.7547 C   0  0  1  0  0  0  0  0  0  0  0  0
  -19.4791  -29.8700   17.2076 C   0  0  2  0  0  0  0  0  0  0  0  0
  -19.6470  -28.8471   21.8702 C   0  0  0  0  0  0  0  0  0  0  0  0
  -25.7884  -11.4934   21.2403 N   0  0  0  0  0  0  0  0  0  0  0  0
  -29.6582  -21.9835   17.4707 N   0  0  0  0  0  0  0  0  0  0  0  0
  -26.6703  -12.2252   21.9423 N   0  0  0  0  0  0  0  0  0  0  0  0
  -22.9910  -29.9439   21.1775 N   0  0  0  0  0  0  0  0  0  0  0  0
  -27.5423  -15.6974   20.6086 N   0  0  0  0  0  0  0  0  0  0  0  0
  -28.6846  -17.7995   20.6450 N   0  0  0  0  0  0  0  0  0  0  0  0
  -27.5794  -12.5191   24.1098 N   0  0  0  0  0  0  0  0  0  0  0  0
  -24.6281   -9.1462   24.6663 N   0  0  0  0  0  0  0  0  0  0  0  0
  -29.7644  -22.8543   15.2561 N   0  0  0  0  0  0  0  0  0  0  0  0
  -25.0579  -31.1471   23.9301 N   0  0  0  0  0  0  0  0  0  0  0  0
  -20.0357  -29.7500   19.5383 N   0  0  0  0  0  0  0  0  0  0  0  0
  -20.2434  -29.8070   15.9298 N   0  3  0  0  0  0  0  0  0  0  0  0
  -26.1533  -10.4817   25.7383 O   0  0  0  0  0  0  0  0  0  0  0  0
  -23.6423  -29.3330   23.5729 O   0  0  0  0  0  0  0  0  0  0  0  0
  -21.2094  -31.3963   21.5683 O   0  0  0  0  0  0  0  0  0  0  0  0
  -20.9333  -28.1625   18.1061 O   0  0  0  0  0  0  0  0  0  0  0  0
  -28.3723  -16.5725   22.5742 O   0  0  0  0  0  0  0  0  0  0  0  0
  -21.4024   -6.9070   20.7146 O   0  0  0  0  0  0  0  0  0  0  0  0
  -27.2825  -25.9550   19.2196 O   0  0  0  0  0  0  0  0  0  1  0  0
  -29.5534  -21.1409   19.6204 O   0  0  0  0  0  0  0  0  0  0  0  0
  -21.9987   -1.7506   22.5747 F   0  0  0  0  0  0  0  0  0  0  0  0
  -21.4688   -6.3764   23.4270 F   0  0  0  0  0  0  0  0  0  0  0  0
  1  2  1  0  0  0  0
  1  5  2  0  0  0  0
  2  6  2  0  0  0  0
  3  8  2  0  0  0  0
  3 16  1  0  0  0  0
  4  9  1  0  0  0  0
  4 16  2  0  0  0  0
  5 18  1  0  0  0  0
  6 20  1  0  0  0  0
  7 10  2  0  0  0  0
  7 19  1  0  0  0  0
  8 24  1  0  0  0  0
  9 24  2  0  0  0  0
 10 25  1  0  0  0  0
 11 12  2  0  0  0  0
 11 26  1  0  0  0  0
 12 27  1  0  0  0  0
 13 21  1  0  0  0  0
 13 25  2  0  0  0  0
 14 22  2  0  0  0  0
 14 30  1  0  0  0  0
 15 27  2  0  0  0  0
 15 28  1  0  0  0  0
 16 29  1  0  0  0  0
 17 29  1  0  0  0  0
 17 32  2  0  0  0  0
 17 33  1  0  0  0  0
 18 20  2  0  0  0  0
 18 38  1  0  0  0  0
 19 21  2  0  0  0  0
 19 39  1  0  0  0  0
 20 51  1  0  0  0  0
 21 40  1  0  0  0  0
 22 23  1  0  0  0  0
 22 62  1  0  0  0  0
 23 31  2  0  0  0  0
 23 55  1  0  0  0  0
 24 83  1  0  0  0  0
 25 84  1  0  0  0  0
 26 28  2  0  0  0  0
 26 83  1  0  0  0  0
 27 86  1  0  0  0  0
 28 87  1  0  0  0  0
 29 66  2  0  0  0  0
 30 67  2  0  0  0  0
 30 74  1  0  0  0  0
 31 67  1  0  0  0  0
 31 85  1  0  0  0  0
 32 68  1  0  0  0  0
 32 72  1  0  0  0  0
 33 73  1  0  0  0  0
 33 78  2  0  0  0  0
 34 52  1  0  0  0  0
 34 75  1  0  0  0  0
 34 79  2  0  0  0  0
 35 63  1  0  0  0  0
 35 69  1  0  0  0  0
 35 80  2  0  0  0  0
 36 64  1  0  0  0  0
 36 76  1  0  0  0  0
 36 81  2  0  0  0  0
 37 70  1  0  0  0  0
 37 71  1  0  0  0  0
 37 82  2  0  0  0  0
 38 41  1  0  0  0  0
 39 52  1  0  0  0  0
 40 69  1  0  0  0  0
 41 43  1  0  0  0  0
 42 44  1  0  0  0  0
 42 47  1  0  0  0  0
 43 51  1  0  0  0  0
 44 53  1  0  0  0  0
 45 48  1  0  0  0  0
 45 54  1  0  0  0  0
 46 49  1  0  0  0  0
 46 54  1  0  0  0  0
 47 70  1  0  0  0  0
 48 71  1  0  0  0  0
 49 71  1  0  0  0  0
 50 53  1  0  0  0  0
 50 70  1  0  0  0  0
 51 75  1  0  0  0  0
 52 69  1  0  0  0  0
 53 68  1  0  0  0  0
 54 85  1  0  0  0  0
 56 64  1  0  0  0  0
 57 65  1  0  0  0  0
 58 65  1  0  0  0  0
 59 65  1  0  0  0  0
 60 74  1  0  0  0  0
 61 77  1  0  0  0  0
 62 84  1  0  0  0  0
 63 65  1  0  0  0  0
 63 76  1  0  0  0  0
 64 77  1  0  0  0  0
 66 68  1  0  0  0  0
M  CHG  1  77   1
M  ISO  4  37 100  62 101  71 100  84 101
M  END
> <Batch ID>
0160

> <Smiles>
CNc1cc([101CH2:1][101O:1]c2ccc3c(c2)CN(C(=O)C(NC(=O)C(C)NC)C(C)(C)C)C(C(=O)NC2CCCc4ccccc42)C3)c(C)c(OC2CC[100N:0]([100C:0](=O)N3CCCC(n4nc(-c5ccc(Oc6ccc(F)cc6F)cc5)c(C(N)=O)c4N)C3)CC2)n1

> <Shape>
0.337

> <Color>
0.096

> <Negative vol penalty>
0.000

$$$$

  -OEChem-04052322093D

 85 94  0     1  0  0  0  0  0999 V2000
  -24.6941  -35.4348   22.8696 C   0  0  0  0  0  0  0  0  0  0  0  0
  -25.4627  -34.2905   22.6821 C   0  0  0  0  0  0  0  0  0  0  0  0
  -24.5393  -12.4873   21.5237 C   0  0  0  0  0  0  0  0  0  0  0  0
  -25.3929  -12.5997   19.2663 C   0  0  0  0  0  0  0  0  0  0  0  0
  -23.4063  -35.3301   23.3936 C   0  0  0  0  0  0  0  0  0  0  0  0
  -24.9442  -33.0407   23.0195 C   0  0  0  0  0  0  0  0  0  0  0  0
  -25.8382  -29.5432   19.4680 C   0  0  0  0  0  0  0  0  0  0  0  0
  -23.6756  -11.4592   21.1460 C   0  0  0  0  0  0  0  0  0  0  0  0
  -24.5292  -11.5716   18.8885 C   0  0  0  0  0  0  0  0  0  0  0  0
  -27.1183  -28.9925   19.4247 C   0  0  0  0  0  0  0  0  0  0  0  0
  -23.8639   -8.1324   20.5720 C   0  0  0  0  0  0  0  0  0  0  0  0
  -23.7680   -7.0242   21.4136 C   0  0  0  0  0  0  0  0  0  0  0  0
  -26.3163  -27.0505   20.6099 C   0  0  0  0  0  0  0  0  0  0  0  0
  -21.4071   -7.4482   21.7029 C   0  0  0  0  0  0  0  0  0  0  0  0
  -31.2915  -21.8564   17.3511 C   0  0  0  0  0  0  0  0  0  0  0  0
  -25.3979  -13.0576   20.5839 C   0  0  0  0  0  0  0  0  0  0  0  0
  -27.6033  -13.9906   21.4633 C   0  0  0  0  0  0  0  0  0  0  0  0
  -22.8683  -34.0776   23.7286 C   0  0  0  0  0  0  0  0  0  0  0  0
  -24.7882  -28.8555   20.0932 C   0  0  0  0  0  0  0  0  0  0  0  0
  -23.6485  -32.9193   23.5498 C   0  0  0  0  0  0  0  0  0  0  0  0
  -25.0233  -27.5936   20.6576 C   0  0  0  0  0  0  0  0  0  0  0  0
  -23.6706  -11.0014   19.8284 C   0  0  0  0  0  0  0  0  0  0  0  0
  -27.3581  -27.7473   19.9983 C   0  0  0  0  0  0  0  0  0  0  0  0
  -22.7314   -8.8986   20.2959 C   0  0  0  0  0  0  0  0  0  0  0  0
  -22.5396   -6.6821   21.9790 C   0  0  0  0  0  0  0  0  0  0  0  0
  -21.5031   -8.5565   20.8613 C   0  0  0  0  0  0  0  0  0  0  0  0
  -26.2899  -14.1200   20.9734 C   0  0  0  0  0  0  0  0  0  0  0  0
  -29.7291  -20.2494   16.8975 C   0  0  0  0  0  0  0  0  0  0  0  0
  -28.7232  -21.1551   17.1533 C   0  0  0  0  0  0  0  0  0  0  0  0
  -30.2858  -22.7624   17.6061 C   0  0  0  0  0  0  0  0  0  0  0  0
  -28.0167  -15.2818   21.6830 C   0  0  0  0  0  0  0  0  0  0  0  0
  -28.3803  -12.8088   21.6987 C   0  0  0  0  0  0  0  0  0  0  0  0
  -22.8896  -29.4369   22.5753 C   0  0  0  0  0  0  0  0  0  0  0  0
  -21.4182  -26.7194   21.5892 C   0  0  0  0  0  0  0  0  0  0  0  0
  -21.6260  -23.7621   19.8986 C   0  0  0  0  0  0  0  0  0  0  0  0
  -26.3735  -20.5428   19.3436 C   0  0  0  0  0  0  0  0  0  0  0  0
  -21.4891  -34.0190   24.3362 C   0  0  0  0  0  0  0  0  0  0  0  0
  -23.4072  -29.4513   20.1080 C   0  0  0  0  0  0  0  0  0  0  0  0
  -23.9256  -26.8055   21.3229 C   0  0  0  0  0  0  0  0  0  0  0  0
  -20.8743  -32.6218   24.3179 C   0  0  0  0  0  0  0  0  0  0  0  0
  -26.3236  -19.6197   22.7819 C   0  0  0  0  0  0  0  0  0  0  0  0
  -21.8859  -31.5871   24.8005 C   0  0  0  0  0  0  0  0  0  0  0  0
  -29.1542  -17.8241   17.5767 C   0  0  0  0  0  0  0  0  0  0  0  0
  -30.4204  -17.7621   16.7810 C   0  0  0  0  0  0  0  0  0  0  0  0
  -26.4278  -18.0938   22.7525 C   0  0  0  0  0  0  0  0  0  0  0  0
  -25.4840  -20.1504   21.6220 C   0  0  0  0  0  0  0  0  0  0  0  0
  -26.0183  -18.1690   20.2574 C   0  0  0  0  0  0  0  0  0  0  0  0
  -23.1120  -31.5435   23.8805 C   0  0  1  0  0  0  0  0  0  0  0  0
  -29.4132  -18.8462   16.5015 C   0  0  0  0  0  0  0  0  0  0  0  0
  -22.5275  -28.8929   21.2223 C   0  0  1  0  0  0  0  0  0  0  0  0
  -26.9020  -17.5906   21.3758 C   0  0  2  0  0  0  0  0  0  0  0  0
  -20.2713  -21.7367   19.2985 C   0  0  0  0  0  0  0  0  0  0  0  0
  -21.7574  -25.6543   24.4283 C   0  0  0  0  0  0  0  0  0  0  0  0
  -21.2793  -23.3591   23.5498 C   0  0  0  0  0  0  0  0  0  0  0  0
  -19.5449  -25.1440   23.3800 C   0  0  0  0  0  0  0  0  0  0  0  0
  -21.8842  -24.3048   17.0008 C   0  0  0  0  0  0  0  0  0  0  0  0
  -27.2857  -20.7745   17.0472 C   0  0  0  0  0  0  0  0  0  0  0  0
  -30.3931  -26.4061   18.5703 C   0  0  0  0  0  0  0  0  0  0  0  0
  -29.6835  -25.0928   18.2635 C   0  0  0  0  0  0  0  0  0  0  0  0
  -29.4283  -27.5539   18.8437 C   0  0  0  0  0  0  0  0  0  1  0  0
  -21.5809  -25.2479   21.8847 C   0  0  1  0  0  0  0  0  0  0  0  0
  -20.7133  -23.1260   18.8657 C   0  0  2  0  0  0  0  0  0  0  0  0
  -21.0619  -24.8668   23.3000 C   0  0  0  0  0  0  0  0  0  0  0  0
  -31.0313  -20.5836   16.9921 N   0  0  0  0  0  0  0  0  0  0  0  0
  -25.8950  -15.3930   20.8869 N   0  0  0  0  0  0  0  0  0  0  0  0
  -28.9835  -22.4280   17.5118 N   0  0  0  0  0  0  0  0  0  0  0  0
  -26.9665  -16.0753   21.3255 N   0  0  0  0  0  0  0  0  0  0  0  0
  -22.5939  -27.4332   21.3172 N   0  0  0  0  0  0  0  0  0  0  0  0
  -25.9869  -19.6373   20.3454 N   0  0  0  0  0  0  0  0  0  0  0  0
  -29.1723  -15.8046   22.1453 N   0  0  0  0  0  0  0  0  0  0  0  0
  -27.8027  -11.5628   21.4191 N   0  0  0  0  0  0  0  0  0  0  0  0
  -30.6393  -24.0522   17.9705 N   0  0  0  0  0  0  0  0  0  0  0  0
  -22.8087  -30.8132   22.6684 N   0  0  0  0  0  0  0  0  0  0  0  0
  -20.9209  -24.5373   20.7949 N   0  0  0  0  0  0  0  0  0  0  0  0
  -26.8446  -19.9731   18.1670 N   0  0  0  0  0  0  0  0  0  0  0  0
  -21.4150  -23.0093   17.5562 N   0  3  0  0  0  0  0  0  0  0  0  0
  -29.5461  -12.8555   22.1594 O   0  0  0  0  0  0  0  0  0  0  0  0
  -23.2167  -28.6650   23.4691 O   0  0  0  0  0  0  0  0  0  0  0  0
  -20.2889  -27.2156   21.5923 O   0  0  0  0  0  0  0  0  0  0  0  0
  -22.8422  -23.5857   19.9115 O   0  0  0  0  0  0  0  0  0  0  0  0
  -26.3091  -21.7683   19.4890 O   0  0  0  0  0  0  0  0  0  0  0  0
  -22.8281   -9.9980   19.4595 O   0  0  0  0  0  0  0  0  0  0  0  0
  -28.6068  -27.2077   19.9580 O   0  0  0  0  0  0  0  0  0  1  0  0
  -22.4474   -5.6170   22.7860 F   0  0  0  0  0  0  0  0  0  0  0  0
  -20.4114   -9.2880   20.5988 F   0  0  0  0  0  0  0  0  0  0  0  0
  1  2  1  0  0  0  0
  1  5  2  0  0  0  0
  2  6  2  0  0  0  0
  3  8  2  0  0  0  0
  3 16  1  0  0  0  0
  4  9  1  0  0  0  0
  4 16  2  0  0  0  0
  5 18  1  0  0  0  0
  6 20  1  0  0  0  0
  7 10  2  0  0  0  0
  7 19  1  0  0  0  0
  8 22  1  0  0  0  0
  9 22  2  0  0  0  0
 10 23  1  0  0  0  0
 11 12  2  0  0  0  0
 11 24  1  0  0  0  0
 12 25  1  0  0  0  0
 13 21  1  0  0  0  0
 13 23  2  0  0  0  0
 14 25  2  0  0  0  0
 14 26  1  0  0  0  0
 15 30  1  0  0  0  0
 15 64  2  0  0  0  0
 16 27  1  0  0  0  0
 17 27  1  0  0  0  0
 17 31  2  0  0  0  0
 17 32  1  0  0  0  0
 18 20  2  0  0  0  0
 18 37  1  0  0  0  0
 19 21  2  0  0  0  0
 19 38  1  0  0  0  0
 20 48  1  0  0  0  0
 21 39  1  0  0  0  0
 22 82  1  0  0  0  0
 23 83  1  0  0  0  0
 24 26  2  0  0  0  0
 24 82  1  0  0  0  0
 25 84  1  0  0  0  0
 26 85  1  0  0  0  0
 27 65  2  0  0  0  0
 28 29  2  0  0  0  0
 28 49  1  0  0  0  0
 28 64  1  0  0  0  0
 29 57  1  0  0  0  0
 29 66  1  0  0  0  0
 30 66  2  0  0  0  0
 30 72  1  0  0  0  0
 31 67  1  0  0  0  0
 31 70  1  0  0  0  0
 32 71  1  0  0  0  0
 32 77  2  0  0  0  0
 33 50  1  0  0  0  0
 33 73  1  0  0  0  0
 33 78  2  0  0  0  0
 34 61  1  0  0  0  0
 34 68  1  0  0  0  0
 34 79  2  0  0  0  0
 35 62  1  0  0  0  0
 35 74  1  0  0  0  0
 35 80  2  0  0  0  0
 36 69  1  0  0  0  0
 36 75  1  0  0  0  0
 36 81  2  0  0  0  0
 37 40  1  0  0  0  0
 38 50  1  0  0  0  0
 39 68  1  0  0  0  0
 40 42  1  0  0  0  0
 41 45  1  0  0  0  0
 41 46  1  0  0  0  0
 42 48  1  0  0  0  0
 43 44  1  0  0  0  0
 43 49  1  0  0  0  0
 44 49  1  0  0  0  0
 45 51  1  0  0  0  0
 46 69  1  0  0  0  0
 47 51  1  0  0  0  0
 47 69  1  0  0  0  0
 48 73  1  0  0  0  0
 50 68  1  0  0  0  0
 51 67  1  0  0  0  0
 52 62  1  0  0  0  0
 53 63  1  0  0  0  0
 54 63  1  0  0  0  0
 55 63  1  0  0  0  0
 56 76  1  0  0  0  0
 57 75  1  0  0  0  0
 58 59  1  0  0  0  0
 58 60  1  0  0  0  0
 59 72  1  0  0  0  0
 60 83  1  0  0  0  0
 61 63  1  0  0  0  0
 61 74  1  0  0  0  0
 62 76  1  0  0  0  0
 65 67  1  0  0  0  0
M  CHG  1  76   1
M  ISO  4  36 100  60 101  75 100  83 101
M  END
> <Batch ID>
0160

> <Smiles>
CNC(C)C(=O)NC(C(=O)N1Cc2cc([101O:1][101CH2:1]CCNc3cnc(C4CC4)c(C[100NH:0][100C:0](=O)N4CCCC(n5nc(-c6ccc(Oc7ccc(F)cc7F)cc6)c(C(N)=O)c5N)C4)n3)ccc2CC1C(=O)NC1CCCc2ccccc21)C(C)(C)C

> <Shape>
0.249

> <Color>
0.072

> <Negative vol penalty>
0.000

$$$$

  -OEChem-04052322093D

 88 97  0     1  0  0  0  0  0999 V2000
  -22.0995  -29.0689   11.6445 C   0  0  0  0  0  0  0  0  0  0  0  0
  -21.7353  -27.8001   12.0837 C   0  0  0  0  0  0  0  0  0  0  0  0
  -23.0718   -9.9238   19.8914 C   0  0  0  0  0  0  0  0  0  0  0  0
  -23.8567   -9.7985   22.1729 C   0  0  0  0  0  0  0  0  0  0  0  0
  -22.9454  -29.8584   12.4223 C   0  0  0  0  0  0  0  0  0  0  0  0
  -22.2178  -27.3196   13.3006 C   0  0  0  0  0  0  0  0  0  0  0  0
  -20.3239  -23.1321   18.7955 C   0  0  0  0  0  0  0  0  0  0  0  0
  -22.3231   -8.7631   20.0852 C   0  0  0  0  0  0  0  0  0  0  0  0
  -23.1080   -8.6377   22.3667 C   0  0  0  0  0  0  0  0  0  0  0  0
  -20.7913  -22.0443   19.5318 C   0  0  0  0  0  0  0  0  0  0  0  0
  -19.8814   -7.8270   22.9603 C   0  0  0  0  0  0  0  0  0  0  0  0
  -19.1370   -7.7264   24.1356 C   0  0  0  0  0  0  0  0  0  0  0  0
  -22.1829  -23.5278   20.8287 C   0  0  0  0  0  0  0  0  0  0  0  0
  -23.0627  -18.3435   24.4480 C   0  0  0  0  0  0  0  0  0  0  0  0
  -20.3735   -5.7435   24.7491 C   0  0  0  0  0  0  0  0  0  0  0  0
  -23.8387  -10.4416   20.9353 C   0  0  0  0  0  0  0  0  0  0  0  0
  -24.1959  -12.9674   20.9520 C   0  0  0  0  0  0  0  0  0  0  0  0
  -23.4308  -29.3912   13.6539 C   0  0  0  0  0  0  0  0  0  0  0  0
  -20.7915  -24.4267   19.0636 C   0  0  0  0  0  0  0  0  0  0  0  0
  -23.0721  -28.1032   14.0950 C   0  0  0  0  0  0  0  0  0  0  0  0
  -21.7179  -24.6306   20.0962 C   0  0  0  0  0  0  0  0  0  0  0  0
  -22.6805  -19.5373   23.8363 C   0  0  0  0  0  0  0  0  0  0  0  0
  -24.3101  -17.7850   24.1691 C   0  0  0  0  0  0  0  0  0  0  0  0
  -23.5456  -20.1726   22.9454 C   0  0  0  0  0  0  0  0  0  0  0  0
  -24.7930  -19.6141   22.6664 C   0  0  0  0  0  0  0  0  0  0  0  0
  -22.3411   -8.1200   21.3229 C   0  0  0  0  0  0  0  0  0  0  0  0
  -21.7231  -22.2417   20.5467 C   0  0  0  0  0  0  0  0  0  0  0  0
  -20.8718   -6.8858   22.6793 C   0  0  0  0  0  0  0  0  0  0  0  0
  -25.1752  -18.4203   23.2782 C   0  0  0  0  0  0  0  0  0  0  0  0
  -19.3831   -6.6847   25.0301 C   0  0  0  0  0  0  0  0  0  0  0  0
  -21.1179   -5.8441   23.5737 C   0  0  0  0  0  0  0  0  0  0  0  0
  -24.6128  -11.6403   20.7355 C   0  0  0  0  0  0  0  0  0  0  0  0
  -25.2890  -13.7293   20.6187 C   0  0  0  0  0  0  0  0  0  0  0  0
  -22.9335  -13.4667   21.4133 C   0  0  0  0  0  0  0  0  0  0  0  0
  -22.3892  -26.6217   17.4104 C   0  0  0  0  0  0  0  0  0  0  0  0
  -21.8024  -28.4537   20.0222 C   0  0  0  0  0  0  0  0  0  0  0  0
  -21.1017  -28.6021   23.3589 C   0  0  0  0  0  0  0  0  0  0  0  0
  -30.6591  -14.7932   20.6435 C   0  0  0  0  0  0  0  0  0  0  0  0
  -24.3805  -30.2622   14.4374 C   0  0  0  0  0  0  0  0  0  0  0  0
  -20.2573  -25.5929   18.2780 C   0  0  0  0  0  0  0  0  0  0  0  0
  -22.2361  -26.0031   20.4370 C   0  0  0  0  0  0  0  0  0  0  0  0
  -24.5476  -29.8271   15.8910 C   0  0  0  0  0  0  0  0  0  0  0  0
  -29.5992  -12.4876   18.2952 C   0  0  0  0  0  0  0  0  0  0  0  0
  -24.7642  -28.3195   15.9754 C   0  0  0  0  0  0  0  0  0  0  0  0
  -28.1694  -12.1616   18.7264 C   0  0  0  0  0  0  0  0  0  0  0  0
  -29.0550  -17.8901   21.8935 C   0  0  0  0  0  0  0  0  0  0  0  0
  -28.5963  -16.0190   23.5175 C   0  0  0  0  0  0  0  0  0  0  0  0
  -30.5219  -12.5989   19.5036 C   0  0  0  0  0  0  0  0  0  0  0  0
  -30.2634  -17.1171   21.3728 C   0  0  0  0  0  0  0  0  0  0  0  0
  -29.8157  -15.2843   22.9705 C   0  0  0  0  0  0  0  0  0  0  0  0
  -28.6434  -13.2884   20.9567 C   0  0  0  0  0  0  0  0  0  0  0  0
  -23.5550  -27.5566   15.4210 C   0  0  1  0  0  0  0  0  0  0  0  0
  -21.1882  -26.8014   18.2952 C   0  0  1  0  0  0  0  0  0  0  0  0
  -28.7420  -17.5379   23.3535 C   0  0  0  0  0  0  0  0  0  0  0  0
  -27.6637  -13.1717   19.7718 C   0  0  2  0  0  0  0  0  0  0  0  0
  -21.3393  -20.1144   24.1523 C   0  0  0  0  0  0  0  0  0  0  0  0
  -24.7013  -16.5067   24.8342 C   0  0  0  0  0  0  0  0  0  0  0  0
  -25.7253  -20.2908   21.7126 C   0  0  0  0  0  0  0  0  0  0  0  0
  -20.7163  -30.2409   25.2199 C   0  0  0  0  0  0  0  0  0  0  0  0
  -24.8004  -29.0056   20.1538 C   0  0  0  0  0  0  0  0  0  0  0  0
  -24.4769  -29.8197   22.4992 C   0  0  0  0  0  0  0  0  0  0  0  0
  -23.3527  -30.9939   20.6071 C   0  0  0  0  0  0  0  0  0  0  0  0
  -18.3579  -27.5981   23.8307 C   0  0  0  0  0  0  0  0  0  0  0  0
  -23.1344  -21.4534   22.2910 C   0  0  0  0  0  0  0  0  0  1  0  0
  -27.4830  -18.2589   23.8293 C   0  0  0  0  0  0  0  0  0  0  0  0
  -22.5175  -28.7182   21.3251 C   0  0  1  0  0  0  0  0  0  0  0  0
  -20.0663  -29.3944   24.1365 C   0  0  2  0  0  0  0  0  0  0  0  0
  -23.7787  -29.6081   21.1388 C   0  0  0  0  0  0  0  0  0  0  0  0
  -25.8723  -11.5603   20.2983 N   0  0  0  0  0  0  0  0  0  0  0  0
  -26.2563  -12.8467   20.2373 N   0  0  0  0  0  0  0  0  0  0  0  0
  -21.6884  -27.1106   19.6363 N   0  0  0  0  0  0  0  0  0  0  0  0
  -30.0050  -13.5636   20.4742 N   0  0  0  0  0  0  0  0  0  0  0  0
  -30.1113  -15.6786   21.5866 N   0  0  0  0  0  0  0  0  0  0  0  0
  -25.5074  -15.0615   20.6175 N   0  0  0  0  0  0  0  0  0  0  0  0
  -21.9193  -12.5462   21.7109 N   0  0  0  0  0  0  0  0  0  0  0  0
  -22.4776  -27.5462   16.3872 N   0  0  0  0  0  0  0  0  0  0  0  0
  -21.5205  -29.2770   22.2318 N   0  0  0  0  0  0  0  0  0  0  0  0
  -19.0880  -28.4743   24.7826 N   0  3  0  0  0  0  0  0  0  0  0  0
  -22.7061  -14.6936   21.5417 O   0  0  0  0  0  0  0  0  0  0  0  0
  -23.1781  -25.7125   17.6399 O   0  0  0  0  0  0  0  0  0  0  0  0
  -21.3549  -29.4033   19.3743 O   0  0  0  0  0  0  0  0  0  0  0  0
  -21.5019  -27.4968   23.7177 O   0  0  0  0  0  0  0  0  0  0  0  0
  -31.6682  -15.0867   19.9904 O   0  0  0  0  0  0  0  0  0  0  0  0
  -21.6104   -6.9874   21.5124 O   0  0  0  0  0  0  0  0  0  0  0  0
  -22.1848  -21.1738   21.2717 O   0  0  0  0  0  0  0  0  0  1  0  0
  -26.4020  -17.8681   23.0032 O   0  0  0  0  0  0  0  0  0  0  0  0
  -18.6693   -6.5892   26.1594 F   0  0  0  0  0  0  0  0  0  0  0  0
  -22.0688   -4.9376   23.3098 F   0  0  0  0  0  0  0  0  0  0  0  0
  1  2  1  0  0  0  0
  1  5  2  0  0  0  0
  2  6  2  0  0  0  0
  3  8  2  0  0  0  0
  3 16  1  0  0  0  0
  4  9  1  0  0  0  0
  4 16  2  0  0  0  0
  5 18  1  0  0  0  0
  6 20  1  0  0  0  0
  7 10  2  0  0  0  0
  7 19  1  0  0  0  0
  8 26  1  0  0  0  0
  9 26  2  0  0  0  0
 10 27  1  0  0  0  0
 11 12  2  0  0  0  0
 11 28  1  0  0  0  0
 12 30  1  0  0  0  0
 13 21  1  0  0  0  0
 13 27  2  0  0  0  0
 14 22  2  0  0  0  0
 14 23  1  0  0  0  0
 15 30  2  0  0  0  0
 15 31  1  0  0  0  0
 16 32  1  0  0  0  0
 17 32  1  0  0  0  0
 17 33  2  0  0  0  0
 17 34  1  0  0  0  0
 18 20  2  0  0  0  0
 18 39  1  0  0  0  0
 19 21  2  0  0  0  0
 19 40  1  0  0  0  0
 20 52  1  0  0  0  0
 21 41  1  0  0  0  0
 22 24  1  0  0  0  0
 22 56  1  0  0  0  0
 23 29  2  0  0  0  0
 23 57  1  0  0  0  0
 24 25  2  0  0  0  0
 24 64  1  0  0  0  0
 25 29  1  0  0  0  0
 25 58  1  0  0  0  0
 26 84  1  0  0  0  0
 27 85  1  0  0  0  0
 28 31  2  0  0  0  0
 28 84  1  0  0  0  0
 29 86  1  0  0  0  0
 30 87  1  0  0  0  0
 31 88  1  0  0  0  0
 32 69  2  0  0  0  0
 33 70  1  0  0  0  0
 33 74  1  0  0  0  0
 34 75  1  0  0  0  0
 34 79  2  0  0  0  0
 35 53  1  0  0  0  0
 35 76  1  0  0  0  0
 35 80  2  0  0  0  0
 36 66  1  0  0  0  0
 36 71  1  0  0  0  0
 36 81  2  0  0  0  0
 37 67  1  0  0  0  0
 37 77  1  0  0  0  0
 37 82  2  0  0  0  0
 38 72  1  0  0  0  0
 38 73  1  0  0  0  0
 38 83  2  0  0  0  0
 39 42  1  0  0  0  0
 40 53  1  0  0  0  0
 41 71  1  0  0  0  0
 42 44  1  0  0  0  0
 43 45  1  0  0  0  0
 43 48  1  0  0  0  0
 44 52  1  0  0  0  0
 45 55  1  0  0  0  0
 46 49  1  0  0  0  0
 46 54  1  0  0  0  0
 47 50  1  0  0  0  0
 47 54  1  0  0  0  0
 48 72  1  0  0  0  0
 49 73  1  0  0  0  0
 50 73  1  0  0  0  0
 51 55  1  0  0  0  0
 51 72  1  0  0  0  0
 52 76  1  0  0  0  0
 53 71  1  0  0  0  0
 54 65  1  0  0  0  0
 55 70  1  0  0  0  0
 59 67  1  0  0  0  0
 60 68  1  0  0  0  0
 61 68  1  0  0  0  0
 62 68  1  0  0  0  0
 63 78  1  0  0  0  0
 64 85  1  0  0  0  0
 65 86  1  0  0  0  0
 66 68  1  0  0  0  0
 66 77  1  0  0  0  0
 67 78  1  0  0  0  0
 69 70  1  0  0  0  0
M  CHG  1  78   1
M  ISO  4  38 100  64 101  73 100  85 101
M  END
> <Batch ID>
0160

> <Smiles>
CNC(C)C(=O)NC(C(=O)N1Cc2cc([101O:1][101CH2:1]c3c(C)cc(C)c(OCC4CC[100N:0]([100C:0](=O)N5CCCC(n6nc(-c7ccc(Oc8ccc(F)cc8F)cc7)c(C(N)=O)c6N)C5)CC4)c3C)ccc2CC1C(=O)NC1CCCc2ccccc21)C(C)(C)C

> <Shape>
0.240

> <Color>
0.216

> <Negative vol penalty>
0.000

$$$$

  -OEChem-04052322093D

 85 94  0     1  0  0  0  0  0999 V2000
  -28.8125  -31.6607   26.6855 C   0  0  0  0  0  0  0  0  0  0  0  0
  -28.4984  -30.3073   26.7552 C   0  0  0  0  0  0  0  0  0  0  0  0
  -23.9632   -9.4306   19.5751 C   0  0  0  0  0  0  0  0  0  0  0  0
  -24.3906   -9.4787   21.9525 C   0  0  0  0  0  0  0  0  0  0  0  0
  -28.6564  -32.3504   25.4838 C   0  0  0  0  0  0  0  0  0  0  0  0
  -28.0270  -29.6428   25.6235 C   0  0  0  0  0  0  0  0  0  0  0  0
  -30.2405  -25.1377   24.9528 C   0  0  0  0  0  0  0  0  0  0  0  0
  -23.4983   -8.1201   19.6852 C   0  0  0  0  0  0  0  0  0  0  0  0
  -23.9257   -8.1682   22.0626 C   0  0  0  0  0  0  0  0  0  0  0  0
  -29.7936  -24.0839   25.7487 C   0  0  0  0  0  0  0  0  0  0  0  0
  -20.9411   -6.5873   22.1783 C   0  0  0  0  0  0  0  0  0  0  0  0
  -20.0702   -6.2964   23.2282 C   0  0  0  0  0  0  0  0  0  0  0  0
  -28.4453  -23.2801   23.9170 C   0  0  0  0  0  0  0  0  0  0  0  0
  -21.6407   -4.6701   24.0803 C   0  0  0  0  0  0  0  0  0  0  0  0
  -32.1625  -16.5228   23.8482 C   0  0  0  0  0  0  0  0  0  0  0  0
  -24.4094  -10.1099   20.7088 C   0  0  0  0  0  0  0  0  0  0  0  0
  -24.1349  -12.6461   20.7077 C   0  0  0  0  0  0  0  0  0  0  0  0
  -28.1921  -31.6918   24.3343 C   0  0  0  0  0  0  0  0  0  0  0  0
  -29.7840  -25.2771   23.6342 C   0  0  0  0  0  0  0  0  0  0  0  0
  -27.8633  -30.3246   24.4057 C   0  0  0  0  0  0  0  0  0  0  0  0
  -28.8899  -24.3351   23.1055 C   0  0  0  0  0  0  0  0  0  0  0  0
  -30.0095  -17.2150   25.3442 C   0  0  0  0  0  0  0  0  0  0  0  0
  -31.2466  -15.5333   24.2041 C   0  0  0  0  0  0  0  0  0  0  0  0
  -23.4795   -7.4889   20.9289 C   0  0  0  0  0  0  0  0  0  0  0  0
  -28.8936  -23.1566   25.2318 C   0  0  0  0  0  0  0  0  0  0  0  0
  -22.1618   -5.9197   22.0793 C   0  0  0  0  0  0  0  0  0  0  0  0
  -20.4200   -5.3378   24.1793 C   0  0  0  0  0  0  0  0  0  0  0  0
  -22.5116   -4.9611   23.0303 C   0  0  0  0  0  0  0  0  0  0  0  0
  -30.1434  -15.8908   24.9760 C   0  0  0  0  0  0  0  0  0  0  0  0
  -24.8903  -11.4634   20.5956 C   0  0  0  0  0  0  0  0  0  0  0  0
  -30.9802  -18.1250   24.9411 C   0  0  0  0  0  0  0  0  0  0  0  0
  -25.0481  -13.6555   20.5239 C   0  0  0  0  0  0  0  0  0  0  0  0
  -22.7332  -12.8170   20.9558 C   0  0  0  0  0  0  0  0  0  0  0  0
  -28.1410  -27.4904   22.0513 C   0  0  0  0  0  0  0  0  0  0  0  0
  -28.8110  -25.6045   19.4985 C   0  0  0  0  0  0  0  0  0  0  0  0
  -29.6136  -22.5048   18.3176 C   0  0  0  0  0  0  0  0  0  0  0  0
  -30.9713  -13.9921   21.3323 C   0  0  0  0  0  0  0  0  0  0  0  0
  -27.9947  -32.4902   23.0701 C   0  0  0  0  0  0  0  0  0  0  0  0
  -30.2962  -26.4041   22.7800 C   0  0  0  0  0  0  0  0  0  0  0  0
  -28.3852  -24.4284   21.6896 C   0  0  0  0  0  0  0  0  0  0  0  0
  -30.6718  -19.4935   25.4634 C   0  0  0  0  0  0  0  0  0  0  0  0
  -27.8454  -31.6257   21.8208 C   0  0  0  0  0  0  0  0  0  0  0  0
  -29.1841  -14.6066   18.3148 C   0  0  0  0  0  0  0  0  0  0  0  0
  -26.8671  -30.4835   22.0759 C   0  0  0  0  0  0  0  0  0  0  0  0
  -27.8128  -13.9775   18.5673 C   0  0  0  0  0  0  0  0  0  0  0  0
  -30.3056  -13.7912   18.9547 C   0  0  0  0  0  0  0  0  0  0  0  0
  -28.7570  -12.8869   20.6453 C   0  0  0  0  0  0  0  0  0  0  0  0
  -27.3728  -29.5632   23.1934 C   0  0  1  0  0  0  0  0  0  0  0  0
  -28.9605  -17.8826   26.1751 C   0  0  2  0  0  0  0  0  0  0  0  0
  -29.3688  -26.7413   21.6166 C   0  0  1  0  0  0  0  0  0  0  0  0
  -27.5889  -13.7037   20.0667 C   0  0  2  0  0  0  0  0  0  0  0  0
  -27.5157  -17.6742   25.7293 C   0  0  0  0  0  0  0  0  0  0  0  0
  -30.0591  -21.2650   16.1818 C   0  0  0  0  0  0  0  0  0  0  0  0
  -25.8196  -25.5680   18.8986 C   0  0  0  0  0  0  0  0  0  0  0  0
  -26.2162  -23.6076   17.3928 C   0  0  0  0  0  0  0  0  0  0  0  0
  -27.2845  -25.8040   16.8855 C   0  0  0  0  0  0  0  0  0  0  0  0
  -32.3685  -21.8194   19.1542 C   0  0  0  0  0  0  0  0  0  0  0  0
  -31.4924  -14.1317   23.7547 C   0  0  0  0  0  0  0  0  0  0  0  0
  -29.0531  -20.1834   27.2899 C   0  0  0  0  0  0  0  0  0  0  0  0
  -29.3477  -21.6438   27.0099 C   0  0  0  0  0  0  0  0  0  1  0  0
  -28.1366  -24.4310   18.8299 C   0  0  1  0  0  0  0  0  0  0  0  0
  -30.6739  -22.0454   17.3332 C   0  0  2  0  0  0  0  0  0  0  0  0
  -26.8720  -24.8517   18.0290 C   0  0  0  0  0  0  0  0  0  0  0  0
  -32.0614  -17.8262   24.2022 N   0  0  0  0  0  0  0  0  0  0  0  0
  -26.1836  -11.6982   20.3588 N   0  0  0  0  0  0  0  0  0  0  0  0
  -26.2481  -13.0400   20.3205 N   0  0  0  0  0  0  0  0  0  0  0  0
  -28.9104  -25.5517   20.8961 N   0  0  0  0  0  0  0  0  0  0  0  0
  -30.0331  -13.5683   20.3767 N   0  0  0  0  0  0  0  0  0  0  0  0
  -24.9336  -15.0005   20.5180 N   0  0  0  0  0  0  0  0  0  0  0  0
  -21.9396  -11.6736   21.1209 N   0  0  0  0  0  0  0  0  0  0  0  0
  -28.4083  -28.6840   22.6942 N   0  0  0  0  0  0  0  0  0  0  0  0
  -29.1619  -23.7746   18.0261 N   0  0  0  0  0  0  0  0  0  0  0  0
  -30.6323  -13.7481   22.6575 N   0  0  0  0  0  0  0  0  0  0  0  0
  -29.2556  -19.3957   26.0478 N   0  3  1  0  0  0  0  0  0  0  0  0
  -31.6696  -21.1709   18.0149 N   0  3  0  0  0  0  0  0  0  0  0  0
  -22.1972  -13.9497   21.0126 O   0  0  0  0  0  0  0  0  0  0  0  0
  -27.0330  -27.0210   21.8193 O   0  0  0  0  0  0  0  0  0  0  0  0
  -29.2404  -26.5304   18.8057 O   0  0  0  0  0  0  0  0  0  0  0  0
  -29.2223  -21.8057   19.2496 O   0  0  0  0  0  0  0  0  0  0  0  0
  -32.0299  -14.5518   21.0273 O   0  0  0  0  0  0  0  0  0  0  0  0
  -23.0257   -6.2103   21.0368 O   0  0  0  0  0  0  0  0  0  0  0  0
  -28.4553  -22.1274   26.0068 O   0  0  0  0  0  0  0  0  0  1  0  0
  -19.5842   -5.0596   25.1883 F   0  0  0  0  0  0  0  0  0  0  0  0
  -23.6835   -4.3173   22.9411 F   0  0  0  0  0  0  0  0  0  0  0  0
  -29.0401  -14.6786   25.5084 Cl  0  0  0  0  0  0  0  0  0  0  0  0
  1  2  1  0  0  0  0
  1  5  2  0  0  0  0
  2  6  2  0  0  0  0
  3  8  2  0  0  0  0
  3 16  1  0  0  0  0
  4  9  1  0  0  0  0
  4 16  2  0  0  0  0
  5 18  1  0  0  0  0
  6 20  1  0  0  0  0
  7 10  2  0  0  0  0
  7 19  1  0  0  0  0
  8 24  1  0  0  0  0
  9 24  2  0  0  0  0
 10 25  1  0  0  0  0
 11 12  2  0  0  0  0
 11 26  1  0  0  0  0
 12 27  1  0  0  0  0
 13 21  1  0  0  0  0
 13 25  2  0  0  0  0
 14 27  2  0  0  0  0
 14 28  1  0  0  0  0
 15 23  1  0  0  0  0
 15 64  2  0  0  0  0
 16 30  1  0  0  0  0
 17 30  1  0  0  0  0
 17 32  2  0  0  0  0
 17 33  1  0  0  0  0
 18 20  2  0  0  0  0
 18 38  1  0  0  0  0
 19 21  2  0  0  0  0
 19 39  1  0  0  0  0
 20 48  1  0  0  0  0
 21 40  1  0  0  0  0
 22 29  1  0  0  0  0
 22 31  2  0  0  0  0
 22 49  1  0  0  0  0
 23 29  2  0  0  0  0
 23 58  1  0  0  0  0
 24 81  1  0  0  0  0
 25 82  1  0  0  0  0
 26 28  2  0  0  0  0
 26 81  1  0  0  0  0
 27 83  1  0  0  0  0
 28 84  1  0  0  0  0
 29 85  1  0  0  0  0
 30 65  2  0  0  0  0
 31 41  1  0  0  0  0
 31 64  1  0  0  0  0
 32 66  1  0  0  0  0
 32 69  1  0  0  0  0
 33 70  1  0  0  0  0
 33 76  2  0  0  0  0
 34 50  1  0  0  0  0
 34 71  1  0  0  0  0
 34 77  2  0  0  0  0
 35 61  1  0  0  0  0
 35 67  1  0  0  0  0
 35 78  2  0  0  0  0
 36 62  1  0  0  0  0
 36 72  1  0  0  0  0
 36 79  2  0  0  0  0
 37 68  1  0  0  0  0
 37 73  1  0  0  0  0
 37 80  2  0  0  0  0
 38 42  1  0  0  0  0
 39 50  1  0  0  0  0
 40 67  1  0  0  0  0
 41 74  1  0  0  0  0
 42 44  1  0  0  0  0
 43 45  1  0  0  0  0
 43 46  1  0  0  0  0
 44 48  1  0  0  0  0
 45 51  1  0  0  0  0
 46 68  1  0  0  0  0
 47 51  1  0  0  0  0
 47 68  1  0  0  0  0
 48 71  1  0  0  0  0
 49 52  1  0  0  0  0
 49 74  1  0  0  0  0
 50 67  1  0  0  0  0
 51 66  1  0  0  0  0
 53 62  1  0  0  0  0
 54 63  1  0  0  0  0
 55 63  1  0  0  0  0
 56 63  1  0  0  0  0
 57 75  1  0  0  0  0
 58 73  1  0  0  0  0
 59 60  1  0  0  0  0
 59 74  1  0  0  0  0
 60 82  1  0  0  0  0
 61 63  1  0  0  0  0
 61 72  1  0  0  0  0
 62 75  1  0  0  0  0
 65 66  1  0  0  0  0
M  CHG  2  74   1  75   1
M  ISO  4  37 100  60 101  73 100  82 101
M  END
> <Batch ID>
0160

> <Smiles>
CNC(C)C(=O)NC(C(=O)N1Cc2cc([101O:1][101CH2:1]CN3Cc4ncc(C[100NH:0][100C:0](=O)N5CCCC(n6nc(-c7ccc(Oc8ccc(F)cc8F)cc7)c(C(N)=O)c6N)C5)c(Cl)c4C3C)ccc2CC1C(=O)NC1CCCc2ccccc21)C(C)(C)C

> <Shape>
0.235

> <Color>
0.121

> <Negative vol penalty>
0.000

$$$$

  -OEChem-04052322093D

 85 94  0     1  0  0  0  0  0999 V2000
  -22.4225  -10.0533   20.5689 C   0  0  0  0  0  0  0  0  0  0  0  0
  -23.5232  -10.6415   19.9542 C   0  0  0  0  0  0  0  0  0  0  0  0
  -20.6999  -27.7691   23.0452 C   0  0  0  0  0  0  0  0  0  0  0  0
  -19.5051  -26.3461   21.5011 C   0  0  0  0  0  0  0  0  0  0  0  0
  -21.5659  -10.8273   21.3507 C   0  0  0  0  0  0  0  0  0  0  0  0
  -23.7673  -12.0043   20.1199 C   0  0  0  0  0  0  0  0  0  0  0  0
  -29.1628  -16.6943   20.5768 C   0  0  0  0  0  0  0  0  0  0  0  0
  -19.4920  -28.3218   23.4706 C   0  0  0  0  0  0  0  0  0  0  0  0
  -18.2971  -26.8987   21.9265 C   0  0  0  0  0  0  0  0  0  0  0  0
  -29.6005  -17.8910   20.0112 C   0  0  0  0  0  0  0  0  0  0  0  0
  -17.2793  -30.6240   22.3623 C   0  0  0  0  0  0  0  0  0  0  0  0
  -17.2148  -32.0105   22.5003 C   0  0  0  0  0  0  0  0  0  0  0  0
  -28.0975  -19.1132   21.4487 C   0  0  0  0  0  0  0  0  0  0  0  0
  -16.6846  -31.7526   24.8433 C   0  0  0  0  0  0  0  0  0  0  0  0
  -20.7065  -26.7813   22.0604 C   0  0  0  0  0  0  0  0  0  0  0  0
  -22.6080  -25.0832   22.1526 C   0  0  0  0  0  0  0  0  0  0  0  0
  -21.8051  -12.1984   21.5340 C   0  0  0  0  0  0  0  0  0  0  0  0
  -28.1797  -16.6972   21.5768 C   0  0  0  0  0  0  0  0  0  0  0  0
  -22.9124  -12.7976   20.9038 C   0  0  0  0  0  0  0  0  0  0  0  0
  -27.6509  -17.9152   22.0273 C   0  0  0  0  0  0  0  0  0  0  0  0
  -31.2052  -24.1921   19.1911 C   0  0  0  0  0  0  0  0  0  0  0  0
  -30.7386  -23.0982   19.9115 C   0  0  0  0  0  0  0  0  0  0  0  0
  -30.3881  -24.7893   18.2376 C   0  0  0  0  0  0  0  0  0  0  0  0
  -18.2905  -27.8866   22.9113 C   0  0  0  0  0  0  0  0  0  0  0  0
  -29.0657  -19.1005   20.4450 C   0  0  0  0  0  0  0  0  0  0  0  0
  -17.0464  -29.8018   23.4648 C   0  0  0  0  0  0  0  0  0  0  0  0
  -16.9174  -32.5748   23.7408 C   0  0  0  0  0  0  0  0  0  0  0  0
  -16.7491  -30.3661   24.7053 C   0  0  0  0  0  0  0  0  0  0  0  0
  -21.9540  -26.2104   21.6201 C   0  0  0  0  0  0  0  0  0  0  0  0
  -29.4577  -22.6433   19.6430 C   0  0  0  0  0  0  0  0  0  0  0  0
  -29.1229  -24.2586   18.0439 C   0  0  0  0  0  0  0  0  0  0  0  0
  -23.7439  -24.9538   21.3914 C   0  0  0  0  0  0  0  0  0  0  0  0
  -22.2229  -24.2293   23.2381 C   0  0  0  0  0  0  0  0  0  0  0  0
  -25.2441  -15.5069   21.8397 C   0  0  0  0  0  0  0  0  0  0  0  0
  -25.5085  -16.5665   24.8942 C   0  0  0  0  0  0  0  0  0  0  0  0
  -26.9851  -18.7128   27.0986 C   0  0  0  0  0  0  0  0  0  0  0  0
  -28.1797  -27.2352   19.1201 C   0  0  0  0  0  0  0  0  0  0  0  0
  -20.8247  -13.0036   22.3494 C   0  0  0  0  0  0  0  0  0  0  0  0
  -27.7377  -15.3995   22.1956 C   0  0  0  0  0  0  0  0  0  0  0  0
  -26.6079  -17.9741   23.1122 C   0  0  0  0  0  0  0  0  0  0  0  0
  -21.3642  -14.3651   22.7803 C   0  0  0  0  0  0  0  0  0  0  0  0
  -25.1224  -27.1959   17.0973 C   0  0  0  0  0  0  0  0  0  0  0  0
  -22.0289  -15.0726   21.6036 C   0  0  0  0  0  0  0  0  0  0  0  0
  -24.0711  -26.9008   18.1618 C   0  0  0  0  0  0  0  0  0  0  0  0
  -30.6549  -28.5743   17.2872 C   0  0  0  0  0  0  0  0  0  0  0  0
  -26.2713  -28.0496   17.6355 C   0  0  0  0  0  0  0  0  0  0  0  0
  -29.1417  -28.5195   17.0555 C   0  0  0  0  0  0  0  0  0  0  0  0
  -25.8455  -27.1950   19.9250 C   0  0  0  0  0  0  0  0  0  0  0  0
  -23.2246  -14.2679   21.0800 C   0  0  1  0  0  0  0  0  0  0  0  0
  -26.3602  -15.4861   22.8455 C   0  0  1  0  0  0  0  0  0  0  0  0
  -24.7249  -26.2828   19.4066 C   0  0  1  0  0  0  0  0  0  0  0  0
  -30.5311  -27.2898   18.1208 C   0  0  2  0  0  0  0  0  0  0  0  0
  -32.5811  -24.7231   19.4387 C   0  0  0  0  0  0  0  0  0  0  0  0
  -31.5915  -22.4369   20.9417 C   0  0  0  0  0  0  0  0  0  0  0  0
  -28.2002  -24.8556   17.0321 C   0  0  0  0  0  0  0  0  0  0  0  0
  -26.9685  -19.3686   29.5208 C   0  0  0  0  0  0  0  0  0  0  0  0
  -22.8893  -18.0721   24.4661 C   0  0  0  0  0  0  0  0  0  0  0  0
  -23.4128  -19.4226   26.5083 C   0  0  0  0  0  0  0  0  0  0  0  0
  -23.0984  -16.9549   26.6938 C   0  0  0  0  0  0  0  0  0  0  0  0
  -29.8284  -17.9657   27.4401 C   0  0  0  0  0  0  0  0  0  0  0  0
  -30.8646  -25.9770   17.4398 C   0  0  0  0  0  0  0  0  0  0  0  0
  -28.9014  -21.4723   20.3848 C   0  0  0  0  0  0  0  0  0  1  0  0
  -25.1950  -17.8591   25.6082 C   0  0  1  0  0  0  0  0  0  0  0  0
  -27.6094  -18.4834   28.4632 C   0  0  2  0  0  0  0  0  0  0  0  0
  -23.6671  -18.0763   25.7973 C   0  0  0  0  0  0  0  0  0  0  0  0
  -22.6193  -26.7582   20.5996 N   0  0  0  0  0  0  0  0  0  0  0  0
  -28.6349  -23.1973   18.7245 N   0  0  0  0  0  0  0  0  0  0  0  0
  -23.7031  -25.9720   20.4849 N   0  0  0  0  0  0  0  0  0  0  0  0
  -26.2036  -16.6780   23.6817 N   0  0  0  0  0  0  0  0  0  0  0  0
  -26.8274  -27.4999   18.8777 N   0  0  0  0  0  0  0  0  0  0  0  0
  -29.0880  -27.5398   18.1307 N   0  0  0  0  0  0  0  0  0  0  0  0
  -24.7638  -24.0697   21.4160 N   0  0  0  0  0  0  0  0  0  0  0  0
  -21.0254  -24.5045   23.9123 N   0  0  0  0  0  0  0  0  0  0  0  0
  -24.3699  -14.4421   21.9473 N   0  0  0  0  0  0  0  0  0  0  0  0
  -25.9533  -17.8313   26.8543 N   0  0  0  0  0  0  0  0  0  0  0  0
  -29.0689  -18.7819   28.4219 N   0  3  0  0  0  0  0  0  0  0  0  0
  -22.9284  -23.2611   23.6101 O   0  0  0  0  0  0  0  0  0  0  0  0
  -25.1800  -16.4219   21.0272 O   0  0  0  0  0  0  0  0  0  0  0  0
  -25.1559  -15.4968   25.3973 O   0  0  0  0  0  0  0  0  0  0  0  0
  -27.3715  -19.5889   26.3281 O   0  0  0  0  0  0  0  0  0  0  0  0
  -28.5717  -26.7696   20.1982 O   0  0  0  0  0  0  0  0  0  0  0  0
  -17.1116  -28.4255   23.3263 O   0  0  0  0  0  0  0  0  0  0  0  0
  -29.4936  -20.2784   19.8902 O   0  0  0  0  0  0  0  0  0  1  0  0
  -16.8570  -33.9063   23.8735 F   0  0  0  0  0  0  0  0  0  0  0  0
  -16.5256  -29.5814   25.7683 F   0  0  0  0  0  0  0  0  0  0  0  0
  1  2  1  0  0  0  0
  1  5  2  0  0  0  0
  2  6  2  0  0  0  0
  3  8  2  0  0  0  0
  3 15  1  0  0  0  0
  4  9  1  0  0  0  0
  4 15  2  0  0  0  0
  5 17  1  0  0  0  0
  6 19  1  0  0  0  0
  7 10  2  0  0  0  0
  7 18  1  0  0  0  0
  8 24  1  0  0  0  0
  9 24  2  0  0  0  0
 10 25  1  0  0  0  0
 11 12  2  0  0  0  0
 11 26  1  0  0  0  0
 12 27  1  0  0  0  0
 13 20  1  0  0  0  0
 13 25  2  0  0  0  0
 14 27  2  0  0  0  0
 14 28  1  0  0  0  0
 15 29  1  0  0  0  0
 16 29  1  0  0  0  0
 16 32  2  0  0  0  0
 16 33  1  0  0  0  0
 17 19  2  0  0  0  0
 17 38  1  0  0  0  0
 18 20  2  0  0  0  0
 18 39  1  0  0  0  0
 19 49  1  0  0  0  0
 20 40  1  0  0  0  0
 21 22  1  0  0  0  0
 21 23  2  0  0  0  0
 21 53  1  0  0  0  0
 22 30  2  0  0  0  0
 22 54  1  0  0  0  0
 23 31  1  0  0  0  0
 23 61  1  0  0  0  0
 24 82  1  0  0  0  0
 25 83  1  0  0  0  0
 26 28  2  0  0  0  0
 26 82  1  0  0  0  0
 27 84  1  0  0  0  0
 28 85  1  0  0  0  0
 29 66  2  0  0  0  0
 30 62  1  0  0  0  0
 30 67  1  0  0  0  0
 31 55  1  0  0  0  0
 31 67  2  0  0  0  0
 32 68  1  0  0  0  0
 32 72  1  0  0  0  0
 33 73  1  0  0  0  0
 33 77  2  0  0  0  0
 34 50  1  0  0  0  0
 34 74  1  0  0  0  0
 34 78  2  0  0  0  0
 35 63  1  0  0  0  0
 35 69  1  0  0  0  0
 35 79  2  0  0  0  0
 36 64  1  0  0  0  0
 36 75  1  0  0  0  0
 36 80  2  0  0  0  0
 37 70  1  0  0  0  0
 37 71  1  0  0  0  0
 37 81  2  0  0  0  0
 38 41  1  0  0  0  0
 39 50  1  0  0  0  0
 40 69  1  0  0  0  0
 41 43  1  0  0  0  0
 42 44  1  0  0  0  0
 42 46  1  0  0  0  0
 43 49  1  0  0  0  0
 44 51  1  0  0  0  0
 45 47  1  0  0  0  0
 45 52  1  0  0  0  0
 46 70  1  0  0  0  0
 47 71  1  0  0  0  0
 48 51  1  0  0  0  0
 48 70  1  0  0  0  0
 49 74  1  0  0  0  0
 50 69  1  0  0  0  0
 51 68  1  0  0  0  0
 52 61  1  0  0  0  0
 52 71  1  0  0  0  0
 56 64  1  0  0  0  0
 57 65  1  0  0  0  0
 58 65  1  0  0  0  0
 59 65  1  0  0  0  0
 60 76  1  0  0  0  0
 62 83  1  0  0  0  0
 63 65  1  0  0  0  0
 63 75  1  0  0  0  0
 64 76  1  0  0  0  0
 66 68  1  0  0  0  0
M  CHG  1  76   1
M  ISO  4  37 100  62 101  71 100  83 101
M  END
> <Batch ID>
0160

> <Smiles>
CNC(C)C(=O)NC(C(=O)N1Cc2cc([101O:1][101CH2:1]c3nc(C)c(CC4CC[100N:0]4[100C:0](=O)N4CCCC(n5nc(-c6ccc(Oc7ccc(F)cc7F)cc6)c(C(N)=O)c5N)C4)c(C)c3C)ccc2CC1C(=O)NC1CCCc2ccccc21)C(C)(C)C

> <Shape>
0.226

> <Color>
0.075

> <Negative vol penalty>
0.000

$$$$

  -OEChem-04052322093D

 87 96  0     1  0  0  0  0  0999 V2000
  -18.6797  -32.8932   26.3409 C   0  0  0  0  0  0  0  0  0  0  0  0
  -20.0502  -32.7187   26.5039 C   0  0  0  0  0  0  0  0  0  0  0  0
  -23.7258   -9.4759   20.1904 C   0  0  0  0  0  0  0  0  0  0  0  0
  -23.8402   -9.4546   22.6036 C   0  0  0  0  0  0  0  0  0  0  0  0
  -17.9828  -32.1100   25.4217 C   0  0  0  0  0  0  0  0  0  0  0  0
  -20.7245  -31.7600   25.7486 C   0  0  0  0  0  0  0  0  0  0  0  0
  -27.0753  -30.5324   22.6701 C   0  0  0  0  0  0  0  0  0  0  0  0
  -22.7573   -8.4728   20.2275 C   0  0  0  0  0  0  0  0  0  0  0  0
  -22.8716   -8.4516   22.6407 C   0  0  0  0  0  0  0  0  0  0  0  0
  -28.0772  -29.5643   22.6166 C   0  0  0  0  0  0  0  0  0  0  0  0
  -22.7300   -5.1065   22.1703 C   0  0  0  0  0  0  0  0  0  0  0  0
  -22.9493   -4.0251   23.0236 C   0  0  0  0  0  0  0  0  0  0  0  0
  -26.7838  -28.3236   21.0021 C   0  0  0  0  0  0  0  0  0  0  0  0
  -29.8057  -18.4919   17.4799 C   0  0  0  0  0  0  0  0  0  0  0  0
  -20.9117   -4.5490   24.2114 C   0  0  0  0  0  0  0  0  0  0  0  0
  -24.2673   -9.9668   21.3785 C   0  0  0  0  0  0  0  0  0  0  0  0
  -26.5300  -10.9431   20.7194 C   0  0  0  0  0  0  0  0  0  0  0  0
  -18.6506  -31.1479   24.6478 C   0  0  0  0  0  0  0  0  0  0  0  0
  -25.9133  -30.3976   21.8968 C   0  0  0  0  0  0  0  0  0  0  0  0
  -20.0357  -30.9622   24.8191 C   0  0  0  0  0  0  0  0  0  0  0  0
  -25.7698  -29.2926   21.0456 C   0  0  0  0  0  0  0  0  0  0  0  0
  -28.9430  -17.6749   18.2020 C   0  0  0  0  0  0  0  0  0  0  0  0
  -30.0360  -19.7962   17.9028 C   0  0  0  0  0  0  0  0  0  0  0  0
  -22.3302   -7.9607   21.4526 C   0  0  0  0  0  0  0  0  0  0  0  0
  -27.9302  -28.4582   21.7848 C   0  0  0  0  0  0  0  0  0  0  0  0
  -21.6016   -5.9093   22.3376 C   0  0  0  0  0  0  0  0  0  0  0  0
  -22.0402   -3.7463   24.0441 C   0  0  0  0  0  0  0  0  0  0  0  0
  -20.6925   -5.6305   23.3581 C   0  0  0  0  0  0  0  0  0  0  0  0
  -25.2683  -11.0025   21.3408 C   0  0  0  0  0  0  0  0  0  0  0  0
  -28.3402  -18.2056   19.3311 C   0  0  0  0  0  0  0  0  0  0  0  0
  -29.3841  -20.2321   19.0451 C   0  0  0  0  0  0  0  0  0  0  0  0
  -27.0937  -12.1705   20.9688 C   0  0  0  0  0  0  0  0  0  0  0  0
  -27.1381   -9.8741   19.9824 C   0  0  0  0  0  0  0  0  0  0  0  0
  -22.8136  -30.1066   22.5379 C   0  0  0  0  0  0  0  0  0  0  0  0
  -22.5235  -30.3397   19.3155 C   0  0  0  0  0  0  0  0  0  0  0  0
  -23.9591  -29.9623   16.2424 C   0  0  0  0  0  0  0  0  0  0  0  0
  -26.7578  -17.7223   21.2308 C   0  0  0  0  0  0  0  0  0  0  0  0
  -17.8467  -30.2923   23.7010 C   0  0  0  0  0  0  0  0  0  0  0  0
  -24.8538  -31.4641   21.9457 C   0  0  0  0  0  0  0  0  0  0  0  0
  -24.5506  -29.1114   20.1801 C   0  0  0  0  0  0  0  0  0  0  0  0
  -18.7000  -29.5571   22.6706 C   0  0  0  0  0  0  0  0  0  0  0  0
  -25.6384  -15.8940   24.0736 C   0  0  0  0  0  0  0  0  0  0  0  0
  -19.9016  -28.9008   23.3431 C   0  0  0  0  0  0  0  0  0  0  0  0
  -28.8636  -24.2743   19.8242 C   0  0  0  0  0  0  0  0  0  0  0  0
  -28.5829  -23.7999   22.2924 C   0  0  0  0  0  0  0  0  0  0  0  0
  -25.5461  -14.4535   23.5649 C   0  0  0  0  0  0  0  0  0  0  0  0
  -29.1652  -25.7355   20.1431 C   0  0  0  0  0  0  0  0  0  0  0  0
  -28.8846  -25.2626   22.6045 C   0  0  0  0  0  0  0  0  0  0  0  0
  -25.2218  -16.9012   23.0032 C   0  0  0  0  0  0  0  0  0  0  0  0
  -25.8265  -15.3248   21.2092 C   0  0  0  0  0  0  0  0  0  0  0  0
  -20.8068  -29.9497   24.0004 C   0  0  1  0  0  0  0  0  0  0  0  0
  -23.4824  -30.9648   21.5016 C   0  0  1  0  0  0  0  0  0  0  0  0
  -29.2528  -23.3503   20.9865 C   0  0  0  0  0  0  0  0  0  0  0  0
  -26.2983  -14.2776   22.2312 C   0  0  2  0  0  0  0  0  0  0  0  0
  -28.5002  -26.1779   21.4439 C   0  0  0  0  0  0  0  0  0  1  0  0
  -28.6984  -16.2768   17.7453 C   0  0  0  0  0  0  0  0  0  0  0  0
  -30.9576  -20.6809   17.1374 C   0  0  0  0  0  0  0  0  0  0  0  0
  -23.4616  -30.1948   13.7938 C   0  0  0  0  0  0  0  0  0  0  0  0
  -20.9181  -27.7463   19.3979 C   0  0  0  0  0  0  0  0  0  0  0  0
  -21.2685  -27.5325   16.9281 C   0  0  0  0  0  0  0  0  0  0  0  0
  -20.0135  -29.4842   17.8437 C   0  0  0  0  0  0  0  0  0  0  0  0
  -26.0710  -32.0053   15.8888 C   0  0  0  0  0  0  0  0  0  0  0  0
  -28.8925  -21.9006   20.6669 C   0  0  0  0  0  0  0  0  0  0  0  0
  -22.5175  -29.3578   18.1688 C   0  0  1  0  0  0  0  0  0  0  0  0
  -24.0105  -30.8810   15.0350 C   0  0  2  0  0  0  0  0  0  0  0  0
  -21.2016  -28.5323   18.1022 C   0  0  0  0  0  0  0  0  0  0  0  0
  -25.0434  -12.1748   21.9402 N   0  0  0  0  0  0  0  0  0  0  0  0
  -28.5393  -19.4677   19.7728 N   0  0  0  0  0  0  0  0  0  0  0  0
  -26.1714  -12.8634   21.6965 N   0  0  0  0  0  0  0  0  0  0  0  0
  -23.5396  -30.1781   20.2679 N   0  0  0  0  0  0  0  0  0  0  0  0
  -25.9788  -16.6766   21.7698 N   0  0  0  0  0  0  0  0  0  0  0  0
  -28.2835  -12.7139   20.6346 N   0  0  0  0  0  0  0  0  0  0  0  0
  -27.9137   -8.9382   20.6801 N   0  0  0  0  0  0  0  0  0  0  0  0
  -27.4590  -17.3818   20.0745 N   0  0  0  0  0  0  0  0  0  0  0  0
  -21.6159  -30.6158   23.0023 N   0  0  0  0  0  0  0  0  0  0  0  0
  -22.7976  -30.1337   16.9655 N   0  0  0  0  0  0  0  0  0  0  0  0
  -25.4149  -31.2968   14.7599 N   0  3  0  0  0  0  0  0  0  0  0  0
  -27.0113   -9.7618   18.7395 O   0  0  0  0  0  0  0  0  0  0  0  0
  -23.3441  -29.0592   22.8889 O   0  0  0  0  0  0  0  0  0  0  0  0
  -21.6626  -31.2220   19.3605 O   0  0  0  0  0  0  0  0  0  0  0  0
  -24.8576  -29.1692   16.5147 O   0  0  0  0  0  0  0  0  0  0  0  0
  -26.8213  -18.8293   21.7714 O   0  0  0  0  0  0  0  0  0  0  0  0
  -21.3849   -6.9821   21.4892 O   0  0  0  0  0  0  0  0  0  0  0  0
  -28.9063  -27.5115   21.7312 O   0  0  0  0  0  0  0  0  0  1  0  0
  -29.5858  -21.5138   19.4953 O   0  0  0  0  0  0  0  0  0  0  0  0
  -22.2501   -2.7069   24.8624 F   0  0  0  0  0  0  0  0  0  0  0  0
  -19.6060   -6.3974   23.5230 F   0  0  0  0  0  0  0  0  0  0  0  0
  1  2  1  0  0  0  0
  1  5  2  0  0  0  0
  2  6  2  0  0  0  0
  3  8  2  0  0  0  0
  3 16  1  0  0  0  0
  4  9  1  0  0  0  0
  4 16  2  0  0  0  0
  5 18  1  0  0  0  0
  6 20  1  0  0  0  0
  7 10  2  0  0  0  0
  7 19  1  0  0  0  0
  8 24  1  0  0  0  0
  9 24  2  0  0  0  0
 10 25  1  0  0  0  0
 11 12  2  0  0  0  0
 11 26  1  0  0  0  0
 12 27  1  0  0  0  0
 13 21  1  0  0  0  0
 13 25  2  0  0  0  0
 14 22  2  0  0  0  0
 14 23  1  0  0  0  0
 15 27  2  0  0  0  0
 15 28  1  0  0  0  0
 16 29  1  0  0  0  0
 17 29  1  0  0  0  0
 17 32  2  0  0  0  0
 17 33  1  0  0  0  0
 18 20  2  0  0  0  0
 18 38  1  0  0  0  0
 19 21  2  0  0  0  0
 19 39  1  0  0  0  0
 20 51  1  0  0  0  0
 21 40  1  0  0  0  0
 22 30  1  0  0  0  0
 22 56  1  0  0  0  0
 23 31  2  0  0  0  0
 23 57  1  0  0  0  0
 24 83  1  0  0  0  0
 25 84  1  0  0  0  0
 26 28  2  0  0  0  0
 26 83  1  0  0  0  0
 27 86  1  0  0  0  0
 28 87  1  0  0  0  0
 29 67  2  0  0  0  0
 30 68  2  0  0  0  0
 30 74  1  0  0  0  0
 31 68  1  0  0  0  0
 31 85  1  0  0  0  0
 32 69  1  0  0  0  0
 32 72  1  0  0  0  0
 33 73  1  0  0  0  0
 33 78  2  0  0  0  0
 34 52  1  0  0  0  0
 34 75  1  0  0  0  0
 34 79  2  0  0  0  0
 35 64  1  0  0  0  0
 35 70  1  0  0  0  0
 35 80  2  0  0  0  0
 36 65  1  0  0  0  0
 36 76  1  0  0  0  0
 36 81  2  0  0  0  0
 37 71  1  0  0  0  0
 37 74  1  0  0  0  0
 37 82  2  0  0  0  0
 38 41  1  0  0  0  0
 39 52  1  0  0  0  0
 40 70  1  0  0  0  0
 41 43  1  0  0  0  0
 42 46  1  0  0  0  0
 42 49  1  0  0  0  0
 43 51  1  0  0  0  0
 44 47  1  0  0  0  0
 44 53  1  0  0  0  0
 45 48  1  0  0  0  0
 45 53  1  0  0  0  0
 46 54  1  0  0  0  0
 47 55  1  0  0  0  0
 48 55  1  0  0  0  0
 49 71  1  0  0  0  0
 50 54  1  0  0  0  0
 50 71  1  0  0  0  0
 51 75  1  0  0  0  0
 52 70  1  0  0  0  0
 53 63  1  0  0  0  0
 54 69  1  0  0  0  0
 55 84  1  0  0  0  0
 58 65  1  0  0  0  0
 59 66  1  0  0  0  0
 60 66  1  0  0  0  0
 61 66  1  0  0  0  0
 62 77  1  0  0  0  0
 63 85  1  0  0  0  0
 64 66  1  0  0  0  0
 64 76  1  0  0  0  0
 65 77  1  0  0  0  0
 67 69  1  0  0  0  0
M  CHG  1  77   1
M  ISO  4  37 100  55 101  74 100  84 101
M  END
> <Batch ID>
0160

> <Smiles>
CNC(C)C(=O)NC(C(=O)N1Cc2cc([101O:1][101CH:1]3CCC(COc4nc([100NH:0][100C:0](=O)N5CCCC(n6nc(-c7ccc(Oc8ccc(F)cc8F)cc7)c(C(N)=O)c6N)C5)c(C)cc4C)CC3)ccc2CC1C(=O)NC1CCCc2ccccc21)C(C)(C)C

> <Shape>
0.279

> <Color>
0.100

> <Negative vol penalty>
0.000

$$$$

  -OEChem-04052322093D

 85 94  0     1  0  0  0  0  0999 V2000
  -34.1662  -11.3252   23.8200 C   0  0  0  0  0  0  0  0  0  0  0  0
  -33.9278  -12.5213   23.1507 C   0  0  0  0  0  0  0  0  0  0  0  0
  -23.1072   -9.8775   19.9011 C   0  0  0  0  0  0  0  0  0  0  0  0
  -23.8341   -9.8564   22.2051 C   0  0  0  0  0  0  0  0  0  0  0  0
  -34.0209  -11.2620   25.2052 C   0  0  0  0  0  0  0  0  0  0  0  0
  -33.5431  -13.6547   23.8661 C   0  0  0  0  0  0  0  0  0  0  0  0
  -35.0336  -19.4661   22.6369 C   0  0  0  0  0  0  0  0  0  0  0  0
  -22.3779   -8.7089   20.1205 C   0  0  0  0  0  0  0  0  0  0  0  0
  -23.1048   -8.6878   22.4245 C   0  0  0  0  0  0  0  0  0  0  0  0
  -34.3509  -20.4916   21.9842 C   0  0  0  0  0  0  0  0  0  0  0  0
  -20.0342   -5.9304   20.1674 C   0  0  0  0  0  0  0  0  0  0  0  0
  -18.7365   -5.8709   19.6594 C   0  0  0  0  0  0  0  0  0  0  0  0
  -33.5857  -21.3291   24.1132 C   0  0  0  0  0  0  0  0  0  0  0  0
  -30.6497  -19.2640   20.5335 C   0  0  0  0  0  0  0  0  0  0  0  0
  -18.1223   -7.7817   21.0043 C   0  0  0  0  0  0  0  0  0  0  0  0
  -23.8353  -10.4513   20.9434 C   0  0  0  0  0  0  0  0  0  0  0  0
  -24.1394  -12.9831   20.8715 C   0  0  0  0  0  0  0  0  0  0  0  0
  -33.6436  -12.3976   25.9391 C   0  0  0  0  0  0  0  0  0  0  0  0
  -34.9885  -19.3578   24.0343 C   0  0  0  0  0  0  0  0  0  0  0  0
  -33.3914  -13.6062   25.2623 C   0  0  0  0  0  0  0  0  0  0  0  0
  -34.2708  -20.3028   24.7814 C   0  0  0  0  0  0  0  0  0  0  0  0
  -30.4403  -19.9647   21.7212 C   0  0  0  0  0  0  0  0  0  0  0  0
  -30.0839  -19.2787   22.8822 C   0  0  0  0  0  0  0  0  0  0  0  0
  -29.9368  -17.8918   22.8554 C   0  0  0  0  0  0  0  0  0  0  0  0
  -30.1461  -17.1911   21.6677 C   0  0  0  0  0  0  0  0  0  0  0  0
  -22.3767   -8.1141   21.3822 C   0  0  0  0  0  0  0  0  0  0  0  0
  -33.6244  -21.4216   22.7222 C   0  0  0  0  0  0  0  0  0  0  0  0
  -20.3760   -6.9156   21.0939 C   0  0  0  0  0  0  0  0  0  0  0  0
  -30.5025  -17.8771   20.5067 C   0  0  0  0  0  0  0  0  0  0  0  0
  -17.7806   -6.7965   20.0779 C   0  0  0  0  0  0  0  0  0  0  0  0
  -19.4201   -7.8412   21.5123 C   0  0  0  0  0  0  0  0  0  0  0  0
  -24.5893  -11.6581   20.7173 C   0  0  0  0  0  0  0  0  0  0  0  0
  -25.2248  -13.7554   20.5370 C   0  0  0  0  0  0  0  0  0  0  0  0
  -22.8552  -13.4720   21.2807 C   0  0  0  0  0  0  0  0  0  0  0  0
  -33.9296  -17.1688   26.0815 C   0  0  0  0  0  0  0  0  0  0  0  0
  -35.2832  -19.1333   28.2794 C   0  0  0  0  0  0  0  0  0  0  0  0
  -36.3349  -22.2746   29.0999 C   0  0  0  0  0  0  0  0  0  0  0  0
  -30.6710  -14.8816   20.8089 C   0  0  0  0  0  0  0  0  0  0  0  0
  -33.4536  -12.2685   27.4297 C   0  0  0  0  0  0  0  0  0  0  0  0
  -35.7523  -18.2615   24.7250 C   0  0  0  0  0  0  0  0  0  0  0  0
  -34.2074  -20.2426   26.2850 C   0  0  0  0  0  0  0  0  0  0  0  0
  -33.4064  -13.6103   28.1562 C   0  0  0  0  0  0  0  0  0  0  0  0
  -29.6282  -12.4924   18.3838 C   0  0  0  0  0  0  0  0  0  0  0  0
  -29.8626  -22.3161   20.6378 C   0  0  0  0  0  0  0  0  0  0  0  0
  -32.4857  -14.5816   27.4243 C   0  0  0  0  0  0  0  0  0  0  0  0
  -28.1873  -12.1713   18.7874 C   0  0  0  0  0  0  0  0  0  0  0  0
  -31.0692  -23.2705   20.6215 C   0  0  0  0  0  0  0  0  0  0  0  0
  -30.5224  -12.7143   19.6024 C   0  0  0  0  0  0  0  0  0  0  0  0
  -28.5849  -13.3854   20.9680 C   0  0  0  0  0  0  0  0  0  0  0  0
  -30.6084  -21.4907   21.7260 C   0  0  2  0  0  0  0  0  0  0  0  0
  -32.9965  -14.8635   26.0062 C   0  0  1  0  0  0  0  0  0  0  0  0
  -35.2155  -17.9452   26.1176 C   0  0  1  0  0  0  0  0  0  0  0  0
  -27.6318  -13.2177   19.7734 C   0  0  2  0  0  0  0  0  0  0  0  0
  -31.9248  -22.0889   21.1300 C   0  0  2  0  0  0  0  0  0  1  0  0
  -29.8608  -20.0357   24.1526 C   0  0  0  0  0  0  0  0  0  0  0  0
  -29.5535  -17.1595   24.1036 C   0  0  0  0  0  0  0  0  0  0  0  0
  -37.3642  -23.5789   30.9805 C   0  0  0  0  0  0  0  0  0  0  0  0
  -32.6009  -19.1487   29.7336 C   0  0  0  0  0  0  0  0  0  0  0  0
  -33.3835  -21.1551   31.0103 C   0  0  0  0  0  0  0  0  0  0  0  0
  -34.5980  -18.9874   31.2302 C   0  0  0  0  0  0  0  0  0  0  0  0
  -38.7069  -22.9712   27.4728 C   0  0  0  0  0  0  0  0  0  0  0  0
  -29.5835  -17.0340   18.4818 C   0  0  0  0  0  0  0  0  0  0  0  0
  -34.8119  -20.3164   29.0901 C   0  0  1  0  0  0  0  0  0  0  0  0
  -37.6285  -22.7746   29.7171 C   0  0  2  0  0  0  0  0  0  0  0  0
  -33.8480  -19.9022   30.2376 C   0  0  0  0  0  0  0  0  0  0  0  0
  -25.8614  -11.5889   20.3158 N   0  0  0  0  0  0  0  0  0  0  0  0
  -26.2200  -12.8802   20.2149 N   0  0  0  0  0  0  0  0  0  0  0  0
  -34.9656  -19.1484   26.9138 N   0  0  0  0  0  0  0  0  0  0  0  0
  -29.9350  -13.7211   20.4890 N   0  0  0  0  0  0  0  0  0  0  0  0
  -25.4154  -15.0910   20.4898 N   0  0  0  0  0  0  0  0  0  0  0  0
  -21.8529  -12.5417   21.5877 N   0  0  0  0  0  0  0  0  0  0  0  0
  -29.9976  -15.7823   21.6335 N   0  0  0  0  0  0  0  0  0  0  0  0
  -34.1008  -15.7982   26.0432 N   0  0  0  0  0  0  0  0  0  0  0  0
  -36.0149  -21.0079   29.5406 N   0  0  0  0  0  0  0  0  0  0  0  0
  -38.3614  -23.6423   28.7523 N   0  3  0  0  0  0  0  0  0  0  0  0
  -22.5990  -14.6976   21.3557 O   0  0  0  0  0  0  0  0  0  0  0  0
  -32.8612  -17.7689   26.0892 O   0  0  0  0  0  0  0  0  0  0  0  0
  -35.9162  -18.2326   28.8357 O   0  0  0  0  0  0  0  0  0  0  0  0
  -35.6725  -22.9425   28.3090 O   0  0  0  0  0  0  0  0  0  0  0  0
  -31.8038  -15.0757   20.3607 O   0  0  0  0  0  0  0  0  0  0  0  0
  -21.6650   -6.9739   21.5967 O   0  0  0  0  0  0  0  0  0  0  0  0
  -32.9566  -22.4232   22.0876 O   0  0  0  0  0  0  0  0  0  1  0  0
  -30.7119  -17.2131   19.3347 O   0  0  0  0  0  0  0  0  0  0  0  0
  -16.5349   -6.7401   19.5888 F   0  0  0  0  0  0  0  0  0  0  0  0
  -19.7428   -8.7907   22.4013 F   0  0  0  0  0  0  0  0  0  0  0  0
  1  2  1  0  0  0  0
  1  5  2  0  0  0  0
  2  6  2  0  0  0  0
  3  8  2  0  0  0  0
  3 16  1  0  0  0  0
  4  9  1  0  0  0  0
  4 16  2  0  0  0  0
  5 18  1  0  0  0  0
  6 20  1  0  0  0  0
  7 10  2  0  0  0  0
  7 19  1  0  0  0  0
  8 26  1  0  0  0  0
  9 26  2  0  0  0  0
 10 27  1  0  0  0  0
 11 12  2  0  0  0  0
 11 28  1  0  0  0  0
 12 30  1  0  0  0  0
 13 21  1  0  0  0  0
 13 27  2  0  0  0  0
 14 22  1  0  0  0  0
 14 29  2  0  0  0  0
 15 30  2  0  0  0  0
 15 31  1  0  0  0  0
 16 32  1  0  0  0  0
 17 32  1  0  0  0  0
 17 33  2  0  0  0  0
 17 34  1  0  0  0  0
 18 20  2  0  0  0  0
 18 39  1  0  0  0  0
 19 21  2  0  0  0  0
 19 40  1  0  0  0  0
 20 51  1  0  0  0  0
 21 41  1  0  0  0  0
 22 23  2  0  0  0  0
 22 50  1  0  0  0  0
 23 24  1  0  0  0  0
 23 55  1  0  0  0  0
 24 25  2  0  0  0  0
 24 56  1  0  0  0  0
 25 29  1  0  0  0  0
 25 72  1  0  0  0  0
 26 81  1  0  0  0  0
 27 82  1  0  0  0  0
 28 31  2  0  0  0  0
 28 81  1  0  0  0  0
 29 83  1  0  0  0  0
 30 84  1  0  0  0  0
 31 85  1  0  0  0  0
 32 66  2  0  0  0  0
 33 67  1  0  0  0  0
 33 70  1  0  0  0  0
 34 71  1  0  0  0  0
 34 76  2  0  0  0  0
 35 52  1  0  0  0  0
 35 73  1  0  0  0  0
 35 77  2  0  0  0  0
 36 63  1  0  0  0  0
 36 68  1  0  0  0  0
 36 78  2  0  0  0  0
 37 64  1  0  0  0  0
 37 74  1  0  0  0  0
 37 79  2  0  0  0  0
 38 69  1  0  0  0  0
 38 72  1  0  0  0  0
 38 80  2  0  0  0  0
 39 42  1  0  0  0  0
 40 52  1  0  0  0  0
 41 68  1  0  0  0  0
 42 45  1  0  0  0  0
 43 46  1  0  0  0  0
 43 48  1  0  0  0  0
 44 47  1  0  0  0  0
 44 50  1  0  0  0  0
 45 51  1  0  0  0  0
 46 53  1  0  0  0  0
 47 54  1  0  0  0  0
 48 69  1  0  0  0  0
 49 53  1  0  0  0  0
 49 69  1  0  0  0  0
 50 54  1  0  0  0  0
 51 73  1  0  0  0  0
 52 68  1  0  0  0  0
 53 67  1  0  0  0  0
 54 82  1  0  0  0  0
 57 64  1  0  0  0  0
 58 65  1  0  0  0  0
 59 65  1  0  0  0  0
 60 65  1  0  0  0  0
 61 75  1  0  0  0  0
 62 83  1  0  0  0  0
 63 65  1  0  0  0  0
 63 74  1  0  0  0  0
 64 75  1  0  0  0  0
 66 67  1  0  0  0  0
M  CHG  1  75   1
M  ISO  4  38 100  54 101  72 100  82 101
M  END
> <Batch ID>
0160

> <Smiles>
CNC(C)C(=O)NC(C(=O)N1Cc2cc([101O:1][101CH:1]3CCC3c3cc(OC)c([100NH:0][100C:0](=O)N4CCCC(n5nc(-c6ccc(Oc7ccc(F)cc7F)cc6)c(C(N)=O)c5N)C4)c(C)c3C)ccc2CC1C(=O)NC1CCCc2ccccc21)C(C)(C)C

> <Shape>
0.175

> <Color>
0.201

> <Negative vol penalty>
0.000

$$$$

  -OEChem-04052322093D

 86 95  0     1  0  0  0  0  0999 V2000
  -28.4561  -33.0947   25.7024 C   0  0  0  0  0  0  0  0  0  0  0  0
  -28.4704  -31.8521   25.0769 C   0  0  0  0  0  0  0  0  0  0  0  0
  -24.4650   -9.0098   20.9488 C   0  0  0  0  0  0  0  0  0  0  0  0
  -22.9253  -10.8647   20.7891 C   0  0  0  0  0  0  0  0  0  0  0  0
  -27.2452  -33.6589   26.1015 C   0  0  0  0  0  0  0  0  0  0  0  0
  -27.2739  -31.1725   24.8512 C   0  0  0  0  0  0  0  0  0  0  0  0
  -27.0065  -29.2041   20.1930 C   0  0  0  0  0  0  0  0  0  0  0  0
  -23.4965   -8.2636   21.6202 C   0  0  0  0  0  0  0  0  0  0  0  0
  -21.9567  -10.1185   21.4604 C   0  0  0  0  0  0  0  0  0  0  0  0
  -27.7122  -28.0247   19.9587 C   0  0  0  0  0  0  0  0  0  0  0  0
  -20.7321   -6.4843   20.8297 C   0  0  0  0  0  0  0  0  0  0  0  0
  -20.5453   -5.1597   20.4346 C   0  0  0  0  0  0  0  0  0  0  0  0
  -25.6723  -26.7616   20.2090 C   0  0  0  0  0  0  0  0  0  0  0  0
  -30.7945  -21.9886   18.5361 C   0  0  0  0  0  0  0  0  0  0  0  0
  -21.1194   -4.4150   22.6602 C   0  0  0  0  0  0  0  0  0  0  0  0
  -24.1794  -10.3104   20.5333 C   0  0  0  0  0  0  0  0  0  0  0  0
  -25.3953  -11.1415   18.4504 C   0  0  0  0  0  0  0  0  0  0  0  0
  -26.0324  -32.9903   25.8719 C   0  0  0  0  0  0  0  0  0  0  0  0
  -25.6281  -29.1700   20.4483 C   0  0  0  0  0  0  0  0  0  0  0  0
  -26.0458  -31.7278   25.2489 C   0  0  0  0  0  0  0  0  0  0  0  0
  -24.9510  -27.9421   20.4438 C   0  0  0  0  0  0  0  0  0  0  0  0
  -29.9391  -23.4846   20.2194 C   0  0  0  0  0  0  0  0  0  0  0  0
  -30.4858  -22.2544   19.8666 C   0  0  0  0  0  0  0  0  0  0  0  0
  -22.2423   -8.8179   21.8760 C   0  0  0  0  0  0  0  0  0  0  0  0
  -27.0456  -26.8029   19.9695 C   0  0  0  0  0  0  0  0  0  0  0  0
  -21.1126   -6.7743   22.1399 C   0  0  0  0  0  0  0  0  0  0  0  0
  -20.7389   -4.1250   21.3499 C   0  0  0  0  0  0  0  0  0  0  0  0
  -21.3062   -5.7397   23.0552 C   0  0  0  0  0  0  0  0  0  0  0  0
  -25.1797  -11.0820   19.8403 C   0  0  0  0  0  0  0  0  0  0  0  0
  -30.5469  -22.9673   17.5841 C   0  0  0  0  0  0  0  0  0  0  0  0
  -29.7133  -24.4256   19.2248 C   0  0  0  0  0  0  0  0  0  0  0  0
  -26.4517  -12.0070   18.3037 C   0  0  0  0  0  0  0  0  0  0  0  0
  -24.7026  -10.4743   17.3871 C   0  0  0  0  0  0  0  0  0  0  0  0
  -23.7791  -30.0006   22.8969 C   0  0  0  0  0  0  0  0  0  0  0  0
  -21.3855  -29.2702   20.8330 C   0  0  0  0  0  0  0  0  0  0  0  0
  -20.3665  -27.5404   18.0733 C   0  0  0  0  0  0  0  0  0  0  0  0
  -28.5970  -16.9850   19.8017 C   0  0  0  0  0  0  0  0  0  0  0  0
  -24.7526  -33.6187   26.3637 C   0  0  0  0  0  0  0  0  0  0  0  0
  -24.8765  -30.4535   20.6728 C   0  0  0  0  0  0  0  0  0  0  0  0
  -23.4682  -27.8533   20.6926 C   0  0  0  0  0  0  0  0  0  0  0  0
  -23.4972  -33.0035   25.7508 C   0  0  0  0  0  0  0  0  0  0  0  0
  -29.6065  -13.9765   21.7297 C   0  0  0  0  0  0  0  0  0  0  0  0
  -23.5769  -31.4806   25.7866 C   0  0  0  0  0  0  0  0  0  0  0  0
  -28.5216  -12.9782   21.3213 C   0  0  0  0  0  0  0  0  0  0  0  0
  -30.9812  -19.0450   21.8123 C   0  0  0  0  0  0  0  0  0  0  0  0
  -29.0757  -15.4033   21.6885 C   0  0  0  0  0  0  0  0  0  0  0  0
  -30.4156  -17.6762   21.4547 C   0  0  0  0  0  0  0  0  0  0  0  0
  -27.4262  -14.8171   19.9517 C   0  0  0  0  0  0  0  0  0  0  0  0
  -24.7666  -30.9709   24.9643 C   0  0  1  0  0  0  0  0  0  0  0  0
  -23.5678  -30.2547   21.4311 C   0  0  1  0  0  0  0  0  0  0  0  0
  -27.9008  -13.3536   19.9628 C   0  0  2  0  0  0  0  0  0  0  0  0
  -30.6862  -19.8671   20.5639 C   0  0  1  0  0  0  0  0  0  0  0  0
  -29.3103  -19.3599   20.1155 C   0  0  2  0  0  0  0  0  0  0  0  0
  -29.5994  -23.7939   21.6405 C   0  0  0  0  0  0  0  0  0  0  0  0
  -30.8480  -22.7613   16.1443 C   0  0  0  0  0  0  0  0  0  0  0  0
  -28.1124  -20.0675   20.7509 C   0  0  0  0  0  0  0  0  0  0  0  0
  -18.3433  -27.1150   16.6509 C   0  0  0  0  0  0  0  0  0  0  0  0
  -20.2684  -27.4137   22.9815 C   0  0  0  0  0  0  0  0  0  0  0  0
  -18.8574  -26.3349   21.2170 C   0  0  0  0  0  0  0  0  0  0  0  0
  -18.5444  -28.7499   21.7581 C   0  0  0  0  0  0  0  0  0  0  0  0
  -21.6754  -28.6679   15.6703 C   0  0  0  0  0  0  0  0  0  0  0  0
  -29.1341  -25.7674   19.4986 C   0  0  0  0  0  0  0  0  0  1  0  0
  -20.6094  -28.0202   20.4951 C   0  0  1  0  0  0  0  0  0  0  0  0
  -19.5844  -27.9720   16.8459 C   0  0  2  0  0  0  0  0  0  0  0  0
  -19.5982  -27.6309   21.6101 C   0  0  0  0  0  0  0  0  0  0  0  0
  -26.0309  -11.8484   20.5275 N   0  0  0  0  0  0  0  0  0  0  0  0
  -26.7916  -12.3976   19.5654 N   0  0  0  0  0  0  0  0  0  0  0  0
  -30.0198  -24.1434   17.9513 N   0  3  0  0  0  0  0  0  0  0  0  0
  -22.7787  -29.1353   20.9131 N   0  0  0  0  0  0  0  0  0  0  0  0
  -28.5014  -15.7128   20.3771 N   0  0  0  0  0  0  0  0  0  0  0  0
  -29.3196  -17.9443   20.5174 N   0  0  0  0  0  0  0  0  0  0  0  0
  -27.1138  -12.4642   17.2197 N   0  0  0  0  0  0  0  0  0  0  0  0
  -23.6407   -9.6200   17.7141 N   0  0  0  0  0  0  0  0  0  0  0  0
  -30.7296  -21.2819   20.8265 N   0  0  0  0  0  0  0  0  0  0  0  0
  -24.4582  -31.0109   23.5509 N   0  0  0  0  0  0  0  0  0  0  0  0
  -19.9991  -28.2585   19.1916 N   0  0  0  0  0  0  0  0  0  0  0  0
  -20.4314  -27.8571   15.6251 N   0  3  0  0  0  0  0  0  0  0  0  0
  -25.0265  -10.6184   16.1839 O   0  0  0  0  0  0  0  0  0  0  0  0
  -23.3561  -28.9653   23.3977 O   0  0  0  0  0  0  0  0  0  0  0  0
  -20.7784  -30.3290   21.0122 O   0  0  0  0  0  0  0  0  0  0  0  0
  -21.2156  -26.6523   18.0438 O   0  0  0  0  0  0  0  0  0  0  0  0
  -28.1067  -17.2309   18.6931 O   0  0  0  0  0  0  0  0  0  0  0  0
  -21.2969   -8.0899   22.5308 O   0  0  0  0  0  0  0  0  0  0  0  0
  -27.7365  -25.6429   19.7403 O   0  0  0  0  0  0  0  0  0  1  0  0
  -20.5580   -2.8531   20.9708 F   0  0  0  0  0  0  0  0  0  0  0  0
  -21.6706   -6.0121   24.3157 F   0  0  0  0  0  0  0  0  0  0  0  0
  1  2  1  0  0  0  0
  1  5  2  0  0  0  0
  2  6  2  0  0  0  0
  3  8  2  0  0  0  0
  3 16  1  0  0  0  0
  4  9  1  0  0  0  0
  4 16  2  0  0  0  0
  5 18  1  0  0  0  0
  6 20  1  0  0  0  0
  7 10  2  0  0  0  0
  7 19  1  0  0  0  0
  8 24  1  0  0  0  0
  9 24  2  0  0  0  0
 10 25  1  0  0  0  0
 11 12  2  0  0  0  0
 11 26  1  0  0  0  0
 12 27  1  0  0  0  0
 13 21  1  0  0  0  0
 13 25  2  0  0  0  0
 14 23  2  0  0  0  0
 14 30  1  0  0  0  0
 15 27  2  0  0  0  0
 15 28  1  0  0  0  0
 16 29  1  0  0  0  0
 17 29  1  0  0  0  0
 17 32  2  0  0  0  0
 17 33  1  0  0  0  0
 18 20  2  0  0  0  0
 18 38  1  0  0  0  0
 19 21  2  0  0  0  0
 19 39  1  0  0  0  0
 20 49  1  0  0  0  0
 21 40  1  0  0  0  0
 22 23  1  0  0  0  0
 22 31  2  0  0  0  0
 22 54  1  0  0  0  0
 23 74  1  0  0  0  0
 24 83  1  0  0  0  0
 25 84  1  0  0  0  0
 26 28  2  0  0  0  0
 26 83  1  0  0  0  0
 27 85  1  0  0  0  0
 28 86  1  0  0  0  0
 29 66  2  0  0  0  0
 30 55  1  0  0  0  0
 30 68  2  0  0  0  0
 31 62  1  0  0  0  0
 31 68  1  0  0  0  0
 32 67  1  0  0  0  0
 32 72  1  0  0  0  0
 33 73  1  0  0  0  0
 33 78  2  0  0  0  0
 34 50  1  0  0  0  0
 34 75  1  0  0  0  0
 34 79  2  0  0  0  0
 35 63  1  0  0  0  0
 35 69  1  0  0  0  0
 35 80  2  0  0  0  0
 36 64  1  0  0  0  0
 36 76  1  0  0  0  0
 36 81  2  0  0  0  0
 37 70  1  0  0  0  0
 37 71  1  0  0  0  0
 37 82  2  0  0  0  0
 38 41  1  0  0  0  0
 39 50  1  0  0  0  0
 40 69  1  0  0  0  0
 41 43  1  0  0  0  0
 42 44  1  0  0  0  0
 42 46  1  0  0  0  0
 43 49  1  0  0  0  0
 44 51  1  0  0  0  0
 45 47  1  0  0  0  0
 45 52  1  0  0  0  0
 46 70  1  0  0  0  0
 47 71  1  0  0  0  0
 48 51  1  0  0  0  0
 48 70  1  0  0  0  0
 49 75  1  0  0  0  0
 50 69  1  0  0  0  0
 51 67  1  0  0  0  0
 52 53  1  0  0  0  0
 52 74  1  0  0  0  0
 53 56  1  0  0  0  0
 53 71  1  0  0  0  0
 57 64  1  0  0  0  0
 58 65  1  0  0  0  0
 59 65  1  0  0  0  0
 60 65  1  0  0  0  0
 61 77  1  0  0  0  0
 62 84  1  0  0  0  0
 63 65  1  0  0  0  0
 63 76  1  0  0  0  0
 64 77  1  0  0  0  0
 66 67  1  0  0  0  0
M  CHG  2  68   1  77   1
M  ISO  4  37 100  62 101  71 100  84 101
M  END
> <Batch ID>
0160

> <Smiles>
CNC(C)C(=O)NC(C(=O)N1Cc2cc([101O:1][101CH2:1]c3nc(C)cc(NC4CC[100N:0]([100C:0](=O)N5CCCC(n6nc(-c7ccc(Oc8ccc(F)cc8F)cc7)c(C(N)=O)c6N)C5)C4C)c3C)ccc2CC1C(=O)NC1CCCc2ccccc21)C(C)(C)C

> <Shape>
0.363

> <Color>
0.082

> <Negative vol penalty>
0.000

$$$$

  -OEChem-04052322093D

 88 98  0     1  0  0  0  0  0999 V2000
  -27.0799  -37.6933   24.1049 C   0  0  0  0  0  0  0  0  0  0  0  0
  -27.7744  -36.6936   23.4312 C   0  0  0  0  0  0  0  0  0  0  0  0
  -23.6585  -10.4802   22.4446 C   0  0  0  0  0  0  0  0  0  0  0  0
  -24.4680   -8.6205   21.1319 C   0  0  0  0  0  0  0  0  0  0  0  0
  -25.9611  -37.3683   24.8708 C   0  0  0  0  0  0  0  0  0  0  0  0
  -27.3511  -35.3683   23.5239 C   0  0  0  0  0  0  0  0  0  0  0  0
  -27.0519  -29.3224   19.6932 C   0  0  0  0  0  0  0  0  0  0  0  0
  -22.5197   -9.7478   22.7798 C   0  0  0  0  0  0  0  0  0  0  0  0
  -23.3292   -7.8881   21.4671 C   0  0  0  0  0  0  0  0  0  0  0  0
  -27.4028  -27.9757   19.7771 C   0  0  0  0  0  0  0  0  0  0  0  0
  -20.8065   -5.3962   22.2699 C   0  0  0  0  0  0  0  0  0  0  0  0
  -20.9793   -4.0661   22.6526 C   0  0  0  0  0  0  0  0  0  0  0  0
  -28.2640  -21.6624   19.1572 C   0  0  0  0  0  0  0  0  0  0  0  0
  -25.4097  -27.5428   21.0653 C   0  0  0  0  0  0  0  0  0  0  0  0
  -22.3733   -4.7769   24.4935 C   0  0  0  0  0  0  0  0  0  0  0  0
  -24.6327   -9.9165   21.6206 C   0  0  0  0  0  0  0  0  0  0  0  0
  -27.0310  -10.7118   21.9714 C   0  0  0  0  0  0  0  0  0  0  0  0
  -25.5181  -36.0396   24.9651 C   0  0  0  0  0  0  0  0  0  0  0  0
  -25.8808  -29.7922   20.3050 C   0  0  0  0  0  0  0  0  0  0  0  0
  -26.2261  -35.0251   24.2928 C   0  0  0  0  0  0  0  0  0  0  0  0
  -28.6742  -21.1448   20.3858 C   0  0  0  0  0  0  0  0  0  0  0  0
  -25.0449  -28.8954   20.9855 C   0  0  0  0  0  0  0  0  0  0  0  0
  -28.9083  -22.0023   21.4607 C   0  0  0  0  0  0  0  0  0  0  0  0
  -28.0881  -23.0376   19.0035 C   0  0  0  0  0  0  0  0  0  0  0  0
  -28.7324  -23.3775   21.3070 C   0  0  0  0  0  0  0  0  0  0  0  0
  -28.3223  -23.8951   20.0784 C   0  0  0  0  0  0  0  0  0  0  0  0
  -22.3550   -8.4518   22.2911 C   0  0  0  0  0  0  0  0  0  0  0  0
  -26.5832  -27.0862   20.4657 C   0  0  0  0  0  0  0  0  0  0  0  0
  -21.4171   -6.4167   22.9989 C   0  0  0  0  0  0  0  0  0  0  0  0
  -21.7626   -3.7564   23.7644 C   0  0  0  0  0  0  0  0  0  0  0  0
  -22.2005   -6.1070   24.1107 C   0  0  0  0  0  0  0  0  0  0  0  0
  -25.8090  -10.6727   21.2736 C   0  0  0  0  0  0  0  0  0  0  0  0
  -27.8167  -11.5689   21.2402 C   0  0  0  0  0  0  0  0  0  0  0  0
  -27.4211  -10.0339   23.1731 C   0  0  0  0  0  0  0  0  0  0  0  0
  -25.2380  -31.8902   22.6048 C   0  0  0  0  0  0  0  0  0  0  0  0
  -22.1652  -31.2920   21.7549 C   0  0  0  0  0  0  0  0  0  0  0  0
  -19.9164  -29.1561   20.3311 C   0  0  0  0  0  0  0  0  0  0  0  0
  -28.6307  -16.1631   18.3676 C   0  0  0  0  0  0  0  0  0  0  0  0
  -24.3315  -35.7306   25.8432 C   0  0  0  0  0  0  0  0  0  0  0  0
  -25.5027  -31.2429   20.1826 C   0  0  0  0  0  0  0  0  0  0  0  0
  -23.7665  -29.3456   21.6424 C   0  0  0  0  0  0  0  0  0  0  0  0
  -23.7264  -34.3527   25.5869 C   0  0  0  0  0  0  0  0  0  0  0  0
  -27.1432  -13.5599   16.6474 C   0  0  0  0  0  0  0  0  0  0  0  0
  -30.6152  -21.9635   23.3996 C   0  0  0  0  0  0  0  0  0  0  0  0
  -30.5782  -20.5808   22.8278 C   0  0  0  0  0  0  0  0  0  0  0  0
  -24.8223  -33.2945   25.5095 C   0  0  0  0  0  0  0  0  0  0  0  0
  -26.7596  -12.5699   17.7471 C   0  0  0  0  0  0  0  0  0  0  0  0
  -27.5401  -18.8801   20.3030 C   0  0  0  0  0  0  0  0  0  0  0  0
  -29.9587  -19.1098   19.5911 C   0  0  0  0  0  0  0  0  0  0  0  0
  -26.8659  -14.9939   17.0833 C   0  0  0  0  0  0  0  0  0  0  0  0
  -27.7388  -17.3656   20.4119 C   0  0  0  0  0  0  0  0  0  0  0  0
  -30.1072  -17.5985   19.7416 C   0  0  0  0  0  0  0  0  0  0  0  0
  -27.1750  -14.4000   19.4644 C   0  0  0  0  0  0  0  0  0  0  0  0
  -28.8574  -19.6452   20.5240 C   0  0  0  0  0  0  0  0  0  0  0  0
  -29.3481  -21.4446   22.7773 C   0  0  0  0  0  0  0  0  0  0  0  0
  -25.7831  -33.5791   24.3487 C   0  0  1  0  0  0  0  0  0  0  0  0
  -24.5511  -31.7070   21.2810 C   0  0  1  0  0  0  0  0  0  0  0  0
  -27.4418  -12.9308   19.0785 C   0  0  1  0  0  0  0  0  0  0  0  0
  -27.6483  -23.5661   17.6774 C   0  0  0  0  0  0  0  0  0  0  0  0
  -28.9832  -24.2991   22.4591 C   0  0  0  0  0  0  0  0  0  0  0  0
  -17.4712  -28.9268   19.8154 C   0  0  0  0  0  0  0  0  0  0  0  0
  -21.6080  -30.6629   24.6881 C   0  0  0  0  0  0  0  0  0  0  0  0
  -19.4813  -29.5518   23.9736 C   0  0  0  0  0  0  0  0  0  0  0  0
  -19.8189  -31.9862   23.5470 C   0  0  0  0  0  0  0  0  0  0  0  0
  -20.4270  -28.9912   17.4206 C   0  0  0  0  0  0  0  0  0  0  0  0
  -28.1327  -25.3696   19.9105 C   0  0  0  0  0  0  0  0  0  1  0  0
  -21.1125  -30.2974   22.1808 C   0  0  1  0  0  0  0  0  0  0  0  0
  -18.8270  -29.3821   19.2984 C   0  0  2  0  0  0  0  0  0  0  0  0
  -20.5302  -30.6161   23.5868 C   0  0  0  0  0  0  0  0  0  0  0  0
  -25.8132  -11.4438   20.1829 N   0  0  0  0  0  0  0  0  0  0  0  0
  -27.0474  -11.9755   20.1900 N   0  0  0  0  0  0  0  0  0  0  0  0
  -23.4433  -30.7749   21.5002 N   0  0  0  0  0  0  0  0  0  0  0  0
  -27.5274  -15.2964   18.3524 N   0  0  0  0  0  0  0  0  0  0  0  0
  -28.8283  -16.9204   19.5320 N   0  0  0  0  0  0  0  0  0  0  0  0
  -29.0836  -12.0069   21.3997 N   0  0  0  0  0  0  0  0  0  0  0  0
  -26.4914   -9.1903   23.7962 N   0  0  0  0  0  0  0  0  0  0  0  0
  -25.1874  -33.1828   23.0908 N   0  0  0  0  0  0  0  0  0  0  0  0
  -20.1180  -30.2734   21.1136 N   0  0  0  0  0  0  0  0  0  0  0  0
  -19.1317  -28.6268   18.0503 N   0  3  0  0  0  0  0  0  0  0  0  0
  -28.5548  -10.1850   23.6883 O   0  0  0  0  0  0  0  0  0  0  0  0
  -25.7730  -30.9297   23.1459 O   0  0  0  0  0  0  0  0  0  0  0  0
  -21.8628  -32.4829   21.6452 O   0  0  0  0  0  0  0  0  0  0  0  0
  -20.5248  -28.0934   20.4359 O   0  0  0  0  0  0  0  0  0  0  0  0
  -29.3949  -16.2548   17.3988 O   0  0  0  0  0  0  0  0  0  0  0  0
  -21.2440   -7.7368   22.6181 O   0  0  0  0  0  0  0  0  0  0  0  0
  -26.9263  -25.7616   20.5503 O   0  0  0  0  0  0  0  0  0  1  0  0
  -21.9272   -2.4792   24.1328 F   0  0  0  0  0  0  0  0  0  0  0  0
  -22.7887   -7.0832   24.8157 F   0  0  0  0  0  0  0  0  0  0  0  0
  1  2  1  0  0  0  0
  1  5  2  0  0  0  0
  2  6  2  0  0  0  0
  3  8  2  0  0  0  0
  3 16  1  0  0  0  0
  4  9  1  0  0  0  0
  4 16  2  0  0  0  0
  5 18  1  0  0  0  0
  6 20  1  0  0  0  0
  7 10  2  0  0  0  0
  7 19  1  0  0  0  0
  8 27  1  0  0  0  0
  9 27  2  0  0  0  0
 10 28  1  0  0  0  0
 11 12  2  0  0  0  0
 11 29  1  0  0  0  0
 12 30  1  0  0  0  0
 13 21  1  0  0  0  0
 13 24  2  0  0  0  0
 14 22  1  0  0  0  0
 14 28  2  0  0  0  0
 15 30  2  0  0  0  0
 15 31  1  0  0  0  0
 16 32  1  0  0  0  0
 17 32  1  0  0  0  0
 17 33  2  0  0  0  0
 17 34  1  0  0  0  0
 18 20  2  0  0  0  0
 18 39  1  0  0  0  0
 19 22  2  0  0  0  0
 19 40  1  0  0  0  0
 20 56  1  0  0  0  0
 21 23  2  0  0  0  0
 21 54  1  0  0  0  0
 22 41  1  0  0  0  0
 23 25  1  0  0  0  0
 23 55  1  0  0  0  0
 24 26  1  0  0  0  0
 24 59  1  0  0  0  0
 25 26  2  0  0  0  0
 25 60  1  0  0  0  0
 26 66  1  0  0  0  0
 27 85  1  0  0  0  0
 28 86  1  0  0  0  0
 29 31  2  0  0  0  0
 29 85  1  0  0  0  0
 30 87  1  0  0  0  0
 31 88  1  0  0  0  0
 32 70  2  0  0  0  0
 33 71  1  0  0  0  0
 33 75  1  0  0  0  0
 34 76  1  0  0  0  0
 34 80  2  0  0  0  0
 35 57  1  0  0  0  0
 35 77  1  0  0  0  0
 35 81  2  0  0  0  0
 36 67  1  0  0  0  0
 36 72  1  0  0  0  0
 36 82  2  0  0  0  0
 37 68  1  0  0  0  0
 37 78  1  0  0  0  0
 37 83  2  0  0  0  0
 38 73  1  0  0  0  0
 38 74  1  0  0  0  0
 38 84  2  0  0  0  0
 39 42  1  0  0  0  0
 40 57  1  0  0  0  0
 41 72  1  0  0  0  0
 42 46  1  0  0  0  0
 43 47  1  0  0  0  0
 43 50  1  0  0  0  0
 44 45  1  0  0  0  0
 44 55  1  0  0  0  0
 45 55  1  0  0  0  0
 46 56  1  0  0  0  0
 47 58  1  0  0  0  0
 48 51  1  0  0  0  0
 48 54  1  0  0  0  0
 49 52  1  0  0  0  0
 49 54  1  0  0  0  0
 50 73  1  0  0  0  0
 51 74  1  0  0  0  0
 52 74  1  0  0  0  0
 53 58  1  0  0  0  0
 53 73  1  0  0  0  0
 56 77  1  0  0  0  0
 57 72  1  0  0  0  0
 58 71  1  0  0  0  0
 61 68  1  0  0  0  0
 62 69  1  0  0  0  0
 63 69  1  0  0  0  0
 64 69  1  0  0  0  0
 65 79  1  0  0  0  0
 66 86  1  0  0  0  0
 67 69  1  0  0  0  0
 67 78  1  0  0  0  0
 68 79  1  0  0  0  0
 70 71  1  0  0  0  0
M  CHG  1  79   1
M  ISO  4  38 100  66 101  74 100  86 101
M  END
> <Batch ID>
0160

> <Smiles>
CNC(C)C(=O)NC(C(=O)N1Cc2cc([101O:1][101CH2:1]c3c(C)cc(C4CC[100N:0]([100C:0](=O)N5CCCC(n6nc(-c7ccc(Oc8ccc(F)cc8F)cc7)c(C(N)=O)c6N)C5)CC4)c(C4CC4)c3C)ccc2CC1C(=O)NC1CCCc2ccccc21)C(C)(C)C

> <Shape>
0.325

> <Color>
0.089

> <Negative vol penalty>
0.000

$$$$

  -OEChem-04052322093D

 93103  0     1  0  0  0  0  0999 V2000
  -19.2043  -33.6330   15.7030 C   0  0  0  0  0  0  0  0  0  0  0  0
  -20.1566  -32.7864   16.2614 C   0  0  0  0  0  0  0  0  0  0  0  0
  -22.6910  -10.1888   20.1393 C   0  0  0  0  0  0  0  0  0  0  0  0
  -24.3514   -9.3787   21.6962 C   0  0  0  0  0  0  0  0  0  0  0  0
  -17.8607  -33.2605   15.6957 C   0  0  0  0  0  0  0  0  0  0  0  0
  -19.7657  -31.5671   16.8137 C   0  0  0  0  0  0  0  0  0  0  0  0
  -22.8006  -27.7517   15.4438 C   0  0  0  0  0  0  0  0  0  0  0  0
  -21.9729   -9.0023   20.2877 C   0  0  0  0  0  0  0  0  0  0  0  0
  -23.6332   -8.1921   21.8446 C   0  0  0  0  0  0  0  0  0  0  0  0
  -24.0269  -27.6469   16.0987 C   0  0  0  0  0  0  0  0  0  0  0  0
  -20.8964   -7.1319   23.5199 C   0  0  0  0  0  0  0  0  0  0  0  0
  -20.7155   -6.6432   24.8137 C   0  0  0  0  0  0  0  0  0  0  0  0
  -29.9475  -20.4183   21.9797 C   0  0  0  0  0  0  0  0  0  0  0  0
  -23.1149  -25.9228   17.5182 C   0  0  0  0  0  0  0  0  0  0  0  0
  -29.9807  -19.5583   19.7053 C   0  0  0  0  0  0  0  0  0  0  0  0
  -21.8694   -4.6092   24.2069 C   0  0  0  0  0  0  0  0  0  0  0  0
  -23.8803  -10.3770   20.8435 C   0  0  0  0  0  0  0  0  0  0  0  0
  -24.1776  -12.9073   20.9738 C   0  0  0  0  0  0  0  0  0  0  0  0
  -17.4544  -32.0318   16.2396 C   0  0  0  0  0  0  0  0  0  0  0  0
  -21.7171  -26.9491   15.8291 C   0  0  0  0  0  0  0  0  0  0  0  0
  -18.4153  -31.1785   16.8149 C   0  0  0  0  0  0  0  0  0  0  0  0
  -30.2446  -19.1421   22.4294 C   0  0  0  0  0  0  0  0  0  0  0  0
  -21.8766  -26.0175   16.8649 C   0  0  0  0  0  0  0  0  0  0  0  0
  -30.4126  -18.0784   21.5337 C   0  0  0  0  0  0  0  0  0  0  0  0
  -29.8085  -20.6210   20.6055 C   0  0  0  0  0  0  0  0  0  0  0  0
  -22.4440   -8.0039   21.1404 C   0  0  0  0  0  0  0  0  0  0  0  0
  -24.1834  -26.7345   17.1380 C   0  0  0  0  0  0  0  0  0  0  0  0
  -21.5638   -6.3592   22.5695 C   0  0  0  0  0  0  0  0  0  0  0  0
  -30.2925  -18.2774   20.1669 C   0  0  0  0  0  0  0  0  0  0  0  0
  -21.2020   -5.3819   25.1572 C   0  0  0  0  0  0  0  0  0  0  0  0
  -22.0503   -5.0979   22.9130 C   0  0  0  0  0  0  0  0  0  0  0  0
  -24.6229  -11.6022   20.6902 C   0  0  0  0  0  0  0  0  0  0  0  0
  -25.2475  -13.7103   20.6626 C   0  0  0  0  0  0  0  0  0  0  0  0
  -22.9102  -13.3537   21.4738 C   0  0  0  0  0  0  0  0  0  0  0  0
  -18.8128  -27.5093   16.9932 C   0  0  0  0  0  0  0  0  0  0  0  0
  -18.4652  -24.3074   16.6066 C   0  0  0  0  0  0  0  0  0  0  0  0
  -18.8312  -20.9333   16.2484 C   0  0  0  0  0  0  0  0  0  0  0  0
  -30.7169  -14.8084   20.8211 C   0  0  0  0  0  0  0  0  0  0  0  0
  -15.9847  -31.6936   16.2511 C   0  0  0  0  0  0  0  0  0  0  0  0
  -20.4086  -27.0554   15.0949 C   0  0  0  0  0  0  0  0  0  0  0  0
  -30.4783  -18.7014   23.8407 C   0  0  0  0  0  0  0  0  0  0  0  0
  -20.7505  -25.1185   17.3032 C   0  0  0  0  0  0  0  0  0  0  0  0
  -15.7013  -30.2179   16.5202 C   0  0  0  0  0  0  0  0  0  0  0  0
  -29.5567  -12.6579   18.2316 C   0  0  0  0  0  0  0  0  0  0  0  0
  -16.5336  -29.7207   17.6979 C   0  0  0  0  0  0  0  0  0  0  0  0
  -28.1360  -12.2945   18.6669 C   0  0  0  0  0  0  0  0  0  0  0  0
  -27.4821  -23.5484   18.2366 C   0  0  0  0  0  0  0  0  0  0  0  0
  -26.3877  -24.1577   20.4394 C   0  0  0  0  0  0  0  0  0  0  0  0
  -26.9917  -24.8624   17.6333 C   0  0  0  0  0  0  0  0  0  0  0  0
  -25.8996  -25.4700   19.8306 C   0  0  0  0  0  0  0  0  0  0  0  0
  -30.5011  -12.7727   19.4262 C   0  0  0  0  0  0  0  0  0  0  0  0
  -28.6244  -13.3229   20.9258 C   0  0  0  0  0  0  0  0  0  0  0  0
  -18.0336  -29.8367   17.4015 C   0  0  1  0  0  0  0  0  0  0  0  0
  -30.7798  -16.8229   22.2693 C   0  0  1  0  0  0  0  0  0  0  0  0
  -19.2228  -26.5506   15.9112 C   0  0  1  0  0  0  0  0  0  0  0  0
  -30.3304  -17.1697   23.7096 C   0  0  1  0  0  0  0  0  0  0  0  0
  -27.6229  -13.2506   19.7605 C   0  0  2  0  0  0  0  0  0  0  0  0
  -27.6625  -23.6793   19.7477 C   0  0  0  0  0  0  0  0  0  0  0  0
  -25.7176  -25.3567   18.3168 C   0  0  0  0  0  0  0  0  0  1  0  0
  -17.5962  -18.7727   16.5707 C   0  0  0  0  0  0  0  0  0  0  0  0
  -30.6581  -16.8355   26.1654 C   0  0  0  0  0  0  0  0  0  0  0  0
  -30.9674  -14.9141   24.5791 C   0  0  0  0  0  0  0  0  0  0  0  0
  -18.9119  -24.5042   19.6185 C   0  0  0  0  0  0  0  0  0  0  0  0
  -18.5642  -22.0290   19.7615 C   0  0  0  0  0  0  0  0  0  0  0  0
  -16.7201  -23.5009   18.9523 C   0  0  0  0  0  0  0  0  0  0  0  0
  -19.0122  -20.2662   13.3707 C   0  0  0  0  0  0  0  0  0  0  0  0
  -30.3259  -17.5599   17.8992 C   0  0  0  0  0  0  0  0  0  0  0  0
  -29.4677  -21.9864   20.0860 C   0  0  0  0  0  0  0  0  0  0  0  0
  -18.7233  -23.0926   17.4649 C   0  0  1  0  0  0  0  0  0  0  0  0
  -17.9446  -19.8875   15.5968 C   0  0  2  0  0  0  0  0  0  0  0  0
  -31.1181  -16.4184   24.7734 C   0  0  0  0  0  0  0  0  0  0  0  0
  -18.2500  -23.2925   18.9324 C   0  0  0  0  0  0  0  0  0  0  0  0
  -25.8778  -11.5733   20.2338 N   0  0  0  0  0  0  0  0  0  0  0  0
  -26.2302  -12.8702   20.2281 N   0  0  0  0  0  0  0  0  0  0  0  0
  -19.4888  -25.2644   16.5587 N   0  0  0  0  0  0  0  0  0  0  0  0
  -29.9570  -13.6952   20.4256 N   0  0  0  0  0  0  0  0  0  0  0  0
  -25.4342  -15.0460   20.7209 N   0  0  0  0  0  0  0  0  0  0  0  0
  -22.7368  -13.4533   22.8610 N   0  0  0  0  0  0  0  0  0  0  0  0
  -18.4612  -28.7629   16.5305 N   0  0  0  0  0  0  0  0  0  0  0  0
  -18.0927  -21.9685   16.7816 N   0  0  0  0  0  0  0  0  0  0  0  0
  -30.1248  -15.6353   21.7679 N   0  0  0  0  0  0  0  0  0  0  0  0
  -28.0433  -22.3537   20.3035 N   0  3  0  0  0  0  0  0  0  0  0  0
  -18.6328  -19.2854   14.4200 N   0  3  0  0  0  0  0  0  0  0  0  0
  -21.9543  -13.6397   20.7135 O   0  0  0  0  0  0  0  0  0  0  0  0
  -18.8140  -27.1385   18.1612 O   0  0  0  0  0  0  0  0  0  0  0  0
  -17.3978  -24.4002   15.9953 O   0  0  0  0  0  0  0  0  0  0  0  0
  -20.0561  -20.8393   16.2844 O   0  0  0  0  0  0  0  0  0  0  0  0
  -31.8377  -15.0505   20.3604 O   0  0  0  0  0  0  0  0  0  0  0  0
  -21.7434   -6.8461   21.2856 O   0  0  0  0  0  0  0  0  0  0  0  0
  -25.3791  -26.6307   17.7793 O   0  0  0  0  0  0  0  0  0  1  0  0
  -30.4702  -17.2575   19.2877 O   0  0  0  0  0  0  0  0  0  0  0  0
  -21.0295   -4.9134   26.4002 F   0  0  0  0  0  0  0  0  0  0  0  0
  -22.6933   -4.3514   22.0046 F   0  0  0  0  0  0  0  0  0  0  0  0
  1  2  1  0  0  0  0
  1  5  2  0  0  0  0
  2  6  2  0  0  0  0
  3  8  2  0  0  0  0
  3 17  1  0  0  0  0
  4  9  1  0  0  0  0
  4 17  2  0  0  0  0
  5 19  1  0  0  0  0
  6 21  1  0  0  0  0
  7 10  2  0  0  0  0
  7 20  1  0  0  0  0
  8 26  1  0  0  0  0
  9 26  2  0  0  0  0
 10 27  1  0  0  0  0
 11 12  2  0  0  0  0
 11 28  1  0  0  0  0
 12 30  1  0  0  0  0
 13 22  2  0  0  0  0
 13 25  1  0  0  0  0
 14 23  1  0  0  0  0
 14 27  2  0  0  0  0
 15 25  2  0  0  0  0
 15 29  1  0  0  0  0
 16 30  2  0  0  0  0
 16 31  1  0  0  0  0
 17 32  1  0  0  0  0
 18 32  1  0  0  0  0
 18 33  2  0  0  0  0
 18 34  1  0  0  0  0
 19 21  2  0  0  0  0
 19 39  1  0  0  0  0
 20 23  2  0  0  0  0
 20 40  1  0  0  0  0
 21 53  1  0  0  0  0
 22 24  1  0  0  0  0
 22 41  1  0  0  0  0
 23 42  1  0  0  0  0
 24 29  2  0  0  0  0
 24 54  1  0  0  0  0
 25 68  1  0  0  0  0
 26 89  1  0  0  0  0
 27 90  1  0  0  0  0
 28 31  2  0  0  0  0
 28 89  1  0  0  0  0
 29 91  1  0  0  0  0
 30 92  1  0  0  0  0
 31 93  1  0  0  0  0
 32 73  2  0  0  0  0
 33 74  1  0  0  0  0
 33 77  1  0  0  0  0
 34 78  1  0  0  0  0
 34 84  2  0  0  0  0
 35 55  1  0  0  0  0
 35 79  1  0  0  0  0
 35 85  2  0  0  0  0
 36 69  1  0  0  0  0
 36 75  1  0  0  0  0
 36 86  2  0  0  0  0
 37 70  1  0  0  0  0
 37 80  1  0  0  0  0
 37 87  2  0  0  0  0
 38 76  1  0  0  0  0
 38 81  1  0  0  0  0
 38 88  2  0  0  0  0
 39 43  1  0  0  0  0
 40 55  1  0  0  0  0
 41 56  1  0  0  0  0
 42 75  1  0  0  0  0
 43 45  1  0  0  0  0
 44 46  1  0  0  0  0
 44 51  1  0  0  0  0
 45 53  1  0  0  0  0
 46 57  1  0  0  0  0
 47 49  1  0  0  0  0
 47 58  1  0  0  0  0
 48 50  1  0  0  0  0
 48 58  1  0  0  0  0
 49 59  1  0  0  0  0
 50 59  1  0  0  0  0
 51 76  1  0  0  0  0
 52 57  1  0  0  0  0
 52 76  1  0  0  0  0
 53 79  1  0  0  0  0
 54 56  1  0  0  0  0
 54 81  1  0  0  0  0
 55 75  1  0  0  0  0
 56 71  1  0  0  0  0
 57 74  1  0  0  0  0
 58 82  1  0  0  0  0
 59 90  1  0  0  0  0
 60 70  1  0  0  0  0
 61 71  1  0  0  0  0
 62 71  1  0  0  0  0
 63 72  1  0  0  0  0
 64 72  1  0  0  0  0
 65 72  1  0  0  0  0
 66 83  1  0  0  0  0
 67 91  1  0  0  0  0
 68 82  1  0  0  0  0
 69 72  1  0  0  0  0
 69 80  1  0  0  0  0
 70 83  1  0  0  0  0
 73 74  1  0  0  0  0
M  CHG  2  82   1  83   1
M  ISO  4  38 100  59 101  81 100  90 101
M  END
> <Batch ID>
0160

> <Smiles>
CNC(C)C(=O)NC(C(=O)N1Cc2cc([101O:1][101CH:1]3CCC(NCc4cc5c(c(OC)c4)C([100NH:0][100C:0](=O)N4CCCC(n6nc(-c7ccc(Oc8ccc(F)cc8F)cc7)c(C(N)=O)c6N)C4)C(C(C)C)C5)CC3)ccc2CC1C(=O)NC1CCCc2ccccc21)C(C)(C)C

> <Shape>
0.236

> <Color>
0.175

> <Negative vol penalty>
0.000

$$$$

  -OEChem-04052322093D

 86 95  0     1  0  0  0  0  0999 V2000
  -27.0337  -34.6272   17.7164 C   0  0  0  0  0  0  0  0  0  0  0  0
  -27.6150  -33.4161   17.3548 C   0  0  0  0  0  0  0  0  0  0  0  0
  -23.0957   -9.9047   19.9501 C   0  0  0  0  0  0  0  0  0  0  0  0
  -23.9180   -9.8993   22.2218 C   0  0  0  0  0  0  0  0  0  0  0  0
  -26.3320  -34.7315   18.9167 C   0  0  0  0  0  0  0  0  0  0  0  0
  -27.4960  -32.3089   18.1939 C   0  0  0  0  0  0  0  0  0  0  0  0
  -26.9616  -25.1687   17.9733 C   0  0  0  0  0  0  0  0  0  0  0  0
  -22.3726   -8.7404   20.2090 C   0  0  0  0  0  0  0  0  0  0  0  0
  -23.1948   -8.7350   22.4808 C   0  0  0  0  0  0  0  0  0  0  0  0
  -27.5550  -24.0271   18.5103 C   0  0  0  0  0  0  0  0  0  0  0  0
  -19.9940   -7.8929   23.1634 C   0  0  0  0  0  0  0  0  0  0  0  0
  -19.2699   -7.8328   24.3540 C   0  0  0  0  0  0  0  0  0  0  0  0
  -29.8835  -19.8765   23.3686 C   0  0  0  0  0  0  0  0  0  0  0  0
  -26.2522  -24.3034   20.5217 C   0  0  0  0  0  0  0  0  0  0  0  0
  -20.5537   -5.9036   25.0375 C   0  0  0  0  0  0  0  0  0  0  0  0
  -23.8685  -10.4842   20.9565 C   0  0  0  0  0  0  0  0  0  0  0  0
  -24.1772  -13.0142   20.8517 C   0  0  0  0  0  0  0  0  0  0  0  0
  -26.1961  -33.6224   19.7663 C   0  0  0  0  0  0  0  0  0  0  0  0
  -26.0155  -25.8936   18.7120 C   0  0  0  0  0  0  0  0  0  0  0  0
  -26.7930  -32.3987   19.4073 C   0  0  0  0  0  0  0  0  0  0  0  0
  -29.5791  -18.6083   22.8464 C   0  0  0  0  0  0  0  0  0  0  0  0
  -25.6464  -25.4524   19.9907 C   0  0  0  0  0  0  0  0  0  0  0  0
  -28.5369  -18.4829   21.9122 C   0  0  0  0  0  0  0  0  0  0  0  0
  -27.8218  -19.6270   21.5214 C   0  0  0  0  0  0  0  0  0  0  0  0
  -28.1371  -20.8798   22.0455 C   0  0  0  0  0  0  0  0  0  0  0  0
  -22.4221   -8.1556   21.4744 C   0  0  0  0  0  0  0  0  0  0  0  0
  -27.2025  -23.5959   19.7858 C   0  0  0  0  0  0  0  0  0  0  0  0
  -20.9979   -6.9582   22.9097 C   0  0  0  0  0  0  0  0  0  0  0  0
  -29.1686  -21.0047   22.9690 C   0  0  0  0  0  0  0  0  0  0  0  0
  -19.5498   -6.8383   25.2911 C   0  0  0  0  0  0  0  0  0  0  0  0
  -21.2777   -5.9636   23.8468 C   0  0  0  0  0  0  0  0  0  0  0  0
  -24.6162  -11.6866   20.6894 C   0  0  0  0  0  0  0  0  0  0  0  0
  -25.2502  -13.7802   20.4661 C   0  0  0  0  0  0  0  0  0  0  0  0
  -22.9127  -13.5108   21.3101 C   0  0  0  0  0  0  0  0  0  0  0  0
  -25.8549  -28.8535   19.8595 C   0  0  0  0  0  0  0  0  0  0  0  0
  -22.8396  -27.9633   20.6582 C   0  0  0  0  0  0  0  0  0  0  0  0
  -20.6561  -25.4381   21.3672 C   0  0  0  0  0  0  0  0  0  0  0  0
  -30.8405  -14.5748   20.9593 C   0  0  0  0  0  0  0  0  0  0  0  0
  -25.4686  -33.7961   21.0760 C   0  0  0  0  0  0  0  0  0  0  0  0
  -25.3649  -27.1078   18.1079 C   0  0  0  0  0  0  0  0  0  0  0  0
  -30.3646  -17.4087   23.3111 C   0  0  0  0  0  0  0  0  0  0  0  0
  -28.1689  -17.1436   21.3294 C   0  0  0  0  0  0  0  0  0  0  0  0
  -24.6210  -26.1837   20.8166 C   0  0  0  0  0  0  0  0  0  0  0  0
  -25.0696  -32.4761   21.7309 C   0  0  0  0  0  0  0  0  0  0  0  0
  -29.5606  -12.5312   18.1471 C   0  0  0  0  0  0  0  0  0  0  0  0
  -26.2395  -31.4974   21.7154 C   0  0  0  0  0  0  0  0  0  0  0  0
  -28.1475  -12.1799   18.6111 C   0  0  0  0  0  0  0  0  0  0  0  0
  -29.3013  -16.5183   20.5172 C   0  0  0  0  0  0  0  0  0  0  0  0
  -30.5066  -12.7532   19.3238 C   0  0  0  0  0  0  0  0  0  0  0  0
  -28.6107  -13.4071   20.7674 C   0  0  0  0  0  0  0  0  0  0  0  0
  -26.6646  -31.1685   20.2792 C   0  0  1  0  0  0  0  0  0  0  0  0
  -24.7922  -28.0608   19.1524 C   0  0  1  0  0  0  0  0  0  0  0  0
  -27.6214  -13.2281   19.6072 C   0  0  2  0  0  0  0  0  0  0  0  0
  -31.1726  -16.6740   22.2265 C   0  0  2  0  0  0  0  0  0  0  0  0
  -26.7032  -19.5438   20.5266 C   0  0  0  0  0  0  0  0  0  0  0  0
  -32.1335  -17.5887   21.4598 C   0  0  0  0  0  0  0  0  0  0  0  0
  -18.2688  -25.0233   22.0199 C   0  0  0  0  0  0  0  0  0  0  0  0
  -23.4687  -28.8457   23.5105 C   0  0  0  0  0  0  0  0  0  0  0  0
  -21.4624  -27.5588   24.2768 C   0  0  0  0  0  0  0  0  0  0  0  0
  -21.1867  -29.4747   22.7032 C   0  0  0  0  0  0  0  0  0  0  0  0
  -20.1346  -23.8734   18.9098 C   0  0  0  0  0  0  0  0  0  0  0  0
  -30.4759  -22.9839   22.7971 C   0  0  0  0  0  0  0  0  0  0  0  0
  -27.3748  -22.0958   21.6232 C   0  0  0  0  0  0  0  0  0  1  0  0
  -22.1995  -27.3161   21.8625 C   0  0  1  0  0  0  0  0  0  0  0  0
  -19.2521  -25.1503   20.8667 C   0  0  2  0  0  0  0  0  0  0  0  0
  -22.1001  -28.2859   23.0737 C   0  0  0  0  0  0  0  0  0  0  0  0
  -25.8702  -11.6098   20.2359 N   0  0  0  0  0  0  0  0  0  0  0  0
  -26.2283  -12.8990   20.1098 N   0  0  0  0  0  0  0  0  0  0  0  0
  -24.0178  -27.3688   20.1847 N   0  0  0  0  0  0  0  0  0  0  0  0
  -29.9594  -13.7187   20.2768 N   0  0  0  0  0  0  0  0  0  0  0  0
  -30.3399  -15.8486   21.3245 N   0  0  0  0  0  0  0  0  0  0  0  0
  -25.4428  -15.1147   20.4003 N   0  0  0  0  0  0  0  0  0  0  0  0
  -21.9212  -12.5864   21.6660 N   0  0  0  0  0  0  0  0  0  0  0  0
  -25.7470  -30.2201   19.6851 N   0  0  0  0  0  0  0  0  0  0  0  0
  -20.9156  -26.7917   21.4100 N   0  0  0  0  0  0  0  0  0  0  0  0
  -19.2300  -23.8797   20.0882 N   0  3  0  0  0  0  0  0  0  0  0  0
  -22.6637  -14.7379   21.3858 O   0  0  0  0  0  0  0  0  0  0  0  0
  -26.7085  -28.2688   20.5160 O   0  0  0  0  0  0  0  0  0  0  0  0
  -22.3096  -28.9554   20.1517 O   0  0  0  0  0  0  0  0  0  0  0  0
  -21.4426  -24.5511   21.6914 O   0  0  0  0  0  0  0  0  0  0  0  0
  -31.9986  -14.2277   21.2234 O   0  0  0  0  0  0  0  0  0  0  0  0
  -21.7164   -7.0196   21.7275 O   0  0  0  0  0  0  0  0  0  0  0  0
  -29.4952  -22.2186   23.4945 O   0  0  0  0  0  0  0  0  0  0  0  0
  -27.7849  -22.4741   20.3166 O   0  0  0  0  0  0  0  0  0  1  0  0
  -18.8554   -6.7817   26.4351 F   0  0  0  0  0  0  0  0  0  0  0  0
  -22.2418   -5.0637   23.6092 F   0  0  0  0  0  0  0  0  0  0  0  0
  1  2  1  0  0  0  0
  1  5  2  0  0  0  0
  2  6  2  0  0  0  0
  3  8  2  0  0  0  0
  3 16  1  0  0  0  0
  4  9  1  0  0  0  0
  4 16  2  0  0  0  0
  5 18  1  0  0  0  0
  6 20  1  0  0  0  0
  7 10  2  0  0  0  0
  7 19  1  0  0  0  0
  8 26  1  0  0  0  0
  9 26  2  0  0  0  0
 10 27  1  0  0  0  0
 11 12  2  0  0  0  0
 11 28  1  0  0  0  0
 12 30  1  0  0  0  0
 13 21  1  0  0  0  0
 13 29  2  0  0  0  0
 14 22  1  0  0  0  0
 14 27  2  0  0  0  0
 15 30  2  0  0  0  0
 15 31  1  0  0  0  0
 16 32  1  0  0  0  0
 17 32  1  0  0  0  0
 17 33  2  0  0  0  0
 17 34  1  0  0  0  0
 18 20  2  0  0  0  0
 18 39  1  0  0  0  0
 19 22  2  0  0  0  0
 19 40  1  0  0  0  0
 20 51  1  0  0  0  0
 21 23  2  0  0  0  0
 21 41  1  0  0  0  0
 22 43  1  0  0  0  0
 23 24  1  0  0  0  0
 23 42  1  0  0  0  0
 24 25  2  0  0  0  0
 24 55  1  0  0  0  0
 25 29  1  0  0  0  0
 25 63  1  0  0  0  0
 26 82  1  0  0  0  0
 27 84  1  0  0  0  0
 28 31  2  0  0  0  0
 28 82  1  0  0  0  0
 29 83  1  0  0  0  0
 30 85  1  0  0  0  0
 31 86  1  0  0  0  0
 32 67  2  0  0  0  0
 33 68  1  0  0  0  0
 33 72  1  0  0  0  0
 34 73  1  0  0  0  0
 34 77  2  0  0  0  0
 35 52  1  0  0  0  0
 35 74  1  0  0  0  0
 35 78  2  0  0  0  0
 36 64  1  0  0  0  0
 36 69  1  0  0  0  0
 36 79  2  0  0  0  0
 37 65  1  0  0  0  0
 37 75  1  0  0  0  0
 37 80  2  0  0  0  0
 38 70  1  0  0  0  0
 38 71  1  0  0  0  0
 38 81  2  0  0  0  0
 39 44  1  0  0  0  0
 40 52  1  0  0  0  0
 41 54  1  0  0  0  0
 42 48  1  0  0  0  0
 43 69  1  0  0  0  0
 44 46  1  0  0  0  0
 45 47  1  0  0  0  0
 45 49  1  0  0  0  0
 46 51  1  0  0  0  0
 47 53  1  0  0  0  0
 48 71  1  0  0  0  0
 49 70  1  0  0  0  0
 50 53  1  0  0  0  0
 50 70  1  0  0  0  0
 51 74  1  0  0  0  0
 52 69  1  0  0  0  0
 53 68  1  0  0  0  0
 54 56  1  0  0  0  0
 54 71  1  0  0  0  0
 57 65  1  0  0  0  0
 58 66  1  0  0  0  0
 59 66  1  0  0  0  0
 60 66  1  0  0  0  0
 61 76  1  0  0  0  0
 62 83  1  0  0  0  0
 63 84  1  0  0  0  0
 64 66  1  0  0  0  0
 64 75  1  0  0  0  0
 65 76  1  0  0  0  0
 67 68  1  0  0  0  0
M  CHG  1  76   1
M  ISO  4  38 100  63 101  71 100  84 101
M  END
> <Batch ID>
0160

> <Smiles>
CNC(C)C(=O)NC(C(=O)N1Cc2cc([101O:1][101CH2:1]c3c(OC)cc4c(c3C)CC[100N:0]([100C:0](=O)N3CCCC(n5nc(-c6ccc(Oc7ccc(F)cc7F)cc6)c(C(N)=O)c5N)C3)C(C)C4)ccc2CC1C(=O)NC1CCCc2ccccc21)C(C)(C)C

> <Shape>
0.321

> <Color>
0.177

> <Negative vol penalty>
0.000

$$$$

  -OEChem-04052322093D

 85 94  0     1  0  0  0  0  0999 V2000
  -37.6107  -22.6835   22.0118 C   0  0  0  0  0  0  0  0  0  0  0  0
  -36.4246  -22.3379   21.3721 C   0  0  0  0  0  0  0  0  0  0  0  0
  -23.2891   -9.7940   19.9100 C   0  0  0  0  0  0  0  0  0  0  0  0
  -23.7108   -9.9425   22.2843 C   0  0  0  0  0  0  0  0  0  0  0  0
  -37.5765  -23.4600   23.1693 C   0  0  0  0  0  0  0  0  0  0  0  0
  -35.2034  -22.7677   21.8903 C   0  0  0  0  0  0  0  0  0  0  0  0
  -30.2041  -24.3320   18.7177 C   0  0  0  0  0  0  0  0  0  0  0  0
  -22.5546   -8.6258   20.1135 C   0  0  0  0  0  0  0  0  0  0  0  0
  -22.9762   -8.7743   22.4878 C   0  0  0  0  0  0  0  0  0  0  0  0
  -29.0392  -23.6353   18.3992 C   0  0  0  0  0  0  0  0  0  0  0  0
  -19.4555   -7.7847   21.1724 C   0  0  0  0  0  0  0  0  0  0  0  0
  -18.2341   -7.6632   20.5098 C   0  0  0  0  0  0  0  0  0  0  0  0
  -28.5315  -16.7735   17.8799 C   0  0  0  0  0  0  0  0  0  0  0  0
  -27.4678  -16.4055   15.3336 C   0  0  0  0  0  0  0  0  0  0  0  0
  -27.9295  -24.6372   20.2923 C   0  0  0  0  0  0  0  0  0  0  0  0
  -19.0404   -5.6818   19.3868 C   0  0  0  0  0  0  0  0  0  0  0  0
  -23.8673  -10.4523   20.9954 C   0  0  0  0  0  0  0  0  0  0  0  0
  -28.9291  -15.6806   17.1106 C   0  0  0  0  0  0  0  0  0  0  0  0
  -24.1413  -12.9802   20.7895 C   0  0  0  0  0  0  0  0  0  0  0  0
  -36.3549  -23.9076   23.6965 C   0  0  0  0  0  0  0  0  0  0  0  0
  -30.2437  -25.1796   19.8341 C   0  0  0  0  0  0  0  0  0  0  0  0
  -35.1528  -23.5498   23.0567 C   0  0  0  0  0  0  0  0  0  0  0  0
  -27.5907  -17.6909   17.3873 C   0  0  0  0  0  0  0  0  0  0  0  0
  -27.0672  -17.5149   16.0937 C   0  0  0  0  0  0  0  0  0  0  0  0
  -29.0953  -25.3455   20.6213 C   0  0  0  0  0  0  0  0  0  0  0  0
  -28.3956  -15.4953   15.8388 C   0  0  0  0  0  0  0  0  0  0  0  0
  -22.3981   -8.1160   21.4024 C   0  0  0  0  0  0  0  0  0  0  0  0
  -27.9025  -23.7856   19.1882 C   0  0  0  0  0  0  0  0  0  0  0  0
  -20.4694   -6.8547   20.9422 C   0  0  0  0  0  0  0  0  0  0  0  0
  -18.0266   -6.6118   19.6170 C   0  0  0  0  0  0  0  0  0  0  0  0
  -20.2618   -5.8033   20.0494 C   0  0  0  0  0  0  0  0  0  0  0  0
  -24.6266  -11.6587   20.7858 C   0  0  0  0  0  0  0  0  0  0  0  0
  -25.2496  -13.7537   20.5451 C   0  0  0  0  0  0  0  0  0  0  0  0
  -29.9128  -14.7423   17.6663 C   0  0  0  0  0  0  0  0  0  0  0  0
  -22.8078  -13.4651   20.9955 C   0  0  0  0  0  0  0  0  0  0  0  0
  -31.9147  -25.2522   22.5371 C   0  0  0  0  0  0  0  0  0  0  0  0
  -30.4010  -28.0927   22.9401 C   0  0  0  0  0  0  0  0  0  0  0  0
  -27.7243  -30.0788   22.2070 C   0  0  0  0  0  0  0  0  0  0  0  0
  -36.3653  -24.7052   24.9765 C   0  0  0  0  0  0  0  0  0  0  0  0
  -31.5000  -25.9446   20.1487 C   0  0  0  0  0  0  0  0  0  0  0  0
  -27.2119  -18.8783   18.2380 C   0  0  0  0  0  0  0  0  0  0  0  0
  -26.0372  -18.4576   15.5255 C   0  0  0  0  0  0  0  0  0  0  0  0
  -29.0798  -26.2590   21.8188 C   0  0  0  0  0  0  0  0  0  0  0  0
  -35.0525  -25.4343   25.2506 C   0  0  0  0  0  0  0  0  0  0  0  0
  -25.9701  -19.7955   16.2606 C   0  0  0  0  0  0  0  0  0  0  0  0
  -30.1643  -12.5628   20.4820 C   0  0  0  0  0  0  0  0  0  0  0  0
  -33.8669  -24.5007   25.0284 C   0  0  0  0  0  0  0  0  0  0  0  0
  -28.7075  -12.2241   20.8028 C   0  0  0  0  0  0  0  0  0  0  0  0
  -30.3923  -12.7036   18.9791 C   0  0  0  0  0  0  0  0  0  0  0  0
  -28.0264  -13.3234   18.6284 C   0  0  0  0  0  0  0  0  0  0  0  0
  -33.8099  -24.0177   23.5741 C   0  0  1  0  0  0  0  0  0  0  0  0
  -31.5822  -26.3846   21.6072 C   0  0  1  0  0  0  0  0  0  0  0  0
  -25.9234  -19.5747   17.7753 C   0  0  2  0  0  0  0  0  0  0  0  0
  -27.7428  -13.2228   20.1362 C   0  0  1  0  0  0  0  0  0  0  0  0
  -28.7994  -14.3314   14.9934 C   0  0  0  0  0  0  0  0  0  0  0  0
  -26.7457  -32.3328   22.7163 C   0  0  0  0  0  0  0  0  0  0  0  0
  -25.6619  -20.6258   20.0265 C   0  0  0  0  0  0  0  0  0  0  0  0
  -24.4069  -21.5333   18.0593 C   0  0  0  0  0  0  0  0  0  0  0  0
  -29.4907  -27.0781   25.6698 C   0  0  0  0  0  0  0  0  0  0  0  0
  -27.7896  -28.9146   25.7076 C   0  0  0  0  0  0  0  0  0  0  0  0
  -30.2205  -29.4699   25.6362 C   0  0  0  0  0  0  0  0  0  0  0  0
  -27.8677  -30.9106   19.3704 C   0  0  0  0  0  0  0  0  0  0  0  0
  -26.9168  -21.8432   18.2335 C   0  0  0  0  0  0  0  0  0  1  0  0
  -29.1022  -28.5318   23.5718 C   0  0  1  0  0  0  0  0  0  0  0  0
  -27.6360  -31.5324   21.7784 C   0  0  2  0  0  0  0  0  0  0  0  0
  -25.7308  -20.8970   18.5146 C   0  0  0  0  0  0  0  0  0  0  0  0
  -29.1513  -28.4798   25.1250 C   0  0  0  0  0  0  0  0  0  0  0  0
  -25.9409  -11.5928   20.5570 N   0  0  0  0  0  0  0  0  0  0  0  0
  -26.2908  -12.8825   20.4146 N   0  0  0  0  0  0  0  0  0  0  0  0
  -29.4408  -13.6498   18.3978 N   0  0  0  0  0  0  0  0  0  0  0  0
  -30.3344  -26.9804   22.0891 N   0  0  0  0  0  0  0  0  0  0  0  0
  -25.4253  -15.0874   20.4312 N   0  0  0  0  0  0  0  0  0  0  0  0
  -21.7877  -12.5340   21.2342 N   0  0  0  0  0  0  0  0  0  0  0  0
  -33.2700  -25.0527   22.7187 N   0  0  0  0  0  0  0  0  0  0  0  0
  -28.8095  -29.8532   23.0272 N   0  0  0  0  0  0  0  0  0  0  0  0
  -27.0776  -31.6331   20.4004 N   0  3  0  0  0  0  0  0  0  0  0  0
  -31.0953  -15.0035   17.4504 O   0  0  0  0  0  0  0  0  0  0  0  0
  -22.5262  -14.6867   20.9525 O   0  0  0  0  0  0  0  0  0  0  0  0
  -31.0088  -24.6081   23.0530 O   0  0  0  0  0  0  0  0  0  0  0  0
  -31.4353  -28.7181   23.1867 O   0  0  0  0  0  0  0  0  0  0  0  0
  -26.9098  -29.2293   21.8530 O   0  0  0  0  0  0  0  0  0  0  0  0
  -21.6812   -6.9762   21.6014 O   0  0  0  0  0  0  0  0  0  0  0  0
  -26.7644  -23.1063   18.8799 O   0  0  0  0  0  0  0  0  0  1  0  0
  -16.8531   -6.4944   18.9819 F   0  0  0  0  0  0  0  0  0  0  0  0
  -21.2317   -4.9062   19.8250 F   0  0  0  0  0  0  0  0  0  0  0  0
  1  2  1  0  0  0  0
  1  5  2  0  0  0  0
  2  6  2  0  0  0  0
  3  8  2  0  0  0  0
  3 17  1  0  0  0  0
  4  9  1  0  0  0  0
  4 17  2  0  0  0  0
  5 20  1  0  0  0  0
  6 22  1  0  0  0  0
  7 10  2  0  0  0  0
  7 21  1  0  0  0  0
  8 27  1  0  0  0  0
  9 27  2  0  0  0  0
 10 28  1  0  0  0  0
 11 12  2  0  0  0  0
 11 29  1  0  0  0  0
 12 30  1  0  0  0  0
 13 18  2  0  0  0  0
 13 23  1  0  0  0  0
 14 24  1  0  0  0  0
 14 26  2  0  0  0  0
 15 25  1  0  0  0  0
 15 28  2  0  0  0  0
 16 30  2  0  0  0  0
 16 31  1  0  0  0  0
 17 32  1  0  0  0  0
 18 26  1  0  0  0  0
 18 34  1  0  0  0  0
 19 32  1  0  0  0  0
 19 33  2  0  0  0  0
 19 35  1  0  0  0  0
 20 22  2  0  0  0  0
 20 39  1  0  0  0  0
 21 25  2  0  0  0  0
 21 40  1  0  0  0  0
 22 51  1  0  0  0  0
 23 24  2  0  0  0  0
 23 41  1  0  0  0  0
 24 42  1  0  0  0  0
 25 43  1  0  0  0  0
 26 55  1  0  0  0  0
 27 82  1  0  0  0  0
 28 83  1  0  0  0  0
 29 31  2  0  0  0  0
 29 82  1  0  0  0  0
 30 84  1  0  0  0  0
 31 85  1  0  0  0  0
 32 68  2  0  0  0  0
 33 69  1  0  0  0  0
 33 72  1  0  0  0  0
 34 70  1  0  0  0  0
 34 77  2  0  0  0  0
 35 73  1  0  0  0  0
 35 78  2  0  0  0  0
 36 52  1  0  0  0  0
 36 74  1  0  0  0  0
 36 79  2  0  0  0  0
 37 64  1  0  0  0  0
 37 71  1  0  0  0  0
 37 80  2  0  0  0  0
 38 65  1  0  0  0  0
 38 75  1  0  0  0  0
 38 81  2  0  0  0  0
 39 44  1  0  0  0  0
 40 52  1  0  0  0  0
 41 53  1  0  0  0  0
 42 45  1  0  0  0  0
 43 71  1  0  0  0  0
 44 47  1  0  0  0  0
 45 53  1  0  0  0  0
 46 48  1  0  0  0  0
 46 49  1  0  0  0  0
 47 51  1  0  0  0  0
 48 54  1  0  0  0  0
 49 70  1  0  0  0  0
 50 54  1  0  0  0  0
 50 70  1  0  0  0  0
 51 74  1  0  0  0  0
 52 71  1  0  0  0  0
 53 66  1  0  0  0  0
 54 69  1  0  0  0  0
 56 65  1  0  0  0  0
 57 66  1  0  0  0  0
 58 66  1  0  0  0  0
 59 67  1  0  0  0  0
 60 67  1  0  0  0  0
 61 67  1  0  0  0  0
 62 76  1  0  0  0  0
 63 66  1  0  0  0  0
 63 83  1  0  0  0  0
 64 67  1  0  0  0  0
 64 75  1  0  0  0  0
 65 76  1  0  0  0  0
 68 69  1  0  0  0  0
M  CHG  1  76   1
M  ISO  4  18 100  34 100  63 101  83 101
M  END
> <Batch ID>
0160

> <Smiles>
CNC(C)C(=O)NC(C(=O)N1Cc2cc([101O:1][101CH2:1]C(C)(C)C3CCc4cc(C)[100c:0]([100C:0](=O)N5CCCC(n6nc(-c7ccc(Oc8ccc(F)cc8F)cc7)c(C(N)=O)c6N)C5)cc4C3)ccc2CC1C(=O)NC1CCCc2ccccc21)C(C)(C)C

> <Shape>
0.191

> <Color>
0.177

> <Negative vol penalty>
0.000

$$$$

  -OEChem-04052322093D

 91100  0     1  0  0  0  0  0999 V2000
  -30.4567  -12.8974   19.6095 C   0  0  0  0  0  0  0  0  0  0  0  0
  -30.0218  -14.1971   19.3710 C   0  0  0  0  0  0  0  0  0  0  0  0
  -29.8841  -27.6097   21.5717 C   0  0  0  0  0  0  0  0  0  0  0  0
  -28.2988  -27.5711   19.7490 C   0  0  0  0  0  0  0  0  0  0  0  0
  -29.5267  -11.8748   19.7923 C   0  0  0  0  0  0  0  0  0  0  0  0
  -28.6565  -14.4749   19.3142 C   0  0  0  0  0  0  0  0  0  0  0  0
  -25.8594  -19.5905   21.1887 C   0  0  0  0  0  0  0  0  0  0  0  0
  -30.5036  -26.4709   21.0570 C   0  0  0  0  0  0  0  0  0  0  0  0
  -28.9184  -26.4323   19.2342 C   0  0  0  0  0  0  0  0  0  0  0  0
  -25.4164  -20.7217   20.5049 C   0  0  0  0  0  0  0  0  0  0  0  0
  -32.2810  -23.3633   20.4189 C   0  0  0  0  0  0  0  0  0  0  0  0
  -32.6109  -22.3432   21.3112 C   0  0  0  0  0  0  0  0  0  0  0  0
  -20.3944  -27.7183   22.1247 C   0  0  0  0  0  0  0  0  0  0  0  0
  -23.2020  -19.7728   20.3819 C   0  0  0  0  0  0  0  0  0  0  0  0
  -17.6695  -27.6429   22.7179 C   0  0  0  0  0  0  0  0  0  0  0  0
  -30.2817  -22.1142   21.9107 C   0  0  0  0  0  0  0  0  0  0  0  0
  -28.7816  -28.1597   20.9177 C   0  0  0  0  0  0  0  0  0  0  0  0
  -28.4472  -30.6777   21.1541 C   0  0  0  0  0  0  0  0  0  0  0  0
  -28.1493  -12.1420   19.7474 C   0  0  0  0  0  0  0  0  0  0  0  0
  -24.9782  -18.5353   21.4652 C   0  0  0  0  0  0  0  0  0  0  0  0
  -27.7072  -13.4548   19.4954 C   0  0  0  0  0  0  0  0  0  0  0  0
  -19.7184  -26.4984   22.1441 C   0  0  0  0  0  0  0  0  0  0  0  0
  -23.6357  -18.6304   21.0717 C   0  0  0  0  0  0  0  0  0  0  0  0
  -19.7080  -28.9006   22.4020 C   0  0  0  0  0  0  0  0  0  0  0  0
  -18.3455  -28.8628   22.6986 C   0  0  0  0  0  0  0  0  0  0  0  0
  -30.0208  -25.8822   19.8883 C   0  0  0  0  0  0  0  0  0  0  0  0
  -24.0882  -20.8118   20.0988 C   0  0  0  0  0  0  0  0  0  0  0  0
  -30.9514  -23.7589   20.2725 C   0  0  0  0  0  0  0  0  0  0  0  0
  -18.3560  -26.4607   22.4407 C   0  0  0  0  0  0  0  0  0  0  0  0
  -31.6113  -21.7187   22.0571 C   0  0  0  0  0  0  0  0  0  0  0  0
  -29.9518  -23.1343   21.0184 C   0  0  0  0  0  0  0  0  0  0  0  0
  -28.1408  -29.3357   21.4492 C   0  0  0  0  0  0  0  0  0  0  0  0
  -27.5606  -31.4063   21.9087 C   0  0  0  0  0  0  0  0  0  0  0  0
  -29.4441  -31.2173   20.2762 C   0  0  0  0  0  0  0  0  0  0  0  0
  -24.8327  -15.4642   20.6583 C   0  0  0  0  0  0  0  0  0  0  0  0
  -22.3401  -15.4387   22.7341 C   0  0  0  0  0  0  0  0  0  0  0  0
  -19.8881  -17.1880   24.3386 C   0  0  0  0  0  0  0  0  0  0  0  0
  -22.1602  -30.1691   24.1794 C   0  0  0  0  0  0  0  0  0  0  0  0
  -27.1820  -10.9955   19.9039 C   0  0  0  0  0  0  0  0  0  0  0  0
  -25.4653  -17.3335   22.2273 C   0  0  0  0  0  0  0  0  0  0  0  0
  -22.6447  -17.5340   21.3619 C   0  0  0  0  0  0  0  0  0  0  0  0
  -25.7525  -11.4409   20.2012 C   0  0  0  0  0  0  0  0  0  0  0  0
  -25.0544  -31.1996   25.9790 C   0  0  0  0  0  0  0  0  0  0  0  0
  -25.3390  -12.5699   19.2624 C   0  0  0  0  0  0  0  0  0  0  0  0
  -26.2012  -30.9599   24.9955 C   0  0  0  0  0  0  0  0  0  0  0  0
  -21.1170  -25.2881   20.4598 C   0  0  0  0  0  0  0  0  0  0  0  0
  -23.9770  -30.1236   25.8627 C   0  0  0  0  0  0  0  0  0  0  0  0
  -24.5937  -29.6828   23.5177 C   0  0  0  0  0  0  0  0  0  0  0  0
  -20.4669  -25.2462   21.8440 C   0  0  1  0  0  0  0  0  0  0  0  0
  -26.2345  -13.8003   19.4512 C   0  0  1  0  0  0  0  0  0  0  0  0
  -24.6040  -16.0944   22.0030 C   0  0  1  0  0  0  0  0  0  0  0  0
  -25.6779  -30.7733   23.5586 C   0  0  2  0  0  0  0  0  0  0  0  0
  -22.1283  -24.1514   20.5291 C   0  0  1  0  0  0  0  0  0  0  0  0
  -21.6732  -25.0440   22.7698 C   0  0  1  0  0  0  0  0  0  0  0  0
  -17.5908  -30.1157   23.0005 C   0  0  0  0  0  0  0  0  0  0  0  0
  -21.3446  -24.3580   24.0838 C   0  0  0  0  0  0  0  0  0  0  0  0
  -20.4400  -30.8623   20.9958 C   0  0  0  0  0  0  0  0  0  0  0  0
  -17.9821  -16.8876   25.9431 C   0  0  0  0  0  0  0  0  0  0  0  0
  -22.8277  -24.4148   18.1332 C   0  0  0  0  0  0  0  0  0  0  0  0
  -20.6547  -14.2221   20.5004 C   0  0  0  0  0  0  0  0  0  0  0  0
  -18.6085  -14.8235   21.8117 C   0  0  0  0  0  0  0  0  0  0  0  0
  -20.2698  -13.2226   22.7604 C   0  0  0  0  0  0  0  0  0  0  0  0
  -21.1188  -19.0076   26.3219 C   0  0  0  0  0  0  0  0  0  0  0  0
  -16.2904  -25.3311   22.7769 C   0  0  0  0  0  0  0  0  0  0  0  0
  -24.3053  -23.1500   19.7224 C   0  0  0  0  0  0  0  0  0  1  0  0
  -20.4538  -30.1943   22.3775 C   0  0  2  0  0  0  0  0  0  0  0  0
  -20.8538  -15.6786   22.6229 C   0  0  1  0  0  0  0  0  0  0  0  0
  -19.4594  -17.2167   25.7946 C   0  0  2  0  0  0  0  0  0  0  0  0
  -23.3155  -24.3090   19.5765 C   0  0  2  0  0  0  0  0  0  0  0  0
  -20.1156  -14.5067   21.9165 C   0  0  0  0  0  0  0  0  0  0  0  0
  -27.1380  -29.2161   22.3233 N   0  0  0  0  0  0  0  0  0  0  0  0
  -26.8066  -30.4921   22.5839 N   0  0  0  0  0  0  0  0  0  0  0  0
  -23.1707  -16.3764   22.1042 N   0  0  0  0  0  0  0  0  0  0  0  0
  -23.5225  -29.9979   24.4758 N   0  0  0  0  0  0  0  0  0  0  0  0
  -27.3602  -32.7334   22.0539 N   0  0  0  0  0  0  0  0  0  0  0  0
  -30.2709  -30.3275   19.5769 N   0  0  0  0  0  0  0  0  0  0  0  0
  -25.8491  -14.5281   20.6412 N   0  0  0  0  0  0  0  0  0  0  0  0
  -20.3823  -15.9528   23.9760 N   0  0  0  0  0  0  0  0  0  0  0  0
  -21.8152  -30.0396   22.8397 N   0  0  0  0  0  0  0  0  0  0  0  0
  -22.6041  -24.1702   21.9598 N   0  3  0  0  0  0  0  0  0  0  0  0
  -19.7015  -18.5659   26.3793 N   0  3  0  0  0  0  0  0  0  0  0  0
  -29.6080  -32.4522   20.1291 O   0  0  0  0  0  0  0  0  0  0  0  0
  -24.1376  -15.8012   19.7071 O   0  0  0  0  0  0  0  0  0  0  0  0
  -22.7493  -14.4595   23.3628 O   0  0  0  0  0  0  0  0  0  0  0  0
  -19.7906  -18.1625   23.5962 O   0  0  0  0  0  0  0  0  0  0  0  0
  -21.3149  -30.4241   25.0439 O   0  0  0  0  0  0  0  0  0  0  0  0
  -30.6253  -24.7712   19.3856 O   0  0  0  0  0  0  0  0  0  0  0  0
  -17.6809  -25.2775   22.4645 O   0  0  0  0  0  0  0  0  0  0  0  0
  -23.6533  -21.9146   19.4306 O   0  0  0  0  0  0  0  0  0  1  0  0
  -31.9281  -20.7381   22.9128 F   0  0  0  0  0  0  0  0  0  0  0  0
  -28.6725  -23.5092   20.8812 F   0  0  0  0  0  0  0  0  0  0  0  0
  1  2  1  0  0  0  0
  1  5  2  0  0  0  0
  2  6  2  0  0  0  0
  3  8  2  0  0  0  0
  3 17  1  0  0  0  0
  4  9  1  0  0  0  0
  4 17  2  0  0  0  0
  5 19  1  0  0  0  0
  6 21  1  0  0  0  0
  7 10  2  0  0  0  0
  7 20  1  0  0  0  0
  8 26  1  0  0  0  0
  9 26  2  0  0  0  0
 10 27  1  0  0  0  0
 11 12  2  0  0  0  0
 11 28  1  0  0  0  0
 12 30  1  0  0  0  0
 13 22  1  0  0  0  0
 13 24  2  0  0  0  0
 14 23  1  0  0  0  0
 14 27  2  0  0  0  0
 15 25  2  0  0  0  0
 15 29  1  0  0  0  0
 16 30  2  0  0  0  0
 16 31  1  0  0  0  0
 17 32  1  0  0  0  0
 18 32  1  0  0  0  0
 18 33  2  0  0  0  0
 18 34  1  0  0  0  0
 19 21  2  0  0  0  0
 19 39  1  0  0  0  0
 20 23  2  0  0  0  0
 20 40  1  0  0  0  0
 21 50  1  0  0  0  0
 22 29  2  0  0  0  0
 22 49  1  0  0  0  0
 23 41  1  0  0  0  0
 24 25  1  0  0  0  0
 24 66  1  0  0  0  0
 25 55  1  0  0  0  0
 26 87  1  0  0  0  0
 27 89  1  0  0  0  0
 28 31  2  0  0  0  0
 28 87  1  0  0  0  0
 29 88  1  0  0  0  0
 30 90  1  0  0  0  0
 31 91  1  0  0  0  0
 32 71  2  0  0  0  0
 33 72  1  0  0  0  0
 33 75  1  0  0  0  0
 34 76  1  0  0  0  0
 34 82  2  0  0  0  0
 35 51  1  0  0  0  0
 35 77  1  0  0  0  0
 35 83  2  0  0  0  0
 36 67  1  0  0  0  0
 36 73  1  0  0  0  0
 36 84  2  0  0  0  0
 37 68  1  0  0  0  0
 37 78  1  0  0  0  0
 37 85  2  0  0  0  0
 38 74  1  0  0  0  0
 38 79  1  0  0  0  0
 38 86  2  0  0  0  0
 39 42  1  0  0  0  0
 40 51  1  0  0  0  0
 41 73  1  0  0  0  0
 42 44  1  0  0  0  0
 43 45  1  0  0  0  0
 43 47  1  0  0  0  0
 44 50  1  0  0  0  0
 45 52  1  0  0  0  0
 46 49  1  0  0  0  0
 46 53  1  0  0  0  0
 47 74  1  0  0  0  0
 48 52  1  0  0  0  0
 48 74  1  0  0  0  0
 49 54  1  0  0  0  0
 50 77  1  0  0  0  0
 51 73  1  0  0  0  0
 52 72  1  0  0  0  0
 53 69  1  0  0  0  0
 53 80  1  0  0  0  0
 54 56  1  0  0  0  0
 54 80  1  0  0  0  0
 57 66  1  0  0  0  0
 58 68  1  0  0  0  0
 59 69  1  0  0  0  0
 60 70  1  0  0  0  0
 61 70  1  0  0  0  0
 62 70  1  0  0  0  0
 63 81  1  0  0  0  0
 64 88  1  0  0  0  0
 65 69  1  0  0  0  0
 65 89  1  0  0  0  0
 66 79  1  0  0  0  0
 67 70  1  0  0  0  0
 67 78  1  0  0  0  0
 68 81  1  0  0  0  0
 71 72  1  0  0  0  0
M  CHG  2  80   1  81   1
M  ISO  4  38 100  65 101  79 100  89 101
M  END
> <Batch ID>
0160

> <Smiles>
CNC(C)C(=O)NC(C(=O)N1Cc2cc([101O:1][101CH2:1]C(C)C3CC(c4cc(C(C)[100NH:0][100C:0](=O)N5CCCC(n6nc(-c7ccc(Oc8ccc(F)cc8F)cc7)c(C(N)=O)c6N)C5)c(C)cc4OC)C(C)N3)ccc2CC1C(=O)NC1CCCc2ccccc21)C(C)(C)C

> <Shape>
0.234

> <Color>
0.063

> <Negative vol penalty>
0.000

$$$$

  -OEChem-04052322093D

 86 95  0     1  0  0  0  0  0999 V2000
  -29.7995  -23.2739   16.6993 C   0  0  0  0  0  0  0  0  0  0  0  0
  -28.5868  -23.8996   16.9657 C   0  0  0  0  0  0  0  0  0  0  0  0
  -26.7415  -12.9659   20.5982 C   0  0  0  0  0  0  0  0  0  0  0  0
  -25.2198  -14.5284   19.5588 C   0  0  0  0  0  0  0  0  0  0  0  0
  -30.8709  -23.4375   17.5748 C   0  0  0  0  0  0  0  0  0  0  0  0
  -28.4488  -24.6985   18.1013 C   0  0  0  0  0  0  0  0  0  0  0  0
  -24.2516  -27.2237   18.5604 C   0  0  0  0  0  0  0  0  0  0  0  0
  -25.8694  -11.9187   20.3007 C   0  0  0  0  0  0  0  0  0  0  0  0
  -24.3477  -13.4812   19.2613 C   0  0  0  0  0  0  0  0  0  0  0  0
  -23.0352  -26.6148   18.8659 C   0  0  0  0  0  0  0  0  0  0  0  0
  -22.9982  -10.6396   21.5435 C   0  0  0  0  0  0  0  0  0  0  0  0
  -22.7403   -9.7069   22.5480 C   0  0  0  0  0  0  0  0  0  0  0  0
  -23.0273  -22.6002   22.6464 C   0  0  0  0  0  0  0  0  0  0  0  0
  -23.2151  -27.4085   21.1367 C   0  0  0  0  0  0  0  0  0  0  0  0
  -23.6168   -7.9493   21.1409 C   0  0  0  0  0  0  0  0  0  0  0  0
  -26.4166  -14.2708   20.2272 C   0  0  0  0  0  0  0  0  0  0  0  0
  -28.3654  -15.8407   19.7320 C   0  0  0  0  0  0  0  0  0  0  0  0
  -30.7413  -24.2289   18.7280 C   0  0  0  0  0  0  0  0  0  0  0  0
  -24.9654  -27.9216   19.5452 C   0  0  0  0  0  0  0  0  0  0  0  0
  -29.5257  -24.8953   18.9845 C   0  0  0  0  0  0  0  0  0  0  0  0
  -22.2452  -22.8237   21.5132 C   0  0  0  0  0  0  0  0  0  0  0  0
  -24.4390  -28.0276   20.8405 C   0  0  0  0  0  0  0  0  0  0  0  0
  -24.3963  -22.3680   22.5142 C   0  0  0  0  0  0  0  0  0  0  0  0
  -22.8322  -22.8149   20.2479 C   0  0  0  0  0  0  0  0  0  0  0  0
  -24.9833  -22.3591   21.2489 C   0  0  0  0  0  0  0  0  0  0  0  0
  -24.2012  -22.5826   20.1157 C   0  0  0  0  0  0  0  0  0  0  0  0
  -24.6726  -12.1763   19.6323 C   0  0  0  0  0  0  0  0  0  0  0  0
  -22.5182  -26.7047   20.1549 C   0  0  0  0  0  0  0  0  0  0  0  0
  -23.5653  -10.2273   20.3377 C   0  0  0  0  0  0  0  0  0  0  0  0
  -23.0497   -8.3617   22.3467 C   0  0  0  0  0  0  0  0  0  0  0  0
  -23.8747   -8.8821   20.1364 C   0  0  0  0  0  0  0  0  0  0  0  0
  -27.3168  -15.3530   20.5347 C   0  0  0  0  0  0  0  0  0  0  0  0
  -28.9129  -16.8639   20.4667 C   0  0  0  0  0  0  0  0  0  0  0  0
  -28.8052  -15.4075   18.4379 C   0  0  0  0  0  0  0  0  0  0  0  0
  -27.8206  -27.5926   20.9029 C   0  0  0  0  0  0  0  0  0  0  0  0
  -27.0452  -30.4116   22.3078 C   0  0  0  0  0  0  0  0  0  0  0  0
  -24.6021  -32.5685   23.3207 C   0  0  0  0  0  0  0  0  0  0  0  0
  -26.7242  -20.4378   24.7431 C   0  0  0  0  0  0  0  0  0  0  0  0
  -31.9355  -24.3781   19.6373 C   0  0  0  0  0  0  0  0  0  0  0  0
  -26.2631  -28.5955   19.1928 C   0  0  0  0  0  0  0  0  0  0  0  0
  -25.1564  -28.7825   21.9287 C   0  0  0  0  0  0  0  0  0  0  0  0
  -31.5634  -24.8744   21.0307 C   0  0  0  0  0  0  0  0  0  0  0  0
  -29.5609  -18.2997   24.9843 C   0  0  0  0  0  0  0  0  0  0  0  0
  -30.6643  -26.0971   20.9240 C   0  0  0  0  0  0  0  0  0  0  0  0
  -29.4021  -17.3461   23.7989 C   0  0  0  0  0  0  0  0  0  0  0  0
  -20.2735  -23.5728   23.0071 C   0  0  0  0  0  0  0  0  0  0  0  0
  -28.2127  -18.6559   25.6067 C   0  0  0  0  0  0  0  0  0  0  0  0
  -27.0543  -18.2296   23.4736 C   0  0  0  0  0  0  0  0  0  0  0  0
  -20.7914  -23.0681   21.6801 C   0  0  1  0  0  0  0  0  0  0  0  0
  -29.3429  -25.7443   20.2295 C   0  0  1  0  0  0  0  0  0  0  0  0
  -27.1555  -28.8445   20.4048 C   0  0  1  0  0  0  0  0  0  0  0  0
  -28.3824  -17.8857   22.7779 C   0  0  2  0  0  0  0  0  0  0  0  0
  -20.2337  -24.4836   21.8073 C   0  0  1  0  0  0  0  0  0  0  0  0
  -21.9927  -23.0549   19.0327 C   0  0  0  0  0  0  0  0  0  0  0  0
  -26.4522  -22.1112   21.1107 C   0  0  0  0  0  0  0  0  0  0  0  0
  -24.8320  -22.5734   18.7591 C   0  0  0  0  0  0  0  0  0  0  0  0
  -18.8935  -24.7574   21.1751 C   0  0  0  0  0  0  0  0  0  0  0  0
  -24.2749  -34.7736   24.4731 C   0  0  0  0  0  0  0  0  0  0  0  0
  -27.6416  -29.0934   24.9942 C   0  0  0  0  0  0  0  0  0  0  0  0
  -26.4148  -30.9699   26.1086 C   0  0  0  0  0  0  0  0  0  0  0  0
  -28.4712  -31.4428   24.7780 C   0  0  0  0  0  0  0  0  0  0  0  0
  -23.2869  -33.7463   20.9454 C   0  0  0  0  0  0  0  0  0  0  0  0
  -25.2117  -22.1326   23.7434 C   0  0  0  0  0  0  0  0  0  0  0  0
  -21.1549  -25.6546   21.7966 C   0  0  0  0  0  0  0  0  0  1  0  0
  -26.3363  -30.8134   23.5787 C   0  0  1  0  0  0  0  0  0  0  0  0
  -24.4416  -34.0668   23.1369 C   0  0  2  0  0  0  0  0  0  0  0  0
  -27.2031  -30.5640   24.8451 C   0  0  0  0  0  0  0  0  0  0  0  0
  -27.2031  -16.0122   21.6909 N   0  0  0  0  0  0  0  0  0  0  0  0
  -28.1874  -16.9244   21.6200 N   0  0  0  0  0  0  0  0  0  0  0  0
  -26.4247  -29.4188   21.5363 N   0  0  0  0  0  0  0  0  0  0  0  0
  -27.2923  -19.1628   24.5859 N   0  0  0  0  0  0  0  0  0  0  0  0
  -29.9394  -17.7088   20.2322 N   0  0  0  0  0  0  0  0  0  0  0  0
  -28.1313  -14.3423   17.8252 N   0  0  0  0  0  0  0  0  0  0  0  0
  -28.6110  -26.9625   19.9607 N   0  0  0  0  0  0  0  0  0  0  0  0
  -25.9293  -32.2026   23.3973 N   0  0  0  0  0  0  0  0  0  0  0  0
  -25.8679  -20.8442   23.7270 N   0  0  0  0  0  0  0  0  0  0  0  0
  -23.2458  -34.3606   22.2974 N   0  3  0  0  0  0  0  0  0  0  0  0
  -29.7778  -15.9382   17.8498 O   0  0  0  0  0  0  0  0  0  0  0  0
  -27.6320  -27.2263   22.0569 O   0  0  0  0  0  0  0  0  0  0  0  0
  -28.1065  -30.9636   22.0070 O   0  0  0  0  0  0  0  0  0  0  0  0
  -23.6456  -31.8001   23.3931 O   0  0  0  0  0  0  0  0  0  0  0  0
  -26.9665  -21.1626   25.7141 O   0  0  0  0  0  0  0  0  0  0  0  0
  -23.8215  -11.1547   19.3417 O   0  0  0  0  0  0  0  0  0  0  0  0
  -21.3314  -26.1107   20.4560 O   0  0  0  0  0  0  0  0  0  1  0  0
  -22.8034   -7.4663   23.3120 F   0  0  0  0  0  0  0  0  0  0  0  0
  -24.4207   -8.4801   18.9805 F   0  0  0  0  0  0  0  0  0  0  0  0
  1  2  1  0  0  0  0
  1  5  2  0  0  0  0
  2  6  2  0  0  0  0
  3  8  2  0  0  0  0
  3 16  1  0  0  0  0
  4  9  1  0  0  0  0
  4 16  2  0  0  0  0
  5 18  1  0  0  0  0
  6 20  1  0  0  0  0
  7 10  2  0  0  0  0
  7 19  1  0  0  0  0
  8 27  1  0  0  0  0
  9 27  2  0  0  0  0
 10 28  1  0  0  0  0
 11 12  2  0  0  0  0
 11 29  1  0  0  0  0
 12 30  1  0  0  0  0
 13 21  1  0  0  0  0
 13 23  2  0  0  0  0
 14 22  1  0  0  0  0
 14 28  2  0  0  0  0
 15 30  2  0  0  0  0
 15 31  1  0  0  0  0
 16 32  1  0  0  0  0
 17 32  1  0  0  0  0
 17 33  2  0  0  0  0
 17 34  1  0  0  0  0
 18 20  2  0  0  0  0
 18 39  1  0  0  0  0
 19 22  2  0  0  0  0
 19 40  1  0  0  0  0
 20 50  1  0  0  0  0
 21 24  2  0  0  0  0
 21 49  1  0  0  0  0
 22 41  1  0  0  0  0
 23 25  1  0  0  0  0
 23 63  1  0  0  0  0
 24 26  1  0  0  0  0
 24 54  1  0  0  0  0
 25 26  2  0  0  0  0
 25 55  1  0  0  0  0
 26 56  1  0  0  0  0
 27 83  1  0  0  0  0
 28 84  1  0  0  0  0
 29 31  2  0  0  0  0
 29 83  1  0  0  0  0
 30 85  1  0  0  0  0
 31 86  1  0  0  0  0
 32 68  2  0  0  0  0
 33 69  1  0  0  0  0
 33 72  1  0  0  0  0
 34 73  1  0  0  0  0
 34 78  2  0  0  0  0
 35 51  1  0  0  0  0
 35 74  1  0  0  0  0
 35 79  2  0  0  0  0
 36 65  1  0  0  0  0
 36 70  1  0  0  0  0
 36 80  2  0  0  0  0
 37 66  1  0  0  0  0
 37 75  1  0  0  0  0
 37 81  2  0  0  0  0
 38 71  1  0  0  0  0
 38 76  1  0  0  0  0
 38 82  2  0  0  0  0
 39 42  1  0  0  0  0
 40 51  1  0  0  0  0
 41 70  1  0  0  0  0
 42 44  1  0  0  0  0
 43 45  1  0  0  0  0
 43 47  1  0  0  0  0
 44 50  1  0  0  0  0
 45 52  1  0  0  0  0
 46 49  1  0  0  0  0
 46 53  1  0  0  0  0
 47 71  1  0  0  0  0
 48 52  1  0  0  0  0
 48 71  1  0  0  0  0
 49 53  1  0  0  0  0
 50 74  1  0  0  0  0
 51 70  1  0  0  0  0
 52 69  1  0  0  0  0
 53 57  1  0  0  0  0
 53 64  1  0  0  0  0
 58 66  1  0  0  0  0
 59 67  1  0  0  0  0
 60 67  1  0  0  0  0
 61 67  1  0  0  0  0
 62 77  1  0  0  0  0
 63 76  1  0  0  0  0
 64 84  1  0  0  0  0
 65 67  1  0  0  0  0
 65 75  1  0  0  0  0
 66 77  1  0  0  0  0
 68 69  1  0  0  0  0
M  CHG  1  77   1
M  ISO  4  38 100  64 101  76 100  84 101
M  END
> <Batch ID>
0160

> <Smiles>
CNC(C)C(=O)NC(C(=O)N1Cc2cc([101O:1][101CH2:1]C3(C)CC3c3cc(C[100NH:0][100C:0](=O)N4CCCC(n5nc(-c6ccc(Oc7ccc(F)cc7F)cc6)c(C(N)=O)c5N)C4)c(C)c(C)c3C)ccc2CC1C(=O)NC1CCCc2ccccc21)C(C)(C)C

> <Shape>
0.246

> <Color>
0.076

> <Negative vol penalty>
0.000

$$$$

  -OEChem-04052322093D

 89 98  0     1  0  0  0  0  0999 V2000
  -25.5512  -22.9534   17.2018 C   0  0  0  0  0  0  0  0  0  0  0  0
  -24.5200  -23.5020   17.9574 C   0  0  0  0  0  0  0  0  0  0  0  0
  -23.3610  -10.2302   22.3163 C   0  0  0  0  0  0  0  0  0  0  0  0
  -23.7764   -9.8715   19.9634 C   0  0  0  0  0  0  0  0  0  0  0  0
  -26.8779  -23.1875   17.5611 C   0  0  0  0  0  0  0  0  0  0  0  0
  -24.8148  -24.2841   19.0736 C   0  0  0  0  0  0  0  0  0  0  0  0
  -22.0191  -28.5013   19.2839 C   0  0  0  0  0  0  0  0  0  0  0  0
  -22.6352   -9.0403   22.3696 C   0  0  0  0  0  0  0  0  0  0  0  0
  -23.0506   -8.6815   20.0167 C   0  0  0  0  0  0  0  0  0  0  0  0
  -20.7047  -28.3723   19.7306 C   0  0  0  0  0  0  0  0  0  0  0  0
  -19.5415   -7.9703   21.5280 C   0  0  0  0  0  0  0  0  0  0  0  0
  -18.3232   -7.9850   22.2071 C   0  0  0  0  0  0  0  0  0  0  0  0
  -21.3762  -29.1510   21.9128 C   0  0  0  0  0  0  0  0  0  0  0  0
  -19.5946  -25.9225   22.2425 C   0  0  0  0  0  0  0  0  0  0  0  0
  -19.3362  -23.9417   20.2951 C   0  0  0  0  0  0  0  0  0  0  0  0
  -19.1477   -6.2940   23.7229 C   0  0  0  0  0  0  0  0  0  0  0  0
  -23.9315  -10.6459   21.1132 C   0  0  0  0  0  0  0  0  0  0  0  0
  -26.0618  -12.0398   21.2758 C   0  0  0  0  0  0  0  0  0  0  0  0
  -27.1893  -23.9809   18.6766 C   0  0  0  0  0  0  0  0  0  0  0  0
  -23.0257  -28.9466   20.1529 C   0  0  0  0  0  0  0  0  0  0  0  0
  -26.1469  -24.5280   19.4489 C   0  0  0  0  0  0  0  0  0  0  0  0
  -22.7021  -29.2873   21.4740 C   0  0  0  0  0  0  0  0  0  0  0  0
  -18.9021  -26.1913   21.0620 C   0  0  0  0  0  0  0  0  0  0  0  0
  -20.1580  -24.6633   22.4494 C   0  0  0  0  0  0  0  0  0  0  0  0
  -18.7729  -25.2009   20.0883 C   0  0  0  0  0  0  0  0  0  0  0  0
  -22.4801   -8.2659   21.2199 C   0  0  0  0  0  0  0  0  0  0  0  0
  -20.3836  -28.6944   21.0460 C   0  0  0  0  0  0  0  0  0  0  0  0
  -20.5629   -7.1174   21.9463 C   0  0  0  0  0  0  0  0  0  0  0  0
  -20.0287  -23.6729   21.4757 C   0  0  0  0  0  0  0  0  0  0  0  0
  -18.1263   -7.1469   23.3045 C   0  0  0  0  0  0  0  0  0  0  0  0
  -20.3660   -6.2793   23.0438 C   0  0  0  0  0  0  0  0  0  0  0  0
  -24.6809  -11.8753   21.0573 C   0  0  0  0  0  0  0  0  0  0  0  0
  -26.2780  -13.3858   21.1079 C   0  0  0  0  0  0  0  0  0  0  0  0
  -27.0599  -11.0633   21.6013 C   0  0  0  0  0  0  0  0  0  0  0  0
  -25.7130  -27.6958   21.3008 C   0  0  0  0  0  0  0  0  0  0  0  0
  -26.1054  -30.6663   22.5435 C   0  0  0  0  0  0  0  0  0  0  0  0
  -24.6737  -33.5858   23.5795 C   0  0  0  0  0  0  0  0  0  0  0  0
  -22.9951  -18.0928   21.7820 C   0  0  0  0  0  0  0  0  0  0  0  0
  -28.6377  -24.1669   19.0535 C   0  0  0  0  0  0  0  0  0  0  0  0
  -24.4336  -29.1058   19.6482 C   0  0  0  0  0  0  0  0  0  0  0  0
  -23.7421  -29.7891   22.4409 C   0  0  0  0  0  0  0  0  0  0  0  0
  -28.8699  -25.3158   20.0314 C   0  0  0  0  0  0  0  0  0  0  0  0
  -24.5791  -17.1978   18.7800 C   0  0  0  0  0  0  0  0  0  0  0  0
  -27.8612  -25.2563   21.1741 C   0  0  0  0  0  0  0  0  0  0  0  0
  -24.9246  -15.7325   19.0443 C   0  0  0  0  0  0  0  0  0  0  0  0
  -22.8954  -21.7795   21.4003 C   0  0  0  0  0  0  0  0  0  0  0  0
  -21.0651  -20.7542   19.9832 C   0  0  0  0  0  0  0  0  0  0  0  0
  -23.1926  -17.5646   19.3119 C   0  0  0  0  0  0  0  0  0  0  0  0
  -22.9103  -20.5124   22.2539 C   0  0  0  0  0  0  0  0  0  0  0  0
  -21.1193  -19.5129   20.8709 C   0  0  0  0  0  0  0  0  0  0  0  0
  -23.3342  -15.7658   21.0033 C   0  0  0  0  0  0  0  0  0  0  0  0
  -26.4268  -25.4023   20.6520 C   0  0  1  0  0  0  0  0  0  0  0  0
  -25.4747  -29.0784   20.7630 C   0  0  1  0  0  0  0  0  0  0  0  0
  -24.7457  -15.3824   20.5323 C   0  0  1  0  0  0  0  0  0  0  0  0
  -21.5507  -22.0096   20.7096 C   0  0  0  0  0  0  0  0  0  0  0  0
  -18.0361  -25.4650   18.8163 C   0  0  0  0  0  0  0  0  0  0  0  0
  -19.9909  -24.5130   24.9600 C   0  0  0  0  0  0  0  0  0  0  0  0
  -22.1326  -25.2940   23.8837 C   0  0  0  0  0  0  0  0  0  0  0  0
  -16.8835  -27.6571   21.4080 C   0  0  0  0  0  0  0  0  0  0  0  0
  -25.2467  -35.8136   24.5825 C   0  0  0  0  0  0  0  0  0  0  0  0
  -26.4779  -29.3416   25.2668 C   0  0  0  0  0  0  0  0  0  0  0  0
  -26.0942  -31.5763   26.3286 C   0  0  0  0  0  0  0  0  0  0  0  0
  -28.0417  -31.2383   24.8067 C   0  0  0  0  0  0  0  0  0  0  0  0
  -23.6136  -35.0452   21.2331 C   0  0  0  0  0  0  0  0  0  0  0  0
  -20.8950  -24.3927   23.7194 C   0  0  0  0  0  0  0  0  0  0  0  0
  -18.3086  -27.5471   20.8615 C   0  0  1  0  0  0  0  0  0  1  0  0
  -25.7113  -31.3467   23.8322 C   0  0  1  0  0  0  0  0  0  0  0  0
  -25.0230  -35.0355   23.2951 C   0  0  2  0  0  0  0  0  0  0  0  0
  -26.5618  -30.8644   25.0412 C   0  0  0  0  0  0  0  0  0  0  0  0
  -24.0633  -13.0249   20.7725 N   0  0  0  0  0  0  0  0  0  0  0  0
  -25.0608  -13.9247   20.8110 N   0  0  0  0  0  0  0  0  0  0  0  0
  -25.1056  -29.9218   21.9018 N   0  0  0  0  0  0  0  0  0  0  0  0
  -23.0565  -17.1759   20.7219 N   0  0  0  0  0  0  0  0  0  0  0  0
  -22.4362  -19.3512   21.5017 N   0  0  0  0  0  0  0  0  0  0  0  0
  -27.3887  -14.1491   21.1869 N   0  0  0  0  0  0  0  0  0  0  0  0
  -26.6662   -9.7250   21.7366 N   0  0  0  0  0  0  0  0  0  0  0  0
  -26.1375  -26.7877   20.3497 N   0  0  0  0  0  0  0  0  0  0  0  0
  -25.7932  -32.7810   23.5782 N   0  0  0  0  0  0  0  0  0  0  0  0
  -23.9241  -35.6934   22.5333 N   0  3  0  0  0  0  0  0  0  0  0  0
  -28.2623  -11.3710   21.7834 O   0  0  0  0  0  0  0  0  0  0  0  0
  -25.5270  -27.4700   22.4908 O   0  0  0  0  0  0  0  0  0  0  0  0
  -27.2560  -30.7967   22.1182 O   0  0  0  0  0  0  0  0  0  0  0  0
  -23.5232  -33.2061   23.7860 O   0  0  0  0  0  0  0  0  0  0  0  0
  -23.4165  -17.8085   22.9102 O   0  0  0  0  0  0  0  0  0  0  0  0
  -21.7721   -7.1045   21.2716 O   0  0  0  0  0  0  0  0  0  0  0  0
  -20.5771  -22.4314   21.6623 O   0  0  0  0  0  0  0  0  0  0  0  0
  -19.0976  -28.5683   21.4861 O   0  0  0  0  0  0  0  0  0  1  0  0
  -16.9569   -7.1622   23.9575 F   0  0  0  0  0  0  0  0  0  0  0  0
  -21.3440   -5.4586   23.4511 F   0  0  0  0  0  0  0  0  0  0  0  0
  1  2  1  0  0  0  0
  1  5  2  0  0  0  0
  2  6  2  0  0  0  0
  3  8  2  0  0  0  0
  3 17  1  0  0  0  0
  4  9  1  0  0  0  0
  4 17  2  0  0  0  0
  5 19  1  0  0  0  0
  6 21  1  0  0  0  0
  7 10  2  0  0  0  0
  7 20  1  0  0  0  0
  8 26  1  0  0  0  0
  9 26  2  0  0  0  0
 10 27  1  0  0  0  0
 11 12  2  0  0  0  0
 11 28  1  0  0  0  0
 12 30  1  0  0  0  0
 13 22  1  0  0  0  0
 13 27  2  0  0  0  0
 14 23  1  0  0  0  0
 14 24  2  0  0  0  0
 15 25  1  0  0  0  0
 15 29  2  0  0  0  0
 16 30  2  0  0  0  0
 16 31  1  0  0  0  0
 17 32  1  0  0  0  0
 18 32  1  0  0  0  0
 18 33  2  0  0  0  0
 18 34  1  0  0  0  0
 19 21  2  0  0  0  0
 19 39  1  0  0  0  0
 20 22  2  0  0  0  0
 20 40  1  0  0  0  0
 21 52  1  0  0  0  0
 22 41  1  0  0  0  0
 23 25  2  0  0  0  0
 23 66  1  0  0  0  0
 24 29  1  0  0  0  0
 24 65  1  0  0  0  0
 25 56  1  0  0  0  0
 26 85  1  0  0  0  0
 27 87  1  0  0  0  0
 28 31  2  0  0  0  0
 28 85  1  0  0  0  0
 29 86  1  0  0  0  0
 30 88  1  0  0  0  0
 31 89  1  0  0  0  0
 32 70  2  0  0  0  0
 33 71  1  0  0  0  0
 33 75  1  0  0  0  0
 34 76  1  0  0  0  0
 34 80  2  0  0  0  0
 35 53  1  0  0  0  0
 35 77  1  0  0  0  0
 35 81  2  0  0  0  0
 36 67  1  0  0  0  0
 36 72  1  0  0  0  0
 36 82  2  0  0  0  0
 37 68  1  0  0  0  0
 37 78  1  0  0  0  0
 37 83  2  0  0  0  0
 38 73  1  0  0  0  0
 38 74  1  0  0  0  0
 38 84  2  0  0  0  0
 39 42  1  0  0  0  0
 40 53  1  0  0  0  0
 41 72  1  0  0  0  0
 42 44  1  0  0  0  0
 43 45  1  0  0  0  0
 43 48  1  0  0  0  0
 44 52  1  0  0  0  0
 45 54  1  0  0  0  0
 46 49  1  0  0  0  0
 46 55  1  0  0  0  0
 47 50  1  0  0  0  0
 47 55  1  0  0  0  0
 48 73  1  0  0  0  0
 49 74  1  0  0  0  0
 50 74  1  0  0  0  0
 51 54  1  0  0  0  0
 51 73  1  0  0  0  0
 52 77  1  0  0  0  0
 53 72  1  0  0  0  0
 54 71  1  0  0  0  0
 55 86  1  0  0  0  0
 57 65  1  0  0  0  0
 58 65  1  0  0  0  0
 59 66  1  0  0  0  0
 60 68  1  0  0  0  0
 61 69  1  0  0  0  0
 62 69  1  0  0  0  0
 63 69  1  0  0  0  0
 64 79  1  0  0  0  0
 66 87  1  0  0  0  0
 67 69  1  0  0  0  0
 67 78  1  0  0  0  0
 68 79  1  0  0  0  0
 70 71  1  0  0  0  0
M  CHG  1  79   1
M  ISO  4  38 100  66 101  74 100  87 101
M  END
> <Batch ID>
0160

> <Smiles>
CNC(C)C(=O)NC(C(=O)N1Cc2cc([101O:1][101CH:1](C)c3cc(C(C)C)c(OC4CC[100N:0]([100C:0](=O)N5CCCC(n6nc(-c7ccc(Oc8ccc(F)cc8F)cc7)c(C(N)=O)c6N)C5)CC4)cc3C)ccc2CC1C(=O)NC1CCCc2ccccc21)C(C)(C)C

> <Shape>
0.258

> <Color>
0.082

> <Negative vol penalty>
0.000

$$$$

  -OEChem-04052322093D

 90 99  0     1  0  0  0  0  0999 V2000
  -19.6391  -29.9725   25.8923 C   0  0  0  0  0  0  0  0  0  0  0  0
  -20.9448  -29.5067   26.0081 C   0  0  0  0  0  0  0  0  0  0  0  0
  -23.6110   -9.7510   21.6582 C   0  0  0  0  0  0  0  0  0  0  0  0
  -24.2036  -10.9546   23.6674 C   0  0  0  0  0  0  0  0  0  0  0  0
  -18.8671  -29.6128   24.7884 C   0  0  0  0  0  0  0  0  0  0  0  0
  -21.4790  -28.6798   25.0205 C   0  0  0  0  0  0  0  0  0  0  0  0
  -27.6736  -27.1648   21.7573 C   0  0  0  0  0  0  0  0  0  0  0  0
  -23.0274   -8.7474   22.4314 C   0  0  0  0  0  0  0  0  0  0  0  0
  -23.6199   -9.9511   24.4407 C   0  0  0  0  0  0  0  0  0  0  0  0
  -28.4878  -26.0775   21.4433 C   0  0  0  0  0  0  0  0  0  0  0  0
  -20.1343   -8.2635   24.1132 C   0  0  0  0  0  0  0  0  0  0  0  0
  -18.8842   -7.7862   23.7196 C   0  0  0  0  0  0  0  0  0  0  0  0
  -27.0878  -25.5860   19.5413 C   0  0  0  0  0  0  0  0  0  0  0  0
  -31.7689  -21.4976   18.0875 C   0  0  0  0  0  0  0  0  0  0  0  0
  -19.8094   -5.5682   23.4711 C   0  0  0  0  0  0  0  0  0  0  0  0
  -24.1991  -10.8546   22.2762 C   0  0  0  0  0  0  0  0  0  0  0  0
  -24.1775  -13.0462   20.9708 C   0  0  0  0  0  0  0  0  0  0  0  0
  -19.3954  -28.7889   23.7820 C   0  0  0  0  0  0  0  0  0  0  0  0
  -26.5522  -27.4649   20.9706 C   0  0  0  0  0  0  0  0  0  0  0  0
  -20.7130  -28.3076   23.9028 C   0  0  0  0  0  0  0  0  0  0  0  0
  -26.2624  -26.6792   19.8459 C   0  0  0  0  0  0  0  0  0  0  0  0
  -30.8726  -22.5559   18.2367 C   0  0  0  0  0  0  0  0  0  0  0  0
  -29.1981  -21.0215   19.0607 C   0  0  0  0  0  0  0  0  0  0  0  0
  -29.5872  -22.3179   18.7233 C   0  0  0  0  0  0  0  0  0  0  0  0
  -30.0944  -19.9632   18.9115 C   0  0  0  0  0  0  0  0  0  0  0  0
  -23.0318   -8.8475   23.8227 C   0  0  0  0  0  0  0  0  0  0  0  0
  -28.1933  -25.2862   20.3369 C   0  0  0  0  0  0  0  0  0  0  0  0
  -21.2220   -7.3932   24.1857 C   0  0  0  0  0  0  0  0  0  0  0  0
  -31.3798  -20.2012   18.4249 C   0  0  0  0  0  0  0  0  0  0  0  0
  -18.7217   -6.4385   23.3985 C   0  0  0  0  0  0  0  0  0  0  0  0
  -21.0595   -6.0456   23.8647 C   0  0  0  0  0  0  0  0  0  0  0  0
  -24.8026  -11.8913   21.4780 C   0  0  0  0  0  0  0  0  0  0  0  0
  -25.1713  -13.7018   20.2859 C   0  0  0  0  0  0  0  0  0  0  0  0
  -22.8199  -13.4869   21.1066 C   0  0  0  0  0  0  0  0  0  0  0  0
  -23.4189  -27.5974   21.4890 C   0  0  0  0  0  0  0  0  0  0  0  0
  -23.3594  -28.7451   18.4556 C   0  0  0  0  0  0  0  0  0  0  0  0
  -24.8775  -28.9527   15.4061 C   0  0  0  0  0  0  0  0  0  0  0  0
  -30.4098  -15.5291   19.9178 C   0  0  0  0  0  0  0  0  0  0  0  0
  -18.5069  -28.3885   22.6309 C   0  0  0  0  0  0  0  0  0  0  0  0
  -25.6992  -28.6572   21.3071 C   0  0  0  0  0  0  0  0  0  0  0  0
  -25.0819  -26.9712   18.9574 C   0  0  0  0  0  0  0  0  0  0  0  0
  -19.2725  -27.8136   21.4419 C   0  0  0  0  0  0  0  0  0  0  0  0
  -29.7923  -12.2071   18.9288 C   0  0  0  0  0  0  0  0  0  0  0  0
  -20.2973  -26.7865   21.9130 C   0  0  0  0  0  0  0  0  0  0  0  0
  -28.4008  -11.9047   19.4795 C   0  0  0  0  0  0  0  0  0  0  0  0
  -30.3871  -18.7875   21.6975 C   0  0  0  0  0  0  0  0  0  0  0  0
  -30.5875  -13.0627   19.9061 C   0  0  0  0  0  0  0  0  0  0  0  0
  -28.5109  -14.0838   20.7942 C   0  0  0  0  0  0  0  0  0  0  0  0
  -29.8914  -16.5177   22.2100 C   0  0  0  0  0  0  0  0  0  0  0  0
  -21.3363  -27.4290   22.8399 C   0  0  1  0  0  0  0  0  0  0  0  0
  -24.2883  -28.5632   20.7346 C   0  0  1  0  0  0  0  0  0  0  0  0
  -27.6673  -13.2041   19.8488 C   0  0  2  0  0  0  0  0  0  0  0  0
  -30.6172  -17.7303   22.7662 C   0  0  2  0  0  0  0  0  0  0  0  0
  -30.5323  -17.9781   20.4016 C   0  0  2  0  0  0  0  0  0  0  0  0
  -31.3144  -23.9341   17.8669 C   0  0  0  0  0  0  0  0  0  0  0  0
  -27.8196  -20.7656   19.5829 C   0  0  0  0  0  0  0  0  0  0  0  0
  -29.6948  -17.6283   18.0499 C   0  0  0  0  0  0  0  0  0  0  0  0
  -24.5701  -29.9290   13.1150 C   0  0  0  0  0  0  0  0  0  0  0  0
  -21.3146  -26.5751   17.8079 C   0  0  0  0  0  0  0  0  0  0  0  0
  -21.7616  -26.9769   15.3775 C   0  0  0  0  0  0  0  0  0  0  0  0
  -20.8251  -28.8068   16.7908 C   0  0  0  0  0  0  0  0  0  0  0  0
  -30.6736  -19.3749   24.6453 C   0  0  0  0  0  0  0  0  0  0  0  0
  -27.3371  -30.5815   15.6436 C   0  0  0  0  0  0  0  0  0  0  0  0
  -33.5604  -19.5156   17.7686 C   0  0  0  0  0  0  0  0  0  0  0  0
  -28.6284  -23.4552   18.8828 C   0  0  0  0  0  0  0  0  0  1  0  0
  -29.6777  -18.5477   19.2769 C   0  0  2  0  0  0  0  0  0  0  0  0
  -23.2436  -28.1300   17.0819 C   0  0  1  0  0  0  0  0  0  0  0  0
  -25.1610  -30.1376   14.5006 C   0  0  2  0  0  0  0  0  0  0  0  0
  -21.8074  -27.6153   16.7822 C   0  0  0  0  0  0  0  0  0  0  0  0
  -26.0935  -11.8147   21.1438 N   0  0  0  0  0  0  0  0  0  0  0  0
  -26.2876  -12.9297   20.4191 N   0  0  0  0  0  0  0  0  0  0  0  0
  -24.2744  -28.1440   19.3316 N   0  0  0  0  0  0  0  0  0  0  0  0
  -29.8660  -14.2853   20.2632 N   0  0  0  0  0  0  0  0  0  0  0  0
  -30.1466  -16.6063   20.7679 N   0  0  0  0  0  0  0  0  0  0  0  0
  -25.1903  -14.8577   19.5888 N   0  0  0  0  0  0  0  0  0  0  0  0
  -21.9303  -12.6932   21.8435 N   0  0  0  0  0  0  0  0  0  0  0  0
  -22.3069  -28.1767   22.0697 N   0  0  0  0  0  0  0  0  0  0  0  0
  -23.7260  -29.1362   16.1420 N   0  0  0  0  0  0  0  0  0  0  0  0
  -30.0568  -18.1464   24.0625 N   0  3  0  0  0  0  0  0  0  0  0  0
  -26.6305  -30.3415   14.3591 N   0  3  0  0  0  0  0  0  0  0  0  0
  -22.4039  -14.5447   20.5760 O   0  0  0  0  0  0  0  0  0  0  0  0
  -23.7329  -26.4139   21.5392 O   0  0  0  0  0  0  0  0  0  0  0  0
  -22.6689  -29.7274   18.7385 O   0  0  0  0  0  0  0  0  0  0  0  0
  -25.6029  -27.9616   15.4531 O   0  0  0  0  0  0  0  0  0  0  0  0
  -31.1213  -15.6653   18.9140 O   0  0  0  0  0  0  0  0  0  0  0  0
  -22.4623   -7.8685   24.5775 O   0  0  0  0  0  0  0  0  0  0  0  0
  -32.2691  -19.1803   18.2724 O   0  0  0  0  0  0  0  0  0  0  0  0
  -28.9919  -24.2161   20.0263 O   0  0  0  0  0  0  0  0  0  1  0  0
  -17.5208   -5.9799   23.0220 F   0  0  0  0  0  0  0  0  0  0  0  0
  -22.1005   -5.2044   23.9337 F   0  0  0  0  0  0  0  0  0  0  0  0
  1  2  1  0  0  0  0
  1  5  2  0  0  0  0
  2  6  2  0  0  0  0
  3  8  2  0  0  0  0
  3 16  1  0  0  0  0
  4  9  1  0  0  0  0
  4 16  2  0  0  0  0
  5 18  1  0  0  0  0
  6 20  1  0  0  0  0
  7 10  2  0  0  0  0
  7 19  1  0  0  0  0
  8 26  1  0  0  0  0
  9 26  2  0  0  0  0
 10 27  1  0  0  0  0
 11 12  2  0  0  0  0
 11 28  1  0  0  0  0
 12 30  1  0  0  0  0
 13 21  1  0  0  0  0
 13 27  2  0  0  0  0
 14 22  1  0  0  0  0
 14 29  2  0  0  0  0
 15 30  2  0  0  0  0
 15 31  1  0  0  0  0
 16 32  1  0  0  0  0
 17 32  1  0  0  0  0
 17 33  2  0  0  0  0
 17 34  1  0  0  0  0
 18 20  2  0  0  0  0
 18 39  1  0  0  0  0
 19 21  2  0  0  0  0
 19 40  1  0  0  0  0
 20 50  1  0  0  0  0
 21 41  1  0  0  0  0
 22 24  2  0  0  0  0
 22 55  1  0  0  0  0
 23 24  1  0  0  0  0
 23 25  2  0  0  0  0
 23 56  1  0  0  0  0
 24 65  1  0  0  0  0
 25 29  1  0  0  0  0
 25 66  1  0  0  0  0
 26 86  1  0  0  0  0
 27 88  1  0  0  0  0
 28 31  2  0  0  0  0
 28 86  1  0  0  0  0
 29 87  1  0  0  0  0
 30 89  1  0  0  0  0
 31 90  1  0  0  0  0
 32 70  2  0  0  0  0
 33 71  1  0  0  0  0
 33 75  1  0  0  0  0
 34 76  1  0  0  0  0
 34 81  2  0  0  0  0
 35 51  1  0  0  0  0
 35 77  1  0  0  0  0
 35 82  2  0  0  0  0
 36 67  1  0  0  0  0
 36 72  1  0  0  0  0
 36 83  2  0  0  0  0
 37 68  1  0  0  0  0
 37 78  1  0  0  0  0
 37 84  2  0  0  0  0
 38 73  1  0  0  0  0
 38 74  1  0  0  0  0
 38 85  2  0  0  0  0
 39 42  1  0  0  0  0
 40 51  1  0  0  0  0
 41 72  1  0  0  0  0
 42 44  1  0  0  0  0
 43 45  1  0  0  0  0
 43 47  1  0  0  0  0
 44 50  1  0  0  0  0
 45 52  1  0  0  0  0
 46 53  1  0  0  0  0
 46 54  1  0  0  0  0
 47 73  1  0  0  0  0
 48 52  1  0  0  0  0
 48 73  1  0  0  0  0
 49 53  1  0  0  0  0
 49 74  1  0  0  0  0
 50 77  1  0  0  0  0
 51 72  1  0  0  0  0
 52 71  1  0  0  0  0
 53 79  1  0  0  0  0
 54 66  1  0  0  0  0
 54 74  1  0  0  0  0
 57 66  1  0  0  0  0
 58 68  1  0  0  0  0
 59 69  1  0  0  0  0
 60 69  1  0  0  0  0
 61 69  1  0  0  0  0
 62 79  1  0  0  0  0
 63 80  1  0  0  0  0
 64 87  1  0  0  0  0
 65 88  1  0  0  0  0
 67 69  1  0  0  0  0
 67 78  1  0  0  0  0
 68 80  1  0  0  0  0
 70 71  1  0  0  0  0
M  CHG  2  79   1  80   1
M  ISO  4  38 100  65 101  74 100  88 101
M  END
> <Batch ID>
0160

> <Smiles>
CNC1CC(C(C)c2c(OC)cc(C)c([101CH2:1][101O:1]c3ccc4c(c3)CN(C(=O)C(NC(=O)C(C)NC)C(C)(C)C)C(C(=O)NC3CCCc5ccccc53)C4)c2C)[100N:0]([100C:0](=O)N2CCCC(n3nc(-c4ccc(Oc5ccc(F)cc5F)cc4)c(C(N)=O)c3N)C2)C1

> <Shape>
0.302

> <Color>
0.130

> <Negative vol penalty>
0.000

$$$$

  -OEChem-04052322093D

 89 99  0     1  0  0  0  0  0999 V2000
  -16.1480  -26.4691   24.9576 C   0  0  0  0  0  0  0  0  0  0  0  0
  -17.3343  -25.9249   24.4759 C   0  0  0  0  0  0  0  0  0  0  0  0
  -23.1829  -15.8961   21.1151 C   0  0  0  0  0  0  0  0  0  0  0  0
  -25.2182  -16.4334   22.3008 C   0  0  0  0  0  0  0  0  0  0  0  0
  -15.8754  -27.8230   24.7667 C   0  0  0  0  0  0  0  0  0  0  0  0
  -18.2482  -26.7342   23.8020 C   0  0  0  0  0  0  0  0  0  0  0  0
  -23.0181  -25.9532   25.3130 C   0  0  0  0  0  0  0  0  0  0  0  0
  -22.6232  -17.1051   21.5281 C   0  0  0  0  0  0  0  0  0  0  0  0
  -24.6585  -17.6424   22.7138 C   0  0  0  0  0  0  0  0  0  0  0  0
  -23.6657  -24.8221   24.8180 C   0  0  0  0  0  0  0  0  0  0  0  0
  -22.8072  -20.3647   20.6482 C   0  0  0  0  0  0  0  0  0  0  0  0
  -22.1272  -21.1232   19.6954 C   0  0  0  0  0  0  0  0  0  0  0  0
  -24.7979  -26.1916   23.1866 C   0  0  0  0  0  0  0  0  0  0  0  0
  -20.1097  -20.9735   21.0161 C   0  0  0  0  0  0  0  0  0  0  0  0
  -24.4805  -15.5602   21.5015 C   0  0  0  0  0  0  0  0  0  0  0  0
  -24.5784  -13.0158   21.3457 C   0  0  0  0  0  0  0  0  0  0  0  0
  -16.7908  -28.6514   24.0985 C   0  0  0  0  0  0  0  0  0  0  0  0
  -23.2477  -27.2125   24.7404 C   0  0  0  0  0  0  0  0  0  0  0  0
  -17.9870  -28.1002   23.6007 C   0  0  0  0  0  0  0  0  0  0  0  0
  -24.1539  -27.3375   23.6778 C   0  0  0  0  0  0  0  0  0  0  0  0
  -23.3609  -17.9783   22.3274 C   0  0  0  0  0  0  0  0  0  0  0  0
  -24.5535  -24.9407   23.7528 C   0  0  0  0  0  0  0  0  0  0  0  0
  -22.1384  -19.9105   21.7850 C   0  0  0  0  0  0  0  0  0  0  0  0
  -20.7785  -21.4276   19.8794 C   0  0  0  0  0  0  0  0  0  0  0  0
  -20.7897  -20.2150   21.9689 C   0  0  0  0  0  0  0  0  0  0  0  0
  -25.0590  -14.3112   21.0757 C   0  0  0  0  0  0  0  0  0  0  0  0
  -25.4750  -12.1807   20.7252 C   0  0  0  0  0  0  0  0  0  0  0  0
  -23.4245  -12.6043   22.0907 C   0  0  0  0  0  0  0  0  0  0  0  0
  -21.4425  -29.3598   23.2458 C   0  0  0  0  0  0  0  0  0  0  0  0
  -28.8952  -21.0615   19.6718 C   0  0  0  0  0  0  0  0  0  0  0  0
  -24.1436  -31.1508   23.3821 C   0  0  0  0  0  0  0  0  0  0  0  0
  -27.5456  -31.2481   23.6349 C   0  0  0  0  0  0  0  0  0  0  0  0
  -28.7103  -15.9038   17.9943 C   0  0  0  0  0  0  0  0  0  0  0  0
  -16.4309  -30.0988   23.8746 C   0  0  0  0  0  0  0  0  0  0  0  0
  -22.5615  -28.4269   25.3033 C   0  0  0  0  0  0  0  0  0  0  0  0
  -24.4505  -28.6699   23.0411 C   0  0  0  0  0  0  0  0  0  0  0  0
  -17.6215  -30.9684   23.4789 C   0  0  0  0  0  0  0  0  0  0  0  0
  -29.5497  -13.4834   20.7218 C   0  0  0  0  0  0  0  0  0  0  0  0
  -18.4433  -30.2849   22.3906 C   0  0  0  0  0  0  0  0  0  0  0  0
  -30.7019  -24.4819   21.8595 C   0  0  0  0  0  0  0  0  0  0  0  0
  -28.8182  -12.2338   20.2357 C   0  0  0  0  0  0  0  0  0  0  0  0
  -26.4643  -23.6184   21.2291 C   0  0  0  0  0  0  0  0  0  0  0  0
  -30.3331  -23.2881   20.9749 C   0  0  0  0  0  0  0  0  0  0  0  0
  -27.8550  -23.6923   20.6049 C   0  0  0  0  0  0  0  0  0  0  0  0
  -27.4944  -23.2206   23.5040 C   0  0  0  0  0  0  0  0  0  0  0  0
  -29.9587  -14.3649   19.5500 C   0  0  0  0  0  0  0  0  0  0  0  0
  -28.9495  -19.3551   17.8864 C   0  0  0  0  0  0  0  0  0  0  0  0
  -28.3196  -18.6404   20.1769 C   0  0  0  0  0  0  0  0  0  0  0  0
  -29.8125  -18.1076   17.7484 C   0  0  0  0  0  0  0  0  0  0  0  0
  -29.1643  -17.3760   20.0085 C   0  0  0  0  0  0  0  0  0  0  0  0
  -28.0505  -13.5340   18.2026 C   0  0  0  0  0  0  0  0  0  0  0  0
  -19.0146  -28.9510   22.8864 C   0  0  1  0  0  0  0  0  0  0  0  0
  -22.4802  -29.5816   24.3095 C   0  0  1  0  0  0  0  0  0  0  0  0
  -28.8987  -23.2054   22.8936 C   0  0  2  0  0  0  0  0  0  0  0  0
  -29.6417  -24.5541   22.9689 C   0  0  1  0  0  0  0  0  0  0  0  0
  -27.6190  -12.5720   19.3278 C   0  0  2  0  0  0  0  0  0  0  0  0
  -26.4823  -24.0331   22.6979 C   0  0  2  0  0  0  0  0  0  1  0  0
  -28.9093  -22.8716   21.3858 C   0  0  2  0  0  0  0  0  0  0  0  0
  -30.2519  -24.8289   24.3376 C   0  0  0  0  0  0  0  0  0  0  0  0
  -29.4723  -32.8552   23.6803 C   0  0  0  0  0  0  0  0  0  0  0  0
  -23.8925  -31.5334   20.3654 C   0  0  0  0  0  0  0  0  0  0  0  0
  -26.2754  -32.3010   20.3346 C   0  0  0  0  0  0  0  0  0  0  0  0
  -24.5697  -33.5854   21.6244 C   0  0  0  0  0  0  0  0  0  0  0  0
  -28.3528  -30.3841   26.3480 C   0  0  0  0  0  0  0  0  0  0  0  0
  -28.7008  -21.3706   21.1350 C   0  0  0  0  0  0  0  0  0  0  0  0
  -25.3466  -31.3406   22.4901 C   0  0  1  0  0  0  0  0  0  0  0  0
  -28.4671  -32.0750   24.5132 C   0  0  2  0  0  0  0  0  0  0  0  0
  -25.0142  -32.1645   21.2142 C   0  0  0  0  0  0  0  0  0  0  0  0
  -26.1745  -14.3045   20.3411 N   0  0  0  0  0  0  0  0  0  0  0  0
  -26.4023  -12.9948   20.1442 N   0  0  0  0  0  0  0  0  0  0  0  0
  -23.7500  -29.8268   23.6228 N   0  0  0  0  0  0  0  0  0  0  0  0
  -28.7682  -19.7241   19.2928 N   0  0  0  0  0  0  0  0  0  0  0  0
  -28.8150  -14.6863   18.6886 N   0  0  0  0  0  0  0  0  0  0  0  0
  -29.3040  -17.0268   18.5900 N   0  0  0  0  0  0  0  0  0  0  0  0
  -25.5528  -10.8366   20.6253 N   0  0  0  0  0  0  0  0  0  0  0  0
  -23.5641  -12.3756   23.4664 N   0  0  0  0  0  0  0  0  0  0  0  0
  -20.1636  -29.1781   23.7365 N   0  0  0  0  0  0  0  0  0  0  0  0
  -26.3867  -31.9289   23.3272 N   0  0  0  0  0  0  0  0  0  0  0  0
  -29.2178  -31.1931   25.4512 N   0  3  0  0  0  0  0  0  0  0  0  0
  -22.3067  -12.4283   21.5494 O   0  0  0  0  0  0  0  0  0  0  0  0
  -21.7770  -29.3554   22.0669 O   0  0  0  0  0  0  0  0  0  0  0  0
  -29.1555  -21.9806   18.8911 O   0  0  0  0  0  0  0  0  0  0  0  0
  -23.5784  -32.1405   23.8539 O   0  0  0  0  0  0  0  0  0  0  0  0
  -27.8274  -30.1133   23.2563 O   0  0  0  0  0  0  0  0  0  0  0  0
  -28.1112  -15.9821   16.9145 O   0  0  0  0  0  0  0  0  0  0  0  0
  -22.8152  -19.1582   22.7304 O   0  0  0  0  0  0  0  0  0  0  0  0
  -25.1902  -23.8315   23.2643 O   0  0  0  0  0  0  0  0  0  1  0  0
  -20.1260  -22.1573   18.9650 F   0  0  0  0  0  0  0  0  0  0  0  0
  -20.1422  -19.7825   23.0596 F   0  0  0  0  0  0  0  0  0  0  0  0
  1  2  1  0  0  0  0
  1  5  2  0  0  0  0
  2  6  2  0  0  0  0
  3  8  2  0  0  0  0
  3 15  1  0  0  0  0
  4  9  1  0  0  0  0
  4 15  2  0  0  0  0
  5 17  1  0  0  0  0
  6 19  1  0  0  0  0
  7 10  2  0  0  0  0
  7 18  1  0  0  0  0
  8 21  1  0  0  0  0
  9 21  2  0  0  0  0
 10 22  1  0  0  0  0
 11 12  2  0  0  0  0
 11 23  1  0  0  0  0
 12 24  1  0  0  0  0
 13 20  1  0  0  0  0
 13 22  2  0  0  0  0
 14 24  2  0  0  0  0
 14 25  1  0  0  0  0
 15 26  1  0  0  0  0
 16 26  1  0  0  0  0
 16 27  2  0  0  0  0
 16 28  1  0  0  0  0
 17 19  2  0  0  0  0
 17 34  1  0  0  0  0
 18 20  2  0  0  0  0
 18 35  1  0  0  0  0
 19 52  1  0  0  0  0
 20 36  1  0  0  0  0
 21 86  1  0  0  0  0
 22 87  1  0  0  0  0
 23 25  2  0  0  0  0
 23 86  1  0  0  0  0
 24 88  1  0  0  0  0
 25 89  1  0  0  0  0
 26 69  2  0  0  0  0
 27 70  1  0  0  0  0
 27 75  1  0  0  0  0
 28 76  1  0  0  0  0
 28 80  2  0  0  0  0
 29 53  1  0  0  0  0
 29 77  1  0  0  0  0
 29 81  2  0  0  0  0
 30 65  1  0  0  0  0
 30 72  1  0  0  0  0
 30 82  2  0  0  0  0
 31 66  1  0  0  0  0
 31 71  1  0  0  0  0
 31 83  2  0  0  0  0
 32 67  1  0  0  0  0
 32 78  1  0  0  0  0
 32 84  2  0  0  0  0
 33 73  1  0  0  0  0
 33 74  1  0  0  0  0
 33 85  2  0  0  0  0
 34 37  1  0  0  0  0
 35 53  1  0  0  0  0
 36 71  1  0  0  0  0
 37 39  1  0  0  0  0
 38 41  1  0  0  0  0
 38 46  1  0  0  0  0
 39 52  1  0  0  0  0
 40 43  1  0  0  0  0
 40 55  1  0  0  0  0
 41 56  1  0  0  0  0
 42 44  1  0  0  0  0
 42 57  1  0  0  0  0
 43 58  1  0  0  0  0
 44 58  1  0  0  0  0
 45 54  1  0  0  0  0
 45 57  1  0  0  0  0
 46 73  1  0  0  0  0
 47 49  1  0  0  0  0
 47 72  1  0  0  0  0
 48 50  1  0  0  0  0
 48 72  1  0  0  0  0
 49 74  1  0  0  0  0
 50 74  1  0  0  0  0
 51 56  1  0  0  0  0
 51 73  1  0  0  0  0
 52 77  1  0  0  0  0
 53 71  1  0  0  0  0
 54 55  1  0  0  0  0
 54 58  1  0  0  0  0
 55 59  1  0  0  0  0
 56 70  1  0  0  0  0
 57 87  1  0  0  0  0
 58 65  1  0  0  0  0
 60 67  1  0  0  0  0
 61 68  1  0  0  0  0
 62 68  1  0  0  0  0
 63 68  1  0  0  0  0
 64 79  1  0  0  0  0
 66 68  1  0  0  0  0
 66 78  1  0  0  0  0
 67 79  1  0  0  0  0
 69 70  1  0  0  0  0
M  CHG  1  79   1
M  ISO  4  33 100  57 101  74 100  87 101
M  END
> <Batch ID>
0160

> <Smiles>
CNC(C)C(=O)NC(C(=O)N1Cc2cc([101O:1][101CH:1]3CCC4(CC(=O)N5CC[100N:0]([100C:0](=O)N6CCCC(n7nc(-c8ccc(Oc9ccc(F)cc9F)cc8)c(C(N)=O)c7N)C6)CC5)CCC(C)C4C3)ccc2CC1C(=O)NC1CCCc2ccccc21)C(C)(C)C

> <Shape>
0.256

> <Color>
0.081

> <Negative vol penalty>
0.000

$$$$

  -OEChem-04052322093D

 87 96  0     1  0  0  0  0  0999 V2000
  -26.2875  -11.6574   17.3028 C   0  0  0  0  0  0  0  0  0  0  0  0
  -25.8459  -12.9270   16.9442 C   0  0  0  0  0  0  0  0  0  0  0  0
  -30.1082  -24.5240   18.7699 C   0  0  0  0  0  0  0  0  0  0  0  0
  -29.0153  -23.7583   20.7839 C   0  0  0  0  0  0  0  0  0  0  0  0
  -26.1729  -11.2282   18.6244 C   0  0  0  0  0  0  0  0  0  0  0  0
  -25.2885  -13.7678   17.9069 C   0  0  0  0  0  0  0  0  0  0  0  0
  -24.7592  -20.7003   19.6323 C   0  0  0  0  0  0  0  0  0  0  0  0
  -31.1235  -23.5876   18.9648 C   0  0  0  0  0  0  0  0  0  0  0  0
  -30.0305  -22.8218   20.9788 C   0  0  0  0  0  0  0  0  0  0  0  0
  -23.7995  -21.6624   19.9442 C   0  0  0  0  0  0  0  0  0  0  0  0
  -30.8883  -19.7900   19.7569 C   0  0  0  0  0  0  0  0  0  0  0  0
  -30.5131  -18.4932   20.1078 C   0  0  0  0  0  0  0  0  0  0  0  0
  -21.3236  -25.8379   21.2807 C   0  0  0  0  0  0  0  0  0  0  0  0
  -18.6698  -25.0061   21.7941 C   0  0  0  0  0  0  0  0  0  0  0  0
  -23.7248  -20.8439   22.2122 C   0  0  0  0  0  0  0  0  0  0  0  0
  -31.7688  -18.6859   22.1629 C   0  0  0  0  0  0  0  0  0  0  0  0
  -29.0542  -24.6094   19.6795 C   0  0  0  0  0  0  0  0  0  0  0  0
  -26.8082  -25.3964   18.7609 C   0  0  0  0  0  0  0  0  0  0  0  0
  -25.6226  -12.0678   19.6057 C   0  0  0  0  0  0  0  0  0  0  0  0
  -25.2016  -19.7942   20.6069 C   0  0  0  0  0  0  0  0  0  0  0  0
  -25.1652  -13.3489   19.2426 C   0  0  0  0  0  0  0  0  0  0  0  0
  -20.3883  -26.7197   21.7976 C   0  0  0  0  0  0  0  0  0  0  0  0
  -19.0734  -26.3058   22.0498 C   0  0  0  0  0  0  0  0  0  0  0  0
  -24.6920  -19.8730   21.9108 C   0  0  0  0  0  0  0  0  0  0  0  0
  -20.9285  -24.5214   21.0322 C   0  0  0  0  0  0  0  0  0  0  0  0
  -31.0846  -22.7364   20.0692 C   0  0  0  0  0  0  0  0  0  0  0  0
  -23.2801  -21.7324   21.2335 C   0  0  0  0  0  0  0  0  0  0  0  0
  -31.7039  -20.5348   20.6090 C   0  0  0  0  0  0  0  0  0  0  0  0
  -19.6115  -24.1085   21.2871 C   0  0  0  0  0  0  0  0  0  0  0  0
  -30.9533  -17.9412   21.3108 C   0  0  0  0  0  0  0  0  0  0  0  0
  -32.1441  -19.9827   21.8119 C   0  0  0  0  0  0  0  0  0  0  0  0
  -28.0054  -25.5770   19.4791 C   0  0  0  0  0  0  0  0  0  0  0  0
  -26.1586  -26.6019   18.8677 C   0  0  0  0  0  0  0  0  0  0  0  0
  -26.3262  -24.2423   18.0600 C   0  0  0  0  0  0  0  0  0  0  0  0
  -25.1176  -16.6336   20.9342 C   0  0  0  0  0  0  0  0  0  0  0  0
  -26.9395  -17.2463   23.5472 C   0  0  0  0  0  0  0  0  0  0  0  0
  -27.8975  -19.4667   25.9553 C   0  0  0  0  0  0  0  0  0  0  0  0
  -25.3153  -30.9049   22.6476 C   0  0  0  0  0  0  0  0  0  0  0  0
  -25.4761  -11.5421   21.0117 C   0  0  0  0  0  0  0  0  0  0  0  0
  -26.2569  -18.7796   20.2614 C   0  0  0  0  0  0  0  0  0  0  0  0
  -18.2407  -27.4438   22.5533 C   0  0  0  0  0  0  0  0  0  0  0  0
  -25.1487  -18.9366   22.9986 C   0  0  0  0  0  0  0  0  0  0  0  0
  -25.2173  -12.6343   22.0464 C   0  0  0  0  0  0  0  0  0  0  0  0
  -19.3289  -28.4242   23.0190 C   0  0  0  0  0  0  0  0  0  0  0  0
  -27.5531  -31.2319   19.8977 C   0  0  0  0  0  0  0  0  0  0  0  0
  -24.1391  -13.5934   21.5520 C   0  0  0  0  0  0  0  0  0  0  0  0
  -27.7866  -29.7902   19.4427 C   0  0  0  0  0  0  0  0  0  0  0  0
  -27.4221  -31.3303   21.4160 C   0  0  0  0  0  0  0  0  0  0  0  0
  -26.6418  -28.9967   21.5542 C   0  0  0  0  0  0  0  0  0  0  0  0
  -24.5776  -14.2993   20.2632 C   0  0  1  0  0  0  0  0  0  0  0  0
  -20.5440  -28.1763   22.1083 C   0  0  1  0  0  0  0  0  0  0  0  0
  -26.2578  -17.5758   21.1985 C   0  0  1  0  0  0  0  0  0  0  0  0
  -26.7245  -28.8391   20.0262 C   0  0  2  0  0  0  0  0  0  0  0  0
  -29.3723  -19.6668   27.9757 C   0  0  0  0  0  0  0  0  0  0  0  0
  -23.2605  -29.6796   25.2180 C   0  0  0  0  0  0  0  0  0  0  0  0
  -24.9217  -15.6387   25.1763 C   0  0  0  0  0  0  0  0  0  0  0  0
  -25.8927  -16.6525   27.2494 C   0  0  0  0  0  0  0  0  0  0  0  0
  -27.3138  -15.2254   25.7775 C   0  0  0  0  0  0  0  0  0  0  0  0
  -29.4972  -21.6269   24.7171 C   0  0  0  0  0  0  0  0  0  0  0  0
  -17.8789  -22.4801   21.3329 C   0  0  0  0  0  0  0  0  0  0  0  0
  -21.9372  -23.5501   20.4928 C   0  0  0  0  0  0  0  0  0  1  0  0
  -21.9328  -30.0136   23.0636 C   0  0  0  0  0  0  0  0  0  0  0  0
  -26.6589  -17.5406   25.0010 C   0  0  1  0  0  0  0  0  0  0  0  0
  -29.2689  -19.8636   26.4713 C   0  0  2  0  0  0  0  0  0  0  0  0
  -23.2154  -30.3224   23.8351 C   0  0  2  0  0  0  0  0  0  0  0  0
  -26.1865  -16.2808   25.7803 C   0  0  0  0  0  0  0  0  0  0  0  0
  -28.1128  -26.8008   20.0032 N   0  0  0  0  0  0  0  0  0  0  0  0
  -26.9747  -27.4002   19.6140 N   0  0  0  0  0  0  0  0  0  0  0  0
  -26.1776  -17.9580   22.6098 N   0  0  0  0  0  0  0  0  0  0  0  0
  -26.3978  -30.4045   21.9054 N   0  0  0  0  0  0  0  0  0  0  0  0
  -24.9748  -27.0463   18.3951 N   0  0  0  0  0  0  0  0  0  0  0  0
  -27.1196  -23.0869   18.0503 N   0  0  0  0  0  0  0  0  0  0  0  0
  -25.5125  -15.3627   20.5624 N   0  0  0  0  0  0  0  0  0  0  0  0
  -27.8704  -18.1539   25.5345 N   0  0  0  0  0  0  0  0  0  0  0  0
  -24.3864  -29.9608   23.0678 N   0  0  0  0  0  0  0  0  0  0  0  0
  -21.7851  -28.5532   22.8220 N   0  3  0  0  0  0  0  0  0  0  0  0
  -29.5431  -21.2960   26.1647 N   0  3  0  0  0  0  0  0  0  0  0  0
  -25.2323  -24.2410   17.4462 O   0  0  0  0  0  0  0  0  0  0  0  0
  -23.9648  -17.0299   21.0598 O   0  0  0  0  0  0  0  0  0  0  0  0
  -27.8079  -16.4207   23.2540 O   0  0  0  0  0  0  0  0  0  0  0  0
  -26.9446  -20.2425   25.9315 O   0  0  0  0  0  0  0  0  0  0  0  0
  -25.1835  -32.1049   22.9114 O   0  0  0  0  0  0  0  0  0  0  0  0
  -32.0749  -21.8224   20.2595 O   0  0  0  0  0  0  0  0  0  0  0  0
  -19.2336  -22.8199   21.0480 O   0  0  0  0  0  0  0  0  0  0  0  0
  -22.3428  -22.6701   21.5404 O   0  0  0  0  0  0  0  0  0  1  0  0
  -30.5916  -16.6965   21.6483 F   0  0  0  0  0  0  0  0  0  0  0  0
  -32.9267  -20.6938   22.6351 F   0  0  0  0  0  0  0  0  0  0  0  0
  1  2  1  0  0  0  0
  1  5  2  0  0  0  0
  2  6  2  0  0  0  0
  3  8  2  0  0  0  0
  3 17  1  0  0  0  0
  4  9  1  0  0  0  0
  4 17  2  0  0  0  0
  5 19  1  0  0  0  0
  6 21  1  0  0  0  0
  7 10  2  0  0  0  0
  7 20  1  0  0  0  0
  8 26  1  0  0  0  0
  9 26  2  0  0  0  0
 10 27  1  0  0  0  0
 11 12  2  0  0  0  0
 11 28  1  0  0  0  0
 12 30  1  0  0  0  0
 13 22  2  0  0  0  0
 13 25  1  0  0  0  0
 14 23  2  0  0  0  0
 14 29  1  0  0  0  0
 15 24  1  0  0  0  0
 15 27  2  0  0  0  0
 16 30  2  0  0  0  0
 16 31  1  0  0  0  0
 17 32  1  0  0  0  0
 18 32  1  0  0  0  0
 18 33  2  0  0  0  0
 18 34  1  0  0  0  0
 19 21  2  0  0  0  0
 19 39  1  0  0  0  0
 20 24  2  0  0  0  0
 20 40  1  0  0  0  0
 21 50  1  0  0  0  0
 22 23  1  0  0  0  0
 22 51  1  0  0  0  0
 23 41  1  0  0  0  0
 24 42  1  0  0  0  0
 25 29  2  0  0  0  0
 25 61  1  0  0  0  0
 26 83  1  0  0  0  0
 27 85  1  0  0  0  0
 28 31  2  0  0  0  0
 28 83  1  0  0  0  0
 29 84  1  0  0  0  0
 30 86  1  0  0  0  0
 31 87  1  0  0  0  0
 32 67  2  0  0  0  0
 33 68  1  0  0  0  0
 33 71  1  0  0  0  0
 34 72  1  0  0  0  0
 34 78  2  0  0  0  0
 35 52  1  0  0  0  0
 35 73  1  0  0  0  0
 35 79  2  0  0  0  0
 36 63  1  0  0  0  0
 36 69  1  0  0  0  0
 36 80  2  0  0  0  0
 37 64  1  0  0  0  0
 37 74  1  0  0  0  0
 37 81  2  0  0  0  0
 38 70  1  0  0  0  0
 38 75  1  0  0  0  0
 38 82  2  0  0  0  0
 39 43  1  0  0  0  0
 40 52  1  0  0  0  0
 41 44  1  0  0  0  0
 42 69  1  0  0  0  0
 43 46  1  0  0  0  0
 44 51  1  0  0  0  0
 45 47  1  0  0  0  0
 45 48  1  0  0  0  0
 46 50  1  0  0  0  0
 47 53  1  0  0  0  0
 48 70  1  0  0  0  0
 49 53  1  0  0  0  0
 49 70  1  0  0  0  0
 50 73  1  0  0  0  0
 51 76  1  0  0  0  0
 52 69  1  0  0  0  0
 53 68  1  0  0  0  0
 54 64  1  0  0  0  0
 55 65  1  0  0  0  0
 56 66  1  0  0  0  0
 57 66  1  0  0  0  0
 58 66  1  0  0  0  0
 59 77  1  0  0  0  0
 60 84  1  0  0  0  0
 61 85  1  0  0  0  0
 62 65  1  0  0  0  0
 62 76  1  0  0  0  0
 63 66  1  0  0  0  0
 63 74  1  0  0  0  0
 64 77  1  0  0  0  0
 65 75  1  0  0  0  0
 67 68  1  0  0  0  0
M  CHG  2  76   1  77   1
M  ISO  4  38 100  61 101  75 100  85 101
M  END
> <Batch ID>
0160

> <Smiles>
CNC(C)C(=O)NC(C(=O)N1Cc2cc([101O:1][101CH2:1]c3cc4c(cc3OC)CCC4NCC(C)[100NH:0][100C:0](=O)N3CCCC(n4nc(-c5ccc(Oc6ccc(F)cc6F)cc5)c(C(N)=O)c4N)C3)ccc2CC1C(=O)NC1CCCc2ccccc21)C(C)(C)C

> <Shape>
0.203

> <Color>
0.075

> <Negative vol penalty>
0.000

$$$$

  -OEChem-04052322093D

 86 95  0     1  0  0  0  0  0999 V2000
  -25.9743  -38.2272   20.6141 C   0  0  0  0  0  0  0  0  0  0  0  0
  -26.1346  -37.1999   19.6898 C   0  0  0  0  0  0  0  0  0  0  0  0
  -23.1637  -10.8304   21.9389 C   0  0  0  0  0  0  0  0  0  0  0  0
  -23.9001   -9.1645   20.3516 C   0  0  0  0  0  0  0  0  0  0  0  0
  -26.1710  -37.9787   21.9719 C   0  0  0  0  0  0  0  0  0  0  0  0
  -26.4928  -35.9237   20.1227 C   0  0  0  0  0  0  0  0  0  0  0  0
  -25.5097  -29.0084   18.5322 C   0  0  0  0  0  0  0  0  0  0  0  0
  -21.8360  -10.4900   21.6802 C   0  0  0  0  0  0  0  0  0  0  0  0
  -22.5724   -8.8240   20.0930 C   0  0  0  0  0  0  0  0  0  0  0  0
  -26.2383  -27.8439   18.2939 C   0  0  0  0  0  0  0  0  0  0  0  0
  -19.3888   -7.2675   19.2806 C   0  0  0  0  0  0  0  0  0  0  0  0
  -19.0655   -5.9118   19.2234 C   0  0  0  0  0  0  0  0  0  0  0  0
  -26.4744  -27.5124   20.6717 C   0  0  0  0  0  0  0  0  0  0  0  0
  -19.8147   -5.6370   21.5038 C   0  0  0  0  0  0  0  0  0  0  0  0
  -24.1958  -10.1677   21.2745 C   0  0  0  0  0  0  0  0  0  0  0  0
  -26.4135   -9.9619   22.5183 C   0  0  0  0  0  0  0  0  0  0  0  0
  -26.5223  -36.6965   22.4225 C   0  0  0  0  0  0  0  0  0  0  0  0
  -25.2669  -29.4403   19.8440 C   0  0  0  0  0  0  0  0  0  0  0  0
  -26.6957  -35.6581   21.4876 C   0  0  0  0  0  0  0  0  0  0  0  0
  -25.7402  -28.6813   20.9239 C   0  0  0  0  0  0  0  0  0  0  0  0
  -30.0635  -23.8780   19.8840 C   0  0  0  0  0  0  0  0  0  0  0  0
  -30.3111  -22.5802   19.3726 C   0  0  0  0  0  0  0  0  0  0  0  0
  -21.5403   -9.4868   20.7573 C   0  0  0  0  0  0  0  0  0  0  0  0
  -26.7233  -27.0972   19.3637 C   0  0  0  0  0  0  0  0  0  0  0  0
  -19.9252   -7.8079   20.4493 C   0  0  0  0  0  0  0  0  0  0  0  0
  -19.2784   -5.0966   20.3350 C   0  0  0  0  0  0  0  0  0  0  0  0
  -20.1380   -6.9927   21.5610 C   0  0  0  0  0  0  0  0  0  0  0  0
  -25.5675  -10.5193   21.5409 C   0  0  0  0  0  0  0  0  0  0  0  0
  -28.7004  -24.0751   19.8631 C   0  0  0  0  0  0  0  0  0  0  0  0
  -27.6027  -10.6319   22.3655 C   0  0  0  0  0  0  0  0  0  0  0  0
  -29.0918  -22.0239   19.0545 C   0  0  0  0  0  0  0  0  0  0  0  0
  -26.1482   -8.9306   23.4783 C   0  0  0  0  0  0  0  0  0  0  0  0
  -26.0265  -32.0245   21.5318 C   0  0  0  0  0  0  0  0  0  0  0  0
  -24.1007  -30.6598   23.7569 C   0  0  0  0  0  0  0  0  0  0  0  0
  -22.6741  -27.8220   25.0054 C   0  0  0  0  0  0  0  0  0  0  0  0
  -29.0242  -15.8891   20.4339 C   0  0  0  0  0  0  0  0  0  0  0  0
  -26.7704  -36.4874   23.8954 C   0  0  0  0  0  0  0  0  0  0  0  0
  -24.4563  -30.6843   20.0845 C   0  0  0  0  0  0  0  0  0  0  0  0
  -25.4894  -29.0909   22.3514 C   0  0  0  0  0  0  0  0  0  0  0  0
  -26.7825  -35.0178   24.3084 C   0  0  0  0  0  0  0  0  0  0  0  0
  -30.2447  -12.8871   19.0822 C   0  0  0  0  0  0  0  0  0  0  0  0
  -27.6321  -34.1987   23.3420 C   0  0  0  0  0  0  0  0  0  0  0  0
  -29.2582  -11.8717   19.6585 C   0  0  0  0  0  0  0  0  0  0  0  0
  -28.9120  -18.4197   17.9901 C   0  0  0  0  0  0  0  0  0  0  0  0
  -29.6314  -19.2951   20.2449 C   0  0  0  0  0  0  0  0  0  0  0  0
  -29.5485  -14.1759   18.6413 C   0  0  0  0  0  0  0  0  0  0  0  0
  -29.6310  -17.1014   18.2918 C   0  0  0  0  0  0  0  0  0  0  0  0
  -30.3572  -17.9751   20.4892 C   0  0  0  0  0  0  0  0  0  0  0  0
  -27.7298  -13.7836   20.2713 C   0  0  0  0  0  0  0  0  0  0  0  0
  -27.0595  -34.2544   21.9206 C   0  0  1  0  0  0  0  0  0  0  0  0
  -24.7089  -31.3064   21.4544 C   0  0  1  0  0  0  0  0  0  0  0  0
  -28.4081  -12.5008   20.7767 C   0  0  1  0  0  0  0  0  0  0  0  0
  -29.5447  -19.5909   18.7453 C   0  0  0  0  0  0  0  0  0  0  0  0
  -31.0778  -24.8439   20.3541 C   0  0  0  0  0  0  0  0  0  0  0  0
  -31.6336  -21.9406   19.2101 C   0  0  0  0  0  0  0  0  0  0  0  0
  -21.1793  -27.0176   26.8536 C   0  0  0  0  0  0  0  0  0  0  0  0
  -26.4076  -30.9274   25.7359 C   0  0  0  0  0  0  0  0  0  0  0  0
  -25.2296  -29.2936   27.2229 C   0  0  0  0  0  0  0  0  0  0  0  0
  -24.1569  -31.4784   26.6767 C   0  0  0  0  0  0  0  0  0  0  0  0
  -26.6955  -22.7510   19.1723 C   0  0  0  0  0  0  0  0  0  0  0  0
  -20.6544  -26.8152   23.0907 C   0  0  0  0  0  0  0  0  0  0  0  0
  -27.9009  -25.2463   20.2820 C   0  0  0  0  0  0  0  0  0  1  0  0
  -24.3032  -29.6898   24.8958 C   0  0  1  0  0  0  0  0  0  0  0  0
  -21.2466  -27.5089   25.4159 C   0  0  2  0  0  0  0  0  0  0  0  0
  -25.0309  -30.3403   26.1060 C   0  0  0  0  0  0  0  0  0  0  0  0
  -26.1681  -11.4704   20.8207 N   0  0  0  0  0  0  0  0  0  0  0  0
  -28.1200  -22.9417   19.3566 N   0  0  0  0  0  0  0  0  0  0  0  0
  -27.4043  -11.5158   21.3459 N   0  0  0  0  0  0  0  0  0  0  0  0
  -24.6971  -30.3182   22.5349 N   0  0  0  0  0  0  0  0  0  0  0  0
  -28.7185  -14.7166   19.7269 N   0  0  0  0  0  0  0  0  0  0  0  0
  -29.7317  -16.8834   19.7420 N   0  0  0  0  0  0  0  0  0  0  0  0
  -28.7883  -10.5454   23.0053 N   0  0  0  0  0  0  0  0  0  0  0  0
  -24.8734   -8.3486   23.4987 N   0  0  0  0  0  0  0  0  0  0  0  0
  -28.7637  -20.7883   18.5254 N   0  0  0  0  0  0  0  0  0  0  0  0
  -25.9161  -33.3752   21.8015 N   0  0  0  0  0  0  0  0  0  0  0  0
  -22.9852  -29.1495   25.2110 N   0  0  0  0  0  0  0  0  0  0  0  0
  -20.6726  -26.4554   24.5319 N   0  3  0  0  0  0  0  0  0  0  0  0
  -27.0109   -8.5482   24.3048 O   0  0  0  0  0  0  0  0  0  0  0  0
  -27.0663  -31.3991   21.3609 O   0  0  0  0  0  0  0  0  0  0  0  0
  -23.4317  -31.6794   23.9427 O   0  0  0  0  0  0  0  0  0  0  0  0
  -23.4381  -26.9731   24.5514 O   0  0  0  0  0  0  0  0  0  0  0  0
  -28.6847  -16.0392   21.6143 O   0  0  0  0  0  0  0  0  0  0  0  0
  -20.2449   -9.1541   20.5048 O   0  0  0  0  0  0  0  0  0  0  0  0
  -27.4392  -25.9543   19.1327 O   0  0  0  0  0  0  0  0  0  1  0  0
  -18.9664   -3.7951   20.2805 F   0  0  0  0  0  0  0  0  0  0  0  0
  -20.6519   -7.5064   22.6869 F   0  0  0  0  0  0  0  0  0  0  0  0
  1  2  1  0  0  0  0
  1  5  2  0  0  0  0
  2  6  2  0  0  0  0
  3  8  2  0  0  0  0
  3 15  1  0  0  0  0
  4  9  1  0  0  0  0
  4 15  2  0  0  0  0
  5 17  1  0  0  0  0
  6 19  1  0  0  0  0
  7 10  2  0  0  0  0
  7 18  1  0  0  0  0
  8 23  1  0  0  0  0
  9 23  2  0  0  0  0
 10 24  1  0  0  0  0
 11 12  2  0  0  0  0
 11 25  1  0  0  0  0
 12 26  1  0  0  0  0
 13 20  1  0  0  0  0
 13 24  2  0  0  0  0
 14 26  2  0  0  0  0
 14 27  1  0  0  0  0
 15 28  1  0  0  0  0
 16 28  1  0  0  0  0
 16 30  2  0  0  0  0
 16 32  1  0  0  0  0
 17 19  2  0  0  0  0
 17 37  1  0  0  0  0
 18 20  2  0  0  0  0
 18 38  1  0  0  0  0
 19 50  1  0  0  0  0
 20 39  1  0  0  0  0
 21 22  1  0  0  0  0
 21 29  2  0  0  0  0
 21 54  1  0  0  0  0
 22 31  2  0  0  0  0
 22 55  1  0  0  0  0
 23 83  1  0  0  0  0
 24 84  1  0  0  0  0
 25 27  2  0  0  0  0
 25 83  1  0  0  0  0
 26 85  1  0  0  0  0
 27 86  1  0  0  0  0
 28 66  2  0  0  0  0
 29 62  1  0  0  0  0
 29 67  1  0  0  0  0
 30 68  1  0  0  0  0
 30 72  1  0  0  0  0
 31 67  1  0  0  0  0
 31 74  1  0  0  0  0
 32 73  1  0  0  0  0
 32 78  2  0  0  0  0
 33 51  1  0  0  0  0
 33 75  1  0  0  0  0
 33 79  2  0  0  0  0
 34 63  1  0  0  0  0
 34 69  1  0  0  0  0
 34 80  2  0  0  0  0
 35 64  1  0  0  0  0
 35 76  1  0  0  0  0
 35 81  2  0  0  0  0
 36 70  1  0  0  0  0
 36 71  1  0  0  0  0
 36 82  2  0  0  0  0
 37 40  1  0  0  0  0
 38 51  1  0  0  0  0
 39 69  1  0  0  0  0
 40 42  1  0  0  0  0
 41 43  1  0  0  0  0
 41 46  1  0  0  0  0
 42 50  1  0  0  0  0
 43 52  1  0  0  0  0
 44 47  1  0  0  0  0
 44 53  1  0  0  0  0
 45 48  1  0  0  0  0
 45 53  1  0  0  0  0
 46 70  1  0  0  0  0
 47 71  1  0  0  0  0
 48 71  1  0  0  0  0
 49 52  1  0  0  0  0
 49 70  1  0  0  0  0
 50 75  1  0  0  0  0
 51 69  1  0  0  0  0
 52 68  1  0  0  0  0
 53 74  1  0  0  0  0
 56 64  1  0  0  0  0
 57 65  1  0  0  0  0
 58 65  1  0  0  0  0
 59 65  1  0  0  0  0
 60 67  1  0  0  0  0
 61 77  1  0  0  0  0
 62 84  1  0  0  0  0
 63 65  1  0  0  0  0
 63 76  1  0  0  0  0
 64 77  1  0  0  0  0
 66 68  1  0  0  0  0
M  CHG  1  77   1
M  ISO  4  36 100  62 101  71 100  84 101
M  END
> <Batch ID>
0160

> <Smiles>
CNC(C)C(=O)NC(C(=O)N1Cc2cc([101O:1][101CH2:1]c3c(C)c(C)c(NC4CC[100N:0]([100C:0](=O)N5CCCC(n6nc(-c7ccc(Oc8ccc(F)cc8F)cc7)c(C(N)=O)c6N)C5)CC4)n3C)ccc2CC1C(=O)NC1CCCc2ccccc21)C(C)(C)C

> <Shape>
0.285

> <Color>
0.093

> <Negative vol penalty>
0.000

$$$$

  -OEChem-04052322093D

 87 96  0     1  0  0  0  0  0999 V2000
  -32.2798  -15.1167   21.3372 C   0  0  0  0  0  0  0  0  0  0  0  0
  -31.3272  -16.1108   21.5365 C   0  0  0  0  0  0  0  0  0  0  0  0
  -28.1571  -27.4098   18.9799 C   0  0  0  0  0  0  0  0  0  0  0  0
  -29.2858  -27.7994   21.0802 C   0  0  0  0  0  0  0  0  0  0  0  0
  -31.9273  -13.9354   20.6860 C   0  0  0  0  0  0  0  0  0  0  0  0
  -30.0216  -15.9245   21.0836 C   0  0  0  0  0  0  0  0  0  0  0  0
  -24.8815  -17.9286   23.7423 C   0  0  0  0  0  0  0  0  0  0  0  0
  -29.0120  -26.3390   18.7190 C   0  0  0  0  0  0  0  0  0  0  0  0
  -30.1407  -26.7286   20.8194 C   0  0  0  0  0  0  0  0  0  0  0  0
  -24.0726  -19.0385   23.5025 C   0  0  0  0  0  0  0  0  0  0  0  0
  -29.3193  -23.1084   19.6685 C   0  0  0  0  0  0  0  0  0  0  0  0
  -28.7519  -21.9276   19.1897 C   0  0  0  0  0  0  0  0  0  0  0  0
  -22.6208  -17.6782   22.1383 C   0  0  0  0  0  0  0  0  0  0  0  0
  -21.5074  -22.8544   21.4489 C   0  0  0  0  0  0  0  0  0  0  0  0
  -30.0960  -22.0931   17.1889 C   0  0  0  0  0  0  0  0  0  0  0  0
  -20.6012  -22.7216   23.6438 C   0  0  0  0  0  0  0  0  0  0  0  0
  -28.2940  -28.1401   20.1604 C   0  0  0  0  0  0  0  0  0  0  0  0
  -27.2482  -30.4118   19.6571 C   0  0  0  0  0  0  0  0  0  0  0  0
  -30.6143  -13.7305   20.2335 C   0  0  0  0  0  0  0  0  0  0  0  0
  -24.5716  -16.6855   23.1721 C   0  0  0  0  0  0  0  0  0  0  0  0
  -29.6515  -14.7399   20.4245 C   0  0  0  0  0  0  0  0  0  0  0  0
  -23.4259  -16.5534   22.3746 C   0  0  0  0  0  0  0  0  0  0  0  0
  -21.5335  -22.2843   22.7167 C   0  0  0  0  0  0  0  0  0  0  0  0
  -20.5632  -23.8307   21.1510 C   0  0  0  0  0  0  0  0  0  0  0  0
  -30.0038  -25.9984   19.6388 C   0  0  0  0  0  0  0  0  0  0  0  0
  -22.9437  -18.9141   22.6980 C   0  0  0  0  0  0  0  0  0  0  0  0
  -30.2751  -23.7816   18.9076 C   0  0  0  0  0  0  0  0  0  0  0  0
  -29.1403  -21.4199   17.9499 C   0  0  0  0  0  0  0  0  0  0  0  0
  -30.6634  -23.2739   17.6678 C   0  0  0  0  0  0  0  0  0  0  0  0
  -27.4115  -29.2467   20.4302 C   0  0  0  0  0  0  0  0  0  0  0  0
  -19.6742  -24.1986   22.1481 C   0  0  0  0  0  0  0  0  0  0  0  0
  -26.3033  -31.1434   20.3341 C   0  0  0  0  0  0  0  0  0  0  0  0
  -27.8930  -30.7981   18.4361 C   0  0  0  0  0  0  0  0  0  0  0  0
  -26.0248  -14.7287   21.1319 C   0  0  0  0  0  0  0  0  0  0  0  0
  -23.5442  -12.7665   21.8518 C   0  0  0  0  0  0  0  0  0  0  0  0
  -20.3360  -12.4430   22.9697 C   0  0  0  0  0  0  0  0  0  0  0  0
  -21.9352  -29.7894   24.0439 C   0  0  0  0  0  0  0  0  0  0  0  0
  -30.2921  -12.4568   19.4929 C   0  0  0  0  0  0  0  0  0  0  0  0
  -25.4395  -15.4918   23.4623 C   0  0  0  0  0  0  0  0  0  0  0  0
  -23.0382  -15.2363   21.7555 C   0  0  0  0  0  0  0  0  0  0  0  0
  -28.7951  -12.1820   19.3763 C   0  0  0  0  0  0  0  0  0  0  0  0
  -24.5894  -31.9151   24.7244 C   0  0  0  0  0  0  0  0  0  0  0  0
  -28.0537  -13.4414   18.9390 C   0  0  0  0  0  0  0  0  0  0  0  0
  -25.6082  -31.5921   23.6324 C   0  0  0  0  0  0  0  0  0  0  0  0
  -19.1250  -28.7816   22.1196 C   0  0  0  0  0  0  0  0  0  0  0  0
  -23.9250  -30.6448   25.2420 C   0  0  0  0  0  0  0  0  0  0  0  0
  -24.2634  -29.5053   23.0722 C   0  0  0  0  0  0  0  0  0  0  0  0
  -18.0700  -27.6894   22.2013 C   0  0  0  0  0  0  0  0  0  0  0  0
  -20.2513  -26.8660   22.9411 C   0  0  0  0  0  0  0  0  0  0  0  0
  -28.2188  -14.5647   19.9697 C   0  0  1  0  0  0  0  0  0  0  0  0
  -25.3139  -14.3923   22.4121 C   0  0  1  0  0  0  0  0  0  0  0  0
  -24.9670  -30.7576   22.5098 C   0  0  2  0  0  0  0  0  0  0  0  0
  -20.1587  -28.3644   23.1515 C   0  0  1  0  0  0  0  0  0  0  0  0
  -20.5308  -24.4470   19.7951 C   0  0  0  0  0  0  0  0  0  0  0  0
  -17.2045  -24.7375   22.0926 C   0  0  0  0  0  0  0  0  0  0  0  0
  -18.5690  -10.7171   23.4131 C   0  0  0  0  0  0  0  0  0  0  0  0
  -23.0149  -12.5421   18.8552 C   0  0  0  0  0  0  0  0  0  0  0  0
  -20.7475  -11.6280   19.3948 C   0  0  0  0  0  0  0  0  0  0  0  0
  -22.7918  -10.3948   20.1176 C   0  0  0  0  0  0  0  0  0  0  0  0
  -22.1879  -28.6316   21.8077 C   0  0  0  0  0  0  0  0  0  0  0  0
  -20.2263  -13.1263   25.8472 C   0  0  0  0  0  0  0  0  0  0  0  0
  -22.5388  -21.2279   23.0698 C   0  0  0  0  0  0  0  0  0  1  0  0
  -18.6377  -25.2417   21.8849 C   0  0  1  0  0  0  0  0  0  0  0  0
  -22.1603  -12.5431   21.2915 C   0  0  1  0  0  0  0  0  0  0  0  0
  -19.7180  -11.5193   24.0039 C   0  0  2  0  0  0  0  0  0  0  0  0
  -22.1867  -11.8024   19.9247 C   0  0  0  0  0  0  0  0  0  0  0  0
  -19.6689  -23.6674   23.3913 N   0  0  0  0  0  0  0  0  0  0  0  0
  -26.6329  -29.2346   21.5154 N   0  0  0  0  0  0  0  0  0  0  0  0
  -25.9713  -30.4012   21.4291 N   0  0  0  0  0  0  0  0  0  0  0  0
  -23.9221  -14.0999   22.0636 N   0  0  0  0  0  0  0  0  0  0  0  0
  -23.3315  -29.8745   24.1488 N   0  0  0  0  0  0  0  0  0  0  0  0
  -25.7325  -32.3429   20.0937 N   0  0  0  0  0  0  0  0  0  0  0  0
  -29.0848  -31.5316   18.5130 N   0  0  0  0  0  0  0  0  0  0  0  0
  -27.3506  -14.3400   21.1056 N   0  0  0  0  0  0  0  0  0  0  0  0
  -21.4056  -11.8518   22.3313 N   0  0  0  0  0  0  0  0  0  0  0  0
  -21.4165  -29.0317   22.9831 N   0  0  0  0  0  0  0  0  0  0  0  0
  -18.8060  -26.4678   22.7233 N   0  3  2  0  0  0  0  0  0  0  0  0
  -19.1971  -12.3072   25.1567 N   0  3  0  0  0  0  0  0  0  0  0  0
  -27.4173  -30.5158   17.3103 O   0  0  0  0  0  0  0  0  0  0  0  0
  -25.4152  -15.2974   20.2337 O   0  0  0  0  0  0  0  0  0  0  0  0
  -24.2607  -11.7933   22.0993 O   0  0  0  0  0  0  0  0  0  0  0  0
  -19.9100  -13.5742   22.7477 O   0  0  0  0  0  0  0  0  0  0  0  0
  -21.1915  -30.3527   24.8574 O   0  0  0  0  0  0  0  0  0  0  0  0
  -30.8381  -24.9534   19.3847 O   0  0  0  0  0  0  0  0  0  0  0  0
  -22.1528  -19.9960   22.4618 O   0  0  0  0  0  0  0  0  0  1  0  0
  -28.5964  -20.2852   17.4908 F   0  0  0  0  0  0  0  0  0  0  0  0
  -31.5820  -23.9156   16.9327 F   0  0  0  0  0  0  0  0  0  0  0  0
  1  2  1  0  0  0  0
  1  5  2  0  0  0  0
  2  6  2  0  0  0  0
  3  8  2  0  0  0  0
  3 17  1  0  0  0  0
  4  9  1  0  0  0  0
  4 17  2  0  0  0  0
  5 19  1  0  0  0  0
  6 21  1  0  0  0  0
  7 10  2  0  0  0  0
  7 20  1  0  0  0  0
  8 25  1  0  0  0  0
  9 25  2  0  0  0  0
 10 26  1  0  0  0  0
 11 12  2  0  0  0  0
 11 27  1  0  0  0  0
 12 28  1  0  0  0  0
 13 22  1  0  0  0  0
 13 26  2  0  0  0  0
 14 23  2  0  0  0  0
 14 24  1  0  0  0  0
 15 28  2  0  0  0  0
 15 29  1  0  0  0  0
 16 23  1  0  0  0  0
 16 67  2  0  0  0  0
 17 30  1  0  0  0  0
 18 30  1  0  0  0  0
 18 32  2  0  0  0  0
 18 33  1  0  0  0  0
 19 21  2  0  0  0  0
 19 38  1  0  0  0  0
 20 22  2  0  0  0  0
 20 39  1  0  0  0  0
 21 50  1  0  0  0  0
 22 40  1  0  0  0  0
 23 62  1  0  0  0  0
 24 31  2  0  0  0  0
 24 54  1  0  0  0  0
 25 84  1  0  0  0  0
 26 85  1  0  0  0  0
 27 29  2  0  0  0  0
 27 84  1  0  0  0  0
 28 86  1  0  0  0  0
 29 87  1  0  0  0  0
 30 68  2  0  0  0  0
 31 63  1  0  0  0  0
 31 67  1  0  0  0  0
 32 69  1  0  0  0  0
 32 72  1  0  0  0  0
 33 73  1  0  0  0  0
 33 79  2  0  0  0  0
 34 51  1  0  0  0  0
 34 74  1  0  0  0  0
 34 80  2  0  0  0  0
 35 64  1  0  0  0  0
 35 70  1  0  0  0  0
 35 81  2  0  0  0  0
 36 65  1  0  0  0  0
 36 75  1  0  0  0  0
 36 82  2  0  0  0  0
 37 71  1  0  0  0  0
 37 76  1  0  0  0  0
 37 83  2  0  0  0  0
 38 41  1  0  0  0  0
 39 51  1  0  0  0  0
 40 70  1  0  0  0  0
 41 43  1  0  0  0  0
 42 44  1  0  0  0  0
 42 46  1  0  0  0  0
 43 50  1  0  0  0  0
 44 52  1  0  0  0  0
 45 48  1  0  0  0  0
 45 53  1  0  0  0  0
 46 71  1  0  0  0  0
 47 52  1  0  0  0  0
 47 71  1  0  0  0  0
 48 77  1  0  0  0  0
 49 53  1  0  0  0  0
 49 77  1  0  0  0  0
 50 74  1  0  0  0  0
 51 70  1  0  0  0  0
 52 69  1  0  0  0  0
 53 76  1  0  0  0  0
 55 63  1  0  0  0  0
 56 65  1  0  0  0  0
 57 66  1  0  0  0  0
 58 66  1  0  0  0  0
 59 66  1  0  0  0  0
 60 76  1  0  0  0  0
 61 78  1  0  0  0  0
 62 85  1  0  0  0  0
 63 77  1  0  0  0  0
 64 66  1  0  0  0  0
 64 75  1  0  0  0  0
 65 78  1  0  0  0  0
 68 69  1  0  0  0  0
M  CHG  2  77   1  78   1
M  ISO  4  37 100  62 101  76 100  85 101
M  END
> <Batch ID>
0160

> <Smiles>
CNC(C)C(=O)NC(C(=O)N1Cc2cc([101O:1][101CH2:1]c3cnc(C(C)N4CCC([100N:0](C)[100C:0](=O)N5CCCC(n6nc(-c7ccc(Oc8ccc(F)cc8F)cc7)c(C(N)=O)c6N)C5)C4)c(C)c3)ccc2CC1C(=O)NC1CCCc2ccccc21)C(C)(C)C

> <Shape>
0.286

> <Color>
0.068

> <Negative vol penalty>
0.000

$$$$

  -OEChem-04052322093D

 84 92  0     1  0  0  0  0  0999 V2000
  -28.5559  -32.3157   20.4759 C   0  0  0  0  0  0  0  0  0  0  0  0
  -28.4556  -30.9658   20.7969 C   0  0  0  0  0  0  0  0  0  0  0  0
  -22.8801  -10.2770   20.0496 C   0  0  0  0  0  0  0  0  0  0  0  0
  -24.0450   -9.5576   22.0402 C   0  0  0  0  0  0  0  0  0  0  0  0
  -27.5069  -33.1828   20.7783 C   0  0  0  0  0  0  0  0  0  0  0  0
  -27.3065  -30.4824   21.4217 C   0  0  0  0  0  0  0  0  0  0  0  0
  -25.6598  -26.1514   19.3783 C   0  0  0  0  0  0  0  0  0  0  0  0
  -22.0914   -9.1275   20.0957 C   0  0  0  0  0  0  0  0  0  0  0  0
  -23.2562   -8.4081   22.0864 C   0  0  0  0  0  0  0  0  0  0  0  0
  -26.3345  -24.9836   19.7318 C   0  0  0  0  0  0  0  0  0  0  0  0
  -20.1337   -7.5698   23.0699 C   0  0  0  0  0  0  0  0  0  0  0  0
  -19.6039   -7.1984   24.3056 C   0  0  0  0  0  0  0  0  0  0  0  0
  -24.5937  -24.4656   21.3194 C   0  0  0  0  0  0  0  0  0  0  0  0
  -28.1435  -20.2978   20.0607 C   0  0  0  0  0  0  0  0  0  0  0  0
  -20.7749   -5.0893   24.1737 C   0  0  0  0  0  0  0  0  0  0  0  0
  -23.8570  -10.4921   21.0218 C   0  0  0  0  0  0  0  0  0  0  0  0
  -24.4028  -12.9204   21.5809 C   0  0  0  0  0  0  0  0  0  0  0  0
  -26.3403  -32.7080   21.3984 C   0  0  0  0  0  0  0  0  0  0  0  0
  -24.4505  -26.4911   20.0016 C   0  0  0  0  0  0  0  0  0  0  0  0
  -26.2414  -31.3442   21.7340 C   0  0  0  0  0  0  0  0  0  0  0  0
  -23.9044  -25.6369   20.9702 C   0  0  0  0  0  0  0  0  0  0  0  0
  -28.2399  -21.4255   20.8759 C   0  0  0  0  0  0  0  0  0  0  0  0
  -28.6486  -19.0742   20.5003 C   0  0  0  0  0  0  0  0  0  0  0  0
  -28.8414  -21.3296   22.1307 C   0  0  0  0  0  0  0  0  0  0  0  0
  -29.3466  -20.1059   22.5704 C   0  0  0  0  0  0  0  0  0  0  0  0
  -22.2794   -8.1931   21.1141 C   0  0  0  0  0  0  0  0  0  0  0  0
  -25.8030  -24.1420   20.7045 C   0  0  0  0  0  0  0  0  0  0  0  0
  -20.9840   -6.7009   22.3860 C   0  0  0  0  0  0  0  0  0  0  0  0
  -29.2502  -18.9782   21.7551 C   0  0  0  0  0  0  0  0  0  0  0  0
  -19.9245   -5.9582   24.8575 C   0  0  0  0  0  0  0  0  0  0  0  0
  -21.3046   -5.4607   22.9379 C   0  0  0  0  0  0  0  0  0  0  0  0
  -24.6724  -11.6790   20.9743 C   0  0  0  0  0  0  0  0  0  0  0  0
  -25.4743  -13.7091   21.2399 C   0  0  0  0  0  0  0  0  0  0  0  0
  -23.2839  -13.3245   22.3812 C   0  0  0  0  0  0  0  0  0  0  0  0
  -23.4601  -28.9127   21.8067 C   0  0  0  0  0  0  0  0  0  0  0  0
  -20.5800  -27.4515   21.5032 C   0  0  0  0  0  0  0  0  0  0  0  0
  -18.8375  -24.5787   20.9055 C   0  0  0  0  0  0  0  0  0  0  0  0
  -30.9699  -14.4427   20.6028 C   0  0  0  0  0  0  0  0  0  0  0  0
  -25.2523  -33.6921   21.7485 C   0  0  0  0  0  0  0  0  0  0  0  0
  -23.7216  -27.7407   19.5900 C   0  0  0  0  0  0  0  0  0  0  0  0
  -22.5989  -25.9460   21.6547 C   0  0  0  0  0  0  0  0  0  0  0  0
  -23.9147  -33.0316   22.0722 C   0  0  0  0  0  0  0  0  0  0  0  0
  -29.1985  -12.9406   17.9043 C   0  0  0  0  0  0  0  0  0  0  0  0
  -24.1160  -31.8571   23.0245 C   0  0  0  0  0  0  0  0  0  0  0  0
  -27.8440  -12.5755   18.5140 C   0  0  0  0  0  0  0  0  0  0  0  0
  -30.3367  -12.7537   18.9050 C   0  0  0  0  0  0  0  0  0  0  0  0
  -28.7974  -13.0872   20.8005 C   0  0  0  0  0  0  0  0  0  0  0  0
  -25.0009  -30.7775   22.3897 C   0  0  1  0  0  0  0  0  0  0  0  0
  -22.7568  -28.2486   20.6570 C   0  0  1  0  0  0  0  0  0  0  0  0
  -27.6119  -13.3129   19.8466 C   0  0  2  0  0  0  0  0  0  0  0  0
  -28.5357  -17.8783   19.6133 C   0  0  0  0  0  0  0  0  0  0  0  0
  -28.9430  -22.5398   23.0041 C   0  0  0  0  0  0  0  0  0  0  0  0
  -29.9920  -19.9965   23.9151 C   0  0  0  0  0  0  0  0  0  0  0  0
  -16.4954  -23.6893   20.7610 C   0  0  0  0  0  0  0  0  0  0  0  0
  -20.3806  -27.4889   24.5476 C   0  0  0  0  0  0  0  0  0  0  0  0
  -18.5500  -25.7893   24.3790 C   0  0  0  0  0  0  0  0  0  0  0  0
  -18.2533  -28.0450   23.3559 C   0  0  0  0  0  0  0  0  0  0  0  0
  -19.1878  -23.7898   18.0746 C   0  0  0  0  0  0  0  0  0  0  0  0
  -27.6886  -22.7296   20.3793 C   0  0  0  0  0  0  0  0  0  1  0  0
  -31.4599  -16.1088   22.3758 C   0  0  0  0  0  0  0  0  0  0  0  0
  -31.1054  -17.4946   21.8671 C   0  0  0  0  0  0  0  0  0  0  0  0
  -19.8321  -26.3919   22.2757 C   0  0  1  0  0  0  0  0  0  0  0  0
  -17.6628  -24.2851   19.9898 C   0  0  2  0  0  0  0  0  0  0  0  0
  -19.2796  -26.9236   23.6283 C   0  0  0  0  0  0  0  0  0  0  0  0
  -25.8248  -11.6745   20.2989 N   0  0  0  0  0  0  0  0  0  0  0  0
  -26.2887  -12.9229   20.4791 N   0  0  0  0  0  0  0  0  0  0  0  0
  -21.9271  -27.1826   21.2223 N   0  0  0  0  0  0  0  0  0  0  0  0
  -30.0554  -13.4794   20.1461 N   0  0  0  0  0  0  0  0  0  0  0  0
  -25.7899  -14.9916   21.5195 N   0  0  0  0  0  0  0  0  0  0  0  0
  -22.2714  -12.3892   22.6348 N   0  0  0  0  0  0  0  0  0  0  0  0
  -24.2396  -29.9935   21.4408 N   0  0  0  0  0  0  0  0  0  0  0  0
  -18.8084  -25.8753   21.3737 N   0  0  0  0  0  0  0  0  0  0  0  0
  -30.6238  -15.0886   21.7834 N   0  0  0  0  0  0  0  0  0  0  0  0
  -18.0637  -23.3218   18.9257 N   0  3  0  0  0  0  0  0  0  0  0  0
  -23.1769  -14.4857   22.8436 O   0  0  0  0  0  0  0  0  0  0  0  0
  -23.3059  -28.4778   22.9419 O   0  0  0  0  0  0  0  0  0  0  0  0
  -19.9888  -28.4768   21.1554 O   0  0  0  0  0  0  0  0  0  0  0  0
  -19.6930  -23.7405   21.1811 O   0  0  0  0  0  0  0  0  0  0  0  0
  -32.0147  -14.7114   20.0002 O   0  0  0  0  0  0  0  0  0  0  0  0
  -21.5098   -7.0714   21.1596 O   0  0  0  0  0  0  0  0  0  0  0  0
  -26.4598  -23.0019   21.0518 O   0  0  0  0  0  0  0  0  0  1  0  0
  -29.7453  -17.7812   22.1827 O   0  0  0  0  0  0  0  0  0  0  0  0
  -19.4169   -5.6023   26.0449 F   0  0  0  0  0  0  0  0  0  0  0  0
  -22.1219   -4.6222   22.2862 F   0  0  0  0  0  0  0  0  0  0  0  0
  1  2  1  0  0  0  0
  1  5  2  0  0  0  0
  2  6  2  0  0  0  0
  3  8  2  0  0  0  0
  3 16  1  0  0  0  0
  4  9  1  0  0  0  0
  4 16  2  0  0  0  0
  5 18  1  0  0  0  0
  6 20  1  0  0  0  0
  7 10  2  0  0  0  0
  7 19  1  0  0  0  0
  8 26  1  0  0  0  0
  9 26  2  0  0  0  0
 10 27  1  0  0  0  0
 11 12  2  0  0  0  0
 11 28  1  0  0  0  0
 12 30  1  0  0  0  0
 13 21  1  0  0  0  0
 13 27  2  0  0  0  0
 14 22  1  0  0  0  0
 14 23  2  0  0  0  0
 15 30  2  0  0  0  0
 15 31  1  0  0  0  0
 16 32  1  0  0  0  0
 17 32  1  0  0  0  0
 17 33  2  0  0  0  0
 17 34  1  0  0  0  0
 18 20  2  0  0  0  0
 18 39  1  0  0  0  0
 19 21  2  0  0  0  0
 19 40  1  0  0  0  0
 20 48  1  0  0  0  0
 21 41  1  0  0  0  0
 22 24  2  0  0  0  0
 22 59  1  0  0  0  0
 23 29  1  0  0  0  0
 23 51  1  0  0  0  0
 24 25  1  0  0  0  0
 24 52  1  0  0  0  0
 25 29  2  0  0  0  0
 25 53  1  0  0  0  0
 26 80  1  0  0  0  0
 27 81  1  0  0  0  0
 28 31  2  0  0  0  0
 28 80  1  0  0  0  0
 29 82  1  0  0  0  0
 30 83  1  0  0  0  0
 31 84  1  0  0  0  0
 32 65  2  0  0  0  0
 33 66  1  0  0  0  0
 33 69  1  0  0  0  0
 34 70  1  0  0  0  0
 34 75  2  0  0  0  0
 35 49  1  0  0  0  0
 35 71  1  0  0  0  0
 35 76  2  0  0  0  0
 36 62  1  0  0  0  0
 36 67  1  0  0  0  0
 36 77  2  0  0  0  0
 37 63  1  0  0  0  0
 37 72  1  0  0  0  0
 37 78  2  0  0  0  0
 38 68  1  0  0  0  0
 38 73  1  0  0  0  0
 38 79  2  0  0  0  0
 39 42  1  0  0  0  0
 40 49  1  0  0  0  0
 41 67  1  0  0  0  0
 42 44  1  0  0  0  0
 43 45  1  0  0  0  0
 43 46  1  0  0  0  0
 44 48  1  0  0  0  0
 45 50  1  0  0  0  0
 46 68  1  0  0  0  0
 47 50  1  0  0  0  0
 47 68  1  0  0  0  0
 48 71  1  0  0  0  0
 49 67  1  0  0  0  0
 50 66  1  0  0  0  0
 54 63  1  0  0  0  0
 55 64  1  0  0  0  0
 56 64  1  0  0  0  0
 57 64  1  0  0  0  0
 58 74  1  0  0  0  0
 59 81  1  0  0  0  0
 60 61  1  0  0  0  0
 60 73  1  0  0  0  0
 61 82  1  0  0  0  0
 62 64  1  0  0  0  0
 62 72  1  0  0  0  0
 63 74  1  0  0  0  0
 65 66  1  0  0  0  0
M  CHG  1  74   1
M  ISO  4  38 100  59 101  73 100  81 101
M  END
> <Batch ID>
0160

> <Smiles>
CNC(C)C(=O)NC(C(=O)N1Cc2cc([101O:1][101CH2:1]c3cc(C)c(OCC[100NH:0][100C:0](=O)N4CCCC(n5nc(-c6ccc(Oc7ccc(F)cc7F)cc6)c(C(N)=O)c5N)C4)c(C)c3C)ccc2CC1C(=O)NC1CCCc2ccccc21)C(C)(C)C

> <Shape>
0.346

> <Color>
0.155

> <Negative vol penalty>
0.000

$$$$

  -OEChem-04052322093D

 87 96  0     1  0  0  0  0  0999 V2000
  -27.0723  -37.6694   24.1793 C   0  0  0  0  0  0  0  0  0  0  0  0
  -27.7705  -36.6715   23.5069 C   0  0  0  0  0  0  0  0  0  0  0  0
  -23.6458  -10.4798   22.4210 C   0  0  0  0  0  0  0  0  0  0  0  0
  -24.4813   -8.6121   21.1362 C   0  0  0  0  0  0  0  0  0  0  0  0
  -25.9433  -37.3440   24.9298 C   0  0  0  0  0  0  0  0  0  0  0  0
  -27.3408  -35.3473   23.5856 C   0  0  0  0  0  0  0  0  0  0  0  0
  -27.0616  -29.3287   19.7106 C   0  0  0  0  0  0  0  0  0  0  0  0
  -22.5049   -9.7460   22.7457 C   0  0  0  0  0  0  0  0  0  0  0  0
  -23.3404   -7.8783   21.4609 C   0  0  0  0  0  0  0  0  0  0  0  0
  -27.4061  -27.9801   19.7894 C   0  0  0  0  0  0  0  0  0  0  0  0
  -20.8152   -5.3838   22.2479 C   0  0  0  0  0  0  0  0  0  0  0  0
  -20.9873   -4.0577   22.6445 C   0  0  0  0  0  0  0  0  0  0  0  0
  -25.3964  -27.5467   21.0514 C   0  0  0  0  0  0  0  0  0  0  0  0
  -28.7022  -23.3679   21.2911 C   0  0  0  0  0  0  0  0  0  0  0  0
  -28.0865  -23.0541   18.9761 C   0  0  0  0  0  0  0  0  0  0  0  0
  -22.3515   -4.7893   24.4994 C   0  0  0  0  0  0  0  0  0  0  0  0
  -24.6340   -9.9128   21.6162 C   0  0  0  0  0  0  0  0  0  0  0  0
  -27.0241  -10.7201   21.9953 C   0  0  0  0  0  0  0  0  0  0  0  0
  -25.4939  -36.0165   25.0099 C   0  0  0  0  0  0  0  0  0  0  0  0
  -25.8855  -29.7993   20.3120 C   0  0  0  0  0  0  0  0  0  0  0  0
  -26.2055  -35.0036   24.3390 C   0  0  0  0  0  0  0  0  0  0  0  0
  -25.0380  -28.9014   20.9766 C   0  0  0  0  0  0  0  0  0  0  0  0
  -28.6523  -21.1454   20.3450 C   0  0  0  0  0  0  0  0  0  0  0  0
  -28.3084  -23.8995   20.0632 C   0  0  0  0  0  0  0  0  0  0  0  0
  -28.8742  -21.9908   21.4320 C   0  0  0  0  0  0  0  0  0  0  0  0
  -28.2584  -21.6770   19.1170 C   0  0  0  0  0  0  0  0  0  0  0  0
  -22.3521   -8.4453   22.2657 C   0  0  0  0  0  0  0  0  0  0  0  0
  -26.5749  -27.0894   20.4624 C   0  0  0  0  0  0  0  0  0  0  0  0
  -21.4114   -6.4128   22.9771 C   0  0  0  0  0  0  0  0  0  0  0  0
  -21.7553   -3.7604   23.7702 C   0  0  0  0  0  0  0  0  0  0  0  0
  -22.1795   -6.1155   24.1028 C   0  0  0  0  0  0  0  0  0  0  0  0
  -25.8126  -10.6705   21.2800 C   0  0  0  0  0  0  0  0  0  0  0  0
  -27.8173  -11.5739   21.2684 C   0  0  0  0  0  0  0  0  0  0  0  0
  -27.3989  -10.0539   23.2082 C   0  0  0  0  0  0  0  0  0  0  0  0
  -25.2244  -31.8844   22.6183 C   0  0  0  0  0  0  0  0  0  0  0  0
  -22.1593  -31.3046   21.7289 C   0  0  0  0  0  0  0  0  0  0  0  0
  -19.9185  -29.1877   20.2646 C   0  0  0  0  0  0  0  0  0  0  0  0
  -28.6565  -16.1466   18.3689 C   0  0  0  0  0  0  0  0  0  0  0  0
  -24.2959  -35.7065   25.8721 C   0  0  0  0  0  0  0  0  0  0  0  0
  -25.5146  -31.2523   20.1951 C   0  0  0  0  0  0  0  0  0  0  0  0
  -23.7539  -29.3524   21.6217 C   0  0  0  0  0  0  0  0  0  0  0  0
  -23.6883  -34.3329   25.5994 C   0  0  0  0  0  0  0  0  0  0  0  0
  -27.2040  -13.5234   16.6494 C   0  0  0  0  0  0  0  0  0  0  0  0
  -24.7807  -33.2706   25.5275 C   0  0  0  0  0  0  0  0  0  0  0  0
  -26.8079  -12.5413   17.7517 C   0  0  0  0  0  0  0  0  0  0  0  0
  -27.5277  -18.8759   20.2649 C   0  0  0  0  0  0  0  0  0  0  0  0
  -29.9558  -19.1086   19.5866 C   0  0  0  0  0  0  0  0  0  0  0  0
  -26.9151  -14.9600   17.0689 C   0  0  0  0  0  0  0  0  0  0  0  0
  -27.7304  -17.3631   20.3897 C   0  0  0  0  0  0  0  0  0  0  0  0
  -30.1075  -17.5992   19.7521 C   0  0  0  0  0  0  0  0  0  0  0  0
  -27.1913  -14.3874   19.4593 C   0  0  0  0  0  0  0  0  0  0  0  0
  -28.8389  -19.6477   20.4987 C   0  0  0  0  0  0  0  0  0  0  0  0
  -25.7561  -33.5591   24.3800 C   0  0  1  0  0  0  0  0  0  0  0  0
  -24.5523  -31.7129   21.2855 C   0  0  1  0  0  0  0  0  0  0  0  0
  -27.4692  -12.9160   19.0899 C   0  0  1  0  0  0  0  0  0  0  0  0
  -29.2954  -21.4467   22.7580 C   0  0  0  0  0  0  0  0  0  0  0  0
  -28.9743  -21.0926   16.7719 C   0  0  0  0  0  0  0  0  0  0  0  0
  -26.5566  -20.8594   17.4468 C   0  0  0  0  0  0  0  0  0  0  0  0
  -17.4786  -28.9720   19.7190 C   0  0  0  0  0  0  0  0  0  0  0  0
  -21.5655  -30.6580   24.6511 C   0  0  0  0  0  0  0  0  0  0  0  0
  -19.4427  -29.5605   23.9044 C   0  0  0  0  0  0  0  0  0  0  0  0
  -19.7952  -31.9964   23.4982 C   0  0  0  0  0  0  0  0  0  0  0  0
  -20.4623  -29.0404   17.3591 C   0  0  0  0  0  0  0  0  0  0  0  0
  -28.1252  -25.3718   19.9124 C   0  0  0  0  0  0  0  0  0  1  0  0
  -28.0143  -20.7932   17.9376 C   0  0  0  0  0  0  0  0  0  0  0  0
  -21.0977  -30.3115   22.1357 C   0  0  1  0  0  0  0  0  0  0  0  0
  -18.8421  -29.4251   19.2208 C   0  0  2  0  0  0  0  0  0  0  0  0
  -20.5004  -30.6231   23.5370 C   0  0  0  0  0  0  0  0  0  0  0  0
  -25.8299  -11.4323   20.1830 N   0  0  0  0  0  0  0  0  0  0  0  0
  -27.0620  -11.9687   20.2036 N   0  0  0  0  0  0  0  0  0  0  0  0
  -23.4382  -30.7840   21.4855 N   0  0  0  0  0  0  0  0  0  0  0  0
  -27.5568  -15.2757   18.3449 N   0  0  0  0  0  0  0  0  0  0  0  0
  -28.8343  -16.9146   19.5296 N   0  0  0  0  0  0  0  0  0  0  0  0
  -29.0801  -12.0180   21.4426 N   0  0  0  0  0  0  0  0  0  0  0  0
  -26.4632   -9.2121   23.8248 N   0  0  0  0  0  0  0  0  0  0  0  0
  -25.1734  -33.1738   23.1125 N   0  0  0  0  0  0  0  0  0  0  0  0
  -20.1156  -30.2988   21.0569 N   0  0  0  0  0  0  0  0  0  0  0  0
  -19.1583  -28.6771   17.9712 N   0  3  0  0  0  0  0  0  0  0  0  0
  -28.5244  -10.2136   23.7387 O   0  0  0  0  0  0  0  0  0  0  0  0
  -25.7492  -30.9180   23.1591 O   0  0  0  0  0  0  0  0  0  0  0  0
  -21.8630  -32.4975   21.6237 O   0  0  0  0  0  0  0  0  0  0  0  0
  -20.5214  -28.1218   20.3692 O   0  0  0  0  0  0  0  0  0  0  0  0
  -29.4346  -16.2330   17.4106 O   0  0  0  0  0  0  0  0  0  0  0  0
  -21.2390   -7.7289   22.5825 O   0  0  0  0  0  0  0  0  0  0  0  0
  -26.9114  -25.7635   20.5419 O   0  0  0  0  0  0  0  0  0  1  0  0
  -21.9192   -2.4869   24.1518 F   0  0  0  0  0  0  0  0  0  0  0  0
  -22.7537   -7.0998   24.8080 F   0  0  0  0  0  0  0  0  0  0  0  0
  1  2  1  0  0  0  0
  1  5  2  0  0  0  0
  2  6  2  0  0  0  0
  3  8  2  0  0  0  0
  3 17  1  0  0  0  0
  4  9  1  0  0  0  0
  4 17  2  0  0  0  0
  5 19  1  0  0  0  0
  6 21  1  0  0  0  0
  7 10  2  0  0  0  0
  7 20  1  0  0  0  0
  8 27  1  0  0  0  0
  9 27  2  0  0  0  0
 10 28  1  0  0  0  0
 11 12  2  0  0  0  0
 11 29  1  0  0  0  0
 12 30  1  0  0  0  0
 13 22  1  0  0  0  0
 13 28  2  0  0  0  0
 14 24  1  0  0  0  0
 14 25  2  0  0  0  0
 15 24  2  0  0  0  0
 15 26  1  0  0  0  0
 16 30  2  0  0  0  0
 16 31  1  0  0  0  0
 17 32  1  0  0  0  0
 18 32  1  0  0  0  0
 18 33  2  0  0  0  0
 18 34  1  0  0  0  0
 19 21  2  0  0  0  0
 19 39  1  0  0  0  0
 20 22  2  0  0  0  0
 20 40  1  0  0  0  0
 21 53  1  0  0  0  0
 22 41  1  0  0  0  0
 23 25  1  0  0  0  0
 23 26  2  0  0  0  0
 23 52  1  0  0  0  0
 24 64  1  0  0  0  0
 25 56  1  0  0  0  0
 26 65  1  0  0  0  0
 27 84  1  0  0  0  0
 28 85  1  0  0  0  0
 29 31  2  0  0  0  0
 29 84  1  0  0  0  0
 30 86  1  0  0  0  0
 31 87  1  0  0  0  0
 32 69  2  0  0  0  0
 33 70  1  0  0  0  0
 33 74  1  0  0  0  0
 34 75  1  0  0  0  0
 34 79  2  0  0  0  0
 35 54  1  0  0  0  0
 35 76  1  0  0  0  0
 35 80  2  0  0  0  0
 36 66  1  0  0  0  0
 36 71  1  0  0  0  0
 36 81  2  0  0  0  0
 37 67  1  0  0  0  0
 37 77  1  0  0  0  0
 37 82  2  0  0  0  0
 38 72  1  0  0  0  0
 38 73  1  0  0  0  0
 38 83  2  0  0  0  0
 39 42  1  0  0  0  0
 40 54  1  0  0  0  0
 41 71  1  0  0  0  0
 42 44  1  0  0  0  0
 43 45  1  0  0  0  0
 43 48  1  0  0  0  0
 44 53  1  0  0  0  0
 45 55  1  0  0  0  0
 46 49  1  0  0  0  0
 46 52  1  0  0  0  0
 47 50  1  0  0  0  0
 47 52  1  0  0  0  0
 48 72  1  0  0  0  0
 49 73  1  0  0  0  0
 50 73  1  0  0  0  0
 51 55  1  0  0  0  0
 51 72  1  0  0  0  0
 53 76  1  0  0  0  0
 54 71  1  0  0  0  0
 55 70  1  0  0  0  0
 57 65  1  0  0  0  0
 58 65  1  0  0  0  0
 59 67  1  0  0  0  0
 60 68  1  0  0  0  0
 61 68  1  0  0  0  0
 62 68  1  0  0  0  0
 63 78  1  0  0  0  0
 64 85  1  0  0  0  0
 66 68  1  0  0  0  0
 66 77  1  0  0  0  0
 67 78  1  0  0  0  0
 69 70  1  0  0  0  0
M  CHG  1  78   1
M  ISO  4  38 100  64 101  73 100  85 101
M  END
> <Batch ID>
0160

> <Smiles>
CNC(C)C(=O)NC(C(=O)N1Cc2cc([101O:1][101CH2:1]c3cc(C)c(C4CC[100N:0]([100C:0](=O)N5CCCC(n6nc(-c7ccc(Oc8ccc(F)cc8F)cc7)c(C(N)=O)c6N)C5)CC4)c(C(C)C)c3)ccc2CC1C(=O)NC1CCCc2ccccc21)C(C)(C)C

> <Shape>
0.327

> <Color>
0.087

> <Negative vol penalty>
0.000

$$$$

  -OEChem-04052322093D

 87 96  0     1  0  0  0  0  0999 V2000
  -28.1700  -33.1463   26.8952 C   0  0  0  0  0  0  0  0  0  0  0  0
  -28.1146  -31.9441   26.1972 C   0  0  0  0  0  0  0  0  0  0  0  0
  -22.9719  -10.3997   21.1954 C   0  0  0  0  0  0  0  0  0  0  0  0
  -24.6974   -8.7309   21.4688 C   0  0  0  0  0  0  0  0  0  0  0  0
  -27.0234  -33.9288   27.0256 C   0  0  0  0  0  0  0  0  0  0  0  0
  -26.9122  -31.5233   25.6300 C   0  0  0  0  0  0  0  0  0  0  0  0
  -27.4950  -29.7817   20.9107 C   0  0  0  0  0  0  0  0  0  0  0  0
  -21.9968   -9.4063   21.2850 C   0  0  0  0  0  0  0  0  0  0  0  0
  -23.7223   -7.7374   21.5585 C   0  0  0  0  0  0  0  0  0  0  0  0
  -28.0060  -28.4926   20.7663 C   0  0  0  0  0  0  0  0  0  0  0  0
  -21.5829   -6.5528   23.8909 C   0  0  0  0  0  0  0  0  0  0  0  0
  -21.7229   -5.5985   24.8984 C   0  0  0  0  0  0  0  0  0  0  0  0
  -25.7731  -27.6545   20.4045 C   0  0  0  0  0  0  0  0  0  0  0  0
  -21.8158   -3.8521   23.2314 C   0  0  0  0  0  0  0  0  0  0  0  0
  -24.3222  -10.0620   21.2872 C   0  0  0  0  0  0  0  0  0  0  0  0
  -25.8839  -11.8335   22.2517 C   0  0  0  0  0  0  0  0  0  0  0  0
  -25.8087  -33.5220   26.4514 C   0  0  0  0  0  0  0  0  0  0  0  0
  -26.1158  -30.0156   20.8137 C   0  0  0  0  0  0  0  0  0  0  0  0
  -25.7481  -32.3005   25.7539 C   0  0  0  0  0  0  0  0  0  0  0  0
  -25.2474  -28.9479   20.5455 C   0  0  0  0  0  0  0  0  0  0  0  0
  -27.3530  -22.9068   21.0856 C   0  0  0  0  0  0  0  0  0  0  0  0
  -28.1700  -23.5070   18.8926 C   0  0  0  0  0  0  0  0  0  0  0  0
  -27.4255  -23.8166   20.0308 C   0  0  0  0  0  0  0  0  0  0  0  0
  -28.0250  -21.6874   21.0023 C   0  0  0  0  0  0  0  0  0  0  0  0
  -28.8420  -22.2875   18.8093 C   0  0  0  0  0  0  0  0  0  0  0  0
  -28.7695  -21.3777   19.8641 C   0  0  0  0  0  0  0  0  0  0  0  0
  -22.3720   -8.0752   21.4666 C   0  0  0  0  0  0  0  0  0  0  0  0
  -27.1448  -27.4283   20.5160 C   0  0  0  0  0  0  0  0  0  0  0  0
  -21.5592   -6.1568   22.5536 C   0  0  0  0  0  0  0  0  0  0  0  0
  -21.8394   -4.2481   24.5687 C   0  0  0  0  0  0  0  0  0  0  0  0
  -21.6757   -4.8065   22.2239 C   0  0  0  0  0  0  0  0  0  0  0  0
  -25.3299  -11.0876   21.1941 C   0  0  0  0  0  0  0  0  0  0  0  0
  -26.7895  -12.6692   21.6450 C   0  0  0  0  0  0  0  0  0  0  0  0
  -25.6050  -11.7761   23.6569 C   0  0  0  0  0  0  0  0  0  0  0  0
  -23.8851  -31.1275   22.7864 C   0  0  0  0  0  0  0  0  0  0  0  0
  -22.0121  -30.9480   20.1440 C   0  0  0  0  0  0  0  0  0  0  0  0
  -21.4370  -29.5355   17.0910 C   0  0  0  0  0  0  0  0  0  0  0  0
  -27.8085  -16.2729   17.4198 C   0  0  0  0  0  0  0  0  0  0  0  0
  -24.5848  -34.3785   26.6593 C   0  0  0  0  0  0  0  0  0  0  0  0
  -25.5831  -31.4161   20.9454 C   0  0  0  0  0  0  0  0  0  0  0  0
  -23.7607  -29.1491   20.4122 C   0  0  0  0  0  0  0  0  0  0  0  0
  -23.4383  -34.0434   25.7086 C   0  0  0  0  0  0  0  0  0  0  0  0
  -28.5917  -12.7217   16.9210 C   0  0  0  0  0  0  0  0  0  0  0  0
  -23.2225  -32.5348   25.6434 C   0  0  0  0  0  0  0  0  0  0  0  0
  -27.8160  -12.0420   18.0502 C   0  0  0  0  0  0  0  0  0  0  0  0
  -29.7673  -17.7572   20.1541 C   0  0  0  0  0  0  0  0  0  0  0  0
  -27.9105  -14.0052   16.4515 C   0  0  0  0  0  0  0  0  0  0  0  0
  -29.0077  -16.5260   19.6712 C   0  0  0  0  0  0  0  0  0  0  0  0
  -26.8357  -14.2863   18.6513 C   0  0  0  0  0  0  0  0  0  0  0  0
  -28.2117  -18.4658   18.5013 C   0  0  0  0  0  0  0  0  0  0  0  0
  -24.4682  -31.8221   25.1033 C   0  0  1  0  0  0  0  0  0  0  0  0
  -24.1098  -31.4605   21.3385 C   0  0  1  0  0  0  0  0  0  0  0  0
  -27.5258  -13.0284   19.1968 C   0  0  1  0  0  0  0  0  0  0  0  0
  -28.7855  -18.8827   19.8471 C   0  0  2  0  0  0  0  0  0  0  0  0
  -26.5535  -23.2390   22.3064 C   0  0  0  0  0  0  0  0  0  0  0  0
  -28.2484  -24.4837   17.7619 C   0  0  0  0  0  0  0  0  0  0  0  0
  -27.9444  -20.7134   22.1362 C   0  0  0  0  0  0  0  0  0  0  0  0
  -29.6407  -21.9587   17.5862 C   0  0  0  0  0  0  0  0  0  0  0  0
  -20.3353  -29.1656   14.8668 C   0  0  0  0  0  0  0  0  0  0  0  0
  -20.0549  -29.2906   21.7969 C   0  0  0  0  0  0  0  0  0  0  0  0
  -18.9719  -28.5654   19.6593 C   0  0  0  0  0  0  0  0  0  0  0  0
  -18.9831  -30.9778   20.2940 C   0  0  0  0  0  0  0  0  0  0  0  0
  -23.1626  -31.5455   15.7716 C   0  0  0  0  0  0  0  0  0  0  0  0
  -26.7047  -25.1249   20.1204 C   0  0  0  0  0  0  0  0  0  1  0  0
  -21.1318  -29.8878   19.5276 C   0  0  1  0  0  0  0  0  0  0  0  0
  -21.0918  -30.1492   15.7461 C   0  0  2  0  0  0  0  0  0  0  0  0
  -19.8132  -29.6760   20.3238 C   0  0  0  0  0  0  0  0  0  0  0  0
  -25.8406  -11.4202   20.0056 N   0  0  0  0  0  0  0  0  0  0  0  0
  -26.7250  -12.3844   20.3127 N   0  0  0  0  0  0  0  0  0  0  0  0
  -23.2877  -30.5359   20.5552 N   0  0  0  0  0  0  0  0  0  0  0  0
  -27.6319  -14.8942   17.5797 N   0  0  0  0  0  0  0  0  0  0  0  0
  -28.2194  -17.0052   18.5329 N   0  0  0  0  0  0  0  0  0  0  0  0
  -27.6265  -13.6125   22.1264 N   0  0  0  0  0  0  0  0  0  0  0  0
  -24.6462  -10.8602   24.1109 N   0  0  0  0  0  0  0  0  0  0  0  0
  -29.4379  -20.1637   19.7810 N   0  0  0  0  0  0  0  0  0  0  0  0
  -24.5476  -31.9631   23.6652 N   0  0  0  0  0  0  0  0  0  0  0  0
  -20.9333  -30.2801   18.1365 N   0  0  0  0  0  0  0  0  0  0  0  0
  -22.3327  -30.5609   15.0308 N   0  3  0  0  0  0  0  0  0  0  0  0
  -26.1769  -12.5265   24.4835 O   0  0  0  0  0  0  0  0  0  0  0  0
  -23.1629  -30.1833   23.0842 O   0  0  0  0  0  0  0  0  0  0  0  0
  -21.5865  -32.1009   20.2500 O   0  0  0  0  0  0  0  0  0  0  0  0
  -22.0851  -28.4972   17.2028 O   0  0  0  0  0  0  0  0  0  0  0  0
  -27.6520  -16.8190   16.3196 O   0  0  0  0  0  0  0  0  0  0  0  0
  -21.4209   -7.1056   21.5544 O   0  0  0  0  0  0  0  0  0  0  0  0
  -27.6445  -26.1596   20.3742 O   0  0  0  0  0  0  0  0  0  1  0  0
  -21.9755   -3.3319   25.5363 F   0  0  0  0  0  0  0  0  0  0  0  0
  -21.6548   -4.4202   20.9408 F   0  0  0  0  0  0  0  0  0  0  0  0
  1  2  1  0  0  0  0
  1  5  2  0  0  0  0
  2  6  2  0  0  0  0
  3  8  2  0  0  0  0
  3 15  1  0  0  0  0
  4  9  1  0  0  0  0
  4 15  2  0  0  0  0
  5 17  1  0  0  0  0
  6 19  1  0  0  0  0
  7 10  2  0  0  0  0
  7 18  1  0  0  0  0
  8 27  1  0  0  0  0
  9 27  2  0  0  0  0
 10 28  1  0  0  0  0
 11 12  2  0  0  0  0
 11 29  1  0  0  0  0
 12 30  1  0  0  0  0
 13 20  1  0  0  0  0
 13 28  2  0  0  0  0
 14 30  2  0  0  0  0
 14 31  1  0  0  0  0
 15 32  1  0  0  0  0
 16 32  1  0  0  0  0
 16 33  2  0  0  0  0
 16 34  1  0  0  0  0
 17 19  2  0  0  0  0
 17 39  1  0  0  0  0
 18 20  2  0  0  0  0
 18 40  1  0  0  0  0
 19 51  1  0  0  0  0
 20 41  1  0  0  0  0
 21 23  1  0  0  0  0
 21 24  2  0  0  0  0
 21 55  1  0  0  0  0
 22 23  2  0  0  0  0
 22 25  1  0  0  0  0
 22 56  1  0  0  0  0
 23 64  1  0  0  0  0
 24 26  1  0  0  0  0
 24 57  1  0  0  0  0
 25 26  2  0  0  0  0
 25 58  1  0  0  0  0
 26 75  1  0  0  0  0
 27 84  1  0  0  0  0
 28 85  1  0  0  0  0
 29 31  2  0  0  0  0
 29 84  1  0  0  0  0
 30 86  1  0  0  0  0
 31 87  1  0  0  0  0
 32 68  2  0  0  0  0
 33 69  1  0  0  0  0
 33 73  1  0  0  0  0
 34 74  1  0  0  0  0
 34 79  2  0  0  0  0
 35 52  1  0  0  0  0
 35 76  1  0  0  0  0
 35 80  2  0  0  0  0
 36 65  1  0  0  0  0
 36 70  1  0  0  0  0
 36 81  2  0  0  0  0
 37 66  1  0  0  0  0
 37 77  1  0  0  0  0
 37 82  2  0  0  0  0
 38 71  1  0  0  0  0
 38 72  1  0  0  0  0
 38 83  2  0  0  0  0
 39 42  1  0  0  0  0
 40 52  1  0  0  0  0
 41 70  1  0  0  0  0
 42 44  1  0  0  0  0
 43 45  1  0  0  0  0
 43 47  1  0  0  0  0
 44 51  1  0  0  0  0
 45 53  1  0  0  0  0
 46 48  1  0  0  0  0
 46 54  1  0  0  0  0
 47 71  1  0  0  0  0
 48 72  1  0  0  0  0
 49 53  1  0  0  0  0
 49 71  1  0  0  0  0
 50 54  1  0  0  0  0
 50 72  1  0  0  0  0
 51 76  1  0  0  0  0
 52 70  1  0  0  0  0
 53 69  1  0  0  0  0
 54 75  1  0  0  0  0
 59 66  1  0  0  0  0
 60 67  1  0  0  0  0
 61 67  1  0  0  0  0
 62 67  1  0  0  0  0
 63 78  1  0  0  0  0
 64 85  1  0  0  0  0
 65 67  1  0  0  0  0
 65 77  1  0  0  0  0
 66 78  1  0  0  0  0
 68 69  1  0  0  0  0
M  CHG  1  78   1
M  ISO  4  38 100  64 101  72 100  85 101
M  END
> <Batch ID>
0160

> <Smiles>
CNC(C)C(=O)NC(C(=O)N1Cc2cc([101O:1][101CH2:1]c3c(C)c(C)c(NC4CC[100N:0]([100C:0](=O)N5CCCC(n6nc(-c7ccc(Oc8ccc(F)cc8F)cc7)c(C(N)=O)c6N)C5)C4)c(C)c3C)ccc2CC1C(=O)NC1CCCc2ccccc21)C(C)(C)C

> <Shape>
0.326

> <Color>
0.113

> <Negative vol penalty>
0.000

$$$$

  -OEChem-04052322093D

 89 98  0     1  0  0  0  0  0999 V2000
  -20.4961  -36.1952   17.3552 C   0  0  0  0  0  0  0  0  0  0  0  0
  -20.7059  -34.8509   17.0648 C   0  0  0  0  0  0  0  0  0  0  0  0
  -23.0986  -10.1651   21.8601 C   0  0  0  0  0  0  0  0  0  0  0  0
  -24.6439   -8.5530   20.9382 C   0  0  0  0  0  0  0  0  0  0  0  0
  -21.4663  -36.9169   18.0493 C   0  0  0  0  0  0  0  0  0  0  0  0
  -21.8867  -34.2279   17.4674 C   0  0  0  0  0  0  0  0  0  0  0  0
  -24.3829  -27.8822   19.6623 C   0  0  0  0  0  0  0  0  0  0  0  0
  -22.0321   -9.3234   21.5444 C   0  0  0  0  0  0  0  0  0  0  0  0
  -23.5774   -7.7112   20.6225 C   0  0  0  0  0  0  0  0  0  0  0  0
  -25.3885  -26.9613   19.3716 C   0  0  0  0  0  0  0  0  0  0  0  0
  -21.2909   -4.9785   19.9002 C   0  0  0  0  0  0  0  0  0  0  0  0
  -21.4225   -3.6229   20.2014 C   0  0  0  0  0  0  0  0  0  0  0  0
  -26.9593  -28.2872   20.6341 C   0  0  0  0  0  0  0  0  0  0  0  0
  -21.6976   -4.1690   22.5387 C   0  0  0  0  0  0  0  0  0  0  0  0
  -24.4045   -9.7799   21.5570 C   0  0  0  0  0  0  0  0  0  0  0  0
  -26.2459  -10.6727   23.0801 C   0  0  0  0  0  0  0  0  0  0  0  0
  -22.6553  -36.2999   18.4691 C   0  0  0  0  0  0  0  0  0  0  0  0
  -24.6610  -29.0200   20.4333 C   0  0  0  0  0  0  0  0  0  0  0  0
  -22.8742  -34.9424   18.1666 C   0  0  0  0  0  0  0  0  0  0  0  0
  -25.9549  -29.2196   20.9354 C   0  0  0  0  0  0  0  0  0  0  0  0
  -28.7281  -23.0797   19.3547 C   0  0  0  0  0  0  0  0  0  0  0  0
  -28.5956  -24.2650   18.6400 C   0  0  0  0  0  0  0  0  0  0  0  0
  -22.2715   -8.0964   20.9257 C   0  0  0  0  0  0  0  0  0  0  0  0
  -26.6776  -27.1652   19.8551 C   0  0  0  0  0  0  0  0  0  0  0  0
  -21.3627   -5.9293   20.9182 C   0  0  0  0  0  0  0  0  0  0  0  0
  -29.8773  -22.3108   19.2081 C   0  0  0  0  0  0  0  0  0  0  0  0
  -21.6258   -3.2182   21.5206 C   0  0  0  0  0  0  0  0  0  0  0  0
  -21.5661   -5.5246   22.2375 C   0  0  0  0  0  0  0  0  0  0  0  0
  -25.5066  -10.6493   21.8823 C   0  0  0  0  0  0  0  0  0  0  0  0
  -29.6326  -24.6343   17.7986 C   0  0  0  0  0  0  0  0  0  0  0  0
  -30.8568  -22.7675   18.3411 C   0  0  0  0  0  0  0  0  0  0  0  0
  -27.1733  -11.6682   22.8917 C   0  0  0  0  0  0  0  0  0  0  0  0
  -26.1069   -9.8667   24.2577 C   0  0  0  0  0  0  0  0  0  0  0  0
  -24.5442  -32.1560   19.9273 C   0  0  0  0  0  0  0  0  0  0  0  0
  -25.2477  -32.2991   23.0907 C   0  0  0  0  0  0  0  0  0  0  0  0
  -26.6044  -30.7792   25.8286 C   0  0  0  0  0  0  0  0  0  0  0  0
  -28.6624  -16.5795   21.3187 C   0  0  0  0  0  0  0  0  0  0  0  0
  -23.6954  -37.1331   19.1753 C   0  0  0  0  0  0  0  0  0  0  0  0
  -23.5589  -29.9901   20.7605 C   0  0  0  0  0  0  0  0  0  0  0  0
  -26.3004  -30.4146   21.7846 C   0  0  0  0  0  0  0  0  0  0  0  0
  -24.7556  -36.3028   19.8942 C   0  0  0  0  0  0  0  0  0  0  0  0
  -28.4883  -14.2136   18.7314 C   0  0  0  0  0  0  0  0  0  0  0  0
  -25.2641  -35.1861   18.9880 C   0  0  0  0  0  0  0  0  0  0  0  0
  -27.7502  -13.0655   19.4193 C   0  0  0  0  0  0  0  0  0  0  0  0
  -31.1026  -18.9641   19.8673 C   0  0  0  0  0  0  0  0  0  0  0  0
  -28.8411  -19.3434   18.7942 C   0  0  0  0  0  0  0  0  0  0  0  0
  -27.9119  -15.5773   19.1159 C   0  0  0  0  0  0  0  0  0  0  0  0
  -30.4011  -18.3093   21.0563 C   0  0  0  0  0  0  0  0  0  0  0  0
  -28.1917  -18.6838   20.0086 C   0  0  0  0  0  0  0  0  0  0  0  0
  -27.0980  -14.6597   21.2635 C   0  0  0  0  0  0  0  0  0  0  0  0
  -24.1313  -34.2248   18.6081 C   0  0  1  0  0  0  0  0  0  0  0  0
  -24.0742  -31.3791   21.1245 C   0  0  1  0  0  0  0  0  0  0  0  0
  -27.6923  -13.2795   20.9423 C   0  0  1  0  0  0  0  0  0  0  0  0
  -30.2044  -19.9537   19.1243 C   0  0  0  0  0  0  0  0  0  0  0  0
  -29.5471  -25.8974   17.0058 C   0  0  0  0  0  0  0  0  0  0  0  0
  -32.1113  -21.9806   18.1458 C   0  0  0  0  0  0  0  0  0  0  0  0
  -27.3317  -23.6411   21.3863 C   0  0  0  0  0  0  0  0  0  0  0  0
  -27.0677  -31.1594   28.2654 C   0  0  0  0  0  0  0  0  0  0  0  0
  -27.5901  -34.1127   22.3599 C   0  0  0  0  0  0  0  0  0  0  0  0
  -28.5416  -33.6840   24.6356 C   0  0  0  0  0  0  0  0  0  0  0  0
  -26.3282  -34.8107   24.4032 C   0  0  0  0  0  0  0  0  0  0  0  0
  -24.9002  -28.4954   26.6279 C   0  0  0  0  0  0  0  0  0  0  0  0
  -27.3743  -25.1111   18.7762 C   0  0  0  0  0  0  0  0  0  1  0  0
  -27.6426  -22.6285   20.2782 C   0  0  1  0  0  0  0  0  0  0  0  0
  -26.5200  -32.3400   23.9021 C   0  0  1  0  0  0  0  0  0  0  0  0
  -26.0858  -30.6056   27.2447 C   0  0  2  0  0  0  0  0  0  0  0  0
  -27.2392  -33.7152   23.8076 C   0  0  0  0  0  0  0  0  0  0  0  0
  -25.9278  -11.5578   20.9985 N   0  0  0  0  0  0  0  0  0  0  0  0
  -30.7638  -23.9136   17.6301 N   0  0  0  0  0  0  0  0  0  0  0  0
  -26.9419  -12.1615   21.6414 N   0  0  0  0  0  0  0  0  0  0  0  0
  -25.1901  -31.3377   22.0717 N   0  0  0  0  0  0  0  0  0  0  0  0
  -27.8399  -15.7188   20.5763 N   0  0  0  0  0  0  0  0  0  0  0  0
  -29.1065  -17.7464   20.6739 N   0  0  0  0  0  0  0  0  0  0  0  0
  -28.1559  -12.1610   23.6753 N   0  0  0  0  0  0  0  0  0  0  0  0
  -25.1022   -8.8898   24.2839 N   0  0  0  0  0  0  0  0  0  0  0  0
  -23.8427  -33.3255   19.7046 N   0  0  0  0  0  0  0  0  0  0  0  0
  -26.1516  -31.9504   25.2589 N   0  0  0  0  0  0  0  0  0  0  0  0
  -26.3524  -22.3227   19.5730 N   0  3  0  0  0  0  0  0  0  0  0  0
  -25.8634  -29.1622   27.5415 N   0  3  0  0  0  0  0  0  0  0  0  0
  -26.8409  -10.0197   25.2634 O   0  0  0  0  0  0  0  0  0  0  0  0
  -25.4754  -31.7269   19.2562 O   0  0  0  0  0  0  0  0  0  0  0  0
  -24.3357  -33.0862   23.3559 O   0  0  0  0  0  0  0  0  0  0  0  0
  -27.3408  -29.9598   25.2837 O   0  0  0  0  0  0  0  0  0  0  0  0
  -28.9847  -16.3220   22.4852 O   0  0  0  0  0  0  0  0  0  0  0  0
  -21.2311   -7.2747   20.6177 O   0  0  0  0  0  0  0  0  0  0  0  0
  -30.0355  -21.1386   19.8995 O   0  0  0  0  0  0  0  0  0  0  0  0
  -27.6778  -26.2531   19.5674 O   0  0  0  0  0  0  0  0  0  1  0  0
  -21.7506   -1.9163   21.8099 F   0  0  0  0  0  0  0  0  0  0  0  0
  -21.6348   -6.4333   23.2200 F   0  0  0  0  0  0  0  0  0  0  0  0
  1  2  1  0  0  0  0
  1  5  2  0  0  0  0
  2  6  2  0  0  0  0
  3  8  2  0  0  0  0
  3 15  1  0  0  0  0
  4  9  1  0  0  0  0
  4 15  2  0  0  0  0
  5 17  1  0  0  0  0
  6 19  1  0  0  0  0
  7 10  2  0  0  0  0
  7 18  1  0  0  0  0
  8 23  1  0  0  0  0
  9 23  2  0  0  0  0
 10 24  1  0  0  0  0
 11 12  2  0  0  0  0
 11 25  1  0  0  0  0
 12 27  1  0  0  0  0
 13 20  1  0  0  0  0
 13 24  2  0  0  0  0
 14 27  2  0  0  0  0
 14 28  1  0  0  0  0
 15 29  1  0  0  0  0
 16 29  1  0  0  0  0
 16 32  2  0  0  0  0
 16 33  1  0  0  0  0
 17 19  2  0  0  0  0
 17 38  1  0  0  0  0
 18 20  2  0  0  0  0
 18 39  1  0  0  0  0
 19 51  1  0  0  0  0
 20 40  1  0  0  0  0
 21 22  2  0  0  0  0
 21 26  1  0  0  0  0
 21 64  1  0  0  0  0
 22 30  1  0  0  0  0
 22 63  1  0  0  0  0
 23 85  1  0  0  0  0
 24 87  1  0  0  0  0
 25 28  2  0  0  0  0
 25 85  1  0  0  0  0
 26 31  2  0  0  0  0
 26 86  1  0  0  0  0
 27 88  1  0  0  0  0
 28 89  1  0  0  0  0
 29 68  2  0  0  0  0
 30 55  1  0  0  0  0
 30 69  2  0  0  0  0
 31 56  1  0  0  0  0
 31 69  1  0  0  0  0
 32 70  1  0  0  0  0
 32 74  1  0  0  0  0
 33 75  1  0  0  0  0
 33 80  2  0  0  0  0
 34 52  1  0  0  0  0
 34 76  1  0  0  0  0
 34 81  2  0  0  0  0
 35 65  1  0  0  0  0
 35 71  1  0  0  0  0
 35 82  2  0  0  0  0
 36 66  1  0  0  0  0
 36 77  1  0  0  0  0
 36 83  2  0  0  0  0
 37 72  1  0  0  0  0
 37 73  1  0  0  0  0
 37 84  2  0  0  0  0
 38 41  1  0  0  0  0
 39 52  1  0  0  0  0
 40 71  1  0  0  0  0
 41 43  1  0  0  0  0
 42 44  1  0  0  0  0
 42 47  1  0  0  0  0
 43 51  1  0  0  0  0
 44 53  1  0  0  0  0
 45 48  1  0  0  0  0
 45 54  1  0  0  0  0
 46 49  1  0  0  0  0
 46 54  1  0  0  0  0
 47 72  1  0  0  0  0
 48 73  1  0  0  0  0
 49 73  1  0  0  0  0
 50 53  1  0  0  0  0
 50 72  1  0  0  0  0
 51 76  1  0  0  0  0
 52 71  1  0  0  0  0
 53 70  1  0  0  0  0
 54 86  1  0  0  0  0
 57 64  1  0  0  0  0
 58 66  1  0  0  0  0
 59 67  1  0  0  0  0
 60 67  1  0  0  0  0
 61 67  1  0  0  0  0
 62 79  1  0  0  0  0
 63 87  1  0  0  0  0
 64 78  1  0  0  0  0
 65 67  1  0  0  0  0
 65 77  1  0  0  0  0
 66 79  1  0  0  0  0
 68 70  1  0  0  0  0
M  CHG  2  78   1  79   1
M  ISO  4  37 100  63 101  73 100  87 101
M  END
> <Batch ID>
0160

> <Smiles>
CNC(C)C(=O)NC(C(=O)N1Cc2cc([101O:1][101CH2:1]c3c(C)nc(C)c(OC4CC[100N:0]([100C:0](=O)N5CCCC(n6nc(-c7ccc(Oc8ccc(F)cc8F)cc7)c(C(N)=O)c6N)C5)CC4)c3C(C)N)ccc2CC1C(=O)NC1CCCc2ccccc21)C(C)(C)C

> <Shape>
0.312

> <Color>
0.091

> <Negative vol penalty>
0.000

$$$$

  -OEChem-04052322093D

 91100  0     1  0  0  0  0  0999 V2000
  -18.6650  -31.4447   26.2406 C   0  0  0  0  0  0  0  0  0  0  0  0
  -20.0466  -31.2829   26.2219 C   0  0  0  0  0  0  0  0  0  0  0  0
  -26.7444  -13.6917   21.4504 C   0  0  0  0  0  0  0  0  0  0  0  0
  -26.7514  -13.5729   19.0373 C   0  0  0  0  0  0  0  0  0  0  0  0
  -17.8680  -30.7268   25.3500 C   0  0  0  0  0  0  0  0  0  0  0  0
  -20.6320  -30.4021   25.3131 C   0  0  0  0  0  0  0  0  0  0  0  0
  -26.5708  -29.5496   21.3990 C   0  0  0  0  0  0  0  0  0  0  0  0
  -25.9678  -12.5344   21.5052 C   0  0  0  0  0  0  0  0  0  0  0  0
  -25.9748  -12.4155   19.0921 C   0  0  0  0  0  0  0  0  0  0  0  0
  -27.5669  -28.6079   21.1442 C   0  0  0  0  0  0  0  0  0  0  0  0
  -23.6928   -9.6326   18.5842 C   0  0  0  0  0  0  0  0  0  0  0  0
  -22.6101   -9.5364   17.7101 C   0  0  0  0  0  0  0  0  0  0  0  0
  -26.0970  -27.4800   19.5993 C   0  0  0  0  0  0  0  0  0  0  0  0
  -21.6406  -11.5193   18.6925 C   0  0  0  0  0  0  0  0  0  0  0  0
  -27.1362  -14.2110   20.2164 C   0  0  0  0  0  0  0  0  0  0  0  0
  -29.3433  -15.4888   20.1589 C   0  0  0  0  0  0  0  0  0  0  0  0
  -18.4447  -29.8440   24.4233 C   0  0  0  0  0  0  0  0  0  0  0  0
  -25.3244  -29.4571   20.7630 C   0  0  0  0  0  0  0  0  0  0  0  0
  -19.8419  -29.6707   24.4101 C   0  0  0  0  0  0  0  0  0  0  0  0
  -25.0877  -28.4232   19.8459 C   0  0  0  0  0  0  0  0  0  0  0  0
  -31.1766  -23.4084   20.3314 C   0  0  0  0  0  0  0  0  0  0  0  0
  -32.4010  -24.9988   18.9866 C   0  0  0  0  0  0  0  0  0  0  0  0
  -30.3033  -24.4195   20.7321 C   0  0  0  0  0  0  0  0  0  0  0  0
  -31.5276  -26.0099   19.3873 C   0  0  0  0  0  0  0  0  0  0  0  0
  -32.2255  -23.6980   19.4587 C   0  0  0  0  0  0  0  0  0  0  0  0
  -30.4787  -25.7202   20.2600 C   0  0  0  0  0  0  0  0  0  0  0  0
  -25.5830  -11.8963   20.3261 C   0  0  0  0  0  0  0  0  0  0  0  0
  -27.3291  -27.5713   20.2464 C   0  0  0  0  0  0  0  0  0  0  0  0
  -23.7494  -10.6722   19.5125 C   0  0  0  0  0  0  0  0  0  0  0  0
  -21.5840  -10.4797   17.7642 C   0  0  0  0  0  0  0  0  0  0  0  0
  -22.7233  -11.6155   19.5667 C   0  0  0  0  0  0  0  0  0  0  0  0
  -27.9380  -15.4068   20.1591 C   0  0  0  0  0  0  0  0  0  0  0  0
  -29.6087  -16.8348   20.0925 C   0  0  0  0  0  0  0  0  0  0  0  0
  -30.3214  -14.4419   20.2138 C   0  0  0  0  0  0  0  0  0  0  0  0
  -22.3284  -29.0569   21.7467 C   0  0  0  0  0  0  0  0  0  0  0  0
  -21.6461  -29.5483   18.6138 C   0  0  0  0  0  0  0  0  0  0  0  0
  -22.6999  -29.4512   15.3693 C   0  0  0  0  0  0  0  0  0  0  0  0
  -28.6325  -21.8869   17.9319 C   0  0  0  0  0  0  0  0  0  0  0  0
  -17.5388  -29.0543   23.5121 C   0  0  0  0  0  0  0  0  0  0  0  0
  -24.2698  -30.4962   21.0285 C   0  0  0  0  0  0  0  0  0  0  0  0
  -23.7737  -28.2910   19.1216 C   0  0  0  0  0  0  0  0  0  0  0  0
  -18.2664  -28.4220   22.3284 C   0  0  0  0  0  0  0  0  0  0  0  0
  -26.5429  -20.8245   20.6118 C   0  0  0  0  0  0  0  0  0  0  0  0
  -19.5465  -27.7353   22.7937 C   0  0  0  0  0  0  0  0  0  0  0  0
  -26.8309  -19.3267   20.7285 C   0  0  0  0  0  0  0  0  0  0  0  0
  -32.3938  -20.4683   16.1447 C   0  0  0  0  0  0  0  0  0  0  0  0
  -26.5640  -21.2917   19.1581 C   0  0  0  0  0  0  0  0  0  0  0  0
  -28.0794  -19.4517   18.5320 C   0  0  0  0  0  0  0  0  0  0  0  0
  -33.2488  -20.1817   18.3477 C   0  0  0  0  0  0  0  0  0  0  0  0
  -20.5161  -28.7433   23.4224 C   0  0  1  0  0  0  0  0  0  0  0  0
  -22.8588  -30.0096   20.7129 C   0  0  1  0  0  0  0  0  0  0  0  0
  -33.5903  -19.8980   16.8921 C   0  0  1  0  0  0  0  0  0  0  0  0
  -28.1242  -18.9446   19.9836 C   0  0  2  0  0  0  0  0  0  0  0  0
  -32.1659  -21.7987   16.8505 C   0  0  1  0  0  0  0  0  0  0  0  0
  -30.9884  -22.0128   20.8376 C   0  0  0  0  0  0  0  0  0  0  0  0
  -33.5258  -25.3101   18.0501 C   0  0  0  0  0  0  0  0  0  0  0  0
  -29.1782  -24.1084   21.6684 C   0  0  0  0  0  0  0  0  0  0  0  0
  -31.7143  -27.4053   18.8799 C   0  0  0  0  0  0  0  0  0  0  0  0
  -33.8240  -18.4232   16.6148 C   0  0  0  0  0  0  0  0  0  0  0  0
  -21.9059  -29.8746   13.0267 C   0  0  0  0  0  0  0  0  0  0  0  0
  -30.3730  -22.5416   15.2514 C   0  0  0  0  0  0  0  0  0  0  0  0
  -20.0847  -26.9275   18.6719 C   0  0  0  0  0  0  0  0  0  0  0  0
  -20.1336  -26.9237   16.1687 C   0  0  0  0  0  0  0  0  0  0  0  0
  -18.9828  -28.7700   17.3892 C   0  0  0  0  0  0  0  0  0  0  0  0
  -24.7357  -31.5552   14.9357 C   0  0  0  0  0  0  0  0  0  0  0  0
  -33.1620  -22.6133   19.0280 C   0  0  0  0  0  0  0  0  0  0  0  0
  -29.5372  -26.8070   20.6888 C   0  0  0  0  0  0  0  0  0  1  0  0
  -21.5088  -28.6639   17.3981 C   0  0  1  0  0  0  0  0  0  0  0  0
  -22.5961  -30.4667   14.2457 C   0  0  2  0  0  0  0  0  0  0  0  0
  -30.7496  -22.3265   16.7139 C   0  0  1  0  0  0  0  0  0  0  0  0
  -20.2017  -27.8224   17.4219 C   0  0  0  0  0  0  0  0  0  0  0  0
  -27.3515  -16.6053   20.0979 N   0  0  0  0  0  0  0  0  0  0  0  0
  -28.3935  -17.4531   20.0587 N   0  0  0  0  0  0  0  0  0  0  0  0
  -22.7720  -29.3280   19.4198 N   0  0  0  0  0  0  0  0  0  0  0  0
  -27.8175  -20.8993   18.5094 N   0  0  0  0  0  0  0  0  0  0  0  0
  -30.7607  -17.5379   20.0605 N   0  0  0  0  0  0  0  0  0  0  0  0
  -29.8764  -13.1145   20.2787 N   0  0  0  0  0  0  0  0  0  0  0  0
  -21.1920  -29.5039   22.3933 N   0  0  0  0  0  0  0  0  0  0  0  0
  -21.6337  -29.5411   16.2390 N   0  0  0  0  0  0  0  0  0  0  0  0
  -29.8055  -21.4304   17.3435 N   0  0  0  0  0  0  0  0  0  0  0  0
  -32.4807  -21.4993   18.3166 N   0  3  2  0  0  0  0  0  0  0  0  0
  -23.9530  -30.9296   13.8389 N   0  3  0  0  0  0  0  0  0  0  0  0
  -31.5535  -14.6775   20.2221 O   0  0  0  0  0  0  0  0  0  0  0  0
  -22.9066  -27.9943   21.9422 O   0  0  0  0  0  0  0  0  0  0  0  0
  -20.7897  -30.4078   18.8361 O   0  0  0  0  0  0  0  0  0  0  0  0
  -23.6316  -28.6552   15.4638 O   0  0  0  0  0  0  0  0  0  0  0  0
  -28.3392  -23.0873   17.9449 O   0  0  0  0  0  0  0  0  0  0  0  0
  -24.8253  -10.7668   20.3792 O   0  0  0  0  0  0  0  0  0  0  0  0
  -28.2993  -26.6505   19.9964 O   0  0  0  0  0  0  0  0  0  1  0  0
  -20.5451  -10.3881   16.9237 F   0  0  0  0  0  0  0  0  0  0  0  0
  -22.7728  -12.6171   20.4556 F   0  0  0  0  0  0  0  0  0  0  0  0
  1  2  1  0  0  0  0
  1  5  2  0  0  0  0
  2  6  2  0  0  0  0
  3  8  2  0  0  0  0
  3 15  1  0  0  0  0
  4  9  1  0  0  0  0
  4 15  2  0  0  0  0
  5 17  1  0  0  0  0
  6 19  1  0  0  0  0
  7 10  2  0  0  0  0
  7 18  1  0  0  0  0
  8 27  1  0  0  0  0
  9 27  2  0  0  0  0
 10 28  1  0  0  0  0
 11 12  2  0  0  0  0
 11 29  1  0  0  0  0
 12 30  1  0  0  0  0
 13 20  1  0  0  0  0
 13 28  2  0  0  0  0
 14 30  2  0  0  0  0
 14 31  1  0  0  0  0
 15 32  1  0  0  0  0
 16 32  1  0  0  0  0
 16 33  2  0  0  0  0
 16 34  1  0  0  0  0
 17 19  2  0  0  0  0
 17 39  1  0  0  0  0
 18 20  2  0  0  0  0
 18 40  1  0  0  0  0
 19 50  1  0  0  0  0
 20 41  1  0  0  0  0
 21 23  2  0  0  0  0
 21 25  1  0  0  0  0
 21 55  1  0  0  0  0
 22 24  1  0  0  0  0
 22 25  2  0  0  0  0
 22 56  1  0  0  0  0
 23 26  1  0  0  0  0
 23 57  1  0  0  0  0
 24 26  2  0  0  0  0
 24 58  1  0  0  0  0
 25 66  1  0  0  0  0
 26 67  1  0  0  0  0
 27 88  1  0  0  0  0
 28 89  1  0  0  0  0
 29 31  2  0  0  0  0
 29 88  1  0  0  0  0
 30 90  1  0  0  0  0
 31 91  1  0  0  0  0
 32 72  2  0  0  0  0
 33 73  1  0  0  0  0
 33 76  1  0  0  0  0
 34 77  1  0  0  0  0
 34 83  2  0  0  0  0
 35 51  1  0  0  0  0
 35 78  1  0  0  0  0
 35 84  2  0  0  0  0
 36 68  1  0  0  0  0
 36 74  1  0  0  0  0
 36 85  2  0  0  0  0
 37 69  1  0  0  0  0
 37 79  1  0  0  0  0
 37 86  2  0  0  0  0
 38 75  1  0  0  0  0
 38 80  1  0  0  0  0
 38 87  2  0  0  0  0
 39 42  1  0  0  0  0
 40 51  1  0  0  0  0
 41 74  1  0  0  0  0
 42 44  1  0  0  0  0
 43 45  1  0  0  0  0
 43 47  1  0  0  0  0
 44 50  1  0  0  0  0
 45 53  1  0  0  0  0
 46 52  1  0  0  0  0
 46 54  1  0  0  0  0
 47 75  1  0  0  0  0
 48 53  1  0  0  0  0
 48 75  1  0  0  0  0
 49 52  1  0  0  0  0
 49 81  1  0  0  0  0
 50 78  1  0  0  0  0
 51 74  1  0  0  0  0
 52 59  1  0  0  0  0
 53 73  1  0  0  0  0
 54 70  1  0  0  0  0
 54 81  1  0  0  0  0
 60 69  1  0  0  0  0
 61 70  1  0  0  0  0
 62 71  1  0  0  0  0
 63 71  1  0  0  0  0
 64 71  1  0  0  0  0
 65 82  1  0  0  0  0
 66 81  1  0  0  0  0
 67 89  1  0  0  0  0
 68 71  1  0  0  0  0
 68 79  1  0  0  0  0
 69 82  1  0  0  0  0
 70 80  1  0  0  0  0
 72 73  1  0  0  0  0
M  CHG  2  81   1  82   1
M  ISO  4  38 100  67 101  80 100  89 101
M  END
> <Batch ID>
0160

> <Smiles>
CNC(C)C(=O)NC(C(=O)N1Cc2cc([101O:1][101CH2:1]c3c(C)c(C)c(CN4CC(C)CC4C(C)[100NH:0][100C:0](=O)N4CCCC(n5nc(-c6ccc(Oc7ccc(F)cc7F)cc6)c(C(N)=O)c5N)C4)c(C)c3C)ccc2CC1C(=O)NC1CCCc2ccccc21)C(C)(C)C

> <Shape>
0.263

> <Color>
0.107

> <Negative vol penalty>
0.000

$$$$

  -OEChem-04052322093D

 84 93  0     1  0  0  0  0  0999 V2000
  -17.0878  -28.7832   24.5950 C   0  0  0  0  0  0  0  0  0  0  0  0
  -18.0009  -27.8300   24.1556 C   0  0  0  0  0  0  0  0  0  0  0  0
  -22.8682  -10.6790   21.8183 C   0  0  0  0  0  0  0  0  0  0  0  0
  -24.4961   -8.9139   21.5512 C   0  0  0  0  0  0  0  0  0  0  0  0
  -17.0984  -30.0635   24.0431 C   0  0  0  0  0  0  0  0  0  0  0  0
  -18.9245  -28.1563   23.1632 C   0  0  0  0  0  0  0  0  0  0  0  0
  -23.5927  -26.5141   24.2383 C   0  0  0  0  0  0  0  0  0  0  0  0
  -22.1947   -9.9137   22.7703 C   0  0  0  0  0  0  0  0  0  0  0  0
  -23.8226   -8.1486   22.5032 C   0  0  0  0  0  0  0  0  0  0  0  0
  -23.8559  -25.1612   24.0282 C   0  0  0  0  0  0  0  0  0  0  0  0
  -21.0647   -6.1973   22.6338 C   0  0  0  0  0  0  0  0  0  0  0  0
  -20.8502   -4.8491   22.3478 C   0  0  0  0  0  0  0  0  0  0  0  0
  -24.9273  -25.7007   21.9354 C   0  0  0  0  0  0  0  0  0  0  0  0
  -22.1136   -4.2315   24.3124 C   0  0  0  0  0  0  0  0  0  0  0  0
  -24.0189  -10.1790   21.2086 C   0  0  0  0  0  0  0  0  0  0  0  0
  -24.2037  -11.4494   19.0042 C   0  0  0  0  0  0  0  0  0  0  0  0
  -18.0289  -30.4086   23.0503 C   0  0  0  0  0  0  0  0  0  0  0  0
  -23.9859  -27.4710   23.2916 C   0  0  0  0  0  0  0  0  0  0  0  0
  -18.9467  -29.4420   22.5965 C   0  0  0  0  0  0  0  0  0  0  0  0
  -24.6702  -27.0654   22.1369 C   0  0  0  0  0  0  0  0  0  0  0  0
  -22.6719   -8.6486   23.1128 C   0  0  0  0  0  0  0  0  0  0  0  0
  -24.5207  -24.7540   22.8753 C   0  0  0  0  0  0  0  0  0  0  0  0
  -21.8037   -6.5627   23.7590 C   0  0  0  0  0  0  0  0  0  0  0  0
  -21.3747   -3.8661   23.1872 C   0  0  0  0  0  0  0  0  0  0  0  0
  -22.3281   -5.5798   24.5983 C   0  0  0  0  0  0  0  0  0  0  0  0
  -24.7148  -10.9688   20.2247 C   0  0  0  0  0  0  0  0  0  0  0  0
  -25.2505  -12.1373   18.4407 C   0  0  0  0  0  0  0  0  0  0  0  0
  -22.8994  -11.2884   18.4310 C   0  0  0  0  0  0  0  0  0  0  0  0
  -22.4595  -29.5713   21.4579 C   0  0  0  0  0  0  0  0  0  0  0  0
  -25.4701  -30.5260   20.7183 C   0  0  0  0  0  0  0  0  0  0  0  0
  -28.7866  -29.7491   20.5088 C   0  0  0  0  0  0  0  0  0  0  0  0
  -30.0700  -14.8367   20.7509 C   0  0  0  0  0  0  0  0  0  0  0  0
  -17.9710  -31.7910   22.4500 C   0  0  0  0  0  0  0  0  0  0  0  0
  -23.7183  -28.9292   23.5457 C   0  0  0  0  0  0  0  0  0  0  0  0
  -25.1314  -28.0551   21.0995 C   0  0  0  0  0  0  0  0  0  0  0  0
  -19.2268  -32.1688   21.6687 C   0  0  0  0  0  0  0  0  0  0  0  0
  -30.0324  -12.2368   18.3186 C   0  0  0  0  0  0  0  0  0  0  0  0
  -19.6416  -31.0305   20.7419 C   0  0  0  0  0  0  0  0  0  0  0  0
  -28.6192  -11.6604   18.4212 C   0  0  0  0  0  0  0  0  0  0  0  0
  -29.1793  -17.9918   20.7184 C   0  0  0  0  0  0  0  0  0  0  0  0
  -28.5844  -17.3056   23.0710 C   0  0  0  0  0  0  0  0  0  0  0  0
  -27.3034  -23.3109   22.5985 C   0  0  0  0  0  0  0  0  0  0  0  0
  -26.3019  -21.5517   21.9239 C   0  0  0  0  0  0  0  0  0  0  0  0
  -30.5707  -12.6576   19.6843 C   0  0  0  0  0  0  0  0  0  0  0  0
  -28.2852  -13.0020   20.5395 C   0  0  0  0  0  0  0  0  0  0  0  0
  -29.4328  -19.4130   21.2039 C   0  0  0  0  0  0  0  0  0  0  0  0
  -28.8397  -18.7306   23.5443 C   0  0  0  0  0  0  0  0  0  0  0  0
  -19.9803  -29.7653   21.5395 C   0  0  1  0  0  0  0  0  0  0  0  0
  -23.7084  -29.7660   22.2702 C   0  0  1  0  0  0  0  0  0  0  0  0
  -27.7901  -21.9723   21.9920 C   0  0  0  0  0  0  0  0  0  0  0  0
  -27.6779  -12.6150   19.1802 C   0  0  2  0  0  0  0  0  0  0  0  0
  -29.4119  -16.9685   21.8306 C   0  0  0  0  0  0  0  0  0  0  0  0
  -25.9412  -23.0559   21.9124 C   0  0  0  0  0  0  0  0  0  1  0  0
  -30.4123  -22.9781   23.2801 C   0  0  0  0  0  0  0  0  0  0  0  0
  -30.9990  -30.7222   19.8337 C   0  0  0  0  0  0  0  0  0  0  0  0
  -24.7258  -30.1737   17.7803 C   0  0  0  0  0  0  0  0  0  0  0  0
  -27.1672  -30.2243   17.2278 C   0  0  0  0  0  0  0  0  0  0  0  0
  -26.0856  -32.2135   18.2746 C   0  0  0  0  0  0  0  0  0  0  0  0
  -29.8922  -29.4249   23.2349 C   0  0  0  0  0  0  0  0  0  0  0  0
  -30.1612  -21.5669   22.7658 C   0  0  0  0  0  0  0  0  0  0  0  0
  -26.4857  -30.1430   19.6691 C   0  0  1  0  0  0  0  0  0  0  0  0
  -30.0261  -30.4888   20.9790 C   0  0  2  0  0  0  0  0  0  0  0  0
  -28.6953  -21.1236   22.8606 C   0  0  2  0  0  0  0  0  0  0  0  0
  -26.1058  -30.6695   18.2564 C   0  0  0  0  0  0  0  0  0  0  0  0
  -25.9873  -11.3214   20.4255 N   0  0  0  0  0  0  0  0  0  0  0  0
  -26.2848  -12.0308   19.3235 N   0  0  0  0  0  0  0  0  0  0  0  0
  -24.8407  -29.4688   21.3904 N   0  0  0  0  0  0  0  0  0  0  0  0
  -29.6320  -13.5634   20.3509 N   0  0  0  0  0  0  0  0  0  0  0  0
  -25.3781  -12.8167   17.2812 N   0  0  0  0  0  0  0  0  0  0  0  0
  -21.9428  -10.5522   19.1433 N   0  0  0  0  0  0  0  0  0  0  0  0
  -21.2946  -29.8795   22.1343 N   0  0  0  0  0  0  0  0  0  0  0  0
  -27.7758  -30.6184   20.1570 N   0  0  0  0  0  0  0  0  0  0  0  0
  -29.1153  -15.6343   21.3697 N   0  0  0  0  0  0  0  0  0  0  0  0
  -28.5723  -19.6931   22.4124 N   0  3  0  0  0  0  0  0  0  0  0  0
  -30.7254  -29.7070   22.0377 N   0  3  0  0  0  0  0  0  0  0  0  0
  -22.5963  -11.7690   17.3127 O   0  0  0  0  0  0  0  0  0  0  0  0
  -22.5463  -29.1725   20.3024 O   0  0  0  0  0  0  0  0  0  0  0  0
  -25.2488  -31.7194   20.9385 O   0  0  0  0  0  0  0  0  0  0  0  0
  -28.7229  -28.5229   20.4552 O   0  0  0  0  0  0  0  0  0  0  0  0
  -31.2248  -15.2352   20.5652 O   0  0  0  0  0  0  0  0  0  0  0  0
  -22.0150   -7.9017   24.0419 O   0  0  0  0  0  0  0  0  0  0  0  0
  -24.7782  -23.4340   22.6675 O   0  0  0  0  0  0  0  0  0  1  0  0
  -21.1674   -2.5714   22.9133 F   0  0  0  0  0  0  0  0  0  0  0  0
  -23.0379   -5.9247   25.6814 F   0  0  0  0  0  0  0  0  0  0  0  0
  1  2  1  0  0  0  0
  1  5  2  0  0  0  0
  2  6  2  0  0  0  0
  3  8  2  0  0  0  0
  3 15  1  0  0  0  0
  4  9  1  0  0  0  0
  4 15  2  0  0  0  0
  5 17  1  0  0  0  0
  6 19  1  0  0  0  0
  7 10  2  0  0  0  0
  7 18  1  0  0  0  0
  8 21  1  0  0  0  0
  9 21  2  0  0  0  0
 10 22  1  0  0  0  0
 11 12  2  0  0  0  0
 11 23  1  0  0  0  0
 12 24  1  0  0  0  0
 13 20  1  0  0  0  0
 13 22  2  0  0  0  0
 14 24  2  0  0  0  0
 14 25  1  0  0  0  0
 15 26  1  0  0  0  0
 16 26  1  0  0  0  0
 16 27  2  0  0  0  0
 16 28  1  0  0  0  0
 17 19  2  0  0  0  0
 17 33  1  0  0  0  0
 18 20  2  0  0  0  0
 18 34  1  0  0  0  0
 19 48  1  0  0  0  0
 20 35  1  0  0  0  0
 21 81  1  0  0  0  0
 22 82  1  0  0  0  0
 23 25  2  0  0  0  0
 23 81  1  0  0  0  0
 24 83  1  0  0  0  0
 25 84  1  0  0  0  0
 26 65  2  0  0  0  0
 27 66  1  0  0  0  0
 27 69  1  0  0  0  0
 28 70  1  0  0  0  0
 28 76  2  0  0  0  0
 29 49  1  0  0  0  0
 29 71  1  0  0  0  0
 29 77  2  0  0  0  0
 30 61  1  0  0  0  0
 30 67  1  0  0  0  0
 30 78  2  0  0  0  0
 31 62  1  0  0  0  0
 31 72  1  0  0  0  0
 31 79  2  0  0  0  0
 32 68  1  0  0  0  0
 32 73  1  0  0  0  0
 32 80  2  0  0  0  0
 33 36  1  0  0  0  0
 34 49  1  0  0  0  0
 35 67  1  0  0  0  0
 36 38  1  0  0  0  0
 37 39  1  0  0  0  0
 37 44  1  0  0  0  0
 38 48  1  0  0  0  0
 39 51  1  0  0  0  0
 40 46  1  0  0  0  0
 40 52  1  0  0  0  0
 41 47  1  0  0  0  0
 41 52  1  0  0  0  0
 42 50  1  0  0  0  0
 42 53  1  0  0  0  0
 43 50  1  0  0  0  0
 43 53  1  0  0  0  0
 44 68  1  0  0  0  0
 45 51  1  0  0  0  0
 45 68  1  0  0  0  0
 46 74  1  0  0  0  0
 47 74  1  0  0  0  0
 48 71  1  0  0  0  0
 49 67  1  0  0  0  0
 50 63  1  0  0  0  0
 51 66  1  0  0  0  0
 52 73  1  0  0  0  0
 53 82  1  0  0  0  0
 54 60  1  0  0  0  0
 55 62  1  0  0  0  0
 56 64  1  0  0  0  0
 57 64  1  0  0  0  0
 58 64  1  0  0  0  0
 59 75  1  0  0  0  0
 60 63  1  0  0  0  0
 61 64  1  0  0  0  0
 61 72  1  0  0  0  0
 62 75  1  0  0  0  0
 63 74  1  0  0  0  0
 65 66  1  0  0  0  0
M  CHG  2  74   1  75   1
M  ISO  4  32 100  53 101  73 100  82 101
M  END
> <Batch ID>
0160

> <Smiles>
CCC(C1C[101CH:1]([101O:1]c2ccc3c(c2)CN(C(=O)C(NC(=O)C(C)NC)C(C)(C)C)C(C(=O)NC2CCCc4ccccc42)C3)C1)N1CCC([100NH:0][100C:0](=O)N2CCCC(n3nc(-c4ccc(Oc5ccc(F)cc5F)cc4)c(C(N)=O)c3N)C2)CC1

> <Shape>
0.262

> <Color>
0.100

> <Negative vol penalty>
0.000

$$$$

  -OEChem-04052322093D

 87 98  0     1  0  0  0  0  0999 V2000
  -34.5077  -15.7580   21.9679 C   0  0  0  0  0  0  0  0  0  0  0  0
  -33.4246  -16.5293   21.5589 C   0  0  0  0  0  0  0  0  0  0  0  0
  -25.1373  -30.7325   20.3592 C   0  0  0  0  0  0  0  0  0  0  0  0
  -24.0683  -29.0818   21.7625 C   0  0  0  0  0  0  0  0  0  0  0  0
  -34.5403  -14.3947   21.6776 C   0  0  0  0  0  0  0  0  0  0  0  0
  -32.3739  -15.9379   20.8583 C   0  0  0  0  0  0  0  0  0  0  0  0
  -27.8354  -17.4087   22.5563 C   0  0  0  0  0  0  0  0  0  0  0  0
  -24.8988  -31.7091   21.3261 C   0  0  0  0  0  0  0  0  0  0  0  0
  -23.8298  -30.0584   22.7295 C   0  0  0  0  0  0  0  0  0  0  0  0
  -27.3835  -18.6661   22.1582 C   0  0  0  0  0  0  0  0  0  0  0  0
  -24.8923  -34.5610   23.5803 C   0  0  0  0  0  0  0  0  0  0  0  0
  -25.9361  -35.4315   23.8941 C   0  0  0  0  0  0  0  0  0  0  0  0
  -26.0054  -17.6301   20.4710 C   0  0  0  0  0  0  0  0  0  0  0  0
  -27.2937  -33.5554   24.5828 C   0  0  0  0  0  0  0  0  0  0  0  0
  -24.7220  -29.4188   20.5773 C   0  0  0  0  0  0  0  0  0  0  0  0
  -26.1005  -27.5814   19.4677 C   0  0  0  0  0  0  0  0  0  0  0  0
  -33.4850  -13.7844   20.9816 C   0  0  0  0  0  0  0  0  0  0  0  0
  -27.3832  -16.2513   21.9064 C   0  0  0  0  0  0  0  0  0  0  0  0
  -32.3931  -14.5654   20.5572 C   0  0  0  0  0  0  0  0  0  0  0  0
  -26.4511  -16.3590   20.8644 C   0  0  0  0  0  0  0  0  0  0  0  0
  -20.5610  -22.5476   20.5310 C   0  0  0  0  0  0  0  0  0  0  0  0
  -20.4763  -23.0195   19.2377 C   0  0  0  0  0  0  0  0  0  0  0  0
  -21.7458  -22.1247   21.0843 C   0  0  0  0  0  0  0  0  0  0  0  0
  -21.6739  -23.0689   18.4969 C   0  0  0  0  0  0  0  0  0  0  0  0
  -22.9275  -22.1422   20.3828 C   0  0  0  0  0  0  0  0  0  0  0  0
  -22.8861  -22.6191   19.0706 C   0  0  0  0  0  0  0  0  0  0  0  0
  -24.2451  -31.3720   22.5113 C   0  0  0  0  0  0  0  0  0  0  0  0
  -26.4706  -18.7772   21.1136 C   0  0  0  0  0  0  0  0  0  0  0  0
  -25.0492  -33.1877   23.7679 C   0  0  0  0  0  0  0  0  0  0  0  0
  -27.1367  -34.9287   24.3953 C   0  0  0  0  0  0  0  0  0  0  0  0
  -26.2499  -32.6849   24.2691 C   0  0  0  0  0  0  0  0  0  0  0  0
  -24.9676  -28.4097   19.5786 C   0  0  0  0  0  0  0  0  0  0  0  0
  -25.8503  -26.8036   18.3637 C   0  0  0  0  0  0  0  0  0  0  0  0
  -27.2740  -27.5205   20.2892 C   0  0  0  0  0  0  0  0  0  0  0  0
  -28.7671  -13.9411   20.2177 C   0  0  0  0  0  0  0  0  0  0  0  0
  -25.8011  -12.6309   20.3102 C   0  0  0  0  0  0  0  0  0  0  0  0
  -22.4378  -13.0961   20.6542 C   0  0  0  0  0  0  0  0  0  0  0  0
  -20.4558  -25.4218   15.8648 C   0  0  0  0  0  0  0  0  0  0  0  0
  -33.5871  -12.3167   20.6495 C   0  0  0  0  0  0  0  0  0  0  0  0
  -27.8599  -14.9005   22.3654 C   0  0  0  0  0  0  0  0  0  0  0  0
  -19.1743  -23.5212   18.6797 C   0  0  0  0  0  0  0  0  0  0  0  0
  -19.7678  -22.2738   21.7771 C   0  0  0  0  0  0  0  0  0  0  0  0
  -25.9193  -15.1459   20.1476 C   0  0  0  0  0  0  0  0  0  0  0  0
  -21.6611  -23.5492   17.0693 C   0  0  0  0  0  0  0  0  0  0  0  0
  -32.2583  -11.6932   20.2303 C   0  0  0  0  0  0  0  0  0  0  0  0
  -23.4687  -26.8102   14.2083 C   0  0  0  0  0  0  0  0  0  0  0  0
  -31.5478  -12.5830   19.2152 C   0  0  0  0  0  0  0  0  0  0  0  0
  -24.2548  -27.3819   15.3886 C   0  0  0  0  0  0  0  0  0  0  0  0
  -24.1044  -20.6749   22.1541 C   0  0  0  0  0  0  0  0  0  0  0  0
  -19.2071  -23.7183   17.1634 C   0  0  0  0  0  0  0  0  0  0  0  0
  -21.9659  -26.8004   14.4753 C   0  0  0  0  0  0  0  0  0  0  0  0
  -22.3693  -26.6871   16.9129 C   0  0  0  0  0  0  0  0  0  0  0  0
  -24.1850  -21.6646   21.0190 C   0  0  1  0  0  0  0  0  0  0  0  0
  -21.1180  -21.7734   22.4076 C   0  0  2  0  0  0  0  0  0  0  0  0
  -31.2227  -13.9555   19.8168 C   0  0  1  0  0  0  0  0  0  0  0  0
  -27.7249  -13.8233   21.2936 C   0  0  1  0  0  0  0  0  0  0  0  0
  -23.8880  -26.6532   16.6931 C   0  0  2  0  0  0  0  0  0  0  0  0
  -24.6113  -20.2300   20.8164 C   0  0  1  0  0  0  0  0  0  1  0  0
  -24.1528  -22.6414   18.2703 C   0  0  0  0  0  0  0  0  0  0  0  0
  -21.6458  -22.5758   23.5840 C   0  0  0  0  0  0  0  0  0  0  0  0
  -20.2646  -11.8413   20.6462 C   0  0  0  0  0  0  0  0  0  0  0  0
  -25.9318  -12.4290   17.2685 C   0  0  0  0  0  0  0  0  0  0  0  0
  -23.4523  -12.0824   17.2547 C   0  0  0  0  0  0  0  0  0  0  0  0
  -24.9335  -10.4371   18.4043 C   0  0  0  0  0  0  0  0  0  0  0  0
  -21.8370  -13.8875   23.4420 C   0  0  0  0  0  0  0  0  0  0  0  0
  -24.5685  -12.7132   19.4426 C   0  0  1  0  0  0  0  0  0  0  0  0
  -21.4028  -12.3771   21.5006 C   0  0  2  0  0  0  0  0  0  0  0  0
  -24.7328  -11.9386   18.1045 C   0  0  0  0  0  0  0  0  0  0  0  0
  -24.0650  -28.1797   18.6213 N   0  0  0  0  0  0  0  0  0  0  0  0
  -24.6305  -27.1981   17.8983 N   0  0  0  0  0  0  0  0  0  0  0  0
  -26.4204  -13.8478   20.6288 N   0  0  0  0  0  0  0  0  0  0  0  0
  -20.4647  -24.3444   16.7618 N   0  0  0  0  0  0  0  0  0  0  0  0
  -21.6510  -26.1510   15.7474 N   0  0  0  0  0  0  0  0  0  0  0  0
  -26.5570  -25.8275   17.7552 N   0  0  0  0  0  0  0  0  0  0  0  0
  -27.3691  -28.3906   21.3839 N   0  0  0  0  0  0  0  0  0  0  0  0
  -30.0663  -13.8668   20.6824 N   0  0  0  0  0  0  0  0  0  0  0  0
  -23.4571  -12.2519   20.2675 N   0  0  0  0  0  0  0  0  0  0  0  0
  -20.8309  -13.3041   22.5177 N   0  3  0  0  0  0  0  0  0  0  0  0
  -28.2177  -26.7296   20.0498 O   0  0  0  0  0  0  0  0  0  0  0  0
  -28.4184  -14.0871   19.0520 O   0  0  0  0  0  0  0  0  0  0  0  0
  -26.1958  -11.5281   20.6971 O   0  0  0  0  0  0  0  0  0  0  0  0
  -22.3488  -14.2865   20.3620 O   0  0  0  0  0  0  0  0  0  0  0  0
  -19.4466  -25.7191   15.2145 O   0  0  0  0  0  0  0  0  0  0  0  0
  -24.0124  -32.3247   23.4551 O   0  0  0  0  0  0  0  0  0  0  0  0
  -26.0275  -20.0059   20.7218 O   0  0  0  0  0  0  0  0  0  1  0  0
  -28.1395  -35.7646   24.6951 F   0  0  0  0  0  0  0  0  0  0  0  0
  -26.4070  -31.3665   24.4502 F   0  0  0  0  0  0  0  0  0  0  0  0
  1  2  1  0  0  0  0
  1  5  2  0  0  0  0
  2  6  2  0  0  0  0
  3  8  2  0  0  0  0
  3 15  1  0  0  0  0
  4  9  1  0  0  0  0
  4 15  2  0  0  0  0
  5 17  1  0  0  0  0
  6 19  1  0  0  0  0
  7 10  2  0  0  0  0
  7 18  1  0  0  0  0
  8 27  1  0  0  0  0
  9 27  2  0  0  0  0
 10 28  1  0  0  0  0
 11 12  2  0  0  0  0
 11 29  1  0  0  0  0
 12 30  1  0  0  0  0
 13 20  1  0  0  0  0
 13 28  2  0  0  0  0
 14 30  2  0  0  0  0
 14 31  1  0  0  0  0
 15 32  1  0  0  0  0
 16 32  1  0  0  0  0
 16 33  2  0  0  0  0
 16 34  1  0  0  0  0
 17 19  2  0  0  0  0
 17 39  1  0  0  0  0
 18 20  2  0  0  0  0
 18 40  1  0  0  0  0
 19 55  1  0  0  0  0
 20 43  1  0  0  0  0
 21 22  2  0  0  0  0
 21 23  1  0  0  0  0
 21 42  1  0  0  0  0
 22 24  1  0  0  0  0
 22 41  1  0  0  0  0
 23 25  2  0  0  0  0
 23 54  1  0  0  0  0
 24 26  2  0  0  0  0
 24 44  1  0  0  0  0
 25 26  1  0  0  0  0
 25 53  1  0  0  0  0
 26 59  1  0  0  0  0
 27 84  1  0  0  0  0
 28 85  1  0  0  0  0
 29 31  2  0  0  0  0
 29 84  1  0  0  0  0
 30 86  1  0  0  0  0
 31 87  1  0  0  0  0
 32 69  2  0  0  0  0
 33 70  1  0  0  0  0
 33 74  1  0  0  0  0
 34 75  1  0  0  0  0
 34 79  2  0  0  0  0
 35 56  1  0  0  0  0
 35 76  1  0  0  0  0
 35 80  2  0  0  0  0
 36 66  1  0  0  0  0
 36 71  1  0  0  0  0
 36 81  2  0  0  0  0
 37 67  1  0  0  0  0
 37 77  1  0  0  0  0
 37 82  2  0  0  0  0
 38 72  1  0  0  0  0
 38 73  1  0  0  0  0
 38 83  2  0  0  0  0
 39 45  1  0  0  0  0
 40 56  1  0  0  0  0
 41 50  1  0  0  0  0
 42 54  1  0  0  0  0
 43 71  1  0  0  0  0
 44 72  1  0  0  0  0
 45 47  1  0  0  0  0
 46 48  1  0  0  0  0
 46 51  1  0  0  0  0
 47 55  1  0  0  0  0
 48 57  1  0  0  0  0
 49 53  1  0  0  0  0
 49 58  1  0  0  0  0
 50 72  1  0  0  0  0
 51 73  1  0  0  0  0
 52 57  1  0  0  0  0
 52 73  1  0  0  0  0
 53 58  1  0  0  0  0
 54 60  1  0  0  0  0
 55 76  1  0  0  0  0
 56 71  1  0  0  0  0
 57 70  1  0  0  0  0
 58 85  1  0  0  0  0
 61 67  1  0  0  0  0
 62 68  1  0  0  0  0
 63 68  1  0  0  0  0
 64 68  1  0  0  0  0
 65 78  1  0  0  0  0
 66 68  1  0  0  0  0
 66 77  1  0  0  0  0
 67 78  1  0  0  0  0
 69 70  1  0  0  0  0
M  CHG  1  78   1
M  ISO  4  38 100  58 101  72 100  85 101
M  END
> <Batch ID>
0160

> <Smiles>
CNC(C)C(=O)NC(C(=O)N1Cc2cc([101O:1][101CH:1]3CC3c3c(C)c4c(c5c3C(C)C5)CC[100N:0]([100C:0](=O)N3CCCC(n5nc(-c6ccc(Oc7ccc(F)cc7F)cc6)c(C(N)=O)c5N)C3)C4)ccc2CC1C(=O)NC1CCCc2ccccc21)C(C)(C)C

> <Shape>
0.209

> <Color>
0.083

> <Negative vol penalty>
0.000

$$$$

  -OEChem-04052322093D

 88 97  0     1  0  0  0  0  0999 V2000
  -18.1316  -10.9096   25.2077 C   0  0  0  0  0  0  0  0  0  0  0  0
  -18.8724  -11.4696   24.1719 C   0  0  0  0  0  0  0  0  0  0  0  0
  -23.7532  -26.2917   20.7212 C   0  0  0  0  0  0  0  0  0  0  0  0
  -24.8251  -25.6814   22.7986 C   0  0  0  0  0  0  0  0  0  0  0  0
  -17.5804  -11.7294   26.1916 C   0  0  0  0  0  0  0  0  0  0  0  0
  -19.0616  -12.8501   24.1188 C   0  0  0  0  0  0  0  0  0  0  0  0
  -23.8486  -14.1154   23.0563 C   0  0  0  0  0  0  0  0  0  0  0  0
  -22.8240  -27.0573   21.4255 C   0  0  0  0  0  0  0  0  0  0  0  0
  -23.8960  -26.4470   23.5029 C   0  0  0  0  0  0  0  0  0  0  0  0
  -24.2531  -14.0160   21.7258 C   0  0  0  0  0  0  0  0  0  0  0  0
  -20.0196  -26.5255   23.2358 C   0  0  0  0  0  0  0  0  0  0  0  0
  -18.6769  -26.4046   22.8779 C   0  0  0  0  0  0  0  0  0  0  0  0
  -23.9558  -16.3956   21.4639 C   0  0  0  0  0  0  0  0  0  0  0  0
  -30.4447  -12.4973   20.6968 C   0  0  0  0  0  0  0  0  0  0  0  0
  -18.6064  -28.7604   22.3464 C   0  0  0  0  0  0  0  0  0  0  0  0
  -24.7537  -25.6037   21.4077 C   0  0  0  0  0  0  0  0  0  0  0  0
  -26.9527  -25.2392   20.1670 C   0  0  0  0  0  0  0  0  0  0  0  0
  -17.7711  -13.1198   26.1558 C   0  0  0  0  0  0  0  0  0  0  0  0
  -23.4836  -15.3561   23.5985 C   0  0  0  0  0  0  0  0  0  0  0  0
  -18.5114  -13.6895   25.1024 C   0  0  0  0  0  0  0  0  0  0  0  0
  -23.5495  -16.5084   22.8023 C   0  0  0  0  0  0  0  0  0  0  0  0
  -29.5884  -14.0034   19.0129 C   0  0  0  0  0  0  0  0  0  0  0  0
  -29.4010  -11.6101   20.4340 C   0  0  0  0  0  0  0  0  0  0  0  0
  -28.5448  -13.1161   18.7500 C   0  0  0  0  0  0  0  0  0  0  0  0
  -28.4511  -11.9194   19.4606 C   0  0  0  0  0  0  0  0  0  0  0  0
  -22.8954  -27.1350   22.8164 C   0  0  0  0  0  0  0  0  0  0  0  0
  -24.3040  -15.1557   20.9286 C   0  0  0  0  0  0  0  0  0  0  0  0
  -20.6557  -27.7639   23.1491 C   0  0  0  0  0  0  0  0  0  0  0  0
  -30.5384  -13.6941   19.9863 C   0  0  0  0  0  0  0  0  0  0  0  0
  -17.9703  -27.5220   22.4331 C   0  0  0  0  0  0  0  0  0  0  0  0
  -19.9492  -28.8813   22.7043 C   0  0  0  0  0  0  0  0  0  0  0  0
  -25.7135  -24.8122   20.6807 C   0  0  0  0  0  0  0  0  0  0  0  0
  -27.4795  -24.1213   19.5676 C   0  0  0  0  0  0  0  0  0  0  0  0
  -27.5722  -26.5309   20.2262 C   0  0  0  0  0  0  0  0  0  0  0  0
  -20.8209  -16.5625   24.8469 C   0  0  0  0  0  0  0  0  0  0  0  0
  -22.7383  -19.0963   25.4991 C   0  0  0  0  0  0  0  0  0  0  0  0
  -25.3607  -21.4376   24.6877 C   0  0  0  0  0  0  0  0  0  0  0  0
  -28.6862  -18.7925   19.6722 C   0  0  0  0  0  0  0  0  0  0  0  0
  -17.1162  -13.9698   27.2156 C   0  0  0  0  0  0  0  0  0  0  0  0
  -23.0751  -15.4506   25.0430 C   0  0  0  0  0  0  0  0  0  0  0  0
  -23.1874  -17.8670   23.3422 C   0  0  0  0  0  0  0  0  0  0  0  0
  -17.6784  -15.3869   27.2932 C   0  0  0  0  0  0  0  0  0  0  0  0
  -25.3696  -19.6481   18.5069 C   0  0  0  0  0  0  0  0  0  0  0  0
  -31.0549  -15.7050   17.5112 C   0  0  0  0  0  0  0  0  0  0  0  0
  -17.7957  -15.9918   25.8978 C   0  0  0  0  0  0  0  0  0  0  0  0
  -25.2696  -21.1146   18.9301 C   0  0  0  0  0  0  0  0  0  0  0  0
  -30.7618  -17.1874   17.8077 C   0  0  0  0  0  0  0  0  0  0  0  0
  -26.1190  -18.8211   19.5479 C   0  0  0  0  0  0  0  0  0  0  0  0
  -27.3790  -20.7984   20.3033 C   0  0  0  0  0  0  0  0  0  0  0  0
  -29.7020  -15.3664   18.2082 C   0  0  2  0  0  0  0  0  0  0  0  0
  -18.7596  -15.1803   25.0239 C   0  0  1  0  0  0  0  0  0  0  0  0
  -22.2327  -16.6858   25.3461 C   0  0  1  0  0  0  0  0  0  0  0  0
  -26.6536  -21.6917   19.2808 C   0  0  2  0  0  0  0  0  0  0  0  0
  -29.9025  -16.7021   18.9957 C   0  0  2  0  0  0  0  0  0  0  0  0
  -29.3258  -10.3344   21.2076 C   0  0  0  0  0  0  0  0  0  0  0  0
  -27.3333  -10.9658   19.1792 C   0  0  0  0  0  0  0  0  0  0  0  0
  -26.3650  -23.2963   26.0420 C   0  0  0  0  0  0  0  0  0  0  0  0
  -20.6923  -20.8526   24.0711 C   0  0  0  0  0  0  0  0  0  0  0  0
  -22.4281  -22.6524   23.9457 C   0  0  0  0  0  0  0  0  0  0  0  0
  -21.6336  -21.8408   26.1667 C   0  0  0  0  0  0  0  0  0  0  0  0
  -28.0955  -20.3545   24.3606 C   0  0  0  0  0  0  0  0  0  0  0  0
  -32.4903  -14.1560   21.2639 C   0  0  0  0  0  0  0  0  0  0  0  0
  -27.5212  -13.4530   17.6953 C   0  0  0  0  0  0  0  0  0  0  0  0
  -26.4949  -14.4957   18.1438 C   0  0  0  0  0  0  0  0  0  0  0  0
  -25.6265  -14.0274   19.3057 C   0  0  0  0  0  0  0  0  0  1  0  0
  -23.1287  -20.3579   24.7676 C   0  0  1  0  0  0  0  0  0  0  0  0
  -26.5149  -21.8549   25.5811 C   0  0  2  0  0  0  0  0  0  0  0  0
  -21.9757  -21.4002   24.7268 C   0  0  0  0  0  0  0  0  0  0  0  0
  -25.4676  -23.5236   20.4296 N   0  0  0  0  0  0  0  0  0  0  0  0
  -26.5595  -23.1313   19.7514 N   0  0  0  0  0  0  0  0  0  0  0  0
  -22.7882  -17.9068   24.7587 N   0  0  0  0  0  0  0  0  0  0  0  0
  -27.4361  -19.4136   19.8222 N   0  0  0  0  0  0  0  0  0  0  0  0
  -28.6352  -23.8983   18.9066 N   0  0  0  0  0  0  0  0  0  0  0  0
  -26.8934  -27.5680   20.8803 N   0  0  0  0  0  0  0  0  0  0  0  0
  -20.1319  -15.4842   25.3685 N   0  0  0  0  0  0  0  0  0  0  0  0
  -24.3478  -20.8402   25.4076 N   0  0  0  0  0  0  0  0  0  0  0  0
  -28.6653  -17.4812   19.2092 N   0  0  0  0  0  0  0  0  0  0  0  0
  -27.8077  -21.7270   24.8508 N   0  3  0  0  0  0  0  0  0  0  0  0
  -28.6870  -26.7627   19.7001 O   0  0  0  0  0  0  0  0  0  0  0  0
  -20.3882  -17.3855   24.0487 O   0  0  0  0  0  0  0  0  0  0  0  0
  -22.4083  -19.1629   26.6859 O   0  0  0  0  0  0  0  0  0  0  0  0
  -25.3564  -21.6264   23.4732 O   0  0  0  0  0  0  0  0  0  0  0  0
  -29.7529  -19.3631   19.9258 O   0  0  0  0  0  0  0  0  0  0  0  0
  -21.9890  -27.8821   23.5040 O   0  0  0  0  0  0  0  0  0  0  0  0
  -31.5639  -14.5500   20.2537 O   0  0  0  0  0  0  0  0  0  0  0  0
  -24.6979  -15.0614   19.6294 O   0  0  0  0  0  0  0  0  0  1  0  0
  -16.6813  -27.4054   22.0880 F   0  0  0  0  0  0  0  0  0  0  0  0
  -20.5552  -30.0733   22.6178 F   0  0  0  0  0  0  0  0  0  0  0  0
  1  2  1  0  0  0  0
  1  5  2  0  0  0  0
  2  6  2  0  0  0  0
  3  8  2  0  0  0  0
  3 16  1  0  0  0  0
  4  9  1  0  0  0  0
  4 16  2  0  0  0  0
  5 18  1  0  0  0  0
  6 20  1  0  0  0  0
  7 10  2  0  0  0  0
  7 19  1  0  0  0  0
  8 26  1  0  0  0  0
  9 26  2  0  0  0  0
 10 27  1  0  0  0  0
 11 12  2  0  0  0  0
 11 28  1  0  0  0  0
 12 30  1  0  0  0  0
 13 21  1  0  0  0  0
 13 27  2  0  0  0  0
 14 23  1  0  0  0  0
 14 29  2  0  0  0  0
 15 30  2  0  0  0  0
 15 31  1  0  0  0  0
 16 32  1  0  0  0  0
 17 32  1  0  0  0  0
 17 33  2  0  0  0  0
 17 34  1  0  0  0  0
 18 20  2  0  0  0  0
 18 39  1  0  0  0  0
 19 21  2  0  0  0  0
 19 40  1  0  0  0  0
 20 51  1  0  0  0  0
 21 41  1  0  0  0  0
 22 24  2  0  0  0  0
 22 29  1  0  0  0  0
 22 50  1  0  0  0  0
 23 25  2  0  0  0  0
 23 55  1  0  0  0  0
 24 25  1  0  0  0  0
 24 63  1  0  0  0  0
 25 56  1  0  0  0  0
 26 84  1  0  0  0  0
 27 86  1  0  0  0  0
 28 31  2  0  0  0  0
 28 84  1  0  0  0  0
 29 85  1  0  0  0  0
 30 87  1  0  0  0  0
 31 88  1  0  0  0  0
 32 69  2  0  0  0  0
 33 70  1  0  0  0  0
 33 73  1  0  0  0  0
 34 74  1  0  0  0  0
 34 79  2  0  0  0  0
 35 52  1  0  0  0  0
 35 75  1  0  0  0  0
 35 80  2  0  0  0  0
 36 66  1  0  0  0  0
 36 71  1  0  0  0  0
 36 81  2  0  0  0  0
 37 67  1  0  0  0  0
 37 76  1  0  0  0  0
 37 82  2  0  0  0  0
 38 72  1  0  0  0  0
 38 77  1  0  0  0  0
 38 83  2  0  0  0  0
 39 42  1  0  0  0  0
 40 52  1  0  0  0  0
 41 71  1  0  0  0  0
 42 45  1  0  0  0  0
 43 46  1  0  0  0  0
 43 48  1  0  0  0  0
 44 47  1  0  0  0  0
 44 50  1  0  0  0  0
 45 51  1  0  0  0  0
 46 53  1  0  0  0  0
 47 54  1  0  0  0  0
 48 72  1  0  0  0  0
 49 53  1  0  0  0  0
 49 72  1  0  0  0  0
 50 54  1  0  0  0  0
 51 75  1  0  0  0  0
 52 71  1  0  0  0  0
 53 70  1  0  0  0  0
 54 77  1  0  0  0  0
 57 67  1  0  0  0  0
 58 68  1  0  0  0  0
 59 68  1  0  0  0  0
 60 68  1  0  0  0  0
 61 78  1  0  0  0  0
 62 85  1  0  0  0  0
 63 64  1  0  0  0  0
 64 65  1  0  0  0  0
 65 86  1  0  0  0  0
 66 68  1  0  0  0  0
 66 76  1  0  0  0  0
 67 78  1  0  0  0  0
 69 70  1  0  0  0  0
M  CHG  1  78   1
M  ISO  4  38 100  65 101  77 100  86 101
M  END
> <Batch ID>
0160

> <Smiles>
CNC(C)C(=O)NC(C(=O)N1Cc2cc([101O:1][101CH2:1]CCc3c(C)c(C)cc(OC)c3C3CCC3[100NH:0][100C:0](=O)N3CCCC(n4nc(-c5ccc(Oc6ccc(F)cc6F)cc5)c(C(N)=O)c4N)C3)ccc2CC1C(=O)NC1CCCc2ccccc21)C(C)(C)C

> <Shape>
0.170

> <Color>
0.089

> <Negative vol penalty>
0.000

$$$$

  -OEChem-04052322093D

 92101  0     1  0  0  0  0  0999 V2000
  -31.0582  -23.5113   17.8748 C   0  0  0  0  0  0  0  0  0  0  0  0
  -30.2761  -23.5659   19.0240 C   0  0  0  0  0  0  0  0  0  0  0  0
  -23.6376   -9.7895   21.2970 C   0  0  0  0  0  0  0  0  0  0  0  0
  -24.2660  -10.7096   23.4407 C   0  0  0  0  0  0  0  0  0  0  0  0
  -31.6770  -24.6664   17.3986 C   0  0  0  0  0  0  0  0  0  0  0  0
  -30.1132  -24.7755   19.6984 C   0  0  0  0  0  0  0  0  0  0  0  0
  -25.3047  -25.6163   21.0461 C   0  0  0  0  0  0  0  0  0  0  0  0
  -23.0784   -8.6828   21.9359 C   0  0  0  0  0  0  0  0  0  0  0  0
  -23.7068   -9.6029   24.0797 C   0  0  0  0  0  0  0  0  0  0  0  0
  -24.8292  -24.9360   22.1663 C   0  0  0  0  0  0  0  0  0  0  0  0
  -24.1649   -5.8128   23.3525 C   0  0  0  0  0  0  0  0  0  0  0  0
  -24.4464   -4.5516   22.8275 C   0  0  0  0  0  0  0  0  0  0  0  0
  -25.1621  -26.9166   23.5027 C   0  0  0  0  0  0  0  0  0  0  0  0
  -28.0850  -19.6407   24.0727 C   0  0  0  0  0  0  0  0  0  0  0  0
  -29.7412  -17.8410   25.4146 C   0  0  0  0  0  0  0  0  0  0  0  0
  -22.0880   -4.1791   22.4578 C   0  0  0  0  0  0  0  0  0  0  0  0
  -24.2314  -10.8029   22.0494 C   0  0  0  0  0  0  0  0  0  0  0  0
  -24.1654  -13.1536   21.0608 C   0  0  0  0  0  0  0  0  0  0  0  0
  -31.5138  -25.8927   18.0620 C   0  0  0  0  0  0  0  0  0  0  0  0
  -25.7234  -26.9507   21.1483 C   0  0  0  0  0  0  0  0  0  0  0  0
  -30.7315  -25.9478   19.2313 C   0  0  0  0  0  0  0  0  0  0  0  0
  -25.6401  -27.6123   22.3818 C   0  0  0  0  0  0  0  0  0  0  0  0
  -28.2175  -19.7155   25.4592 C   0  0  0  0  0  0  0  0  0  0  0  0
  -29.0456  -18.8156   26.1302 C   0  0  0  0  0  0  0  0  0  0  0  0
  -29.6086  -17.7662   24.0280 C   0  0  0  0  0  0  0  0  0  0  0  0
  -23.1130   -8.5895   23.3272 C   0  0  0  0  0  0  0  0  0  0  0  0
  -24.7605  -25.5853   23.3955 C   0  0  0  0  0  0  0  0  0  0  0  0
  -22.8450   -6.2572   23.4303 C   0  0  0  0  0  0  0  0  0  0  0  0
  -28.7805  -18.6661   23.3571 C   0  0  0  0  0  0  0  0  0  0  0  0
  -23.4080   -3.7347   22.3801 C   0  0  0  0  0  0  0  0  0  0  0  0
  -21.8066   -5.4404   22.9829 C   0  0  0  0  0  0  0  0  0  0  0  0
  -24.8098  -11.9460   21.3900 C   0  0  0  0  0  0  0  0  0  0  0  0
  -25.1391  -13.9076   20.4526 C   0  0  0  0  0  0  0  0  0  0  0  0
  -22.8081  -13.5576   21.2848 C   0  0  0  0  0  0  0  0  0  0  0  0
  -28.4723  -28.4803   20.6926 C   0  0  0  0  0  0  0  0  0  0  0  0
  -26.6450  -31.1106   21.2070 C   0  0  0  0  0  0  0  0  0  0  0  0
  -23.8287  -32.4574   22.5860 C   0  0  0  0  0  0  0  0  0  0  0  0
  -31.1170  -13.8899   20.7928 C   0  0  0  0  0  0  0  0  0  0  0  0
  -32.2409  -27.1049   17.5361 C   0  0  0  0  0  0  0  0  0  0  0  0
  -26.2088  -27.6786   19.9248 C   0  0  0  0  0  0  0  0  0  0  0  0
  -26.0582  -29.0505   22.5401 C   0  0  0  0  0  0  0  0  0  0  0  0
  -31.7132  -28.4228   18.0974 C   0  0  0  0  0  0  0  0  0  0  0  0
  -29.1382  -13.4749   17.8621 C   0  0  0  0  0  0  0  0  0  0  0  0
  -31.5358  -28.3260   19.6094 C   0  0  0  0  0  0  0  0  0  0  0  0
  -27.7463  -13.1449   18.4042 C   0  0  0  0  0  0  0  0  0  0  0  0
  -27.8942  -22.1661   25.7369 C   0  0  0  0  0  0  0  0  0  0  0  0
  -25.9491  -20.5756   26.0082 C   0  0  0  0  0  0  0  0  0  0  0  0
  -30.2394  -12.8556   18.7200 C   0  0  0  0  0  0  0  0  0  0  0  0
  -28.7701  -12.8508   20.6986 C   0  0  0  0  0  0  0  0  0  0  0  0
  -27.0826  -23.2598   26.4193 C   0  0  0  0  0  0  0  0  0  0  0  0
  -25.1525  -21.6814   26.6888 C   0  0  0  0  0  0  0  0  0  0  0  0
  -27.4615  -20.7673   26.2051 C   0  0  0  0  0  0  0  0  0  0  0  0
  -30.5108  -27.2462   19.9766 C   0  0  1  0  0  0  0  0  0  0  0  0
  -27.0915  -28.8785   20.2542 C   0  0  1  0  0  0  0  0  0  0  0  0
  -27.6279  -13.5002   19.8986 C   0  0  2  0  0  0  0  0  0  0  0  0
  -29.2007  -18.8753   27.6143 C   0  0  0  0  0  0  0  0  0  0  0  0
  -22.6264  -34.6413   22.8727 C   0  0  0  0  0  0  0  0  0  0  0  0
  -32.7980  -13.8977   23.5868 C   0  0  0  0  0  0  0  0  0  0  0  0
  -28.6498  -31.9293   23.3566 C   0  0  0  0  0  0  0  0  0  0  0  0
  -26.9477  -33.5440   24.2306 C   0  0  0  0  0  0  0  0  0  0  0  0
  -27.8402  -33.8064   21.9160 C   0  0  0  0  0  0  0  0  0  0  0  0
  -21.4526  -31.4745   21.1207 C   0  0  0  0  0  0  0  0  0  0  0  0
  -27.5904  -17.7851   21.4960 C   0  0  0  0  0  0  0  0  0  0  0  0
  -31.1774  -15.8274   23.9547 C   0  0  0  0  0  0  0  0  0  0  0  0
  -24.7710  -24.1448   26.7160 C   0  0  0  0  0  0  0  0  0  0  0  0
  -24.8210  -25.3186   25.7579 C   0  0  0  0  0  0  0  0  0  1  0  0
  -26.2434  -31.9125   22.4214 C   0  0  1  0  0  0  0  0  0  0  0  0
  -22.7771  -33.3929   22.0174 C   0  0  2  0  0  0  0  0  0  0  0  0
  -31.8497  -14.9011   22.9375 C   0  0  2  0  0  0  0  0  0  0  0  0
  -27.4141  -32.7703   22.9789 C   0  0  0  0  0  0  0  0  0  0  0  0
  -26.0934  -11.9294   21.0213 N   0  0  0  0  0  0  0  0  0  0  0  0
  -26.2636  -13.1358   20.4541 N   0  0  0  0  0  0  0  0  0  0  0  0
  -26.5317  -29.7174   21.3159 N   0  0  0  0  0  0  0  0  0  0  0  0
  -30.0703  -13.2325   20.1255 N   0  0  0  0  0  0  0  0  0  0  0  0
  -25.1345  -15.1489   19.9220 N   0  0  0  0  0  0  0  0  0  0  0  0
  -21.9407  -12.6607   21.9232 N   0  0  0  0  0  0  0  0  0  0  0  0
  -30.3173  -16.7741   23.3164 N   0  0  0  0  0  0  0  0  0  0  0  0
  -29.1650  -27.7323   19.7598 N   0  0  0  0  0  0  0  0  0  0  0  0
  -25.0697  -32.6857   22.0300 N   0  0  0  0  0  0  0  0  0  0  0  0
  -30.8719  -14.2172   22.1208 N   0  0  0  0  0  0  0  0  0  0  0  0
  -25.6013  -23.0377   26.1782 N   0  3  0  0  0  0  0  0  0  0  0  0
  -21.4557  -32.7071   21.9499 N   0  3  0  0  0  0  0  0  0  0  0  0
  -22.3729  -14.6744   20.9147 O   0  0  0  0  0  0  0  0  0  0  0  0
  -28.8798  -28.8273   21.7950 O   0  0  0  0  0  0  0  0  0  0  0  0
  -27.0379  -31.6991   20.1966 O   0  0  0  0  0  0  0  0  0  0  0  0
  -23.5754  -31.6113   23.4407 O   0  0  0  0  0  0  0  0  0  0  0  0
  -32.1883  -14.1696   20.2441 O   0  0  0  0  0  0  0  0  0  0  0  0
  -22.5672   -7.5099   23.9510 O   0  0  0  0  0  0  0  0  0  0  0  0
  -28.6371  -18.6103   22.0028 O   0  0  0  0  0  0  0  0  0  0  0  0
  -24.2974  -24.9234   24.4906 O   0  0  0  0  0  0  0  0  0  1  0  0
  -23.6786   -2.5242   21.8746 F   0  0  0  0  0  0  0  0  0  0  0  0
  -20.5366   -5.8623   23.0539 F   0  0  0  0  0  0  0  0  0  0  0  0
  1  2  1  0  0  0  0
  1  5  2  0  0  0  0
  2  6  2  0  0  0  0
  3  8  2  0  0  0  0
  3 17  1  0  0  0  0
  4  9  1  0  0  0  0
  4 17  2  0  0  0  0
  5 19  1  0  0  0  0
  6 21  1  0  0  0  0
  7 10  2  0  0  0  0
  7 20  1  0  0  0  0
  8 26  1  0  0  0  0
  9 26  2  0  0  0  0
 10 27  1  0  0  0  0
 11 12  2  0  0  0  0
 11 28  1  0  0  0  0
 12 30  1  0  0  0  0
 13 22  1  0  0  0  0
 13 27  2  0  0  0  0
 14 23  1  0  0  0  0
 14 29  2  0  0  0  0
 15 24  1  0  0  0  0
 15 25  2  0  0  0  0
 16 30  2  0  0  0  0
 16 31  1  0  0  0  0
 17 32  1  0  0  0  0
 18 32  1  0  0  0  0
 18 33  2  0  0  0  0
 18 34  1  0  0  0  0
 19 21  2  0  0  0  0
 19 39  1  0  0  0  0
 20 22  2  0  0  0  0
 20 40  1  0  0  0  0
 21 53  1  0  0  0  0
 22 41  1  0  0  0  0
 23 24  2  0  0  0  0
 23 52  1  0  0  0  0
 24 56  1  0  0  0  0
 25 29  1  0  0  0  0
 25 77  1  0  0  0  0
 26 88  1  0  0  0  0
 27 90  1  0  0  0  0
 28 31  2  0  0  0  0
 28 88  1  0  0  0  0
 29 89  1  0  0  0  0
 30 91  1  0  0  0  0
 31 92  1  0  0  0  0
 32 71  2  0  0  0  0
 33 72  1  0  0  0  0
 33 75  1  0  0  0  0
 34 76  1  0  0  0  0
 34 83  2  0  0  0  0
 35 54  1  0  0  0  0
 35 78  1  0  0  0  0
 35 84  2  0  0  0  0
 36 67  1  0  0  0  0
 36 73  1  0  0  0  0
 36 85  2  0  0  0  0
 37 68  1  0  0  0  0
 37 79  1  0  0  0  0
 37 86  2  0  0  0  0
 38 74  1  0  0  0  0
 38 80  1  0  0  0  0
 38 87  2  0  0  0  0
 39 42  1  0  0  0  0
 40 54  1  0  0  0  0
 41 73  1  0  0  0  0
 42 44  1  0  0  0  0
 43 45  1  0  0  0  0
 43 48  1  0  0  0  0
 44 53  1  0  0  0  0
 45 55  1  0  0  0  0
 46 50  1  0  0  0  0
 46 52  1  0  0  0  0
 47 51  1  0  0  0  0
 47 52  1  0  0  0  0
 48 74  1  0  0  0  0
 49 55  1  0  0  0  0
 49 74  1  0  0  0  0
 50 81  1  0  0  0  0
 51 81  1  0  0  0  0
 53 78  1  0  0  0  0
 54 73  1  0  0  0  0
 55 72  1  0  0  0  0
 57 68  1  0  0  0  0
 58 69  1  0  0  0  0
 59 70  1  0  0  0  0
 60 70  1  0  0  0  0
 61 70  1  0  0  0  0
 62 82  1  0  0  0  0
 63 89  1  0  0  0  0
 64 69  1  0  0  0  0
 64 77  1  0  0  0  0
 65 66  1  0  0  0  0
 65 81  1  0  0  0  0
 66 90  1  0  0  0  0
 67 70  1  0  0  0  0
 67 79  1  0  0  0  0
 68 82  1  0  0  0  0
 69 80  1  0  0  0  0
 71 72  1  0  0  0  0
M  CHG  2  81   1  82   1
M  ISO  4  38 100  66 101  80 100  90 101
M  END
> <Batch ID>
0160

> <Smiles>
CNC(C)C(=O)NC(C(=O)N1Cc2cc([101O:1][101CH2:1]CN3CCC(c4cc(OC)c(NCC(C)[100NH:0][100C:0](=O)N5CCCC(n6nc(-c7ccc(Oc8ccc(F)cc8F)cc7)c(C(N)=O)c6N)C5)cc4C)CC3)ccc2CC1C(=O)NC1CCCc2ccccc21)C(C)(C)C

> <Shape>
0.279

> <Color>
0.145

> <Negative vol penalty>
0.000

$$$$

  -OEChem-04052322093D

 86 95  0     1  0  0  0  0  0999 V2000
  -25.4852  -28.9149   20.2248 C   0  0  0  0  0  0  0  0  0  0  0  0
  -25.1988  -27.8969   19.3223 C   0  0  0  0  0  0  0  0  0  0  0  0
  -22.9930  -16.8171   20.5976 C   0  0  0  0  0  0  0  0  0  0  0  0
  -22.9989  -15.5947   18.5136 C   0  0  0  0  0  0  0  0  0  0  0  0
  -26.5665  -28.7868   21.0941 C   0  0  0  0  0  0  0  0  0  0  0  0
  -25.9863  -26.7453   19.2968 C   0  0  0  0  0  0  0  0  0  0  0  0
  -29.0547  -19.0254   18.6729 C   0  0  0  0  0  0  0  0  0  0  0  0
  -22.0791  -17.7249   20.0626 C   0  0  0  0  0  0  0  0  0  0  0  0
  -22.0849  -16.5025   17.9786 C   0  0  0  0  0  0  0  0  0  0  0  0
  -29.9948  -18.2831   19.3863 C   0  0  0  0  0  0  0  0  0  0  0  0
  -22.1414  -20.3884   17.9826 C   0  0  0  0  0  0  0  0  0  0  0  0
  -22.3756  -21.7463   18.1987 C   0  0  0  0  0  0  0  0  0  0  0  0
  -29.1483  -19.2045   21.4488 C   0  0  0  0  0  0  0  0  0  0  0  0
  -20.2545  -21.9304   19.3408 C   0  0  0  0  0  0  0  0  0  0  0  0
  -23.4530  -15.7521   19.8231 C   0  0  0  0  0  0  0  0  0  0  0  0
  -24.2198  -13.9946   21.5056 C   0  0  0  0  0  0  0  0  0  0  0  0
  -27.3747  -27.6382   21.0700 C   0  0  0  0  0  0  0  0  0  0  0  0
  -28.1600  -19.8726   19.3424 C   0  0  0  0  0  0  0  0  0  0  0  0
  -27.0676  -26.5868   20.1825 C   0  0  0  0  0  0  0  0  0  0  0  0
  -28.1961  -19.9545   20.7418 C   0  0  0  0  0  0  0  0  0  0  0  0
  -32.9319  -14.7910   24.1484 C   0  0  0  0  0  0  0  0  0  0  0  0
  -31.9088  -15.5574   23.5598 C   0  0  0  0  0  0  0  0  0  0  0  0
  -34.0917  -15.4285   24.6110 C   0  0  0  0  0  0  0  0  0  0  0  0
  -32.0490  -16.9498   23.4781 C   0  0  0  0  0  0  0  0  0  0  0  0
  -34.2244  -16.8134   24.5146 C   0  0  0  0  0  0  0  0  0  0  0  0
  -33.2031  -17.5736   23.9508 C   0  0  0  0  0  0  0  0  0  0  0  0
  -21.6250  -17.5676   18.7531 C   0  0  0  0  0  0  0  0  0  0  0  0
  -30.0436  -18.3748   20.7742 C   0  0  0  0  0  0  0  0  0  0  0  0
  -20.9637  -19.8015   18.4455 C   0  0  0  0  0  0  0  0  0  0  0  0
  -21.4322  -22.5174   18.8779 C   0  0  0  0  0  0  0  0  0  0  0  0
  -20.0203  -20.5725   19.1246 C   0  0  0  0  0  0  0  0  0  0  0  0
  -24.3975  -14.8144   20.3750 C   0  0  0  0  0  0  0  0  0  0  0  0
  -25.3973  -13.2954   21.6112 C   0  0  0  0  0  0  0  0  0  0  0  0
  -23.0913  -13.8757   22.3819 C   0  0  0  0  0  0  0  0  0  0  0  0
  -27.5985  -23.0012   19.3315 C   0  0  0  0  0  0  0  0  0  0  0  0
  -25.1190  -22.1684   21.2501 C   0  0  0  0  0  0  0  0  0  0  0  0
  -24.5619  -19.8944   23.9953 C   0  0  0  0  0  0  0  0  0  0  0  0
  -30.7556  -12.9310   21.5943 C   0  0  0  0  0  0  0  0  0  0  0  0
  -28.5277  -27.5483   22.0383 C   0  0  0  0  0  0  0  0  0  0  0  0
  -27.1343  -20.6462   18.5603 C   0  0  0  0  0  0  0  0  0  0  0  0
  -32.8284  -13.2864   24.2340 C   0  0  0  0  0  0  0  0  0  0  0  0
  -27.2444  -20.8338   21.5095 C   0  0  0  0  0  0  0  0  0  0  0  0
  -30.6366  -14.9108   23.0733 C   0  0  0  0  0  0  0  0  0  0  0  0
  -29.5611  -26.5008   21.6367 C   0  0  0  0  0  0  0  0  0  0  0  0
  -29.2769  -12.8536   18.4068 C   0  0  0  0  0  0  0  0  0  0  0  0
  -28.8693  -25.1840   21.3175 C   0  0  0  0  0  0  0  0  0  0  0  0
  -27.8486  -13.2956   18.7235 C   0  0  0  0  0  0  0  0  0  0  0  0
  -30.3129  -13.6471   19.2049 C   0  0  0  0  0  0  0  0  0  0  0  0
  -28.6500  -14.0832   20.9825 C   0  0  0  0  0  0  0  0  0  0  0  0
  -27.9287  -25.3385   20.1157 C   0  0  1  0  0  0  0  0  0  0  0  0
  -26.6108  -21.8691   19.3074 C   0  0  1  0  0  0  0  0  0  0  0  0
  -27.5842  -13.2632   20.2392 C   0  0  1  0  0  0  0  0  0  0  0  0
  -31.3964  -12.7492   24.0390 C   0  0  1  0  0  0  0  0  0  0  0  0
  -35.2125  -14.6315   25.2056 C   0  0  0  0  0  0  0  0  0  0  0  0
  -35.4652  -17.4848   25.0151 C   0  0  0  0  0  0  0  0  0  0  0  0
  -33.3456  -19.0603   23.8541 C   0  0  0  0  0  0  0  0  0  0  0  0
  -29.2051  -12.2901   25.1509 C   0  0  0  0  0  0  0  0  0  0  0  0
  -22.4640  -18.7572   24.7718 C   0  0  0  0  0  0  0  0  0  0  0  0
  -24.8719  -24.5515   23.1395 C   0  0  0  0  0  0  0  0  0  0  0  0
  -24.0294  -22.9811   24.8980 C   0  0  0  0  0  0  0  0  0  0  0  0
  -22.7479  -23.2814   22.7790 C   0  0  0  0  0  0  0  0  0  0  0  0
  -25.8086  -17.2163   23.8151 C   0  0  0  0  0  0  0  0  0  0  0  0
  -30.9575  -17.7912   22.8909 C   0  0  0  0  0  0  0  0  0  1  0  0
  -30.5722  -12.8603   25.3264 C   0  0  0  0  0  0  0  0  0  0  0  0
  -24.9280  -22.0016   22.7383 C   0  0  1  0  0  0  0  0  0  0  0  0
  -23.7448  -18.6154   23.9643 C   0  0  2  0  0  0  0  0  0  0  0  0
  -24.1696  -23.1996   23.3764 C   0  0  0  0  0  0  0  0  0  0  0  0
  -25.5938  -14.6522   19.8034 N   0  0  0  0  0  0  0  0  0  0  0  0
  -26.1784  -13.7225   20.5780 N   0  0  0  0  0  0  0  0  0  0  0  0
  -26.2639  -21.5754   20.6993 N   0  0  0  0  0  0  0  0  0  0  0  0
  -30.7733  -13.4605   22.9003 N   0  0  0  0  0  0  0  0  0  0  0  0
  -29.9970  -13.6231   20.6384 N   0  0  0  0  0  0  0  0  0  0  0  0
  -25.8304  -12.3632   22.4863 N   0  0  0  0  0  0  0  0  0  0  0  0
  -22.1023  -12.9318   22.0733 N   0  0  0  0  0  0  0  0  0  0  0  0
  -27.1398  -24.1343   19.9758 N   0  0  0  0  0  0  0  0  0  0  0  0
  -24.2716  -20.7120   22.9236 N   0  0  0  0  0  0  0  0  0  0  0  0
  -24.5331  -17.4834   24.5284 N   0  3  0  0  0  0  0  0  0  0  0  0
  -22.9556  -14.5968   23.3993 O   0  0  0  0  0  0  0  0  0  0  0  0
  -28.6960  -22.8568   18.8059 O   0  0  0  0  0  0  0  0  0  0  0  0
  -24.2796  -22.7955   20.5992 O   0  0  0  0  0  0  0  0  0  0  0  0
  -25.3736  -20.1449   24.8834 O   0  0  0  0  0  0  0  0  0  0  0  0
  -31.3733  -11.8994   21.3020 O   0  0  0  0  0  0  0  0  0  0  0  0
  -20.7329  -18.4530   18.2308 O   0  0  0  0  0  0  0  0  0  0  0  0
  -30.9677  -17.6463   21.4783 O   0  0  0  0  0  0  0  0  0  1  0  0
  -21.6580  -23.8210   19.0867 F   0  0  0  0  0  0  0  0  0  0  0  0
  -18.8875  -20.0140   19.5727 F   0  0  0  0  0  0  0  0  0  0  0  0
  1  2  1  0  0  0  0
  1  5  2  0  0  0  0
  2  6  2  0  0  0  0
  3  8  2  0  0  0  0
  3 15  1  0  0  0  0
  4  9  1  0  0  0  0
  4 15  2  0  0  0  0
  5 17  1  0  0  0  0
  6 19  1  0  0  0  0
  7 10  2  0  0  0  0
  7 18  1  0  0  0  0
  8 27  1  0  0  0  0
  9 27  2  0  0  0  0
 10 28  1  0  0  0  0
 11 12  2  0  0  0  0
 11 29  1  0  0  0  0
 12 30  1  0  0  0  0
 13 20  1  0  0  0  0
 13 28  2  0  0  0  0
 14 30  2  0  0  0  0
 14 31  1  0  0  0  0
 15 32  1  0  0  0  0
 16 32  1  0  0  0  0
 16 33  2  0  0  0  0
 16 34  1  0  0  0  0
 17 19  2  0  0  0  0
 17 39  1  0  0  0  0
 18 20  2  0  0  0  0
 18 40  1  0  0  0  0
 19 50  1  0  0  0  0
 20 42  1  0  0  0  0
 21 22  2  0  0  0  0
 21 23  1  0  0  0  0
 21 41  1  0  0  0  0
 22 24  1  0  0  0  0
 22 43  1  0  0  0  0
 23 25  2  0  0  0  0
 23 54  1  0  0  0  0
 24 26  2  0  0  0  0
 24 63  1  0  0  0  0
 25 26  1  0  0  0  0
 25 55  1  0  0  0  0
 26 56  1  0  0  0  0
 27 83  1  0  0  0  0
 28 84  1  0  0  0  0
 29 31  2  0  0  0  0
 29 83  1  0  0  0  0
 30 85  1  0  0  0  0
 31 86  1  0  0  0  0
 32 68  2  0  0  0  0
 33 69  1  0  0  0  0
 33 73  1  0  0  0  0
 34 74  1  0  0  0  0
 34 78  2  0  0  0  0
 35 51  1  0  0  0  0
 35 75  1  0  0  0  0
 35 79  2  0  0  0  0
 36 65  1  0  0  0  0
 36 70  1  0  0  0  0
 36 80  2  0  0  0  0
 37 66  1  0  0  0  0
 37 76  1  0  0  0  0
 37 81  2  0  0  0  0
 38 71  1  0  0  0  0
 38 72  1  0  0  0  0
 38 82  2  0  0  0  0
 39 44  1  0  0  0  0
 40 51  1  0  0  0  0
 41 53  1  0  0  0  0
 42 70  1  0  0  0  0
 43 71  1  0  0  0  0
 44 46  1  0  0  0  0
 45 47  1  0  0  0  0
 45 48  1  0  0  0  0
 46 50  1  0  0  0  0
 47 52  1  0  0  0  0
 48 72  1  0  0  0  0
 49 52  1  0  0  0  0
 49 72  1  0  0  0  0
 50 75  1  0  0  0  0
 51 70  1  0  0  0  0
 52 69  1  0  0  0  0
 53 64  1  0  0  0  0
 53 71  1  0  0  0  0
 57 64  1  0  0  0  0
 58 66  1  0  0  0  0
 59 67  1  0  0  0  0
 60 67  1  0  0  0  0
 61 67  1  0  0  0  0
 62 77  1  0  0  0  0
 63 84  1  0  0  0  0
 65 67  1  0  0  0  0
 65 76  1  0  0  0  0
 66 77  1  0  0  0  0
 68 69  1  0  0  0  0
M  CHG  1  77   1
M  ISO  4  38 100  63 101  71 100  84 101
M  END
> <Batch ID>
0160

> <Smiles>
CCC1Cc2c(C)c(C)c(C)c([101CH2:1][101O:1]c3ccc4c(c3)CN(C(=O)C(NC(=O)C(C)NC)C(C)(C)C)C(C(=O)NC3CCCc5ccccc53)C4)c2C[100N:0]1[100C:0](=O)N1CCCC(n2nc(-c3ccc(Oc4ccc(F)cc4F)cc3)c(C(N)=O)c2N)C1

> <Shape>
0.178

> <Color>
0.077

> <Negative vol penalty>
0.000

$$$$

  -OEChem-04052322093D

 85 94  0     1  0  0  0  0  0999 V2000
  -21.0855  -17.2380   16.7624 C   0  0  0  0  0  0  0  0  0  0  0  0
  -21.9396  -17.3751   17.8520 C   0  0  0  0  0  0  0  0  0  0  0  0
  -22.9996   -9.8941   19.9814 C   0  0  0  0  0  0  0  0  0  0  0  0
  -23.7244   -9.9458   22.2855 C   0  0  0  0  0  0  0  0  0  0  0  0
  -20.4168  -18.3524   16.2577 C   0  0  0  0  0  0  0  0  0  0  0  0
  -22.1262  -18.6271   18.4368 C   0  0  0  0  0  0  0  0  0  0  0  0
  -23.0479  -19.8169   24.3732 C   0  0  0  0  0  0  0  0  0  0  0  0
  -22.2327   -8.7599   20.2480 C   0  0  0  0  0  0  0  0  0  0  0  0
  -22.9574   -8.8116   22.5522 C   0  0  0  0  0  0  0  0  0  0  0  0
  -24.2042  -20.0646   25.1117 C   0  0  0  0  0  0  0  0  0  0  0  0
  -23.2009   -5.4724   22.0817 C   0  0  0  0  0  0  0  0  0  0  0  0
  -23.7880   -4.4554   22.8343 C   0  0  0  0  0  0  0  0  0  0  0  0
  -23.8365  -22.4375   24.8801 C   0  0  0  0  0  0  0  0  0  0  0  0
  -31.8771  -17.4251   21.6422 C   0  0  0  0  0  0  0  0  0  0  0  0
  -22.0639   -4.6995   24.5091 C   0  0  0  0  0  0  0  0  0  0  0  0
  -29.9193  -17.8000   22.6893 C   0  0  0  0  0  0  0  0  0  0  0  0
  -23.7455  -10.4870   21.0001 C   0  0  0  0  0  0  0  0  0  0  0  0
  -24.1316  -13.0024   20.8232 C   0  0  0  0  0  0  0  0  0  0  0  0
  -20.5879  -19.6170   16.8427 C   0  0  0  0  0  0  0  0  0  0  0  0
  -22.2819  -20.8793   23.8725 C   0  0  0  0  0  0  0  0  0  0  0  0
  -21.4602  -19.7598   17.9386 C   0  0  0  0  0  0  0  0  0  0  0  0
  -22.6695  -22.2005   24.1378 C   0  0  0  0  0  0  0  0  0  0  0  0
  -30.5954  -16.8853   21.9124 C   0  0  0  0  0  0  0  0  0  0  0  0
  -22.2116   -8.2187   21.5334 C   0  0  0  0  0  0  0  0  0  0  0  0
  -24.6003  -21.3751   25.3628 C   0  0  0  0  0  0  0  0  0  0  0  0
  -22.0453   -6.1031   22.5428 C   0  0  0  0  0  0  0  0  0  0  0  0
  -23.2195   -4.0689   24.0480 C   0  0  0  0  0  0  0  0  0  0  0  0
  -21.4768   -5.7166   23.7565 C   0  0  0  0  0  0  0  0  0  0  0  0
  -24.5384  -11.6583   20.7252 C   0  0  0  0  0  0  0  0  0  0  0  0
  -31.9453  -18.6531   22.2625 C   0  0  0  0  0  0  0  0  0  0  0  0
  -25.2416  -13.7246   20.4587 C   0  0  0  0  0  0  0  0  0  0  0  0
  -22.8637  -13.5494   21.2093 C   0  0  0  0  0  0  0  0  0  0  0  0
  -21.4511  -21.8729   20.9697 C   0  0  0  0  0  0  0  0  0  0  0  0
  -19.6370  -23.9833   22.6363 C   0  0  0  0  0  0  0  0  0  0  0  0
  -19.1156  -25.6919   25.5442 C   0  0  0  0  0  0  0  0  0  0  0  0
  -30.7213  -14.6844   20.6933 C   0  0  0  0  0  0  0  0  0  0  0  0
  -19.8802  -20.8009   16.2325 C   0  0  0  0  0  0  0  0  0  0  0  0
  -21.0226  -20.5954   23.1004 C   0  0  0  0  0  0  0  0  0  0  0  0
  -21.8708  -23.3764   23.6399 C   0  0  0  0  0  0  0  0  0  0  0  0
  -19.8435  -22.0247   17.1442 C   0  0  0  0  0  0  0  0  0  0  0  0
  -29.6028  -12.2306   18.3683 C   0  0  0  0  0  0  0  0  0  0  0  0
  -21.2197  -22.2802   17.7506 C   0  0  0  0  0  0  0  0  0  0  0  0
  -28.1521  -11.9736   18.7823 C   0  0  0  0  0  0  0  0  0  0  0  0
  -29.2008  -20.7672   23.0354 C   0  0  0  0  0  0  0  0  0  0  0  0
  -30.1072  -19.6598   25.1278 C   0  0  0  0  0  0  0  0  0  0  0  0
  -30.5032  -12.4744   19.5782 C   0  0  0  0  0  0  0  0  0  0  0  0
  -28.5877  -13.2644   20.9109 C   0  0  0  0  0  0  0  0  0  0  0  0
  -28.7685  -21.9644   23.8719 C   0  0  0  0  0  0  0  0  0  0  0  0
  -29.6648  -20.8677   25.9432 C   0  0  0  0  0  0  0  0  0  0  0  0
  -21.6696  -21.0968   18.6158 C   0  0  1  0  0  0  0  0  0  0  0  0
  -20.5991  -21.7528   22.2014 C   0  0  1  0  0  0  0  0  0  0  0  0
  -27.6303  -13.0777   19.7226 C   0  0  2  0  0  0  0  0  0  0  0  0
  -30.3988  -20.0440   23.6692 C   0  0  0  0  0  0  0  0  0  0  0  0
  -33.0487  -19.6344   22.3026 C   0  0  0  0  0  0  0  0  0  0  0  0
  -17.5735  -27.3710   26.5930 C   0  0  0  0  0  0  0  0  0  0  0  0
  -20.9662  -26.2072   21.0247 C   0  0  0  0  0  0  0  0  0  0  0  0
  -20.1275  -27.8442   22.7232 C   0  0  0  0  0  0  0  0  0  0  0  0
  -18.5085  -26.5028   21.3807 C   0  0  0  0  0  0  0  0  0  0  0  0
  -18.3036  -23.7942   27.6650 C   0  0  0  0  0  0  0  0  0  0  0  0
  -27.9103  -22.6309   26.1157 C   0  0  0  0  0  0  0  0  0  0  0  0
  -26.4431  -22.8182   25.7835 C   0  0  0  0  0  0  0  0  0  1  0  0
  -19.8518  -25.3682   23.1973 C   0  0  1  0  0  0  0  0  0  0  0  0
  -17.8673  -25.8936   26.3840 C   0  0  2  0  0  0  0  0  0  0  0  0
  -19.8798  -26.4587   22.0893 C   0  0  0  0  0  0  0  0  0  0  0  0
  -25.8077  -11.5313   20.3293 N   0  0  0  0  0  0  0  0  0  0  0  0
  -30.7498  -18.8705   22.8961 N   0  0  0  0  0  0  0  0  0  0  0  0
  -26.2081  -12.8049   20.1753 N   0  0  0  0  0  0  0  0  0  0  0  0
  -20.6509  -23.0471   22.8843 N   0  0  0  0  0  0  0  0  0  0  0  0
  -29.9482  -13.5359   20.4209 N   0  0  0  0  0  0  0  0  0  0  0  0
  -25.4755  -15.0502   20.3562 N   0  0  0  0  0  0  0  0  0  0  0  0
  -21.8316  -12.6656   21.5529 N   0  0  0  0  0  0  0  0  0  0  0  0
  -30.0771  -15.6401   21.4783 N   0  0  0  0  0  0  0  0  0  0  0  0
  -21.0003  -21.1253   19.8986 N   0  0  0  0  0  0  0  0  0  0  0  0
  -18.8150  -25.5661   24.2044 N   0  0  0  0  0  0  0  0  0  0  0  0
  -28.4620  -21.5256   25.2922 N   0  3  0  0  0  0  0  0  0  0  0  0
  -18.0327  -25.2538   27.7198 N   0  3  0  0  0  0  0  0  0  0  0  0
  -22.6473  -14.7847   21.2325 O   0  0  0  0  0  0  0  0  0  0  0  0
  -22.4433  -22.5919   20.9891 O   0  0  0  0  0  0  0  0  0  0  0  0
  -18.6042  -23.7390   22.0076 O   0  0  0  0  0  0  0  0  0  0  0  0
  -20.2449  -25.6539   26.0278 O   0  0  0  0  0  0  0  0  0  0  0  0
  -31.8600  -14.8228   20.2395 O   0  0  0  0  0  0  0  0  0  0  0  0
  -21.4632   -7.1121   21.7940 O   0  0  0  0  0  0  0  0  0  0  0  0
  -25.7288  -21.6197   26.0828 O   0  0  0  0  0  0  0  0  0  1  0  0
  -23.7825   -3.0911   24.7699 F   0  0  0  0  0  0  0  0  0  0  0  0
  -20.3660   -6.3179   24.2040 F   0  0  0  0  0  0  0  0  0  0  0  0
  1  2  1  0  0  0  0
  1  5  2  0  0  0  0
  2  6  2  0  0  0  0
  3  8  2  0  0  0  0
  3 17  1  0  0  0  0
  4  9  1  0  0  0  0
  4 17  2  0  0  0  0
  5 19  1  0  0  0  0
  6 21  1  0  0  0  0
  7 10  2  0  0  0  0
  7 20  1  0  0  0  0
  8 24  1  0  0  0  0
  9 24  2  0  0  0  0
 10 25  1  0  0  0  0
 11 12  2  0  0  0  0
 11 26  1  0  0  0  0
 12 27  1  0  0  0  0
 13 22  1  0  0  0  0
 13 25  2  0  0  0  0
 14 23  1  0  0  0  0
 14 30  2  0  0  0  0
 15 27  2  0  0  0  0
 15 28  1  0  0  0  0
 16 23  2  0  0  0  0
 16 66  1  0  0  0  0
 17 29  1  0  0  0  0
 18 29  1  0  0  0  0
 18 31  2  0  0  0  0
 18 32  1  0  0  0  0
 19 21  2  0  0  0  0
 19 37  1  0  0  0  0
 20 22  2  0  0  0  0
 20 38  1  0  0  0  0
 21 50  1  0  0  0  0
 22 39  1  0  0  0  0
 23 72  1  0  0  0  0
 24 82  1  0  0  0  0
 25 83  1  0  0  0  0
 26 28  2  0  0  0  0
 26 82  1  0  0  0  0
 27 84  1  0  0  0  0
 28 85  1  0  0  0  0
 29 65  2  0  0  0  0
 30 54  1  0  0  0  0
 30 66  1  0  0  0  0
 31 67  1  0  0  0  0
 31 70  1  0  0  0  0
 32 71  1  0  0  0  0
 32 77  2  0  0  0  0
 33 51  1  0  0  0  0
 33 73  1  0  0  0  0
 33 78  2  0  0  0  0
 34 62  1  0  0  0  0
 34 68  1  0  0  0  0
 34 79  2  0  0  0  0
 35 63  1  0  0  0  0
 35 74  1  0  0  0  0
 35 80  2  0  0  0  0
 36 69  1  0  0  0  0
 36 72  1  0  0  0  0
 36 81  2  0  0  0  0
 37 40  1  0  0  0  0
 38 51  1  0  0  0  0
 39 68  1  0  0  0  0
 40 42  1  0  0  0  0
 41 43  1  0  0  0  0
 41 46  1  0  0  0  0
 42 50  1  0  0  0  0
 43 52  1  0  0  0  0
 44 48  1  0  0  0  0
 44 53  1  0  0  0  0
 45 49  1  0  0  0  0
 45 53  1  0  0  0  0
 46 69  1  0  0  0  0
 47 52  1  0  0  0  0
 47 69  1  0  0  0  0
 48 75  1  0  0  0  0
 49 75  1  0  0  0  0
 50 73  1  0  0  0  0
 51 68  1  0  0  0  0
 52 67  1  0  0  0  0
 53 66  1  0  0  0  0
 55 63  1  0  0  0  0
 56 64  1  0  0  0  0
 57 64  1  0  0  0  0
 58 64  1  0  0  0  0
 59 76  1  0  0  0  0
 60 61  1  0  0  0  0
 60 75  1  0  0  0  0
 61 83  1  0  0  0  0
 62 64  1  0  0  0  0
 62 74  1  0  0  0  0
 63 76  1  0  0  0  0
 65 67  1  0  0  0  0
M  CHG  2  75   1  76   1
M  ISO  4  36 100  61 101  72 100  83 101
M  END
> <Batch ID>
0160

> <Smiles>
CNC(C)C(=O)NC(C(=O)N1Cc2cc([101O:1][101CH2:1]CN3CCC(n4cc([100NH:0][100C:0](=O)N5CCCC(n6nc(-c7ccc(Oc8ccc(F)cc8F)cc7)c(C(N)=O)c6N)C5)cc4C)CC3)ccc2CC1C(=O)NC1CCCc2ccccc21)C(C)(C)C

> <Shape>
0.210

> <Color>
0.193

> <Negative vol penalty>
0.000

$$$$

  -OEChem-04052322093D

 91100  0     1  0  0  0  0  0999 V2000
  -21.8465   -6.8767   18.2260 C   0  0  0  0  0  0  0  0  0  0  0  0
  -21.4994   -8.1252   17.7198 C   0  0  0  0  0  0  0  0  0  0  0  0
  -28.0808  -24.7912   18.5648 C   0  0  0  0  0  0  0  0  0  0  0  0
  -26.2791  -24.1094   20.0228 C   0  0  0  0  0  0  0  0  0  0  0  0
  -22.3845   -6.7706   19.5079 C   0  0  0  0  0  0  0  0  0  0  0  0
  -21.6891   -9.2682   18.4956 C   0  0  0  0  0  0  0  0  0  0  0  0
  -23.3182  -16.2179   17.8924 C   0  0  0  0  0  0  0  0  0  0  0  0
  -28.7805  -23.6279   18.8854 C   0  0  0  0  0  0  0  0  0  0  0  0
  -26.9787  -22.9461   20.3434 C   0  0  0  0  0  0  0  0  0  0  0  0
  -22.8475  -17.4720   18.2790 C   0  0  0  0  0  0  0  0  0  0  0  0
  -28.7128  -20.3610   18.0164 C   0  0  0  0  0  0  0  0  0  0  0  0
  -29.3045  -19.6516   16.9713 C   0  0  0  0  0  0  0  0  0  0  0  0
  -23.8585  -17.1758   20.4492 C   0  0  0  0  0  0  0  0  0  0  0  0
  -20.1306  -22.5275   21.0671 C   0  0  0  0  0  0  0  0  0  0  0  0
  -31.4725  -19.9533   17.9941 C   0  0  0  0  0  0  0  0  0  0  0  0
  -26.8301  -25.0320   19.1336 C   0  0  0  0  0  0  0  0  0  0  0  0
  -25.6728  -26.6411   17.5276 C   0  0  0  0  0  0  0  0  0  0  0  0
  -22.5899   -7.9139   20.2961 C   0  0  0  0  0  0  0  0  0  0  0  0
  -24.0545  -15.4274   18.7865 C   0  0  0  0  0  0  0  0  0  0  0  0
  -22.2292   -9.1771   19.7898 C   0  0  0  0  0  0  0  0  0  0  0  0
  -24.3396  -15.9131   20.0706 C   0  0  0  0  0  0  0  0  0  0  0  0
  -20.4945  -21.2996   20.5145 C   0  0  0  0  0  0  0  0  0  0  0  0
  -22.1791  -22.4005   19.1777 C   0  0  0  0  0  0  0  0  0  0  0  0
  -21.5188  -21.2360   19.5699 C   0  0  0  0  0  0  0  0  0  0  0  0
  -21.8152  -23.6284   19.7302 C   0  0  0  0  0  0  0  0  0  0  0  0
  -20.7909  -23.6920   20.6749 C   0  0  0  0  0  0  0  0  0  0  0  0
  -28.2294  -22.7053   19.7747 C   0  0  0  0  0  0  0  0  0  0  0  0
  -23.1152  -17.9499   19.5585 C   0  0  0  0  0  0  0  0  0  0  0  0
  -29.5009  -20.8666   19.0503 C   0  0  0  0  0  0  0  0  0  0  0  0
  -30.6844  -19.4477   16.9602 C   0  0  0  0  0  0  0  0  0  0  0  0
  -30.8807  -20.6627   19.0392 C   0  0  0  0  0  0  0  0  0  0  0  0
  -26.1071  -26.2338   18.8032 C   0  0  0  0  0  0  0  0  0  0  0  0
  -25.0404  -27.8404   17.7469 C   0  0  0  0  0  0  0  0  0  0  0  0
  -25.8271  -25.9931   16.2579 C   0  0  0  0  0  0  0  0  0  0  0  0
  -23.6355  -12.5771   20.1296 C   0  0  0  0  0  0  0  0  0  0  0  0
  -26.6412  -13.0897   21.2363 C   0  0  0  0  0  0  0  0  0  0  0  0
  -29.0874  -15.3265   22.0485 C   0  0  0  0  0  0  0  0  0  0  0  0
  -22.3595  -30.2192   22.5433 C   0  0  0  0  0  0  0  0  0  0  0  0
  -23.1305   -7.7443   21.6939 C   0  0  0  0  0  0  0  0  0  0  0  0
  -24.5780  -14.0881   18.3451 C   0  0  0  0  0  0  0  0  0  0  0  0
  -25.1430  -15.1120   21.0612 C   0  0  0  0  0  0  0  0  0  0  0  0
  -23.6481   -9.0423   22.3084 C   0  0  0  0  0  0  0  0  0  0  0  0
  -25.0717  -31.6051   20.6994 C   0  0  0  0  0  0  0  0  0  0  0  0
  -22.6489  -10.1734   22.0869 C   0  0  0  0  0  0  0  0  0  0  0  0
  -25.6054  -30.4224   19.8893 C   0  0  0  0  0  0  0  0  0  0  0  0
  -19.1348  -27.5358   21.2397 C   0  0  0  0  0  0  0  0  0  0  0  0
  -24.5997  -31.1723   22.0858 C   0  0  0  0  0  0  0  0  0  0  0  0
  -24.1550  -28.8861   21.2802 C   0  0  0  0  0  0  0  0  0  0  0  0
  -22.4430  -10.4427   20.5914 C   0  0  1  0  0  0  0  0  0  0  0  0
  -24.8786  -13.1505   19.5104 C   0  0  1  0  0  0  0  0  0  0  0  0
  -19.1190  -28.9707   21.7849 C   0  0  1  0  0  0  0  0  0  0  0  0
  -24.5911  -29.2635   19.8541 C   0  0  2  0  0  0  0  0  0  0  0  0
  -20.1583  -29.1341   22.9127 C   0  0  1  0  0  0  0  0  0  0  0  0
  -19.0076  -26.5237   22.3813 C   0  0  1  0  0  0  0  0  0  0  0  0
  -19.9593  -28.0277   23.9651 C   0  0  2  0  0  0  0  0  0  0  0  0
  -19.7725  -20.0674   20.9524 C   0  0  0  0  0  0  0  0  0  0  0  0
  -23.2776  -22.3318   18.1638 C   0  0  0  0  0  0  0  0  0  0  0  0
  -22.5265  -24.8769   19.3110 C   0  0  0  0  0  0  0  0  0  0  0  0
  -19.2923  -29.9897   20.6582 C   0  0  0  0  0  0  0  0  0  0  0  0
  -20.9891  -28.0778   25.0890 C   0  0  0  0  0  0  0  0  0  0  0  0
  -31.3520  -16.1468   22.7527 C   0  0  0  0  0  0  0  0  0  0  0  0
  -25.5686  -12.5389   24.0392 C   0  0  0  0  0  0  0  0  0  0  0  0
  -27.6470  -13.5840   24.9644 C   0  0  0  0  0  0  0  0  0  0  0  0
  -27.8054  -11.5279   23.5609 C   0  0  0  0  0  0  0  0  0  0  0  0
  -30.0758  -15.3463   19.2589 C   0  0  0  0  0  0  0  0  0  0  0  0
  -21.9074  -19.9140   18.9760 C   0  0  0  0  0  0  0  0  0  1  0  0
  -19.1409  -25.1275   21.8759 C   0  0  0  0  0  0  0  0  0  0  0  0
  -27.2319  -13.7340   22.4672 C   0  0  1  0  0  0  0  0  0  0  0  0
  -30.5661  -15.3699   21.7080 C   0  0  2  0  0  0  0  0  0  0  0  0
  -27.0464  -12.8607   23.7402 C   0  0  0  0  0  0  0  0  0  0  0  0
  -25.7786  -27.1039   19.7619 N   0  0  0  0  0  0  0  0  0  0  0  0
  -25.1312  -28.0699   19.0883 N   0  0  0  0  0  0  0  0  0  0  0  0
  -25.6274  -13.8060   20.5846 N   0  0  0  0  0  0  0  0  0  0  0  0
  -23.6387  -30.0716   21.9821 N   0  0  0  0  0  0  0  0  0  0  0  0
  -24.4212  -28.7107   16.9213 N   0  0  0  0  0  0  0  0  0  0  0  0
  -24.8333  -25.0977   15.8396 N   0  0  0  0  0  0  0  0  0  0  0  0
  -20.4076  -24.9259   21.2461 N   0  0  0  0  0  0  0  0  0  0  0  0
  -23.5545  -11.1996   20.0564 N   0  0  0  0  0  0  0  0  0  0  0  0
  -28.6231  -14.0317   22.1444 N   0  0  0  0  0  0  0  0  0  0  0  0
  -21.5083  -29.1310   22.3948 N   0  0  0  0  0  0  0  0  0  0  0  0
  -30.7738  -16.0209   20.3835 N   0  3  0  0  0  0  0  0  0  0  0  0
  -26.8250  -26.1896   15.5237 O   0  0  0  0  0  0  0  0  0  0  0  0
  -22.8115  -13.3286   20.6375 O   0  0  0  0  0  0  0  0  0  0  0  0
  -27.0688  -11.9946   20.8627 O   0  0  0  0  0  0  0  0  0  0  0  0
  -28.4126  -16.3399   22.2166 O   0  0  0  0  0  0  0  0  0  0  0  0
  -22.0006  -31.2467   23.1283 O   0  0  0  0  0  0  0  0  0  0  0  0
  -20.0341  -26.7340   23.3554 O   0  0  0  0  0  0  0  0  0  0  0  0
  -28.9118  -21.5700   20.0876 O   0  0  0  0  0  0  0  0  0  0  0  0
  -22.6564  -19.1734   19.9387 O   0  0  0  0  0  0  0  0  0  1  0  0
  -31.2523  -18.7652   15.9573 F   0  0  0  0  0  0  0  0  0  0  0  0
  -31.6429  -21.1450   20.0303 F   0  0  0  0  0  0  0  0  0  0  0  0
  1  2  1  0  0  0  0
  1  5  2  0  0  0  0
  2  6  2  0  0  0  0
  3  8  2  0  0  0  0
  3 16  1  0  0  0  0
  4  9  1  0  0  0  0
  4 16  2  0  0  0  0
  5 18  1  0  0  0  0
  6 20  1  0  0  0  0
  7 10  2  0  0  0  0
  7 19  1  0  0  0  0
  8 27  1  0  0  0  0
  9 27  2  0  0  0  0
 10 28  1  0  0  0  0
 11 12  2  0  0  0  0
 11 29  1  0  0  0  0
 12 30  1  0  0  0  0
 13 21  1  0  0  0  0
 13 28  2  0  0  0  0
 14 22  2  0  0  0  0
 14 26  1  0  0  0  0
 15 30  2  0  0  0  0
 15 31  1  0  0  0  0
 16 32  1  0  0  0  0
 17 32  1  0  0  0  0
 17 33  2  0  0  0  0
 17 34  1  0  0  0  0
 18 20  2  0  0  0  0
 18 39  1  0  0  0  0
 19 21  2  0  0  0  0
 19 40  1  0  0  0  0
 20 49  1  0  0  0  0
 21 41  1  0  0  0  0
 22 24  1  0  0  0  0
 22 56  1  0  0  0  0
 23 24  2  0  0  0  0
 23 25  1  0  0  0  0
 23 57  1  0  0  0  0
 24 66  1  0  0  0  0
 25 26  2  0  0  0  0
 25 58  1  0  0  0  0
 26 77  1  0  0  0  0
 27 88  1  0  0  0  0
 28 89  1  0  0  0  0
 29 31  2  0  0  0  0
 29 88  1  0  0  0  0
 30 90  1  0  0  0  0
 31 91  1  0  0  0  0
 32 71  2  0  0  0  0
 33 72  1  0  0  0  0
 33 75  1  0  0  0  0
 34 76  1  0  0  0  0
 34 82  2  0  0  0  0
 35 50  1  0  0  0  0
 35 78  1  0  0  0  0
 35 83  2  0  0  0  0
 36 68  1  0  0  0  0
 36 73  1  0  0  0  0
 36 84  2  0  0  0  0
 37 69  1  0  0  0  0
 37 79  1  0  0  0  0
 37 85  2  0  0  0  0
 38 74  1  0  0  0  0
 38 80  1  0  0  0  0
 38 86  2  0  0  0  0
 39 42  1  0  0  0  0
 40 50  1  0  0  0  0
 41 73  1  0  0  0  0
 42 44  1  0  0  0  0
 43 45  1  0  0  0  0
 43 47  1  0  0  0  0
 44 49  1  0  0  0  0
 45 52  1  0  0  0  0
 46 51  1  0  0  0  0
 46 54  1  0  0  0  0
 47 74  1  0  0  0  0
 48 52  1  0  0  0  0
 48 74  1  0  0  0  0
 49 78  1  0  0  0  0
 50 73  1  0  0  0  0
 51 53  1  0  0  0  0
 51 59  1  0  0  0  0
 52 72  1  0  0  0  0
 53 55  1  0  0  0  0
 53 80  1  0  0  0  0
 54 67  1  0  0  0  0
 54 87  1  0  0  0  0
 55 60  1  0  0  0  0
 55 87  1  0  0  0  0
 61 69  1  0  0  0  0
 62 70  1  0  0  0  0
 63 70  1  0  0  0  0
 64 70  1  0  0  0  0
 65 81  1  0  0  0  0
 66 89  1  0  0  0  0
 67 77  1  0  0  0  0
 68 70  1  0  0  0  0
 68 79  1  0  0  0  0
 69 81  1  0  0  0  0
 71 72  1  0  0  0  0
M  CHG  1  81   1
M  ISO  4  38 100  66 101  80 100  89 101
M  END
> <Batch ID>
0160

> <Smiles>
CNC(C)C(=O)NC(C(=O)N1Cc2cc([101O:1][101CH2:1]c3c(C)cc(NCC4CC(C)C([100NH:0][100C:0](=O)N5CCCC(n6nc(-c7ccc(Oc8ccc(F)cc8F)cc7)c(C(N)=O)c6N)C5)C(C)O4)c(C)c3C)ccc2CC1C(=O)NC1CCCc2ccccc21)C(C)(C)C

> <Shape>
0.239

> <Color>
0.083

> <Negative vol penalty>
0.000

$$$$

  -OEChem-04052322093D

 91 99  0     1  0  0  0  0  0999 V2000
  -23.4264  -30.4033   21.7160 C   0  0  0  0  0  0  0  0  0  0  0  0
  -23.6991  -29.0536   21.5174 C   0  0  0  0  0  0  0  0  0  0  0  0
  -23.9210  -16.0285   25.7470 C   0  0  0  0  0  0  0  0  0  0  0  0
  -24.9923  -17.6353   24.2952 C   0  0  0  0  0  0  0  0  0  0  0  0
  -24.3548  -31.3661   21.3224 C   0  0  0  0  0  0  0  0  0  0  0  0
  -24.8999  -28.6660   20.9240 C   0  0  0  0  0  0  0  0  0  0  0  0
  -28.1756  -23.6464   22.1804 C   0  0  0  0  0  0  0  0  0  0  0  0
  -24.2987  -16.7812   26.8589 C   0  0  0  0  0  0  0  0  0  0  0  0
  -25.3700  -18.3881   25.4071 C   0  0  0  0  0  0  0  0  0  0  0  0
  -28.2634  -22.4030   21.5559 C   0  0  0  0  0  0  0  0  0  0  0  0
  -27.7615  -18.2782   27.7944 C   0  0  0  0  0  0  0  0  0  0  0  0
  -29.0710  -18.7565   27.8387 C   0  0  0  0  0  0  0  0  0  0  0  0
  -30.2137  -23.1529   20.3504 C   0  0  0  0  0  0  0  0  0  0  0  0
  -32.0943  -14.1507   20.0875 C   0  0  0  0  0  0  0  0  0  0  0  0
  -28.2400  -21.0234   27.9283 C   0  0  0  0  0  0  0  0  0  0  0  0
  -24.2678  -16.4555   24.4651 C   0  0  0  0  0  0  0  0  0  0  0  0
  -22.6897  -15.7982   22.5717 C   0  0  0  0  0  0  0  0  0  0  0  0
  -25.5718  -30.9897   20.7326 C   0  0  0  0  0  0  0  0  0  0  0  0
  -29.1013  -24.6577   21.8860 C   0  0  0  0  0  0  0  0  0  0  0  0
  -25.8449  -29.6248   20.5208 C   0  0  0  0  0  0  0  0  0  0  0  0
  -30.1370  -24.4074   20.9744 C   0  0  0  0  0  0  0  0  0  0  0  0
  -31.8987  -15.1182   21.0729 C   0  0  0  0  0  0  0  0  0  0  0  0
  -30.0651  -16.0435   19.8006 C   0  0  0  0  0  0  0  0  0  0  0  0
  -30.8841  -16.0646   20.9296 C   0  0  0  0  0  0  0  0  0  0  0  0
  -30.2607  -15.0760   18.8151 C   0  0  0  0  0  0  0  0  0  0  0  0
  -25.0232  -17.9610   26.6890 C   0  0  0  0  0  0  0  0  0  0  0  0
  -29.2808  -22.1570   20.6386 C   0  0  0  0  0  0  0  0  0  0  0  0
  -26.6912  -19.1724   27.8170 C   0  0  0  0  0  0  0  0  0  0  0  0
  -31.2753  -14.1296   18.9585 C   0  0  0  0  0  0  0  0  0  0  0  0
  -29.3103  -20.1291   27.9057 C   0  0  0  0  0  0  0  0  0  0  0  0
  -26.9304  -20.5450   27.8839 C   0  0  0  0  0  0  0  0  0  0  0  0
  -23.8784  -15.6781   23.3162 C   0  0  0  0  0  0  0  0  0  0  0  0
  -22.7997  -14.8414   21.5924 C   0  0  0  0  0  0  0  0  0  0  0  0
  -21.5849  -16.6946   22.7493 C   0  0  0  0  0  0  0  0  0  0  0  0
  -28.9157  -27.5728   20.6324 C   0  0  0  0  0  0  0  0  0  0  0  0
  -32.0638  -27.6829   21.4067 C   0  0  0  0  0  0  0  0  0  0  0  0
  -34.9498  -25.9797   22.0525 C   0  0  0  0  0  0  0  0  0  0  0  0
  -27.4953  -12.1649   19.0160 C   0  0  0  0  0  0  0  0  0  0  0  0
  -26.5238  -32.0686   20.2804 C   0  0  0  0  0  0  0  0  0  0  0  0
  -29.0087  -25.9846   22.5882 C   0  0  0  0  0  0  0  0  0  0  0  0
  -31.1679  -25.4529   20.6388 C   0  0  0  0  0  0  0  0  0  0  0  0
  -27.9347  -31.5578   20.0003 C   0  0  0  0  0  0  0  0  0  0  0  0
  -24.8022  -10.5835   20.7257 C   0  0  0  0  0  0  0  0  0  0  0  0
  -27.8849  -30.2849   19.1613 C   0  0  0  0  0  0  0  0  0  0  0  0
  -24.1528  -11.7207   21.5163 C   0  0  0  0  0  0  0  0  0  0  0  0
  -26.3204  -10.7351   20.6628 C   0  0  0  0  0  0  0  0  0  0  0  0
  -26.1430  -13.1763   20.9511 C   0  0  0  0  0  0  0  0  0  0  0  0
  -27.1471  -29.1637   19.9030 C   0  0  1  0  0  0  0  0  0  0  0  0
  -29.7003  -27.1123   21.8282 C   0  0  1  0  0  0  0  0  0  0  0  0
  -24.6073  -13.0972   20.9947 C   0  0  2  0  0  0  0  0  0  0  0  0
  -32.7904  -15.1192   22.2713 C   0  0  0  0  0  0  0  0  0  0  0  0
  -29.2914  -16.9904   22.6500 C   0  0  0  0  0  0  0  0  0  0  0  0
  -30.8950  -18.5289   21.4598 C   0  0  0  0  0  0  0  0  0  0  0  0
  -37.3678  -26.3436   22.6167 C   0  0  0  0  0  0  0  0  0  0  0  0
  -28.5415  -20.1720   17.3331 C   0  0  0  0  0  0  0  0  0  0  0  0
  -27.7278  -13.7558   16.1912 C   0  0  0  0  0  0  0  0  0  0  0  0
  -32.6213  -28.4560   18.5082 C   0  0  0  0  0  0  0  0  0  0  0  0
  -35.0274  -27.8790   18.8902 C   0  0  0  0  0  0  0  0  0  0  0  0
  -33.9639  -29.7159   20.2006 C   0  0  0  0  0  0  0  0  0  0  0  0
  -34.6856  -24.5422   24.6260 C   0  0  0  0  0  0  0  0  0  0  0  0
  -32.5411  -12.2504   18.2359 C   0  0  0  0  0  0  0  0  0  0  0  0
  -28.9676  -17.0664   19.6450 C   0  0  0  0  0  0  0  0  0  0  0  0
  -29.3866  -15.0470   17.6016 C   0  0  0  0  0  0  0  0  0  0  0  0
  -29.3276  -18.2306   18.7116 C   0  0  0  0  0  0  0  0  0  0  0  0
  -28.1492  -20.2332   19.8174 C   0  0  0  0  0  0  0  0  0  1  0  0
  -30.6763  -17.1007   21.9887 C   0  0  0  0  0  0  0  0  0  0  0  0
  -33.3503  -27.3161   20.7071 C   0  0  1  0  0  0  0  0  0  0  0  0
  -35.9697  -26.1129   23.1689 C   0  0  2  0  0  0  0  0  0  0  0  0
  -28.2495  -19.3293   18.5813 C   0  0  1  0  0  0  0  0  0  0  0  0
  -28.6049  -13.7271   17.4389 C   0  0  1  0  0  0  0  0  0  0  0  0
  -33.7203  -28.3225   19.5812 C   0  0  0  0  0  0  0  0  0  0  0  0
  -24.6843  -14.7203   22.8500 N   0  0  0  0  0  0  0  0  0  0  0  0
  -24.0006  -14.2299   21.8020 N   0  0  0  0  0  0  0  0  0  0  0  0
  -31.0311  -26.7364   21.3468 N   0  0  0  0  0  0  0  0  0  0  0  0
  -26.6849  -12.0614   20.1586 N   0  0  0  0  0  0  0  0  0  0  0  0
  -21.9852  -14.4719   20.5812 N   0  0  0  0  0  0  0  0  0  0  0  0
  -21.6342  -17.6148   23.8054 N   0  0  0  0  0  0  0  0  0  0  0  0
  -28.0043  -28.5739   20.9089 N   0  0  0  0  0  0  0  0  0  0  0  0
  -34.3611  -27.1897   21.7515 N   0  0  0  0  0  0  0  0  0  0  0  0
  -27.7882  -13.4584   18.6014 N   0  0  0  0  0  0  0  0  0  0  0  0
  -35.9912  -24.8767   24.0010 N   0  3  0  0  0  0  0  0  0  0  0  0
  -20.5763  -16.6691   22.0039 O   0  0  0  0  0  0  0  0  0  0  0  0
  -29.1230  -27.0589   19.5394 O   0  0  0  0  0  0  0  0  0  0  0  0
  -31.9807  -28.7661   21.9911 O   0  0  0  0  0  0  0  0  0  0  0  0
  -34.7029  -24.9100   21.4999 O   0  0  0  0  0  0  0  0  0  0  0  0
  -27.9216  -11.1777   18.4071 O   0  0  0  0  0  0  0  0  0  0  0  0
  -25.3917  -18.6959   27.7737 O   0  0  0  0  0  0  0  0  0  0  0  0
  -31.4815  -13.1769   18.0065 O   0  0  0  0  0  0  0  0  0  0  0  0
  -29.3684  -20.9445   20.0271 O   0  0  0  0  0  0  0  0  0  1  0  0
  -30.5678  -20.5882   27.9498 F   0  0  0  0  0  0  0  0  0  0  0  0
  -25.9063  -21.4089   27.9071 F   0  0  0  0  0  0  0  0  0  0  0  0
  1  2  1  0  0  0  0
  1  5  2  0  0  0  0
  2  6  2  0  0  0  0
  3  8  2  0  0  0  0
  3 16  1  0  0  0  0
  4  9  1  0  0  0  0
  4 16  2  0  0  0  0
  5 18  1  0  0  0  0
  6 20  1  0  0  0  0
  7 10  2  0  0  0  0
  7 19  1  0  0  0  0
  8 26  1  0  0  0  0
  9 26  2  0  0  0  0
 10 27  1  0  0  0  0
 11 12  2  0  0  0  0
 11 28  1  0  0  0  0
 12 30  1  0  0  0  0
 13 21  1  0  0  0  0
 13 27  2  0  0  0  0
 14 22  2  0  0  0  0
 14 29  1  0  0  0  0
 15 30  2  0  0  0  0
 15 31  1  0  0  0  0
 16 32  1  0  0  0  0
 17 32  1  0  0  0  0
 17 33  2  0  0  0  0
 17 34  1  0  0  0  0
 18 20  2  0  0  0  0
 18 39  1  0  0  0  0
 19 21  2  0  0  0  0
 19 40  1  0  0  0  0
 20 48  1  0  0  0  0
 21 41  1  0  0  0  0
 22 24  1  0  0  0  0
 22 51  1  0  0  0  0
 23 24  2  0  0  0  0
 23 25  1  0  0  0  0
 23 62  1  0  0  0  0
 24 66  1  0  0  0  0
 25 29  2  0  0  0  0
 25 63  1  0  0  0  0
 26 87  1  0  0  0  0
 27 89  1  0  0  0  0
 28 31  2  0  0  0  0
 28 87  1  0  0  0  0
 29 88  1  0  0  0  0
 30 90  1  0  0  0  0
 31 91  1  0  0  0  0
 32 72  2  0  0  0  0
 33 73  1  0  0  0  0
 33 76  1  0  0  0  0
 34 77  1  0  0  0  0
 34 82  2  0  0  0  0
 35 49  1  0  0  0  0
 35 78  1  0  0  0  0
 35 83  2  0  0  0  0
 36 67  1  0  0  0  0
 36 74  1  0  0  0  0
 36 84  2  0  0  0  0
 37 68  1  0  0  0  0
 37 79  1  0  0  0  0
 37 85  2  0  0  0  0
 38 75  1  0  0  0  0
 38 80  1  0  0  0  0
 38 86  2  0  0  0  0
 39 42  1  0  0  0  0
 40 49  1  0  0  0  0
 41 74  1  0  0  0  0
 42 44  1  0  0  0  0
 43 45  1  0  0  0  0
 43 46  1  0  0  0  0
 44 48  1  0  0  0  0
 45 50  1  0  0  0  0
 46 75  1  0  0  0  0
 47 50  1  0  0  0  0
 47 75  1  0  0  0  0
 48 78  1  0  0  0  0
 49 74  1  0  0  0  0
 50 73  1  0  0  0  0
 52 66  1  0  0  0  0
 53 66  1  0  0  0  0
 54 68  1  0  0  0  0
 55 69  1  0  0  0  0
 56 70  1  0  0  0  0
 57 71  1  0  0  0  0
 58 71  1  0  0  0  0
 59 71  1  0  0  0  0
 60 81  1  0  0  0  0
 61 88  1  0  0  0  0
 62 64  1  0  0  0  0
 63 70  1  0  0  0  0
 64 69  1  0  0  0  0
 65 69  1  0  0  0  0
 65 89  1  0  0  0  0
 67 71  1  0  0  0  0
 67 79  1  0  0  0  0
 68 81  1  0  0  0  0
 70 80  1  0  0  0  0
 72 73  1  0  0  0  0
M  CHG  1  81   1
M  ISO  4  38 100  65 101  80 100  89 101
M  END
> <Batch ID>
0160

> <Smiles>
CNC(C)C(=O)NC(C(=O)N1Cc2cc([101O:1][101CH2:1]C(C)CCc3c(CC(C)[100NH:0][100C:0](=O)N4CCCC(n5nc(-c6ccc(Oc7ccc(F)cc7F)cc6)c(C(N)=O)c5N)C4)c(OC)cc(C)c3C(C)C)ccc2CC1C(=O)NC1CCCc2ccccc21)C(C)(C)C

> <Shape>
0.221

> <Color>
0.066

> <Negative vol penalty>
0.000

$$$$

  -OEChem-04052322093D

 83 92  0     1  0  0  0  0  0999 V2000
  -17.0990  -30.6082   23.5534 C   0  0  0  0  0  0  0  0  0  0  0  0
  -18.4336  -30.9929   23.4753 C   0  0  0  0  0  0  0  0  0  0  0  0
  -23.1044  -15.1585   22.3510 C   0  0  0  0  0  0  0  0  0  0  0  0
  -25.0707  -14.1661   21.3581 C   0  0  0  0  0  0  0  0  0  0  0  0
  -16.7503  -29.2682   23.3899 C   0  0  0  0  0  0  0  0  0  0  0  0
  -19.4205  -30.0376   23.2349 C   0  0  0  0  0  0  0  0  0  0  0  0
  -25.7628  -29.2555   19.9976 C   0  0  0  0  0  0  0  0  0  0  0  0
  -22.3432  -14.0662   21.9352 C   0  0  0  0  0  0  0  0  0  0  0  0
  -24.3095  -13.0738   20.9423 C   0  0  0  0  0  0  0  0  0  0  0  0
  -27.0566  -28.8057   20.2575 C   0  0  0  0  0  0  0  0  0  0  0  0
  -23.0352  -10.2608   22.3148 C   0  0  0  0  0  0  0  0  0  0  0  0
  -23.5675   -8.9874   22.5167 C   0  0  0  0  0  0  0  0  0  0  0  0
  -30.2622  -24.8220   18.8988 C   0  0  0  0  0  0  0  0  0  0  0  0
  -26.3287  -26.5318   19.9125 C   0  0  0  0  0  0  0  0  0  0  0  0
  -31.0328  -26.5508   17.3675 C   0  0  0  0  0  0  0  0  0  0  0  0
  -23.4910   -8.5782   20.1368 C   0  0  0  0  0  0  0  0  0  0  0  0
  -24.4683  -15.2085   22.0624 C   0  0  0  0  0  0  0  0  0  0  0  0
  -25.9431  -16.4790   23.7111 C   0  0  0  0  0  0  0  0  0  0  0  0
  -17.7324  -28.2974   23.1377 C   0  0  0  0  0  0  0  0  0  0  0  0
  -24.7382  -28.3446   19.7033 C   0  0  0  0  0  0  0  0  0  0  0  0
  -19.0848  -28.6831   23.0692 C   0  0  0  0  0  0  0  0  0  0  0  0
  -30.0774  -23.9888   17.8090 C   0  0  0  0  0  0  0  0  0  0  0  0
  -25.0234  -26.9729   19.6467 C   0  0  0  0  0  0  0  0  0  0  0  0
  -30.7373  -26.1163   18.6701 C   0  0  0  0  0  0  0  0  0  0  0  0
  -30.3724  -24.4271   16.5256 C   0  0  0  0  0  0  0  0  0  0  0  0
  -22.9456  -13.0238   21.2309 C   0  0  0  0  0  0  0  0  0  0  0  0
  -27.3391  -27.4434   20.2179 C   0  0  0  0  0  0  0  0  0  0  0  0
  -22.7308  -10.6929   21.0240 C   0  0  0  0  0  0  0  0  0  0  0  0
  -23.7954   -8.1461   21.4277 C   0  0  0  0  0  0  0  0  0  0  0  0
  -22.9587   -9.8516   19.9350 C   0  0  0  0  0  0  0  0  0  0  0  0
  -30.8554  -25.6976   16.2772 C   0  0  0  0  0  0  0  0  0  0  0  0
  -25.2551  -16.3368   22.4912 C   0  0  0  0  0  0  0  0  0  0  0  0
  -26.5297  -17.7184   23.6320 C   0  0  0  0  0  0  0  0  0  0  0  0
  -26.0431  -15.5718   24.8169 C   0  0  0  0  0  0  0  0  0  0  0  0
  -21.9794  -27.5534   21.0697 C   0  0  0  0  0  0  0  0  0  0  0  0
  -21.6220  -25.7472   18.3991 C   0  0  0  0  0  0  0  0  0  0  0  0
  -23.0930  -24.0999   15.7973 C   0  0  0  0  0  0  0  0  0  0  0  0
  -28.2262  -20.9796   19.0123 C   0  0  0  0  0  0  0  0  0  0  0  0
  -17.3120  -26.8542   23.0149 C   0  0  0  0  0  0  0  0  0  0  0  0
  -23.3538  -28.8479   19.3990 C   0  0  0  0  0  0  0  0  0  0  0  0
  -23.9633  -25.9555   19.3157 C   0  0  0  0  0  0  0  0  0  0  0  0
  -18.3799  -25.9596   22.3907 C   0  0  0  0  0  0  0  0  0  0  0  0
  -25.9390  -22.0194   21.6170 C   0  0  0  0  0  0  0  0  0  0  0  0
  -19.7406  -26.2309   23.0244 C   0  0  0  0  0  0  0  0  0  0  0  0
  -25.5717  -20.6773   22.2528 C   0  0  0  0  0  0  0  0  0  0  0  0
  -26.0887  -21.8917   20.1039 C   0  0  0  0  0  0  0  0  0  0  0  0
  -26.7001  -19.5124   20.3010 C   0  0  0  0  0  0  0  0  0  0  0  0
  -29.4059  -22.4463   16.2442 C   0  0  0  0  0  0  0  0  0  0  0  0
  -20.1816  -27.6799   22.7852 C   0  0  1  0  0  0  0  0  0  0  0  0
  -29.6559  -22.5684   17.7519 C   0  0  2  0  0  0  0  0  0  0  0  0
  -22.2734  -27.7929   19.6158 C   0  0  1  0  0  0  0  0  0  0  0  0
  -26.5564  -19.5701   21.8327 C   0  0  2  0  0  0  0  0  0  0  0  0
  -22.5440  -22.6840   13.7995 C   0  0  0  0  0  0  0  0  0  0  0  0
  -21.1177  -23.3606   20.2321 C   0  0  0  0  0  0  0  0  0  0  0  0
  -21.5225  -21.8577   18.2711 C   0  0  0  0  0  0  0  0  0  0  0  0
  -19.6222  -23.4732   18.2308 C   0  0  0  0  0  0  0  0  0  0  0  0
  -24.2744  -26.0700   13.9313 C   0  0  0  0  0  0  0  0  0  0  0  0
  -30.9292  -27.0590   19.8332 C   0  0  0  0  0  0  0  0  0  0  0  0
  -29.6761  -27.8754   20.1304 C   0  0  0  0  0  0  0  0  0  1  0  0
  -21.9879  -24.3364   18.0058 C   0  0  1  0  0  0  0  0  0  0  0  0
  -22.7926  -24.0951   14.3093 C   0  0  2  0  0  0  0  0  0  0  0  0
  -21.0824  -23.2758   18.6931 C   0  0  0  0  0  0  0  0  0  0  0  0
  -25.3909  -17.4010   21.6955 N   0  0  0  0  0  0  0  0  0  0  0  0
  -26.1711  -18.2237   22.4170 N   0  0  0  0  0  0  0  0  0  0  0  0
  -22.6239  -26.4966   19.0319 N   0  0  0  0  0  0  0  0  0  0  0  0
  -27.0534  -20.8338   19.7716 N   0  0  0  0  0  0  0  0  0  0  0  0
  -27.3121  -18.4144   24.4840 N   0  0  0  0  0  0  0  0  0  0  0  0
  -25.3786  -14.3407   24.7332 N   0  0  0  0  0  0  0  0  0  0  0  0
  -20.6782  -27.8408   21.4354 N   0  0  0  0  0  0  0  0  0  0  0  0
  -21.9532  -24.2971   16.5478 N   0  0  0  0  0  0  0  0  0  0  0  0
  -28.4846  -22.2614   18.5422 N   0  0  0  0  0  0  0  0  0  0  0  0
  -23.9351  -24.6752   13.5483 N   0  3  0  0  0  0  0  0  0  0  0  0
  -26.6887  -15.8517   25.8553 O   0  0  0  0  0  0  0  0  0  0  0  0
  -22.8670  -27.1373   21.8050 O   0  0  0  0  0  0  0  0  0  0  0  0
  -20.4912  -26.1712   18.1476 O   0  0  0  0  0  0  0  0  0  0  0  0
  -24.2249  -23.9407   16.2489 O   0  0  0  0  0  0  0  0  0  0  0  0
  -28.9901  -20.0376   18.7750 O   0  0  0  0  0  0  0  0  0  0  0  0
  -30.1585  -23.4773   15.5588 O   0  0  0  0  0  0  0  0  0  0  0  0
  -22.2031  -11.9577   20.8252 O   0  0  0  0  0  0  0  0  0  0  0  0
  -28.6009  -27.0016   20.4719 O   0  0  0  0  0  0  0  0  0  1  0  0
  -24.3080   -6.9239   21.6215 F   0  0  0  0  0  0  0  0  0  0  0  0
  -22.6693  -10.2616   18.6924 F   0  0  0  0  0  0  0  0  0  0  0  0
  -31.2374  -26.2247   14.6884 Cl  0  0  0  0  0  0  0  0  0  0  0  0
  1  2  1  0  0  0  0
  1  5  2  0  0  0  0
  2  6  2  0  0  0  0
  3  8  2  0  0  0  0
  3 17  1  0  0  0  0
  4  9  1  0  0  0  0
  4 17  2  0  0  0  0
  5 19  1  0  0  0  0
  6 21  1  0  0  0  0
  7 10  2  0  0  0  0
  7 20  1  0  0  0  0
  8 26  1  0  0  0  0
  9 26  2  0  0  0  0
 10 27  1  0  0  0  0
 11 12  2  0  0  0  0
 11 28  1  0  0  0  0
 12 29  1  0  0  0  0
 13 22  1  0  0  0  0
 13 24  2  0  0  0  0
 14 23  1  0  0  0  0
 14 27  2  0  0  0  0
 15 24  1  0  0  0  0
 15 31  2  0  0  0  0
 16 29  2  0  0  0  0
 16 30  1  0  0  0  0
 17 32  1  0  0  0  0
 18 32  1  0  0  0  0
 18 33  2  0  0  0  0
 18 34  1  0  0  0  0
 19 21  2  0  0  0  0
 19 39  1  0  0  0  0
 20 23  2  0  0  0  0
 20 40  1  0  0  0  0
 21 49  1  0  0  0  0
 22 25  2  0  0  0  0
 22 50  1  0  0  0  0
 23 41  1  0  0  0  0
 24 58  1  0  0  0  0
 25 31  1  0  0  0  0
 25 78  1  0  0  0  0
 26 79  1  0  0  0  0
 27 80  1  0  0  0  0
 28 30  2  0  0  0  0
 28 79  1  0  0  0  0
 29 81  1  0  0  0  0
 30 82  1  0  0  0  0
 31 83  1  0  0  0  0
 32 63  2  0  0  0  0
 33 64  1  0  0  0  0
 33 67  1  0  0  0  0
 34 68  1  0  0  0  0
 34 73  2  0  0  0  0
 35 51  1  0  0  0  0
 35 69  1  0  0  0  0
 35 74  2  0  0  0  0
 36 60  1  0  0  0  0
 36 65  1  0  0  0  0
 36 75  2  0  0  0  0
 37 61  1  0  0  0  0
 37 70  1  0  0  0  0
 37 76  2  0  0  0  0
 38 66  1  0  0  0  0
 38 71  1  0  0  0  0
 38 77  2  0  0  0  0
 39 42  1  0  0  0  0
 40 51  1  0  0  0  0
 41 65  1  0  0  0  0
 42 44  1  0  0  0  0
 43 45  1  0  0  0  0
 43 46  1  0  0  0  0
 44 49  1  0  0  0  0
 45 52  1  0  0  0  0
 46 66  1  0  0  0  0
 47 52  1  0  0  0  0
 47 66  1  0  0  0  0
 48 50  1  0  0  0  0
 48 78  1  0  0  0  0
 49 69  1  0  0  0  0
 50 71  1  0  0  0  0
 51 65  1  0  0  0  0
 52 64  1  0  0  0  0
 53 61  1  0  0  0  0
 54 62  1  0  0  0  0
 55 62  1  0  0  0  0
 56 62  1  0  0  0  0
 57 72  1  0  0  0  0
 58 59  1  0  0  0  0
 59 80  1  0  0  0  0
 60 62  1  0  0  0  0
 60 70  1  0  0  0  0
 61 72  1  0  0  0  0
 63 64  1  0  0  0  0
M  CHG  1  72   1
M  ISO  4  38 100  59 101  71 100  80 101
M  END
> <Batch ID>
0160

> <Smiles>
CNC(C)C(=O)NC(C(=O)N1Cc2cc([101O:1][101CH2:1]Cc3cc(Cl)c4c(c3)C([100NH:0][100C:0](=O)N3CCCC(n5nc(-c6ccc(Oc7ccc(F)cc7F)cc6)c(C(N)=O)c5N)C3)CO4)ccc2CC1C(=O)NC1CCCc2ccccc21)C(C)(C)C

> <Shape>
0.241

> <Color>
0.081

> <Negative vol penalty>
0.000

$$$$

  -OEChem-04052322093D

 87 96  0     1  0  0  0  0  0999 V2000
  -15.9834  -26.6086   24.5755 C   0  0  0  0  0  0  0  0  0  0  0  0
  -17.0297  -26.1734   23.7686 C   0  0  0  0  0  0  0  0  0  0  0  0
  -24.7845   -8.4387   21.4482 C   0  0  0  0  0  0  0  0  0  0  0  0
  -23.2543  -10.2089   20.8465 C   0  0  0  0  0  0  0  0  0  0  0  0
  -15.8000  -27.9720   24.8022 C   0  0  0  0  0  0  0  0  0  0  0  0
  -17.8927  -27.1014   23.1869 C   0  0  0  0  0  0  0  0  0  0  0  0
  -22.7563  -25.7483   23.5864 C   0  0  0  0  0  0  0  0  0  0  0  0
  -23.8440   -7.9302   22.3440 C   0  0  0  0  0  0  0  0  0  0  0  0
  -22.3138   -9.7003   21.7423 C   0  0  0  0  0  0  0  0  0  0  0  0
  -23.2207  -24.7741   22.7038 C   0  0  0  0  0  0  0  0  0  0  0  0
  -21.0292   -6.0618   22.2068 C   0  0  0  0  0  0  0  0  0  0  0  0
  -20.8120   -4.6840   22.2060 C   0  0  0  0  0  0  0  0  0  0  0  0
  -25.6749  -19.0980   18.4356 C   0  0  0  0  0  0  0  0  0  0  0  0
  -24.1968  -26.4966   21.3256 C   0  0  0  0  0  0  0  0  0  0  0  0
  -28.3039  -18.4917   19.1450 C   0  0  0  0  0  0  0  0  0  0  0  0
  -21.4888   -4.5760   24.5228 C   0  0  0  0  0  0  0  0  0  0  0  0
  -24.4897   -9.5781   20.6995 C   0  0  0  0  0  0  0  0  0  0  0  0
  -25.6083   -9.7698   18.4148 C   0  0  0  0  0  0  0  0  0  0  0  0
  -16.6670  -28.9168   24.2308 C   0  0  0  0  0  0  0  0  0  0  0  0
  -22.9996  -27.1070   23.3391 C   0  0  0  0  0  0  0  0  0  0  0  0
  -17.7199  -28.4789   23.4050 C   0  0  0  0  0  0  0  0  0  0  0  0
  -26.0207  -17.7912   18.7796 C   0  0  0  0  0  0  0  0  0  0  0  0
  -23.7366  -27.4859   22.2079 C   0  0  0  0  0  0  0  0  0  0  0  0
  -26.6436  -20.1016   18.4461 C   0  0  0  0  0  0  0  0  0  0  0  0
  -27.3352  -17.4881   19.1344 C   0  0  0  0  0  0  0  0  0  0  0  0
  -22.6087   -8.5609   22.4911 C   0  0  0  0  0  0  0  0  0  0  0  0
  -23.9386  -25.1483   21.5717 C   0  0  0  0  0  0  0  0  0  0  0  0
  -21.4762   -6.6968   23.3655 C   0  0  0  0  0  0  0  0  0  0  0  0
  -27.9581  -19.7985   18.8008 C   0  0  0  0  0  0  0  0  0  0  0  0
  -21.0418   -3.9411   23.3640 C   0  0  0  0  0  0  0  0  0  0  0  0
  -21.7060   -5.9539   24.5235 C   0  0  0  0  0  0  0  0  0  0  0  0
  -25.4610  -10.1042   19.7743 C   0  0  0  0  0  0  0  0  0  0  0  0
  -26.6634  -10.5368   17.9849 C   0  0  0  0  0  0  0  0  0  0  0  0
  -24.8584   -8.8482   17.6123 C   0  0  0  0  0  0  0  0  0  0  0  0
  -21.1720  -29.6524   22.8059 C   0  0  0  0  0  0  0  0  0  0  0  0
  -24.0032  -31.2295   22.9447 C   0  0  0  0  0  0  0  0  0  0  0  0
  -27.3989  -31.1210   22.6217 C   0  0  0  0  0  0  0  0  0  0  0  0
  -28.9745  -15.7183   19.8603 C   0  0  0  0  0  0  0  0  0  0  0  0
  -16.4004  -30.3824   24.4662 C   0  0  0  0  0  0  0  0  0  0  0  0
  -22.5149  -28.1439   24.3149 C   0  0  0  0  0  0  0  0  0  0  0  0
  -24.0421  -28.9299   21.9076 C   0  0  0  0  0  0  0  0  0  0  0  0
  -17.5841  -31.2807   24.1164 C   0  0  0  0  0  0  0  0  0  0  0  0
  -30.6801  -12.6063   19.5717 C   0  0  0  0  0  0  0  0  0  0  0  0
  -25.1843  -15.4995   17.9299 C   0  0  0  0  0  0  0  0  0  0  0  0
  -24.1745  -16.5161   17.4976 C   0  0  0  0  0  0  0  0  0  0  0  0
  -18.1655  -30.8937   22.7603 C   0  0  0  0  0  0  0  0  0  0  0  0
  -29.5488  -11.5816   19.4610 C   0  0  0  0  0  0  0  0  0  0  0  0
  -30.3248  -13.7424   20.5292 C   0  0  0  0  0  0  0  0  0  0  0  0
  -27.9181  -13.3897   20.1385 C   0  0  0  0  0  0  0  0  0  0  0  0
  -24.9641  -16.7354   18.7599 C   0  0  0  0  0  0  0  0  0  0  0  0
  -18.6920  -29.4536   22.7764 C   0  0  1  0  0  0  0  0  0  0  0  0
  -22.3778  -29.5307   23.6941 C   0  0  1  0  0  0  0  0  0  0  0  0
  -28.2038  -12.2602   19.1353 C   0  0  2  0  0  0  0  0  0  0  0  0
  -25.6680  -21.6053   16.6628 C   0  0  0  0  0  0  0  0  0  0  0  0
  -29.4383  -32.5768   22.7593 C   0  0  0  0  0  0  0  0  0  0  0  0
  -23.3185  -32.4414   20.2295 C   0  0  0  0  0  0  0  0  0  0  0  0
  -25.7238  -33.0945   19.9924 C   0  0  0  0  0  0  0  0  0  0  0  0
  -24.3548  -34.0370   21.8526 C   0  0  0  0  0  0  0  0  0  0  0  0
  -28.5429  -29.5094   24.8246 C   0  0  0  0  0  0  0  0  0  0  0  0
  -30.2336  -20.3690   19.1912 C   0  0  0  0  0  0  0  0  0  0  0  0
  -25.7712  -22.2524   20.4074 C   0  0  0  0  0  0  0  0  0  0  0  0
  -24.7072  -22.9200   21.2561 C   0  0  0  0  0  0  0  0  0  1  0  0
  -26.2510  -21.5119   18.0707 C   0  0  1  0  0  0  0  0  0  0  0  0
  -25.0643  -31.6119   21.9413 C   0  0  1  0  0  0  0  0  0  0  0  0
  -28.5127  -31.6362   23.5152 C   0  0  2  0  0  0  0  0  0  0  0  0
  -24.6081  -32.7690   21.0083 C   0  0  0  0  0  0  0  0  0  0  0  0
  -26.3514  -11.0128   20.1812 N   0  0  0  0  0  0  0  0  0  0  0  0
  -27.0684  -11.2558   19.0709 N   0  0  0  0  0  0  0  0  0  0  0  0
  -23.5413  -29.9069   22.8885 N   0  0  0  0  0  0  0  0  0  0  0  0
  -29.0409  -14.3403   20.1564 N   0  0  0  0  0  0  0  0  0  0  0  0
  -27.2751  -10.6597   16.7878 N   0  0  0  0  0  0  0  0  0  0  0  0
  -23.8068   -8.1420   18.2122 N   0  0  0  0  0  0  0  0  0  0  0  0
  -27.7082  -16.1674   19.4869 N   0  0  0  0  0  0  0  0  0  0  0  0
  -19.9744  -29.3918   23.4442 N   0  0  0  0  0  0  0  0  0  0  0  0
  -26.2681  -31.9048   22.7117 N   0  0  0  0  0  0  0  0  0  0  0  0
  -29.3229  -30.5008   24.0400 N   0  3  0  0  0  0  0  0  0  0  0  0
  -25.2693  -22.1061   19.0178 N   0  3  0  0  0  0  0  0  0  0  0  0
  -25.1238   -8.6444   16.4034 O   0  0  0  0  0  0  0  0  0  0  0  0
  -21.3172  -29.9614   21.6290 O   0  0  0  0  0  0  0  0  0  0  0  0
  -23.6043  -32.0712   23.7534 O   0  0  0  0  0  0  0  0  0  0  0  0
  -27.5212  -30.1252   21.9118 O   0  0  0  0  0  0  0  0  0  0  0  0
  -29.9733  -16.4408   19.9063 O   0  0  0  0  0  0  0  0  0  0  0  0
  -21.6906   -8.0649   23.3649 O   0  0  0  0  0  0  0  0  0  0  0  0
  -28.9164  -20.7670   18.8165 O   0  0  0  0  0  0  0  0  0  0  0  0
  -24.3925  -24.1995   20.7082 O   0  0  0  0  0  0  0  0  0  1  0  0
  -20.8318   -2.6182   23.3636 F   0  0  0  0  0  0  0  0  0  0  0  0
  -22.1344   -6.5585   25.6401 F   0  0  0  0  0  0  0  0  0  0  0  0
  1  2  1  0  0  0  0
  1  5  2  0  0  0  0
  2  6  2  0  0  0  0
  3  8  2  0  0  0  0
  3 17  1  0  0  0  0
  4  9  1  0  0  0  0
  4 17  2  0  0  0  0
  5 19  1  0  0  0  0
  6 21  1  0  0  0  0
  7 10  2  0  0  0  0
  7 20  1  0  0  0  0
  8 26  1  0  0  0  0
  9 26  2  0  0  0  0
 10 27  1  0  0  0  0
 11 12  2  0  0  0  0
 11 28  1  0  0  0  0
 12 30  1  0  0  0  0
 13 22  2  0  0  0  0
 13 24  1  0  0  0  0
 14 23  1  0  0  0  0
 14 27  2  0  0  0  0
 15 25  2  0  0  0  0
 15 29  1  0  0  0  0
 16 30  2  0  0  0  0
 16 31  1  0  0  0  0
 17 32  1  0  0  0  0
 18 32  1  0  0  0  0
 18 33  2  0  0  0  0
 18 34  1  0  0  0  0
 19 21  2  0  0  0  0
 19 39  1  0  0  0  0
 20 23  2  0  0  0  0
 20 40  1  0  0  0  0
 21 51  1  0  0  0  0
 22 25  1  0  0  0  0
 22 50  1  0  0  0  0
 23 41  1  0  0  0  0
 24 29  2  0  0  0  0
 24 63  1  0  0  0  0
 25 73  1  0  0  0  0
 26 83  1  0  0  0  0
 27 85  1  0  0  0  0
 28 31  2  0  0  0  0
 28 83  1  0  0  0  0
 29 84  1  0  0  0  0
 30 86  1  0  0  0  0
 31 87  1  0  0  0  0
 32 67  2  0  0  0  0
 33 68  1  0  0  0  0
 33 71  1  0  0  0  0
 34 72  1  0  0  0  0
 34 78  2  0  0  0  0
 35 52  1  0  0  0  0
 35 74  1  0  0  0  0
 35 79  2  0  0  0  0
 36 64  1  0  0  0  0
 36 69  1  0  0  0  0
 36 80  2  0  0  0  0
 37 65  1  0  0  0  0
 37 75  1  0  0  0  0
 37 81  2  0  0  0  0
 38 70  1  0  0  0  0
 38 73  1  0  0  0  0
 38 82  2  0  0  0  0
 39 42  1  0  0  0  0
 40 52  1  0  0  0  0
 41 69  1  0  0  0  0
 42 46  1  0  0  0  0
 43 47  1  0  0  0  0
 43 48  1  0  0  0  0
 44 45  1  0  0  0  0
 44 50  1  0  0  0  0
 45 50  1  0  0  0  0
 46 51  1  0  0  0  0
 47 53  1  0  0  0  0
 48 70  1  0  0  0  0
 49 53  1  0  0  0  0
 49 70  1  0  0  0  0
 51 74  1  0  0  0  0
 52 69  1  0  0  0  0
 53 68  1  0  0  0  0
 54 63  1  0  0  0  0
 55 65  1  0  0  0  0
 56 66  1  0  0  0  0
 57 66  1  0  0  0  0
 58 66  1  0  0  0  0
 59 76  1  0  0  0  0
 60 84  1  0  0  0  0
 61 62  1  0  0  0  0
 61 77  1  0  0  0  0
 62 85  1  0  0  0  0
 63 77  1  0  0  0  0
 64 66  1  0  0  0  0
 64 75  1  0  0  0  0
 65 76  1  0  0  0  0
 67 68  1  0  0  0  0
M  CHG  2  76   1  77   1
M  ISO  4  38 100  62 101  73 100  85 101
M  END
> <Batch ID>
0160

> <Smiles>
CNC(C)C(=O)NC(C(=O)N1Cc2cc([101O:1][101CH2:1]CNC(C)c3cc(C4CC4)c([100NH:0][100C:0](=O)N4CCCC(n5nc(-c6ccc(Oc7ccc(F)cc7F)cc6)c(C(N)=O)c5N)C4)cc3OC)ccc2CC1C(=O)NC1CCCc2ccccc21)C(C)(C)C

> <Shape>
0.263

> <Color>
0.095

> <Negative vol penalty>
0.000

$$$$

  -OEChem-04052322093D

 84 92  0     1  0  0  0  0  0999 V2000
  -43.6170  -23.3715   25.0047 C   0  0  0  0  0  0  0  0  0  0  0  0
  -42.2344  -23.4773   25.1177 C   0  0  0  0  0  0  0  0  0  0  0  0
  -23.0775   -9.8655   19.9417 C   0  0  0  0  0  0  0  0  0  0  0  0
  -23.8350   -9.8752   22.2359 C   0  0  0  0  0  0  0  0  0  0  0  0
  -44.1988  -22.1398   24.7078 C   0  0  0  0  0  0  0  0  0  0  0  0
  -41.4328  -22.3514   24.9327 C   0  0  0  0  0  0  0  0  0  0  0  0
  -36.2039  -21.0376   27.8377 C   0  0  0  0  0  0  0  0  0  0  0  0
  -22.3339   -8.7123   20.1921 C   0  0  0  0  0  0  0  0  0  0  0  0
  -23.0913   -8.7220   22.4863 C   0  0  0  0  0  0  0  0  0  0  0  0
  -34.8661  -21.1982   27.4797 C   0  0  0  0  0  0  0  0  0  0  0  0
  -19.8629   -7.9234   23.0863 C   0  0  0  0  0  0  0  0  0  0  0  0
  -19.1048   -7.8843   24.2564 C   0  0  0  0  0  0  0  0  0  0  0  0
  -34.8029  -18.9116   26.7137 C   0  0  0  0  0  0  0  0  0  0  0  0
  -20.3463   -5.9482   24.9962 C   0  0  0  0  0  0  0  0  0  0  0  0
  -30.6519  -19.2264   20.8517 C   0  0  0  0  0  0  0  0  0  0  0  0
  -23.8281  -10.4469   20.9636 C   0  0  0  0  0  0  0  0  0  0  0  0
  -24.1689  -12.9721   20.8413 C   0  0  0  0  0  0  0  0  0  0  0  0
  -43.4045  -20.9963   24.5286 C   0  0  0  0  0  0  0  0  0  0  0  0
  -36.8555  -19.8141   27.6260 C   0  0  0  0  0  0  0  0  0  0  0  0
  -42.0044  -21.1035   24.6318 C   0  0  0  0  0  0  0  0  0  0  0  0
  -36.1483  -18.7373   27.0722 C   0  0  0  0  0  0  0  0  0  0  0  0
  -30.6006  -17.9309   20.3867 C   0  0  0  0  0  0  0  0  0  0  0  0
  -30.2478  -17.1025   21.4805 C   0  0  0  0  0  0  0  0  0  0  0  0
  -22.3407   -8.1405   21.4644 C   0  0  0  0  0  0  0  0  0  0  0  0
  -34.1662  -20.1360   26.9149 C   0  0  0  0  0  0  0  0  0  0  0  0
  -20.8627   -6.9748   22.8710 C   0  0  0  0  0  0  0  0  0  0  0  0
  -19.3464   -6.8967   25.2114 C   0  0  0  0  0  0  0  0  0  0  0  0
  -21.1044   -5.9872   23.8260 C   0  0  0  0  0  0  0  0  0  0  0  0
  -24.5969  -11.6379   20.7054 C   0  0  0  0  0  0  0  0  0  0  0  0
  -30.0940  -17.9170   22.5806 C   0  0  0  0  0  0  0  0  0  0  0  0
  -25.2611  -13.7217   20.4784 C   0  0  0  0  0  0  0  0  0  0  0  0
  -22.8978  -13.4878   21.2584 C   0  0  0  0  0  0  0  0  0  0  0  0
  -39.3434  -18.8688   25.8881 C   0  0  0  0  0  0  0  0  0  0  0  0
  -38.8516  -16.0548   27.4248 C   0  0  0  0  0  0  0  0  0  0  0  0
  -36.6906  -13.9972   29.0810 C   0  0  0  0  0  0  0  0  0  0  0  0
  -30.7266  -14.7701   20.6576 C   0  0  0  0  0  0  0  0  0  0  0  0
  -44.0757  -19.6963   24.1623 C   0  0  0  0  0  0  0  0  0  0  0  0
  -38.2914  -19.6489   28.0423 C   0  0  0  0  0  0  0  0  0  0  0  0
  -36.7961  -17.3971   26.8430 C   0  0  0  0  0  0  0  0  0  0  0  0
  -43.1805  -18.4743   24.3508 C   0  0  0  0  0  0  0  0  0  0  0  0
  -29.6158  -12.3531   18.2908 C   0  0  0  0  0  0  0  0  0  0  0  0
  -41.7981  -18.7286   23.7581 C   0  0  0  0  0  0  0  0  0  0  0  0
  -28.1758  -12.0613   18.7192 C   0  0  0  0  0  0  0  0  0  0  0  0
  -30.5295  -12.5837   19.4932 C   0  0  0  0  0  0  0  0  0  0  0  0
  -28.6208  -13.3088   20.8716 C   0  0  0  0  0  0  0  0  0  0  0  0
  -41.1028  -19.8999   24.4625 C   0  0  1  0  0  0  0  0  0  0  0  0
  -38.9999  -18.5152   27.3074 C   0  0  1  0  0  0  0  0  0  0  0  0
  -27.6493  -13.1337   19.6930 C   0  0  2  0  0  0  0  0  0  0  0  0
  -30.8675  -17.4992   18.9998 C   0  0  0  0  0  0  0  0  0  0  0  0
  -29.7322  -17.5829   23.9752 C   0  0  0  0  0  0  0  0  0  0  0  0
  -36.5681  -11.7467   30.1845 C   0  0  0  0  0  0  0  0  0  0  0  0
  -30.8017  -22.9200   24.8190 C   0  0  0  0  0  0  0  0  0  0  0  0
  -38.7538  -14.7186   24.6834 C   0  0  0  0  0  0  0  0  0  0  0  0
  -37.7071  -12.7214   25.7715 C   0  0  0  0  0  0  0  0  0  0  0  0
  -40.0063  -13.4342   26.4258 C   0  0  0  0  0  0  0  0  0  0  0  0
  -36.0147  -15.1909   31.7034 C   0  0  0  0  0  0  0  0  0  0  0  0
  -30.2873  -20.4293   23.0719 C   0  0  0  0  0  0  0  0  0  0  0  0
  -32.4440  -21.5967   26.1688 C   0  0  0  0  0  0  0  0  0  1  0  0
  -38.0232  -14.8213   27.1576 C   0  0  1  0  0  0  0  0  0  0  0  0
  -36.8278  -13.2317   30.3847 C   0  0  2  0  0  0  0  0  0  0  0  0
  -31.2471  -21.5059   25.2071 C   0  0  2  0  0  0  0  0  0  0  0  0
  -31.5112  -20.5726   23.9949 C   0  0  2  0  0  0  0  0  0  0  0  0
  -38.6106  -13.9496   26.0120 C   0  0  0  0  0  0  0  0  0  0  0  0
  -25.8622  -11.5422   20.2885 N   0  0  0  0  0  0  0  0  0  0  0  0
  -30.3418  -19.2060   22.1865 N   0  0  0  0  0  0  0  0  0  0  0  0
  -26.2387  -12.8258   20.1593 N   0  0  0  0  0  0  0  0  0  0  0  0
  -38.2036  -17.2872   27.2608 N   0  0  0  0  0  0  0  0  0  0  0  0
  -29.9692  -13.6152   20.3688 N   0  0  0  0  0  0  0  0  0  0  0  0
  -25.4710  -15.0532   20.4042 N   0  0  0  0  0  0  0  0  0  0  0  0
  -21.8859  -12.5785   21.5955 N   0  0  0  0  0  0  0  0  0  0  0  0
  -30.0779  -15.6957   21.4743 N   0  0  0  0  0  0  0  0  0  0  0  0
  -40.5749  -19.4785   25.7424 N   0  0  0  0  0  0  0  0  0  0  0  0
  -37.9017  -14.1267   28.4348 N   0  0  0  0  0  0  0  0  0  0  0  0
  -32.6614  -21.0797   23.1873 N   0  3  0  0  0  0  0  0  0  0  0  0
  -35.8581  -13.7467   31.3923 N   0  3  0  0  0  0  0  0  0  0  0  0
  -22.6609  -14.7184   21.3142 O   0  0  0  0  0  0  0  0  0  0  0  0
  -38.5505  -18.6066   24.9913 O   0  0  0  0  0  0  0  0  0  0  0  0
  -40.0282  -15.9292   27.7732 O   0  0  0  0  0  0  0  0  0  0  0  0
  -35.6157  -14.4332   28.6745 O   0  0  0  0  0  0  0  0  0  0  0  0
  -31.8561  -14.9388   20.1910 O   0  0  0  0  0  0  0  0  0  0  0  0
  -21.6150   -7.0153   21.7091 O   0  0  0  0  0  0  0  0  0  0  0  0
  -32.8604  -20.2902   26.5639 O   0  0  0  0  0  0  0  0  0  1  0  0
  -18.6194   -6.8603   26.3358 F   0  0  0  0  0  0  0  0  0  0  0  0
  -22.0643   -5.0739   23.6253 F   0  0  0  0  0  0  0  0  0  0  0  0
  1  2  1  0  0  0  0
  1  5  2  0  0  0  0
  2  6  2  0  0  0  0
  3  8  2  0  0  0  0
  3 16  1  0  0  0  0
  4  9  1  0  0  0  0
  4 16  2  0  0  0  0
  5 18  1  0  0  0  0
  6 20  1  0  0  0  0
  7 10  2  0  0  0  0
  7 19  1  0  0  0  0
  8 24  1  0  0  0  0
  9 24  2  0  0  0  0
 10 25  1  0  0  0  0
 11 12  2  0  0  0  0
 11 26  1  0  0  0  0
 12 27  1  0  0  0  0
 13 21  1  0  0  0  0
 13 25  2  0  0  0  0
 14 27  2  0  0  0  0
 14 28  1  0  0  0  0
 15 22  2  0  0  0  0
 15 65  1  0  0  0  0
 16 29  1  0  0  0  0
 17 29  1  0  0  0  0
 17 31  2  0  0  0  0
 17 32  1  0  0  0  0
 18 20  2  0  0  0  0
 18 37  1  0  0  0  0
 19 21  2  0  0  0  0
 19 38  1  0  0  0  0
 20 46  1  0  0  0  0
 21 39  1  0  0  0  0
 22 23  1  0  0  0  0
 22 49  1  0  0  0  0
 23 30  2  0  0  0  0
 23 71  1  0  0  0  0
 24 81  1  0  0  0  0
 25 82  1  0  0  0  0
 26 28  2  0  0  0  0
 26 81  1  0  0  0  0
 27 83  1  0  0  0  0
 28 84  1  0  0  0  0
 29 64  2  0  0  0  0
 30 50  1  0  0  0  0
 30 65  1  0  0  0  0
 31 66  1  0  0  0  0
 31 69  1  0  0  0  0
 32 70  1  0  0  0  0
 32 76  2  0  0  0  0
 33 47  1  0  0  0  0
 33 72  1  0  0  0  0
 33 77  2  0  0  0  0
 34 59  1  0  0  0  0
 34 67  1  0  0  0  0
 34 78  2  0  0  0  0
 35 60  1  0  0  0  0
 35 73  1  0  0  0  0
 35 79  2  0  0  0  0
 36 68  1  0  0  0  0
 36 71  1  0  0  0  0
 36 80  2  0  0  0  0
 37 40  1  0  0  0  0
 38 47  1  0  0  0  0
 39 67  1  0  0  0  0
 40 42  1  0  0  0  0
 41 43  1  0  0  0  0
 41 44  1  0  0  0  0
 42 46  1  0  0  0  0
 43 48  1  0  0  0  0
 44 68  1  0  0  0  0
 45 48  1  0  0  0  0
 45 68  1  0  0  0  0
 46 72  1  0  0  0  0
 47 67  1  0  0  0  0
 48 66  1  0  0  0  0
 51 60  1  0  0  0  0
 52 61  1  0  0  0  0
 53 63  1  0  0  0  0
 54 63  1  0  0  0  0
 55 63  1  0  0  0  0
 56 75  1  0  0  0  0
 57 62  1  0  0  0  0
 57 65  1  0  0  0  0
 58 61  1  0  0  0  0
 58 82  1  0  0  0  0
 59 63  1  0  0  0  0
 59 73  1  0  0  0  0
 60 75  1  0  0  0  0
 61 62  1  0  0  0  0
 62 74  1  0  0  0  0
 64 66  1  0  0  0  0
M  CHG  2  74   1  75   1
M  ISO  4  36 100  58 101  71 100  82 101
M  END
> <Batch ID>
0160

> <Smiles>
CNC(C)C(=O)NC(C(=O)N1Cc2cc([101O:1][101CH2:1]C(C)C(N)Cn3cc(C)c([100NH:0][100C:0](=O)N4CCCC(n5nc(-c6ccc(Oc7ccc(F)cc7F)cc6)c(C(N)=O)c5N)C4)c3C)ccc2CC1C(=O)NC1CCCc2ccccc21)C(C)(C)C

> <Shape>
0.179

> <Color>
0.188

> <Negative vol penalty>
0.000

$$$$

  -OEChem-04052322093D

 91100  0     1  0  0  0  0  0999 V2000
  -28.0415  -33.1944   27.5576 C   0  0  0  0  0  0  0  0  0  0  0  0
  -28.3679  -32.2765   26.5644 C   0  0  0  0  0  0  0  0  0  0  0  0
  -24.7738   -7.2101   17.3100 C   0  0  0  0  0  0  0  0  0  0  0  0
  -25.9763   -5.7725   18.8346 C   0  0  0  0  0  0  0  0  0  0  0  0
  -26.7159  -33.3364   27.9655 C   0  0  0  0  0  0  0  0  0  0  0  0
  -27.3689  -31.4993   25.9793 C   0  0  0  0  0  0  0  0  0  0  0  0
  -27.1005  -29.6229   20.1558 C   0  0  0  0  0  0  0  0  0  0  0  0
  -25.0789   -6.3483   16.2566 C   0  0  0  0  0  0  0  0  0  0  0  0
  -26.2814   -4.9106   17.7811 C   0  0  0  0  0  0  0  0  0  0  0  0
  -27.4387  -28.4176   19.5422 C   0  0  0  0  0  0  0  0  0  0  0  0
  -24.7224   -2.4856   16.0177 C   0  0  0  0  0  0  0  0  0  0  0  0
  -24.5644   -1.1170   16.2356 C   0  0  0  0  0  0  0  0  0  0  0  0
  -25.1385  -27.7054   19.6872 C   0  0  0  0  0  0  0  0  0  0  0  0
  -26.9116   -0.7732   15.7777 C   0  0  0  0  0  0  0  0  0  0  0  0
  -25.2225   -6.9223   18.5990 C   0  0  0  0  0  0  0  0  0  0  0  0
  -23.7807   -7.7614   20.5290 C   0  0  0  0  0  0  0  0  0  0  0  0
  -25.6988  -32.5674   27.3784 C   0  0  0  0  0  0  0  0  0  0  0  0
  -25.7785  -29.8745   20.5503 C   0  0  0  0  0  0  0  0  0  0  0  0
  -26.0286  -31.6302   26.3808 C   0  0  0  0  0  0  0  0  0  0  0  0
  -24.7856  -28.9158   20.3033 C   0  0  0  0  0  0  0  0  0  0  0  0
  -29.9329  -21.4138   18.0188 C   0  0  0  0  0  0  0  0  0  0  0  0
  -29.4598  -22.1377   19.1076 C   0  0  0  0  0  0  0  0  0  0  0  0
  -29.9161  -20.0239   18.0548 C   0  0  0  0  0  0  0  0  0  0  0  0
  -25.8326   -5.1985   16.4921 C   0  0  0  0  0  0  0  0  0  0  0  0
  -26.4582  -27.4574   19.3104 C   0  0  0  0  0  0  0  0  0  0  0  0
  -25.9749   -2.9981   15.6797 C   0  0  0  0  0  0  0  0  0  0  0  0
  -25.6590   -0.2608   16.1156 C   0  0  0  0  0  0  0  0  0  0  0  0
  -27.0695   -2.1418   15.5598 C   0  0  0  0  0  0  0  0  0  0  0  0
  -24.9082   -7.8124   19.6875 C   0  0  0  0  0  0  0  0  0  0  0  0
  -28.9841  -21.4299   20.1996 C   0  0  0  0  0  0  0  0  0  0  0  0
  -29.4201  -19.4108   19.1940 C   0  0  0  0  0  0  0  0  0  0  0  0
  -23.9487   -8.8162   21.3925 C   0  0  0  0  0  0  0  0  0  0  0  0
  -22.6801   -6.8426   20.5300 C   0  0  0  0  0  0  0  0  0  0  0  0
  -24.3326  -30.4266   23.3266 C   0  0  0  0  0  0  0  0  0  0  0  0
  -21.7514  -30.9517   21.4334 C   0  0  0  0  0  0  0  0  0  0  0  0
  -20.1826  -30.3956   18.4541 C   0  0  0  0  0  0  0  0  0  0  0  0
  -26.6481  -13.9118   21.0216 C   0  0  0  0  0  0  0  0  0  0  0  0
  -24.2869  -32.7224   27.8856 C   0  0  0  0  0  0  0  0  0  0  0  0
  -25.4250  -31.1907   21.1868 C   0  0  0  0  0  0  0  0  0  0  0  0
  -23.3480  -29.1454   20.6893 C   0  0  0  0  0  0  0  0  0  0  0  0
  -23.2356  -32.1279   26.9521 C   0  0  0  0  0  0  0  0  0  0  0  0
  -27.3443  -11.4756   23.4525 C   0  0  0  0  0  0  0  0  0  0  0  0
  -23.6555  -30.7350   26.4934 C   0  0  0  0  0  0  0  0  0  0  0  0
  -26.6832  -10.2401   22.8419 C   0  0  0  0  0  0  0  0  0  0  0  0
  -29.4991  -15.8571   20.3321 C   0  0  0  0  0  0  0  0  0  0  0  0
  -27.3811  -17.2288   20.3397 C   0  0  0  0  0  0  0  0  0  0  0  0
  -28.0615  -12.3216   22.3989 C   0  0  0  0  0  0  0  0  0  0  0  0
  -28.9114  -14.9752   21.4377 C   0  0  0  0  0  0  0  0  0  0  0  0
  -26.8487  -16.3404   21.4606 C   0  0  0  0  0  0  0  0  0  0  0  0
  -26.5460  -11.4664   20.6409 C   0  0  0  0  0  0  0  0  0  0  0  0
  -24.9696  -30.7867   25.7047 C   0  0  1  0  0  0  0  0  0  0  0  0
  -24.1436  -31.1300   22.0124 C   0  0  1  0  0  0  0  0  0  0  0  0
  -25.7681  -10.6274   21.6665 C   0  0  1  0  0  0  0  0  0  0  0  0
  -28.9112  -17.2698   20.3675 C   0  0  0  0  0  0  0  0  0  0  0  0
  -30.4566  -22.1285   16.8140 C   0  0  0  0  0  0  0  0  0  0  0  0
  -30.4201  -19.2272   16.8968 C   0  0  0  0  0  0  0  0  0  0  0  0
  -29.2864  -21.8561   22.6655 C   0  0  0  0  0  0  0  0  0  0  0  0
  -26.9747  -21.8589   21.6600 C   0  0  0  0  0  0  0  0  0  0  0  0
  -18.0671  -30.9258   17.2127 C   0  0  0  0  0  0  0  0  0  0  0  0
  -20.2449  -28.9170   23.1366 C   0  0  0  0  0  0  0  0  0  0  0  0
  -18.5207  -28.7824   21.3263 C   0  0  0  0  0  0  0  0  0  0  0  0
  -18.9165  -30.9416   22.5112 C   0  0  0  0  0  0  0  0  0  0  0  0
  -21.6595  -31.7792   16.2946 C   0  0  0  0  0  0  0  0  0  0  0  0
  -29.4642  -23.6297   19.0986 C   0  0  0  0  0  0  0  0  0  0  0  0
  -28.0860  -24.2640   18.8550 C   0  0  0  0  0  0  0  0  0  0  0  0
  -28.1064  -25.7864   18.9270 C   0  0  0  0  0  0  0  0  0  1  0  0
  -28.4633  -22.1525   21.3987 C   0  0  0  0  0  0  0  0  0  0  0  0
  -20.6444  -30.0921   20.8726 C   0  0  1  0  0  0  0  0  0  0  0  0
  -19.5049  -31.3428   17.4804 C   0  0  2  0  0  0  0  0  0  0  0  0
  -19.6090  -29.6778   21.9560 C   0  0  0  0  0  0  0  0  0  0  0  0
  -25.7315   -8.8200   19.9892 N   0  0  0  0  0  0  0  0  0  0  0  0
  -28.9519  -20.0803   20.2712 N   0  0  0  0  0  0  0  0  0  0  0  0
  -25.1207   -9.4119   21.0297 N   0  0  0  0  0  0  0  0  0  0  0  0
  -23.0535  -30.4453   21.3145 N   0  0  0  0  0  0  0  0  0  0  0  0
  -27.1611  -12.6318   21.2796 N   0  0  0  0  0  0  0  0  0  0  0  0
  -27.4422  -15.0042   21.4010 N   0  0  0  0  0  0  0  0  0  0  0  0
  -23.2067   -9.2829   22.4191 N   0  0  0  0  0  0  0  0  0  0  0  0
  -22.6646   -5.8175   19.5744 N   0  0  0  0  0  0  0  0  0  0  0  0
  -29.4027  -18.0280   19.2381 N   0  0  0  0  0  0  0  0  0  0  0  0
  -24.7318  -31.2566   24.3567 N   0  0  0  0  0  0  0  0  0  0  0  0
  -20.0745  -30.8379   19.7556 N   0  0  0  0  0  0  0  0  0  0  0  0
  -20.2377  -31.3633   16.1828 N   0  3  0  0  0  0  0  0  0  0  0  0
  -21.7300   -6.9379   21.3435 O   0  0  0  0  0  0  0  0  0  0  0  0
  -24.1297  -29.2203   23.4009 O   0  0  0  0  0  0  0  0  0  0  0  0
  -21.4720  -32.0358   21.9513 O   0  0  0  0  0  0  0  0  0  0  0  0
  -20.7478  -29.3646   18.0963 O   0  0  0  0  0  0  0  0  0  0  0  0
  -25.5451  -14.0696   20.4835 O   0  0  0  0  0  0  0  0  0  0  0  0
  -26.1303   -4.3572   15.4645 O   0  0  0  0  0  0  0  0  0  0  0  0
  -26.7880  -26.2715   18.7080 O   0  0  0  0  0  0  0  0  0  1  0  0
  -25.5074    1.0533   16.3264 F   0  0  0  0  0  0  0  0  0  0  0  0
  -28.2756   -2.6284   15.2365 F   0  0  0  0  0  0  0  0  0  0  0  0
  1  2  1  0  0  0  0
  1  5  2  0  0  0  0
  2  6  2  0  0  0  0
  3  8  2  0  0  0  0
  3 15  1  0  0  0  0
  4  9  1  0  0  0  0
  4 15  2  0  0  0  0
  5 17  1  0  0  0  0
  6 19  1  0  0  0  0
  7 10  2  0  0  0  0
  7 18  1  0  0  0  0
  8 24  1  0  0  0  0
  9 24  2  0  0  0  0
 10 25  1  0  0  0  0
 11 12  2  0  0  0  0
 11 26  1  0  0  0  0
 12 27  1  0  0  0  0
 13 20  1  0  0  0  0
 13 25  2  0  0  0  0
 14 27  2  0  0  0  0
 14 28  1  0  0  0  0
 15 29  1  0  0  0  0
 16 29  1  0  0  0  0
 16 32  2  0  0  0  0
 16 33  1  0  0  0  0
 17 19  2  0  0  0  0
 17 38  1  0  0  0  0
 18 20  2  0  0  0  0
 18 39  1  0  0  0  0
 19 51  1  0  0  0  0
 20 40  1  0  0  0  0
 21 22  2  0  0  0  0
 21 23  1  0  0  0  0
 21 55  1  0  0  0  0
 22 30  1  0  0  0  0
 22 64  1  0  0  0  0
 23 31  2  0  0  0  0
 23 56  1  0  0  0  0
 24 88  1  0  0  0  0
 25 89  1  0  0  0  0
 26 28  2  0  0  0  0
 26 88  1  0  0  0  0
 27 90  1  0  0  0  0
 28 91  1  0  0  0  0
 29 71  2  0  0  0  0
 30 67  1  0  0  0  0
 30 72  2  0  0  0  0
 31 72  1  0  0  0  0
 31 79  1  0  0  0  0
 32 73  1  0  0  0  0
 32 77  1  0  0  0  0
 33 78  1  0  0  0  0
 33 83  2  0  0  0  0
 34 52  1  0  0  0  0
 34 80  1  0  0  0  0
 34 84  2  0  0  0  0
 35 68  1  0  0  0  0
 35 74  1  0  0  0  0
 35 85  2  0  0  0  0
 36 69  1  0  0  0  0
 36 81  1  0  0  0  0
 36 86  2  0  0  0  0
 37 75  1  0  0  0  0
 37 76  1  0  0  0  0
 37 87  2  0  0  0  0
 38 41  1  0  0  0  0
 39 52  1  0  0  0  0
 40 74  1  0  0  0  0
 41 43  1  0  0  0  0
 42 44  1  0  0  0  0
 42 47  1  0  0  0  0
 43 51  1  0  0  0  0
 44 53  1  0  0  0  0
 45 48  1  0  0  0  0
 45 54  1  0  0  0  0
 46 49  1  0  0  0  0
 46 54  1  0  0  0  0
 47 75  1  0  0  0  0
 48 76  1  0  0  0  0
 49 76  1  0  0  0  0
 50 53  1  0  0  0  0
 50 75  1  0  0  0  0
 51 80  1  0  0  0  0
 52 74  1  0  0  0  0
 53 73  1  0  0  0  0
 54 79  1  0  0  0  0
 57 67  1  0  0  0  0
 58 67  1  0  0  0  0
 59 69  1  0  0  0  0
 60 70  1  0  0  0  0
 61 70  1  0  0  0  0
 62 70  1  0  0  0  0
 63 82  1  0  0  0  0
 64 65  1  0  0  0  0
 65 66  1  0  0  0  0
 66 89  1  0  0  0  0
 68 70  1  0  0  0  0
 68 81  1  0  0  0  0
 69 82  1  0  0  0  0
 71 73  1  0  0  0  0
M  CHG  1  82   1
M  ISO  4  37 100  66 101  76 100  89 101
M  END
> <Batch ID>
0160

> <Smiles>
CNC(C)C(=O)NC(C(=O)N1Cc2cc([101O:1][101CH2:1]CCc3c(C(C)C)nc(NC4CC[100N:0]([100C:0](=O)N5CCCC(n6nc(-c7ccc(Oc8ccc(F)cc8F)cc7)c(C(N)=O)c6N)C5)CC4)c(C)c3C)ccc2CC1C(=O)NC1CCCc2ccccc21)C(C)(C)C

> <Shape>
0.257

> <Color>
0.080

> <Negative vol penalty>
0.000

$$$$

  -OEChem-04052322093D

 87 96  0     1  0  0  0  0  0999 V2000
  -16.6063  -27.0246   23.2215 C   0  0  0  0  0  0  0  0  0  0  0  0
  -17.6976  -26.4820   23.8922 C   0  0  0  0  0  0  0  0  0  0  0  0
  -25.0038  -14.3966   21.1121 C   0  0  0  0  0  0  0  0  0  0  0  0
  -26.8309  -13.2769   19.9963 C   0  0  0  0  0  0  0  0  0  0  0  0
  -16.8064  -27.9742   22.2205 C   0  0  0  0  0  0  0  0  0  0  0  0
  -18.9900  -26.8881   23.5616 C   0  0  0  0  0  0  0  0  0  0  0  0
  -23.7467  -27.4932   27.3713 C   0  0  0  0  0  0  0  0  0  0  0  0
  -24.2154  -13.2552   20.9664 C   0  0  0  0  0  0  0  0  0  0  0  0
  -26.0425  -12.1355   19.8507 C   0  0  0  0  0  0  0  0  0  0  0  0
  -24.8250  -26.6597   27.6652 C   0  0  0  0  0  0  0  0  0  0  0  0
  -21.8418  -10.5126   21.2094 C   0  0  0  0  0  0  0  0  0  0  0  0
  -21.1014  -10.0905   22.3136 C   0  0  0  0  0  0  0  0  0  0  0  0
  -27.1584  -23.0595   24.9481 C   0  0  0  0  0  0  0  0  0  0  0  0
  -26.1806  -27.8621   26.0729 C   0  0  0  0  0  0  0  0  0  0  0  0
  -29.2696  -24.4315   23.7630 C   0  0  0  0  0  0  0  0  0  0  0  0
  -23.1416   -9.8250   23.5801 C   0  0  0  0  0  0  0  0  0  0  0  0
  -26.3116  -14.4075   20.6270 C   0  0  0  0  0  0  0  0  0  0  0  0
  -27.9768  -15.9008   21.8535 C   0  0  0  0  0  0  0  0  0  0  0  0
  -18.1014  -28.3993   21.8841 C   0  0  0  0  0  0  0  0  0  0  0  0
  -23.8743  -28.5121   26.4165 C   0  0  0  0  0  0  0  0  0  0  0  0
  -19.2078  -27.8433   22.5543 C   0  0  0  0  0  0  0  0  0  0  0  0
  -27.2884  -23.0511   23.5507 C   0  0  0  0  0  0  0  0  0  0  0  0
  -25.1032  -28.7088   25.7705 C   0  0  0  0  0  0  0  0  0  0  0  0
  -28.3567  -23.7408   22.9484 C   0  0  0  0  0  0  0  0  0  0  0  0
  -28.0689  -23.7546   25.7424 C   0  0  0  0  0  0  0  0  0  0  0  0
  -24.7347  -12.1247   20.3357 C   0  0  0  0  0  0  0  0  0  0  0  0
  -26.0413  -26.8422   27.0139 C   0  0  0  0  0  0  0  0  0  0  0  0
  -23.2321  -10.5907   21.2905 C   0  0  0  0  0  0  0  0  0  0  0  0
  -29.1248  -24.4398   25.1501 C   0  0  0  0  0  0  0  0  0  0  0  0
  -21.7512   -9.7468   23.4990 C   0  0  0  0  0  0  0  0  0  0  0  0
  -23.8820  -10.2470   22.4759 C   0  0  0  0  0  0  0  0  0  0  0  0
  -27.1263  -15.5864   20.7767 C   0  0  0  0  0  0  0  0  0  0  0  0
  -28.5191  -17.1175   21.5188 C   0  0  0  0  0  0  0  0  0  0  0  0
  -28.2522  -15.1594   23.0494 C   0  0  0  0  0  0  0  0  0  0  0  0
  -22.4862  -29.1637   23.6321 C   0  0  0  0  0  0  0  0  0  0  0  0
  -24.2199  -31.8966   23.8505 C   0  0  0  0  0  0  0  0  0  0  0  0
  -26.9391  -33.5075   25.1382 C   0  0  0  0  0  0  0  0  0  0  0  0
  -28.1950  -22.1968   19.5435 C   0  0  0  0  0  0  0  0  0  0  0  0
  -18.2707  -29.3934   20.7626 C   0  0  0  0  0  0  0  0  0  0  0  0
  -22.7095  -29.4197   26.1302 C   0  0  0  0  0  0  0  0  0  0  0  0
  -26.3125  -22.2459   22.7322 C   0  0  0  0  0  0  0  0  0  0  0  0
  -25.2979  -29.8012   24.7521 C   0  0  0  0  0  0  0  0  0  0  0  0
  -19.6502  -30.0462   20.7304 C   0  0  0  0  0  0  0  0  0  0  0  0
  -28.4195  -19.7009   17.1800 C   0  0  0  0  0  0  0  0  0  0  0  0
  -20.7427  -28.9938   20.8911 C   0  0  0  0  0  0  0  0  0  0  0  0
  -28.1768  -18.4219   17.9808 C   0  0  0  0  0  0  0  0  0  0  0  0
  -26.3545  -22.5844   21.2468 C   0  0  0  0  0  0  0  0  0  0  0  0
  -27.4738  -20.8103   17.6255 C   0  0  0  0  0  0  0  0  0  0  0  0
  -27.3152  -19.8533   19.8993 C   0  0  0  0  0  0  0  0  0  0  0  0
  -20.6236  -28.2766   22.2412 C   0  0  1  0  0  0  0  0  0  0  0  0
  -28.5364  -23.7616   21.4409 C   0  0  2  0  0  0  0  0  0  0  0  0
  -22.8010  -30.0974   24.7665 C   0  0  1  0  0  0  0  0  0  0  0  0
  -28.2504  -18.6962   19.4932 C   0  0  1  0  0  0  0  0  0  0  0  0
  -28.1125  -35.7254   25.1064 C   0  0  0  0  0  0  0  0  0  0  0  0
  -26.9982  -25.7429   21.5511 C   0  0  0  0  0  0  0  0  0  0  0  0
  -29.4339  -26.0714   21.0382 C   0  0  0  0  0  0  0  0  0  0  0  0
  -25.3242  -31.2698   21.0761 C   0  0  0  0  0  0  0  0  0  0  0  0
  -27.1406  -32.9405   21.4979 C   0  0  0  0  0  0  0  0  0  0  0  0
  -24.7574  -33.6761   21.4541 C   0  0  0  0  0  0  0  0  0  0  0  0
  -26.5735  -33.8735   28.0522 C   0  0  0  0  0  0  0  0  0  0  0  0
  -31.0773  -25.7958   25.2185 C   0  0  0  0  0  0  0  0  0  0  0  0
  -27.8992  -23.7471   27.2257 C   0  0  0  0  0  0  0  0  0  0  0  0
  -26.7967  -24.6955   27.7045 C   0  0  0  0  0  0  0  0  0  1  0  0
  -25.6013  -32.3239   23.4166 C   0  0  1  0  0  0  0  0  0  0  0  0
  -27.0824  -34.8591   25.8142 C   0  0  2  0  0  0  0  0  0  0  0  0
  -28.2285  -25.1540   20.8711 C   0  0  0  0  0  0  0  0  0  0  0  0
  -25.7020  -32.5306   21.8789 C   0  0  0  0  0  0  0  0  0  0  0  0
  -27.1249  -16.5275   19.8289 N   0  0  0  0  0  0  0  0  0  0  0  0
  -27.9811  -17.4453   20.3091 N   0  0  0  0  0  0  0  0  0  0  0  0
  -24.1274  -30.6585   24.5021 N   0  0  0  0  0  0  0  0  0  0  0  0
  -27.5664  -21.0379   19.0674 N   0  0  0  0  0  0  0  0  0  0  0  0
  -27.7353  -22.7215   20.7664 N   0  0  0  0  0  0  0  0  0  0  0  0
  -29.3988  -17.9284   22.1442 N   0  0  0  0  0  0  0  0  0  0  0  0
  -27.6096  -13.9277   23.2347 N   0  0  0  0  0  0  0  0  0  0  0  0
  -21.1450  -29.1095   23.3037 N   0  0  0  0  0  0  0  0  0  0  0  0
  -25.9272  -33.5097   24.2016 N   0  0  0  0  0  0  0  0  0  0  0  0
  -27.5080  -34.6866   27.2320 N   0  3  0  0  0  0  0  0  0  0  0  0
  -29.0320  -15.5844   23.9352 O   0  0  0  0  0  0  0  0  0  0  0  0
  -23.3931  -28.5398   23.0937 O   0  0  0  0  0  0  0  0  0  0  0  0
  -23.2594  -32.6373   23.6262 O   0  0  0  0  0  0  0  0  0  0  0  0
  -27.6558  -32.5470   25.4109 O   0  0  0  0  0  0  0  0  0  0  0  0
  -29.1114  -22.7352   18.9094 O   0  0  0  0  0  0  0  0  0  0  0  0
  -23.9657  -11.0106   20.1936 O   0  0  0  0  0  0  0  0  0  0  0  0
  -30.0272  -25.1220   25.9093 O   0  0  0  0  0  0  0  0  0  0  0  0
  -27.1026  -26.0240   27.3004 O   0  0  0  0  0  0  0  0  0  1  0  0
  -21.0400   -9.3430   24.5597 F   0  0  0  0  0  0  0  0  0  0  0  0
  -25.2174  -10.3212   22.5602 F   0  0  0  0  0  0  0  0  0  0  0  0
  1  2  1  0  0  0  0
  1  5  2  0  0  0  0
  2  6  2  0  0  0  0
  3  8  2  0  0  0  0
  3 17  1  0  0  0  0
  4  9  1  0  0  0  0
  4 17  2  0  0  0  0
  5 19  1  0  0  0  0
  6 21  1  0  0  0  0
  7 10  2  0  0  0  0
  7 20  1  0  0  0  0
  8 26  1  0  0  0  0
  9 26  2  0  0  0  0
 10 27  1  0  0  0  0
 11 12  2  0  0  0  0
 11 28  1  0  0  0  0
 12 30  1  0  0  0  0
 13 22  2  0  0  0  0
 13 25  1  0  0  0  0
 14 23  1  0  0  0  0
 14 27  2  0  0  0  0
 15 24  2  0  0  0  0
 15 29  1  0  0  0  0
 16 30  2  0  0  0  0
 16 31  1  0  0  0  0
 17 32  1  0  0  0  0
 18 32  1  0  0  0  0
 18 33  2  0  0  0  0
 18 34  1  0  0  0  0
 19 21  2  0  0  0  0
 19 39  1  0  0  0  0
 20 23  2  0  0  0  0
 20 40  1  0  0  0  0
 21 50  1  0  0  0  0
 22 24  1  0  0  0  0
 22 41  1  0  0  0  0
 23 42  1  0  0  0  0
 24 51  1  0  0  0  0
 25 29  2  0  0  0  0
 25 62  1  0  0  0  0
 26 83  1  0  0  0  0
 27 85  1  0  0  0  0
 28 31  2  0  0  0  0
 28 83  1  0  0  0  0
 29 84  1  0  0  0  0
 30 86  1  0  0  0  0
 31 87  1  0  0  0  0
 32 68  2  0  0  0  0
 33 69  1  0  0  0  0
 33 73  1  0  0  0  0
 34 74  1  0  0  0  0
 34 78  2  0  0  0  0
 35 52  1  0  0  0  0
 35 75  1  0  0  0  0
 35 79  2  0  0  0  0
 36 64  1  0  0  0  0
 36 70  1  0  0  0  0
 36 80  2  0  0  0  0
 37 65  1  0  0  0  0
 37 76  1  0  0  0  0
 37 81  2  0  0  0  0
 38 71  1  0  0  0  0
 38 72  1  0  0  0  0
 38 82  2  0  0  0  0
 39 43  1  0  0  0  0
 40 52  1  0  0  0  0
 41 47  1  0  0  0  0
 42 70  1  0  0  0  0
 43 45  1  0  0  0  0
 44 46  1  0  0  0  0
 44 48  1  0  0  0  0
 45 50  1  0  0  0  0
 46 53  1  0  0  0  0
 47 72  1  0  0  0  0
 48 71  1  0  0  0  0
 49 53  1  0  0  0  0
 49 71  1  0  0  0  0
 50 75  1  0  0  0  0
 51 66  1  0  0  0  0
 51 72  1  0  0  0  0
 52 70  1  0  0  0  0
 53 69  1  0  0  0  0
 54 65  1  0  0  0  0
 55 66  1  0  0  0  0
 56 66  1  0  0  0  0
 57 67  1  0  0  0  0
 58 67  1  0  0  0  0
 59 67  1  0  0  0  0
 60 77  1  0  0  0  0
 61 84  1  0  0  0  0
 62 63  1  0  0  0  0
 63 85  1  0  0  0  0
 64 67  1  0  0  0  0
 64 76  1  0  0  0  0
 65 77  1  0  0  0  0
 68 69  1  0  0  0  0
M  CHG  1  77   1
M  ISO  4  38 100  63 101  72 100  85 101
M  END
> <Batch ID>
0160

> <Smiles>
CNC(C)C(=O)NC(C(=O)N1Cc2cc([101O:1][101CH2:1]Cc3cc4c(cc3OC)C(C(C)C)[100N:0]([100C:0](=O)N3CCCC(n5nc(-c6ccc(Oc7ccc(F)cc7F)cc6)c(C(N)=O)c5N)C3)CC4)ccc2CC1C(=O)NC1CCCc2ccccc21)C(C)(C)C

> <Shape>
0.238

> <Color>
0.088

> <Negative vol penalty>
0.000

$$$$

  -OEChem-04052322093D

 86 95  0     1  0  0  0  0  0999 V2000
  -26.1035  -32.4154   12.8711 C   0  0  0  0  0  0  0  0  0  0  0  0
  -26.2140  -31.1627   13.4662 C   0  0  0  0  0  0  0  0  0  0  0  0
  -23.1258   -9.8177   19.9500 C   0  0  0  0  0  0  0  0  0  0  0  0
  -23.8577   -9.8790   22.2517 C   0  0  0  0  0  0  0  0  0  0  0  0
  -26.5799  -33.5454   13.5344 C   0  0  0  0  0  0  0  0  0  0  0  0
  -26.8020  -31.0392   14.7245 C   0  0  0  0  0  0  0  0  0  0  0  0
  -25.2658  -27.0757   19.1331 C   0  0  0  0  0  0  0  0  0  0  0  0
  -22.4071   -8.6508   20.2096 C   0  0  0  0  0  0  0  0  0  0  0  0
  -23.1390   -8.7121   22.5113 C   0  0  0  0  0  0  0  0  0  0  0  0
  -25.8049  -25.8502   19.5222 C   0  0  0  0  0  0  0  0  0  0  0  0
  -19.9241   -7.8453   23.0888 C   0  0  0  0  0  0  0  0  0  0  0  0
  -19.1543   -7.8051   24.2513 C   0  0  0  0  0  0  0  0  0  0  0  0
  -27.0958  -26.9664   21.2272 C   0  0  0  0  0  0  0  0  0  0  0  0
  -20.4333   -5.9102   25.0328 C   0  0  0  0  0  0  0  0  0  0  0  0
  -31.4614  -18.5181   20.0320 C   0  0  0  0  0  0  0  0  0  0  0  0
  -23.8512  -10.4318   20.9711 C   0  0  0  0  0  0  0  0  0  0  0  0
  -24.1332  -12.9624   20.8150 C   0  0  0  0  0  0  0  0  0  0  0  0
  -27.1653  -33.4369   14.8057 C   0  0  0  0  0  0  0  0  0  0  0  0
  -25.6465  -28.2590   19.7821 C   0  0  0  0  0  0  0  0  0  0  0  0
  -27.2879  -32.1687   15.4049 C   0  0  0  0  0  0  0  0  0  0  0  0
  -26.5581  -28.2052   20.8461 C   0  0  0  0  0  0  0  0  0  0  0  0
  -29.0699  -19.7759   19.8347 C   0  0  0  0  0  0  0  0  0  0  0  0
  -30.4322  -18.1429   20.8960 C   0  0  0  0  0  0  0  0  0  0  0  0
  -29.2048  -18.7938   20.7954 C   0  0  0  0  0  0  0  0  0  0  0  0
  -22.4137   -8.0980   21.4902 C   0  0  0  0  0  0  0  0  0  0  0  0
  -26.7222  -25.7958   20.5675 C   0  0  0  0  0  0  0  0  0  0  0  0
  -20.9484   -6.9178   22.8982 C   0  0  0  0  0  0  0  0  0  0  0  0
  -19.4089   -6.8377   25.2233 C   0  0  0  0  0  0  0  0  0  0  0  0
  -21.2030   -5.9504   23.8702 C   0  0  0  0  0  0  0  0  0  0  0  0
  -24.5942  -11.6369   20.7035 C   0  0  0  0  0  0  0  0  0  0  0  0
  -30.1570  -20.0784   19.0199 C   0  0  0  0  0  0  0  0  0  0  0  0
  -25.2112  -13.7325   20.4526 C   0  0  0  0  0  0  0  0  0  0  0  0
  -22.8456  -13.4535   21.2109 C   0  0  0  0  0  0  0  0  0  0  0  0
  -27.0938  -30.9432   18.8853 C   0  0  0  0  0  0  0  0  0  0  0  0
  -26.3885  -31.8747   21.9114 C   0  0  0  0  0  0  0  0  0  0  0  0
  -25.6820  -30.9794   25.1280 C   0  0  0  0  0  0  0  0  0  0  0  0
  -30.6660  -14.8878   20.6886 C   0  0  0  0  0  0  0  0  0  0  0  0
  -27.7085  -34.6808   15.4633 C   0  0  0  0  0  0  0  0  0  0  0  0
  -25.0356  -29.5696   19.3679 C   0  0  0  0  0  0  0  0  0  0  0  0
  -26.9843  -29.4444   21.5886 C   0  0  0  0  0  0  0  0  0  0  0  0
  -29.8236  -21.2035   18.0809 C   0  0  0  0  0  0  0  0  0  0  0  0
  -27.9795  -34.5119   16.9560 C   0  0  0  0  0  0  0  0  0  0  0  0
  -28.2870  -21.1799   18.1312 C   0  0  0  0  0  0  0  0  0  0  0  0
  -29.6152  -12.4394   18.3269 C   0  0  0  0  0  0  0  0  0  0  0  0
  -28.7280  -33.2090   17.2186 C   0  0  0  0  0  0  0  0  0  0  0  0
  -28.1802  -12.1175   18.7477 C   0  0  0  0  0  0  0  0  0  0  0  0
  -30.5122  -12.7012   19.5347 C   0  0  0  0  0  0  0  0  0  0  0  0
  -28.5768  -13.4072   20.8873 C   0  0  0  0  0  0  0  0  0  0  0  0
  -27.8972  -31.9972   16.7795 C   0  0  1  0  0  0  0  0  0  0  0  0
  -27.8965  -20.6438   19.5218 C   0  0  2  0  0  0  0  0  0  0  0  0
  -25.8842  -30.7750   19.7606 C   0  0  1  0  0  0  0  0  0  0  0  0
  -27.6214  -13.1906   19.7013 C   0  0  2  0  0  0  0  0  0  0  0  0
  -28.0733  -18.4165   21.6886 C   0  0  0  0  0  0  0  0  0  0  0  0
  -25.1900  -31.9628   27.3837 C   0  0  0  0  0  0  0  0  0  0  0  0
  -26.6388  -23.2515   22.8504 C   0  0  0  0  0  0  0  0  0  0  0  0
  -29.3434  -32.5520   22.2579 C   0  0  0  0  0  0  0  0  0  0  0  0
  -28.9683  -32.6097   24.7327 C   0  0  0  0  0  0  0  0  0  0  0  0
  -27.7673  -34.2193   23.2531 C   0  0  0  0  0  0  0  0  0  0  0  0
  -23.0113  -29.7081   25.2283 C   0  0  0  0  0  0  0  0  0  0  0  0
  -30.6649  -17.0584   21.8919 C   0  0  0  0  0  0  0  0  0  0  0  0
  -26.3974  -22.4117   20.4461 C   0  0  0  0  0  0  0  0  0  0  0  0
  -27.0855  -31.7847   23.2475 C   0  0  1  0  0  0  0  0  0  0  0  0
  -24.5969  -31.4371   26.0857 C   0  0  2  0  0  0  0  0  0  0  0  0
  -26.3373  -23.6012   21.3990 C   0  0  2  0  0  0  0  0  0  1  0  0
  -28.2848  -32.7681   23.3577 C   0  0  0  0  0  0  0  0  0  0  0  0
  -31.3594  -19.4836   19.0871 N   0  0  0  0  0  0  0  0  0  0  0  0
  -25.8660  -11.5655   20.3015 N   0  0  0  0  0  0  0  0  0  0  0  0
  -26.2132  -12.8557   20.1572 N   0  0  0  0  0  0  0  0  0  0  0  0
  -26.3637  -30.7026   21.1423 N   0  0  0  0  0  0  0  0  0  0  0  0
  -29.9263  -13.7297   20.3978 N   0  0  0  0  0  0  0  0  0  0  0  0
  -25.3901  -15.0674   20.3609 N   0  0  0  0  0  0  0  0  0  0  0  0
  -21.8521  -12.5253   21.5507 N   0  0  0  0  0  0  0  0  0  0  0  0
  -26.8695  -31.7082   17.7566 N   0  0  0  0  0  0  0  0  0  0  0  0
  -26.0543  -31.9841   24.2601 N   0  0  0  0  0  0  0  0  0  0  0  0
  -30.0344  -15.8148   21.5088 N   0  0  0  0  0  0  0  0  0  0  0  0
  -27.7404  -21.7803   20.4654 N   0  3  0  0  0  0  0  0  0  0  0  0
  -23.6823  -30.3063   26.4110 N   0  3  0  0  0  0  0  0  0  0  0  0
  -22.5790  -14.6787   21.2459 O   0  0  0  0  0  0  0  0  0  0  0  0
  -28.1526  -30.4191   19.2107 O   0  0  0  0  0  0  0  0  0  0  0  0
  -25.8786  -32.9435   21.5661 O   0  0  0  0  0  0  0  0  0  0  0  0
  -26.1550  -29.8452   25.1501 O   0  0  0  0  0  0  0  0  0  0  0  0
  -31.8027  -15.0839   20.2455 O   0  0  0  0  0  0  0  0  0  0  0  0
  -21.7123   -6.9595   21.7439 O   0  0  0  0  0  0  0  0  0  0  0  0
  -27.2505  -24.6011   20.9489 O   0  0  0  0  0  0  0  0  0  1  0  0
  -18.6706   -6.8002   26.3403 F   0  0  0  0  0  0  0  0  0  0  0  0
  -22.1866   -5.0575   23.6933 F   0  0  0  0  0  0  0  0  0  0  0  0
  1  2  1  0  0  0  0
  1  5  2  0  0  0  0
  2  6  2  0  0  0  0
  3  8  2  0  0  0  0
  3 16  1  0  0  0  0
  4  9  1  0  0  0  0
  4 16  2  0  0  0  0
  5 18  1  0  0  0  0
  6 20  1  0  0  0  0
  7 10  2  0  0  0  0
  7 19  1  0  0  0  0
  8 25  1  0  0  0  0
  9 25  2  0  0  0  0
 10 26  1  0  0  0  0
 11 12  2  0  0  0  0
 11 27  1  0  0  0  0
 12 28  1  0  0  0  0
 13 21  1  0  0  0  0
 13 26  2  0  0  0  0
 14 28  2  0  0  0  0
 14 29  1  0  0  0  0
 15 23  1  0  0  0  0
 15 66  2  0  0  0  0
 16 30  1  0  0  0  0
 17 30  1  0  0  0  0
 17 32  2  0  0  0  0
 17 33  1  0  0  0  0
 18 20  2  0  0  0  0
 18 38  1  0  0  0  0
 19 21  2  0  0  0  0
 19 39  1  0  0  0  0
 20 49  1  0  0  0  0
 21 40  1  0  0  0  0
 22 24  1  0  0  0  0
 22 31  2  0  0  0  0
 22 50  1  0  0  0  0
 23 24  2  0  0  0  0
 23 60  1  0  0  0  0
 24 53  1  0  0  0  0
 25 83  1  0  0  0  0
 26 84  1  0  0  0  0
 27 29  2  0  0  0  0
 27 83  1  0  0  0  0
 28 85  1  0  0  0  0
 29 86  1  0  0  0  0
 30 67  2  0  0  0  0
 31 41  1  0  0  0  0
 31 66  1  0  0  0  0
 32 68  1  0  0  0  0
 32 71  1  0  0  0  0
 33 72  1  0  0  0  0
 33 78  2  0  0  0  0
 34 51  1  0  0  0  0
 34 73  1  0  0  0  0
 34 79  2  0  0  0  0
 35 62  1  0  0  0  0
 35 69  1  0  0  0  0
 35 80  2  0  0  0  0
 36 63  1  0  0  0  0
 36 74  1  0  0  0  0
 36 81  2  0  0  0  0
 37 70  1  0  0  0  0
 37 75  1  0  0  0  0
 37 82  2  0  0  0  0
 38 42  1  0  0  0  0
 39 51  1  0  0  0  0
 40 69  1  0  0  0  0
 41 43  1  0  0  0  0
 42 45  1  0  0  0  0
 43 50  1  0  0  0  0
 44 46  1  0  0  0  0
 44 47  1  0  0  0  0
 45 49  1  0  0  0  0
 46 52  1  0  0  0  0
 47 70  1  0  0  0  0
 48 52  1  0  0  0  0
 48 70  1  0  0  0  0
 49 73  1  0  0  0  0
 50 76  1  0  0  0  0
 51 69  1  0  0  0  0
 52 68  1  0  0  0  0
 54 63  1  0  0  0  0
 55 64  1  0  0  0  0
 56 65  1  0  0  0  0
 57 65  1  0  0  0  0
 58 65  1  0  0  0  0
 59 77  1  0  0  0  0
 60 75  1  0  0  0  0
 61 64  1  0  0  0  0
 61 76  1  0  0  0  0
 62 65  1  0  0  0  0
 62 74  1  0  0  0  0
 63 77  1  0  0  0  0
 64 84  1  0  0  0  0
 67 68  1  0  0  0  0
M  CHG  2  76   1  77   1
M  ISO  4  37 100  64 101  75 100  84 101
M  END
> <Batch ID>
0160

> <Smiles>
CNC(C)C(=O)NC(C(=O)N1Cc2cc([101O:1][101CH:1](C)CNC3CCc4ncc(C[100NH:0][100C:0](=O)N5CCCC(n6nc(-c7ccc(Oc8ccc(F)cc8F)cc7)c(C(N)=O)c6N)C5)c(C)c43)ccc2CC1C(=O)NC1CCCc2ccccc21)C(C)(C)C

> <Shape>
0.331

> <Color>
0.195

> <Negative vol penalty>
0.000

$$$$

  -OEChem-04052322093D

 86 96  0     1  0  0  0  0  0999 V2000
  -21.7525  -34.2033   20.9445 C   0  0  0  0  0  0  0  0  0  0  0  0
  -22.8851  -33.3976   20.8848 C   0  0  0  0  0  0  0  0  0  0  0  0
  -22.8484  -11.1098   22.4620 C   0  0  0  0  0  0  0  0  0  0  0  0
  -23.5219   -9.5680   20.7282 C   0  0  0  0  0  0  0  0  0  0  0  0
  -20.6670  -33.8208   21.7313 C   0  0  0  0  0  0  0  0  0  0  0  0
  -22.9331  -32.2092   21.6127 C   0  0  0  0  0  0  0  0  0  0  0  0
  -25.6846  -26.9917   19.9659 C   0  0  0  0  0  0  0  0  0  0  0  0
  -22.0411  -10.1223   23.0266 C   0  0  0  0  0  0  0  0  0  0  0  0
  -22.7146   -8.5804   21.2927 C   0  0  0  0  0  0  0  0  0  0  0  0
  -26.9207  -26.4381   20.2967 C   0  0  0  0  0  0  0  0  0  0  0  0
  -22.8678   -6.4244   23.8905 C   0  0  0  0  0  0  0  0  0  0  0  0
  -23.4073   -5.1448   24.0211 C   0  0  0  0  0  0  0  0  0  0  0  0
  -25.8638  -25.1238   22.0213 C   0  0  0  0  0  0  0  0  0  0  0  0
  -21.6527   -4.2614   22.6146 C   0  0  0  0  0  0  0  0  0  0  0  0
  -31.5320  -17.8693   20.4370 C   0  0  0  0  0  0  0  0  0  0  0  0
  -23.5888  -10.8327   21.3128 C   0  0  0  0  0  0  0  0  0  0  0  0
  -24.0131  -13.1061   20.2361 C   0  0  0  0  0  0  0  0  0  0  0  0
  -20.6979  -32.6223   22.4617 C   0  0  0  0  0  0  0  0  0  0  0  0
  -24.5285  -26.6229   20.6687 C   0  0  0  0  0  0  0  0  0  0  0  0
  -21.8474  -31.8109   22.4111 C   0  0  0  0  0  0  0  0  0  0  0  0
  -24.6138  -25.6722   21.6958 C   0  0  0  0  0  0  0  0  0  0  0  0
  -29.4798  -18.6419   20.9485 C   0  0  0  0  0  0  0  0  0  0  0  0
  -30.2393  -17.4723   20.6988 C   0  0  0  0  0  0  0  0  0  0  0  0
  -21.9742   -8.8576   22.4419 C   0  0  0  0  0  0  0  0  0  0  0  0
  -27.0109  -25.5062   21.3264 C   0  0  0  0  0  0  0  0  0  0  0  0
  -21.7207   -6.6225   23.1220 C   0  0  0  0  0  0  0  0  0  0  0  0
  -22.7998   -4.0633   23.3831 C   0  0  0  0  0  0  0  0  0  0  0  0
  -21.1132   -5.5411   22.4840 C   0  0  0  0  0  0  0  0  0  0  0  0
  -24.4225  -11.8525   20.7288 C   0  0  0  0  0  0  0  0  0  0  0  0
  -30.3316  -19.7181   20.8315 C   0  0  0  0  0  0  0  0  0  0  0  0
  -25.1716  -13.6956   19.7925 C   0  0  0  0  0  0  0  0  0  0  0  0
  -22.7028  -13.6858   20.1841 C   0  0  0  0  0  0  0  0  0  0  0  0
  -22.4198  -28.1612   22.4827 C   0  0  0  0  0  0  0  0  0  0  0  0
  -20.8779  -25.3078   22.4297 C   0  0  0  0  0  0  0  0  0  0  0  0
  -21.7797  -21.8225   22.6675 C   0  0  0  0  0  0  0  0  0  0  0  0
  -30.5472  -14.9833   20.4613 C   0  0  0  0  0  0  0  0  0  0  0  0
  -19.5189  -32.2741   23.3354 C   0  0  0  0  0  0  0  0  0  0  0  0
  -23.1985  -27.2092   20.2820 C   0  0  0  0  0  0  0  0  0  0  0  0
  -23.3993  -25.2275   22.4676 C   0  0  0  0  0  0  0  0  0  0  0  0
  -19.5014  -30.8142   23.7813 C   0  0  0  0  0  0  0  0  0  0  0  0
  -29.8040  -11.7666   19.1279 C   0  0  0  0  0  0  0  0  0  0  0  0
  -20.8795  -30.3920   24.2808 C   0  0  0  0  0  0  0  0  0  0  0  0
  -29.6045  -21.5473   22.4241 C   0  0  0  0  0  0  0  0  0  0  0  0
  -29.0499  -21.7172   19.9537 C   0  0  0  0  0  0  0  0  0  0  0  0
  -28.3040  -11.6053   19.3850 C   0  0  0  0  0  0  0  0  0  0  0  0
  -33.0628  -20.6514   18.9609 C   0  0  0  0  0  0  0  0  0  0  0  0
  -33.9101  -19.5242   19.4622 C   0  0  0  0  0  0  0  0  0  0  0  0
  -29.3417  -23.0430   22.5793 C   0  0  0  0  0  0  0  0  0  0  0  0
  -28.7907  -23.2121   20.1217 C   0  0  0  0  0  0  0  0  0  0  0  0
  -30.4988  -12.5062   20.2699 C   0  0  0  0  0  0  0  0  0  0  0  0
  -28.3982  -13.6356   20.8870 C   0  0  0  0  0  0  0  0  0  0  0  0
  -21.9276  -30.5023   23.1669 C   0  0  1  0  0  0  0  0  0  0  0  0
  -30.0598  -21.2024   20.9949 C   0  0  0  0  0  0  0  0  0  0  0  0
  -22.1679  -27.1450   21.4050 C   0  0  1  0  0  0  0  0  0  0  0  0
  -32.7673  -20.0346   20.3081 C   0  0  0  0  0  0  0  0  0  0  0  0
  -27.6438  -12.9537   19.7340 C   0  0  2  0  0  0  0  0  0  0  0  0
  -28.3427  -23.5513   21.5414 C   0  0  0  0  0  0  0  0  0  1  0  0
  -28.0395  -18.7009   21.2744 C   0  0  0  0  0  0  0  0  0  0  0  0
  -20.6415  -19.7774   21.7622 C   0  0  0  0  0  0  0  0  0  0  0  0
  -19.5571  -25.1808   25.1773 C   0  0  0  0  0  0  0  0  0  0  0  0
  -19.7810  -22.6886   25.0926 C   0  0  0  0  0  0  0  0  0  0  0  0
  -18.3871  -23.8723   23.3959 C   0  0  0  0  0  0  0  0  0  0  0  0
  -24.2232  -20.9513   21.2430 C   0  0  0  0  0  0  0  0  0  0  0  0
  -20.9056  -24.0616   23.2813 C   0  0  1  0  0  0  0  0  0  0  0  0
  -21.7490  -20.7974   21.5482 C   0  0  2  0  0  0  0  0  0  0  0  0
  -19.6806  -23.9675   24.2341 C   0  0  0  0  0  0  0  0  0  0  0  0
  -25.7382  -11.6562   20.6095 N   0  0  0  0  0  0  0  0  0  0  0  0
  -31.5763  -19.2366   20.5201 N   0  0  0  0  0  0  0  0  0  0  0  0
  -26.1657  -12.7943   20.0367 N   0  0  0  0  0  0  0  0  0  0  0  0
  -22.1225  -25.8343   22.0562 N   0  0  0  0  0  0  0  0  0  0  0  0
  -29.8215  -13.7759   20.5415 N   0  0  0  0  0  0  0  0  0  0  0  0
  -25.4267  -14.8918   19.2213 N   0  0  0  0  0  0  0  0  0  0  0  0
  -21.9173  -13.4607   19.0453 N   0  0  0  0  0  0  0  0  0  0  0  0
  -29.7905  -16.1283   20.7080 N   0  0  0  0  0  0  0  0  0  0  0  0
  -21.8164  -29.3835   22.2557 N   0  0  0  0  0  0  0  0  0  0  0  0
  -21.0322  -22.9391   22.3581 N   0  0  0  0  0  0  0  0  0  0  0  0
  -23.0486  -20.0718   21.4746 N   0  3  0  0  0  0  0  0  0  0  0  0
  -22.2484  -14.3963   21.1127 O   0  0  0  0  0  0  0  0  0  0  0  0
  -23.1093  -27.8584   23.4494 O   0  0  0  0  0  0  0  0  0  0  0  0
  -19.7918  -25.7921   22.1018 O   0  0  0  0  0  0  0  0  0  0  0  0
  -22.4013  -21.6484   23.7133 O   0  0  0  0  0  0  0  0  0  0  0  0
  -31.7451  -15.0021   20.1668 O   0  0  0  0  0  0  0  0  0  0  0  0
  -21.1867   -7.8937   22.9927 O   0  0  0  0  0  0  0  0  0  0  0  0
  -28.2163  -24.9649   21.6518 O   0  0  0  0  0  0  0  0  0  1  0  0
  -23.3189   -2.8348   23.5074 F   0  0  0  0  0  0  0  0  0  0  0  0
  -20.0117   -5.7254   21.7434 F   0  0  0  0  0  0  0  0  0  0  0  0
  1  2  1  0  0  0  0
  1  5  2  0  0  0  0
  2  6  2  0  0  0  0
  3  8  2  0  0  0  0
  3 16  1  0  0  0  0
  4  9  1  0  0  0  0
  4 16  2  0  0  0  0
  5 18  1  0  0  0  0
  6 20  1  0  0  0  0
  7 10  2  0  0  0  0
  7 19  1  0  0  0  0
  8 24  1  0  0  0  0
  9 24  2  0  0  0  0
 10 25  1  0  0  0  0
 11 12  2  0  0  0  0
 11 26  1  0  0  0  0
 12 27  1  0  0  0  0
 13 21  1  0  0  0  0
 13 25  2  0  0  0  0
 14 27  2  0  0  0  0
 14 28  1  0  0  0  0
 15 23  2  0  0  0  0
 15 68  1  0  0  0  0
 16 29  1  0  0  0  0
 17 29  1  0  0  0  0
 17 31  2  0  0  0  0
 17 32  1  0  0  0  0
 18 20  2  0  0  0  0
 18 37  1  0  0  0  0
 19 21  2  0  0  0  0
 19 38  1  0  0  0  0
 20 52  1  0  0  0  0
 21 39  1  0  0  0  0
 22 23  1  0  0  0  0
 22 30  2  0  0  0  0
 22 58  1  0  0  0  0
 23 74  1  0  0  0  0
 24 83  1  0  0  0  0
 25 84  1  0  0  0  0
 26 28  2  0  0  0  0
 26 83  1  0  0  0  0
 27 85  1  0  0  0  0
 28 86  1  0  0  0  0
 29 67  2  0  0  0  0
 30 53  1  0  0  0  0
 30 68  1  0  0  0  0
 31 69  1  0  0  0  0
 31 72  1  0  0  0  0
 32 73  1  0  0  0  0
 32 78  2  0  0  0  0
 33 54  1  0  0  0  0
 33 75  1  0  0  0  0
 33 79  2  0  0  0  0
 34 64  1  0  0  0  0
 34 70  1  0  0  0  0
 34 80  2  0  0  0  0
 35 65  1  0  0  0  0
 35 76  1  0  0  0  0
 35 81  2  0  0  0  0
 36 71  1  0  0  0  0
 36 74  1  0  0  0  0
 36 82  2  0  0  0  0
 37 40  1  0  0  0  0
 38 54  1  0  0  0  0
 39 70  1  0  0  0  0
 40 42  1  0  0  0  0
 41 45  1  0  0  0  0
 41 50  1  0  0  0  0
 42 52  1  0  0  0  0
 43 48  1  0  0  0  0
 43 53  1  0  0  0  0
 44 49  1  0  0  0  0
 44 53  1  0  0  0  0
 45 56  1  0  0  0  0
 46 47  1  0  0  0  0
 46 55  1  0  0  0  0
 47 55  1  0  0  0  0
 48 57  1  0  0  0  0
 49 57  1  0  0  0  0
 50 71  1  0  0  0  0
 51 56  1  0  0  0  0
 51 71  1  0  0  0  0
 52 75  1  0  0  0  0
 54 70  1  0  0  0  0
 55 68  1  0  0  0  0
 56 69  1  0  0  0  0
 57 84  1  0  0  0  0
 59 65  1  0  0  0  0
 60 66  1  0  0  0  0
 61 66  1  0  0  0  0
 62 66  1  0  0  0  0
 63 77  1  0  0  0  0
 64 66  1  0  0  0  0
 64 76  1  0  0  0  0
 65 77  1  0  0  0  0
 67 69  1  0  0  0  0
M  CHG  1  77   1
M  ISO  4  36 100  57 101  74 100  84 101
M  END
> <Batch ID>
0160

> <Smiles>
CNC(C)C(=O)NC(C(=O)N1Cc2cc([101O:1][101CH:1]3CCC(c4c(C)c([100NH:0][100C:0](=O)N5CCCC(n6nc(-c7ccc(Oc8ccc(F)cc8F)cc7)c(C(N)=O)c6N)C5)cn4C4CC4)CC3)ccc2CC1C(=O)NC1CCCc2ccccc21)C(C)(C)C

> <Shape>
0.254

> <Color>
0.144

> <Negative vol penalty>
0.000

$$$$

  -OEChem-04052322093D

 87 96  0     1  0  0  0  0  0999 V2000
  -29.3251  -37.0427   22.9027 C   0  0  0  0  0  0  0  0  0  0  0  0
  -29.4664  -36.0617   21.9265 C   0  0  0  0  0  0  0  0  0  0  0  0
  -23.7661   -8.1421   16.9221 C   0  0  0  0  0  0  0  0  0  0  0  0
  -25.4242   -6.7908   18.0453 C   0  0  0  0  0  0  0  0  0  0  0  0
  -28.8016  -36.7113   24.1517 C   0  0  0  0  0  0  0  0  0  0  0  0
  -29.0853  -34.7484   22.1991 C   0  0  0  0  0  0  0  0  0  0  0  0
  -26.3416  -28.9538   19.0034 C   0  0  0  0  0  0  0  0  0  0  0  0
  -23.8973   -7.3533   15.7793 C   0  0  0  0  0  0  0  0  0  0  0  0
  -25.5554   -6.0019   16.9024 C   0  0  0  0  0  0  0  0  0  0  0  0
  -26.5968  -27.5934   18.8368 C   0  0  0  0  0  0  0  0  0  0  0  0
  -27.0995   -6.2016   13.9013 C   0  0  0  0  0  0  0  0  0  0  0  0
  -28.3898   -5.8774   13.4824 C   0  0  0  0  0  0  0  0  0  0  0  0
  -25.6310  -27.1530   21.0030 C   0  0  0  0  0  0  0  0  0  0  0  0
  -26.4211  -22.7143   17.6491 C   0  0  0  0  0  0  0  0  0  0  0  0
  -27.8832   -3.5291   13.7395 C   0  0  0  0  0  0  0  0  0  0  0  0
  -24.5295   -7.8609   18.0551 C   0  0  0  0  0  0  0  0  0  0  0  0
  -23.5059   -8.4768   20.3092 C   0  0  0  0  0  0  0  0  0  0  0  0
  -28.4048  -35.3952   24.4365 C   0  0  0  0  0  0  0  0  0  0  0  0
  -25.7381  -29.4262   20.1778 C   0  0  0  0  0  0  0  0  0  0  0  0
  -28.5572  -34.3988   23.4535 C   0  0  0  0  0  0  0  0  0  0  0  0
  -25.3669  -28.5197   21.1810 C   0  0  0  0  0  0  0  0  0  0  0  0
  -27.2753  -23.4761   18.4463 C   0  0  0  0  0  0  0  0  0  0  0  0
  -26.5494  -21.3256   17.6183 C   0  0  0  0  0  0  0  0  0  0  0  0
  -28.2579  -22.8494   19.2127 C   0  0  0  0  0  0  0  0  0  0  0  0
  -28.3863  -21.4607   19.1819 C   0  0  0  0  0  0  0  0  0  0  0  0
  -27.5321  -20.6989   18.3847 C   0  0  0  0  0  0  0  0  0  0  0  0
  -24.7920   -6.2832   15.7694 C   0  0  0  0  0  0  0  0  0  0  0  0
  -26.2441  -26.6931   19.8379 C   0  0  0  0  0  0  0  0  0  0  0  0
  -26.2010   -5.1896   14.2394 C   0  0  0  0  0  0  0  0  0  0  0  0
  -28.7817   -4.5411   13.4014 C   0  0  0  0  0  0  0  0  0  0  0  0
  -26.5929   -3.8534   14.1585 C   0  0  0  0  0  0  0  0  0  0  0  0
  -24.3948   -8.6757   19.2358 C   0  0  0  0  0  0  0  0  0  0  0  0
  -23.7694   -9.5141   21.1700 C   0  0  0  0  0  0  0  0  0  0  0  0
  -22.5294   -7.4464   20.5101 C   0  0  0  0  0  0  0  0  0  0  0  0
  -26.6089  -31.4049   22.5080 C   0  0  0  0  0  0  0  0  0  0  0  0
  -23.5510  -30.9632   23.4962 C   0  0  0  0  0  0  0  0  0  0  0  0
  -20.7642  -28.9932   23.5025 C   0  0  0  0  0  0  0  0  0  0  0  0
  -25.8054  -14.8779   20.4818 C   0  0  0  0  0  0  0  0  0  0  0  0
  -27.8883  -35.0753   25.8169 C   0  0  0  0  0  0  0  0  0  0  0  0
  -25.4452  -30.8936   20.3307 C   0  0  0  0  0  0  0  0  0  0  0  0
  -24.6981  -28.9735   22.4519 C   0  0  0  0  0  0  0  0  0  0  0  0
  -27.1597  -33.7364   25.8995 C   0  0  0  0  0  0  0  0  0  0  0  0
  -27.2816  -12.4501   22.5447 C   0  0  0  0  0  0  0  0  0  0  0  0
  -27.9612  -32.6479   25.1928 C   0  0  0  0  0  0  0  0  0  0  0  0
  -26.6176  -11.1723   22.0324 C   0  0  0  0  0  0  0  0  0  0  0  0
  -28.2158  -17.1379   19.2691 C   0  0  0  0  0  0  0  0  0  0  0  0
  -26.0368  -18.2751   19.8408 C   0  0  0  0  0  0  0  0  0  0  0  0
  -27.6477  -13.4024   21.4048 C   0  0  0  0  0  0  0  0  0  0  0  0
  -27.9906  -16.1620   20.4277 C   0  0  0  0  0  0  0  0  0  0  0  0
  -25.8694  -17.2981   21.0013 C   0  0  0  0  0  0  0  0  0  0  0  0
  -25.8521  -12.4496   19.9954 C   0  0  0  0  0  0  0  0  0  0  0  0
  -28.1320  -32.9680   23.7029 C   0  0  1  0  0  0  0  0  0  0  0  0
  -25.2934  -31.3240   21.7864 C   0  0  1  0  0  0  0  0  0  0  0  0
  -25.4200  -11.4987   21.1224 C   0  0  1  0  0  0  0  0  0  0  0  0
  -27.5198  -18.4779   19.5192 C   0  0  0  0  0  0  0  0  0  0  0  0
  -25.6197  -20.5362   16.7549 C   0  0  0  0  0  0  0  0  0  0  0  0
  -29.1726  -23.6696   20.0664 C   0  0  0  0  0  0  0  0  0  0  0  0
  -29.4423  -20.7920   20.0055 C   0  0  0  0  0  0  0  0  0  0  0  0
  -18.4351  -28.8784   24.4296 C   0  0  0  0  0  0  0  0  0  0  0  0
  -24.6771  -30.1807   26.2219 C   0  0  0  0  0  0  0  0  0  0  0  0
  -22.4479  -29.1869   26.7799 C   0  0  0  0  0  0  0  0  0  0  0  0
  -22.6406  -31.6295   26.3114 C   0  0  0  0  0  0  0  0  0  0  0  0
  -19.5634  -28.9839   20.7976 C   0  0  0  0  0  0  0  0  0  0  0  0
  -27.1170  -24.9614   18.4612 C   0  0  0  0  0  0  0  0  0  1  0  0
  -22.8527  -29.9815   24.4059 C   0  0  1  0  0  0  0  0  0  0  0  0
  -19.3012  -29.3170   23.2591 C   0  0  2  0  0  0  0  0  0  0  0  0
  -23.1689  -30.2360   25.9068 C   0  0  0  0  0  0  0  0  0  0  0  0
  -25.1653   -9.7547   19.3977 N   0  0  0  0  0  0  0  0  0  0  0  0
  -24.7612  -10.2431   20.5827 N   0  0  0  0  0  0  0  0  0  0  0  0
  -24.4386  -30.4188   22.5572 N   0  0  0  0  0  0  0  0  0  0  0  0
  -26.4849  -13.6520   20.5416 N   0  0  0  0  0  0  0  0  0  0  0  0
  -26.5578  -16.0355   20.7308 N   0  0  0  0  0  0  0  0  0  0  0  0
  -23.2470   -9.8646   22.3644 N   0  0  0  0  0  0  0  0  0  0  0  0
  -22.3890   -6.4579   19.5264 N   0  0  0  0  0  0  0  0  0  0  0  0
  -27.6582  -19.3214   18.3525 N   0  0  0  0  0  0  0  0  0  0  0  0
  -26.9156  -32.6674   22.9787 N   0  0  0  0  0  0  0  0  0  0  0  0
  -21.4341  -30.0547   24.0734 N   0  0  0  0  0  0  0  0  0  0  0  0
  -18.8155  -28.6271   22.0306 N   0  3  0  0  0  0  0  0  0  0  0  0
  -21.7915   -7.4128   21.5239 O   0  0  0  0  0  0  0  0  0  0  0  0
  -27.2941  -30.3963   22.6300 O   0  0  0  0  0  0  0  0  0  0  0  0
  -23.3121  -32.1681   23.6096 O   0  0  0  0  0  0  0  0  0  0  0  0
  -21.2621  -27.9061   23.2184 O   0  0  0  0  0  0  0  0  0  0  0  0
  -24.5972  -14.9351   20.2211 O   0  0  0  0  0  0  0  0  0  0  0  0
  -24.9201   -5.5131   14.6545 O   0  0  0  0  0  0  0  0  0  0  0  0
  -26.4945  -25.3552   19.6770 O   0  0  0  0  0  0  0  0  0  1  0  0
  -30.0203   -4.2298   12.9976 F   0  0  0  0  0  0  0  0  0  0  0  0
  -25.7338   -2.8768   14.4809 F   0  0  0  0  0  0  0  0  0  0  0  0
  1  2  1  0  0  0  0
  1  5  2  0  0  0  0
  2  6  2  0  0  0  0
  3  8  2  0  0  0  0
  3 16  1  0  0  0  0
  4  9  1  0  0  0  0
  4 16  2  0  0  0  0
  5 18  1  0  0  0  0
  6 20  1  0  0  0  0
  7 10  2  0  0  0  0
  7 19  1  0  0  0  0
  8 27  1  0  0  0  0
  9 27  2  0  0  0  0
 10 28  1  0  0  0  0
 11 12  2  0  0  0  0
 11 29  1  0  0  0  0
 12 30  1  0  0  0  0
 13 21  1  0  0  0  0
 13 28  2  0  0  0  0
 14 22  1  0  0  0  0
 14 23  2  0  0  0  0
 15 30  2  0  0  0  0
 15 31  1  0  0  0  0
 16 32  1  0  0  0  0
 17 32  1  0  0  0  0
 17 33  2  0  0  0  0
 17 34  1  0  0  0  0
 18 20  2  0  0  0  0
 18 39  1  0  0  0  0
 19 21  2  0  0  0  0
 19 40  1  0  0  0  0
 20 52  1  0  0  0  0
 21 41  1  0  0  0  0
 22 24  2  0  0  0  0
 22 64  1  0  0  0  0
 23 26  1  0  0  0  0
 23 56  1  0  0  0  0
 24 25  1  0  0  0  0
 24 57  1  0  0  0  0
 25 26  2  0  0  0  0
 25 58  1  0  0  0  0
 26 75  1  0  0  0  0
 27 84  1  0  0  0  0
 28 85  1  0  0  0  0
 29 31  2  0  0  0  0
 29 84  1  0  0  0  0
 30 86  1  0  0  0  0
 31 87  1  0  0  0  0
 32 68  2  0  0  0  0
 33 69  1  0  0  0  0
 33 73  1  0  0  0  0
 34 74  1  0  0  0  0
 34 79  2  0  0  0  0
 35 53  1  0  0  0  0
 35 76  1  0  0  0  0
 35 80  2  0  0  0  0
 36 65  1  0  0  0  0
 36 70  1  0  0  0  0
 36 81  2  0  0  0  0
 37 66  1  0  0  0  0
 37 77  1  0  0  0  0
 37 82  2  0  0  0  0
 38 71  1  0  0  0  0
 38 72  1  0  0  0  0
 38 83  2  0  0  0  0
 39 42  1  0  0  0  0
 40 53  1  0  0  0  0
 41 70  1  0  0  0  0
 42 44  1  0  0  0  0
 43 45  1  0  0  0  0
 43 48  1  0  0  0  0
 44 52  1  0  0  0  0
 45 54  1  0  0  0  0
 46 49  1  0  0  0  0
 46 55  1  0  0  0  0
 47 50  1  0  0  0  0
 47 55  1  0  0  0  0
 48 71  1  0  0  0  0
 49 72  1  0  0  0  0
 50 72  1  0  0  0  0
 51 54  1  0  0  0  0
 51 71  1  0  0  0  0
 52 76  1  0  0  0  0
 53 70  1  0  0  0  0
 54 69  1  0  0  0  0
 55 75  1  0  0  0  0
 59 66  1  0  0  0  0
 60 67  1  0  0  0  0
 61 67  1  0  0  0  0
 62 67  1  0  0  0  0
 63 78  1  0  0  0  0
 64 85  1  0  0  0  0
 65 67  1  0  0  0  0
 65 77  1  0  0  0  0
 66 78  1  0  0  0  0
 68 69  1  0  0  0  0
M  CHG  1  78   1
M  ISO  4  38 100  64 101  72 100  85 101
M  END
> <Batch ID>
0160

> <Smiles>
CNC(C)C(=O)NC(C(=O)N1Cc2cc([101O:1][101CH2:1]c3cc(C)c(NC4CC[100N:0]([100C:0](=O)N5CCCC(n6nc(-c7ccc(Oc8ccc(F)cc8F)cc7)c(C(N)=O)c6N)C5)CC4)c(C)c3C)ccc2CC1C(=O)NC1CCCc2ccccc21)C(C)(C)C

> <Shape>
0.237

> <Color>
0.079

> <Negative vol penalty>
0.000

$$$$

  -OEChem-04052322093D

 89 99  0     1  0  0  0  0  0999 V2000
  -36.9775  -16.6901   24.1461 C   0  0  0  0  0  0  0  0  0  0  0  0
  -35.9286  -17.4491   23.6370 C   0  0  0  0  0  0  0  0  0  0  0  0
  -21.3141  -24.8780   27.1498 C   0  0  0  0  0  0  0  0  0  0  0  0
  -20.5039  -23.2489   25.5602 C   0  0  0  0  0  0  0  0  0  0  0  0
  -37.1459  -15.3695   23.7318 C   0  0  0  0  0  0  0  0  0  0  0  0
  -35.0482  -16.8883   22.7125 C   0  0  0  0  0  0  0  0  0  0  0  0
  -30.2063  -17.9490   23.7500 C   0  0  0  0  0  0  0  0  0  0  0  0
  -20.4949  -24.3250   28.1341 C   0  0  0  0  0  0  0  0  0  0  0  0
  -19.6848  -22.6959   26.5445 C   0  0  0  0  0  0  0  0  0  0  0  0
  -29.7453  -19.2194   23.4075 C   0  0  0  0  0  0  0  0  0  0  0  0
  -17.2317  -24.4328   29.0080 C   0  0  0  0  0  0  0  0  0  0  0  0
  -16.5001  -25.3095   29.8091 C   0  0  0  0  0  0  0  0  0  0  0  0
  -28.7337  -18.3088   21.4158 C   0  0  0  0  0  0  0  0  0  0  0  0
  -17.6153  -24.4471   31.7712 C   0  0  0  0  0  0  0  0  0  0  0  0
  -27.5560  -27.9523   20.2285 C   0  0  0  0  0  0  0  0  0  0  0  0
  -21.3185  -24.3400   25.8628 C   0  0  0  0  0  0  0  0  0  0  0  0
  -23.4899  -24.5493   24.5403 C   0  0  0  0  0  0  0  0  0  0  0  0
  -36.2614  -14.7892   22.8091 C   0  0  0  0  0  0  0  0  0  0  0  0
  -29.9433  -16.8490   22.9210 C   0  0  0  0  0  0  0  0  0  0  0  0
  -35.2057  -15.5591   22.2845 C   0  0  0  0  0  0  0  0  0  0  0  0
  -29.1903  -17.0251   21.7513 C   0  0  0  0  0  0  0  0  0  0  0  0
  -19.6803  -23.2339   27.8314 C   0  0  0  0  0  0  0  0  0  0  0  0
  -29.0114  -19.4000   22.2388 C   0  0  0  0  0  0  0  0  0  0  0  0
  -18.1550  -23.5631   29.5885 C   0  0  0  0  0  0  0  0  0  0  0  0
  -26.7482  -27.1312   19.4684 C   0  0  0  0  0  0  0  0  0  0  0  0
  -16.6919  -25.3167   31.1907 C   0  0  0  0  0  0  0  0  0  0  0  0
  -18.3468  -23.5703   30.9701 C   0  0  0  0  0  0  0  0  0  0  0  0
  -22.1641  -24.9111   24.8455 C   0  0  0  0  0  0  0  0  0  0  0  0
  -25.4078  -27.4590   19.4548 C   0  0  0  0  0  0  0  0  0  0  0  0
  -23.8434  -25.3813   23.5062 C   0  0  0  0  0  0  0  0  0  0  0  0
  -25.7753  -29.2300   20.8317 C   0  0  0  0  0  0  0  0  0  0  0  0
  -24.3269  -23.5505   25.1380 C   0  0  0  0  0  0  0  0  0  0  0  0
  -31.7333  -14.8043   21.2720 C   0  0  0  0  0  0  0  0  0  0  0  0
  -28.8839  -13.3527   20.7275 C   0  0  0  0  0  0  0  0  0  0  0  0
  -25.4868  -13.6178   20.5379 C   0  0  0  0  0  0  0  0  0  0  0  0
  -23.8907  -30.7142   21.5642 C   0  0  0  0  0  0  0  0  0  0  0  0
  -36.5118  -13.3728   22.3554 C   0  0  0  0  0  0  0  0  0  0  0  0
  -30.4248  -15.4805   23.3182 C   0  0  0  0  0  0  0  0  0  0  0  0
  -28.8636  -15.8732   20.8376 C   0  0  0  0  0  0  0  0  0  0  0  0
  -35.3134  -12.7363   21.6561 C   0  0  0  0  0  0  0  0  0  0  0  0
  -21.0850  -28.4858   20.6392 C   0  0  0  0  0  0  0  0  0  0  0  0
  -34.7233  -13.6965   20.6282 C   0  0  0  0  0  0  0  0  0  0  0  0
  -21.1774  -27.3733   21.6818 C   0  0  0  0  0  0  0  0  0  0  0  0
  -27.0116  -23.0002   18.6900 C   0  0  0  0  0  0  0  0  0  0  0  0
  -21.6211  -29.8100   21.1749 C   0  0  0  0  0  0  0  0  0  0  0  0
  -23.1100  -28.6036   22.7462 C   0  0  0  0  0  0  0  0  0  0  0  0
  -34.2152  -14.9785   21.2987 C   0  0  1  0  0  0  0  0  0  0  0  0
  -30.5382  -14.5210   22.1375 C   0  0  1  0  0  0  0  0  0  0  0  0
  -28.5240  -22.8480   18.8186 C   0  0  1  0  0  0  0  0  0  0  0  0
  -28.9544  -24.3298   18.6604 C   0  0  1  0  0  0  0  0  0  0  0  0
  -22.6134  -27.2497   22.2173 C   0  0  1  0  0  0  0  0  0  0  0  0
  -26.9418  -23.9236   19.8968 C   0  0  2  0  0  0  0  0  0  0  0  0
  -27.9151  -25.0602   19.5397 C   0  0  2  0  0  0  0  0  0  0  0  0
  -28.6347  -22.4064   20.2875 C   0  0  2  0  0  0  0  0  0  0  0  0
  -24.4429  -26.6400   18.6632 C   0  0  0  0  0  0  0  0  0  0  0  0
  -30.3952  -24.6366   19.0420 C   0  0  0  0  0  0  0  0  0  0  0  0
  -23.4307  -12.2697   20.0353 C   0  0  0  0  0  0  0  0  0  0  0  0
  -29.5258  -13.4890   17.7477 C   0  0  0  0  0  0  0  0  0  0  0  0
  -27.1102  -13.0289   17.2773 C   0  0  0  0  0  0  0  0  0  0  0  0
  -28.4859  -11.3404   18.4936 C   0  0  0  0  0  0  0  0  0  0  0  0
  -26.2072  -31.3206   22.1097 C   0  0  0  0  0  0  0  0  0  0  0  0
  -24.3856  -14.0722   23.2471 C   0  0  0  0  0  0  0  0  0  0  0  0
  -28.4236  -20.9241   20.5103 C   0  0  0  0  0  0  0  0  0  1  0  0
  -27.8081  -13.4703   19.6751 C   0  0  1  0  0  0  0  0  0  0  0  0
  -24.3757  -12.7629   21.1200 C   0  0  2  0  0  0  0  0  0  0  0  0
  -28.2402  -12.8544   18.3144 C   0  0  0  0  0  0  0  0  0  0  0  0
  -27.1013  -29.0143   20.9254 N   0  0  0  0  0  0  0  0  0  0  0  0
  -21.7065  -25.8963   24.0683 N   0  0  0  0  0  0  0  0  0  0  0  0
  -24.8851  -28.5053   20.1274 N   0  0  0  0  0  0  0  0  0  0  0  0
  -22.7506  -26.1607   23.2645 N   0  0  0  0  0  0  0  0  0  0  0  0
  -29.3619  -14.5558   21.2660 N   0  0  0  0  0  0  0  0  0  0  0  0
  -22.9652  -29.6643   21.7358 N   0  0  0  0  0  0  0  0  0  0  0  0
  -24.9794  -25.5149   22.7892 N   0  0  0  0  0  0  0  0  0  0  0  0
  -23.8062  -22.7843   26.1897 N   0  0  0  0  0  0  0  0  0  0  0  0
  -32.9404  -14.7415   21.9416 N   0  0  0  0  0  0  0  0  0  0  0  0
  -26.6085  -12.8699   20.2487 N   0  0  0  0  0  0  0  0  0  0  0  0
  -25.2530  -30.3588   21.5622 N   0  0  0  0  0  0  0  0  0  0  0  0
  -23.5852  -13.5457   22.1117 N   0  3  0  0  0  0  0  0  0  0  0  0
  -25.5075  -23.3547   24.7618 O   0  0  0  0  0  0  0  0  0  0  0  0
  -31.5723  -15.0594   20.0843 O   0  0  0  0  0  0  0  0  0  0  0  0
  -29.2804  -12.2343   21.0647 O   0  0  0  0  0  0  0  0  0  0  0  0
  -25.3699  -14.8274   20.3543 O   0  0  0  0  0  0  0  0  0  0  0  0
  -23.5318  -31.8948   21.4747 O   0  0  0  0  0  0  0  0  0  0  0  0
  -27.5700  -23.1423   20.9407 O   0  0  0  0  0  0  0  0  0  0  0  0
  -18.8810  -22.6939   28.7917 O   0  0  0  0  0  0  0  0  0  0  0  0
  -27.2623  -26.0628   18.7781 O   0  0  0  0  0  0  0  0  0  0  0  0
  -28.5608  -20.6391   21.9018 O   0  0  0  0  0  0  0  0  0  1  0  0
  -15.9905  -26.1597   31.9598 F   0  0  0  0  0  0  0  0  0  0  0  0
  -19.2332  -22.7380   31.5333 F   0  0  0  0  0  0  0  0  0  0  0  0
  1  2  1  0  0  0  0
  1  5  2  0  0  0  0
  2  6  2  0  0  0  0
  3  8  2  0  0  0  0
  3 16  1  0  0  0  0
  4  9  1  0  0  0  0
  4 16  2  0  0  0  0
  5 18  1  0  0  0  0
  6 20  1  0  0  0  0
  7 10  2  0  0  0  0
  7 19  1  0  0  0  0
  8 22  1  0  0  0  0
  9 22  2  0  0  0  0
 10 23  1  0  0  0  0
 11 12  2  0  0  0  0
 11 24  1  0  0  0  0
 12 26  1  0  0  0  0
 13 21  1  0  0  0  0
 13 23  2  0  0  0  0
 14 26  2  0  0  0  0
 14 27  1  0  0  0  0
 15 25  1  0  0  0  0
 15 67  2  0  0  0  0
 16 28  1  0  0  0  0
 17 28  1  0  0  0  0
 17 30  2  0  0  0  0
 17 32  1  0  0  0  0
 18 20  2  0  0  0  0
 18 37  1  0  0  0  0
 19 21  2  0  0  0  0
 19 38  1  0  0  0  0
 20 47  1  0  0  0  0
 21 39  1  0  0  0  0
 22 85  1  0  0  0  0
 23 87  1  0  0  0  0
 24 27  2  0  0  0  0
 24 85  1  0  0  0  0
 25 29  2  0  0  0  0
 25 86  1  0  0  0  0
 26 88  1  0  0  0  0
 27 89  1  0  0  0  0
 28 68  2  0  0  0  0
 29 55  1  0  0  0  0
 29 69  1  0  0  0  0
 30 70  1  0  0  0  0
 30 73  1  0  0  0  0
 31 67  1  0  0  0  0
 31 69  2  0  0  0  0
 31 77  1  0  0  0  0
 32 74  1  0  0  0  0
 32 79  2  0  0  0  0
 33 48  1  0  0  0  0
 33 75  1  0  0  0  0
 33 80  2  0  0  0  0
 34 64  1  0  0  0  0
 34 71  1  0  0  0  0
 34 81  2  0  0  0  0
 35 65  1  0  0  0  0
 35 76  1  0  0  0  0
 35 82  2  0  0  0  0
 36 72  1  0  0  0  0
 36 77  1  0  0  0  0
 36 83  2  0  0  0  0
 37 40  1  0  0  0  0
 38 48  1  0  0  0  0
 39 71  1  0  0  0  0
 40 42  1  0  0  0  0
 41 43  1  0  0  0  0
 41 45  1  0  0  0  0
 42 47  1  0  0  0  0
 43 51  1  0  0  0  0
 44 49  1  0  0  0  0
 44 52  1  0  0  0  0
 45 72  1  0  0  0  0
 46 51  1  0  0  0  0
 46 72  1  0  0  0  0
 47 75  1  0  0  0  0
 48 71  1  0  0  0  0
 49 50  1  0  0  0  0
 49 54  1  0  0  0  0
 50 53  1  0  0  0  0
 50 56  1  0  0  0  0
 51 70  1  0  0  0  0
 52 53  1  0  0  0  0
 52 84  1  0  0  0  0
 53 86  1  0  0  0  0
 54 63  1  0  0  0  0
 54 84  1  0  0  0  0
 57 65  1  0  0  0  0
 58 66  1  0  0  0  0
 59 66  1  0  0  0  0
 60 66  1  0  0  0  0
 61 77  1  0  0  0  0
 62 78  1  0  0  0  0
 63 87  1  0  0  0  0
 64 66  1  0  0  0  0
 64 76  1  0  0  0  0
 65 78  1  0  0  0  0
 68 70  1  0  0  0  0
M  CHG  1  78   1
M  ISO  4  36 100  63 101  77 100  87 101
M  END
> <Batch ID>
0160

> <Smiles>
CNC(C)C(=O)NC(C(=O)N1Cc2cc([101O:1][101CH2:1]C3OC4CC3C(C)C4Oc3cnc([100N:0](C)[100C:0](=O)N4CCCC(n5nc(-c6ccc(Oc7ccc(F)cc7F)cc6)c(C(N)=O)c5N)C4)nc3C)ccc2CC1C(=O)NC1CCCc2ccccc21)C(C)(C)C

> <Shape>
0.241

> <Color>
0.046

> <Negative vol penalty>
0.000

$$$$

  -OEChem-04052322093D

 88 97  0     1  0  0  0  0  0999 V2000
  -27.5651  -37.2868   24.4222 C   0  0  0  0  0  0  0  0  0  0  0  0
  -28.1247  -36.4446   23.4667 C   0  0  0  0  0  0  0  0  0  0  0  0
  -30.6604   -7.0246   18.2741 C   0  0  0  0  0  0  0  0  0  0  0  0
  -28.9237   -6.5150   19.8746 C   0  0  0  0  0  0  0  0  0  0  0  0
  -26.7524  -36.7591   25.4246 C   0  0  0  0  0  0  0  0  0  0  0  0
  -27.8727  -35.0740   23.5137 C   0  0  0  0  0  0  0  0  0  0  0  0
  -27.0429  -29.3997   19.2206 C   0  0  0  0  0  0  0  0  0  0  0  0
  -31.3142   -5.8380   18.6056 C   0  0  0  0  0  0  0  0  0  0  0  0
  -29.5775   -5.3283   20.2061 C   0  0  0  0  0  0  0  0  0  0  0  0
  -27.5277  -28.1050   19.0410 C   0  0  0  0  0  0  0  0  0  0  0  0
  -29.9134   -2.2255   18.9097 C   0  0  0  0  0  0  0  0  0  0  0  0
  -29.1396   -1.0703   19.0205 C   0  0  0  0  0  0  0  0  0  0  0  0
  -26.0442  -27.3158   20.7717 C   0  0  0  0  0  0  0  0  0  0  0  0
  -29.8252   -0.8321   21.3249 C   0  0  0  0  0  0  0  0  0  0  0  0
  -29.4652   -7.3632   18.9086 C   0  0  0  0  0  0  0  0  0  0  0  0
  -27.8149   -8.7729   17.5681 C   0  0  0  0  0  0  0  0  0  0  0  0
  -26.4825  -35.3825   25.4783 C   0  0  0  0  0  0  0  0  0  0  0  0
  -26.0612  -29.6646   20.1863 C   0  0  0  0  0  0  0  0  0  0  0  0
  -27.0567  -34.5271   24.5185 C   0  0  0  0  0  0  0  0  0  0  0  0
  -25.5467  -28.6143   20.9598 C   0  0  0  0  0  0  0  0  0  0  0  0
  -29.6695  -23.5932   19.5783 C   0  0  0  0  0  0  0  0  0  0  0  0
  -28.4200  -23.3745   17.5221 C   0  0  0  0  0  0  0  0  0  0  0  0
  -28.8736  -24.1592   18.5824 C   0  0  0  0  0  0  0  0  0  0  0  0
  -30.0119  -22.2425   19.5138 C   0  0  0  0  0  0  0  0  0  0  0  0
  -28.7624  -22.0238   17.4576 C   0  0  0  0  0  0  0  0  0  0  0  0
  -30.7727   -4.9897   19.5716 C   0  0  0  0  0  0  0  0  0  0  0  0
  -27.0305  -27.0633   19.8185 C   0  0  0  0  0  0  0  0  0  0  0  0
  -30.6432   -2.6840   20.0065 C   0  0  0  0  0  0  0  0  0  0  0  0
  -29.5584  -21.4579   18.4535 C   0  0  0  0  0  0  0  0  0  0  0  0
  -29.0955   -0.3736   20.2281 C   0  0  0  0  0  0  0  0  0  0  0  0
  -30.5990   -1.9873   21.2141 C   0  0  0  0  0  0  0  0  0  0  0  0
  -28.7897   -8.5892   18.5670 C   0  0  0  0  0  0  0  0  0  0  0  0
  -27.4925  -10.1058   17.6439 C   0  0  0  0  0  0  0  0  0  0  0  0
  -27.2512   -7.8235   16.6534 C   0  0  0  0  0  0  0  0  0  0  0  0
  -25.9198  -31.4552   22.8087 C   0  0  0  0  0  0  0  0  0  0  0  0
  -22.8028  -30.5573   22.7832 C   0  0  0  0  0  0  0  0  0  0  0  0
  -20.4482  -28.2926   21.7964 C   0  0  0  0  0  0  0  0  0  0  0  0
  -28.7402  -15.3106   18.0519 C   0  0  0  0  0  0  0  0  0  0  0  0
  -25.6363  -34.8521   26.6085 C   0  0  0  0  0  0  0  0  0  0  0  0
  -25.5294  -31.0621   20.3492 C   0  0  0  0  0  0  0  0  0  0  0  0
  -24.4777  -28.8425   21.9960 C   0  0  0  0  0  0  0  0  0  0  0  0
  -25.1149  -33.4378   26.3673 C   0  0  0  0  0  0  0  0  0  0  0  0
  -28.6491  -13.5922   21.1114 C   0  0  0  0  0  0  0  0  0  0  0  0
  -26.2354  -32.5349   25.8610 C   0  0  0  0  0  0  0  0  0  0  0  0
  -28.5989  -12.1386   20.6416 C   0  0  0  0  0  0  0  0  0  0  0  0
  -28.0719  -18.7664   19.2175 C   0  0  0  0  0  0  0  0  0  0  0  0
  -30.4870  -18.1843   19.7053 C   0  0  0  0  0  0  0  0  0  0  0  0
  -29.6059  -14.4348   20.2662 C   0  0  0  0  0  0  0  0  0  0  0  0
  -28.0517  -17.6773   18.1460 C   0  0  0  0  0  0  0  0  0  0  0  0
  -30.4127  -17.1119   18.6209 C   0  0  0  0  0  0  0  0  0  0  0  0
  -29.2917  -12.9132   18.3421 C   0  0  0  0  0  0  0  0  0  0  0  0
  -26.7867  -33.0381   24.5215 C   0  0  1  0  0  0  0  0  0  0  0  0
  -24.8986  -31.3057   21.7167 C   0  0  1  0  0  0  0  0  0  0  0  0
  -28.2941  -12.0549   19.1354 C   0  0  1  0  0  0  0  0  0  0  0  0
  -29.4768  -19.3104   19.4791 C   0  0  0  0  0  0  0  0  0  0  0  0
  -30.1559  -24.4344   20.7164 C   0  0  0  0  0  0  0  0  0  0  0  0
  -27.5658  -23.9814   16.4538 C   0  0  0  0  0  0  0  0  0  0  0  0
  -30.8658  -21.6299   20.5782 C   0  0  0  0  0  0  0  0  0  0  0  0
  -28.2794  -21.1766   16.3235 C   0  0  0  0  0  0  0  0  0  0  0  0
  -17.9914  -27.8077   21.9587 C   0  0  0  0  0  0  0  0  0  0  0  0
  -23.1827  -29.6073   25.6578 C   0  0  0  0  0  0  0  0  0  0  0  0
  -21.0541  -28.3080   25.4360 C   0  0  0  0  0  0  0  0  0  0  0  0
  -21.0235  -30.7936   25.2278 C   0  0  0  0  0  0  0  0  0  0  0  0
  -20.1051  -28.4500   18.8611 C   0  0  0  0  0  0  0  0  0  0  0  0
  -28.5059  -25.6081   18.6517 C   0  0  0  0  0  0  0  0  0  1  0  0
  -22.0172  -29.4058   23.3628 C   0  0  1  0  0  0  0  0  0  0  0  0
  -19.0898  -28.4717   21.1430 C   0  0  2  0  0  0  0  0  0  0  0  0
  -21.8409  -29.5244   24.9030 C   0  0  0  0  0  0  0  0  0  0  0  0
  -29.0683   -9.7155   19.2288 N   0  0  0  0  0  0  0  0  0  0  0  0
  -28.2639  -10.6196   18.6445 N   0  0  0  0  0  0  0  0  0  0  0  0
  -23.9946  -30.2274   22.1223 N   0  0  0  0  0  0  0  0  0  0  0  0
  -29.3009  -14.2916   18.8364 N   0  0  0  0  0  0  0  0  0  0  0  0
  -29.0381  -16.6332   18.4213 N   0  0  0  0  0  0  0  0  0  0  0  0
  -26.6272  -10.8769   16.9516 N   0  0  0  0  0  0  0  0  0  0  0  0
  -27.6952   -6.4953   16.7111 N   0  0  0  0  0  0  0  0  0  0  0  0
  -25.8914  -32.6835   23.4412 N   0  0  0  0  0  0  0  0  0  0  0  0
  -20.7626  -29.3528   22.6200 N   0  0  0  0  0  0  0  0  0  0  0  0
  -19.0885  -27.8734   19.7781 N   0  3  0  0  0  0  0  0  0  0  0  0
  -26.3917   -8.1469   15.7990 O   0  0  0  0  0  0  0  0  0  0  0  0
  -26.6764  -30.5246   23.0599 O   0  0  0  0  0  0  0  0  0  0  0  0
  -22.3713  -31.7063   22.9059 O   0  0  0  0  0  0  0  0  0  0  0  0
  -21.1577  -27.3086   21.5991 O   0  0  0  0  0  0  0  0  0  0  0  0
  -28.0144  -15.0572   17.0823 O   0  0  0  0  0  0  0  0  0  0  0  0
  -31.4103   -3.8316   19.8951 O   0  0  0  0  0  0  0  0  0  0  0  0
  -29.8943  -20.1312   18.3903 O   0  0  0  0  0  0  0  0  0  0  0  0
  -27.5060  -25.7892   19.6444 O   0  0  0  0  0  0  0  0  0  1  0  0
  -28.3512    0.7349   20.3348 F   0  0  0  0  0  0  0  0  0  0  0  0
  -31.2970   -2.4236   22.2716 F   0  0  0  0  0  0  0  0  0  0  0  0
  1  2  1  0  0  0  0
  1  5  2  0  0  0  0
  2  6  2  0  0  0  0
  3  8  2  0  0  0  0
  3 15  1  0  0  0  0
  4  9  1  0  0  0  0
  4 15  2  0  0  0  0
  5 17  1  0  0  0  0
  6 19  1  0  0  0  0
  7 10  2  0  0  0  0
  7 18  1  0  0  0  0
  8 26  1  0  0  0  0
  9 26  2  0  0  0  0
 10 27  1  0  0  0  0
 11 12  2  0  0  0  0
 11 28  1  0  0  0  0
 12 30  1  0  0  0  0
 13 20  1  0  0  0  0
 13 27  2  0  0  0  0
 14 30  2  0  0  0  0
 14 31  1  0  0  0  0
 15 32  1  0  0  0  0
 16 32  1  0  0  0  0
 16 33  2  0  0  0  0
 16 34  1  0  0  0  0
 17 19  2  0  0  0  0
 17 39  1  0  0  0  0
 18 20  2  0  0  0  0
 18 40  1  0  0  0  0
 19 52  1  0  0  0  0
 20 41  1  0  0  0  0
 21 23  1  0  0  0  0
 21 24  2  0  0  0  0
 21 56  1  0  0  0  0
 22 23  2  0  0  0  0
 22 25  1  0  0  0  0
 22 57  1  0  0  0  0
 23 65  1  0  0  0  0
 24 29  1  0  0  0  0
 24 58  1  0  0  0  0
 25 29  2  0  0  0  0
 25 59  1  0  0  0  0
 26 84  1  0  0  0  0
 27 86  1  0  0  0  0
 28 31  2  0  0  0  0
 28 84  1  0  0  0  0
 29 85  1  0  0  0  0
 30 87  1  0  0  0  0
 31 88  1  0  0  0  0
 32 69  2  0  0  0  0
 33 70  1  0  0  0  0
 33 74  1  0  0  0  0
 34 75  1  0  0  0  0
 34 79  2  0  0  0  0
 35 53  1  0  0  0  0
 35 76  1  0  0  0  0
 35 80  2  0  0  0  0
 36 66  1  0  0  0  0
 36 71  1  0  0  0  0
 36 81  2  0  0  0  0
 37 67  1  0  0  0  0
 37 77  1  0  0  0  0
 37 82  2  0  0  0  0
 38 72  1  0  0  0  0
 38 73  1  0  0  0  0
 38 83  2  0  0  0  0
 39 42  1  0  0  0  0
 40 53  1  0  0  0  0
 41 71  1  0  0  0  0
 42 44  1  0  0  0  0
 43 45  1  0  0  0  0
 43 48  1  0  0  0  0
 44 52  1  0  0  0  0
 45 54  1  0  0  0  0
 46 49  1  0  0  0  0
 46 55  1  0  0  0  0
 47 50  1  0  0  0  0
 47 55  1  0  0  0  0
 48 72  1  0  0  0  0
 49 73  1  0  0  0  0
 50 73  1  0  0  0  0
 51 54  1  0  0  0  0
 51 72  1  0  0  0  0
 52 76  1  0  0  0  0
 53 71  1  0  0  0  0
 54 70  1  0  0  0  0
 55 85  1  0  0  0  0
 60 67  1  0  0  0  0
 61 68  1  0  0  0  0
 62 68  1  0  0  0  0
 63 68  1  0  0  0  0
 64 78  1  0  0  0  0
 65 86  1  0  0  0  0
 66 68  1  0  0  0  0
 66 77  1  0  0  0  0
 67 78  1  0  0  0  0
 69 70  1  0  0  0  0
M  CHG  1  78   1
M  ISO  4  38 100  65 101  73 100  86 101
M  END
> <Batch ID>
0160

> <Smiles>
CNC(C)C(=O)NC(C(=O)N1Cc2cc([101O:1][101CH2:1]c3c(C)c(C)c(OC4CC[100N:0]([100C:0](=O)N5CCCC(n6nc(-c7ccc(Oc8ccc(F)cc8F)cc7)c(C(N)=O)c6N)C5)CC4)c(C)c3C)ccc2CC1C(=O)NC1CCCc2ccccc21)C(C)(C)C

> <Shape>
0.259

> <Color>
0.066

> <Negative vol penalty>
0.000

$$$$

  -OEChem-04052322093D

 88 97  0     1  0  0  0  0  0999 V2000
  -23.0957   -7.9226   21.8024 C   0  0  0  0  0  0  0  0  0  0  0  0
  -24.2184   -8.7390   21.7094 C   0  0  0  0  0  0  0  0  0  0  0  0
  -22.7037  -25.3845   20.5831 C   0  0  0  0  0  0  0  0  0  0  0  0
  -23.1894  -26.5180   22.6607 C   0  0  0  0  0  0  0  0  0  0  0  0
  -21.8447   -8.4149   21.4330 C   0  0  0  0  0  0  0  0  0  0  0  0
  -24.0907  -10.0479   21.2458 C   0  0  0  0  0  0  0  0  0  0  0  0
  -26.6808  -13.3670   24.0600 C   0  0  0  0  0  0  0  0  0  0  0  0
  -21.3394  -25.4510   20.8658 C   0  0  0  0  0  0  0  0  0  0  0  0
  -21.8251  -26.5845   22.9433 C   0  0  0  0  0  0  0  0  0  0  0  0
  -28.0582  -13.4367   23.8558 C   0  0  0  0  0  0  0  0  0  0  0  0
  -18.4504  -27.3743   24.0416 C   0  0  0  0  0  0  0  0  0  0  0  0
  -17.9439  -28.5843   24.5160 C   0  0  0  0  0  0  0  0  0  0  0  0
  -27.7500  -15.3994   22.4876 C   0  0  0  0  0  0  0  0  0  0  0  0
  -30.7005  -14.2580   17.9460 C   0  0  0  0  0  0  0  0  0  0  0  0
  -18.6708  -29.6826   22.4905 C   0  0  0  0  0  0  0  0  0  0  0  0
  -23.6287  -25.9179   21.4807 C   0  0  0  0  0  0  0  0  0  0  0  0
  -25.8095  -26.7977   20.4919 C   0  0  0  0  0  0  0  0  0  0  0  0
  -21.7002   -9.7335   20.9737 C   0  0  0  0  0  0  0  0  0  0  0  0
  -25.8252  -14.3082   23.4696 C   0  0  0  0  0  0  0  0  0  0  0  0
  -22.8367  -10.5578   20.8685 C   0  0  0  0  0  0  0  0  0  0  0  0
  -26.3624  -15.3410   22.6879 C   0  0  0  0  0  0  0  0  0  0  0  0
  -30.7617  -12.9277   18.3456 C   0  0  0  0  0  0  0  0  0  0  0  0
  -31.1403  -12.6150   19.6465 C   0  0  0  0  0  0  0  0  0  0  0  0
  -20.9001  -26.0510   22.0458 C   0  0  0  0  0  0  0  0  0  0  0  0
  -28.5928  -14.4513   23.0672 C   0  0  0  0  0  0  0  0  0  0  0  0
  -19.0672  -27.3185   22.7917 C   0  0  0  0  0  0  0  0  0  0  0  0
  -18.0540  -29.7384   23.7405 C   0  0  0  0  0  0  0  0  0  0  0  0
  -19.1773  -28.4727   22.0162 C   0  0  0  0  0  0  0  0  0  0  0  0
  -25.0382  -25.8490   21.1896 C   0  0  0  0  0  0  0  0  0  0  0  0
  -31.4453  -13.6611   20.5023 C   0  0  0  0  0  0  0  0  0  0  0  0
  -31.0250  -15.2306   18.8780 C   0  0  0  0  0  0  0  0  0  0  0  0
  -27.0777  -26.2704   20.4841 C   0  0  0  0  0  0  0  0  0  0  0  0
  -25.4149  -28.0442   19.9035 C   0  0  0  0  0  0  0  0  0  0  0  0
  -23.4457  -14.1681   21.3668 C   0  0  0  0  0  0  0  0  0  0  0  0
  -23.1432  -17.3166   22.0862 C   0  0  0  0  0  0  0  0  0  0  0  0
  -24.5995  -20.1758   23.2485 C   0  0  0  0  0  0  0  0  0  0  0  0
  -29.8429  -21.4566   20.0120 C   0  0  0  0  0  0  0  0  0  0  0  0
  -20.3348  -10.2060   20.5411 C   0  0  0  0  0  0  0  0  0  0  0  0
  -24.3441  -14.2349   23.7214 C   0  0  0  0  0  0  0  0  0  0  0  0
  -25.4887  -16.3879   22.0484 C   0  0  0  0  0  0  0  0  0  0  0  0
  -20.2271  -11.7234   20.4146 C   0  0  0  0  0  0  0  0  0  0  0  0
  -29.4830  -22.9110   23.1876 C   0  0  0  0  0  0  0  0  0  0  0  0
  -21.4246  -12.2818   19.6523 C   0  0  0  0  0  0  0  0  0  0  0  0
  -28.3654  -23.9221   22.9333 C   0  0  0  0  0  0  0  0  0  0  0  0
  -30.0793  -17.9528   20.2483 C   0  0  0  0  0  0  0  0  0  0  0  0
  -31.6067  -18.8998   18.4769 C   0  0  0  0  0  0  0  0  0  0  0  0
  -29.2307  -21.5848   22.4680 C   0  0  0  0  0  0  0  0  0  0  0  0
  -30.3066  -19.2105   21.0922 C   0  0  0  0  0  0  0  0  0  0  0  0
  -31.8253  -20.1214   19.3650 C   0  0  0  0  0  0  0  0  0  0  0  0
  -27.8612  -22.7393   20.7622 C   0  0  0  0  0  0  0  0  0  0  0  0
  -22.7350  -11.9911   20.3938 C   0  0  1  0  0  0  0  0  0  0  0  0
  -23.5203  -14.9443   22.6511 C   0  0  1  0  0  0  0  0  0  0  0  0
  -28.1158  -24.1019   21.4252 C   0  0  1  0  0  0  0  0  0  0  0  0
  -31.2680  -17.6719   19.3262 C   0  0  0  0  0  0  0  0  0  0  0  0
  -30.4182  -11.8566   17.3639 C   0  0  0  0  0  0  0  0  0  0  0  0
  -31.2184  -11.1963   20.1012 C   0  0  0  0  0  0  0  0  0  0  0  0
  -32.8651  -14.4308   22.4319 C   0  0  0  0  0  0  0  0  0  0  0  0
  -24.1113  -22.5984   23.6847 C   0  0  0  0  0  0  0  0  0  0  0  0
  -23.3226  -17.8890   19.0945 C   0  0  0  0  0  0  0  0  0  0  0  0
  -23.7849  -20.2857   19.6515 C   0  0  0  0  0  0  0  0  0  0  0  0
  -21.6158  -19.2486   20.3162 C   0  0  0  0  0  0  0  0  0  0  0  0
  -25.1567  -19.8871   26.1407 C   0  0  0  0  0  0  0  0  0  0  0  0
  -30.6606  -13.2912   22.8819 C   0  0  0  0  0  0  0  0  0  1  0  0
  -31.8588  -13.3863   21.9112 C   0  0  1  0  0  0  0  0  0  0  0  0
  -23.7282  -18.5982   21.5437 C   0  0  1  0  0  0  0  0  0  0  0  0
  -24.1383  -21.1964   24.2733 C   0  0  2  0  0  0  0  0  0  0  0  0
  -23.1294  -18.9846   20.1618 C   0  0  0  0  0  0  0  0  0  0  0  0
  -25.7563  -24.7985   21.5954 N   0  0  0  0  0  0  0  0  0  0  0  0
  -31.3972  -14.9655   20.1504 N   0  0  0  0  0  0  0  0  0  0  0  0
  -26.9922  -25.0839   21.1513 N   0  0  0  0  0  0  0  0  0  0  0  0
  -24.0464  -16.2698   22.3190 N   0  0  0  0  0  0  0  0  0  0  0  0
  -28.9582  -21.8103   21.0417 N   0  0  0  0  0  0  0  0  0  0  0  0
  -30.6746  -20.3500   20.2395 N   0  0  0  0  0  0  0  0  0  0  0  0
  -28.2465  -26.7104   19.9715 N   0  0  0  0  0  0  0  0  0  0  0  0
  -24.0726  -28.4349   20.0033 N   0  0  0  0  0  0  0  0  0  0  0  0
  -30.9605  -16.5500   18.4666 N   0  0  0  0  0  0  0  0  0  0  0  0
  -22.9014  -12.9053   21.5033 N   0  0  0  0  0  0  0  0  0  0  0  0
  -23.5360  -19.6059   22.5810 N   0  0  0  0  0  0  0  0  0  0  0  0
  -25.0526  -21.1983   25.4501 N   0  3  0  0  0  0  0  0  0  0  0  0
  -26.2252  -28.7817   19.2927 O   0  0  0  0  0  0  0  0  0  0  0  0
  -23.8505  -14.6777   20.3285 O   0  0  0  0  0  0  0  0  0  0  0  0
  -21.9306  -17.2493   22.3023 O   0  0  0  0  0  0  0  0  0  0  0  0
  -25.7847  -19.9134   23.0565 O   0  0  0  0  0  0  0  0  0  0  0  0
  -29.8873  -22.0921   18.9512 O   0  0  0  0  0  0  0  0  0  0  0  0
  -19.5689  -26.1163   22.3218 O   0  0  0  0  0  0  0  0  0  0  0  0
  -29.9456  -14.5217   22.8645 O   0  0  0  0  0  0  0  0  0  1  0  0
  -17.5662  -30.8999   24.1955 F   0  0  0  0  0  0  0  0  0  0  0  0
  -19.7678  -28.4250   20.8141 F   0  0  0  0  0  0  0  0  0  0  0  0
  1  2  1  0  0  0  0
  1  5  2  0  0  0  0
  2  6  2  0  0  0  0
  3  8  2  0  0  0  0
  3 16  1  0  0  0  0
  4  9  1  0  0  0  0
  4 16  2  0  0  0  0
  5 18  1  0  0  0  0
  6 20  1  0  0  0  0
  7 10  2  0  0  0  0
  7 19  1  0  0  0  0
  8 24  1  0  0  0  0
  9 24  2  0  0  0  0
 10 25  1  0  0  0  0
 11 12  2  0  0  0  0
 11 26  1  0  0  0  0
 12 27  1  0  0  0  0
 13 21  1  0  0  0  0
 13 25  2  0  0  0  0
 14 22  2  0  0  0  0
 14 31  1  0  0  0  0
 15 27  2  0  0  0  0
 15 28  1  0  0  0  0
 16 29  1  0  0  0  0
 17 29  1  0  0  0  0
 17 32  2  0  0  0  0
 17 33  1  0  0  0  0
 18 20  2  0  0  0  0
 18 38  1  0  0  0  0
 19 21  2  0  0  0  0
 19 39  1  0  0  0  0
 20 51  1  0  0  0  0
 21 40  1  0  0  0  0
 22 23  1  0  0  0  0
 22 55  1  0  0  0  0
 23 30  2  0  0  0  0
 23 56  1  0  0  0  0
 24 85  1  0  0  0  0
 25 86  1  0  0  0  0
 26 28  2  0  0  0  0
 26 85  1  0  0  0  0
 27 87  1  0  0  0  0
 28 88  1  0  0  0  0
 29 68  2  0  0  0  0
 30 64  1  0  0  0  0
 30 69  1  0  0  0  0
 31 69  2  0  0  0  0
 31 76  1  0  0  0  0
 32 70  1  0  0  0  0
 32 74  1  0  0  0  0
 33 75  1  0  0  0  0
 33 80  2  0  0  0  0
 34 52  1  0  0  0  0
 34 77  1  0  0  0  0
 34 81  2  0  0  0  0
 35 65  1  0  0  0  0
 35 71  1  0  0  0  0
 35 82  2  0  0  0  0
 36 66  1  0  0  0  0
 36 78  1  0  0  0  0
 36 83  2  0  0  0  0
 37 72  1  0  0  0  0
 37 73  1  0  0  0  0
 37 84  2  0  0  0  0
 38 41  1  0  0  0  0
 39 52  1  0  0  0  0
 40 71  1  0  0  0  0
 41 43  1  0  0  0  0
 42 44  1  0  0  0  0
 42 47  1  0  0  0  0
 43 51  1  0  0  0  0
 44 53  1  0  0  0  0
 45 48  1  0  0  0  0
 45 54  1  0  0  0  0
 46 49  1  0  0  0  0
 46 54  1  0  0  0  0
 47 72  1  0  0  0  0
 48 73  1  0  0  0  0
 49 73  1  0  0  0  0
 50 53  1  0  0  0  0
 50 72  1  0  0  0  0
 51 77  1  0  0  0  0
 52 71  1  0  0  0  0
 53 70  1  0  0  0  0
 54 76  1  0  0  0  0
 57 64  1  0  0  0  0
 58 66  1  0  0  0  0
 59 67  1  0  0  0  0
 60 67  1  0  0  0  0
 61 67  1  0  0  0  0
 62 79  1  0  0  0  0
 63 64  1  0  0  0  0
 63 86  1  0  0  0  0
 65 67  1  0  0  0  0
 65 78  1  0  0  0  0
 66 79  1  0  0  0  0
 68 70  1  0  0  0  0
M  CHG  1  79   1
M  ISO  4  37 100  63 101  73 100  86 101
M  END
> <Batch ID>
0160

> <Smiles>
CNC(C)C(=O)NC(C(=O)N1Cc2cc([101O:1][101CH2:1]C(C)c3nc(NC4CC[100N:0]([100C:0](=O)N5CCCC(n6nc(-c7ccc(Oc8ccc(F)cc8F)cc7)c(C(N)=O)c6N)C5)CC4)cc(C)c3C)ccc2CC1C(=O)NC1CCCc2ccccc21)C(C)(C)C

> <Shape>
0.217

> <Color>
0.073

> <Negative vol penalty>
0.000

$$$$

  -OEChem-04052322093D

 89 98  0     1  0  0  0  0  0999 V2000
  -18.8475  -26.7443   23.7704 C   0  0  0  0  0  0  0  0  0  0  0  0
  -19.8505  -26.3467   22.8923 C   0  0  0  0  0  0  0  0  0  0  0  0
  -23.7002   -9.6639   19.8689 C   0  0  0  0  0  0  0  0  0  0  0  0
  -23.8159   -9.9492   22.2652 C   0  0  0  0  0  0  0  0  0  0  0  0
  -18.4102  -28.0682   23.7740 C   0  0  0  0  0  0  0  0  0  0  0  0
  -20.4162  -27.2725   22.0164 C   0  0  0  0  0  0  0  0  0  0  0  0
  -25.4662  -26.9422   21.8356 C   0  0  0  0  0  0  0  0  0  0  0  0
  -23.1148   -8.4103   20.0464 C   0  0  0  0  0  0  0  0  0  0  0  0
  -23.2305   -8.6956   22.4427 C   0  0  0  0  0  0  0  0  0  0  0  0
  -26.0098  -25.9050   21.0789 C   0  0  0  0  0  0  0  0  0  0  0  0
  -20.1325   -7.3528   22.3028 C   0  0  0  0  0  0  0  0  0  0  0  0
  -19.1102   -7.2442   23.2456 C   0  0  0  0  0  0  0  0  0  0  0  0
  -26.4153  -27.4466   19.2683 C   0  0  0  0  0  0  0  0  0  0  0  0
  -20.4115   -5.6174   24.4693 C   0  0  0  0  0  0  0  0  0  0  0  0
  -24.0508  -10.4333   20.9783 C   0  0  0  0  0  0  0  0  0  0  0  0
  -23.9962  -12.9663   20.6803 C   0  0  0  0  0  0  0  0  0  0  0  0
  -18.9775  -29.0130   22.9044 C   0  0  0  0  0  0  0  0  0  0  0  0
  -25.3830  -28.2393   21.3093 C   0  0  0  0  0  0  0  0  0  0  0  0
  -19.9851  -28.6100   22.0074 C   0  0  0  0  0  0  0  0  0  0  0  0
  -25.8726  -28.4990   20.0213 C   0  0  0  0  0  0  0  0  0  0  0  0
  -22.8799   -7.9262   21.3333 C   0  0  0  0  0  0  0  0  0  0  0  0
  -26.4818  -26.1566   19.7939 C   0  0  0  0  0  0  0  0  0  0  0  0
  -21.2942   -6.5936   22.4432 C   0  0  0  0  0  0  0  0  0  0  0  0
  -19.2497   -6.3766   24.3288 C   0  0  0  0  0  0  0  0  0  0  0  0
  -21.4337   -5.7260   23.5264 C   0  0  0  0  0  0  0  0  0  0  0  0
  -24.6560  -11.7281   20.7956 C   0  0  0  0  0  0  0  0  0  0  0  0
  -25.0083  -13.8814   20.5233 C   0  0  0  0  0  0  0  0  0  0  0  0
  -22.5937  -13.2627   20.7123 C   0  0  0  0  0  0  0  0  0  0  0  0
  -23.0054  -30.2391   20.6374 C   0  0  0  0  0  0  0  0  0  0  0  0
  -25.4329  -32.2984   20.0134 C   0  0  0  0  0  0  0  0  0  0  0  0
  -28.7050  -32.7441   19.1525 C   0  0  0  0  0  0  0  0  0  0  0  0
  -29.6169  -15.5211   18.1975 C   0  0  0  0  0  0  0  0  0  0  0  0
  -18.4391  -30.4218   22.9119 C   0  0  0  0  0  0  0  0  0  0  0  0
  -24.8184  -29.3526   22.1485 C   0  0  0  0  0  0  0  0  0  0  0  0
  -25.8248  -29.8782   19.4180 C   0  0  0  0  0  0  0  0  0  0  0  0
  -19.3514  -31.4262   22.2125 C   0  0  0  0  0  0  0  0  0  0  0  0
  -29.9994  -13.4217   21.0801 C   0  0  0  0  0  0  0  0  0  0  0  0
  -19.8236  -30.8746   20.8710 C   0  0  0  0  0  0  0  0  0  0  0  0
  -28.5862  -12.8655   21.2348 C   0  0  0  0  0  0  0  0  0  0  0  0
  -32.5946  -16.8451   16.4253 C   0  0  0  0  0  0  0  0  0  0  0  0
  -30.4093  -13.5656   19.6131 C   0  0  0  0  0  0  0  0  0  0  0  0
  -31.8491  -14.7434   17.2481 C   0  0  0  0  0  0  0  0  0  0  0  0
  -28.0295  -13.7813   18.9552 C   0  0  0  0  0  0  0  0  0  0  0  0
  -29.8119  -20.8221   17.7953 C   0  0  0  0  0  0  0  0  0  0  0  0
  -20.6406  -29.5906   21.0593 C   0  0  1  0  0  0  0  0  0  0  0  0
  -24.3129  -30.5289   21.3188 C   0  0  1  0  0  0  0  0  0  0  0  0
  -32.5163  -15.3716   16.0267 C   0  0  2  0  0  0  0  0  0  0  0  0
  -27.5817  -13.6980   20.4215 C   0  0  1  0  0  0  0  0  0  0  0  0
  -31.2673  -17.0782   17.1554 C   0  0  2  0  0  0  0  0  0  0  0  0
  -31.5505  -21.0453   19.5155 C   0  0  1  0  0  0  0  0  0  0  0  0
  -30.8059  -20.1968   16.8171 C   0  0  2  0  0  0  0  0  0  0  0  0
  -32.5779  -20.4032   18.5418 C   0  0  1  0  0  0  0  0  0  0  0  0
  -33.8699  -14.7651   15.7025 C   0  0  0  0  0  0  0  0  0  0  0  0
  -32.2722  -22.0344   20.4499 C   0  0  0  0  0  0  0  0  0  0  0  0
  -30.1310  -19.3104   15.7763 C   0  0  0  0  0  0  0  0  0  0  0  0
  -33.7571  -19.6961   19.2117 C   0  0  0  0  0  0  0  0  0  0  0  0
  -30.3907  -34.5424   18.6817 C   0  0  0  0  0  0  0  0  0  0  0  0
  -24.1665  -32.7656   17.2770 C   0  0  0  0  0  0  0  0  0  0  0  0
  -26.3288  -33.7806   16.5271 C   0  0  0  0  0  0  0  0  0  0  0  0
  -25.0402  -34.8287   18.3882 C   0  0  0  0  0  0  0  0  0  0  0  0
  -30.4355  -31.8685   21.3881 C   0  0  0  0  0  0  0  0  0  0  0  0
  -31.3932  -18.1457   18.2345 C   0  0  0  0  0  0  0  0  0  0  0  0
  -28.7398  -23.4605   18.8918 C   0  0  0  0  0  0  0  0  0  0  0  0
  -29.4507  -22.3243   19.6200 C   0  0  0  0  0  0  0  0  0  0  0  0
  -27.6577  -24.0897   19.7605 C   0  0  0  0  0  0  0  0  0  1  0  0
  -26.2521  -32.6473   18.7944 C   0  0  1  0  0  0  0  0  0  0  0  0
  -29.7893  -33.6299   19.7392 C   0  0  2  0  0  0  0  0  0  0  0  0
  -25.4462  -33.4791   17.7570 C   0  0  0  0  0  0  0  0  0  0  0  0
  -25.9845  -11.8426   20.7183 N   0  0  0  0  0  0  0  0  0  0  0  0
  -26.1676  -13.1636   20.5527 N   0  0  0  0  0  0  0  0  0  0  0  0
  -25.2579  -30.9322   20.2755 N   0  0  0  0  0  0  0  0  0  0  0  0
  -29.3963  -14.2981   18.8440 N   0  0  0  0  0  0  0  0  0  0  0  0
  -30.8991  -15.7641   17.6977 N   0  0  0  0  0  0  0  0  0  0  0  0
  -30.4713  -21.7244   18.7542 N   0  0  2  0  0  0  0  0  0  0  0  0
  -25.0107  -15.2220   20.3643 N   0  0  0  0  0  0  0  0  0  0  0  0
  -21.6908  -12.2042   20.8811 N   0  0  0  0  0  0  0  0  0  0  0  0
  -21.9816  -29.9054   21.5034 N   0  0  0  0  0  0  0  0  0  0  0  0
  -27.4549  -33.3100   19.2869 N   0  0  0  0  0  0  0  0  0  0  0  0
  -31.8535  -19.4042   17.6104 N   0  3  1  0  0  0  0  0  0  0  0  0
  -30.8815  -32.7973   20.3178 N   0  3  0  0  0  0  0  0  0  0  0  0
  -22.1536  -14.4297   20.5781 O   0  0  0  0  0  0  0  0  0  0  0  0
  -22.9306  -30.3144   19.4166 O   0  0  0  0  0  0  0  0  0  0  0  0
  -24.9714  -33.2046   20.7116 O   0  0  0  0  0  0  0  0  0  0  0  0
  -28.9436  -31.6603   18.6243 O   0  0  0  0  0  0  0  0  0  0  0  0
  -28.7046  -16.3441   18.0467 O   0  0  0  0  0  0  0  0  0  0  0  0
  -22.3085   -6.7031   21.5068 O   0  0  0  0  0  0  0  0  0  0  0  0
  -27.0160  -25.1386   19.0476 O   0  0  0  0  0  0  0  0  0  1  0  0
  -18.2686   -6.2736   25.2349 F   0  0  0  0  0  0  0  0  0  0  0  0
  -22.5480   -4.9950   23.6673 F   0  0  0  0  0  0  0  0  0  0  0  0
  1  2  1  0  0  0  0
  1  5  2  0  0  0  0
  2  6  2  0  0  0  0
  3  8  2  0  0  0  0
  3 15  1  0  0  0  0
  4  9  1  0  0  0  0
  4 15  2  0  0  0  0
  5 17  1  0  0  0  0
  6 19  1  0  0  0  0
  7 10  2  0  0  0  0
  7 18  1  0  0  0  0
  8 21  1  0  0  0  0
  9 21  2  0  0  0  0
 10 22  1  0  0  0  0
 11 12  2  0  0  0  0
 11 23  1  0  0  0  0
 12 24  1  0  0  0  0
 13 20  1  0  0  0  0
 13 22  2  0  0  0  0
 14 24  2  0  0  0  0
 14 25  1  0  0  0  0
 15 26  1  0  0  0  0
 16 26  1  0  0  0  0
 16 27  2  0  0  0  0
 16 28  1  0  0  0  0
 17 19  2  0  0  0  0
 17 33  1  0  0  0  0
 18 20  2  0  0  0  0
 18 34  1  0  0  0  0
 19 45  1  0  0  0  0
 20 35  1  0  0  0  0
 21 86  1  0  0  0  0
 22 87  1  0  0  0  0
 23 25  2  0  0  0  0
 23 86  1  0  0  0  0
 24 88  1  0  0  0  0
 25 89  1  0  0  0  0
 26 69  2  0  0  0  0
 27 70  1  0  0  0  0
 27 75  1  0  0  0  0
 28 76  1  0  0  0  0
 28 81  2  0  0  0  0
 29 46  1  0  0  0  0
 29 77  1  0  0  0  0
 29 82  2  0  0  0  0
 30 66  1  0  0  0  0
 30 71  1  0  0  0  0
 30 83  2  0  0  0  0
 31 67  1  0  0  0  0
 31 78  1  0  0  0  0
 31 84  2  0  0  0  0
 32 72  1  0  0  0  0
 32 73  1  0  0  0  0
 32 85  2  0  0  0  0
 33 36  1  0  0  0  0
 34 46  1  0  0  0  0
 35 71  1  0  0  0  0
 36 38  1  0  0  0  0
 37 39  1  0  0  0  0
 37 41  1  0  0  0  0
 38 45  1  0  0  0  0
 39 48  1  0  0  0  0
 40 47  1  0  0  0  0
 40 49  1  0  0  0  0
 41 72  1  0  0  0  0
 42 47  1  0  0  0  0
 42 73  1  0  0  0  0
 43 48  1  0  0  0  0
 43 72  1  0  0  0  0
 44 51  1  0  0  0  0
 44 74  1  0  0  0  0
 45 77  1  0  0  0  0
 46 71  1  0  0  0  0
 47 53  1  0  0  0  0
 48 70  1  0  0  0  0
 49 62  1  0  0  0  0
 49 73  1  0  0  0  0
 50 52  1  0  0  0  0
 50 54  1  0  0  0  0
 50 74  1  0  0  0  0
 51 55  1  0  0  0  0
 51 79  1  0  0  0  0
 52 56  1  0  0  0  0
 52 79  1  0  0  0  0
 57 67  1  0  0  0  0
 58 68  1  0  0  0  0
 59 68  1  0  0  0  0
 60 68  1  0  0  0  0
 61 80  1  0  0  0  0
 62 79  1  0  0  0  0
 63 64  1  0  0  0  0
 63 65  1  0  0  0  0
 64 74  1  0  0  0  0
 65 87  1  0  0  0  0
 66 68  1  0  0  0  0
 66 78  1  0  0  0  0
 67 80  1  0  0  0  0
 69 70  1  0  0  0  0
M  CHG  2  79   1  80   1
M  ISO  4  32 100  65 101  73 100  87 101
M  END
> <Batch ID>
0160

> <Smiles>
CNC(C)C(=O)NC(C(=O)N1Cc2cc([101O:1][101CH2:1]CCN3CC(C)N(CC4CC(C)C[100N:0]4[100C:0](=O)N4CCCC(n5nc(-c6ccc(Oc7ccc(F)cc7F)cc6)c(C(N)=O)c5N)C4)C(C)C3C)ccc2CC1C(=O)NC1CCCc2ccccc21)C(C)(C)C

> <Shape>
0.265

> <Color>
0.181

> <Negative vol penalty>
0.000

$$$$

  -OEChem-04052322093D

 85 94  0     1  0  0  0  0  0999 V2000
  -13.8074  -27.8375   14.2835 C   0  0  0  0  0  0  0  0  0  0  0  0
  -14.7672  -26.8306   14.2742 C   0  0  0  0  0  0  0  0  0  0  0  0
  -23.1953   -9.8155   19.9286 C   0  0  0  0  0  0  0  0  0  0  0  0
  -23.5406  -10.0045   22.3123 C   0  0  0  0  0  0  0  0  0  0  0  0
  -13.9147  -28.8931   15.1880 C   0  0  0  0  0  0  0  0  0  0  0  0
  -15.8357  -26.8791   15.1689 C   0  0  0  0  0  0  0  0  0  0  0  0
  -18.6026  -22.1247   17.8605 C   0  0  0  0  0  0  0  0  0  0  0  0
  -22.4232   -8.6716   20.1311 C   0  0  0  0  0  0  0  0  0  0  0  0
  -22.7685   -8.8606   22.5148 C   0  0  0  0  0  0  0  0  0  0  0  0
  -19.7770  -21.4333   17.5663 C   0  0  0  0  0  0  0  0  0  0  0  0
  -23.1646   -5.5119   22.2697 C   0  0  0  0  0  0  0  0  0  0  0  0
  -23.6481   -4.5528   23.1596 C   0  0  0  0  0  0  0  0  0  0  0  0
  -20.9712  -22.7964   19.1585 C   0  0  0  0  0  0  0  0  0  0  0  0
  -21.6729   -4.8233   24.5243 C   0  0  0  0  0  0  0  0  0  0  0  0
  -24.7013  -17.5934   17.2404 C   0  0  0  0  0  0  0  0  0  0  0  0
  -23.7540  -10.4819   21.0192 C   0  0  0  0  0  0  0  0  0  0  0  0
  -24.1026  -12.9967   20.7702 C   0  0  0  0  0  0  0  0  0  0  0  0
  -14.9798  -28.9496   16.1008 C   0  0  0  0  0  0  0  0  0  0  0  0
  -18.6060  -23.1661   18.7996 C   0  0  0  0  0  0  0  0  0  0  0  0
  -15.9582  -27.9371   16.0856 C   0  0  0  0  0  0  0  0  0  0  0  0
  -19.7950  -23.4977   19.4647 C   0  0  0  0  0  0  0  0  0  0  0  0
  -25.7762  -18.1514   16.5675 C   0  0  0  0  0  0  0  0  0  0  0  0
  -25.6041  -19.4058   15.9928 C   0  0  0  0  0  0  0  0  0  0  0  0
  -24.3796  -20.0546   16.1070 C   0  0  0  0  0  0  0  0  0  0  0  0
  -22.2098   -8.1942   21.4242 C   0  0  0  0  0  0  0  0  0  0  0  0
  -20.9621  -21.7710   18.2131 C   0  0  0  0  0  0  0  0  0  0  0  0
  -21.9352   -6.1268   22.5071 C   0  0  0  0  0  0  0  0  0  0  0  0
  -22.9023   -4.2085   24.2869 C   0  0  0  0  0  0  0  0  0  0  0  0
  -21.1894   -5.7824   23.6344 C   0  0  0  0  0  0  0  0  0  0  0  0
  -24.5522  -11.6633   20.8106 C   0  0  0  0  0  0  0  0  0  0  0  0
  -23.3671  -19.4112   16.8003 C   0  0  0  0  0  0  0  0  0  0  0  0
  -25.2389  -13.7356   20.5479 C   0  0  0  0  0  0  0  0  0  0  0  0
  -22.7765  -13.5206   20.9204 C   0  0  0  0  0  0  0  0  0  0  0  0
  -17.9803  -26.2808   18.6972 C   0  0  0  0  0  0  0  0  0  0  0  0
  -18.3673  -26.0680   21.9108 C   0  0  0  0  0  0  0  0  0  0  0  0
  -19.7264  -24.4023   24.5613 C   0  0  0  0  0  0  0  0  0  0  0  0
  -30.0175  -14.6654   18.0550 C   0  0  0  0  0  0  0  0  0  0  0  0
  -15.0793  -30.1350   17.0278 C   0  0  0  0  0  0  0  0  0  0  0  0
  -17.3252  -23.8843   19.1254 C   0  0  0  0  0  0  0  0  0  0  0  0
  -19.8476  -24.5942   20.4959 C   0  0  0  0  0  0  0  0  0  0  0  0
  -16.0385  -29.9166   18.1951 C   0  0  0  0  0  0  0  0  0  0  0  0
  -30.1156  -12.4260   20.6870 C   0  0  0  0  0  0  0  0  0  0  0  0
  -17.3501  -29.3133   17.7026 C   0  0  0  0  0  0  0  0  0  0  0  0
  -28.6419  -12.1272   20.9627 C   0  0  0  0  0  0  0  0  0  0  0  0
  -28.0504  -17.7692   17.6168 C   0  0  0  0  0  0  0  0  0  0  0  0
  -26.8748  -15.8733   16.4233 C   0  0  0  0  0  0  0  0  0  0  0  0
  -30.3883  -12.4945   19.1885 C   0  0  0  0  0  0  0  0  0  0  0  0
  -29.3570  -16.9845   17.5276 C   0  0  0  0  0  0  0  0  0  0  0  0
  -28.2073  -15.1326   16.3595 C   0  0  0  0  0  0  0  0  0  0  0  0
  -28.0631  -13.2009   18.7319 C   0  0  0  0  0  0  0  0  0  0  0  0
  -27.0890  -17.3964   16.4750 C   0  0  0  0  0  0  0  0  0  0  0  0
  -17.1184  -27.9417   17.0572 C   0  0  1  0  0  0  0  0  0  0  0  0
  -17.5522  -25.2696   19.7227 C   0  0  1  0  0  0  0  0  0  0  0  0
  -27.7298  -13.1310   20.2356 C   0  0  1  0  0  0  0  0  0  0  0  0
  -26.7328  -20.0524   15.2554 C   0  0  0  0  0  0  0  0  0  0  0  0
  -24.1642  -21.4016   15.5030 C   0  0  0  0  0  0  0  0  0  0  0  0
  -19.8996  -24.4888   27.0633 C   0  0  0  0  0  0  0  0  0  0  0  0
  -20.4062  -28.3271   21.6892 C   0  0  0  0  0  0  0  0  0  0  0  0
  -21.2154  -27.7280   23.9814 C   0  0  0  0  0  0  0  0  0  0  0  0
  -18.8664  -28.5004   23.6522 C   0  0  0  0  0  0  0  0  0  0  0  0
  -18.3904  -21.7784   24.8604 C   0  0  0  0  0  0  0  0  0  0  0  0
  -22.0296  -20.0581   16.9553 C   0  0  0  0  0  0  0  0  0  1  0  0
  -19.5361  -26.1956   22.8577 C   0  0  1  0  0  0  0  0  0  0  0  0
  -19.1247  -23.9391   25.8758 C   0  0  2  0  0  0  0  0  0  0  0  0
  -20.0058  -27.6684   23.0243 C   0  0  0  0  0  0  0  0  0  0  0  0
  -23.4969  -18.1930   17.3721 N   0  0  0  0  0  0  0  0  0  0  0  0
  -25.8711  -11.5581   20.6284 N   0  0  0  0  0  0  0  0  0  0  0  0
  -26.2601  -12.8348   20.4712 N   0  0  0  0  0  0  0  0  0  0  0  0
  -18.5704  -25.2713   20.7751 N   0  0  0  0  0  0  0  0  0  0  0  0
  -29.4982  -13.4531   18.5341 N   0  0  0  0  0  0  0  0  0  0  0  0
  -29.1103  -15.5456   17.4424 N   0  0  0  0  0  0  0  0  0  0  0  0
  -25.4541  -15.0613   20.4123 N   0  0  0  0  0  0  0  0  0  0  0  0
  -21.7243  -12.6220   21.1433 N   0  0  0  0  0  0  0  0  0  0  0  0
  -16.9311  -26.9296   18.0746 N   0  0  0  0  0  0  0  0  0  0  0  0
  -19.1250  -25.5551   24.1023 N   0  0  0  0  0  0  0  0  0  0  0  0
  -19.1364  -22.4510   25.9550 N   0  3  0  0  0  0  0  0  0  0  0  0
  -22.5294  -14.7480   20.8423 O   0  0  0  0  0  0  0  0  0  0  0  0
  -19.1743  -26.4604   18.4875 O   0  0  0  0  0  0  0  0  0  0  0  0
  -17.3105  -26.6479   22.1730 O   0  0  0  0  0  0  0  0  0  0  0  0
  -20.6412  -23.8035   23.9998 O   0  0  0  0  0  0  0  0  0  0  0  0
  -31.2162  -14.9491   18.1711 O   0  0  0  0  0  0  0  0  0  0  0  0
  -21.4562   -7.0782   21.6222 O   0  0  0  0  0  0  0  0  0  0  0  0
  -22.1182  -21.0934   17.9253 O   0  0  0  0  0  0  0  0  0  1  0  0
  -23.3660   -3.2864   25.1406 F   0  0  0  0  0  0  0  0  0  0  0  0
  -20.0071   -6.3688   23.8671 F   0  0  0  0  0  0  0  0  0  0  0  0
  1  2  1  0  0  0  0
  1  5  2  0  0  0  0
  2  6  2  0  0  0  0
  3  8  2  0  0  0  0
  3 16  1  0  0  0  0
  4  9  1  0  0  0  0
  4 16  2  0  0  0  0
  5 18  1  0  0  0  0
  6 20  1  0  0  0  0
  7 10  2  0  0  0  0
  7 19  1  0  0  0  0
  8 25  1  0  0  0  0
  9 25  2  0  0  0  0
 10 26  1  0  0  0  0
 11 12  2  0  0  0  0
 11 27  1  0  0  0  0
 12 28  1  0  0  0  0
 13 21  1  0  0  0  0
 13 26  2  0  0  0  0
 14 28  2  0  0  0  0
 14 29  1  0  0  0  0
 15 22  1  0  0  0  0
 15 66  2  0  0  0  0
 16 30  1  0  0  0  0
 17 30  1  0  0  0  0
 17 32  2  0  0  0  0
 17 33  1  0  0  0  0
 18 20  2  0  0  0  0
 18 38  1  0  0  0  0
 19 21  2  0  0  0  0
 19 39  1  0  0  0  0
 20 52  1  0  0  0  0
 21 40  1  0  0  0  0
 22 23  2  0  0  0  0
 22 51  1  0  0  0  0
 23 24  1  0  0  0  0
 23 55  1  0  0  0  0
 24 31  2  0  0  0  0
 24 56  1  0  0  0  0
 25 82  1  0  0  0  0
 26 83  1  0  0  0  0
 27 29  2  0  0  0  0
 27 82  1  0  0  0  0
 28 84  1  0  0  0  0
 29 85  1  0  0  0  0
 30 67  2  0  0  0  0
 31 62  1  0  0  0  0
 31 66  1  0  0  0  0
 32 68  1  0  0  0  0
 32 72  1  0  0  0  0
 33 73  1  0  0  0  0
 33 77  2  0  0  0  0
 34 53  1  0  0  0  0
 34 74  1  0  0  0  0
 34 78  2  0  0  0  0
 35 63  1  0  0  0  0
 35 69  1  0  0  0  0
 35 79  2  0  0  0  0
 36 64  1  0  0  0  0
 36 75  1  0  0  0  0
 36 80  2  0  0  0  0
 37 70  1  0  0  0  0
 37 71  1  0  0  0  0
 37 81  2  0  0  0  0
 38 41  1  0  0  0  0
 39 53  1  0  0  0  0
 40 69  1  0  0  0  0
 41 43  1  0  0  0  0
 42 44  1  0  0  0  0
 42 47  1  0  0  0  0
 43 52  1  0  0  0  0
 44 54  1  0  0  0  0
 45 48  1  0  0  0  0
 45 51  1  0  0  0  0
 46 49  1  0  0  0  0
 46 51  1  0  0  0  0
 47 70  1  0  0  0  0
 48 71  1  0  0  0  0
 49 71  1  0  0  0  0
 50 54  1  0  0  0  0
 50 70  1  0  0  0  0
 52 74  1  0  0  0  0
 53 69  1  0  0  0  0
 54 68  1  0  0  0  0
 57 64  1  0  0  0  0
 58 65  1  0  0  0  0
 59 65  1  0  0  0  0
 60 65  1  0  0  0  0
 61 76  1  0  0  0  0
 62 83  1  0  0  0  0
 63 65  1  0  0  0  0
 63 75  1  0  0  0  0
 64 76  1  0  0  0  0
 67 68  1  0  0  0  0
M  CHG  1  76   1
M  ISO  4  37 100  62 101  71 100  83 101
M  END
> <Batch ID>
0160

> <Smiles>
CNC(C)C(=O)NC(C(=O)N1Cc2cc([101O:1][101CH2:1]c3ncc(C4CC[100N:0]([100C:0](=O)N5CCCC(n6nc(-c7ccc(Oc8ccc(F)cc8F)cc7)c(C(N)=O)c6N)C5)CC4)c(C)c3C)ccc2CC1C(=O)NC1CCCc2ccccc21)C(C)(C)C

> <Shape>
0.194

> <Color>
0.186

> <Negative vol penalty>
0.000

$$$$

  -OEChem-04052322093D

 85 94  0     1  0  0  0  0  0999 V2000
  -31.9003  -25.8713   16.0627 C   0  0  0  0  0  0  0  0  0  0  0  0
  -30.9514  -25.3044   16.9073 C   0  0  0  0  0  0  0  0  0  0  0  0
  -27.7994  -17.0252   19.0798 C   0  0  0  0  0  0  0  0  0  0  0  0
  -27.3233  -17.3300   21.4287 C   0  0  0  0  0  0  0  0  0  0  0  0
  -32.4646  -27.1063   16.3794 C   0  0  0  0  0  0  0  0  0  0  0  0
  -30.5670  -25.9716   18.0699 C   0  0  0  0  0  0  0  0  0  0  0  0
  -25.5496  -25.9455   18.7560 C   0  0  0  0  0  0  0  0  0  0  0  0
  -28.4041  -18.2815   19.0393 C   0  0  0  0  0  0  0  0  0  0  0  0
  -27.9281  -18.5863   21.3883 C   0  0  0  0  0  0  0  0  0  0  0  0
  -24.9806  -24.7724   19.2498 C   0  0  0  0  0  0  0  0  0  0  0  0
  -31.0664  -19.8397   21.4033 C   0  0  0  0  0  0  0  0  0  0  0  0
  -31.9437  -20.1685   22.4366 C   0  0  0  0  0  0  0  0  0  0  0  0
  -23.4972  -19.9721   23.8442 C   0  0  0  0  0  0  0  0  0  0  0  0
  -24.9054  -25.7447   21.4562 C   0  0  0  0  0  0  0  0  0  0  0  0
  -30.5465  -22.0499   23.0242 C   0  0  0  0  0  0  0  0  0  0  0  0
  -27.2589  -16.5495   20.2745 C   0  0  0  0  0  0  0  0  0  0  0  0
  -27.2511  -14.0196   20.6021 C   0  0  0  0  0  0  0  0  0  0  0  0
  -32.0798  -27.7936   17.5414 C   0  0  0  0  0  0  0  0  0  0  0  0
  -25.8113  -27.0248   19.6121 C   0  0  0  0  0  0  0  0  0  0  0  0
  -31.1276  -27.2163   18.4031 C   0  0  0  0  0  0  0  0  0  0  0  0
  -22.1864  -19.6514   23.4912 C   0  0  0  0  0  0  0  0  0  0  0  0
  -25.4755  -26.9313   20.9703 C   0  0  0  0  0  0  0  0  0  0  0  0
  -24.0225  -21.2215   23.5142 C   0  0  0  0  0  0  0  0  0  0  0  0
  -21.4010  -20.5798   22.8081 C   0  0  0  0  0  0  0  0  0  0  0  0
  -21.9264  -21.8292   22.4780 C   0  0  0  0  0  0  0  0  0  0  0  0
  -23.2371  -22.1499   22.8310 C   0  0  0  0  0  0  0  0  0  0  0  0
  -28.4685  -19.0620   20.1936 C   0  0  0  0  0  0  0  0  0  0  0  0
  -24.6611  -24.6708   20.6006 C   0  0  0  0  0  0  0  0  0  0  0  0
  -29.9292  -20.6160   21.1803 C   0  0  0  0  0  0  0  0  0  0  0  0
  -31.6838  -21.2736   23.2471 C   0  0  0  0  0  0  0  0  0  0  0  0
  -29.6692  -21.7211   21.9908 C   0  0  0  0  0  0  0  0  0  0  0  0
  -26.6335  -15.2521   20.3168 C   0  0  0  0  0  0  0  0  0  0  0  0
  -26.2356  -13.0988   20.5166 C   0  0  0  0  0  0  0  0  0  0  0  0
  -28.6203  -13.7328   20.9164 C   0  0  0  0  0  0  0  0  0  0  0  0
  -28.4292  -28.5772   20.5289 C   0  0  0  0  0  0  0  0  0  0  0  0
  -26.2892  -30.5254   21.9944 C   0  0  0  0  0  0  0  0  0  0  0  0
  -23.1750  -30.9218   23.3328 C   0  0  0  0  0  0  0  0  0  0  0  0
  -22.1849  -14.6442   23.0993 C   0  0  0  0  0  0  0  0  0  0  0  0
  -32.7524  -29.1039   17.8662 C   0  0  0  0  0  0  0  0  0  0  0  0
  -26.4009  -28.2931   19.0588 C   0  0  0  0  0  0  0  0  0  0  0  0
  -25.7175  -28.0690   21.9272 C   0  0  0  0  0  0  0  0  0  0  0  0
  -32.0155  -29.9209   18.9244 C   0  0  0  0  0  0  0  0  0  0  0  0
  -21.5135  -14.3520   19.3246 C   0  0  0  0  0  0  0  0  0  0  0  0
  -31.6213  -29.0364   20.1029 C   0  0  0  0  0  0  0  0  0  0  0  0
  -22.9432  -14.0429   18.9004 C   0  0  0  0  0  0  0  0  0  0  0  0
  -22.2505  -17.6841   25.1231 C   0  0  0  0  0  0  0  0  0  0  0  0
  -21.5025  -15.0700   20.6711 C   0  0  0  0  0  0  0  0  0  0  0  0
  -21.9023  -16.2119   24.9805 C   0  0  0  0  0  0  0  0  0  0  0  0
  -21.8733  -17.2049   22.8019 C   0  0  0  0  0  0  0  0  0  0  0  0
  -22.9332  -13.1367   21.3087 C   0  0  0  0  0  0  0  0  0  0  0  0
  -21.6431  -18.2936   23.8596 C   0  0  2  0  0  0  0  0  0  0  0  0
  -30.6666  -27.9209   19.6605 C   0  0  1  0  0  0  0  0  0  0  0  0
  -27.0978  -29.1403   20.1190 C   0  0  1  0  0  0  0  0  0  0  0  0
  -23.7112  -13.2635   19.9843 C   0  0  2  0  0  0  0  0  0  0  0  0
  -25.4287  -21.5403   23.9046 C   0  0  0  0  0  0  0  0  0  0  0  0
  -19.9954  -20.2333   22.4308 C   0  0  0  0  0  0  0  0  0  0  0  0
  -21.0836  -22.8254   21.7457 C   0  0  0  0  0  0  0  0  0  0  0  0
  -21.7292  -32.6154   24.4899 C   0  0  0  0  0  0  0  0  0  0  0  0
  -27.8517  -30.0900   24.5788 C   0  0  0  0  0  0  0  0  0  0  0  0
  -25.8827  -30.9870   25.8384 C   0  0  0  0  0  0  0  0  0  0  0  0
  -27.0850  -32.4412   24.2068 C   0  0  0  0  0  0  0  0  0  0  0  0
  -21.1601  -30.8533   21.1662 C   0  0  0  0  0  0  0  0  0  0  0  0
  -23.8034  -23.4888   22.4776 C   0  0  0  0  0  0  0  0  0  1  0  0
  -25.6291  -30.5594   23.3517 C   0  0  1  0  0  0  0  0  0  0  0  0
  -22.1330  -32.0112   23.1540 C   0  0  2  0  0  0  0  0  0  0  0  0
  -26.6092  -30.9971   24.4765 C   0  0  0  0  0  0  0  0  0  0  0  0
  -25.3270  -15.1288   20.0685 N   0  0  0  0  0  0  0  0  0  0  0  0
  -25.1152  -13.8080   20.1974 N   0  0  0  0  0  0  0  0  0  0  0  0
  -26.3017  -29.2858   21.3394 N   0  0  0  0  0  0  0  0  0  0  0  0
  -22.2490  -14.3701   21.7231 N   0  0  0  0  0  0  0  0  0  0  0  0
  -21.9393  -15.9426   23.5431 N   0  0  0  0  0  0  0  0  0  0  0  0
  -26.2007  -11.7597   20.6841 N   0  0  0  0  0  0  0  0  0  0  0  0
  -29.5322  -14.7962   20.9624 N   0  0  0  0  0  0  0  0  0  0  0  0
  -29.3272  -28.4412   19.4875 N   0  0  0  0  0  0  0  0  0  0  0  0
  -24.4566  -31.4165   23.2139 N   0  0  0  0  0  0  0  0  0  0  0  0
  -20.9131  -31.4588   22.5001 N   0  3  0  0  0  0  0  0  0  0  0  0
  -29.0265  -12.5660   21.1333 O   0  0  0  0  0  0  0  0  0  0  0  0
  -28.6275  -28.2890   21.7034 O   0  0  0  0  0  0  0  0  0  0  0  0
  -26.7696  -31.5620   21.5294 O   0  0  0  0  0  0  0  0  0  0  0  0
  -22.8815  -29.7500   23.5593 O   0  0  0  0  0  0  0  0  0  0  0  0
  -22.3682  -13.7370   23.9267 O   0  0  0  0  0  0  0  0  0  0  0  0
  -29.0588  -20.2878   20.1545 O   0  0  0  0  0  0  0  0  0  0  0  0
  -24.1021  -23.5182   21.0889 O   0  0  0  0  0  0  0  0  0  1  0  0
  -32.5255  -21.5883   24.2404 F   0  0  0  0  0  0  0  0  0  0  0  0
  -28.5777  -22.4700   21.7822 F   0  0  0  0  0  0  0  0  0  0  0  0
  1  2  1  0  0  0  0
  1  5  2  0  0  0  0
  2  6  2  0  0  0  0
  3  8  2  0  0  0  0
  3 16  1  0  0  0  0
  4  9  1  0  0  0  0
  4 16  2  0  0  0  0
  5 18  1  0  0  0  0
  6 20  1  0  0  0  0
  7 10  2  0  0  0  0
  7 19  1  0  0  0  0
  8 27  1  0  0  0  0
  9 27  2  0  0  0  0
 10 28  1  0  0  0  0
 11 12  2  0  0  0  0
 11 29  1  0  0  0  0
 12 30  1  0  0  0  0
 13 21  1  0  0  0  0
 13 23  2  0  0  0  0
 14 22  1  0  0  0  0
 14 28  2  0  0  0  0
 15 30  2  0  0  0  0
 15 31  1  0  0  0  0
 16 32  1  0  0  0  0
 17 32  1  0  0  0  0
 17 33  2  0  0  0  0
 17 34  1  0  0  0  0
 18 20  2  0  0  0  0
 18 39  1  0  0  0  0
 19 22  2  0  0  0  0
 19 40  1  0  0  0  0
 20 52  1  0  0  0  0
 21 24  2  0  0  0  0
 21 51  1  0  0  0  0
 22 41  1  0  0  0  0
 23 26  1  0  0  0  0
 23 55  1  0  0  0  0
 24 25  1  0  0  0  0
 24 56  1  0  0  0  0
 25 26  2  0  0  0  0
 25 57  1  0  0  0  0
 26 63  1  0  0  0  0
 27 82  1  0  0  0  0
 28 83  1  0  0  0  0
 29 31  2  0  0  0  0
 29 82  1  0  0  0  0
 30 84  1  0  0  0  0
 31 85  1  0  0  0  0
 32 67  2  0  0  0  0
 33 68  1  0  0  0  0
 33 72  1  0  0  0  0
 34 73  1  0  0  0  0
 34 77  2  0  0  0  0
 35 53  1  0  0  0  0
 35 74  1  0  0  0  0
 35 78  2  0  0  0  0
 36 64  1  0  0  0  0
 36 69  1  0  0  0  0
 36 79  2  0  0  0  0
 37 65  1  0  0  0  0
 37 75  1  0  0  0  0
 37 80  2  0  0  0  0
 38 70  1  0  0  0  0
 38 71  1  0  0  0  0
 38 81  2  0  0  0  0
 39 42  1  0  0  0  0
 40 53  1  0  0  0  0
 41 69  1  0  0  0  0
 42 44  1  0  0  0  0
 43 45  1  0  0  0  0
 43 47  1  0  0  0  0
 44 52  1  0  0  0  0
 45 54  1  0  0  0  0
 46 48  1  0  0  0  0
 46 51  1  0  0  0  0
 47 70  1  0  0  0  0
 48 71  1  0  0  0  0
 49 51  1  0  0  0  0
 49 71  1  0  0  0  0
 50 54  1  0  0  0  0
 50 70  1  0  0  0  0
 52 74  1  0  0  0  0
 53 69  1  0  0  0  0
 54 68  1  0  0  0  0
 58 65  1  0  0  0  0
 59 66  1  0  0  0  0
 60 66  1  0  0  0  0
 61 66  1  0  0  0  0
 62 76  1  0  0  0  0
 63 83  1  0  0  0  0
 64 66  1  0  0  0  0
 64 75  1  0  0  0  0
 65 76  1  0  0  0  0
 67 68  1  0  0  0  0
M  CHG  1  76   1
M  ISO  4  38 100  63 101  71 100  83 101
M  END
> <Batch ID>
0160

> <Smiles>
CNC(C)C(=O)NC(C(=O)N1Cc2cc([101O:1][101CH2:1]c3c(C)cc(C4CC[100N:0]([100C:0](=O)N5CCCC(n6nc(-c7ccc(Oc8ccc(F)cc8F)cc7)c(C(N)=O)c6N)C5)C4)c(C)c3C)ccc2CC1C(=O)NC1CCCc2ccccc21)C(C)(C)C

> <Shape>
0.230

> <Color>
0.090

> <Negative vol penalty>
0.000

$$$$

  -OEChem-04052322093D

 92102  0     1  0  0  0  0  0999 V2000
  -26.2850  -22.3316   25.1116 C   0  0  0  0  0  0  0  0  0  0  0  0
  -26.1624  -23.6693   24.7496 C   0  0  0  0  0  0  0  0  0  0  0  0
  -25.2601  -15.1696   22.0489 C   0  0  0  0  0  0  0  0  0  0  0  0
  -25.4251  -14.1615   19.8595 C   0  0  0  0  0  0  0  0  0  0  0  0
  -25.5354  -21.3600   24.4498 C   0  0  0  0  0  0  0  0  0  0  0  0
  -25.2908  -24.0360   23.7247 C   0  0  0  0  0  0  0  0  0  0  0  0
  -22.5117  -28.1030   24.9000 C   0  0  0  0  0  0  0  0  0  0  0  0
  -24.2924  -14.2314   22.4080 C   0  0  0  0  0  0  0  0  0  0  0  0
  -24.4574  -13.2233   20.2186 C   0  0  0  0  0  0  0  0  0  0  0  0
  -23.1333  -29.3475   24.8069 C   0  0  0  0  0  0  0  0  0  0  0  0
  -22.2915  -10.3399   20.6807 C   0  0  0  0  0  0  0  0  0  0  0  0
  -22.5260   -9.0057   20.3485 C   0  0  0  0  0  0  0  0  0  0  0  0
  -22.0812  -29.7060   22.6659 C   0  0  0  0  0  0  0  0  0  0  0  0
  -27.6163  -30.5838   22.7653 C   0  0  0  0  0  0  0  0  0  0  0  0
  -27.1900  -28.9394   20.5524 C   0  0  0  0  0  0  0  0  0  0  0  0
  -24.5404   -9.0276   21.6822 C   0  0  0  0  0  0  0  0  0  0  0  0
  -25.8264  -15.1347   20.7746 C   0  0  0  0  0  0  0  0  0  0  0  0
  -28.2201  -15.9903   20.5600 C   0  0  0  0  0  0  0  0  0  0  0  0
  -24.6470  -21.7161   23.4228 C   0  0  0  0  0  0  0  0  0  0  0  0
  -21.6774  -27.6452   23.8701 C   0  0  0  0  0  0  0  0  0  0  0  0
  -24.5296  -23.0681   23.0476 C   0  0  0  0  0  0  0  0  0  0  0  0
  -21.4482  -28.4565   22.7496 C   0  0  0  0  0  0  0  0  0  0  0  0
  -26.6489  -30.9238   21.8198 C   0  0  0  0  0  0  0  0  0  0  0  0
  -28.3707  -29.4215   22.6043 C   0  0  0  0  0  0  0  0  0  0  0  0
  -26.4357  -30.1017   20.7134 C   0  0  0  0  0  0  0  0  0  0  0  0
  -28.1575  -28.5994   21.4979 C   0  0  0  0  0  0  0  0  0  0  0  0
  -23.8910  -13.2583   21.4929 C   0  0  0  0  0  0  0  0  0  0  0  0
  -22.9204  -30.1480   23.6884 C   0  0  0  0  0  0  0  0  0  0  0  0
  -23.1815  -11.0181   21.5136 C   0  0  0  0  0  0  0  0  0  0  0  0
  -23.6504   -8.3495   20.8493 C   0  0  0  0  0  0  0  0  0  0  0  0
  -24.3059  -10.3619   22.0144 C   0  0  0  0  0  0  0  0  0  0  0  0
  -26.8257  -16.1039   20.4029 C   0  0  0  0  0  0  0  0  0  0  0  0
  -28.7194  -17.1661   20.0553 C   0  0  0  0  0  0  0  0  0  0  0  0
  -28.9947  -14.9178   21.1127 C   0  0  0  0  0  0  0  0  0  0  0  0
  -21.7295  -25.1732   21.8726 C   0  0  0  0  0  0  0  0  0  0  0  0
  -18.8052  -26.2940   21.0271 C   0  0  0  0  0  0  0  0  0  0  0  0
  -16.6533  -28.9375   20.8585 C   0  0  0  0  0  0  0  0  0  0  0  0
  -28.7383  -22.5050   19.5060 C   0  0  0  0  0  0  0  0  0  0  0  0
  -23.8930  -20.6251   22.7045 C   0  0  0  0  0  0  0  0  0  0  0  0
  -20.9931  -26.3119   23.9980 C   0  0  0  0  0  0  0  0  0  0  0  0
  -20.5455  -28.0199   21.6258 C   0  0  0  0  0  0  0  0  0  0  0  0
  -22.7138  -21.1392   21.8826 C   0  0  0  0  0  0  0  0  0  0  0  0
  -26.4842  -20.8334   17.3956 C   0  0  0  0  0  0  0  0  0  0  0  0
  -23.1280  -22.3521   21.0555 C   0  0  0  0  0  0  0  0  0  0  0  0
  -26.4809  -19.4316   18.0047 C   0  0  0  0  0  0  0  0  0  0  0  0
  -31.4264  -29.8313   22.1773 C   0  0  0  0  0  0  0  0  0  0  0  0
  -31.9926  -29.2029   23.4185 C   0  0  0  0  0  0  0  0  0  0  0  0
  -27.4966  -25.6668   20.4273 C   0  0  0  0  0  0  0  0  0  0  0  0
  -29.9864  -25.6964   20.0180 C   0  0  0  0  0  0  0  0  0  0  0  0
  -26.5004  -21.9243   18.4679 C   0  0  0  0  0  0  0  0  0  0  0  0
  -27.3451  -24.6151   19.3244 C   0  0  0  0  0  0  0  0  0  0  0  0
  -29.7830  -24.6689   18.9081 C   0  0  0  0  0  0  0  0  0  0  0  0
  -27.5933  -20.3799   20.0614 C   0  0  0  0  0  0  0  0  0  0  0  0
  -23.5764  -23.5081   21.9577 C   0  0  1  0  0  0  0  0  0  0  0  0
  -20.5712  -25.7255   22.6543 C   0  0  1  0  0  0  0  0  0  0  0  0
  -27.6360  -19.2624   19.0077 C   0  0  1  0  0  0  0  0  0  0  0  0
  -28.7271  -26.5478   20.1991 C   0  0  0  0  0  0  0  0  0  0  0  0
  -30.6660  -29.9233   23.4796 C   0  0  0  0  0  0  0  0  0  0  0  0
  -25.4061  -30.4462   19.6880 C   0  0  0  0  0  0  0  0  0  0  0  0
  -30.6185  -31.2556   24.1757 C   0  0  0  0  0  0  0  0  0  0  0  0
  -14.3481  -29.5546   20.0823 C   0  0  0  0  0  0  0  0  0  0  0  0
  -19.7850  -26.3098   18.1375 C   0  0  0  0  0  0  0  0  0  0  0  0
  -17.8484  -27.7886   17.5622 C   0  0  0  0  0  0  0  0  0  0  0  0
  -17.4420  -25.4893   18.4401 C   0  0  0  0  0  0  0  0  0  0  0  0
  -15.8083  -29.6903   23.5931 C   0  0  0  0  0  0  0  0  0  0  0  0
  -29.4021  -29.0828   23.6310 C   0  0  0  0  0  0  0  0  0  0  0  0
  -25.8538  -32.1734   22.0131 C   0  0  0  0  0  0  0  0  0  0  0  0
  -25.6145  -32.5469   23.4837 C   0  0  0  0  0  0  0  0  0  0  0  0
  -24.7903  -31.5105   24.2387 C   0  0  0  0  0  0  0  0  0  1  0  0
  -18.2929  -27.2818   20.0070 C   0  0  1  0  0  0  0  0  0  0  0  0
  -15.1936  -29.0746   21.2518 C   0  0  2  0  0  0  0  0  0  0  0  0
  -18.3607  -26.7251   18.5568 C   0  0  0  0  0  0  0  0  0  0  0  0
  -26.4625  -17.2605   19.8424 N   0  0  0  0  0  0  0  0  0  0  0  0
  -27.6359  -17.8846   19.6429 N   0  0  0  0  0  0  0  0  0  0  0  0
  -19.9043  -26.7053   21.7944 N   0  0  0  0  0  0  0  0  0  0  0  0
  -27.5936  -21.6982   19.4237 N   0  0  0  0  0  0  0  0  0  0  0  0
  -28.5920  -23.8553   19.1549 N   0  0  0  0  0  0  0  0  0  0  0  0
  -29.9751  -17.6451   19.9285 N   0  0  0  0  0  0  0  0  0  0  0  0
  -28.3223  -13.7826   21.5855 N   0  0  0  0  0  0  0  0  0  0  0  0
  -28.8972  -27.4435   21.3220 N   0  0  0  0  0  0  0  0  0  0  0  0
  -22.4279  -24.1779   22.5293 N   0  0  0  0  0  0  0  0  0  0  0  0
  -16.9516  -27.6578   20.4406 N   0  0  0  0  0  0  0  0  0  0  0  0
  -15.0475  -30.0502   22.3689 N   0  3  0  0  0  0  0  0  0  0  0  0
  -30.2449  -14.9717   21.2000 O   0  0  0  0  0  0  0  0  0  0  0  0
  -21.9707  -25.6161   20.7557 O   0  0  0  0  0  0  0  0  0  0  0  0
  -18.2463  -25.2006   21.1440 O   0  0  0  0  0  0  0  0  0  0  0  0
  -17.4486  -29.8730   20.9129 O   0  0  0  0  0  0  0  0  0  0  0  0
  -29.8276  -22.0460   19.8720 O   0  0  0  0  0  0  0  0  0  0  0  0
  -22.9470  -12.3425   21.8431 O   0  0  0  0  0  0  0  0  0  0  0  0
  -23.5307  -31.3714   23.5940 O   0  0  0  0  0  0  0  0  0  1  0  0
  -23.8746   -7.0677   20.5315 F   0  0  0  0  0  0  0  0  0  0  0  0
  -25.1639  -11.0078   22.8159 F   0  0  0  0  0  0  0  0  0  0  0  0
  1  2  1  0  0  0  0
  1  5  2  0  0  0  0
  2  6  2  0  0  0  0
  3  8  2  0  0  0  0
  3 17  1  0  0  0  0
  4  9  1  0  0  0  0
  4 17  2  0  0  0  0
  5 19  1  0  0  0  0
  6 21  1  0  0  0  0
  7 10  2  0  0  0  0
  7 20  1  0  0  0  0
  8 27  1  0  0  0  0
  9 27  2  0  0  0  0
 10 28  1  0  0  0  0
 11 12  2  0  0  0  0
 11 29  1  0  0  0  0
 12 30  1  0  0  0  0
 13 22  1  0  0  0  0
 13 28  2  0  0  0  0
 14 23  1  0  0  0  0
 14 24  2  0  0  0  0
 15 25  1  0  0  0  0
 15 26  2  0  0  0  0
 16 30  2  0  0  0  0
 16 31  1  0  0  0  0
 17 32  1  0  0  0  0
 18 32  1  0  0  0  0
 18 33  2  0  0  0  0
 18 34  1  0  0  0  0
 19 21  2  0  0  0  0
 19 39  1  0  0  0  0
 20 22  2  0  0  0  0
 20 40  1  0  0  0  0
 21 54  1  0  0  0  0
 22 41  1  0  0  0  0
 23 25  2  0  0  0  0
 23 67  1  0  0  0  0
 24 26  1  0  0  0  0
 24 66  1  0  0  0  0
 25 59  1  0  0  0  0
 26 80  1  0  0  0  0
 27 89  1  0  0  0  0
 28 90  1  0  0  0  0
 29 31  2  0  0  0  0
 29 89  1  0  0  0  0
 30 91  1  0  0  0  0
 31 92  1  0  0  0  0
 32 73  2  0  0  0  0
 33 74  1  0  0  0  0
 33 78  1  0  0  0  0
 34 79  1  0  0  0  0
 34 84  2  0  0  0  0
 35 55  1  0  0  0  0
 35 81  1  0  0  0  0
 35 85  2  0  0  0  0
 36 70  1  0  0  0  0
 36 75  1  0  0  0  0
 36 86  2  0  0  0  0
 37 71  1  0  0  0  0
 37 82  1  0  0  0  0
 37 87  2  0  0  0  0
 38 76  1  0  0  0  0
 38 77  1  0  0  0  0
 38 88  2  0  0  0  0
 39 42  1  0  0  0  0
 40 55  1  0  0  0  0
 41 75  1  0  0  0  0
 42 44  1  0  0  0  0
 43 45  1  0  0  0  0
 43 50  1  0  0  0  0
 44 54  1  0  0  0  0
 45 56  1  0  0  0  0
 46 47  1  0  0  0  0
 46 58  1  0  0  0  0
 47 58  1  0  0  0  0
 48 51  1  0  0  0  0
 48 57  1  0  0  0  0
 49 52  1  0  0  0  0
 49 57  1  0  0  0  0
 50 76  1  0  0  0  0
 51 77  1  0  0  0  0
 52 77  1  0  0  0  0
 53 56  1  0  0  0  0
 53 76  1  0  0  0  0
 54 81  1  0  0  0  0
 55 75  1  0  0  0  0
 56 74  1  0  0  0  0
 57 80  1  0  0  0  0
 58 60  1  0  0  0  0
 58 66  1  0  0  0  0
 61 71  1  0  0  0  0
 62 72  1  0  0  0  0
 63 72  1  0  0  0  0
 64 72  1  0  0  0  0
 65 83  1  0  0  0  0
 67 68  1  0  0  0  0
 68 69  1  0  0  0  0
 69 90  1  0  0  0  0
 70 72  1  0  0  0  0
 70 82  1  0  0  0  0
 71 83  1  0  0  0  0
 73 74  1  0  0  0  0
M  CHG  1  83   1
M  ISO  4  38 100  69 101  77 100  90 101
M  END
> <Batch ID>
0160

> <Smiles>
CNC(C)C(=O)NC(C(=O)N1Cc2cc([101O:1][101CH2:1]CCc3cc(CC4(C)CC4)c(NC4CC[100N:0]([100C:0](=O)N5CCCC(n6nc(-c7ccc(Oc8ccc(F)cc8F)cc7)c(C(N)=O)c6N)C5)CC4)cc3C)ccc2CC1C(=O)NC1CCCc2ccccc21)C(C)(C)C

> <Shape>
0.280

> <Color>
0.047

> <Negative vol penalty>
0.000

$$$$

  -OEChem-04052322093D

 90100  0     1  0  0  0  0  0999 V2000
  -33.0730   -9.7397   17.1863 C   0  0  0  0  0  0  0  0  0  0  0  0
  -33.1257  -11.1147   17.3912 C   0  0  0  0  0  0  0  0  0  0  0  0
  -22.7163  -30.9232   23.3586 C   0  0  0  0  0  0  0  0  0  0  0  0
  -21.8656  -28.9877   22.1895 C   0  0  0  0  0  0  0  0  0  0  0  0
  -31.8502   -9.1204   16.9311 C   0  0  0  0  0  0  0  0  0  0  0  0
  -31.9556  -11.8714   17.3398 C   0  0  0  0  0  0  0  0  0  0  0  0
  -30.6199  -16.8180   20.6943 C   0  0  0  0  0  0  0  0  0  0  0  0
  -21.6285  -30.8749   24.2303 C   0  0  0  0  0  0  0  0  0  0  0  0
  -20.7778  -28.9393   23.0613 C   0  0  0  0  0  0  0  0  0  0  0  0
  -30.6962  -18.1835   20.4235 C   0  0  0  0  0  0  0  0  0  0  0  0
  -17.5890  -28.5220   24.7547 C   0  0  0  0  0  0  0  0  0  0  0  0
  -16.3242  -28.3197   24.2026 C   0  0  0  0  0  0  0  0  0  0  0  0
  -28.3611  -18.1878   19.8181 C   0  0  0  0  0  0  0  0  0  0  0  0
  -16.5651  -30.3456   22.9084 C   0  0  0  0  0  0  0  0  0  0  0  0
  -22.8349  -29.9797   22.3381 C   0  0  0  0  0  0  0  0  0  0  0  0
  -25.3216  -29.9279   21.7717 C   0  0  0  0  0  0  0  0  0  0  0  0
  -30.6633   -9.8685   16.8860 C   0  0  0  0  0  0  0  0  0  0  0  0
  -29.4143  -16.1238   20.5183 C   0  0  0  0  0  0  0  0  0  0  0  0
  -30.7159  -11.2617   17.0823 C   0  0  0  0  0  0  0  0  0  0  0  0
  -28.2715  -16.8141   20.0898 C   0  0  0  0  0  0  0  0  0  0  0  0
  -29.7621  -24.4549   20.0416 C   0  0  0  0  0  0  0  0  0  0  0  0
  -30.5561  -25.0299   19.0331 C   0  0  0  0  0  0  0  0  0  0  0  0
  -29.8851  -23.0885   20.3253 C   0  0  0  0  0  0  0  0  0  0  0  0
  -31.4498  -24.2239   18.3140 C   0  0  0  0  0  0  0  0  0  0  0  0
  -31.5585  -22.8631   18.5990 C   0  0  0  0  0  0  0  0  0  0  0  0
  -30.7773  -22.2962   19.6034 C   0  0  0  0  0  0  0  0  0  0  0  0
  -20.6593  -29.8829   24.0817 C   0  0  0  0  0  0  0  0  0  0  0  0
  -29.5674  -18.8681   19.9826 C   0  0  0  0  0  0  0  0  0  0  0  0
  -18.3419  -29.6362   24.3838 C   0  0  0  0  0  0  0  0  0  0  0  0
  -15.8123  -29.2314   23.2794 C   0  0  0  0  0  0  0  0  0  0  0  0
  -17.8300  -30.5479   23.4606 C   0  0  0  0  0  0  0  0  0  0  0  0
  -23.9580  -30.0294   21.4370 C   0  0  0  0  0  0  0  0  0  0  0  0
  -25.9789  -30.0333   20.5703 C   0  0  0  0  0  0  0  0  0  0  0  0
  -25.9390  -29.7539   23.0540 C   0  0  0  0  0  0  0  0  0  0  0  0
  -28.4600  -13.7181   18.6728 C   0  0  0  0  0  0  0  0  0  0  0  0
  -25.7413  -13.9655   20.4250 C   0  0  0  0  0  0  0  0  0  0  0  0
  -23.7117  -15.9048   22.3657 C   0  0  0  0  0  0  0  0  0  0  0  0
  -26.5961  -28.8838   15.2535 C   0  0  0  0  0  0  0  0  0  0  0  0
  -29.3715   -9.1616   16.5599 C   0  0  0  0  0  0  0  0  0  0  0  0
  -29.3418  -14.6563   20.8403 C   0  0  0  0  0  0  0  0  0  0  0  0
  -26.9482  -16.1190   19.9044 C   0  0  0  0  0  0  0  0  0  0  0  0
  -28.8259  -25.3084   20.8583 C   0  0  0  0  0  0  0  0  0  0  0  0
  -28.1276   -9.9812   16.8934 C   0  0  0  0  0  0  0  0  0  0  0  0
  -24.3064  -31.3664   15.9938 C   0  0  0  0  0  0  0  0  0  0  0  0
  -28.2790  -11.4117   16.3859 C   0  0  0  0  0  0  0  0  0  0  0  0
  -24.1146  -31.2440   17.5053 C   0  0  0  0  0  0  0  0  0  0  0  0
  -29.8560  -28.0537   16.8061 C   0  0  0  0  0  0  0  0  0  0  0  0
  -28.0861  -26.5346   17.7592 C   0  0  0  0  0  0  0  0  0  0  0  0
  -24.3827  -29.9913   15.3401 C   0  0  0  0  0  0  0  0  0  0  0  0
  -28.9684  -28.2929   15.5879 C   0  0  0  0  0  0  0  0  0  0  0  0
  -27.2348  -26.7977   16.5214 C   0  0  0  0  0  0  0  0  0  0  0  0
  -25.2745  -28.9824   17.4143 C   0  0  0  0  0  0  0  0  0  0  0  0
  -29.7916  -27.2411   19.8995 C   0  0  0  0  0  0  0  0  0  0  0  0
  -30.4196  -26.5029   18.7117 C   0  0  2  0  0  0  0  0  0  0  0  0
  -29.4650  -12.1131   17.0589 C   0  0  1  0  0  0  0  0  0  0  0  0
  -28.1917  -13.9456   20.1336 C   0  0  1  0  0  0  0  0  0  0  0  0
  -29.5812  -26.6882   17.4492 C   0  0  0  0  0  0  0  0  0  0  0  0
  -25.1983  -30.3466   18.1290 C   0  0  2  0  0  0  0  0  0  0  0  0
  -29.0679  -22.4641   21.4143 C   0  0  0  0  0  0  0  0  0  0  0  0
  -32.3157  -24.8087   17.2404 C   0  0  0  0  0  0  0  0  0  0  0  0
  -32.5170  -22.0096   17.8288 C   0  0  0  0  0  0  0  0  0  0  0  0
  -21.5407  -15.8414   23.6227 C   0  0  0  0  0  0  0  0  0  0  0  0
  -24.2138  -14.1864   17.7929 C   0  0  0  0  0  0  0  0  0  0  0  0
  -22.2535  -15.0573   19.0841 C   0  0  0  0  0  0  0  0  0  0  0  0
  -23.1106  -12.7560   19.5225 C   0  0  0  0  0  0  0  0  0  0  0  0
  -25.0551  -16.4561   24.9446 C   0  0  0  0  0  0  0  0  0  0  0  0
  -30.9001  -20.8365   19.9106 C   0  0  0  0  0  0  0  0  0  1  0  0
  -24.4571  -14.7493   20.3009 C   0  0  1  0  0  0  0  0  0  0  0  0
  -23.0460  -15.6412   23.7043 C   0  0  2  0  0  0  0  0  0  0  0  0
  -23.5340  -14.2002   19.1767 C   0  0  0  0  0  0  0  0  0  0  0  0
  -23.7594  -30.1873   20.1256 N   0  0  0  0  0  0  0  0  0  0  0  0
  -25.0069  -30.1859   19.6258 N   0  0  0  0  0  0  0  0  0  0  0  0
  -26.9297  -14.6825   20.2263 N   0  0  0  0  0  0  0  0  0  0  0  0
  -25.4196  -29.1686   15.9629 N   0  0  0  0  0  0  0  0  0  0  0  0
  -27.5555  -28.0932   15.9076 N   0  0  0  0  0  0  0  0  0  0  0  0
  -27.2877  -30.0095   20.2402 N   0  0  0  0  0  0  0  0  0  0  0  0
  -26.1697  -28.4498   23.5130 N   0  0  0  0  0  0  0  0  0  0  0  0
  -29.1113  -12.5307   18.3987 N   0  0  0  0  0  0  0  0  0  0  0  0
  -23.8488  -14.7487   21.6270 N   0  0  0  0  0  0  0  0  0  0  0  0
  -23.5872  -16.5633   24.7425 N   0  3  0  0  0  0  0  0  0  0  0  0
  -26.2612  -30.7257   23.7787 O   0  0  0  0  0  0  0  0  0  0  0  0
  -28.1012  -14.5571   17.8548 O   0  0  0  0  0  0  0  0  0  0  0  0
  -25.6922  -12.7630   20.6955 O   0  0  0  0  0  0  0  0  0  0  0  0
  -24.0707  -17.0250   22.0095 O   0  0  0  0  0  0  0  0  0  0  0  0
  -26.7827  -29.3119   14.1077 O   0  0  0  0  0  0  0  0  0  0  0  0
  -28.5773  -26.5925   20.2780 O   0  0  0  0  0  0  0  0  0  0  0  0
  -19.5978  -29.8353   24.9323 O   0  0  0  0  0  0  0  0  0  0  0  0
  -29.6399  -20.2107   19.7150 O   0  0  0  0  0  0  0  0  0  1  0  0
  -14.5983  -29.0362   22.7481 F   0  0  0  0  0  0  0  0  0  0  0  0
  -18.5490  -31.6195   23.0995 F   0  0  0  0  0  0  0  0  0  0  0  0
  1  2  1  0  0  0  0
  1  5  2  0  0  0  0
  2  6  2  0  0  0  0
  3  8  2  0  0  0  0
  3 15  1  0  0  0  0
  4  9  1  0  0  0  0
  4 15  2  0  0  0  0
  5 17  1  0  0  0  0
  6 19  1  0  0  0  0
  7 10  2  0  0  0  0
  7 18  1  0  0  0  0
  8 27  1  0  0  0  0
  9 27  2  0  0  0  0
 10 28  1  0  0  0  0
 11 12  2  0  0  0  0
 11 29  1  0  0  0  0
 12 30  1  0  0  0  0
 13 20  1  0  0  0  0
 13 28  2  0  0  0  0
 14 30  2  0  0  0  0
 14 31  1  0  0  0  0
 15 32  1  0  0  0  0
 16 32  1  0  0  0  0
 16 33  2  0  0  0  0
 16 34  1  0  0  0  0
 17 19  2  0  0  0  0
 17 39  1  0  0  0  0
 18 20  2  0  0  0  0
 18 40  1  0  0  0  0
 19 55  1  0  0  0  0
 20 41  1  0  0  0  0
 21 22  2  0  0  0  0
 21 23  1  0  0  0  0
 21 42  1  0  0  0  0
 22 24  1  0  0  0  0
 22 54  1  0  0  0  0
 23 26  2  0  0  0  0
 23 59  1  0  0  0  0
 24 25  2  0  0  0  0
 24 60  1  0  0  0  0
 25 26  1  0  0  0  0
 25 61  1  0  0  0  0
 26 67  1  0  0  0  0
 27 87  1  0  0  0  0
 28 88  1  0  0  0  0
 29 31  2  0  0  0  0
 29 87  1  0  0  0  0
 30 89  1  0  0  0  0
 31 90  1  0  0  0  0
 32 71  2  0  0  0  0
 33 72  1  0  0  0  0
 33 76  1  0  0  0  0
 34 77  1  0  0  0  0
 34 81  2  0  0  0  0
 35 56  1  0  0  0  0
 35 78  1  0  0  0  0
 35 82  2  0  0  0  0
 36 68  1  0  0  0  0
 36 73  1  0  0  0  0
 36 83  2  0  0  0  0
 37 69  1  0  0  0  0
 37 79  1  0  0  0  0
 37 84  2  0  0  0  0
 38 74  1  0  0  0  0
 38 75  1  0  0  0  0
 38 85  2  0  0  0  0
 39 43  1  0  0  0  0
 40 56  1  0  0  0  0
 41 73  1  0  0  0  0
 42 86  1  0  0  0  0
 43 45  1  0  0  0  0
 44 46  1  0  0  0  0
 44 49  1  0  0  0  0
 45 55  1  0  0  0  0
 46 58  1  0  0  0  0
 47 50  1  0  0  0  0
 47 57  1  0  0  0  0
 48 51  1  0  0  0  0
 48 57  1  0  0  0  0
 49 74  1  0  0  0  0
 50 75  1  0  0  0  0
 51 75  1  0  0  0  0
 52 58  1  0  0  0  0
 52 74  1  0  0  0  0
 53 54  1  0  0  0  0
 53 86  1  0  0  0  0
 54 57  1  0  0  0  0
 55 78  1  0  0  0  0
 56 73  1  0  0  0  0
 58 72  1  0  0  0  0
 62 69  1  0  0  0  0
 63 70  1  0  0  0  0
 64 70  1  0  0  0  0
 65 70  1  0  0  0  0
 66 80  1  0  0  0  0
 67 88  1  0  0  0  0
 68 70  1  0  0  0  0
 68 79  1  0  0  0  0
 69 80  1  0  0  0  0
 71 72  1  0  0  0  0
M  CHG  1  80   1
M  ISO  4  38 100  67 101  75 100  88 101
M  END
> <Batch ID>
0160

> <Smiles>
CNC(C)C(=O)NC(C(=O)N1Cc2cc([101O:1][101CH2:1]c3c(C)c(C)c4c(c3C)COCC4C3CC[100N:0]([100C:0](=O)N4CCCC(n5nc(-c6ccc(Oc7ccc(F)cc7F)cc6)c(C(N)=O)c5N)C4)CC3)ccc2CC1C(=O)NC1CCCc2ccccc21)C(C)(C)C

> <Shape>
0.272

> <Color>
0.065

> <Negative vol penalty>
0.000

$$$$

  -OEChem-04052322093D

 89 98  0     1  0  0  0  0  0999 V2000
  -20.3864  -24.3428   24.5124 C   0  0  0  0  0  0  0  0  0  0  0  0
  -21.6419  -24.7281   24.0533 C   0  0  0  0  0  0  0  0  0  0  0  0
  -24.5285   -9.7655   21.8797 C   0  0  0  0  0  0  0  0  0  0  0  0
  -22.7875  -11.1282   20.9055 C   0  0  0  0  0  0  0  0  0  0  0  0
  -19.2606  -25.0908   24.1703 C   0  0  0  0  0  0  0  0  0  0  0  0
  -21.7721  -25.8610   23.2508 C   0  0  0  0  0  0  0  0  0  0  0  0
  -25.6491  -28.8008   24.6547 C   0  0  0  0  0  0  0  0  0  0  0  0
  -23.7065   -8.6432   21.7789 C   0  0  0  0  0  0  0  0  0  0  0  0
  -21.9655  -10.0058   20.8047 C   0  0  0  0  0  0  0  0  0  0  0  0
  -26.9272  -28.3936   24.2747 C   0  0  0  0  0  0  0  0  0  0  0  0
  -21.0985   -7.3071   23.4634 C   0  0  0  0  0  0  0  0  0  0  0  0
  -21.0267   -6.4561   24.5663 C   0  0  0  0  0  0  0  0  0  0  0  0
  -26.8781  -29.9662   22.4461 C   0  0  0  0  0  0  0  0  0  0  0  0
  -28.0619  -19.7744   21.2487 C   0  0  0  0  0  0  0  0  0  0  0  0
  -21.8606   -4.6349   23.2154 C   0  0  0  0  0  0  0  0  0  0  0  0
  -24.0690  -11.0081   21.4430 C   0  0  0  0  0  0  0  0  0  0  0  0
  -25.8283  -12.6442   20.5855 C   0  0  0  0  0  0  0  0  0  0  0  0
  -19.3783  -26.2389   23.3712 C   0  0  0  0  0  0  0  0  0  0  0  0
  -24.9704  -29.7878   23.9255 C   0  0  0  0  0  0  0  0  0  0  0  0
  -20.6467  -26.6242   22.8966 C   0  0  0  0  0  0  0  0  0  0  0  0
  -25.5925  -30.3861   22.8205 C   0  0  0  0  0  0  0  0  0  0  0  0
  -28.5023  -22.1280   21.4747 C   0  0  0  0  0  0  0  0  0  0  0  0
  -28.6684  -20.9347   20.7806 C   0  0  0  0  0  0  0  0  0  0  0  0
  -22.4250   -8.7633   21.2414 C   0  0  0  0  0  0  0  0  0  0  0  0
  -27.5407  -28.9742   23.1685 C   0  0  0  0  0  0  0  0  0  0  0  0
  -21.5513   -6.8220   22.2365 C   0  0  0  0  0  0  0  0  0  0  0  0
  -21.4078   -5.1201   24.4423 C   0  0  0  0  0  0  0  0  0  0  0  0
  -21.9324   -5.4859   22.1125 C   0  0  0  0  0  0  0  0  0  0  0  0
  -24.9175  -12.1679   21.5474 C   0  0  0  0  0  0  0  0  0  0  0  0
  -27.3055  -19.8597   22.4064 C   0  0  0  0  0  0  0  0  0  0  0  0
  -27.7260  -22.1080   22.6222 C   0  0  0  0  0  0  0  0  0  0  0  0
  -26.3810  -13.7627   21.1601 C   0  0  0  0  0  0  0  0  0  0  0  0
  -26.1463  -12.1224   19.2884 C   0  0  0  0  0  0  0  0  0  0  0  0
  -22.2676  -29.8821   22.2553 C   0  0  0  0  0  0  0  0  0  0  0  0
  -22.9511  -33.0476   22.0670 C   0  0  0  0  0  0  0  0  0  0  0  0
  -25.3076  -35.5139   22.1710 C   0  0  0  0  0  0  0  0  0  0  0  0
  -25.8930  -18.5226   24.0075 C   0  0  0  0  0  0  0  0  0  0  0  0
  -18.1268  -26.9885   22.9886 C   0  0  0  0  0  0  0  0  0  0  0  0
  -23.6030  -30.2350   24.3644 C   0  0  0  0  0  0  0  0  0  0  0  0
  -24.9146  -31.4641   22.0163 C   0  0  0  0  0  0  0  0  0  0  0  0
  -18.3979  -28.3885   22.4437 C   0  0  0  0  0  0  0  0  0  0  0  0
  -26.0945  -15.5139   25.9006 C   0  0  0  0  0  0  0  0  0  0  0  0
  -19.5229  -28.3521   21.4142 C   0  0  0  0  0  0  0  0  0  0  0  0
  -25.8812  -14.4143   24.8577 C   0  0  0  0  0  0  0  0  0  0  0  0
  -28.0632  -24.4437   20.6797 C   0  0  0  0  0  0  0  0  0  0  0  0
  -30.1169  -23.9276   22.0591 C   0  0  0  0  0  0  0  0  0  0  0  0
  -25.2348  -16.7434   25.6125 C   0  0  0  0  0  0  0  0  0  0  0  0
  -25.1546  -16.1904   23.2131 C   0  0  0  0  0  0  0  0  0  0  0  0
  -28.6836  -25.7737   20.2713 C   0  0  0  0  0  0  0  0  0  0  0  0
  -30.7217  -25.2614   21.6399 C   0  0  0  0  0  0  0  0  0  0  0  0
  -29.1396  -23.3938   20.9994 C   0  0  0  0  0  0  0  0  0  0  0  0
  -20.8317  -27.8611   22.0445 C   0  0  1  0  0  0  0  0  0  0  0  0
  -22.7977  -30.8832   23.2425 C   0  0  1  0  0  0  0  0  0  0  0  0
  -26.0475  -14.9569   23.4247 C   0  0  2  0  0  0  0  0  0  0  0  0
  -29.4896  -20.8749   19.5351 C   0  0  0  0  0  0  0  0  0  0  0  0
  -26.6499  -24.5331   25.1567 C   0  0  0  0  0  0  0  0  0  0  0  0
  -25.5689  -37.9995   21.9456 C   0  0  0  0  0  0  0  0  0  0  0  0
  -22.6741  -32.7996   19.0385 C   0  0  0  0  0  0  0  0  0  0  0  0
  -23.8501  -34.9990   18.8208 C   0  0  0  0  0  0  0  0  0  0  0  0
  -21.6626  -34.8690   20.0126 C   0  0  0  0  0  0  0  0  0  0  0  0
  -26.3348  -35.7733   24.9345 C   0  0  0  0  0  0  0  0  0  0  0  0
  -30.1574  -27.6208   21.0656 C   0  0  0  0  0  0  0  0  0  0  0  0
  -26.7293  -23.1705   24.5019 C   0  0  0  0  0  0  0  0  0  0  0  0
  -29.1064  -28.6588   21.4064 C   0  0  0  0  0  0  0  0  0  1  0  0
  -23.7313  -33.9178   21.1116 C   0  0  1  0  0  0  0  0  0  0  0  0
  -25.3442  -36.8418   22.9058 C   0  0  2  0  0  0  0  0  0  0  0  0
  -22.9918  -34.1247   19.7597 C   0  0  0  0  0  0  0  0  0  0  0  0
  -24.8902  -12.9220   22.6495 N   0  0  0  0  0  0  0  0  0  0  0  0
  -27.1212  -21.0007   23.1077 N   0  0  0  0  0  0  0  0  0  0  0  0
  -25.7908  -13.8834   22.3837 N   0  0  0  0  0  0  0  0  0  0  0  0
  -23.5758  -31.8627   22.4813 N   0  0  0  0  0  0  0  0  0  0  0  0
  -25.4480  -17.2038   24.2386 N   0  0  0  0  0  0  0  0  0  0  0  0
  -27.3094  -14.6448   20.7330 N   0  0  0  0  0  0  0  0  0  0  0  0
  -25.4855  -10.9656   18.8532 N   0  0  0  0  0  0  0  0  0  0  0  0
  -26.6919  -18.6713   22.8742 N   0  0  0  0  0  0  0  0  0  0  0  0
  -21.4498  -28.9190   22.8147 N   0  0  0  0  0  0  0  0  0  0  0  0
  -24.0210  -35.1544   21.8296 N   0  0  0  0  0  0  0  0  0  0  0  0
  -29.6216  -26.2671   21.3568 N   0  3  0  0  0  0  0  0  0  0  0  0
  -26.4426  -36.8465   23.9129 N   0  3  0  0  0  0  0  0  0  0  0  0
  -27.0034  -12.6565   18.5443 O   0  0  0  0  0  0  0  0  0  0  0  0
  -22.5765  -29.9774   21.0732 O   0  0  0  0  0  0  0  0  0  0  0  0
  -21.8316  -33.4093   22.4379 O   0  0  0  0  0  0  0  0  0  0  0  0
  -26.3196  -34.8626   21.9215 O   0  0  0  0  0  0  0  0  0  0  0  0
  -25.6103  -19.4467   24.7744 O   0  0  0  0  0  0  0  0  0  0  0  0
  -21.6227   -7.6682   21.1427 O   0  0  0  0  0  0  0  0  0  0  0  0
  -28.7879  -28.5781   22.7950 O   0  0  0  0  0  0  0  0  0  1  0  0
  -27.5371  -23.2637   23.3349 O   0  0  0  0  0  0  0  0  0  0  0  0
  -21.3402   -4.3034   25.5018 F   0  0  0  0  0  0  0  0  0  0  0  0
  -22.3693   -5.0144   20.9366 F   0  0  0  0  0  0  0  0  0  0  0  0
  1  2  1  0  0  0  0
  1  5  2  0  0  0  0
  2  6  2  0  0  0  0
  3  8  2  0  0  0  0
  3 16  1  0  0  0  0
  4  9  1  0  0  0  0
  4 16  2  0  0  0  0
  5 18  1  0  0  0  0
  6 20  1  0  0  0  0
  7 10  2  0  0  0  0
  7 19  1  0  0  0  0
  8 24  1  0  0  0  0
  9 24  2  0  0  0  0
 10 25  1  0  0  0  0
 11 12  2  0  0  0  0
 11 26  1  0  0  0  0
 12 27  1  0  0  0  0
 13 21  1  0  0  0  0
 13 25  2  0  0  0  0
 14 23  2  0  0  0  0
 14 30  1  0  0  0  0
 15 27  2  0  0  0  0
 15 28  1  0  0  0  0
 16 29  1  0  0  0  0
 17 29  1  0  0  0  0
 17 32  2  0  0  0  0
 17 33  1  0  0  0  0
 18 20  2  0  0  0  0
 18 38  1  0  0  0  0
 19 21  2  0  0  0  0
 19 39  1  0  0  0  0
 20 52  1  0  0  0  0
 21 40  1  0  0  0  0
 22 23  1  0  0  0  0
 22 31  2  0  0  0  0
 22 51  1  0  0  0  0
 23 55  1  0  0  0  0
 24 85  1  0  0  0  0
 25 86  1  0  0  0  0
 26 28  2  0  0  0  0
 26 85  1  0  0  0  0
 27 88  1  0  0  0  0
 28 89  1  0  0  0  0
 29 68  2  0  0  0  0
 30 69  2  0  0  0  0
 30 75  1  0  0  0  0
 31 69  1  0  0  0  0
 31 87  1  0  0  0  0
 32 70  1  0  0  0  0
 32 73  1  0  0  0  0
 33 74  1  0  0  0  0
 33 80  2  0  0  0  0
 34 53  1  0  0  0  0
 34 76  1  0  0  0  0
 34 81  2  0  0  0  0
 35 65  1  0  0  0  0
 35 71  1  0  0  0  0
 35 82  2  0  0  0  0
 36 66  1  0  0  0  0
 36 77  1  0  0  0  0
 36 83  2  0  0  0  0
 37 72  1  0  0  0  0
 37 75  1  0  0  0  0
 37 84  2  0  0  0  0
 38 41  1  0  0  0  0
 39 53  1  0  0  0  0
 40 71  1  0  0  0  0
 41 43  1  0  0  0  0
 42 44  1  0  0  0  0
 42 47  1  0  0  0  0
 43 52  1  0  0  0  0
 44 54  1  0  0  0  0
 45 49  1  0  0  0  0
 45 51  1  0  0  0  0
 46 50  1  0  0  0  0
 46 51  1  0  0  0  0
 47 72  1  0  0  0  0
 48 54  1  0  0  0  0
 48 72  1  0  0  0  0
 49 78  1  0  0  0  0
 50 78  1  0  0  0  0
 52 76  1  0  0  0  0
 53 71  1  0  0  0  0
 54 70  1  0  0  0  0
 56 63  1  0  0  0  0
 57 66  1  0  0  0  0
 58 67  1  0  0  0  0
 59 67  1  0  0  0  0
 60 67  1  0  0  0  0
 61 79  1  0  0  0  0
 62 64  1  0  0  0  0
 62 78  1  0  0  0  0
 63 87  1  0  0  0  0
 64 86  1  0  0  0  0
 65 67  1  0  0  0  0
 65 77  1  0  0  0  0
 66 79  1  0  0  0  0
 68 70  1  0  0  0  0
M  CHG  2  78   1  79   1
M  ISO  4  37 100  64 101  75 100  86 101
M  END
> <Batch ID>
0160

> <Smiles>
CCOc1nc([100NH:0][100C:0](=O)N2CCCC(n3nc(-c4ccc(Oc5ccc(F)cc5F)cc4)c(C(N)=O)c3N)C2)cc(C)c1C1CCN(C[101CH2:1][101O:1]c2ccc3c(c2)CN(C(=O)C(NC(=O)C(C)NC)C(C)(C)C)C(C(=O)NC2CCCc4ccccc42)C3)CC1

> <Shape>
0.292

> <Color>
0.110

> <Negative vol penalty>
0.000

$$$$

  -OEChem-04052322093D

 93102  0     1  0  0  0  0  0999 V2000
  -18.4453  -32.2596   24.9237 C   0  0  0  0  0  0  0  0  0  0  0  0
  -19.8212  -32.1141   24.7783 C   0  0  0  0  0  0  0  0  0  0  0  0
  -24.2887   -8.6713   20.5704 C   0  0  0  0  0  0  0  0  0  0  0  0
  -23.0546  -10.6333   21.2519 C   0  0  0  0  0  0  0  0  0  0  0  0
  -17.5924  -31.2217   24.5507 C   0  0  0  0  0  0  0  0  0  0  0  0
  -20.3451  -30.9300   24.2608 C   0  0  0  0  0  0  0  0  0  0  0  0
  -25.2990  -30.3389   20.7091 C   0  0  0  0  0  0  0  0  0  0  0  0
  -23.2286   -7.8624   20.9797 C   0  0  0  0  0  0  0  0  0  0  0  0
  -21.9945   -9.8244   21.6611 C   0  0  0  0  0  0  0  0  0  0  0  0
  -26.6193  -29.9908   20.9911 C   0  0  0  0  0  0  0  0  0  0  0  0
  -22.0084   -6.6362   23.8835 C   0  0  0  0  0  0  0  0  0  0  0  0
  -22.3136   -5.4955   24.6259 C   0  0  0  0  0  0  0  0  0  0  0  0
  -26.1387  -27.7048   20.3890 C   0  0  0  0  0  0  0  0  0  0  0  0
  -21.2992   -4.1152   22.9221 C   0  0  0  0  0  0  0  0  0  0  0  0
  -24.2017  -10.0568   20.7066 C   0  0  0  0  0  0  0  0  0  0  0  0
  -25.4923  -11.4586   19.0104 C   0  0  0  0  0  0  0  0  0  0  0  0
  -18.1055  -30.0279   24.0193 C   0  0  0  0  0  0  0  0  0  0  0  0
  -24.3844  -29.3688   20.2746 C   0  0  0  0  0  0  0  0  0  0  0  0
  -19.4983  -29.8746   23.8815 C   0  0  0  0  0  0  0  0  0  0  0  0
  -24.8081  -28.0437   20.0996 C   0  0  0  0  0  0  0  0  0  0  0  0
  -31.8458  -21.7613   20.7167 C   0  0  0  0  0  0  0  0  0  0  0  0
  -31.0859  -22.5877   19.8672 C   0  0  0  0  0  0  0  0  0  0  0  0
  -31.3108  -20.5364   21.1458 C   0  0  0  0  0  0  0  0  0  0  0  0
  -30.0317  -20.1422   20.7555 C   0  0  0  0  0  0  0  0  0  0  0  0
  -29.2752  -20.9631   19.9252 C   0  0  0  0  0  0  0  0  0  0  0  0
  -22.0815   -8.4389   21.5250 C   0  0  0  0  0  0  0  0  0  0  0  0
  -27.0386  -28.6730   20.8339 C   0  0  0  0  0  0  0  0  0  0  0  0
  -21.3484   -6.5165   22.6604 C   0  0  0  0  0  0  0  0  0  0  0  0
  -29.7982  -22.1780   19.4836 C   0  0  0  0  0  0  0  0  0  0  0  0
  -21.9591   -4.2350   24.1452 C   0  0  0  0  0  0  0  0  0  0  0  0
  -20.9939   -5.2560   22.1797 C   0  0  0  0  0  0  0  0  0  0  0  0
  -25.2967  -10.8929   20.2846 C   0  0  0  0  0  0  0  0  0  0  0  0
  -26.6678  -12.1600   19.1229 C   0  0  0  0  0  0  0  0  0  0  0  0
  -24.6835  -11.3592   17.8307 C   0  0  0  0  0  0  0  0  0  0  0  0
  -21.6637  -28.1821   21.4118 C   0  0  0  0  0  0  0  0  0  0  0  0
  -21.6028  -26.6317   18.5631 C   0  0  0  0  0  0  0  0  0  0  0  0
  -23.3406  -25.4067   15.8936 C   0  0  0  0  0  0  0  0  0  0  0  0
  -30.0118  -15.6355   21.9308 C   0  0  0  0  0  0  0  0  0  0  0  0
  -17.1470  -28.9158   23.6743 C   0  0  0  0  0  0  0  0  0  0  0  0
  -22.9706  -29.7658   19.9489 C   0  0  0  0  0  0  0  0  0  0  0  0
  -33.2521  -22.1222   21.1263 C   0  0  0  0  0  0  0  0  0  0  0  0
  -23.8706  -26.9686   19.6164 C   0  0  0  0  0  0  0  0  0  0  0  0
  -17.7601  -27.8373   22.7847 C   0  0  0  0  0  0  0  0  0  0  0  0
  -33.5895  -23.5974   20.9229 C   0  0  0  0  0  0  0  0  0  0  0  0
  -30.1491  -12.1837   22.7926 C   0  0  0  0  0  0  0  0  0  0  0  0
  -19.1323  -27.4280   23.3105 C   0  0  0  0  0  0  0  0  0  0  0  0
  -33.1255  -24.0658   19.5475 C   0  0  0  0  0  0  0  0  0  0  0  0
  -28.9122  -11.5886   22.1173 C   0  0  0  0  0  0  0  0  0  0  0  0
  -29.8808  -13.5905   23.3226 C   0  0  0  0  0  0  0  0  0  0  0  0
  -28.1032  -13.9396   21.6517 C   0  0  0  0  0  0  0  0  0  0  0  0
  -20.1033  -28.6148   23.3009 C   0  0  1  0  0  0  0  0  0  0  0  0
  -31.6065  -23.9242   19.3906 C   0  0  2  0  0  0  0  0  0  0  0  0
  -21.9934  -28.5956   20.0054 C   0  0  1  0  0  0  0  0  0  0  0  0
  -28.3412  -12.5433   21.0517 C   0  0  2  0  0  0  0  0  0  0  0  0
  -32.1122  -19.6212   22.0217 C   0  0  0  0  0  0  0  0  0  0  0  0
  -23.0216  -24.1559   13.7416 C   0  0  0  0  0  0  0  0  0  0  0  0
  -21.2637  -24.0335   20.1264 C   0  0  0  0  0  0  0  0  0  0  0  0
  -21.9000  -22.7840   18.0522 C   0  0  0  0  0  0  0  0  0  0  0  0
  -19.8505  -24.2059   18.0703 C   0  0  0  0  0  0  0  0  0  0  0  0
  -24.3960  -27.6607   14.2923 C   0  0  0  0  0  0  0  0  0  0  0  0
  -29.1704  -22.7655   17.2663 C   0  0  0  0  0  0  0  0  0  0  0  0
  -26.7210  -19.1020   18.0754 C   0  0  0  0  0  0  0  0  0  0  0  0
  -29.4720  -18.8358   21.2241 C   0  0  0  0  0  0  0  0  0  0  0  0
  -27.9013  -20.5479   19.5033 C   0  0  0  0  0  0  0  0  0  0  0  0
  -30.3862  -27.4623   20.2389 C   0  0  0  0  0  0  0  0  0  0  0  0
  -30.0139  -17.6291   20.4527 C   0  0  0  0  0  0  0  0  0  0  0  0
  -31.0954  -26.3763   19.4439 C   0  0  0  0  0  0  0  0  0  0  0  0
  -28.8832  -27.2466   20.3661 C   0  0  0  0  0  0  0  0  0  1  0  0
  -22.1249  -25.3099   18.0540 C   0  0  1  0  0  0  0  0  0  0  0  0
  -23.1055  -25.5249   14.3986 C   0  0  2  0  0  0  0  0  0  0  0  0
  -21.3022  -24.1029   18.5867 C   0  0  0  0  0  0  0  0  0  0  0  0
  -26.2701  -11.2074   21.1434 N   0  0  0  0  0  0  0  0  0  0  0  0
  -27.0887  -11.9784   20.4075 N   0  0  0  0  0  0  0  0  0  0  0  0
  -22.4967  -27.4051   19.3172 N   0  0  0  0  0  0  0  0  0  0  0  0
  -29.3423  -14.4460   22.2625 N   0  0  0  0  0  0  0  0  0  0  0  0
  -27.3722  -12.9080   18.2474 N   0  0  0  0  0  0  0  0  0  0  0  0
  -23.5078  -10.5986   17.8888 N   0  0  0  0  0  0  0  0  0  0  0  0
  -20.5906  -28.8583   21.9601 N   0  0  0  0  0  0  0  0  0  0  0  0
  -22.1561  -25.4164   16.5993 N   0  0  0  0  0  0  0  0  0  0  0  0
  -29.4380  -16.3844   20.9107 N   0  0  0  0  0  0  0  0  0  0  0  0
  -30.9496  -25.0615   20.1114 N   0  3  0  0  0  0  0  0  0  0  0  0
  -24.2151  -26.2863   13.7583 N   0  3  0  0  0  0  0  0  0  0  0  0
  -25.0028  -11.9145   16.7522 O   0  0  0  0  0  0  0  0  0  0  0  0
  -22.3325  -27.3129   21.9585 O   0  0  0  0  0  0  0  0  0  0  0  0
  -20.4469  -26.9689   18.2954 O   0  0  0  0  0  0  0  0  0  0  0  0
  -24.4627  -25.3113   16.3859 O   0  0  0  0  0  0  0  0  0  0  0  0
  -31.0473  -16.0002   22.4978 O   0  0  0  0  0  0  0  0  0  0  0  0
  -21.0468   -7.6499   21.9242 O   0  0  0  0  0  0  0  0  0  0  0  0
  -29.0396  -22.9714   18.6695 O   0  0  0  0  0  0  0  0  0  0  0  0
  -28.3265  -28.3303   21.1091 O   0  0  0  0  0  0  0  0  0  1  0  0
  -28.0024  -19.5342   18.5129 O   0  0  0  0  0  0  0  0  0  0  0  0
  -22.2537   -3.1396   24.8574 F   0  0  0  0  0  0  0  0  0  0  0  0
  -20.3608   -5.1346   21.0048 F   0  0  0  0  0  0  0  0  0  0  0  0
  1  2  1  0  0  0  0
  1  5  2  0  0  0  0
  2  6  2  0  0  0  0
  3  8  2  0  0  0  0
  3 15  1  0  0  0  0
  4  9  1  0  0  0  0
  4 15  2  0  0  0  0
  5 17  1  0  0  0  0
  6 19  1  0  0  0  0
  7 10  2  0  0  0  0
  7 18  1  0  0  0  0
  8 26  1  0  0  0  0
  9 26  2  0  0  0  0
 10 27  1  0  0  0  0
 11 12  2  0  0  0  0
 11 28  1  0  0  0  0
 12 30  1  0  0  0  0
 13 20  1  0  0  0  0
 13 27  2  0  0  0  0
 14 30  2  0  0  0  0
 14 31  1  0  0  0  0
 15 32  1  0  0  0  0
 16 32  1  0  0  0  0
 16 33  2  0  0  0  0
 16 34  1  0  0  0  0
 17 19  2  0  0  0  0
 17 39  1  0  0  0  0
 18 20  2  0  0  0  0
 18 40  1  0  0  0  0
 19 51  1  0  0  0  0
 20 42  1  0  0  0  0
 21 22  2  0  0  0  0
 21 23  1  0  0  0  0
 21 41  1  0  0  0  0
 22 29  1  0  0  0  0
 22 52  1  0  0  0  0
 23 24  2  0  0  0  0
 23 55  1  0  0  0  0
 24 25  1  0  0  0  0
 24 63  1  0  0  0  0
 25 29  2  0  0  0  0
 25 64  1  0  0  0  0
 26 88  1  0  0  0  0
 27 90  1  0  0  0  0
 28 31  2  0  0  0  0
 28 88  1  0  0  0  0
 29 89  1  0  0  0  0
 30 92  1  0  0  0  0
 31 93  1  0  0  0  0
 32 72  2  0  0  0  0
 33 73  1  0  0  0  0
 33 76  1  0  0  0  0
 34 77  1  0  0  0  0
 34 83  2  0  0  0  0
 35 53  1  0  0  0  0
 35 78  1  0  0  0  0
 35 84  2  0  0  0  0
 36 69  1  0  0  0  0
 36 74  1  0  0  0  0
 36 85  2  0  0  0  0
 37 70  1  0  0  0  0
 37 79  1  0  0  0  0
 37 86  2  0  0  0  0
 38 75  1  0  0  0  0
 38 80  1  0  0  0  0
 38 87  2  0  0  0  0
 39 43  1  0  0  0  0
 40 53  1  0  0  0  0
 41 44  1  0  0  0  0
 42 74  1  0  0  0  0
 43 46  1  0  0  0  0
 44 47  1  0  0  0  0
 45 48  1  0  0  0  0
 45 49  1  0  0  0  0
 46 51  1  0  0  0  0
 47 52  1  0  0  0  0
 48 54  1  0  0  0  0
 49 75  1  0  0  0  0
 50 54  1  0  0  0  0
 50 75  1  0  0  0  0
 51 78  1  0  0  0  0
 52 81  1  0  0  0  0
 53 74  1  0  0  0  0
 54 73  1  0  0  0  0
 56 70  1  0  0  0  0
 57 71  1  0  0  0  0
 58 71  1  0  0  0  0
 59 71  1  0  0  0  0
 60 82  1  0  0  0  0
 61 89  1  0  0  0  0
 62 91  1  0  0  0  0
 63 66  1  0  0  0  0
 64 91  1  0  0  0  0
 65 67  1  0  0  0  0
 65 68  1  0  0  0  0
 66 80  1  0  0  0  0
 67 81  1  0  0  0  0
 68 90  1  0  0  0  0
 69 71  1  0  0  0  0
 69 79  1  0  0  0  0
 70 82  1  0  0  0  0
 72 73  1  0  0  0  0
M  CHG  2  81   1  82   1
M  ISO  4  38 100  68 101  80 100  90 101
M  END
> <Batch ID>
0160

> <Smiles>
CNC(C)C(=O)NC(C(=O)N1Cc2cc([101O:1][101CH2:1]CCNC3CCCc4c(C)c(CC[100NH:0][100C:0](=O)N5CCCC(n6nc(-c7ccc(Oc8ccc(F)cc8F)cc7)c(C(N)=O)c6N)C5)c(COC)c(OC)c43)ccc2CC1C(=O)NC1CCCc2ccccc21)C(C)(C)C

> <Shape>
0.327

> <Color>
0.095

> <Negative vol penalty>
0.000

$$$$

  -OEChem-04052322093D

 87 95  0     1  0  0  0  0  0999 V2000
  -17.1892  -29.2854   24.8126 C   0  0  0  0  0  0  0  0  0  0  0  0
  -17.7852  -28.0894   24.4256 C   0  0  0  0  0  0  0  0  0  0  0  0
  -27.9022  -17.2437   19.1086 C   0  0  0  0  0  0  0  0  0  0  0  0
  -27.6147  -17.5381   21.4893 C   0  0  0  0  0  0  0  0  0  0  0  0
  -17.4384  -30.4525   24.0917 C   0  0  0  0  0  0  0  0  0  0  0  0
  -18.6299  -28.0596   23.3166 C   0  0  0  0  0  0  0  0  0  0  0  0
  -22.8636  -25.4153   24.1699 C   0  0  0  0  0  0  0  0  0  0  0  0
  -28.6454  -18.4227   19.0525 C   0  0  0  0  0  0  0  0  0  0  0  0
  -28.3580  -18.7171   21.4333 C   0  0  0  0  0  0  0  0  0  0  0  0
  -22.7663  -24.0252   24.1241 C   0  0  0  0  0  0  0  0  0  0  0  0
  -27.8607  -21.9346   20.5216 C   0  0  0  0  0  0  0  0  0  0  0  0
  -27.3694  -23.0437   21.2102 C   0  0  0  0  0  0  0  0  0  0  0  0
  -23.6683  -24.0418   21.8868 C   0  0  0  0  0  0  0  0  0  0  0  0
  -29.3810  -23.1047   22.5470 C   0  0  0  0  0  0  0  0  0  0  0  0
  -27.3868  -16.8014   20.3269 C   0  0  0  0  0  0  0  0  0  0  0  0
  -27.0458  -14.2911   20.0277 C   0  0  0  0  0  0  0  0  0  0  0  0
  -18.2943  -30.4388   22.9790 C   0  0  0  0  0  0  0  0  0  0  0  0
  -23.3547  -26.1311   23.0686 C   0  0  0  0  0  0  0  0  0  0  0  0
  -18.8898  -29.2273   22.5792 C   0  0  0  0  0  0  0  0  0  0  0  0
  -23.7733  -25.4407   21.9222 C   0  0  0  0  0  0  0  0  0  0  0  0
  -28.8733  -19.1594   20.2149 C   0  0  0  0  0  0  0  0  0  0  0  0
  -23.1659  -23.3385   22.9814 C   0  0  0  0  0  0  0  0  0  0  0  0
  -29.1121  -21.4105   20.8457 C   0  0  0  0  0  0  0  0  0  0  0  0
  -28.1296  -23.6287   22.2229 C   0  0  0  0  0  0  0  0  0  0  0  0
  -29.8722  -21.9955   21.8584 C   0  0  0  0  0  0  0  0  0  0  0  0
  -26.6185  -15.5838   20.3854 C   0  0  0  0  0  0  0  0  0  0  0  0
  -25.9546  -13.4911   20.2642 C   0  0  0  0  0  0  0  0  0  0  0  0
  -28.3155  -13.8525   19.5265 C   0  0  0  0  0  0  0  0  0  0  0  0
  -22.1621  -28.3351   21.1132 C   0  0  0  0  0  0  0  0  0  0  0  0
  -25.1984  -28.4075   19.9740 C   0  0  0  0  0  0  0  0  0  0  0  0
  -28.1793  -26.7965   19.5670 C   0  0  0  0  0  0  0  0  0  0  0  0
  -21.2376  -14.0044   23.9163 C   0  0  0  0  0  0  0  0  0  0  0  0
  -18.4960  -31.7161   22.2027 C   0  0  0  0  0  0  0  0  0  0  0  0
  -23.4784  -27.6282   23.1439 C   0  0  0  0  0  0  0  0  0  0  0  0
  -24.3264  -26.1608   20.7205 C   0  0  0  0  0  0  0  0  0  0  0  0
  -19.6991  -31.6747   21.2640 C   0  0  0  0  0  0  0  0  0  0  0  0
  -21.1732  -13.6175   20.3775 C   0  0  0  0  0  0  0  0  0  0  0  0
  -19.7105  -30.3736   20.4678 C   0  0  0  0  0  0  0  0  0  0  0  0
  -22.6000  -13.9609   19.9460 C   0  0  0  0  0  0  0  0  0  0  0  0
  -20.2736  -18.6983   27.5086 C   0  0  0  0  0  0  0  0  0  0  0  0
  -20.7116  -14.4878   21.5443 C   0  0  0  0  0  0  0  0  0  0  0  0
  -19.7404  -16.4484   26.8859 C   0  0  0  0  0  0  0  0  0  0  0  0
  -23.0385  -14.8289   22.2812 C   0  0  0  0  0  0  0  0  0  0  0  0
  -19.8316  -29.1595   21.3967 C   0  0  1  0  0  0  0  0  0  0  0  0
  -23.5119  -28.2947   21.7720 C   0  0  1  0  0  0  0  0  0  0  0  0
  -19.2717  -17.8826   26.6914 C   0  0  1  0  0  0  0  0  0  0  0  0
  -23.5686  -13.9392   21.1437 C   0  0  2  0  0  0  0  0  0  0  0  0
  -21.4969  -17.7821   27.6724 C   0  0  2  0  0  0  0  0  0  0  0  0
  -17.8268  -18.1044   27.1053 C   0  0  0  0  0  0  0  0  0  0  0  0
  -30.5878  -26.4794   18.9379 C   0  0  0  0  0  0  0  0  0  0  0  0
  -23.0188  -19.7768   27.9807 C   0  0  0  0  0  0  0  0  0  0  0  0
  -22.3644  -12.9428   26.7722 C   0  0  0  0  0  0  0  0  0  0  0  0
  -24.6648  -17.7171   24.8074 C   0  0  0  0  0  0  0  0  0  0  0  0
  -24.0334  -27.9349   17.1939 C   0  0  0  0  0  0  0  0  0  0  0  0
  -26.3278  -27.3033   16.4160 C   0  0  0  0  0  0  0  0  0  0  0  0
  -25.8935  -29.6045   17.2755 C   0  0  0  0  0  0  0  0  0  0  0  0
  -29.1145  -27.7364   22.2129 C   0  0  0  0  0  0  0  0  0  0  0  0
  -23.7922  -19.8997   23.8828 C   0  0  0  0  0  0  0  0  0  0  0  0
  -21.8856  -15.4012   27.2762 C   0  0  0  0  0  0  0  0  0  0  0  0
  -23.2050  -21.2777   24.1678 C   0  0  0  0  0  0  0  0  0  1  0  0
  -25.9544  -27.6664   18.8979 C   0  0  1  0  0  0  0  0  0  0  0  0
  -29.6084  -27.2445   19.8144 C   0  0  2  0  0  0  0  0  0  0  0  0
  -22.7849  -18.4711   27.2379 C   0  0  2  0  0  0  0  0  0  0  0  0
  -21.6030  -14.2009   26.3631 C   0  0  1  0  0  0  0  0  0  0  0  0
  -24.0054  -19.0497   25.1369 C   0  0  1  0  0  0  0  0  0  0  0  0
  -25.5401  -28.1136   17.4675 C   0  0  0  0  0  0  0  0  0  0  0  0
  -25.3545  -15.6084   20.8162 N   0  0  0  0  0  0  0  0  0  0  0  0
  -24.9781  -14.3211   20.7307 N   0  0  0  0  0  0  0  0  0  0  0  0
  -24.4218  -27.6251   20.8403 N   0  0  0  0  0  0  0  0  0  0  0  0
  -21.6729  -14.4217   22.6477 N   0  0  0  0  0  0  0  0  0  0  0  0
  -21.1959  -16.6080   26.8372 N   0  0  1  0  0  0  0  0  0  0  0  0
  -25.7448  -12.1657   20.1165 N   0  0  0  0  0  0  0  0  0  0  0  0
  -29.2966  -13.4577   20.4461 N   0  0  0  0  0  0  0  0  0  0  0  0
  -21.1982  -29.0012   21.8459 N   0  0  0  0  0  0  0  0  0  0  0  0
  -27.3711  -27.8497   19.1943 N   0  0  0  0  0  0  0  0  0  0  0  0
  -21.9297  -14.5395   24.9958 N   0  0  0  0  0  0  0  0  0  0  0  0
  -29.9813  -27.0228   21.2401 N   0  3  0  0  0  0  0  0  0  0  0  0
  -22.6944  -18.7656   25.7843 N   0  3  0  0  0  0  0  0  0  0  0  0
  -28.5780  -13.8274   18.3001 O   0  0  0  0  0  0  0  0  0  0  0  0
  -22.0069  -27.8028   20.0204 O   0  0  0  0  0  0  0  0  0  0  0  0
  -25.2990  -29.6347   20.0479 O   0  0  0  0  0  0  0  0  0  0  0  0
  -27.8170  -25.6283   19.6883 O   0  0  0  0  0  0  0  0  0  0  0  0
  -20.3050  -13.2093   24.0749 O   0  0  0  0  0  0  0  0  0  0  0  0
  -29.5987  -20.3098   20.1606 O   0  0  0  0  0  0  0  0  0  0  0  0
  -23.0713  -21.9818   22.9338 O   0  0  0  0  0  0  0  0  0  1  0  0
  -27.6584  -24.6947   22.8830 F   0  0  0  0  0  0  0  0  0  0  0  0
  -31.0757  -21.4972   22.1734 F   0  0  0  0  0  0  0  0  0  0  0  0
  1  2  1  0  0  0  0
  1  5  2  0  0  0  0
  2  6  2  0  0  0  0
  3  8  2  0  0  0  0
  3 15  1  0  0  0  0
  4  9  1  0  0  0  0
  4 15  2  0  0  0  0
  5 17  1  0  0  0  0
  6 19  1  0  0  0  0
  7 10  2  0  0  0  0
  7 18  1  0  0  0  0
  8 21  1  0  0  0  0
  9 21  2  0  0  0  0
 10 22  1  0  0  0  0
 11 12  2  0  0  0  0
 11 23  1  0  0  0  0
 12 24  1  0  0  0  0
 13 20  1  0  0  0  0
 13 22  2  0  0  0  0
 14 24  2  0  0  0  0
 14 25  1  0  0  0  0
 15 26  1  0  0  0  0
 16 26  1  0  0  0  0
 16 27  2  0  0  0  0
 16 28  1  0  0  0  0
 17 19  2  0  0  0  0
 17 33  1  0  0  0  0
 18 20  2  0  0  0  0
 18 34  1  0  0  0  0
 19 44  1  0  0  0  0
 20 35  1  0  0  0  0
 21 84  1  0  0  0  0
 22 85  1  0  0  0  0
 23 25  2  0  0  0  0
 23 84  1  0  0  0  0
 24 86  1  0  0  0  0
 25 87  1  0  0  0  0
 26 67  2  0  0  0  0
 27 68  1  0  0  0  0
 27 72  1  0  0  0  0
 28 73  1  0  0  0  0
 28 79  2  0  0  0  0
 29 45  1  0  0  0  0
 29 74  1  0  0  0  0
 29 80  2  0  0  0  0
 30 61  1  0  0  0  0
 30 69  1  0  0  0  0
 30 81  2  0  0  0  0
 31 62  1  0  0  0  0
 31 75  1  0  0  0  0
 31 82  2  0  0  0  0
 32 70  1  0  0  0  0
 32 76  1  0  0  0  0
 32 83  2  0  0  0  0
 33 36  1  0  0  0  0
 34 45  1  0  0  0  0
 35 69  1  0  0  0  0
 36 38  1  0  0  0  0
 37 39  1  0  0  0  0
 37 41  1  0  0  0  0
 38 44  1  0  0  0  0
 39 47  1  0  0  0  0
 40 46  1  0  0  0  0
 40 48  1  0  0  0  0
 41 70  1  0  0  0  0
 42 46  1  0  0  0  0
 42 71  1  0  0  0  0
 43 47  1  0  0  0  0
 43 70  1  0  0  0  0
 44 74  1  0  0  0  0
 45 69  1  0  0  0  0
 46 49  1  0  0  0  0
 47 68  1  0  0  0  0
 48 63  1  0  0  0  0
 48 71  1  0  0  0  0
 50 62  1  0  0  0  0
 51 63  1  0  0  0  0
 52 64  1  0  0  0  0
 53 65  1  0  0  0  0
 54 66  1  0  0  0  0
 55 66  1  0  0  0  0
 56 66  1  0  0  0  0
 57 77  1  0  0  0  0
 58 60  1  0  0  0  0
 58 65  1  0  0  0  0
 59 64  1  0  0  0  0
 59 71  1  0  0  0  0
 60 85  1  0  0  0  0
 61 66  1  0  0  0  0
 61 75  1  0  0  0  0
 62 77  1  0  0  0  0
 63 78  1  0  0  0  0
 64 76  1  0  0  0  0
 65 78  1  0  0  0  0
 67 68  1  0  0  0  0
M  CHG  2  77   1  78   1
M  ISO  4  32 100  60 101  76 100  85 101
M  END
> <Batch ID>
0160

> <Smiles>
CNC(C)C(=O)NC(C(=O)N1Cc2cc([101O:1][101CH2:1]CC(C)NC(C)C3CC(C)CN3CC(C)[100NH:0][100C:0](=O)N3CCCC(n4nc(-c5ccc(Oc6ccc(F)cc6F)cc5)c(C(N)=O)c4N)C3)ccc2CC1C(=O)NC1CCCc2ccccc21)C(C)(C)C

> <Shape>
0.212

> <Color>
0.074

> <Negative vol penalty>
0.000

$$$$

  -OEChem-04052322093D

 89 98  0     1  0  0  0  0  0999 V2000
  -17.3002  -20.6859   21.0873 C   0  0  0  0  0  0  0  0  0  0  0  0
  -18.5302  -20.4850   20.4691 C   0  0  0  0  0  0  0  0  0  0  0  0
  -23.9295   -9.6210   20.5145 C   0  0  0  0  0  0  0  0  0  0  0  0
  -24.4320  -10.1952   22.8068 C   0  0  0  0  0  0  0  0  0  0  0  0
  -16.3898  -19.6343   21.1838 C   0  0  0  0  0  0  0  0  0  0  0  0
  -18.8510  -19.2319   19.9480 C   0  0  0  0  0  0  0  0  0  0  0  0
  -20.9374  -19.5191   15.3427 C   0  0  0  0  0  0  0  0  0  0  0  0
  -23.4486   -8.3797   20.9308 C   0  0  0  0  0  0  0  0  0  0  0  0
  -23.9510   -8.9539   23.2232 C   0  0  0  0  0  0  0  0  0  0  0  0
  -22.2813  -19.8837   15.2741 C   0  0  0  0  0  0  0  0  0  0  0  0
  -21.7550   -5.2016   21.4276 C   0  0  0  0  0  0  0  0  0  0  0  0
  -20.5512   -4.7562   20.8815 C   0  0  0  0  0  0  0  0  0  0  0  0
  -27.7350  -18.7362   20.6585 C   0  0  0  0  0  0  0  0  0  0  0  0
  -29.4202  -20.4361   20.3307 C   0  0  0  0  0  0  0  0  0  0  0  0
  -22.8899  -17.5655   15.0002 C   0  0  0  0  0  0  0  0  0  0  0  0
  -19.4253   -6.6948   21.7821 C   0  0  0  0  0  0  0  0  0  0  0  0
  -24.4213  -10.5288   21.4525 C   0  0  0  0  0  0  0  0  0  0  0  0
  -24.1853  -13.0047   20.8850 C   0  0  0  0  0  0  0  0  0  0  0  0
  -16.6957  -18.3704   20.6552 C   0  0  0  0  0  0  0  0  0  0  0  0
  -20.5599  -18.1717   15.2513 C   0  0  0  0  0  0  0  0  0  0  0  0
  -17.9444  -18.1621   20.0388 C   0  0  0  0  0  0  0  0  0  0  0  0
  -29.0097  -19.2395   20.9182 C   0  0  0  0  0  0  0  0  0  0  0  0
  -21.5403  -17.1868   15.0653 C   0  0  0  0  0  0  0  0  0  0  0  0
  -26.8708  -19.4296   19.8111 C   0  0  0  0  0  0  0  0  0  0  0  0
  -28.5559  -21.1295   19.4834 C   0  0  0  0  0  0  0  0  0  0  0  0
  -23.4593   -8.0461   22.2852 C   0  0  0  0  0  0  0  0  0  0  0  0
  -23.2581  -18.9066   15.1058 C   0  0  0  0  0  0  0  0  0  0  0  0
  -21.7939   -6.3937   22.1510 C   0  0  0  0  0  0  0  0  0  0  0  0
  -27.2812  -20.6263   19.2236 C   0  0  0  0  0  0  0  0  0  0  0  0
  -19.3864   -5.5027   21.0588 C   0  0  0  0  0  0  0  0  0  0  0  0
  -20.6290   -7.1402   22.3282 C   0  0  0  0  0  0  0  0  0  0  0  0
  -24.9188  -11.8110   21.0230 C   0  0  0  0  0  0  0  0  0  0  0  0
  -25.1074  -13.9263   20.4529 C   0  0  0  0  0  0  0  0  0  0  0  0
  -22.7947  -13.2577   21.1259 C   0  0  0  0  0  0  0  0  0  0  0  0
  -19.0886  -16.1186   17.1809 C   0  0  0  0  0  0  0  0  0  0  0  0
  -19.2259  -14.1802   14.5836 C   0  0  0  0  0  0  0  0  0  0  0  0
  -20.7545  -13.3886   11.6368 C   0  0  0  0  0  0  0  0  0  0  0  0
  -30.1020  -16.2693   20.6941 C   0  0  0  0  0  0  0  0  0  0  0  0
  -15.6987  -17.2516   20.8254 C   0  0  0  0  0  0  0  0  0  0  0  0
  -19.1038  -17.7975   15.3002 C   0  0  0  0  0  0  0  0  0  0  0  0
  -21.1857  -15.7282   14.9413 C   0  0  0  0  0  0  0  0  0  0  0  0
  -15.9644  -16.0552   19.9154 C   0  0  0  0  0  0  0  0  0  0  0  0
  -30.1421  -17.6145   24.0613 C   0  0  0  0  0  0  0  0  0  0  0  0
  -29.8351  -13.3502   18.7872 C   0  0  0  0  0  0  0  0  0  0  0  0
  -29.7703  -18.8852   23.3078 C   0  0  0  0  0  0  0  0  0  0  0  0
  -17.4413  -15.6752   19.9508 C   0  0  0  0  0  0  0  0  0  0  0  0
  -28.4831  -12.7658   19.1916 C   0  0  0  0  0  0  0  0  0  0  0  0
  -30.5539  -13.9406   19.9937 C   0  0  0  0  0  0  0  0  0  0  0  0
  -29.5756  -16.5175   23.1733 C   0  0  0  0  0  0  0  0  0  0  0  0
  -28.4010  -14.4332   21.1141 C   0  0  0  0  0  0  0  0  0  0  0  0
  -29.9467  -18.4878   21.8362 C   0  0  1  0  0  0  0  0  0  0  0  0
  -18.3189  -16.8240   19.4394 C   0  0  1  0  0  0  0  0  0  0  0  0
  -18.8734  -16.3466   15.7114 C   0  0  1  0  0  0  0  0  0  0  0  0
  -27.6332  -13.8148   19.9278 C   0  0  2  0  0  0  0  0  0  0  0  0
  -25.5099  -18.8749   19.5453 C   0  0  0  0  0  0  0  0  0  0  0  0
  -29.0133  -22.4091   18.8641 C   0  0  0  0  0  0  0  0  0  0  0  0
  -20.6676  -11.7295    9.7561 C   0  0  0  0  0  0  0  0  0  0  0  0
  -27.3035  -20.1782   14.9075 C   0  0  0  0  0  0  0  0  0  0  0  0
  -26.3308  -22.8522   16.5636 C   0  0  0  0  0  0  0  0  0  0  0  0
  -20.5517  -12.0908   16.3687 C   0  0  0  0  0  0  0  0  0  0  0  0
  -21.2855  -10.8891   14.2985 C   0  0  0  0  0  0  0  0  0  0  0  0
  -18.8541  -11.1763   14.7761 C   0  0  0  0  0  0  0  0  0  0  0  0
  -20.1961  -15.5032    9.6430 C   0  0  0  0  0  0  0  0  0  0  0  0
  -24.9685  -20.4241   15.7595 C   0  0  0  0  0  0  0  0  0  1  0  0
  -20.2193  -13.1766   14.0499 C   0  0  1  0  0  0  0  0  0  0  0  0
  -20.1918  -13.0830   10.2604 C   0  0  2  0  0  0  0  0  0  0  0  0
  -26.4466  -20.3202   16.1696 C   0  0  2  0  0  0  0  0  0  0  0  0
  -26.8737  -21.5144   17.0554 C   0  0  2  0  0  0  0  0  0  0  0  0
  -20.2348  -11.8604   14.8775 C   0  0  0  0  0  0  0  0  0  0  0  0
  -26.2075  -11.9580   20.7042 N   0  0  0  0  0  0  0  0  0  0  0  0
  -26.2910  -13.2548   20.3615 N   0  0  0  0  0  0  0  0  0  0  0  0
  -19.7491  -15.4120   15.0016 N   0  0  0  0  0  0  0  0  0  0  0  0
  -29.7189  -14.9221   20.6872 N   0  0  0  0  0  0  0  0  0  0  0  0
  -29.7505  -17.0300   21.8130 N   0  0  0  0  0  0  0  0  0  0  0  0
  -25.0131  -15.2375   20.1458 N   0  0  0  0  0  0  0  0  0  0  0  0
  -21.9895  -12.1987   21.5669 N   0  0  0  0  0  0  0  0  0  0  0  0
  -18.2776  -16.8869   17.9942 N   0  0  0  0  0  0  0  0  0  0  0  0
  -19.8952  -12.9917   12.6395 N   0  0  0  0  0  0  0  0  0  0  0  0
  -20.6178  -14.1248    9.2837 N   0  3  0  0  0  0  0  0  0  0  0  0
  -22.2780  -14.3854   20.9395 O   0  0  0  0  0  0  0  0  0  0  0  0
  -19.9272  -15.3047   17.5496 O   0  0  0  0  0  0  0  0  0  0  0  0
  -18.0288  -13.8848   14.6213 O   0  0  0  0  0  0  0  0  0  0  0  0
  -21.8487  -13.9223   11.8057 O   0  0  0  0  0  0  0  0  0  0  0  0
  -30.7446  -16.7636   19.7588 O   0  0  0  0  0  0  0  0  0  0  0  0
  -22.9898   -6.8350   22.6918 O   0  0  0  0  0  0  0  0  0  0  0  0
  -24.5800  -19.2621   15.0387 O   0  0  0  0  0  0  0  0  0  1  0  0
  -26.4358  -21.3046   18.3957 O   0  0  0  0  0  0  0  0  0  0  0  0
  -18.2308   -5.0756   20.5330 F   0  0  0  0  0  0  0  0  0  0  0  0
  -20.6604   -8.2868   23.0212 F   0  0  0  0  0  0  0  0  0  0  0  0
  1  2  1  0  0  0  0
  1  5  2  0  0  0  0
  2  6  2  0  0  0  0
  3  8  2  0  0  0  0
  3 17  1  0  0  0  0
  4  9  1  0  0  0  0
  4 17  2  0  0  0  0
  5 19  1  0  0  0  0
  6 21  1  0  0  0  0
  7 10  2  0  0  0  0
  7 20  1  0  0  0  0
  8 26  1  0  0  0  0
  9 26  2  0  0  0  0
 10 27  1  0  0  0  0
 11 12  2  0  0  0  0
 11 28  1  0  0  0  0
 12 30  1  0  0  0  0
 13 22  1  0  0  0  0
 13 24  2  0  0  0  0
 14 22  2  0  0  0  0
 14 25  1  0  0  0  0
 15 23  1  0  0  0  0
 15 27  2  0  0  0  0
 16 30  2  0  0  0  0
 16 31  1  0  0  0  0
 17 32  1  0  0  0  0
 18 32  1  0  0  0  0
 18 33  2  0  0  0  0
 18 34  1  0  0  0  0
 19 21  2  0  0  0  0
 19 39  1  0  0  0  0
 20 23  2  0  0  0  0
 20 40  1  0  0  0  0
 21 52  1  0  0  0  0
 22 51  1  0  0  0  0
 23 41  1  0  0  0  0
 24 29  1  0  0  0  0
 24 55  1  0  0  0  0
 25 29  2  0  0  0  0
 25 56  1  0  0  0  0
 26 85  1  0  0  0  0
 27 86  1  0  0  0  0
 28 31  2  0  0  0  0
 28 85  1  0  0  0  0
 29 87  1  0  0  0  0
 30 88  1  0  0  0  0
 31 89  1  0  0  0  0
 32 70  2  0  0  0  0
 33 71  1  0  0  0  0
 33 75  1  0  0  0  0
 34 76  1  0  0  0  0
 34 80  2  0  0  0  0
 35 53  1  0  0  0  0
 35 77  1  0  0  0  0
 35 81  2  0  0  0  0
 36 65  1  0  0  0  0
 36 72  1  0  0  0  0
 36 82  2  0  0  0  0
 37 66  1  0  0  0  0
 37 78  1  0  0  0  0
 37 83  2  0  0  0  0
 38 73  1  0  0  0  0
 38 74  1  0  0  0  0
 38 84  2  0  0  0  0
 39 42  1  0  0  0  0
 40 53  1  0  0  0  0
 41 72  1  0  0  0  0
 42 46  1  0  0  0  0
 43 45  1  0  0  0  0
 43 49  1  0  0  0  0
 44 47  1  0  0  0  0
 44 48  1  0  0  0  0
 45 51  1  0  0  0  0
 46 52  1  0  0  0  0
 47 54  1  0  0  0  0
 48 73  1  0  0  0  0
 49 74  1  0  0  0  0
 50 54  1  0  0  0  0
 50 73  1  0  0  0  0
 51 74  1  0  0  0  0
 52 77  1  0  0  0  0
 53 72  1  0  0  0  0
 54 71  1  0  0  0  0
 57 66  1  0  0  0  0
 58 67  1  0  0  0  0
 59 68  1  0  0  0  0
 60 69  1  0  0  0  0
 61 69  1  0  0  0  0
 62 69  1  0  0  0  0
 63 79  1  0  0  0  0
 64 67  1  0  0  0  0
 64 86  1  0  0  0  0
 65 69  1  0  0  0  0
 65 78  1  0  0  0  0
 66 79  1  0  0  0  0
 67 68  1  0  0  0  0
 68 87  1  0  0  0  0
 70 71  1  0  0  0  0
M  CHG  1  79   1
M  ISO  4  38 100  64 101  74 100  86 101
M  END
> <Batch ID>
0160

> <Smiles>
CNC(C)C(=O)NC(C(=O)N1Cc2cc([101O:1][101CH2:1]C(C)C(C)Oc3c(C)cc(C4CCC[100N:0]4[100C:0](=O)N4CCCC(n5nc(-c6ccc(Oc7ccc(F)cc7F)cc6)c(C(N)=O)c5N)C4)cc3C)ccc2CC1C(=O)NC1CCCc2ccccc21)C(C)(C)C

> <Shape>
0.176

> <Color>
0.117

> <Negative vol penalty>
0.000

$$$$

  -OEChem-04052322093D

 88 97  0     1  0  0  0  0  0999 V2000
  -29.6956  -24.2784   18.1680 C   0  0  0  0  0  0  0  0  0  0  0  0
  -28.3256  -24.5201   18.1558 C   0  0  0  0  0  0  0  0  0  0  0  0
  -27.7528  -15.7032   18.1597 C   0  0  0  0  0  0  0  0  0  0  0  0
  -28.0131  -16.9426   16.1023 C   0  0  0  0  0  0  0  0  0  0  0  0
  -30.4679  -24.7044   19.2478 C   0  0  0  0  0  0  0  0  0  0  0  0
  -27.7270  -25.1872   19.2239 C   0  0  0  0  0  0  0  0  0  0  0  0
  -22.9998  -29.0714   18.9546 C   0  0  0  0  0  0  0  0  0  0  0  0
  -27.7341  -14.5095   17.4383 C   0  0  0  0  0  0  0  0  0  0  0  0
  -27.9945  -15.7490   15.3809 C   0  0  0  0  0  0  0  0  0  0  0  0
  -21.6355  -28.9063   19.1900 C   0  0  0  0  0  0  0  0  0  0  0  0
  -30.1418  -13.2398   14.6643 C   0  0  0  0  0  0  0  0  0  0  0  0
  -31.0967  -13.0758   13.6609 C   0  0  0  0  0  0  0  0  0  0  0  0
  -21.9333  -29.7106   21.4447 C   0  0  0  0  0  0  0  0  0  0  0  0
  -29.3358  -12.8406   12.0236 C   0  0  0  0  0  0  0  0  0  0  0  0
  -27.8922  -16.9197   17.4917 C   0  0  0  0  0  0  0  0  0  0  0  0
  -22.9017  -22.4444   22.8003 C   0  0  0  0  0  0  0  0  0  0  0  0
  -29.0375  -18.8058   18.7719 C   0  0  0  0  0  0  0  0  0  0  0  0
  -29.8799  -25.3856   20.3253 C   0  0  0  0  0  0  0  0  0  0  0  0
  -23.8443  -29.5478   19.9677 C   0  0  0  0  0  0  0  0  0  0  0  0
  -28.4919  -25.6216   20.3198 C   0  0  0  0  0  0  0  0  0  0  0  0
  -23.3074  -29.8832   21.2189 C   0  0  0  0  0  0  0  0  0  0  0  0
  -21.5922  -22.0150   23.0157 C   0  0  0  0  0  0  0  0  0  0  0  0
  -23.2274  -23.7922   22.9512 C   0  0  0  0  0  0  0  0  0  0  0  0
  -20.6084  -22.9335   23.3820 C   0  0  0  0  0  0  0  0  0  0  0  0
  -22.2437  -24.7107   23.3176 C   0  0  0  0  0  0  0  0  0  0  0  0
  -20.9341  -24.2813   23.5330 C   0  0  0  0  0  0  0  0  0  0  0  0
  -27.8550  -14.5324   16.0489 C   0  0  0  0  0  0  0  0  0  0  0  0
  -21.1026  -29.2232   20.4360 C   0  0  0  0  0  0  0  0  0  0  0  0
  -28.7839  -13.2041   14.3474 C   0  0  0  0  0  0  0  0  0  0  0  0
  -30.6937  -12.8763   12.3405 C   0  0  0  0  0  0  0  0  0  0  0  0
  -28.3809  -13.0046   13.0270 C   0  0  0  0  0  0  0  0  0  0  0  0
  -27.9110  -18.1531   18.2364 C   0  0  0  0  0  0  0  0  0  0  0  0
  -28.5278  -19.9262   19.3813 C   0  0  0  0  0  0  0  0  0  0  0  0
  -23.9371  -21.4777   22.4148 C   0  0  0  0  0  0  0  0  0  0  0  0
  -30.4210  -18.4327   18.7227 C   0  0  0  0  0  0  0  0  0  0  0  0
  -26.3509  -28.3777   21.5334 C   0  0  0  0  0  0  0  0  0  0  0  0
  -26.4604  -31.3620   22.8000 C   0  0  0  0  0  0  0  0  0  0  0  0
  -24.8032  -34.2427   23.5759 C   0  0  0  0  0  0  0  0  0  0  0  0
  -30.7479  -25.7851   21.4921 C   0  0  0  0  0  0  0  0  0  0  0  0
  -25.3092  -29.7456   19.6896 C   0  0  0  0  0  0  0  0  0  0  0  0
  -24.1679  -30.4175   22.3336 C   0  0  0  0  0  0  0  0  0  0  0  0
  -30.0970  -26.8161   22.4106 C   0  0  0  0  0  0  0  0  0  0  0  0
  -24.3510  -22.5322   18.9676 C   0  0  0  0  0  0  0  0  0  0  0  0
  -28.6582  -26.4183   22.7246 C   0  0  0  0  0  0  0  0  0  0  0  0
  -25.4153  -21.5506   18.4754 C   0  0  0  0  0  0  0  0  0  0  0  0
  -17.9103  -27.6847   22.1627 C   0  0  0  0  0  0  0  0  0  0  0  0
  -23.3971  -21.8682   19.9558 C   0  0  0  0  0  0  0  0  0  0  0  0
  -25.1410  -20.2531   20.6364 C   0  0  0  0  0  0  0  0  0  0  0  0
  -17.8313  -26.5668   23.1895 C   0  0  0  0  0  0  0  0  0  0  0  0
  -19.6307  -26.1649   21.5849 C   0  0  0  0  0  0  0  0  0  0  0  0
  -27.8098  -26.3640   21.4484 C   0  0  1  0  0  0  0  0  0  0  0  0
  -26.1621  -29.7513   20.9545 C   0  0  1  0  0  0  0  0  0  0  0  0
  -18.5531  -27.0267   20.9497 C   0  0  2  0  0  0  0  0  0  0  0  0
  -26.1451  -20.8825   19.6552 C   0  0  1  0  0  0  0  0  0  0  0  0
  -21.2385  -20.5693   22.8549 C   0  0  0  0  0  0  0  0  0  0  0  0
  -24.6316  -24.2571   22.7211 C   0  0  0  0  0  0  0  0  0  0  0  0
  -19.2035  -22.4732   23.6137 C   0  0  0  0  0  0  0  0  0  0  0  0
  -22.5927  -26.1567   23.4799 C   0  0  0  0  0  0  0  0  0  0  0  0
  -25.1493  -36.4890   24.6398 C   0  0  0  0  0  0  0  0  0  0  0  0
  -18.0024  -28.6344   19.0955 C   0  0  0  0  0  0  0  0  0  0  0  0
  -26.4360  -30.0569   25.5579 C   0  0  0  0  0  0  0  0  0  0  0  0
  -25.8283  -32.2830   26.5292 C   0  0  0  0  0  0  0  0  0  0  0  0
  -27.9996  -31.9959   25.3353 C   0  0  0  0  0  0  0  0  0  0  0  0
  -24.0858  -35.6640   21.0811 C   0  0  0  0  0  0  0  0  0  0  0  0
  -19.8761  -25.2691   23.9276 C   0  0  0  0  0  0  0  0  0  0  0  0
  -25.8496  -32.0348   24.0056 C   0  0  1  0  0  0  0  0  0  0  0  0
  -25.1527  -35.7009   23.3392 C   0  0  2  0  0  0  0  0  0  0  0  0
  -19.1065  -28.0263   19.9469 C   0  0  1  0  0  0  0  0  0  1  0  0
  -26.5122  -31.5808   25.3368 C   0  0  0  0  0  0  0  0  0  0  0  0
  -26.7715  -18.8045   18.4840 N   0  0  0  0  0  0  0  0  0  0  0  0
  -27.1794  -19.8782   19.1819 N   0  0  0  0  0  0  0  0  0  0  0  0
  -24.1424  -21.2393   21.0537 N   0  0  0  0  0  0  0  0  0  0  0  0
  -25.5951  -30.5873   22.0146 N   0  0  0  0  0  0  0  0  0  0  0  0
  -29.1059  -20.9378   20.0631 N   0  0  0  0  0  0  0  0  0  0  0  0
  -30.7710  -17.2507   18.0558 N   0  0  0  0  0  0  0  0  0  0  0  0
  -27.4435  -27.6994   21.0278 N   0  0  0  0  0  0  0  0  0  0  0  0
  -25.9308  -33.4701   23.7568 N   0  0  0  0  0  0  0  0  0  0  0  0
  -18.9415  -25.6040   22.8100 N   0  3  1  0  0  0  0  0  0  0  0  0
  -24.1696  -36.3248   22.4090 N   0  3  0  0  0  0  0  0  0  0  0  0
  -24.5595  -20.9529   23.3370 O   0  0  0  0  0  0  0  0  0  0  0  0
  -31.3184  -19.1184   19.2686 O   0  0  0  0  0  0  0  0  0  0  0  0
  -25.5645  -27.9645   22.3775 O   0  0  0  0  0  0  0  0  0  0  0  0
  -27.6595  -31.5238   22.5600 O   0  0  0  0  0  0  0  0  0  0  0  0
  -23.6455  -33.8310   23.6017 O   0  0  0  0  0  0  0  0  0  0  0  0
  -27.8371  -13.3678   15.3446 O   0  0  0  0  0  0  0  0  0  0  0  0
  -19.7714  -29.0623   20.6686 O   0  0  0  0  0  0  0  0  0  1  0  0
  -31.6109  -12.7204   11.3768 F   0  0  0  0  0  0  0  0  0  0  0  0
  -27.0778  -12.9705   12.7163 F   0  0  0  0  0  0  0  0  0  0  0  0
  1  2  1  0  0  0  0
  1  5  2  0  0  0  0
  2  6  2  0  0  0  0
  3  8  2  0  0  0  0
  3 15  1  0  0  0  0
  4  9  1  0  0  0  0
  4 15  2  0  0  0  0
  5 18  1  0  0  0  0
  6 20  1  0  0  0  0
  7 10  2  0  0  0  0
  7 19  1  0  0  0  0
  8 27  1  0  0  0  0
  9 27  2  0  0  0  0
 10 28  1  0  0  0  0
 11 12  2  0  0  0  0
 11 29  1  0  0  0  0
 12 30  1  0  0  0  0
 13 21  1  0  0  0  0
 13 28  2  0  0  0  0
 14 30  2  0  0  0  0
 14 31  1  0  0  0  0
 15 32  1  0  0  0  0
 16 22  1  0  0  0  0
 16 23  2  0  0  0  0
 16 34  1  0  0  0  0
 17 32  1  0  0  0  0
 17 33  2  0  0  0  0
 17 35  1  0  0  0  0
 18 20  2  0  0  0  0
 18 39  1  0  0  0  0
 19 21  2  0  0  0  0
 19 40  1  0  0  0  0
 20 51  1  0  0  0  0
 21 41  1  0  0  0  0
 22 24  2  0  0  0  0
 22 55  1  0  0  0  0
 23 25  1  0  0  0  0
 23 56  1  0  0  0  0
 24 26  1  0  0  0  0
 24 57  1  0  0  0  0
 25 26  2  0  0  0  0
 25 58  1  0  0  0  0
 26 65  1  0  0  0  0
 27 85  1  0  0  0  0
 28 86  1  0  0  0  0
 29 31  2  0  0  0  0
 29 85  1  0  0  0  0
 30 87  1  0  0  0  0
 31 88  1  0  0  0  0
 32 70  2  0  0  0  0
 33 71  1  0  0  0  0
 33 74  1  0  0  0  0
 34 72  1  0  0  0  0
 34 80  2  0  0  0  0
 35 75  1  0  0  0  0
 35 81  2  0  0  0  0
 36 52  1  0  0  0  0
 36 76  1  0  0  0  0
 36 82  2  0  0  0  0
 37 66  1  0  0  0  0
 37 73  1  0  0  0  0
 37 83  2  0  0  0  0
 38 67  1  0  0  0  0
 38 77  1  0  0  0  0
 38 84  2  0  0  0  0
 39 42  1  0  0  0  0
 40 52  1  0  0  0  0
 41 73  1  0  0  0  0
 42 44  1  0  0  0  0
 43 45  1  0  0  0  0
 43 47  1  0  0  0  0
 44 51  1  0  0  0  0
 45 54  1  0  0  0  0
 46 49  1  0  0  0  0
 46 53  1  0  0  0  0
 47 72  1  0  0  0  0
 48 54  1  0  0  0  0
 48 72  1  0  0  0  0
 49 78  1  0  0  0  0
 50 53  1  0  0  0  0
 50 78  1  0  0  0  0
 51 76  1  0  0  0  0
 52 73  1  0  0  0  0
 53 68  1  0  0  0  0
 54 71  1  0  0  0  0
 59 67  1  0  0  0  0
 60 68  1  0  0  0  0
 61 69  1  0  0  0  0
 62 69  1  0  0  0  0
 63 69  1  0  0  0  0
 64 79  1  0  0  0  0
 65 78  1  0  0  0  0
 66 69  1  0  0  0  0
 66 77  1  0  0  0  0
 67 79  1  0  0  0  0
 68 86  1  0  0  0  0
 70 71  1  0  0  0  0
M  CHG  2  78   1  79   1
M  ISO  4  16 100  34 100  68 101  86 101
M  END
> <Batch ID>
0160

> <Smiles>
CNC(C)C(=O)NC(C(=O)N1Cc2cc([101O:1][101CH:1](C)C3CCN(Cc4c(C)c(C)[100c:0]([100C:0](=O)N5CCCC(n6nc(-c7ccc(Oc8ccc(F)cc8F)cc7)c(C(N)=O)c6N)C5)c(C)c4C)C3)ccc2CC1C(=O)NC1CCCc2ccccc21)C(C)(C)C

> <Shape>
0.239

> <Color>
0.066

> <Negative vol penalty>
0.000

$$$$

  -OEChem-04052322093D

 87 96  0     1  0  0  0  0  0999 V2000
  -18.7086  -10.8705   21.1159 C   0  0  0  0  0  0  0  0  0  0  0  0
  -18.4765  -12.2328   20.9556 C   0  0  0  0  0  0  0  0  0  0  0  0
  -27.9232  -27.6302   19.7981 C   0  0  0  0  0  0  0  0  0  0  0  0
  -29.3837  -27.8864   21.7055 C   0  0  0  0  0  0  0  0  0  0  0  0
  -19.8237  -10.4338   21.8297 C   0  0  0  0  0  0  0  0  0  0  0  0
  -19.3589  -13.1593   21.5101 C   0  0  0  0  0  0  0  0  0  0  0  0
  -22.1075  -19.6642   20.3071 C   0  0  0  0  0  0  0  0  0  0  0  0
  -28.7930  -26.6822   19.2593 C   0  0  0  0  0  0  0  0  0  0  0  0
  -30.2536  -26.9383   21.1668 C   0  0  0  0  0  0  0  0  0  0  0  0
  -22.2815  -20.8939   20.9405 C   0  0  0  0  0  0  0  0  0  0  0  0
  -29.5059  -23.4093   19.7204 C   0  0  0  0  0  0  0  0  0  0  0  0
  -28.9495  -22.2413   19.1991 C   0  0  0  0  0  0  0  0  0  0  0  0
  -24.2177  -20.0231   22.0860 C   0  0  0  0  0  0  0  0  0  0  0  0
  -18.3036  -28.8562   22.3961 C   0  0  0  0  0  0  0  0  0  0  0  0
  -29.8906  -22.7590   17.0350 C   0  0  0  0  0  0  0  0  0  0  0  0
  -28.2186  -28.2324   21.0212 C   0  0  0  0  0  0  0  0  0  0  0  0
  -26.9337  -30.4361   21.0000 C   0  0  0  0  0  0  0  0  0  0  0  0
  -20.7255  -11.3553   22.3850 C   0  0  0  0  0  0  0  0  0  0  0  0
  -22.9823  -18.5995   20.5671 C   0  0  0  0  0  0  0  0  0  0  0  0
  -20.4864  -12.7345   22.2332 C   0  0  0  0  0  0  0  0  0  0  0  0
  -24.0541  -18.7817   21.4526 C   0  0  0  0  0  0  0  0  0  0  0  0
  -19.8523  -27.7363   23.8562 C   0  0  0  0  0  0  0  0  0  0  0  0
  -29.9581  -26.3362   19.9436 C   0  0  0  0  0  0  0  0  0  0  0  0
  -23.3350  -21.0727   21.8323 C   0  0  0  0  0  0  0  0  0  0  0  0
  -30.2546  -24.2522   18.8990 C   0  0  0  0  0  0  0  0  0  0  0  0
  -18.9404  -28.7610   23.6284 C   0  0  0  0  0  0  0  0  0  0  0  0
  -29.1418  -21.9161   17.8564 C   0  0  0  0  0  0  0  0  0  0  0  0
  -30.4470  -23.9270   17.5563 C   0  0  0  0  0  0  0  0  0  0  0  0
  -27.3207  -29.2122   21.5780 C   0  0  0  0  0  0  0  0  0  0  0  0
  -20.0903  -26.8394   22.8273 C   0  0  0  0  0  0  0  0  0  0  0  0
  -18.6111  -27.9092   21.4325 C   0  0  0  0  0  0  0  0  0  0  0  0
  -26.0766  -30.9931   21.9173 C   0  0  0  0  0  0  0  0  0  0  0  0
  -27.3149  -31.0174   19.7461 C   0  0  0  0  0  0  0  0  0  0  0  0
  -22.6663  -15.6860   21.7981 C   0  0  0  0  0  0  0  0  0  0  0  0
  -25.7817  -15.4084   20.9381 C   0  0  0  0  0  0  0  0  0  0  0  0
  -28.7408  -16.9543   20.2306 C   0  0  0  0  0  0  0  0  0  0  0  0
  -22.5871  -28.6727   26.1837 C   0  0  0  0  0  0  0  0  0  0  0  0
  -21.8913  -10.8360   23.1888 C   0  0  0  0  0  0  0  0  0  0  0  0
  -22.7968  -17.2875   19.8553 C   0  0  0  0  0  0  0  0  0  0  0  0
  -25.0331  -17.6766   21.7506 C   0  0  0  0  0  0  0  0  0  0  0  0
  -22.9808  -11.8788   23.4253 C   0  0  0  0  0  0  0  0  0  0  0  0
  -25.1606  -31.0819   26.6140 C   0  0  0  0  0  0  0  0  0  0  0  0
  -22.3661  -13.2004   23.8750 C   0  0  0  0  0  0  0  0  0  0  0  0
  -22.2668  -25.8074   22.0468 C   0  0  0  0  0  0  0  0  0  0  0  0
  -20.3926  -24.3270   22.9042 C   0  0  0  0  0  0  0  0  0  0  0  0
  -25.9695  -30.9912   25.3188 C   0  0  0  0  0  0  0  0  0  0  0  0
  -23.2558  -24.6628   22.2513 C   0  0  0  0  0  0  0  0  0  0  0  0
  -21.3915  -23.1904   23.1047 C   0  0  0  0  0  0  0  0  0  0  0  0
  -24.6554  -29.7117   27.0608 C   0  0  0  0  0  0  0  0  0  0  0  0
  -24.7077  -28.8747   24.7450 C   0  0  0  0  0  0  0  0  0  0  0  0
  -21.4341  -13.7700   22.7987 C   0  0  1  0  0  0  0  0  0  0  0  0
  -21.0765  -25.7013   23.0167 C   0  0  0  0  0  0  0  0  0  0  0  0
  -23.4437  -16.1148   20.5858 C   0  0  1  0  0  0  0  0  0  0  0  0
  -25.1914  -30.2385   24.2226 C   0  0  2  0  0  0  0  0  0  0  0  0
  -22.5727  -23.3006   22.1436 C   0  0  0  0  0  0  0  0  0  1  0  0
  -17.9467  -27.9805   20.0983 C   0  0  0  0  0  0  0  0  0  0  0  0
  -31.1282  -17.1874   19.4933 C   0  0  0  0  0  0  0  0  0  0  0  0
  -26.3712  -14.5741   23.8133 C   0  0  0  0  0  0  0  0  0  0  0  0
  -28.7950  -15.0196   23.3719 C   0  0  0  0  0  0  0  0  0  0  0  0
  -27.5957  -13.2593   22.0736 C   0  0  0  0  0  0  0  0  0  0  0  0
  -27.9544  -17.2899   17.3973 C   0  0  0  0  0  0  0  0  0  0  0  0
  -17.7114  -30.6918   24.2746 C   0  0  0  0  0  0  0  0  0  0  0  0
  -20.5474  -27.6144   25.1700 C   0  0  0  0  0  0  0  0  0  0  0  0
  -27.1048  -15.6950   21.6061 C   0  0  1  0  0  0  0  0  0  0  0  0
  -29.7218  -16.7763   19.0859 C   0  0  2  0  0  0  0  0  0  0  0  0
  -27.4473  -14.6574   22.7123 C   0  0  0  0  0  0  0  0  0  0  0  0
  -26.7559  -29.0035   22.7702 N   0  0  0  0  0  0  0  0  0  0  0  0
  -19.4911  -26.8997   21.6170 N   0  0  0  0  0  0  0  0  0  0  0  0
  -26.0053  -30.1038   22.9489 N   0  0  0  0  0  0  0  0  0  0  0  0
  -24.8058  -16.4104   21.0346 N   0  0  0  0  0  0  0  0  0  0  0  0
  -23.9216  -29.0556   25.9756 N   0  0  0  0  0  0  0  0  0  0  0  0
  -25.3845  -32.1521   21.9341 N   0  0  0  0  0  0  0  0  0  0  0  0
  -28.4433  -31.8480   19.7102 N   0  0  0  0  0  0  0  0  0  0  0  0
  -22.2031  -14.3855   21.7384 N   0  0  0  0  0  0  0  0  0  0  0  0
  -28.0932  -15.7759   20.5362 N   0  0  0  0  0  0  0  0  0  0  0  0
  -21.9532  -28.0639   25.1056 N   0  0  0  0  0  0  0  0  0  0  0  0
  -29.3100  -17.6045   17.9174 N   0  3  0  0  0  0  0  0  0  0  0  0
  -26.6643  -30.8198   18.6919 O   0  0  0  0  0  0  0  0  0  0  0  0
  -22.5003  -16.4762   22.7200 O   0  0  0  0  0  0  0  0  0  0  0  0
  -25.6225  -14.3379   20.3462 O   0  0  0  0  0  0  0  0  0  0  0  0
  -28.5691  -18.0301   20.7996 O   0  0  0  0  0  0  0  0  0  0  0  0
  -21.9931  -28.8640   27.2504 O   0  0  0  0  0  0  0  0  0  0  0  0
  -30.8070  -25.4110   19.4183 O   0  0  0  0  0  0  0  0  0  0  0  0
  -23.5067  -22.2718   22.4525 O   0  0  0  0  0  0  0  0  0  1  0  0
  -18.6594  -29.6760   24.5973 O   0  0  0  0  0  0  0  0  0  0  0  0
  -28.6088  -20.7937   17.3562 F   0  0  0  0  0  0  0  0  0  0  0  0
  -31.1663  -24.7322   16.7626 F   0  0  0  0  0  0  0  0  0  0  0  0
  1  2  1  0  0  0  0
  1  5  2  0  0  0  0
  2  6  2  0  0  0  0
  3  8  2  0  0  0  0
  3 16  1  0  0  0  0
  4  9  1  0  0  0  0
  4 16  2  0  0  0  0
  5 18  1  0  0  0  0
  6 20  1  0  0  0  0
  7 10  2  0  0  0  0
  7 19  1  0  0  0  0
  8 23  1  0  0  0  0
  9 23  2  0  0  0  0
 10 24  1  0  0  0  0
 11 12  2  0  0  0  0
 11 25  1  0  0  0  0
 12 27  1  0  0  0  0
 13 21  1  0  0  0  0
 13 24  2  0  0  0  0
 14 26  2  0  0  0  0
 14 31  1  0  0  0  0
 15 27  2  0  0  0  0
 15 28  1  0  0  0  0
 16 29  1  0  0  0  0
 17 29  1  0  0  0  0
 17 32  2  0  0  0  0
 17 33  1  0  0  0  0
 18 20  2  0  0  0  0
 18 38  1  0  0  0  0
 19 21  2  0  0  0  0
 19 39  1  0  0  0  0
 20 51  1  0  0  0  0
 21 40  1  0  0  0  0
 22 26  1  0  0  0  0
 22 30  2  0  0  0  0
 22 63  1  0  0  0  0
 23 83  1  0  0  0  0
 24 84  1  0  0  0  0
 25 28  2  0  0  0  0
 25 83  1  0  0  0  0
 26 85  1  0  0  0  0
 27 86  1  0  0  0  0
 28 87  1  0  0  0  0
 29 67  2  0  0  0  0
 30 52  1  0  0  0  0
 30 68  1  0  0  0  0
 31 56  1  0  0  0  0
 31 68  2  0  0  0  0
 32 69  1  0  0  0  0
 32 72  1  0  0  0  0
 33 73  1  0  0  0  0
 33 78  2  0  0  0  0
 34 53  1  0  0  0  0
 34 74  1  0  0  0  0
 34 79  2  0  0  0  0
 35 64  1  0  0  0  0
 35 70  1  0  0  0  0
 35 80  2  0  0  0  0
 36 65  1  0  0  0  0
 36 75  1  0  0  0  0
 36 81  2  0  0  0  0
 37 71  1  0  0  0  0
 37 76  1  0  0  0  0
 37 82  2  0  0  0  0
 38 41  1  0  0  0  0
 39 53  1  0  0  0  0
 40 70  1  0  0  0  0
 41 43  1  0  0  0  0
 42 46  1  0  0  0  0
 42 49  1  0  0  0  0
 43 51  1  0  0  0  0
 44 47  1  0  0  0  0
 44 52  1  0  0  0  0
 45 48  1  0  0  0  0
 45 52  1  0  0  0  0
 46 54  1  0  0  0  0
 47 55  1  0  0  0  0
 48 55  1  0  0  0  0
 49 71  1  0  0  0  0
 50 54  1  0  0  0  0
 50 71  1  0  0  0  0
 51 74  1  0  0  0  0
 53 70  1  0  0  0  0
 54 69  1  0  0  0  0
 55 84  1  0  0  0  0
 57 65  1  0  0  0  0
 58 66  1  0  0  0  0
 59 66  1  0  0  0  0
 60 66  1  0  0  0  0
 61 77  1  0  0  0  0
 62 85  1  0  0  0  0
 63 76  1  0  0  0  0
 64 66  1  0  0  0  0
 64 75  1  0  0  0  0
 65 77  1  0  0  0  0
 67 69  1  0  0  0  0
M  CHG  1  77   1
M  ISO  4  37 100  55 101  76 100  84 101
M  END
> <Batch ID>
0160

> <Smiles>
CNC(C)C(=O)NC(C(=O)N1Cc2cc([101O:1][101CH:1]3CCC(c4nc(C)cc(OC)c4C[100NH:0][100C:0](=O)N4CCCC(n5nc(-c6ccc(Oc7ccc(F)cc7F)cc6)c(C(N)=O)c5N)C4)CC3)ccc2CC1C(=O)NC1CCCc2ccccc21)C(C)(C)C

> <Shape>
0.244

> <Color>
0.046

> <Negative vol penalty>
0.000

$$$$

  -OEChem-04052322093D

 84 93  0     1  0  0  0  0  0999 V2000
  -30.2739  -20.7115   17.3164 C   0  0  0  0  0  0  0  0  0  0  0  0
  -29.6691  -21.0581   18.5203 C   0  0  0  0  0  0  0  0  0  0  0  0
  -26.9267  -17.1747   18.5267 C   0  0  0  0  0  0  0  0  0  0  0  0
  -26.7448  -17.9962   20.7915 C   0  0  0  0  0  0  0  0  0  0  0  0
  -30.7227  -21.7080   16.4507 C   0  0  0  0  0  0  0  0  0  0  0  0
  -29.5137  -22.4016   18.8598 C   0  0  0  0  0  0  0  0  0  0  0  0
  -24.9073  -23.4199   20.7009 C   0  0  0  0  0  0  0  0  0  0  0  0
  -28.3116  -17.0886   18.6691 C   0  0  0  0  0  0  0  0  0  0  0  0
  -28.1297  -17.9100   20.9339 C   0  0  0  0  0  0  0  0  0  0  0  0
  -24.6581  -23.0638   22.0256 C   0  0  0  0  0  0  0  0  0  0  0  0
  -31.5835  -17.5647   22.0156 C   0  0  0  0  0  0  0  0  0  0  0  0
  -32.0816  -17.0034   23.1913 C   0  0  0  0  0  0  0  0  0  0  0  0
  -25.0291  -25.3490   22.7034 C   0  0  0  0  0  0  0  0  0  0  0  0
  -20.8966  -23.4248   22.8968 C   0  0  0  0  0  0  0  0  0  0  0  0
  -30.9277  -14.9396   22.6948 C   0  0  0  0  0  0  0  0  0  0  0  0
  -26.1433  -17.6285   19.5878 C   0  0  0  0  0  0  0  0  0  0  0  0
  -23.7644  -16.7182   19.7279 C   0  0  0  0  0  0  0  0  0  0  0  0
  -30.5640  -23.0645   16.7753 C   0  0  0  0  0  0  0  0  0  0  0  0
  -25.2306  -24.7433   20.3684 C   0  0  0  0  0  0  0  0  0  0  0  0
  -29.9619  -23.4173   17.9982 C   0  0  0  0  0  0  0  0  0  0  0  0
  -25.2795  -25.7198   21.3734 C   0  0  0  0  0  0  0  0  0  0  0  0
  -20.3736  -24.1919   23.9319 C   0  0  0  0  0  0  0  0  0  0  0  0
  -19.4246  -25.1694   23.6543 C   0  0  0  0  0  0  0  0  0  0  0  0
  -28.9131  -17.4562   19.8727 C   0  0  0  0  0  0  0  0  0  0  0  0
  -24.7218  -24.0278   23.0275 C   0  0  0  0  0  0  0  0  0  0  0  0
  -30.7575  -16.8136   21.1795 C   0  0  0  0  0  0  0  0  0  0  0  0
  -31.7537  -15.6908   23.5310 C   0  0  0  0  0  0  0  0  0  0  0  0
  -30.4296  -15.5010   21.5191 C   0  0  0  0  0  0  0  0  0  0  0  0
  -24.7127  -17.7183   19.4411 C   0  0  0  0  0  0  0  0  0  0  0  0
  -19.0349  -25.3391   22.3355 C   0  0  0  0  0  0  0  0  0  0  0  0
  -20.4409  -23.6725   21.6120 C   0  0  0  0  0  0  0  0  0  0  0  0
  -22.5553  -17.2940   19.4229 C   0  0  0  0  0  0  0  0  0  0  0  0
  -23.9590  -15.3878   20.2257 C   0  0  0  0  0  0  0  0  0  0  0  0
  -27.7529  -26.1781   19.0711 C   0  0  0  0  0  0  0  0  0  0  0  0
  -25.8215  -28.7830   19.1482 C   0  0  0  0  0  0  0  0  0  0  0  0
  -23.4667  -30.2479   21.4561 C   0  0  0  0  0  0  0  0  0  0  0  0
  -20.6710  -22.9603   19.2065 C   0  0  0  0  0  0  0  0  0  0  0  0
  -31.1076  -24.1058   15.8293 C   0  0  0  0  0  0  0  0  0  0  0  0
  -25.4704  -25.1166   18.9312 C   0  0  0  0  0  0  0  0  0  0  0  0
  -25.6023  -27.1585   21.0661 C   0  0  0  0  0  0  0  0  0  0  0  0
  -30.5673  -25.5090   16.0923 C   0  0  0  0  0  0  0  0  0  0  0  0
  -20.5941  -20.5879   16.5527 C   0  0  0  0  0  0  0  0  0  0  0  0
  -30.6243  -25.8325   17.5819 C   0  0  0  0  0  0  0  0  0  0  0  0
  -21.5505  -19.4888   17.0211 C   0  0  0  0  0  0  0  0  0  0  0  0
  -23.2197  -24.0234   26.4370 C   0  0  0  0  0  0  0  0  0  0  0  0
  -21.0819  -21.9765   16.9619 C   0  0  0  0  0  0  0  0  0  0  0  0
  -22.3393  -21.0338   18.8590 C   0  0  0  0  0  0  0  0  0  0  0  0
  -29.7530  -24.8638   18.3905 C   0  0  1  0  0  0  0  0  0  0  0  0
  -26.2953  -26.3903   18.7743 C   0  0  1  0  0  0  0  0  0  0  0  0
  -22.2633  -23.4521   25.4269 C   0  0  2  0  0  0  0  0  0  0  0  0
  -21.8569  -19.6123   18.5266 C   0  0  2  0  0  0  0  0  0  0  0  0
  -23.3939  -24.3378   24.9759 C   0  0  2  0  0  0  0  0  0  1  0  0
  -18.8449  -26.0070   24.7441 C   0  0  0  0  0  0  0  0  0  0  0  0
  -18.0196  -26.3749   21.9770 C   0  0  0  0  0  0  0  0  0  0  0  0
  -19.8754  -22.9993   26.0960 C   0  0  0  0  0  0  0  0  0  0  0  0
  -21.4727  -31.7140   21.0416 C   0  0  0  0  0  0  0  0  0  0  0  0
  -27.7707  -31.0787   19.6388 C   0  0  0  0  0  0  0  0  0  0  0  0
  -25.9387  -32.2837   20.8471 C   0  0  0  0  0  0  0  0  0  0  0  0
  -25.6795  -31.7261   18.4296 C   0  0  0  0  0  0  0  0  0  0  0  0
  -21.6641  -28.4052   22.9101 C   0  0  0  0  0  0  0  0  0  0  0  0
  -20.8582  -23.9422   25.3647 C   0  0  2  0  0  0  0  0  0  0  0  0
  -25.5427  -29.8780   20.1494 C   0  0  1  0  0  0  0  0  0  0  0  0
  -21.9569  -30.2967   21.3054 C   0  0  2  0  0  0  0  0  0  0  0  0
  -26.2410  -31.2156   19.7745 C   0  0  0  0  0  0  0  0  0  0  0  0
  -24.1542  -18.8440   18.9885 N   0  0  0  0  0  0  0  0  0  0  0  0
  -19.5204  -24.6133   21.3035 N   0  0  0  0  0  0  0  0  0  0  0  0
  -22.8418  -18.5547   18.9885 N   0  0  0  0  0  0  0  0  0  0  0  0
  -25.8352  -27.4727   19.6467 N   0  0  0  0  0  0  0  0  0  0  0  0
  -21.3476  -22.0197   18.4014 N   0  0  0  0  0  0  0  0  0  0  0  0
  -21.2856  -16.8397   19.4864 N   0  0  0  0  0  0  0  0  0  0  0  0
  -25.2668  -14.9565   20.4863 N   0  0  0  0  0  0  0  0  0  0  0  0
  -20.9802  -22.8856   20.5642 N   0  0  0  0  0  0  0  0  0  0  0  0
  -28.3560  -25.2235   18.2745 N   0  0  0  0  0  0  0  0  0  0  0  0
  -24.0909  -29.9718   20.2581 N   0  0  0  0  0  0  0  0  0  0  0  0
  -21.2963  -29.7973   22.5444 N   0  3  0  0  0  0  0  0  0  0  0  0
  -23.0027  -14.5989   20.4176 O   0  0  0  0  0  0  0  0  0  0  0  0
  -28.2909  -26.8330   19.9561 O   0  0  0  0  0  0  0  0  0  0  0  0
  -26.0127  -29.0789   17.9660 O   0  0  0  0  0  0  0  0  0  0  0  0
  -24.0356  -30.4394   22.5286 O   0  0  0  0  0  0  0  0  0  0  0  0
  -19.8553  -23.7543   18.7307 O   0  0  0  0  0  0  0  0  0  0  0  0
  -30.2644  -17.3720   20.0122 O   0  0  0  0  0  0  0  0  0  0  0  0
  -24.4797  -23.6828   24.3214 O   0  0  0  0  0  0  0  0  0  1  0  0
  -32.2333  -15.1513   24.6593 F   0  0  0  0  0  0  0  0  0  0  0  0
  -29.6374  -14.7740   20.7192 F   0  0  0  0  0  0  0  0  0  0  0  0
  1  2  1  0  0  0  0
  1  5  2  0  0  0  0
  2  6  2  0  0  0  0
  3  8  2  0  0  0  0
  3 16  1  0  0  0  0
  4  9  1  0  0  0  0
  4 16  2  0  0  0  0
  5 18  1  0  0  0  0
  6 20  1  0  0  0  0
  7 10  2  0  0  0  0
  7 19  1  0  0  0  0
  8 24  1  0  0  0  0
  9 24  2  0  0  0  0
 10 25  1  0  0  0  0
 11 12  2  0  0  0  0
 11 26  1  0  0  0  0
 12 27  1  0  0  0  0
 13 21  1  0  0  0  0
 13 25  2  0  0  0  0
 14 22  1  0  0  0  0
 14 31  2  0  0  0  0
 15 27  2  0  0  0  0
 15 28  1  0  0  0  0
 16 29  1  0  0  0  0
 17 29  1  0  0  0  0
 17 32  2  0  0  0  0
 17 33  1  0  0  0  0
 18 20  2  0  0  0  0
 18 38  1  0  0  0  0
 19 21  2  0  0  0  0
 19 39  1  0  0  0  0
 20 48  1  0  0  0  0
 21 40  1  0  0  0  0
 22 23  2  0  0  0  0
 22 61  1  0  0  0  0
 23 30  1  0  0  0  0
 23 53  1  0  0  0  0
 24 81  1  0  0  0  0
 25 82  1  0  0  0  0
 26 28  2  0  0  0  0
 26 81  1  0  0  0  0
 27 83  1  0  0  0  0
 28 84  1  0  0  0  0
 29 65  2  0  0  0  0
 30 54  1  0  0  0  0
 30 66  2  0  0  0  0
 31 66  1  0  0  0  0
 31 72  1  0  0  0  0
 32 67  1  0  0  0  0
 32 70  1  0  0  0  0
 33 71  1  0  0  0  0
 33 76  2  0  0  0  0
 34 49  1  0  0  0  0
 34 73  1  0  0  0  0
 34 77  2  0  0  0  0
 35 62  1  0  0  0  0
 35 68  1  0  0  0  0
 35 78  2  0  0  0  0
 36 63  1  0  0  0  0
 36 74  1  0  0  0  0
 36 79  2  0  0  0  0
 37 69  1  0  0  0  0
 37 72  1  0  0  0  0
 37 80  2  0  0  0  0
 38 41  1  0  0  0  0
 39 49  1  0  0  0  0
 40 68  1  0  0  0  0
 41 43  1  0  0  0  0
 42 44  1  0  0  0  0
 42 46  1  0  0  0  0
 43 48  1  0  0  0  0
 44 51  1  0  0  0  0
 45 50  1  0  0  0  0
 45 52  1  0  0  0  0
 46 69  1  0  0  0  0
 47 51  1  0  0  0  0
 47 69  1  0  0  0  0
 48 73  1  0  0  0  0
 49 68  1  0  0  0  0
 50 52  1  0  0  0  0
 50 61  1  0  0  0  0
 51 67  1  0  0  0  0
 52 82  1  0  0  0  0
 55 61  1  0  0  0  0
 56 63  1  0  0  0  0
 57 64  1  0  0  0  0
 58 64  1  0  0  0  0
 59 64  1  0  0  0  0
 60 75  1  0  0  0  0
 62 64  1  0  0  0  0
 62 74  1  0  0  0  0
 63 75  1  0  0  0  0
 65 67  1  0  0  0  0
M  CHG  1  75   1
M  ISO  4  37 100  52 101  72 100  82 101
M  END
> <Batch ID>
0160

> <Smiles>
CNC(C)C(=O)NC(C(=O)N1Cc2cc([101O:1][101CH:1]3CC3C(C)c3cc([100NH:0][100C:0](=O)N4CCCC(n5nc(-c6ccc(Oc7ccc(F)cc7F)cc6)c(C(N)=O)c5N)C4)nc(C)c3C)ccc2CC1C(=O)NC1CCCc2ccccc21)C(C)(C)C

> <Shape>
0.191

> <Color>
0.083

> <Negative vol penalty>
0.000

$$$$

  -OEChem-04052322093D

 90 99  0     1  0  0  0  0  0999 V2000
  -19.9807  -28.7407   18.4252 C   0  0  0  0  0  0  0  0  0  0  0  0
  -20.3705  -27.4453   18.1004 C   0  0  0  0  0  0  0  0  0  0  0  0
  -27.2282  -25.8127   20.3873 C   0  0  0  0  0  0  0  0  0  0  0  0
  -25.8962  -25.1463   18.4849 C   0  0  0  0  0  0  0  0  0  0  0  0
  -19.7641  -29.0889   19.7578 C   0  0  0  0  0  0  0  0  0  0  0  0
  -20.5449  -26.4976   19.1083 C   0  0  0  0  0  0  0  0  0  0  0  0
  -19.8447  -19.4778   20.3525 C   0  0  0  0  0  0  0  0  0  0  0  0
  -26.2345  -26.7149   20.7670 C   0  0  0  0  0  0  0  0  0  0  0  0
  -24.9025  -26.0485   18.8646 C   0  0  0  0  0  0  0  0  0  0  0  0
  -20.5729  -18.3918   20.8365 C   0  0  0  0  0  0  0  0  0  0  0  0
  -24.2047  -29.4523   22.0359 C   0  0  0  0  0  0  0  0  0  0  0  0
  -24.6017  -30.7335   22.4184 C   0  0  0  0  0  0  0  0  0  0  0  0
  -20.0934  -19.0854   23.0967 C   0  0  0  0  0  0  0  0  0  0  0  0
  -29.9368  -12.2178   18.6722 C   0  0  0  0  0  0  0  0  0  0  0  0
  -25.5836  -31.0801   20.2383 C   0  0  0  0  0  0  0  0  0  0  0  0
  -27.0591  -25.0284   19.2462 C   0  0  0  0  0  0  0  0  0  0  0  0
  -27.9401  -13.1089   20.4047 C   0  0  0  0  0  0  0  0  0  0  0  0
  -29.4221  -24.3928   18.5253 C   0  0  0  0  0  0  0  0  0  0  0  0
  -19.9267  -28.1424   20.7816 C   0  0  0  0  0  0  0  0  0  0  0  0
  -19.2436  -20.3834   21.2385 C   0  0  0  0  0  0  0  0  0  0  0  0
  -20.3317  -26.8338   20.4560 C   0  0  0  0  0  0  0  0  0  0  0  0
  -19.3560  -20.1806   22.6214 C   0  0  0  0  0  0  0  0  0  0  0  0
  -28.8836  -11.3708   19.0170 C   0  0  0  0  0  0  0  0  0  0  0  0
  -29.9918  -13.5103   19.1937 C   0  0  0  0  0  0  0  0  0  0  0  0
  -27.8853  -11.8163   19.8832 C   0  0  0  0  0  0  0  0  0  0  0  0
  -28.9934  -13.9559   20.0600 C   0  0  0  0  0  0  0  0  0  0  0  0
  -25.0717  -26.8328   20.0057 C   0  0  0  0  0  0  0  0  0  0  0  0
  -20.6998  -18.1971   22.2088 C   0  0  0  0  0  0  0  0  0  0  0  0
  -24.4972  -28.9849   20.7546 C   0  0  0  0  0  0  0  0  0  0  0  0
  -25.2912  -31.5475   21.5196 C   0  0  0  0  0  0  0  0  0  0  0  0
  -25.1866  -29.7988   19.8558 C   0  0  0  0  0  0  0  0  0  0  0  0
  -28.0855  -24.0967   18.8531 C   0  0  0  0  0  0  0  0  0  0  0  0
  -29.9800  -23.1742   18.2249 C   0  0  0  0  0  0  0  0  0  0  0  0
  -26.8768  -13.5842   21.3270 C   0  0  0  0  0  0  0  0  0  0  0  0
  -30.0990  -25.6564   18.4951 C   0  0  0  0  0  0  0  0  0  0  0  0
  -19.5609  -23.4907   21.8280 C   0  0  0  0  0  0  0  0  0  0  0  0
  -17.0259  -22.9808   23.7866 C   0  0  0  0  0  0  0  0  0  0  0  0
  -15.2055  -20.7813   25.6561 C   0  0  0  0  0  0  0  0  0  0  0  0
  -28.6207  -17.6936   19.9486 C   0  0  0  0  0  0  0  0  0  0  0  0
  -19.7270  -28.5782   22.2116 C   0  0  0  0  0  0  0  0  0  0  0  0
  -18.4391  -21.5347   20.7004 C   0  0  0  0  0  0  0  0  0  0  0  0
  -18.7127  -21.1125   23.6144 C   0  0  0  0  0  0  0  0  0  0  0  0
  -19.5701  -27.4144   23.1868 C   0  0  0  0  0  0  0  0  0  0  0  0
  -28.8360  -18.8485   16.5256 C   0  0  0  0  0  0  0  0  0  0  0  0
  -20.6378  -26.3555   22.9305 C   0  0  0  0  0  0  0  0  0  0  0  0
  -28.7943  -20.3662   16.7134 C   0  0  0  0  0  0  0  0  0  0  0  0
  -23.3764  -14.6188   20.7060 C   0  0  0  0  0  0  0  0  0  0  0  0
  -24.9702  -16.1830   21.8976 C   0  0  0  0  0  0  0  0  0  0  0  0
  -22.2088  -15.2263   21.4788 C   0  0  0  0  0  0  0  0  0  0  0  0
  -23.7974  -16.7864   22.6660 C   0  0  0  0  0  0  0  0  0  0  0  0
  -27.9187  -18.1430   17.5201 C   0  0  0  0  0  0  0  0  0  0  0  0
  -28.1483  -19.9876   19.1382 C   0  0  0  0  0  0  0  0  0  0  0  0
  -20.5073  -25.7710   21.5188 C   0  0  1  0  0  0  0  0  0  0  0  0
  -18.3007  -22.6834   21.6947 C   0  0  1  0  0  0  0  0  0  0  0  0
  -29.0722  -20.7575   18.1769 C   0  0  2  0  0  0  0  0  0  0  0  0
  -24.6857  -14.7345   21.4919 C   0  0  0  0  0  0  0  0  0  0  0  0
  -22.4907  -16.6714   21.8831 C   0  0  0  0  0  0  0  0  0  1  0  0
  -28.8495   -9.9915   18.4442 C   0  0  0  0  0  0  0  0  0  0  0  0
  -31.1301  -14.3974   18.8086 C   0  0  0  0  0  0  0  0  0  0  0  0
  -26.7571  -10.9033   20.2494 C   0  0  0  0  0  0  0  0  0  0  0  0
  -13.2108  -20.6663   27.1745 C   0  0  0  0  0  0  0  0  0  0  0  0
  -18.6619  -24.2499   26.0279 C   0  0  0  0  0  0  0  0  0  0  0  0
  -17.0485  -23.2642   27.6691 C   0  0  0  0  0  0  0  0  0  0  0  0
  -16.2537  -24.9231   25.9842 C   0  0  0  0  0  0  0  0  0  0  0  0
  -13.8013  -18.8945   23.8597 C   0  0  0  0  0  0  0  0  0  0  0  0
  -29.0592  -15.3441   20.6152 C   0  0  0  0  0  0  0  0  0  0  0  0
  -16.8554  -22.5851   25.2335 C   0  0  1  0  0  0  0  0  0  0  0  0
  -13.7109  -20.5307   25.7447 C   0  0  2  0  0  0  0  0  0  0  0  0
  -17.2187  -23.7389   26.2102 C   0  0  0  0  0  0  0  0  0  0  0  0
  -27.8107  -22.7923   18.7687 N   0  0  0  0  0  0  0  0  0  0  0  0
  -28.9824  -22.2580   18.3844 N   0  0  0  0  0  0  0  0  0  0  0  0
  -17.9418  -22.2271   23.0391 N   0  0  0  0  0  0  0  0  0  0  0  0
  -28.2477  -18.5446   18.8950 N   0  0  0  0  0  0  0  0  0  0  0  0
  -31.2217  -22.8077   17.8424 N   0  0  0  0  0  0  0  0  0  0  0  0
  -30.0930  -26.3892   17.3005 N   0  0  0  0  0  0  0  0  0  0  0  0
  -25.7871  -14.1986   20.7291 N   0  0  0  0  0  0  0  0  0  0  0  0
  -19.4205  -24.8167   21.4654 N   0  0  0  0  0  0  0  0  0  0  0  0
  -15.4859  -22.0996   25.3652 N   0  0  0  0  0  0  0  0  0  0  0  0
  -28.6843  -16.3410   19.6372 N   0  0  0  0  0  0  0  0  0  0  0  0
  -13.3861  -19.1589   25.2614 N   0  3  0  0  0  0  0  0  0  0  0  0
  -27.0205  -13.4327   22.5373 O   0  0  0  0  0  0  0  0  0  0  0  0
  -30.7055  -26.1142   19.4932 O   0  0  0  0  0  0  0  0  0  0  0  0
  -20.5844  -22.9509   22.2314 O   0  0  0  0  0  0  0  0  0  0  0  0
  -16.3654  -23.9194   23.3345 O   0  0  0  0  0  0  0  0  0  0  0  0
  -16.0407  -19.8969   25.8315 O   0  0  0  0  0  0  0  0  0  0  0  0
  -28.8832  -18.1092   21.0824 O   0  0  0  0  0  0  0  0  0  0  0  0
  -24.1017  -27.7129   20.3761 O   0  0  0  0  0  0  0  0  0  0  0  0
  -21.4105  -17.1383   22.6839 O   0  0  0  0  0  0  0  0  0  1  0  0
  -25.6710  -32.7785   21.8865 F   0  0  0  0  0  0  0  0  0  0  0  0
  -25.4695  -29.3557   18.6231 F   0  0  0  0  0  0  0  0  0  0  0  0
  1  2  1  0  0  0  0
  1  5  2  0  0  0  0
  2  6  2  0  0  0  0
  3  8  2  0  0  0  0
  3 16  1  0  0  0  0
  4  9  1  0  0  0  0
  4 16  2  0  0  0  0
  5 19  1  0  0  0  0
  6 21  1  0  0  0  0
  7 10  2  0  0  0  0
  7 20  1  0  0  0  0
  8 27  1  0  0  0  0
  9 27  2  0  0  0  0
 10 28  1  0  0  0  0
 11 12  2  0  0  0  0
 11 29  1  0  0  0  0
 12 30  1  0  0  0  0
 13 22  1  0  0  0  0
 13 28  2  0  0  0  0
 14 23  1  0  0  0  0
 14 24  2  0  0  0  0
 15 30  2  0  0  0  0
 15 31  1  0  0  0  0
 16 32  1  0  0  0  0
 17 25  1  0  0  0  0
 17 26  2  0  0  0  0
 17 34  1  0  0  0  0
 18 32  1  0  0  0  0
 18 33  2  0  0  0  0
 18 35  1  0  0  0  0
 19 21  2  0  0  0  0
 19 40  1  0  0  0  0
 20 22  2  0  0  0  0
 20 41  1  0  0  0  0
 21 53  1  0  0  0  0
 22 42  1  0  0  0  0
 23 25  2  0  0  0  0
 23 58  1  0  0  0  0
 24 26  1  0  0  0  0
 24 59  1  0  0  0  0
 25 60  1  0  0  0  0
 26 66  1  0  0  0  0
 27 87  1  0  0  0  0
 28 88  1  0  0  0  0
 29 31  2  0  0  0  0
 29 87  1  0  0  0  0
 30 89  1  0  0  0  0
 31 90  1  0  0  0  0
 32 70  2  0  0  0  0
 33 71  1  0  0  0  0
 33 74  1  0  0  0  0
 34 76  1  0  0  0  0
 34 81  2  0  0  0  0
 35 75  1  0  0  0  0
 35 82  2  0  0  0  0
 36 54  1  0  0  0  0
 36 77  1  0  0  0  0
 36 83  2  0  0  0  0
 37 67  1  0  0  0  0
 37 72  1  0  0  0  0
 37 84  2  0  0  0  0
 38 68  1  0  0  0  0
 38 78  1  0  0  0  0
 38 85  2  0  0  0  0
 39 73  1  0  0  0  0
 39 79  1  0  0  0  0
 39 86  2  0  0  0  0
 40 43  1  0  0  0  0
 41 54  1  0  0  0  0
 42 72  1  0  0  0  0
 43 45  1  0  0  0  0
 44 46  1  0  0  0  0
 44 51  1  0  0  0  0
 45 53  1  0  0  0  0
 46 55  1  0  0  0  0
 47 49  1  0  0  0  0
 47 56  1  0  0  0  0
 48 50  1  0  0  0  0
 48 56  1  0  0  0  0
 49 57  1  0  0  0  0
 50 57  1  0  0  0  0
 51 73  1  0  0  0  0
 52 55  1  0  0  0  0
 52 73  1  0  0  0  0
 53 77  1  0  0  0  0
 54 72  1  0  0  0  0
 55 71  1  0  0  0  0
 56 76  1  0  0  0  0
 57 88  1  0  0  0  0
 61 68  1  0  0  0  0
 62 69  1  0  0  0  0
 63 69  1  0  0  0  0
 64 69  1  0  0  0  0
 65 80  1  0  0  0  0
 66 79  1  0  0  0  0
 67 69  1  0  0  0  0
 67 78  1  0  0  0  0
 68 80  1  0  0  0  0
 70 71  1  0  0  0  0
M  CHG  1  80   1
M  ISO  4  39 100  57 101  79 100  88 101
M  END
> <Batch ID>
0160

> <Smiles>
CNC(C)C(=O)NC(C(=O)N1Cc2cc([101O:1][101CH:1]3CCC(NC(=O)c4c(C)c(C)cc(C)c4C[100NH:0][100C:0](=O)N4CCCC(n5nc(-c6ccc(Oc7ccc(F)cc7F)cc6)c(C(N)=O)c5N)C4)CC3)ccc2CC1C(=O)NC1CCCc2ccccc21)C(C)(C)C

> <Shape>
0.230

> <Color>
0.061

> <Negative vol penalty>
0.000

$$$$

  -OEChem-04052322093D

 87 96  0     1  0  0  0  0  0999 V2000
  -29.6514  -36.6133   23.8061 C   0  0  0  0  0  0  0  0  0  0  0  0
  -29.8615  -35.6419   22.8326 C   0  0  0  0  0  0  0  0  0  0  0  0
  -23.0366  -16.5319   19.8673 C   0  0  0  0  0  0  0  0  0  0  0  0
  -24.4552  -17.0948   21.7401 C   0  0  0  0  0  0  0  0  0  0  0  0
  -28.9037  -36.3091   24.9429 C   0  0  0  0  0  0  0  0  0  0  0  0
  -29.3248  -34.3652   22.9960 C   0  0  0  0  0  0  0  0  0  0  0  0
  -26.6306  -28.9150   19.2074 C   0  0  0  0  0  0  0  0  0  0  0  0
  -22.3433  -17.7310   20.0320 C   0  0  0  0  0  0  0  0  0  0  0  0
  -23.7620  -18.2939   21.9049 C   0  0  0  0  0  0  0  0  0  0  0  0
  -26.7866  -27.5400   19.0381 C   0  0  0  0  0  0  0  0  0  0  0  0
  -20.8292  -19.3123   23.2436 C   0  0  0  0  0  0  0  0  0  0  0  0
  -20.4604  -19.6750   24.5390 C   0  0  0  0  0  0  0  0  0  0  0  0
  -25.4450  -27.1517   21.0050 C   0  0  0  0  0  0  0  0  0  0  0  0
  -21.7639  -21.6998   24.3432 C   0  0  0  0  0  0  0  0  0  0  0  0
  -24.0925  -16.2138   20.7214 C   0  0  0  0  0  0  0  0  0  0  0  0
  -24.2809  -13.6717   20.6205 C   0  0  0  0  0  0  0  0  0  0  0  0
  -28.3495  -35.0309   25.1157 C   0  0  0  0  0  0  0  0  0  0  0  0
  -25.8885  -29.4199   20.2848 C   0  0  0  0  0  0  0  0  0  0  0  0
  -28.5701  -34.0433   24.1368 C   0  0  0  0  0  0  0  0  0  0  0  0
  -25.2790  -28.5335   21.1843 C   0  0  0  0  0  0  0  0  0  0  0  0
  -27.8615  -21.2217   19.6556 C   0  0  0  0  0  0  0  0  0  0  0  0
  -26.2988  -21.2078   17.8131 C   0  0  0  0  0  0  0  0  0  0  0  0
  -27.8752  -22.6163   19.6334 C   0  0  0  0  0  0  0  0  0  0  0  0
  -26.3125  -22.6024   17.7909 C   0  0  0  0  0  0  0  0  0  0  0  0
  -27.0733  -20.5174   18.7454 C   0  0  0  0  0  0  0  0  0  0  0  0
  -27.1007  -23.3067   18.7011 C   0  0  0  0  0  0  0  0  0  0  0  0
  -22.7060  -18.6120   21.0508 C   0  0  0  0  0  0  0  0  0  0  0  0
  -26.1962  -26.6582   19.9386 C   0  0  0  0  0  0  0  0  0  0  0  0
  -21.6653  -20.1434   22.4980 C   0  0  0  0  0  0  0  0  0  0  0  0
  -20.9277  -20.8687   25.0888 C   0  0  0  0  0  0  0  0  0  0  0  0
  -22.1326  -21.3371   23.0477 C   0  0  0  0  0  0  0  0  0  0  0  0
  -24.8087  -14.9750   20.5520 C   0  0  0  0  0  0  0  0  0  0  0  0
  -25.3591  -12.8522   20.3920 C   0  0  0  0  0  0  0  0  0  0  0  0
  -22.9362  -13.2405   20.8684 C   0  0  0  0  0  0  0  0  0  0  0  0
  -26.5416  -31.2640   22.7901 C   0  0  0  0  0  0  0  0  0  0  0  0
  -23.3364  -31.0929   23.2590 C   0  0  0  0  0  0  0  0  0  0  0  0
  -20.4207  -29.3936   22.7512 C   0  0  0  0  0  0  0  0  0  0  0  0
  -29.1573  -16.7264   19.3801 C   0  0  0  0  0  0  0  0  0  0  0  0
  -27.5883  -34.7351   26.3836 C   0  0  0  0  0  0  0  0  0  0  0  0
  -25.7074  -30.9052   20.4383 C   0  0  0  0  0  0  0  0  0  0  0  0
  -24.4554  -29.0242   22.3459 C   0  0  0  0  0  0  0  0  0  0  0  0
  -26.7389  -33.4693   26.3029 C   0  0  0  0  0  0  0  0  0  0  0  0
  -29.1679  -14.2003   21.9071 C   0  0  0  0  0  0  0  0  0  0  0  0
  -28.4101  -17.1478   15.8568 C   0  0  0  0  0  0  0  0  0  0  0  0
  -27.5441  -32.3238   25.6977 C   0  0  0  0  0  0  0  0  0  0  0  0
  -28.6281  -12.9534   21.2154 C   0  0  0  0  0  0  0  0  0  0  0  0
  -27.6793  -18.3665   16.4025 C   0  0  0  0  0  0  0  0  0  0  0  0
  -30.0140  -15.0219   20.9470 C   0  0  0  0  0  0  0  0  0  0  0  0
  -28.3578  -16.1775   17.0267 C   0  0  0  0  0  0  0  0  0  0  0  0
  -28.6515  -14.2562   19.0123 C   0  0  0  0  0  0  0  0  0  0  0  0
  -27.9835  -32.6543   24.2662 C   0  0  1  0  0  0  0  0  0  0  0  0
  -25.3595  -31.3205   21.8644 C   0  0  1  0  0  0  0  0  0  0  0  0
  -27.8677  -13.2805   19.9202 C   0  0  2  0  0  0  0  0  0  0  0  0
  -28.1309  -18.4216   17.8645 C   0  0  1  0  0  0  0  0  0  0  0  0
  -28.6920  -20.4809   20.6558 C   0  0  0  0  0  0  0  0  0  0  0  0
  -25.4528  -20.4528   16.8366 C   0  0  0  0  0  0  0  0  0  0  0  0
  -28.7209  -23.3715   20.6099 C   0  0  0  0  0  0  0  0  0  0  0  0
  -25.4806  -23.3437   16.7920 C   0  0  0  0  0  0  0  0  0  0  0  0
  -17.9708  -29.4806   23.2878 C   0  0  0  0  0  0  0  0  0  0  0  0
  -23.9284  -30.1570   26.1022 C   0  0  0  0  0  0  0  0  0  0  0  0
  -21.5581  -29.3667   26.2611 C   0  0  0  0  0  0  0  0  0  0  0  0
  -22.0427  -31.7888   25.9124 C   0  0  0  0  0  0  0  0  0  0  0  0
  -19.6810  -29.5479   19.8897 C   0  0  0  0  0  0  0  0  0  0  0  0
  -27.0576  -19.0123   18.7698 C   0  0  0  0  0  0  0  0  0  0  0  0
  -27.1134  -24.8028   18.6796 C   0  0  0  0  0  0  0  0  0  1  0  0
  -22.4140  -30.1642   24.0111 C   0  0  1  0  0  0  0  0  0  0  0  0
  -19.0520  -29.8579   22.2870 C   0  0  2  0  0  0  0  0  0  0  0  0
  -22.5029  -30.3597   25.5510 C   0  0  0  0  0  0  0  0  0  0  0  0
  -26.1203  -14.9876   20.2999 N   0  0  0  0  0  0  0  0  0  0  0  0
  -26.4257  -13.6821   20.2080 N   0  0  0  0  0  0  0  0  0  0  0  0
  -24.3128  -30.4853   22.4569 N   0  0  0  0  0  0  0  0  0  0  0  0
  -29.2778  -15.3740   19.7327 N   0  0  0  0  0  0  0  0  0  0  0  0
  -28.4591  -17.0332   18.2100 N   0  0  0  0  0  0  0  0  0  0  0  0
  -25.4895  -11.5098   20.3325 N   0  0  0  0  0  0  0  0  0  0  0  0
  -22.5424  -13.0088   22.1933 N   0  0  0  0  0  0  0  0  0  0  0  0
  -26.8795  -32.4830   23.3463 N   0  0  0  0  0  0  0  0  0  0  0  0
  -21.0810  -30.3765   23.4577 N   0  0  0  0  0  0  0  0  0  0  0  0
  -18.7132  -29.2399   20.9739 N   0  3  0  0  0  0  0  0  0  0  0  0
  -22.1132  -13.0500   19.9411 O   0  0  0  0  0  0  0  0  0  0  0  0
  -27.1046  -30.1934   22.9865 O   0  0  0  0  0  0  0  0  0  0  0  0
  -23.1913  -32.3125   23.3732 O   0  0  0  0  0  0  0  0  0  0  0  0
  -20.8587  -28.2700   22.5142 O   0  0  0  0  0  0  0  0  0  0  0  0
  -29.6599  -17.6201   20.0743 O   0  0  0  0  0  0  0  0  0  0  0  0
  -22.0299  -19.7823   21.2117 O   0  0  0  0  0  0  0  0  0  0  0  0
  -26.3500  -25.2922   19.7732 O   0  0  0  0  0  0  0  0  0  1  0  0
  -20.5723  -21.2176   26.3322 F   0  0  0  0  0  0  0  0  0  0  0  0
  -22.9352  -22.1401   22.3358 F   0  0  0  0  0  0  0  0  0  0  0  0
  1  2  1  0  0  0  0
  1  5  2  0  0  0  0
  2  6  2  0  0  0  0
  3  8  2  0  0  0  0
  3 15  1  0  0  0  0
  4  9  1  0  0  0  0
  4 15  2  0  0  0  0
  5 17  1  0  0  0  0
  6 19  1  0  0  0  0
  7 10  2  0  0  0  0
  7 18  1  0  0  0  0
  8 27  1  0  0  0  0
  9 27  2  0  0  0  0
 10 28  1  0  0  0  0
 11 12  2  0  0  0  0
 11 29  1  0  0  0  0
 12 30  1  0  0  0  0
 13 20  1  0  0  0  0
 13 28  2  0  0  0  0
 14 30  2  0  0  0  0
 14 31  1  0  0  0  0
 15 32  1  0  0  0  0
 16 32  1  0  0  0  0
 16 33  2  0  0  0  0
 16 34  1  0  0  0  0
 17 19  2  0  0  0  0
 17 39  1  0  0  0  0
 18 20  2  0  0  0  0
 18 40  1  0  0  0  0
 19 51  1  0  0  0  0
 20 41  1  0  0  0  0
 21 23  2  0  0  0  0
 21 25  1  0  0  0  0
 21 55  1  0  0  0  0
 22 24  1  0  0  0  0
 22 25  2  0  0  0  0
 22 56  1  0  0  0  0
 23 26  1  0  0  0  0
 23 57  1  0  0  0  0
 24 26  2  0  0  0  0
 24 58  1  0  0  0  0
 25 64  1  0  0  0  0
 26 65  1  0  0  0  0
 27 84  1  0  0  0  0
 28 85  1  0  0  0  0
 29 31  2  0  0  0  0
 29 84  1  0  0  0  0
 30 86  1  0  0  0  0
 31 87  1  0  0  0  0
 32 69  2  0  0  0  0
 33 70  1  0  0  0  0
 33 74  1  0  0  0  0
 34 75  1  0  0  0  0
 34 79  2  0  0  0  0
 35 52  1  0  0  0  0
 35 76  1  0  0  0  0
 35 80  2  0  0  0  0
 36 66  1  0  0  0  0
 36 71  1  0  0  0  0
 36 81  2  0  0  0  0
 37 67  1  0  0  0  0
 37 77  1  0  0  0  0
 37 82  2  0  0  0  0
 38 72  1  0  0  0  0
 38 73  1  0  0  0  0
 38 83  2  0  0  0  0
 39 42  1  0  0  0  0
 40 52  1  0  0  0  0
 41 71  1  0  0  0  0
 42 45  1  0  0  0  0
 43 46  1  0  0  0  0
 43 48  1  0  0  0  0
 44 47  1  0  0  0  0
 44 49  1  0  0  0  0
 45 51  1  0  0  0  0
 46 53  1  0  0  0  0
 47 54  1  0  0  0  0
 48 72  1  0  0  0  0
 49 73  1  0  0  0  0
 50 53  1  0  0  0  0
 50 72  1  0  0  0  0
 51 76  1  0  0  0  0
 52 71  1  0  0  0  0
 53 70  1  0  0  0  0
 54 64  1  0  0  0  0
 54 73  1  0  0  0  0
 59 67  1  0  0  0  0
 60 68  1  0  0  0  0
 61 68  1  0  0  0  0
 62 68  1  0  0  0  0
 63 78  1  0  0  0  0
 65 85  1  0  0  0  0
 66 68  1  0  0  0  0
 66 77  1  0  0  0  0
 67 78  1  0  0  0  0
 69 70  1  0  0  0  0
M  CHG  1  78   1
M  ISO  4  38 100  65 101  73 100  85 101
M  END
> <Batch ID>
0160

> <Smiles>
CNC(C)C(=O)NC(C(=O)N1Cc2cc([101O:1][101CH2:1]c3c(C)c(C)c(CC4CCC[100N:0]4[100C:0](=O)N4CCCC(n5nc(-c6ccc(Oc7ccc(F)cc7F)cc6)c(C(N)=O)c5N)C4)c(C)c3C)ccc2CC1C(=O)NC1CCCc2ccccc21)C(C)(C)C

> <Shape>
0.257

> <Color>
0.111

> <Negative vol penalty>
0.000

$$$$

  -OEChem-04052322093D

 86 95  0     1  0  0  0  0  0999 V2000
  -26.7291  -37.9151   19.4192 C   0  0  0  0  0  0  0  0  0  0  0  0
  -27.1451  -36.7257   18.8295 C   0  0  0  0  0  0  0  0  0  0  0  0
  -23.2687  -10.4744   21.3607 C   0  0  0  0  0  0  0  0  0  0  0  0
  -24.8372   -8.7495   21.9945 C   0  0  0  0  0  0  0  0  0  0  0  0
  -26.3126  -37.9238   20.7498 C   0  0  0  0  0  0  0  0  0  0  0  0
  -27.1458  -35.5444   19.5704 C   0  0  0  0  0  0  0  0  0  0  0  0
  -26.1536  -28.4888   18.8287 C   0  0  0  0  0  0  0  0  0  0  0  0
  -22.2649   -9.5144   21.2323 C   0  0  0  0  0  0  0  0  0  0  0  0
  -23.8334   -7.7895   21.8661 C   0  0  0  0  0  0  0  0  0  0  0  0
  -26.7808  -27.2770   19.1150 C   0  0  0  0  0  0  0  0  0  0  0  0
  -21.2008   -6.6838   23.6736 C   0  0  0  0  0  0  0  0  0  0  0  0
  -21.0871   -5.7282   24.6833 C   0  0  0  0  0  0  0  0  0  0  0  0
  -25.9651  -27.3973   21.3820 C   0  0  0  0  0  0  0  0  0  0  0  0
  -29.9686  -23.4332   20.0632 C   0  0  0  0  0  0  0  0  0  0  0  0
  -28.3001  -21.4094   21.0135 C   0  0  0  0  0  0  0  0  0  0  0  0
  -21.4812   -3.9750   23.0683 C   0  0  0  0  0  0  0  0  0  0  0  0
  -24.5549  -10.0919   21.7418 C   0  0  0  0  0  0  0  0  0  0  0  0
  -25.9283  -11.8129   23.0299 C   0  0  0  0  0  0  0  0  0  0  0  0
  -26.2990  -36.7402   21.5045 C   0  0  0  0  0  0  0  0  0  0  0  0
  -25.4354  -29.1705   19.8216 C   0  0  0  0  0  0  0  0  0  0  0  0
  -26.7299  -35.5375   20.9127 C   0  0  0  0  0  0  0  0  0  0  0  0
  -25.3276  -28.6163   21.1051 C   0  0  0  0  0  0  0  0  0  0  0  0
  -30.5156  -22.2292   20.5067 C   0  0  0  0  0  0  0  0  0  0  0  0
  -28.5874  -23.6254   20.0949 C   0  0  0  0  0  0  0  0  0  0  0  0
  -29.6814  -21.2173   20.9819 C   0  0  0  0  0  0  0  0  0  0  0  0
  -22.5472   -8.1720   21.4850 C   0  0  0  0  0  0  0  0  0  0  0  0
  -26.6890  -26.7325   20.3926 C   0  0  0  0  0  0  0  0  0  0  0  0
  -21.4546   -6.2850   22.3612 C   0  0  0  0  0  0  0  0  0  0  0  0
  -27.7532  -22.6135   20.5700 C   0  0  0  0  0  0  0  0  0  0  0  0
  -21.2273   -4.3738   24.3807 C   0  0  0  0  0  0  0  0  0  0  0  0
  -21.5948   -4.9306   22.0586 C   0  0  0  0  0  0  0  0  0  0  0  0
  -25.5923  -11.0830   21.8740 C   0  0  0  0  0  0  0  0  0  0  0  0
  -26.9712  -12.6161   22.6378 C   0  0  0  0  0  0  0  0  0  0  0  0
  -25.3495  -11.7689   24.3409 C   0  0  0  0  0  0  0  0  0  0  0  0
  -25.7039  -32.0029   21.2392 C   0  0  0  0  0  0  0  0  0  0  0  0
  -22.8870  -31.1513   22.6037 C   0  0  0  0  0  0  0  0  0  0  0  0
  -20.7640  -28.6518   23.5485 C   0  0  0  0  0  0  0  0  0  0  0  0
  -29.0019  -16.1716   18.7503 C   0  0  0  0  0  0  0  0  0  0  0  0
  -25.8853  -36.8077   22.9532 C   0  0  0  0  0  0  0  0  0  0  0  0
  -24.7423  -30.4634   19.4895 C   0  0  0  0  0  0  0  0  0  0  0  0
  -24.5515  -29.2985   22.2008 C   0  0  0  0  0  0  0  0  0  0  0  0
  -25.5606  -35.4443   23.5582 C   0  0  0  0  0  0  0  0  0  0  0  0
  -29.7560  -12.5948   18.4174 C   0  0  0  0  0  0  0  0  0  0  0  0
  -26.6389  -34.4285   23.1947 C   0  0  0  0  0  0  0  0  0  0  0  0
  -28.7316  -11.9446   19.3484 C   0  0  0  0  0  0  0  0  0  0  0  0
  -30.3692  -17.5973   21.8510 C   0  0  0  0  0  0  0  0  0  0  0  0
  -29.2360  -13.8990   17.8171 C   0  0  0  0  0  0  0  0  0  0  0  0
  -29.6919  -16.3909   21.2093 C   0  0  0  0  0  0  0  0  0  0  0  0
  -27.7196  -14.2222   19.7326 C   0  0  0  0  0  0  0  0  0  0  0  0
  -29.2336  -18.3529   19.9034 C   0  0  0  0  0  0  0  0  0  0  0  0
  -26.7214  -34.2310   21.6763 C   0  0  1  0  0  0  0  0  0  0  0  0
  -24.4679  -31.3267   20.7170 C   0  0  1  0  0  0  0  0  0  0  0  0
  -28.2326  -12.9435   20.4092 C   0  0  1  0  0  0  0  0  0  0  0  0
  -29.5154  -18.7542   21.3434 C   0  0  2  0  0  0  0  0  0  0  0  0
  -31.9983  -22.0496   20.4627 C   0  0  0  0  0  0  0  0  0  0  0  0
  -18.5554  -28.2639   24.6748 C   0  0  0  0  0  0  0  0  0  0  0  0
  -24.1723  -31.7155   25.3129 C   0  0  0  0  0  0  0  0  0  0  0  0
  -22.3079  -30.4347   26.3860 C   0  0  0  0  0  0  0  0  0  0  0  0
  -21.8109  -32.5092   25.0929 C   0  0  0  0  0  0  0  0  0  0  0  0
  -19.6289  -27.3651   21.1371 C   0  0  0  0  0  0  0  0  0  0  0  0
  -25.6251  -21.6981   21.1077 C   0  0  0  0  0  0  0  0  0  0  0  0
  -28.0198  -24.9208   19.6162 C   0  0  0  0  0  0  0  0  0  1  0  0
  -22.4868  -30.4101   23.8565 C   0  0  1  0  0  0  0  0  0  0  0  0
  -19.2703  -28.4696   23.3484 C   0  0  2  0  0  0  0  0  0  0  0  0
  -22.7108  -31.2552   25.1422 C   0  0  0  0  0  0  0  0  0  0  0  0
  -26.3595  -11.3949   20.8261 N   0  0  0  0  0  0  0  0  0  0  0  0
  -27.1879  -12.3298   21.3220 N   0  0  0  0  0  0  0  0  0  0  0  0
  -23.8967  -30.5635   21.8286 N   0  0  0  0  0  0  0  0  0  0  0  0
  -28.7490  -14.8000   18.8619 N   0  0  0  0  0  0  0  0  0  0  0  0
  -29.1857  -16.8929   19.9293 N   0  0  0  0  0  0  0  0  0  0  0  0
  -27.7149  -13.5323   23.2935 N   0  0  0  0  0  0  0  0  0  0  0  0
  -24.2851  -10.8869   24.5720 N   0  0  0  0  0  0  0  0  0  0  0  0
  -30.2089  -20.0124   21.4261 N   0  0  0  0  0  0  0  0  0  0  0  0
  -25.6420  -33.3831   21.2175 N   0  0  0  0  0  0  0  0  0  0  0  0
  -21.1064  -29.9832   23.6549 N   0  0  0  0  0  0  0  0  0  0  0  0
  -19.0041  -27.2862   22.4826 N   0  3  0  0  0  0  0  0  0  0  0  0
  -25.7531  -12.5021   25.2752 O   0  0  0  0  0  0  0  0  0  0  0  0
  -26.6437  -31.3226   21.6340 O   0  0  0  0  0  0  0  0  0  0  0  0
  -22.3194  -32.2090   22.3195 O   0  0  0  0  0  0  0  0  0  0  0  0
  -21.5481  -27.7073   23.6083 O   0  0  0  0  0  0  0  0  0  0  0  0
  -29.1060  -16.7195   17.6449 O   0  0  0  0  0  0  0  0  0  0  0  0
  -21.5679   -7.2350   21.3601 O   0  0  0  0  0  0  0  0  0  0  0  0
  -26.4019  -22.7843   20.6071 O   0  0  0  0  0  0  0  0  0  0  0  0
  -27.3051  -25.5418   20.6768 O   0  0  0  0  0  0  0  0  0  1  0  0
  -21.1197   -3.4564   25.3506 F   0  0  0  0  0  0  0  0  0  0  0  0
  -21.8399   -4.5415   20.7999 F   0  0  0  0  0  0  0  0  0  0  0  0
  1  2  1  0  0  0  0
  1  5  2  0  0  0  0
  2  6  2  0  0  0  0
  3  8  2  0  0  0  0
  3 17  1  0  0  0  0
  4  9  1  0  0  0  0
  4 17  2  0  0  0  0
  5 19  1  0  0  0  0
  6 21  1  0  0  0  0
  7 10  2  0  0  0  0
  7 20  1  0  0  0  0
  8 26  1  0  0  0  0
  9 26  2  0  0  0  0
 10 27  1  0  0  0  0
 11 12  2  0  0  0  0
 11 28  1  0  0  0  0
 12 30  1  0  0  0  0
 13 22  1  0  0  0  0
 13 27  2  0  0  0  0
 14 23  2  0  0  0  0
 14 24  1  0  0  0  0
 15 25  2  0  0  0  0
 15 29  1  0  0  0  0
 16 30  2  0  0  0  0
 16 31  1  0  0  0  0
 17 32  1  0  0  0  0
 18 32  1  0  0  0  0
 18 33  2  0  0  0  0
 18 34  1  0  0  0  0
 19 21  2  0  0  0  0
 19 39  1  0  0  0  0
 20 22  2  0  0  0  0
 20 40  1  0  0  0  0
 21 51  1  0  0  0  0
 22 41  1  0  0  0  0
 23 25  1  0  0  0  0
 23 55  1  0  0  0  0
 24 29  2  0  0  0  0
 24 62  1  0  0  0  0
 25 73  1  0  0  0  0
 26 82  1  0  0  0  0
 27 84  1  0  0  0  0
 28 31  2  0  0  0  0
 28 82  1  0  0  0  0
 29 83  1  0  0  0  0
 30 85  1  0  0  0  0
 31 86  1  0  0  0  0
 32 66  2  0  0  0  0
 33 67  1  0  0  0  0
 33 71  1  0  0  0  0
 34 72  1  0  0  0  0
 34 77  2  0  0  0  0
 35 52  1  0  0  0  0
 35 74  1  0  0  0  0
 35 78  2  0  0  0  0
 36 63  1  0  0  0  0
 36 68  1  0  0  0  0
 36 79  2  0  0  0  0
 37 64  1  0  0  0  0
 37 75  1  0  0  0  0
 37 80  2  0  0  0  0
 38 69  1  0  0  0  0
 38 70  1  0  0  0  0
 38 81  2  0  0  0  0
 39 42  1  0  0  0  0
 40 52  1  0  0  0  0
 41 68  1  0  0  0  0
 42 44  1  0  0  0  0
 43 45  1  0  0  0  0
 43 47  1  0  0  0  0
 44 51  1  0  0  0  0
 45 53  1  0  0  0  0
 46 48  1  0  0  0  0
 46 54  1  0  0  0  0
 47 69  1  0  0  0  0
 48 70  1  0  0  0  0
 49 53  1  0  0  0  0
 49 69  1  0  0  0  0
 50 54  1  0  0  0  0
 50 70  1  0  0  0  0
 51 74  1  0  0  0  0
 52 68  1  0  0  0  0
 53 67  1  0  0  0  0
 54 73  1  0  0  0  0
 56 64  1  0  0  0  0
 57 65  1  0  0  0  0
 58 65  1  0  0  0  0
 59 65  1  0  0  0  0
 60 76  1  0  0  0  0
 61 83  1  0  0  0  0
 62 84  1  0  0  0  0
 63 65  1  0  0  0  0
 63 75  1  0  0  0  0
 64 76  1  0  0  0  0
 66 67  1  0  0  0  0
M  CHG  1  76   1
M  ISO  4  38 100  62 101  70 100  84 101
M  END
> <Batch ID>
0160

> <Smiles>
CNC(C)C(=O)NC(C(=O)N1Cc2cc([101O:1][101CH2:1]c3cc(C)c(NC4CC[100N:0]([100C:0](=O)N5CCCC(n6nc(-c7ccc(Oc8ccc(F)cc8F)cc7)c(C(N)=O)c6N)C5)C4)cc3OC)ccc2CC1C(=O)NC1CCCc2ccccc21)C(C)(C)C

> <Shape>
0.348

> <Color>
0.114

> <Negative vol penalty>
0.000

$$$$

  -OEChem-04052322093D

 85 94  0     1  0  0  0  0  0999 V2000
  -33.3824  -14.7138   20.4862 C   0  0  0  0  0  0  0  0  0  0  0  0
  -32.3057  -15.5628   20.2509 C   0  0  0  0  0  0  0  0  0  0  0  0
  -26.2839  -28.0971   21.2639 C   0  0  0  0  0  0  0  0  0  0  0  0
  -25.3941  -29.4231   19.4509 C   0  0  0  0  0  0  0  0  0  0  0  0
  -33.2162  -13.3335   20.3806 C   0  0  0  0  0  0  0  0  0  0  0  0
  -31.0625  -15.0321   19.9086 C   0  0  0  0  0  0  0  0  0  0  0  0
  -27.2559  -17.2139   22.4374 C   0  0  0  0  0  0  0  0  0  0  0  0
  -27.0983  -27.4114   20.3628 C   0  0  0  0  0  0  0  0  0  0  0  0
  -26.2086  -28.7375   18.5497 C   0  0  0  0  0  0  0  0  0  0  0  0
  -26.8342  -18.4674   21.9961 C   0  0  0  0  0  0  0  0  0  0  0  0
  -29.6754  -25.5585   18.5906 C   0  0  0  0  0  0  0  0  0  0  0  0
  -31.0070  -25.3495   18.9494 C   0  0  0  0  0  0  0  0  0  0  0  0
  -24.9851  -17.4327   20.8432 C   0  0  0  0  0  0  0  0  0  0  0  0
  -25.5868  -24.1681   19.2672 C   0  0  0  0  0  0  0  0  0  0  0  0
  -31.3439  -27.7378   19.0903 C   0  0  0  0  0  0  0  0  0  0  0  0
  -25.4317  -29.1029   20.8080 C   0  0  0  0  0  0  0  0  0  0  0  0
  -24.9045  -30.9878   22.4442 C   0  0  0  0  0  0  0  0  0  0  0  0
  -31.9679  -12.7851   20.0464 C   0  0  0  0  0  0  0  0  0  0  0  0
  -26.5504  -16.0574   22.0752 C   0  0  0  0  0  0  0  0  0  0  0  0
  -30.8798  -13.6432   19.7971 C   0  0  0  0  0  0  0  0  0  0  0  0
  -25.3984  -16.1660   21.2833 C   0  0  0  0  0  0  0  0  0  0  0  0
  -23.5557  -23.6857   20.4831 C   0  0  0  0  0  0  0  0  0  0  0  0
  -24.2825  -24.5100   19.6242 C   0  0  0  0  0  0  0  0  0  0  0  0
  -26.1643  -23.0017   19.7690 C   0  0  0  0  0  0  0  0  0  0  0  0
  -24.1331  -22.5193   20.9850 C   0  0  0  0  0  0  0  0  0  0  0  0
  -25.4374  -22.1773   20.6280 C   0  0  0  0  0  0  0  0  0  0  0  0
  -27.0608  -27.7317   19.0057 C   0  0  0  0  0  0  0  0  0  0  0  0
  -25.7003  -18.5767   21.1965 C   0  0  0  0  0  0  0  0  0  0  0  0
  -29.1780  -26.8572   18.4816 C   0  0  0  0  0  0  0  0  0  0  0  0
  -31.8413  -26.4391   19.1992 C   0  0  0  0  0  0  0  0  0  0  0  0
  -30.0123  -27.9468   18.7314 C   0  0  0  0  0  0  0  0  0  0  0  0
  -24.5897  -29.8111   21.7383 C   0  0  0  0  0  0  0  0  0  0  0  0
  -23.7809  -31.2528   23.1883 C   0  0  0  0  0  0  0  0  0  0  0  0
  -26.1052  -31.7712   22.4285 C   0  0  0  0  0  0  0  0  0  0  0  0
  -27.2450  -13.4304   20.4260 C   0  0  0  0  0  0  0  0  0  0  0  0
  -24.2929  -12.5065   21.4027 C   0  0  0  0  0  0  0  0  0  0  0  0
  -21.1833  -13.4097   22.4806 C   0  0  0  0  0  0  0  0  0  0  0  0
  -20.3371  -27.3071   21.2422 C   0  0  0  0  0  0  0  0  0  0  0  0
  -31.8486  -11.2890   19.8978 C   0  0  0  0  0  0  0  0  0  0  0  0
  -27.0030  -14.7153   22.5815 C   0  0  0  0  0  0  0  0  0  0  0  0
  -24.5942  -14.9570   20.8833 C   0  0  0  0  0  0  0  0  0  0  0  0
  -30.4059  -10.7902   19.8972 C   0  0  0  0  0  0  0  0  0  0  0  0
  -21.6447  -27.8322   24.6674 C   0  0  0  0  0  0  0  0  0  0  0  0
  -29.5452  -11.6466   18.9738 C   0  0  0  0  0  0  0  0  0  0  0  0
  -21.5062  -29.3483   24.8163 C   0  0  0  0  0  0  0  0  0  0  0  0
  -21.1774  -24.1826   19.6853 C   0  0  0  0  0  0  0  0  0  0  0  0
  -20.5644  -27.2884   23.7458 C   0  0  0  0  0  0  0  0  0  0  0  0
  -20.0615  -25.0459   20.2503 C   0  0  0  0  0  0  0  0  0  0  0  0
  -22.0243  -25.4120   21.5833 C   0  0  0  0  0  0  0  0  0  0  0  0
  -20.4530  -29.4240   22.5128 C   0  0  0  0  0  0  0  0  0  0  0  0
  -22.1451  -24.0578   20.8675 C   0  0  2  0  0  0  0  0  0  0  0  0
  -29.5095  -13.1045   19.4479 C   0  0  1  0  0  0  0  0  0  0  0  0
  -26.5033  -13.5547   21.7268 C   0  0  1  0  0  0  0  0  0  0  0  0
  -21.4874  -30.0794   23.4547 C   0  0  2  0  0  0  0  0  0  0  0  0
  -23.6879  -25.7647   19.0733 C   0  0  0  0  0  0  0  0  0  0  0  0
  -27.5622  -22.6580   19.3704 C   0  0  0  0  0  0  0  0  0  0  0  0
  -23.3532  -21.6347   21.9059 C   0  0  0  0  0  0  0  0  0  0  0  0
  -18.9743  -12.4337   23.1625 C   0  0  0  0  0  0  0  0  0  0  0  0
  -23.6292  -11.9684   18.4735 C   0  0  0  0  0  0  0  0  0  0  0  0
  -21.2063  -11.9252   19.1028 C   0  0  0  0  0  0  0  0  0  0  0  0
  -22.7746  -10.2441   20.0707 C   0  0  0  0  0  0  0  0  0  0  0  0
  -21.3835  -14.5597   25.2002 C   0  0  0  0  0  0  0  0  0  0  0  0
  -26.0595  -20.9274   21.1653 C   0  0  0  0  0  0  0  0  0  1  0  0
  -22.8933  -12.6450   20.8540 C   0  0  1  0  0  0  0  0  0  0  0  0
  -20.3358  -12.9154   23.6390 C   0  0  2  0  0  0  0  0  0  0  0  0
  -22.6419  -11.7184   19.6310 C   0  0  0  0  0  0  0  0  0  0  0  0
  -23.3622  -29.3598   22.0099 N   0  0  0  0  0  0  0  0  0  0  0  0
  -22.8960  -30.2574   22.8947 N   0  0  0  0  0  0  0  0  0  0  0  0
  -25.0807  -13.6664   21.3982 N   0  0  0  0  0  0  0  0  0  0  0  0
  -20.5956  -27.9666   22.4505 N   0  0  0  0  0  0  0  0  0  0  0  0
  -20.7388  -25.9708   21.1507 N   0  0  0  0  0  0  0  0  0  0  0  0
  -23.4735  -32.2379   24.0587 N   0  0  0  0  0  0  0  0  0  0  0  0
  -27.1627  -31.3567   21.6074 N   0  0  0  0  0  0  0  0  0  0  0  0
  -28.6072  -13.2490   20.5702 N   0  0  0  0  0  0  0  0  0  0  0  0
  -21.9902  -12.4119   21.9759 N   0  0  0  0  0  0  0  0  0  0  0  0
  -20.1272  -14.0077   24.6311 N   0  3  0  0  0  0  0  0  0  0  0  0
  -26.2426  -32.7989   23.1345 O   0  0  0  0  0  0  0  0  0  0  0  0
  -26.6269  -13.4929   19.3697 O   0  0  0  0  0  0  0  0  0  0  0  0
  -24.6707  -11.4114   21.8264 O   0  0  0  0  0  0  0  0  0  0  0  0
  -21.1318  -14.5643   22.0626 O   0  0  0  0  0  0  0  0  0  0  0  0
  -19.8366  -27.9035   20.2806 O   0  0  0  0  0  0  0  0  0  0  0  0
  -27.8556  -27.0630   18.1261 O   0  0  0  0  0  0  0  0  0  0  0  0
  -25.2838  -19.8079   20.7607 O   0  0  0  0  0  0  0  0  0  1  0  0
  -33.1196  -26.2382   19.5453 F   0  0  0  0  0  0  0  0  0  0  0  0
  -29.5398  -29.1967   18.6294 F   0  0  0  0  0  0  0  0  0  0  0  0
  1  2  1  0  0  0  0
  1  5  2  0  0  0  0
  2  6  2  0  0  0  0
  3  8  2  0  0  0  0
  3 16  1  0  0  0  0
  4  9  1  0  0  0  0
  4 16  2  0  0  0  0
  5 18  1  0  0  0  0
  6 20  1  0  0  0  0
  7 10  2  0  0  0  0
  7 19  1  0  0  0  0
  8 27  1  0  0  0  0
  9 27  2  0  0  0  0
 10 28  1  0  0  0  0
 11 12  2  0  0  0  0
 11 29  1  0  0  0  0
 12 30  1  0  0  0  0
 13 21  1  0  0  0  0
 13 28  2  0  0  0  0
 14 23  1  0  0  0  0
 14 24  2  0  0  0  0
 15 30  2  0  0  0  0
 15 31  1  0  0  0  0
 16 32  1  0  0  0  0
 17 32  1  0  0  0  0
 17 33  2  0  0  0  0
 17 34  1  0  0  0  0
 18 20  2  0  0  0  0
 18 39  1  0  0  0  0
 19 21  2  0  0  0  0
 19 40  1  0  0  0  0
 20 52  1  0  0  0  0
 21 41  1  0  0  0  0
 22 23  2  0  0  0  0
 22 25  1  0  0  0  0
 22 51  1  0  0  0  0
 23 55  1  0  0  0  0
 24 26  1  0  0  0  0
 24 56  1  0  0  0  0
 25 26  2  0  0  0  0
 25 57  1  0  0  0  0
 26 63  1  0  0  0  0
 27 82  1  0  0  0  0
 28 83  1  0  0  0  0
 29 31  2  0  0  0  0
 29 82  1  0  0  0  0
 30 84  1  0  0  0  0
 31 85  1  0  0  0  0
 32 67  2  0  0  0  0
 33 68  1  0  0  0  0
 33 72  1  0  0  0  0
 34 73  1  0  0  0  0
 34 77  2  0  0  0  0
 35 53  1  0  0  0  0
 35 74  1  0  0  0  0
 35 78  2  0  0  0  0
 36 64  1  0  0  0  0
 36 69  1  0  0  0  0
 36 79  2  0  0  0  0
 37 65  1  0  0  0  0
 37 75  1  0  0  0  0
 37 80  2  0  0  0  0
 38 70  1  0  0  0  0
 38 71  1  0  0  0  0
 38 81  2  0  0  0  0
 39 42  1  0  0  0  0
 40 53  1  0  0  0  0
 41 69  1  0  0  0  0
 42 44  1  0  0  0  0
 43 45  1  0  0  0  0
 43 47  1  0  0  0  0
 44 52  1  0  0  0  0
 45 54  1  0  0  0  0
 46 48  1  0  0  0  0
 46 51  1  0  0  0  0
 47 70  1  0  0  0  0
 48 71  1  0  0  0  0
 49 51  1  0  0  0  0
 49 71  1  0  0  0  0
 50 54  1  0  0  0  0
 50 70  1  0  0  0  0
 52 74  1  0  0  0  0
 53 69  1  0  0  0  0
 54 68  1  0  0  0  0
 58 65  1  0  0  0  0
 59 66  1  0  0  0  0
 60 66  1  0  0  0  0
 61 66  1  0  0  0  0
 62 76  1  0  0  0  0
 63 83  1  0  0  0  0
 64 66  1  0  0  0  0
 64 75  1  0  0  0  0
 65 76  1  0  0  0  0
 67 68  1  0  0  0  0
M  CHG  1  76   1
M  ISO  4  38 100  63 101  71 100  83 101
M  END
> <Batch ID>
0160

> <Smiles>
CNC(C)C(=O)NC(C(=O)N1Cc2cc([101O:1][101CH2:1]c3c(C)cc(C)c(C4CC[100N:0]([100C:0](=O)N5CCCC(n6nc(-c7ccc(Oc8ccc(F)cc8F)cc7)c(C(N)=O)c6N)C5)C4)c3C)ccc2CC1C(=O)NC1CCCc2ccccc21)C(C)(C)C

> <Shape>
0.269

> <Color>
0.059

> <Negative vol penalty>
0.000

$$$$

  -OEChem-04052322093D

 85 94  0     1  0  0  0  0  0999 V2000
  -40.5221  -23.1090   29.7077 C   0  0  0  0  0  0  0  0  0  0  0  0
  -39.6306  -22.0446   29.6190 C   0  0  0  0  0  0  0  0  0  0  0  0
  -23.0743   -9.8683   19.9418 C   0  0  0  0  0  0  0  0  0  0  0  0
  -23.8386   -9.8744   22.2337 C   0  0  0  0  0  0  0  0  0  0  0  0
  -40.8418  -23.8458   28.5681 C   0  0  0  0  0  0  0  0  0  0  0  0
  -39.0575  -21.7172   28.3907 C   0  0  0  0  0  0  0  0  0  0  0  0
  -37.6251  -16.1151   26.3730 C   0  0  0  0  0  0  0  0  0  0  0  0
  -22.3318   -8.7145   20.1925 C   0  0  0  0  0  0  0  0  0  0  0  0
  -23.0961   -8.7205   22.4844 C   0  0  0  0  0  0  0  0  0  0  0  0
  -36.4239  -15.4080   26.3421 C   0  0  0  0  0  0  0  0  0  0  0  0
  -21.1159   -5.9811   23.8231 C   0  0  0  0  0  0  0  0  0  0  0  0
  -20.3619   -5.9361   24.9958 C   0  0  0  0  0  0  0  0  0  0  0  0
  -31.1985  -18.1618   25.4936 C   0  0  0  0  0  0  0  0  0  0  0  0
  -31.5221  -15.7923   24.0704 C   0  0  0  0  0  0  0  0  0  0  0  0
  -36.0701  -16.1207   24.0648 C   0  0  0  0  0  0  0  0  0  0  0  0
  -19.1144   -7.8729   24.2679 C   0  0  0  0  0  0  0  0  0  0  0  0
  -23.8278  -10.4483   20.9624 C   0  0  0  0  0  0  0  0  0  0  0  0
  -24.1674  -12.9738   20.8434 C   0  0  0  0  0  0  0  0  0  0  0  0
  -40.2798  -23.5212   27.3234 C   0  0  0  0  0  0  0  0  0  0  0  0
  -38.0531  -16.8405   25.2518 C   0  0  0  0  0  0  0  0  0  0  0  0
  -39.3690  -22.4512   27.2336 C   0  0  0  0  0  0  0  0  0  0  0  0
  -30.9369  -18.1400   24.1154 C   0  0  0  0  0  0  0  0  0  0  0  0
  -31.0685  -16.9377   23.3930 C   0  0  0  0  0  0  0  0  0  0  0  0
  -37.2783  -16.8341   24.0832 C   0  0  0  0  0  0  0  0  0  0  0  0
  -31.6230  -17.0099   26.1521 C   0  0  0  0  0  0  0  0  0  0  0  0
  -31.7907  -15.8273   25.4396 C   0  0  0  0  0  0  0  0  0  0  0  0
  -22.3427   -8.1406   21.4638 C   0  0  0  0  0  0  0  0  0  0  0  0
  -35.6448  -15.4131   25.1888 C   0  0  0  0  0  0  0  0  0  0  0  0
  -20.8692   -6.9720   22.8729 C   0  0  0  0  0  0  0  0  0  0  0  0
  -19.3612   -6.8820   25.2182 C   0  0  0  0  0  0  0  0  0  0  0  0
  -19.8684   -7.9179   23.0952 C   0  0  0  0  0  0  0  0  0  0  0  0
  -24.5954  -11.6399   20.7040 C   0  0  0  0  0  0  0  0  0  0  0  0
  -25.2583  -13.7244   20.4785 C   0  0  0  0  0  0  0  0  0  0  0  0
  -22.8973  -13.4884   21.2651 C   0  0  0  0  0  0  0  0  0  0  0  0
  -38.6431  -19.9063   24.6550 C   0  0  0  0  0  0  0  0  0  0  0  0
  -39.6840  -18.7494   21.8088 C   0  0  0  0  0  0  0  0  0  0  0  0
  -39.5719  -16.2590   19.4781 C   0  0  0  0  0  0  0  0  0  0  0  0
  -30.7416  -14.7475   20.6568 C   0  0  0  0  0  0  0  0  0  0  0  0
  -40.6194  -24.3763   26.1283 C   0  0  0  0  0  0  0  0  0  0  0  0
  -39.3644  -17.5762   25.2924 C   0  0  0  0  0  0  0  0  0  0  0  0
  -37.7033  -17.5803   22.8459 C   0  0  0  0  0  0  0  0  0  0  0  0
  -30.4826  -19.4017   23.4405 C   0  0  0  0  0  0  0  0  0  0  0  0
  -40.2569  -23.7297   24.7939 C   0  0  0  0  0  0  0  0  0  0  0  0
  -29.6012  -12.3637   18.2707 C   0  0  0  0  0  0  0  0  0  0  0  0
  -38.8482  -23.1471   24.8481 C   0  0  0  0  0  0  0  0  0  0  0  0
  -28.1648  -12.0686   18.7063 C   0  0  0  0  0  0  0  0  0  0  0  0
  -30.5205  -12.5844   19.4700 C   0  0  0  0  0  0  0  0  0  0  0  0
  -28.6209  -13.3131   20.8607 C   0  0  0  0  0  0  0  0  0  0  0  0
  -38.7457  -22.0497   25.9143 C   0  0  1  0  0  0  0  0  0  0  0  0
  -30.8082  -16.8973   21.8949 C   0  0  2  0  0  0  0  0  0  0  0  0
  -39.4506  -18.7007   24.2650 C   0  0  1  0  0  0  0  0  0  0  0  0
  -27.6445  -13.1386   19.6849 C   0  0  2  0  0  0  0  0  0  0  0  0
  -30.0013  -18.1024   21.3735 C   0  0  2  0  0  0  0  0  0  0  0  0
  -31.8985  -17.0711   27.6185 C   0  0  0  0  0  0  0  0  0  0  0  0
  -30.0326  -18.2294   19.8538 C   0  0  0  0  0  0  0  0  0  0  0  0
  -40.5033  -15.6129   17.2393 C   0  0  0  0  0  0  0  0  0  0  0  0
  -37.8028  -20.7345   20.4559 C   0  0  0  0  0  0  0  0  0  0  0  0
  -38.0548  -19.4233   18.3381 C   0  0  0  0  0  0  0  0  0  0  0  0
  -40.0452  -20.5164   19.3705 C   0  0  0  0  0  0  0  0  0  0  0  0
  -40.8453  -13.8256   20.5807 C   0  0  0  0  0  0  0  0  0  0  0  0
  -32.2650  -14.5689   26.1250 C   0  0  0  0  0  0  0  0  0  0  0  0
  -33.7667  -14.5831   26.3888 C   0  0  0  0  0  0  0  0  0  1  0  0
  -39.0449  -18.4711   20.4698 C   0  0  1  0  0  0  0  0  0  0  0  0
  -40.6736  -15.5131   18.7472 C   0  0  2  0  0  0  0  0  0  0  0  0
  -38.7277  -19.7737   19.6824 C   0  0  0  0  0  0  0  0  0  0  0  0
  -25.8595  -11.5454   20.2832 N   0  0  0  0  0  0  0  0  0  0  0  0
  -26.2352  -12.8293   20.1549 N   0  0  0  0  0  0  0  0  0  0  0  0
  -38.9901  -18.2896   22.9371 N   0  0  0  0  0  0  0  0  0  0  0  0
  -29.9708  -13.6120   20.3577 N   0  0  0  0  0  0  0  0  0  0  0  0
  -25.4675  -15.0560   20.4059 N   0  0  0  0  0  0  0  0  0  0  0  0
  -21.8868  -12.5782   21.6038 N   0  0  0  0  0  0  0  0  0  0  0  0
  -39.3328  -20.8186   25.4305 N   0  0  0  0  0  0  0  0  0  0  0  0
  -39.9407  -17.5546   19.7726 N   0  0  0  0  0  0  0  0  0  0  0  0
  -30.1433  -15.6753   21.5006 N   0  0  0  0  0  0  0  0  0  0  0  0
  -30.5982  -19.3522   21.9510 N   0  3  0  0  0  0  0  0  0  0  0  0
  -40.6636  -14.0721   19.1270 N   0  3  0  0  0  0  0  0  0  0  0  0
  -22.6602  -14.7188   21.3237 O   0  0  0  0  0  0  0  0  0  0  0  0
  -37.4808  -20.0025   24.2787 O   0  0  0  0  0  0  0  0  0  0  0  0
  -40.7627  -19.3462   21.8518 O   0  0  0  0  0  0  0  0  0  0  0  0
  -38.4907  -15.7450   19.7565 O   0  0  0  0  0  0  0  0  0  0  0  0
  -31.8765  -14.9242   20.2011 O   0  0  0  0  0  0  0  0  0  0  0  0
  -21.6180   -7.0147   21.7088 O   0  0  0  0  0  0  0  0  0  0  0  0
  -34.4716  -14.7242   25.1561 O   0  0  0  0  0  0  0  0  0  1  0  0
  -18.6362   -6.8378   26.3436 F   0  0  0  0  0  0  0  0  0  0  0  0
  -19.6260   -8.8714   22.1855 F   0  0  0  0  0  0  0  0  0  0  0  0
  1  2  1  0  0  0  0
  1  5  2  0  0  0  0
  2  6  2  0  0  0  0
  3  8  2  0  0  0  0
  3 17  1  0  0  0  0
  4  9  1  0  0  0  0
  4 17  2  0  0  0  0
  5 19  1  0  0  0  0
  6 21  1  0  0  0  0
  7 10  2  0  0  0  0
  7 20  1  0  0  0  0
  8 27  1  0  0  0  0
  9 27  2  0  0  0  0
 10 28  1  0  0  0  0
 11 12  2  0  0  0  0
 11 29  1  0  0  0  0
 12 30  1  0  0  0  0
 13 22  2  0  0  0  0
 13 25  1  0  0  0  0
 14 23  2  0  0  0  0
 14 26  1  0  0  0  0
 15 24  1  0  0  0  0
 15 28  2  0  0  0  0
 16 30  2  0  0  0  0
 16 31  1  0  0  0  0
 17 32  1  0  0  0  0
 18 32  1  0  0  0  0
 18 33  2  0  0  0  0
 18 34  1  0  0  0  0
 19 21  2  0  0  0  0
 19 39  1  0  0  0  0
 20 24  2  0  0  0  0
 20 40  1  0  0  0  0
 21 49  1  0  0  0  0
 22 23  1  0  0  0  0
 22 42  1  0  0  0  0
 23 50  1  0  0  0  0
 24 41  1  0  0  0  0
 25 26  2  0  0  0  0
 25 54  1  0  0  0  0
 26 61  1  0  0  0  0
 27 82  1  0  0  0  0
 28 83  1  0  0  0  0
 29 31  2  0  0  0  0
 29 82  1  0  0  0  0
 30 84  1  0  0  0  0
 31 85  1  0  0  0  0
 32 66  2  0  0  0  0
 33 67  1  0  0  0  0
 33 70  1  0  0  0  0
 34 71  1  0  0  0  0
 34 77  2  0  0  0  0
 35 51  1  0  0  0  0
 35 72  1  0  0  0  0
 35 78  2  0  0  0  0
 36 63  1  0  0  0  0
 36 68  1  0  0  0  0
 36 79  2  0  0  0  0
 37 64  1  0  0  0  0
 37 73  1  0  0  0  0
 37 80  2  0  0  0  0
 38 69  1  0  0  0  0
 38 74  1  0  0  0  0
 38 81  2  0  0  0  0
 39 43  1  0  0  0  0
 40 51  1  0  0  0  0
 41 68  1  0  0  0  0
 42 75  1  0  0  0  0
 43 45  1  0  0  0  0
 44 46  1  0  0  0  0
 44 47  1  0  0  0  0
 45 49  1  0  0  0  0
 46 52  1  0  0  0  0
 47 69  1  0  0  0  0
 48 52  1  0  0  0  0
 48 69  1  0  0  0  0
 49 72  1  0  0  0  0
 50 53  1  0  0  0  0
 50 74  1  0  0  0  0
 51 68  1  0  0  0  0
 52 67  1  0  0  0  0
 53 55  1  0  0  0  0
 53 75  1  0  0  0  0
 56 64  1  0  0  0  0
 57 65  1  0  0  0  0
 58 65  1  0  0  0  0
 59 65  1  0  0  0  0
 60 76  1  0  0  0  0
 61 62  1  0  0  0  0
 62 83  1  0  0  0  0
 63 65  1  0  0  0  0
 63 73  1  0  0  0  0
 64 76  1  0  0  0  0
 66 67  1  0  0  0  0
M  CHG  2  75   1  76   1
M  ISO  4  38 100  62 101  74 100  83 101
M  END
> <Batch ID>
0160

> <Smiles>
CNC(C)C(=O)NC(C(=O)N1Cc2cc([101O:1][101CH2:1]Cc3cc4c(cc3C)CNC(C)C4[100NH:0][100C:0](=O)N3CCCC(n4nc(-c5ccc(Oc6ccc(F)cc6F)cc5)c(C(N)=O)c4N)C3)ccc2CC1C(=O)NC1CCCc2ccccc21)C(C)(C)C

> <Shape>
0.173

> <Color>
0.187

> <Negative vol penalty>
0.000

$$$$

  -OEChem-04052322093D

 88 97  0     1  0  0  0  0  0999 V2000
  -17.0866  -20.6029   30.4231 C   0  0  0  0  0  0  0  0  0  0  0  0
  -18.1044  -20.5735   29.4751 C   0  0  0  0  0  0  0  0  0  0  0  0
  -23.0860   -9.8153   20.2741 C   0  0  0  0  0  0  0  0  0  0  0  0
  -23.7458  -10.1772   22.5699 C   0  0  0  0  0  0  0  0  0  0  0  0
  -16.0726  -21.5548   30.3262 C   0  0  0  0  0  0  0  0  0  0  0  0
  -18.1081  -21.4955   28.4290 C   0  0  0  0  0  0  0  0  0  0  0  0
  -22.6851  -23.5103   27.6312 C   0  0  0  0  0  0  0  0  0  0  0  0
  -22.3246   -8.7144   20.6664 C   0  0  0  0  0  0  0  0  0  0  0  0
  -22.9844   -9.0763   22.9623 C   0  0  0  0  0  0  0  0  0  0  0  0
  -23.6116  -22.7319   26.9389 C   0  0  0  0  0  0  0  0  0  0  0  0
  -22.8625   -5.4811   21.4914 C   0  0  0  0  0  0  0  0  0  0  0  0
  -22.9634   -4.3188   20.7270 C   0  0  0  0  0  0  0  0  0  0  0  0
  -23.1265  -23.9606   24.9204 C   0  0  0  0  0  0  0  0  0  0  0  0
  -27.7480  -20.7680   24.8482 C   0  0  0  0  0  0  0  0  0  0  0  0
  -20.5974   -4.4273   20.2498 C   0  0  0  0  0  0  0  0  0  0  0  0
  -23.7966  -10.5467   21.2259 C   0  0  0  0  0  0  0  0  0  0  0  0
  -24.1595  -13.0230   20.7322 C   0  0  0  0  0  0  0  0  0  0  0  0
  -16.0691  -22.4951   29.2838 C   0  0  0  0  0  0  0  0  0  0  0  0
  -21.9633  -24.5142   26.9698 C   0  0  0  0  0  0  0  0  0  0  0  0
  -17.0923  -22.4601   28.3173 C   0  0  0  0  0  0  0  0  0  0  0  0
  -22.1933  -24.7521   25.6073 C   0  0  0  0  0  0  0  0  0  0  0  0
  -26.3866  -20.4863   24.7351 C   0  0  0  0  0  0  0  0  0  0  0  0
  -25.9414  -19.5647   23.7874 C   0  0  0  0  0  0  0  0  0  0  0  0
  -26.8578  -18.9249   22.9527 C   0  0  0  0  0  0  0  0  0  0  0  0
  -28.2192  -19.2066   23.0657 C   0  0  0  0  0  0  0  0  0  0  0  0
  -22.2738   -8.3449   22.0105 C   0  0  0  0  0  0  0  0  0  0  0  0
  -23.8303  -22.9550   25.5826 C   0  0  0  0  0  0  0  0  0  0  0  0
  -21.6291   -6.1165   21.6351 C   0  0  0  0  0  0  0  0  0  0  0  0
  -28.6643  -20.1282   24.0135 C   0  0  0  0  0  0  0  0  0  0  0  0
  -21.8309   -3.7918   20.1062 C   0  0  0  0  0  0  0  0  0  0  0  0
  -20.4966   -5.5896   21.0143 C   0  0  0  0  0  0  0  0  0  0  0  0
  -24.5838  -11.6837   20.8212 C   0  0  0  0  0  0  0  0  0  0  0  0
  -25.2711  -13.7077   20.3057 C   0  0  0  0  0  0  0  0  0  0  0  0
  -22.8754  -13.5969   21.0103 C   0  0  0  0  0  0  0  0  0  0  0  0
  -18.8853  -25.0463   26.3809 C   0  0  0  0  0  0  0  0  0  0  0  0
  -19.9972  -27.8575   25.2049 C   0  0  0  0  0  0  0  0  0  0  0  0
  -22.6048  -29.6138   23.8774 C   0  0  0  0  0  0  0  0  0  0  0  0
  -30.7480  -14.7457   20.5743 C   0  0  0  0  0  0  0  0  0  0  0  0
  -14.9260  -23.4749   29.1938 C   0  0  0  0  0  0  0  0  0  0  0  0
  -20.9869  -25.3630   27.7370 C   0  0  0  0  0  0  0  0  0  0  0  0
  -21.4590  -25.8311   24.8556 C   0  0  0  0  0  0  0  0  0  0  0  0
  -15.2068  -24.6548   28.2669 C   0  0  0  0  0  0  0  0  0  0  0  0
  -29.6997  -12.0203   18.5372 C   0  0  0  0  0  0  0  0  0  0  0  0
  -15.8050  -24.1690   26.9505 C   0  0  0  0  0  0  0  0  0  0  0  0
  -28.2429  -11.7965   18.9469 C   0  0  0  0  0  0  0  0  0  0  0  0
  -30.5653  -12.4245   19.7285 C   0  0  0  0  0  0  0  0  0  0  0  0
  -28.6099  -13.3606   20.9009 C   0  0  0  0  0  0  0  0  0  0  0  0
  -30.2238  -17.7356   22.7289 C   0  0  0  0  0  0  0  0  0  0  0  0
  -29.1163  -18.6743   20.7835 C   0  0  0  0  0  0  0  0  0  0  0  0
  -17.1445  -23.4592   27.1819 C   0  0  1  0  0  0  0  0  0  0  0  0
  -19.9343  -26.0160   26.8464 C   0  0  1  0  0  0  0  0  0  0  0  0
  -27.6866  -13.0056   19.7228 C   0  0  2  0  0  0  0  0  0  0  0  0
  -30.7739  -17.0617   21.4657 C   0  0  2  0  0  0  0  0  0  0  0  0
  -30.4476  -18.0556   20.3538 C   0  0  2  0  0  0  0  0  0  0  0  0
  -24.4805  -19.2660   23.6668 C   0  0  0  0  0  0  0  0  0  0  0  0
  -26.3776  -17.9366   21.9359 C   0  0  0  0  0  0  0  0  0  0  0  0
  -23.1993  -31.8807   22.9801 C   0  0  0  0  0  0  0  0  0  0  0  0
  -18.5029  -27.2239   22.6212 C   0  0  0  0  0  0  0  0  0  0  0  0
  -19.8722  -28.9820   21.4801 C   0  0  0  0  0  0  0  0  0  0  0  0
  -18.3518  -29.6098   23.3554 C   0  0  0  0  0  0  0  0  0  0  0  0
  -24.6714  -30.0228   25.9561 C   0  0  0  0  0  0  0  0  0  0  0  0
  -30.4983  -21.4895   23.3506 C   0  0  0  0  0  0  0  0  0  0  0  0
  -25.4218  -21.1889   25.6445 C   0  0  0  0  0  0  0  0  0  1  0  0
  -20.4780  -28.3369   23.8566 C   0  0  1  0  0  0  0  0  0  0  0  0
  -23.1685  -30.9840   24.2080 C   0  0  2  0  0  0  0  0  0  0  0  0
  -19.3138  -28.5165   22.8418 C   0  0  0  0  0  0  0  0  0  0  0  0
  -25.8649  -11.5248   20.4785 N   0  0  0  0  0  0  0  0  0  0  0  0
  -26.2552  -12.7732   20.1700 N   0  0  0  0  0  0  0  0  0  0  0  0
  -29.1306  -18.5781   22.2432 N   0  0  3  0  0  0  0  0  0  0  0  0
  -20.5099  -26.6301   25.6482 N   0  0  0  0  0  0  0  0  0  0  0  0
  -29.9834  -13.5775   20.4200 N   0  0  0  0  0  0  0  0  0  0  0  0
  -25.4930  -15.0119   20.0371 N   0  0  0  0  0  0  0  0  0  0  0  0
  -21.8440  -12.7505   21.4393 N   0  0  0  0  0  0  0  0  0  0  0  0
  -18.1970  -24.4268   27.4066 N   0  0  0  0  0  0  0  0  0  0  0  0
  -21.2464  -29.5518   24.1056 N   0  0  0  0  0  0  0  0  0  0  0  0
  -30.1189  -15.7933   21.2357 N   0  0  0  0  0  0  0  0  0  0  0  0
  -31.4877  -19.1243   20.3290 N   0  3  0  0  0  0  0  0  0  0  0  0
  -24.5573  -30.8597   24.7340 N   0  3  0  0  0  0  0  0  0  0  0  0
  -22.6447  -14.8215   20.8664 O   0  0  0  0  0  0  0  0  0  0  0  0
  -18.7121  -24.8739   25.1801 O   0  0  0  0  0  0  0  0  0  0  0  0
  -19.2016  -28.5501   25.8446 O   0  0  0  0  0  0  0  0  0  0  0  0
  -23.2994  -28.6920   23.4553 O   0  0  0  0  0  0  0  0  0  0  0  0
  -31.9036  -14.8493   20.1493 O   0  0  0  0  0  0  0  0  0  0  0  0
  -21.5307   -7.2709   22.3937 O   0  0  0  0  0  0  0  0  0  0  0  0
  -29.9903  -20.4175   24.1416 O   0  0  0  0  0  0  0  0  0  0  0  0
  -24.7336  -22.1962   24.9042 O   0  0  0  0  0  0  0  0  0  1  0  0
  -21.9282   -2.6765   19.3709 F   0  0  0  0  0  0  0  0  0  0  0  0
  -19.3091   -6.1963   21.1477 F   0  0  0  0  0  0  0  0  0  0  0  0
  1  2  1  0  0  0  0
  1  5  2  0  0  0  0
  2  6  2  0  0  0  0
  3  8  2  0  0  0  0
  3 16  1  0  0  0  0
  4  9  1  0  0  0  0
  4 16  2  0  0  0  0
  5 18  1  0  0  0  0
  6 20  1  0  0  0  0
  7 10  2  0  0  0  0
  7 19  1  0  0  0  0
  8 26  1  0  0  0  0
  9 26  2  0  0  0  0
 10 27  1  0  0  0  0
 11 12  2  0  0  0  0
 11 28  1  0  0  0  0
 12 30  1  0  0  0  0
 13 21  1  0  0  0  0
 13 27  2  0  0  0  0
 14 22  1  0  0  0  0
 14 29  2  0  0  0  0
 15 30  2  0  0  0  0
 15 31  1  0  0  0  0
 16 32  1  0  0  0  0
 17 32  1  0  0  0  0
 17 33  2  0  0  0  0
 17 34  1  0  0  0  0
 18 20  2  0  0  0  0
 18 39  1  0  0  0  0
 19 21  2  0  0  0  0
 19 40  1  0  0  0  0
 20 50  1  0  0  0  0
 21 41  1  0  0  0  0
 22 23  2  0  0  0  0
 22 63  1  0  0  0  0
 23 24  1  0  0  0  0
 23 55  1  0  0  0  0
 24 25  2  0  0  0  0
 24 56  1  0  0  0  0
 25 29  1  0  0  0  0
 25 69  1  0  0  0  0
 26 84  1  0  0  0  0
 27 86  1  0  0  0  0
 28 31  2  0  0  0  0
 28 84  1  0  0  0  0
 29 85  1  0  0  0  0
 30 87  1  0  0  0  0
 31 88  1  0  0  0  0
 32 67  2  0  0  0  0
 33 68  1  0  0  0  0
 33 72  1  0  0  0  0
 34 73  1  0  0  0  0
 34 79  2  0  0  0  0
 35 51  1  0  0  0  0
 35 74  1  0  0  0  0
 35 80  2  0  0  0  0
 36 64  1  0  0  0  0
 36 70  1  0  0  0  0
 36 81  2  0  0  0  0
 37 65  1  0  0  0  0
 37 75  1  0  0  0  0
 37 82  2  0  0  0  0
 38 71  1  0  0  0  0
 38 76  1  0  0  0  0
 38 83  2  0  0  0  0
 39 42  1  0  0  0  0
 40 51  1  0  0  0  0
 41 70  1  0  0  0  0
 42 44  1  0  0  0  0
 43 45  1  0  0  0  0
 43 46  1  0  0  0  0
 44 50  1  0  0  0  0
 45 52  1  0  0  0  0
 46 71  1  0  0  0  0
 47 52  1  0  0  0  0
 47 71  1  0  0  0  0
 48 53  1  0  0  0  0
 48 69  1  0  0  0  0
 49 54  1  0  0  0  0
 49 69  1  0  0  0  0
 50 74  1  0  0  0  0
 51 70  1  0  0  0  0
 52 68  1  0  0  0  0
 53 54  1  0  0  0  0
 53 76  1  0  0  0  0
 54 77  1  0  0  0  0
 57 65  1  0  0  0  0
 58 66  1  0  0  0  0
 59 66  1  0  0  0  0
 60 66  1  0  0  0  0
 61 78  1  0  0  0  0
 62 85  1  0  0  0  0
 63 86  1  0  0  0  0
 64 66  1  0  0  0  0
 64 75  1  0  0  0  0
 65 78  1  0  0  0  0
 67 68  1  0  0  0  0
M  CHG  2  77   1  78   1
M  ISO  4  38 100  63 101  76 100  86 101
M  END
> <Batch ID>
0160

> <Smiles>
CNC(C)C(=O)NC(C(=O)N1Cc2cc([101O:1][101CH2:1]c3cc(OC)c(N4CC(N)C([100NH:0][100C:0](=O)N5CCCC(n6nc(-c7ccc(Oc8ccc(F)cc8F)cc7)c(C(N)=O)c6N)C5)C4)c(C)c3C)ccc2CC1C(=O)NC1CCCc2ccccc21)C(C)(C)C

> <Shape>
0.229

> <Color>
0.188

> <Negative vol penalty>
0.000

$$$$

  -OEChem-04052322093D

 85 94  0     1  0  0  0  0  0999 V2000
  -21.1773  -35.7608   24.7456 C   0  0  0  0  0  0  0  0  0  0  0  0
  -21.4836  -34.4568   25.1212 C   0  0  0  0  0  0  0  0  0  0  0  0
  -24.0229   -9.7214   21.3866 C   0  0  0  0  0  0  0  0  0  0  0  0
  -24.4692  -10.7726   23.5157 C   0  0  0  0  0  0  0  0  0  0  0  0
  -22.0134  -36.4460   23.8650 C   0  0  0  0  0  0  0  0  0  0  0  0
  -22.6256  -33.8368   24.6155 C   0  0  0  0  0  0  0  0  0  0  0  0
  -26.2342  -29.8328   27.5228 C   0  0  0  0  0  0  0  0  0  0  0  0
  -23.5518   -8.5861   22.0459 C   0  0  0  0  0  0  0  0  0  0  0  0
  -23.9980   -9.6372   24.1750 C   0  0  0  0  0  0  0  0  0  0  0  0
  -26.3045  -28.4407   27.4941 C   0  0  0  0  0  0  0  0  0  0  0  0
  -21.0059   -8.2804   24.9664 C   0  0  0  0  0  0  0  0  0  0  0  0
  -20.1416   -8.4708   26.0445 C   0  0  0  0  0  0  0  0  0  0  0  0
  -28.6092  -19.3939   23.0059 C   0  0  0  0  0  0  0  0  0  0  0  0
  -27.7324  -21.7935   21.7940 C   0  0  0  0  0  0  0  0  0  0  0  0
  -28.0729  -28.5697   25.8585 C   0  0  0  0  0  0  0  0  0  0  0  0
  -21.7099   -7.3485   27.4999 C   0  0  0  0  0  0  0  0  0  0  0  0
  -24.4817  -10.8146   22.1215 C   0  0  0  0  0  0  0  0  0  0  0  0
  -24.2210  -13.1117   21.0430 C   0  0  0  0  0  0  0  0  0  0  0  0
  -23.1714  -35.8375   23.3558 C   0  0  0  0  0  0  0  0  0  0  0  0
  -27.0767  -30.6049   26.7100 C   0  0  0  0  0  0  0  0  0  0  0  0
  -23.4773  -34.5140   23.7262 C   0  0  0  0  0  0  0  0  0  0  0  0
  -28.8208  -19.6281   21.6562 C   0  0  0  0  0  0  0  0  0  0  0  0
  -28.3878  -20.8198   21.0589 C   0  0  0  0  0  0  0  0  0  0  0  0
  -28.0131  -29.9715   25.8806 C   0  0  0  0  0  0  0  0  0  0  0  0
  -27.9374  -20.3651   23.7520 C   0  0  0  0  0  0  0  0  0  0  0  0
  -23.5393   -8.5440   23.4401 C   0  0  0  0  0  0  0  0  0  0  0  0
  -27.2220  -27.8089   26.6598 C   0  0  0  0  0  0  0  0  0  0  0  0
  -22.2221   -7.6239   25.1549 C   0  0  0  0  0  0  0  0  0  0  0  0
  -27.5017  -21.5559   23.1503 C   0  0  0  0  0  0  0  0  0  0  0  0
  -20.4936   -8.0049   27.3112 C   0  0  0  0  0  0  0  0  0  0  0  0
  -22.5741   -7.1581   26.4217 C   0  0  0  0  0  0  0  0  0  0  0  0
  -24.9690  -11.9875   21.4411 C   0  0  0  0  0  0  0  0  0  0  0  0
  -25.1382  -13.9395   20.4430 C   0  0  0  0  0  0  0  0  0  0  0  0
  -22.8222  -13.3835   21.2015 C   0  0  0  0  0  0  0  0  0  0  0  0
  -26.6263  -32.6838   24.3480 C   0  0  0  0  0  0  0  0  0  0  0  0
  -29.8339  -33.0875   24.6143 C   0  0  0  0  0  0  0  0  0  0  0  0
  -32.8446  -31.8061   25.5840 C   0  0  0  0  0  0  0  0  0  0  0  0
  -30.1516  -16.3893   20.3460 C   0  0  0  0  0  0  0  0  0  0  0  0
  -24.0193  -36.6014   22.3697 C   0  0  0  0  0  0  0  0  0  0  0  0
  -27.0067  -32.1062   26.7724 C   0  0  0  0  0  0  0  0  0  0  0  0
  -28.7793  -20.8690   19.6149 C   0  0  0  0  0  0  0  0  0  0  0  0
  -28.9539  -30.7553   25.0036 C   0  0  0  0  0  0  0  0  0  0  0  0
  -25.4104  -36.0048   22.1722 C   0  0  0  0  0  0  0  0  0  0  0  0
  -29.0543  -19.3840   19.3315 C   0  0  0  0  0  0  0  0  0  0  0  0
  -29.9225  -13.0847   19.0409 C   0  0  0  0  0  0  0  0  0  0  0  0
  -25.3212  -34.4941   21.9812 C   0  0  0  0  0  0  0  0  0  0  0  0
  -28.5551  -12.5956   19.5213 C   0  0  0  0  0  0  0  0  0  0  0  0
  -30.6042  -13.9680   20.0835 C   0  0  0  0  0  0  0  0  0  0  0  0
  -28.4262  -14.6167   21.0369 C   0  0  0  0  0  0  0  0  0  0  0  0
  -24.7203  -33.8161   23.2184 C   0  0  1  0  0  0  0  0  0  0  0  0
  -29.5470  -18.7761   20.6572 C   0  0  2  0  0  0  0  0  0  0  0  0
  -27.5594  -32.7825   25.5216 C   0  0  1  0  0  0  0  0  0  0  0  0
  -27.6757  -13.7678   19.9966 C   0  0  2  0  0  0  0  0  0  0  0  0
  -27.6950  -20.1210   25.2061 C   0  0  0  0  0  0  0  0  0  0  0  0
  -35.2928  -32.3543   25.6400 C   0  0  0  0  0  0  0  0  0  0  0  0
  -30.0283  -32.5140   21.6238 C   0  0  0  0  0  0  0  0  0  0  0  0
  -32.4847  -32.1361   21.9268 C   0  0  0  0  0  0  0  0  0  0  0  0
  -31.4973  -34.3716   22.4274 C   0  0  0  0  0  0  0  0  0  0  0  0
  -32.9334  -31.6370   28.5374 C   0  0  0  0  0  0  0  0  0  0  0  0
  -27.0739  -24.4681   25.2709 C   0  0  0  0  0  0  0  0  0  0  0  0
  -27.6990  -25.8482   25.4012 C   0  0  0  0  0  0  0  0  0  1  0  0
  -27.4606  -23.7893   23.9663 C   0  0  0  0  0  0  0  0  0  0  0  0
  -31.0481  -32.4391   23.9945 C   0  0  1  0  0  0  0  0  0  0  0  0
  -33.9769  -32.4020   26.4009 C   0  0  2  0  0  0  0  0  0  0  0  0
  -31.2457  -32.8501   22.5081 C   0  0  0  0  0  0  0  0  0  0  0  0
  -26.2618  -12.0885   21.1208 N   0  0  0  0  0  0  0  0  0  0  0  0
  -26.3332  -13.2861   20.5150 N   0  0  0  0  0  0  0  0  0  0  0  0
  -28.8426  -32.2205   25.0953 N   0  0  0  0  0  0  0  0  0  0  0  0
  -29.7181  -15.0611   20.4907 N   0  0  0  0  0  0  0  0  0  0  0  0
  -25.0310  -15.1552   19.8660 N   0  0  0  0  0  0  0  0  0  0  0  0
  -22.0237  -12.4255   21.8410 N   0  0  0  0  0  0  0  0  0  0  0  0
  -25.7097  -33.7149   24.2699 N   0  0  0  0  0  0  0  0  0  0  0  0
  -32.1745  -32.7700   24.8607 N   0  0  0  0  0  0  0  0  0  0  0  0
  -29.2480  -17.3644   20.7502 N   0  0  0  0  0  0  0  0  0  0  0  0
  -34.1449  -31.6520   27.6777 N   0  3  0  0  0  0  0  0  0  0  0  0
  -22.2929  -14.4372   20.7737 O   0  0  0  0  0  0  0  0  0  0  0  0
  -26.7313  -31.7428   23.5701 O   0  0  0  0  0  0  0  0  0  0  0  0
  -29.7706  -34.3179   24.6761 O   0  0  0  0  0  0  0  0  0  0  0  0
  -32.5833  -30.6052   25.5843 O   0  0  0  0  0  0  0  0  0  0  0  0
  -31.2597  -16.6844   19.8854 O   0  0  0  0  0  0  0  0  0  0  0  0
  -23.0794   -7.4364   24.0837 O   0  0  0  0  0  0  0  0  0  0  0  0
  -27.2923  -26.4502   26.6294 O   0  0  0  0  0  0  0  0  0  1  0  0
  -26.8498  -22.5084   23.8895 O   0  0  0  0  0  0  0  0  0  0  0  0
  -19.6642   -8.1891   28.3468 F   0  0  0  0  0  0  0  0  0  0  0  0
  -23.7418   -6.5278   26.6093 F   0  0  0  0  0  0  0  0  0  0  0  0
  1  2  1  0  0  0  0
  1  5  2  0  0  0  0
  2  6  2  0  0  0  0
  3  8  2  0  0  0  0
  3 17  1  0  0  0  0
  4  9  1  0  0  0  0
  4 17  2  0  0  0  0
  5 19  1  0  0  0  0
  6 21  1  0  0  0  0
  7 10  2  0  0  0  0
  7 20  1  0  0  0  0
  8 26  1  0  0  0  0
  9 26  2  0  0  0  0
 10 27  1  0  0  0  0
 11 12  2  0  0  0  0
 11 28  1  0  0  0  0
 12 30  1  0  0  0  0
 13 22  2  0  0  0  0
 13 25  1  0  0  0  0
 14 23  2  0  0  0  0
 14 29  1  0  0  0  0
 15 24  1  0  0  0  0
 15 27  2  0  0  0  0
 16 30  2  0  0  0  0
 16 31  1  0  0  0  0
 17 32  1  0  0  0  0
 18 32  1  0  0  0  0
 18 33  2  0  0  0  0
 18 34  1  0  0  0  0
 19 21  2  0  0  0  0
 19 39  1  0  0  0  0
 20 24  2  0  0  0  0
 20 40  1  0  0  0  0
 21 50  1  0  0  0  0
 22 23  1  0  0  0  0
 22 51  1  0  0  0  0
 23 41  1  0  0  0  0
 24 42  1  0  0  0  0
 25 29  2  0  0  0  0
 25 54  1  0  0  0  0
 26 81  1  0  0  0  0
 27 82  1  0  0  0  0
 28 31  2  0  0  0  0
 28 81  1  0  0  0  0
 29 83  1  0  0  0  0
 30 84  1  0  0  0  0
 31 85  1  0  0  0  0
 32 66  2  0  0  0  0
 33 67  1  0  0  0  0
 33 70  1  0  0  0  0
 34 71  1  0  0  0  0
 34 76  2  0  0  0  0
 35 52  1  0  0  0  0
 35 72  1  0  0  0  0
 35 77  2  0  0  0  0
 36 63  1  0  0  0  0
 36 68  1  0  0  0  0
 36 78  2  0  0  0  0
 37 64  1  0  0  0  0
 37 73  1  0  0  0  0
 37 79  2  0  0  0  0
 38 69  1  0  0  0  0
 38 74  1  0  0  0  0
 38 80  2  0  0  0  0
 39 43  1  0  0  0  0
 40 52  1  0  0  0  0
 41 44  1  0  0  0  0
 42 68  1  0  0  0  0
 43 46  1  0  0  0  0
 44 51  1  0  0  0  0
 45 47  1  0  0  0  0
 45 48  1  0  0  0  0
 46 50  1  0  0  0  0
 47 53  1  0  0  0  0
 48 69  1  0  0  0  0
 49 53  1  0  0  0  0
 49 69  1  0  0  0  0
 50 72  1  0  0  0  0
 51 74  1  0  0  0  0
 52 68  1  0  0  0  0
 53 67  1  0  0  0  0
 55 64  1  0  0  0  0
 56 65  1  0  0  0  0
 57 65  1  0  0  0  0
 58 65  1  0  0  0  0
 59 75  1  0  0  0  0
 60 61  1  0  0  0  0
 60 62  1  0  0  0  0
 61 82  1  0  0  0  0
 62 83  1  0  0  0  0
 63 65  1  0  0  0  0
 63 73  1  0  0  0  0
 64 75  1  0  0  0  0
 66 67  1  0  0  0  0
M  CHG  1  75   1
M  ISO  4  38 100  61 101  74 100  82 101
M  END
> <Batch ID>
0160

> <Smiles>
CNC(C)C(=O)NC(C(=O)N1Cc2cc([101O:1][101CH2:1]CCOc3cc4c(cc3C)C([100NH:0][100C:0](=O)N3CCCC(n5nc(-c6ccc(Oc7ccc(F)cc7F)cc6)c(C(N)=O)c5N)C3)CC4)ccc2CC1C(=O)NC1CCCc2ccccc21)C(C)(C)C

> <Shape>
0.226

> <Color>
0.119

> <Negative vol penalty>
0.000

$$$$

  -OEChem-04052322093D

 95105  0     1  0  0  0  0  0999 V2000
  -19.3662  -32.8859   16.0847 C   0  0  0  0  0  0  0  0  0  0  0  0
  -20.4093  -31.9659   16.0520 C   0  0  0  0  0  0  0  0  0  0  0  0
  -23.9035   -9.0898   19.6303 C   0  0  0  0  0  0  0  0  0  0  0  0
  -24.3575   -9.0353   22.0026 C   0  0  0  0  0  0  0  0  0  0  0  0
  -19.4335  -33.9841   16.9411 C   0  0  0  0  0  0  0  0  0  0  0  0
  -21.5208  -32.1443   16.8749 C   0  0  0  0  0  0  0  0  0  0  0  0
  -24.8541  -27.7643   19.5602 C   0  0  0  0  0  0  0  0  0  0  0  0
  -22.7264   -8.3711   19.8390 C   0  0  0  0  0  0  0  0  0  0  0  0
  -23.1804   -8.3167   22.2114 C   0  0  0  0  0  0  0  0  0  0  0  0
  -26.0655  -27.1649   19.2180 C   0  0  0  0  0  0  0  0  0  0  0  0
  -21.8350   -5.1578   20.3907 C   0  0  0  0  0  0  0  0  0  0  0  0
  -21.5641   -4.0948   19.5291 C   0  0  0  0  0  0  0  0  0  0  0  0
  -27.2272  -28.6920   20.6799 C   0  0  0  0  0  0  0  0  0  0  0  0
  -19.5140   -5.1735   18.8429 C   0  0  0  0  0  0  0  0  0  0  0  0
  -24.7191   -9.4218   20.7121 C   0  0  0  0  0  0  0  0  0  0  0  0
  -27.0359   -9.7813   19.7068 C   0  0  0  0  0  0  0  0  0  0  0  0
  -20.5420  -34.1708   17.7819 C   0  0  0  0  0  0  0  0  0  0  0  0
  -24.8213  -28.8410   20.4580 C   0  0  0  0  0  0  0  0  0  0  0  0
  -21.6036  -33.2468   17.7423 C   0  0  0  0  0  0  0  0  0  0  0  0
  -26.0139  -29.3017   21.0338 C   0  0  0  0  0  0  0  0  0  0  0  0
  -30.0866  -25.6662   15.3994 C   0  0  0  0  0  0  0  0  0  0  0  0
  -30.1167  -25.8102   14.0006 C   0  0  0  0  0  0  0  0  0  0  0  0
  -29.9022  -24.7163   13.1706 C   0  0  0  0  0  0  0  0  0  0  0  0
  -29.6499  -23.4726   13.7316 C   0  0  0  0  0  0  0  0  0  0  0  0
  -29.6059  -23.3251   15.1216 C   0  0  0  0  0  0  0  0  0  0  0  0
  -29.8116  -24.4123   15.9949 C   0  0  0  0  0  0  0  0  0  0  0  0
  -22.3648   -7.9846   21.1296 C   0  0  0  0  0  0  0  0  0  0  0  0
  -27.2526  -27.6306   19.7756 C   0  0  0  0  0  0  0  0  0  0  0  0
  -20.9454   -6.2286   20.4784 C   0  0  0  0  0  0  0  0  0  0  0  0
  -20.4036   -4.1027   18.7552 C   0  0  0  0  0  0  0  0  0  0  0  0
  -19.7849   -6.2365   19.7045 C   0  0  0  0  0  0  0  0  0  0  0  0
  -25.9354  -10.1637   20.4970 C   0  0  0  0  0  0  0  0  0  0  0  0
  -27.9251  -10.8208   19.8304 C   0  0  0  0  0  0  0  0  0  0  0  0
  -27.2365   -8.5927   18.9304 C   0  0  0  0  0  0  0  0  0  0  0  0
  -23.9171  -31.8831   20.2802 C   0  0  0  0  0  0  0  0  0  0  0  0
  -24.5127  -31.8408   23.4686 C   0  0  0  0  0  0  0  0  0  0  0  0
  -25.5820  -31.2369   26.6528 C   0  0  0  0  0  0  0  0  0  0  0  0
  -27.6524  -16.6111   20.3170 C   0  0  0  0  0  0  0  0  0  0  0  0
  -20.5913  -35.3987   18.6563 C   0  0  0  0  0  0  0  0  0  0  0  0
  -23.5037  -29.4593   20.8373 C   0  0  0  0  0  0  0  0  0  0  0  0
  -30.3132  -26.8953   16.2430 C   0  0  0  0  0  0  0  0  0  0  0  0
  -26.0306  -30.4414   22.0183 C   0  0  0  0  0  0  0  0  0  0  0  0
  -21.6341  -35.3134   19.7678 C   0  0  0  0  0  0  0  0  0  0  0  0
  -30.7225  -26.5245   17.6607 C   0  0  0  0  0  0  0  0  0  0  0  0
  -27.2697  -14.2235   23.3056 C   0  0  0  0  0  0  0  0  0  0  0  0
  -22.9622  -34.8050   19.2160 C   0  0  0  0  0  0  0  0  0  0  0  0
  -28.0878  -13.1168   22.6469 C   0  0  0  0  0  0  0  0  0  0  0  0
  -27.7456  -20.2343   21.0909 C   0  0  0  0  0  0  0  0  0  0  0  0
  -29.6813  -19.1481   19.8939 C   0  0  0  0  0  0  0  0  0  0  0  0
  -27.5203  -15.5660   22.6259 C   0  0  0  0  0  0  0  0  0  0  0  0
  -27.0314  -14.2224   20.5818 C   0  0  0  0  0  0  0  0  0  0  0  0
  -28.0516  -21.5468   20.3813 C   0  0  0  0  0  0  0  0  0  0  0  0
  -29.9783  -20.4665   19.1913 C   0  0  0  0  0  0  0  0  0  0  0  0
  -22.8148  -33.3924   18.6378 C   0  0  1  0  0  0  0  0  0  0  0  0
  -23.6423  -30.8831   21.3675 C   0  0  1  0  0  0  0  0  0  0  0  0
  -27.8883  -13.0613   21.1165 C   0  0  2  0  0  0  0  0  0  0  0  0
  -28.2035  -19.0304   20.2669 C   0  0  0  0  0  0  0  0  0  0  0  0
  -29.8073  -25.4520   18.2536 C   0  0  1  0  0  0  0  0  0  0  0  0
  -30.3703  -27.1493   13.3760 C   0  0  0  0  0  0  0  0  0  0  0  0
  -29.9391  -24.8784   11.6839 C   0  0  0  0  0  0  0  0  0  0  0  0
  -29.4217  -22.2960   12.8318 C   0  0  0  0  0  0  0  0  0  0  0  0
  -29.2996  -21.9298   15.5819 C   0  0  0  0  0  0  0  0  0  0  0  0
  -25.8765  -32.3590   28.8780 C   0  0  0  0  0  0  0  0  0  0  0  0
  -31.3932  -23.1662   19.6867 C   0  0  0  0  0  0  0  0  0  0  0  0
  -26.9890  -33.2776   22.4135 C   0  0  0  0  0  0  0  0  0  0  0  0
  -27.7429  -33.5709   24.7829 C   0  0  0  0  0  0  0  0  0  0  0  0
  -25.6108  -34.6144   24.0160 C   0  0  0  0  0  0  0  0  0  0  0  0
  -23.7132  -29.3619   27.9761 C   0  0  0  0  0  0  0  0  0  0  0  0
  -28.3888  -25.9637   18.5162 C   0  0  0  0  0  0  0  0  0  1  0  0
  -29.4838  -22.9789   17.9974 C   0  0  0  0  0  0  0  0  0  0  0  0
  -25.7201  -32.1086   24.3343 C   0  0  1  0  0  0  0  0  0  0  0  0
  -24.9494  -31.5322   28.0008 C   0  0  2  0  0  0  0  0  0  0  0  0
  -29.9030  -22.9430   19.4662 C   0  0  1  0  0  0  0  0  0  0  0  0
  -26.5103  -33.3669   23.8763 C   0  0  0  0  0  0  0  0  0  0  0  0
  -26.1075  -11.3532   21.0797 N   0  0  0  0  0  0  0  0  0  0  0  0
  -27.3266  -11.7271   20.6553 N   0  0  0  0  0  0  0  0  0  0  0  0
  -29.7632  -24.2706   17.3818 N   0  0  3  0  0  0  0  0  0  0  0  0
  -24.7174  -31.0171   22.3526 N   0  0  0  0  0  0  0  0  0  0  0  0
  -27.4364  -15.5045   21.1611 N   0  0  0  0  0  0  0  0  0  0  0  0
  -29.1528  -11.0387   19.3130 N   0  0  0  0  0  0  0  0  0  0  0  0
  -26.2215   -7.6264   18.9136 N   0  0  0  0  0  0  0  0  0  0  0  0
  -22.7791  -32.4120   19.7017 N   0  0  0  0  0  0  0  0  0  0  0  0
  -25.2311  -32.1770   25.7071 N   0  0  0  0  0  0  0  0  0  0  0  0
  -27.9557  -17.7994   20.9768 N   0  0  0  0  0  0  0  0  0  0  0  0
  -29.5256  -21.6143   20.0613 N   0  3  0  0  0  0  0  0  0  0  0  0
  -24.6354  -30.2624   28.7149 N   0  3  0  0  0  0  0  0  0  0  0  0
  -28.2916   -8.3861   18.2842 O   0  0  0  0  0  0  0  0  0  0  0  0
  -25.0757  -32.1558   19.9889 O   0  0  0  0  0  0  0  0  0  0  0  0
  -23.4263  -32.3380   23.7755 O   0  0  0  0  0  0  0  0  0  0  0  0
  -26.3170  -30.2711   26.4591 O   0  0  0  0  0  0  0  0  0  0  0  0
  -27.5787  -16.5457   19.0863 O   0  0  0  0  0  0  0  0  0  0  0  0
  -21.2161   -7.2836   21.3337 O   0  0  0  0  0  0  0  0  0  0  0  0
  -28.4364  -27.0478   19.4429 O   0  0  0  0  0  0  0  0  0  1  0  0
  -20.1444   -3.0826   17.9268 F   0  0  0  0  0  0  0  0  0  0  0  0
  -18.9271   -7.2630   19.7837 F   0  0  0  0  0  0  0  0  0  0  0  0
  1  2  1  0  0  0  0
  1  5  2  0  0  0  0
  2  6  2  0  0  0  0
  3  8  2  0  0  0  0
  3 15  1  0  0  0  0
  4  9  1  0  0  0  0
  4 15  2  0  0  0  0
  5 17  1  0  0  0  0
  6 19  1  0  0  0  0
  7 10  2  0  0  0  0
  7 18  1  0  0  0  0
  8 27  1  0  0  0  0
  9 27  2  0  0  0  0
 10 28  1  0  0  0  0
 11 12  2  0  0  0  0
 11 29  1  0  0  0  0
 12 30  1  0  0  0  0
 13 20  1  0  0  0  0
 13 28  2  0  0  0  0
 14 30  2  0  0  0  0
 14 31  1  0  0  0  0
 15 32  1  0  0  0  0
 16 32  1  0  0  0  0
 16 33  2  0  0  0  0
 16 34  1  0  0  0  0
 17 19  2  0  0  0  0
 17 39  1  0  0  0  0
 18 20  2  0  0  0  0
 18 40  1  0  0  0  0
 19 54  1  0  0  0  0
 20 42  1  0  0  0  0
 21 22  1  0  0  0  0
 21 26  2  0  0  0  0
 21 41  1  0  0  0  0
 22 23  2  0  0  0  0
 22 59  1  0  0  0  0
 23 24  1  0  0  0  0
 23 60  1  0  0  0  0
 24 25  2  0  0  0  0
 24 61  1  0  0  0  0
 25 26  1  0  0  0  0
 25 62  1  0  0  0  0
 26 77  1  0  0  0  0
 27 92  1  0  0  0  0
 28 93  1  0  0  0  0
 29 31  2  0  0  0  0
 29 92  1  0  0  0  0
 30 94  1  0  0  0  0
 31 95  1  0  0  0  0
 32 75  2  0  0  0  0
 33 76  1  0  0  0  0
 33 80  1  0  0  0  0
 34 81  1  0  0  0  0
 34 87  2  0  0  0  0
 35 55  1  0  0  0  0
 35 82  1  0  0  0  0
 35 88  2  0  0  0  0
 36 71  1  0  0  0  0
 36 78  1  0  0  0  0
 36 89  2  0  0  0  0
 37 72  1  0  0  0  0
 37 83  1  0  0  0  0
 37 90  2  0  0  0  0
 38 79  1  0  0  0  0
 38 84  1  0  0  0  0
 38 91  2  0  0  0  0
 39 43  1  0  0  0  0
 40 55  1  0  0  0  0
 41 44  1  0  0  0  0
 42 78  1  0  0  0  0
 43 46  1  0  0  0  0
 44 58  1  0  0  0  0
 45 47  1  0  0  0  0
 45 50  1  0  0  0  0
 46 54  1  0  0  0  0
 47 56  1  0  0  0  0
 48 52  1  0  0  0  0
 48 57  1  0  0  0  0
 49 53  1  0  0  0  0
 49 57  1  0  0  0  0
 50 79  1  0  0  0  0
 51 56  1  0  0  0  0
 51 79  1  0  0  0  0
 52 85  1  0  0  0  0
 53 85  1  0  0  0  0
 54 82  1  0  0  0  0
 55 78  1  0  0  0  0
 56 76  1  0  0  0  0
 57 84  1  0  0  0  0
 58 69  1  0  0  0  0
 58 77  1  0  0  0  0
 63 72  1  0  0  0  0
 64 73  1  0  0  0  0
 65 74  1  0  0  0  0
 66 74  1  0  0  0  0
 67 74  1  0  0  0  0
 68 86  1  0  0  0  0
 69 93  1  0  0  0  0
 70 73  1  0  0  0  0
 70 77  1  0  0  0  0
 71 74  1  0  0  0  0
 71 83  1  0  0  0  0
 72 86  1  0  0  0  0
 73 85  1  0  0  0  0
 75 76  1  0  0  0  0
M  CHG  2  85   1  86   1
M  ISO  4  38 100  69 101  84 100  93 101
M  END
> <Batch ID>
0160

> <Smiles>
CNC(C)C(=O)NC(C(=O)N1Cc2cc([101O:1][101CH2:1]C3CCc4c(C)c(C)c(C)c(C)c4N3CC(C)N3CCC([100NH:0][100C:0](=O)N4CCCC(n5nc(-c6ccc(Oc7ccc(F)cc7F)cc6)c(C(N)=O)c5N)C4)CC3)ccc2CC1C(=O)NC1CCCc2ccccc21)C(C)(C)C

> <Shape>
0.270

> <Color>
0.105

> <Negative vol penalty>
0.000

$$$$

  -OEChem-04052322093D

 85 94  0     1  0  0  0  0  0999 V2000
  -28.4217  -32.0775   27.1514 C   0  0  0  0  0  0  0  0  0  0  0  0
  -28.4084  -30.9976   26.2745 C   0  0  0  0  0  0  0  0  0  0  0  0
  -23.5374  -10.1634   22.1574 C   0  0  0  0  0  0  0  0  0  0  0  0
  -23.9385   -8.9604   20.1010 C   0  0  0  0  0  0  0  0  0  0  0  0
  -27.2253  -32.6967   27.5110 C   0  0  0  0  0  0  0  0  0  0  0  0
  -27.1986  -30.5356   25.7574 C   0  0  0  0  0  0  0  0  0  0  0  0
  -27.4378  -29.6122   20.7840 C   0  0  0  0  0  0  0  0  0  0  0  0
  -22.1743   -9.8865   22.0535 C   0  0  0  0  0  0  0  0  0  0  0  0
  -22.5754   -8.6834   19.9971 C   0  0  0  0  0  0  0  0  0  0  0  0
  -28.0528  -28.4261   20.3854 C   0  0  0  0  0  0  0  0  0  0  0  0
  -19.2492   -7.3519   19.3795 C   0  0  0  0  0  0  0  0  0  0  0  0
  -18.8748   -6.0517   19.0406 C   0  0  0  0  0  0  0  0  0  0  0  0
  -25.8857  -27.4070   20.0953 C   0  0  0  0  0  0  0  0  0  0  0  0
  -27.9519  -22.8403   19.8712 C   0  0  0  0  0  0  0  0  0  0  0  0
  -19.9879   -5.2164   21.0155 C   0  0  0  0  0  0  0  0  0  0  0  0
  -29.2541  -22.6566   17.4804 C   0  0  0  0  0  0  0  0  0  0  0  0
  -24.4196   -9.7004   21.1811 C   0  0  0  0  0  0  0  0  0  0  0  0
  -26.8069   -9.2085   21.9335 C   0  0  0  0  0  0  0  0  0  0  0  0
  -26.0012  -32.2482   26.9905 C   0  0  0  0  0  0  0  0  0  0  0  0
  -26.0400  -29.7013   20.8517 C   0  0  0  0  0  0  0  0  0  0  0  0
  -25.9847  -31.1486   26.1114 C   0  0  0  0  0  0  0  0  0  0  0  0
  -25.2554  -28.5961   20.4925 C   0  0  0  0  0  0  0  0  0  0  0  0
  -27.8471  -23.8815   18.9556 C   0  0  0  0  0  0  0  0  0  0  0  0
  -21.6933   -9.1465   20.9735 C   0  0  0  0  0  0  0  0  0  0  0  0
  -27.2768  -27.3224   20.0438 C   0  0  0  0  0  0  0  0  0  0  0  0
  -19.9930   -7.5844   20.5364 C   0  0  0  0  0  0  0  0  0  0  0  0
  -19.2441   -4.9839   19.8586 C   0  0  0  0  0  0  0  0  0  0  0  0
  -20.3623   -6.5166   21.3544 C   0  0  0  0  0  0  0  0  0  0  0  0
  -28.5075  -23.7956   17.7351 C   0  0  0  0  0  0  0  0  0  0  0  0
  -25.8277   -9.9866   21.2875 C   0  0  0  0  0  0  0  0  0  0  0  0
  -28.7232  -21.7439   19.5208 C   0  0  0  0  0  0  0  0  0  0  0  0
  -27.9755   -9.9069   21.7519 C   0  0  0  0  0  0  0  0  0  0  0  0
  -26.6722   -7.9653   22.6351 C   0  0  0  0  0  0  0  0  0  0  0  0
  -23.9366  -30.2403   23.1731 C   0  0  0  0  0  0  0  0  0  0  0  0
  -21.8173  -30.2567   20.7174 C   0  0  0  0  0  0  0  0  0  0  0  0
  -21.0575  -29.2714   17.5395 C   0  0  0  0  0  0  0  0  0  0  0  0
  -29.2294  -15.4954   20.9859 C   0  0  0  0  0  0  0  0  0  0  0  0
  -24.7295  -32.9195   27.4453 C   0  0  0  0  0  0  0  0  0  0  0  0
  -25.3914  -30.9962   21.2579 C   0  0  0  0  0  0  0  0  0  0  0  0
  -23.7505  -28.6465   20.5289 C   0  0  0  0  0  0  0  0  0  0  0  0
  -23.5256  -32.6066   26.5604 C   0  0  0  0  0  0  0  0  0  0  0  0
  -30.1015  -12.9449   18.7357 C   0  0  0  0  0  0  0  0  0  0  0  0
  -23.4511  -31.1110   26.2696 C   0  0  0  0  0  0  0  0  0  0  0  0
  -29.1922  -11.8072   19.1995 C   0  0  0  0  0  0  0  0  0  0  0  0
  -28.7933  -18.5605   19.3117 C   0  0  0  0  0  0  0  0  0  0  0  0
  -29.9119  -18.8442   21.5558 C   0  0  0  0  0  0  0  0  0  0  0  0
  -29.3853  -14.2965   18.7585 C   0  0  0  0  0  0  0  0  0  0  0  0
  -29.5074  -17.2159   19.1450 C   0  0  0  0  0  0  0  0  0  0  0  0
  -30.6231  -17.5125   21.3328 C   0  0  0  0  0  0  0  0  0  0  0  0
  -27.8551  -13.4869   20.5253 C   0  0  0  0  0  0  0  0  0  0  0  0
  -24.6948  -30.6341   25.5100 C   0  0  1  0  0  0  0  0  0  0  0  0
  -23.9714  -30.8137   21.7847 C   0  0  1  0  0  0  0  0  0  0  0  0
  -28.5647  -12.1247   20.5686 C   0  0  1  0  0  0  0  0  0  0  0  0
  -29.5838  -19.5088   20.2162 C   0  0  0  0  0  0  0  0  0  0  0  0
  -19.2369  -29.4056   15.8177 C   0  0  0  0  0  0  0  0  0  0  0  0
  -20.2184  -28.1564   22.2479 C   0  0  0  0  0  0  0  0  0  0  0  0
  -18.9878  -27.6490   20.1275 C   0  0  0  0  0  0  0  0  0  0  0  0
  -18.8333  -29.9218   21.1437 C   0  0  0  0  0  0  0  0  0  0  0  0
  -22.8125  -30.6919   15.6261 C   0  0  0  0  0  0  0  0  0  0  0  0
  -27.0208  -25.0718   19.3191 C   0  0  0  0  0  0  0  0  0  1  0  0
  -20.9827  -29.2108   20.0185 C   0  0  1  0  0  0  0  0  0  0  0  0
  -20.5123  -30.0405   16.3497 C   0  0  2  0  0  0  0  0  0  0  0  0
  -19.7839  -28.7326   20.8854 C   0  0  0  0  0  0  0  0  0  0  0  0
  -29.3794  -21.6248   18.3448 N   0  0  0  0  0  0  0  0  0  0  0  0
  -26.3304  -11.0947   20.7367 N   0  0  0  0  0  0  0  0  0  0  0  0
  -27.6383  -11.0179   21.0362 N   0  0  0  0  0  0  0  0  0  0  0  0
  -23.1635  -29.9330   20.9387 N   0  0  0  0  0  0  0  0  0  0  0  0
  -28.7692  -14.5368   20.0708 N   0  0  0  0  0  0  0  0  0  0  0  0
  -29.8437  -16.6392   20.4546 N   0  0  0  0  0  0  0  0  0  0  0  0
  -29.2483   -9.6731   22.1361 N   0  0  0  0  0  0  0  0  0  0  0  0
  -25.3999   -7.3847   22.7275 N   0  0  0  0  0  0  0  0  0  0  0  0
  -28.8182  -20.7151   20.4411 N   0  0  0  0  0  0  0  0  0  0  0  0
  -24.6055  -31.0012   24.1129 N   0  0  0  0  0  0  0  0  0  0  0  0
  -20.5992  -29.7860   18.7338 N   0  0  0  0  0  0  0  0  0  0  0  0
  -21.5164  -30.0716   15.2488 N   0  3  0  0  0  0  0  0  0  0  0  0
  -27.6483   -7.3948   23.1784 O   0  0  0  0  0  0  0  0  0  0  0  0
  -23.3454  -29.1865   23.3769 O   0  0  0  0  0  0  0  0  0  0  0  0
  -21.2959  -31.3245   21.0482 O   0  0  0  0  0  0  0  0  0  0  0  0
  -21.8114  -28.3080   17.4212 O   0  0  0  0  0  0  0  0  0  0  0  0
  -29.0991  -15.3387   22.2064 O   0  0  0  0  0  0  0  0  0  0  0  0
  -20.3632   -8.8759   20.8719 O   0  0  0  0  0  0  0  0  0  0  0  0
  -27.8788  -26.1550   19.6523 O   0  0  0  0  0  0  0  0  0  1  0  0
  -18.8832   -3.7355   19.5338 F   0  0  0  0  0  0  0  0  0  0  0  0
  -21.0758   -6.7339   22.4678 F   0  0  0  0  0  0  0  0  0  0  0  0
  -28.4235  -25.0449   16.5561 Cl  0  0  0  0  0  0  0  0  0  0  0  0
  1  2  1  0  0  0  0
  1  5  2  0  0  0  0
  2  6  2  0  0  0  0
  3  8  2  0  0  0  0
  3 17  1  0  0  0  0
  4  9  1  0  0  0  0
  4 17  2  0  0  0  0
  5 19  1  0  0  0  0
  6 21  1  0  0  0  0
  7 10  2  0  0  0  0
  7 20  1  0  0  0  0
  8 24  1  0  0  0  0
  9 24  2  0  0  0  0
 10 25  1  0  0  0  0
 11 12  2  0  0  0  0
 11 26  1  0  0  0  0
 12 27  1  0  0  0  0
 13 22  1  0  0  0  0
 13 25  2  0  0  0  0
 14 23  1  0  0  0  0
 14 31  2  0  0  0  0
 15 27  2  0  0  0  0
 15 28  1  0  0  0  0
 16 29  1  0  0  0  0
 16 64  2  0  0  0  0
 17 30  1  0  0  0  0
 18 30  1  0  0  0  0
 18 32  2  0  0  0  0
 18 33  1  0  0  0  0
 19 21  2  0  0  0  0
 19 38  1  0  0  0  0
 20 22  2  0  0  0  0
 20 39  1  0  0  0  0
 21 51  1  0  0  0  0
 22 40  1  0  0  0  0
 23 29  2  0  0  0  0
 23 60  1  0  0  0  0
 24 81  1  0  0  0  0
 25 82  1  0  0  0  0
 26 28  2  0  0  0  0
 26 81  1  0  0  0  0
 27 83  1  0  0  0  0
 28 84  1  0  0  0  0
 29 85  1  0  0  0  0
 30 65  2  0  0  0  0
 31 64  1  0  0  0  0
 31 72  1  0  0  0  0
 32 66  1  0  0  0  0
 32 70  1  0  0  0  0
 33 71  1  0  0  0  0
 33 76  2  0  0  0  0
 34 52  1  0  0  0  0
 34 73  1  0  0  0  0
 34 77  2  0  0  0  0
 35 61  1  0  0  0  0
 35 67  1  0  0  0  0
 35 78  2  0  0  0  0
 36 62  1  0  0  0  0
 36 74  1  0  0  0  0
 36 79  2  0  0  0  0
 37 68  1  0  0  0  0
 37 69  1  0  0  0  0
 37 80  2  0  0  0  0
 38 41  1  0  0  0  0
 39 52  1  0  0  0  0
 40 67  1  0  0  0  0
 41 43  1  0  0  0  0
 42 44  1  0  0  0  0
 42 47  1  0  0  0  0
 43 51  1  0  0  0  0
 44 53  1  0  0  0  0
 45 48  1  0  0  0  0
 45 54  1  0  0  0  0
 46 49  1  0  0  0  0
 46 54  1  0  0  0  0
 47 68  1  0  0  0  0
 48 69  1  0  0  0  0
 49 69  1  0  0  0  0
 50 53  1  0  0  0  0
 50 68  1  0  0  0  0
 51 73  1  0  0  0  0
 52 67  1  0  0  0  0
 53 66  1  0  0  0  0
 54 72  1  0  0  0  0
 55 62  1  0  0  0  0
 56 63  1  0  0  0  0
 57 63  1  0  0  0  0
 58 63  1  0  0  0  0
 59 75  1  0  0  0  0
 60 82  1  0  0  0  0
 61 63  1  0  0  0  0
 61 74  1  0  0  0  0
 62 75  1  0  0  0  0
 65 66  1  0  0  0  0
M  CHG  1  75   1
M  ISO  4  37 100  60 101  69 100  82 101
M  END
> <Batch ID>
0160

> <Smiles>
CNC(C)C(=O)NC(C(=O)N1Cc2cc([101O:1][101CH2:1]c3cc(NC4CC[100N:0]([100C:0](=O)N5CCCC(n6nc(-c7ccc(Oc8ccc(F)cc8F)cc7)c(C(N)=O)c6N)C5)CC4)ncc3Cl)ccc2CC1C(=O)NC1CCCc2ccccc21)C(C)(C)C

> <Shape>
0.300

> <Color>
0.104

> <Negative vol penalty>
0.000

$$$$

  -OEChem-04052322093D

 90 99  0     1  0  0  0  0  0999 V2000
  -28.0521  -26.1046   13.1167 C   0  0  0  0  0  0  0  0  0  0  0  0
  -27.2016  -25.6975   14.1396 C   0  0  0  0  0  0  0  0  0  0  0  0
  -26.2853  -15.7121   21.8239 C   0  0  0  0  0  0  0  0  0  0  0  0
  -25.8154  -15.7758   19.4549 C   0  0  0  0  0  0  0  0  0  0  0  0
  -29.2810  -26.6871   13.4238 C   0  0  0  0  0  0  0  0  0  0  0  0
  -27.5801  -25.8718   15.4703 C   0  0  0  0  0  0  0  0  0  0  0  0
  -23.8337  -27.7260   18.3288 C   0  0  0  0  0  0  0  0  0  0  0  0
  -25.6948  -14.4512   21.9072 C   0  0  0  0  0  0  0  0  0  0  0  0
  -25.2250  -14.5148   19.5381 C   0  0  0  0  0  0  0  0  0  0  0  0
  -22.8418  -26.8344   18.7352 C   0  0  0  0  0  0  0  0  0  0  0  0
  -24.6337  -11.0602   22.6754 C   0  0  0  0  0  0  0  0  0  0  0  0
  -25.3009  -10.0788   23.4084 C   0  0  0  0  0  0  0  0  0  0  0  0
  -23.9006  -26.6504   20.8949 C   0  0  0  0  0  0  0  0  0  0  0  0
  -27.2048  -10.2715   21.9335 C   0  0  0  0  0  0  0  0  0  0  0  0
  -26.3456  -16.3745   20.5977 C   0  0  0  0  0  0  0  0  0  0  0  0
  -28.3075  -17.9675   20.2505 C   0  0  0  0  0  0  0  0  0  0  0  0
  -29.6706  -26.8774   14.7589 C   0  0  0  0  0  0  0  0  0  0  0  0
  -24.8742  -28.0786   19.2002 C   0  0  0  0  0  0  0  0  0  0  0  0
  -28.8160  -26.4562   15.7956 C   0  0  0  0  0  0  0  0  0  0  0  0
  -24.9030  -27.5487   20.4981 C   0  0  0  0  0  0  0  0  0  0  0  0
  -19.7854  -19.4212   21.8967 C   0  0  0  0  0  0  0  0  0  0  0  0
  -18.8957  -18.3605   22.0668 C   0  0  0  0  0  0  0  0  0  0  0  0
  -19.3813  -17.0702   22.2788 C   0  0  0  0  0  0  0  0  0  0  0  0
  -20.7565  -16.8405   22.3206 C   0  0  0  0  0  0  0  0  0  0  0  0
  -21.6462  -17.9013   22.1504 C   0  0  0  0  0  0  0  0  0  0  0  0
  -21.1607  -19.1916   21.9385 C   0  0  0  0  0  0  0  0  0  0  0  0
  -25.1647  -13.8525   20.7643 C   0  0  0  0  0  0  0  0  0  0  0  0
  -22.8768  -26.2943   20.0175 C   0  0  0  0  0  0  0  0  0  0  0  0
  -25.2520  -11.6472   21.5714 C   0  0  0  0  0  0  0  0  0  0  0  0
  -26.5864   -9.6845   23.0375 C   0  0  0  0  0  0  0  0  0  0  0  0
  -26.5375  -11.2529   21.2004 C   0  0  0  0  0  0  0  0  0  0  0  0
  -26.9549  -17.6773   20.5112 C   0  0  0  0  0  0  0  0  0  0  0  0
  -28.3750  -19.3391   20.2731 C   0  0  0  0  0  0  0  0  0  0  0  0
  -29.4049  -17.0768   20.0093 C   0  0  0  0  0  0  0  0  0  0  0  0
  -28.0358  -27.7519   19.1668 C   0  0  0  0  0  0  0  0  0  0  0  0
  -27.8606  -29.5583   21.8554 C   0  0  0  0  0  0  0  0  0  0  0  0
  -26.0034  -30.6278   24.5113 C   0  0  0  0  0  0  0  0  0  0  0  0
  -23.0331  -20.4071   20.7722 C   0  0  0  0  0  0  0  0  0  0  0  0
  -31.0291  -27.4684   15.0416 C   0  0  0  0  0  0  0  0  0  0  0  0
  -25.9217  -29.0623   18.7557 C   0  0  0  0  0  0  0  0  0  0  0  0
  -25.9873  -27.9108   21.4787 C   0  0  0  0  0  0  0  0  0  0  0  0
  -31.1929  -27.9595   16.4777 C   0  0  0  0  0  0  0  0  0  0  0  0
  -25.7281  -21.4104   23.0581 C   0  0  0  0  0  0  0  0  0  0  0  0
  -30.6763  -26.9144   17.4614 C   0  0  0  0  0  0  0  0  0  0  0  0
  -26.8561  -21.7610   22.0892 C   0  0  0  0  0  0  0  0  0  0  0  0
  -19.7238  -21.2858   20.2840 C   0  0  0  0  0  0  0  0  0  0  0  0
  -24.3705  -21.7815   22.4761 C   0  0  0  0  0  0  0  0  0  0  0  0
  -25.1969  -21.4626   20.1672 C   0  0  0  0  0  0  0  0  0  0  0  0
  -19.2967  -22.7188   20.0062 C   0  0  0  0  0  0  0  0  0  0  0  0
  -19.3101  -23.2208   22.4560 C   0  0  0  0  0  0  0  0  0  0  0  0
  -19.2599  -20.8054   21.6716 C   0  0  2  0  0  0  0  0  0  0  0  0
  -29.1803  -26.6509   17.2514 C   0  0  1  0  0  0  0  0  0  0  0  0
  -27.2193  -28.9534   19.5506 C   0  0  1  0  0  0  0  0  0  0  0  0
  -19.7329  -21.7819   22.7800 C   0  0  2  0  0  0  0  0  0  0  0  0
  -26.6341  -21.2116   20.6680 C   0  0  2  0  0  0  0  0  0  0  0  0
  -17.4205  -18.6069   22.0245 C   0  0  0  0  0  0  0  0  0  0  0  0
  -18.4270  -15.9320   22.4604 C   0  0  0  0  0  0  0  0  0  0  0  0
  -21.2769  -15.4562   22.5482 C   0  0  0  0  0  0  0  0  0  0  0  0
  -23.1212  -17.6500   22.1967 C   0  0  0  0  0  0  0  0  0  0  0  0
  -19.1760  -21.3966   24.1554 C   0  0  0  0  0  0  0  0  0  0  0  0
  -26.1440  -32.0700   26.5601 C   0  0  0  0  0  0  0  0  0  0  0  0
  -29.4809  -27.3918   23.2663 C   0  0  0  0  0  0  0  0  0  0  0  0
  -28.7827  -28.3913   25.4530 C   0  0  0  0  0  0  0  0  0  0  0  0
  -30.1409  -29.7330   23.8474 C   0  0  0  0  0  0  0  0  0  0  0  0
  -23.8471  -32.4105   23.5460 C   0  0  0  0  0  0  0  0  0  0  0  0
  -19.5634  -25.0648   20.7986 C   0  0  0  0  0  0  0  0  0  0  0  0
  -20.6158  -25.5793   19.8365 C   0  0  0  0  0  0  0  0  0  1  0  0
  -27.7100  -29.2695   23.3295 C   0  0  1  0  0  0  0  0  0  0  0  0
  -25.7729  -32.0137   25.0864 C   0  0  2  0  0  0  0  0  0  0  0  0
  -29.0092  -28.6878   23.9552 C   0  0  0  0  0  0  0  0  0  0  0  0
  -26.2163  -18.7762   20.6867 N   0  0  0  0  0  0  0  0  0  0  0  0
  -27.1080  -19.7703   20.5360 N   0  0  0  0  0  0  0  0  0  0  0  0
  -26.9923  -28.8718   20.9949 N   0  0  0  0  0  0  0  0  0  0  0  0
  -24.1712  -21.1473   21.1660 N   0  0  0  0  0  0  0  0  0  0  0  0
  -29.3938  -20.2064   20.0936 N   0  0  0  0  0  0  0  0  0  0  0  0
  -29.1605  -15.6968   20.0215 N   0  0  0  0  0  0  0  0  0  0  0  0
  -22.0643  -20.2691   21.7656 N   0  0  0  0  0  0  0  0  0  0  0  0
  -28.3929  -27.7172   17.8324 N   0  0  0  0  0  0  0  0  0  0  0  0
  -27.2549  -30.5117   23.9444 N   0  0  0  0  0  0  0  0  0  0  0  0
  -19.8252  -23.6330   21.0915 N   0  3  2  0  0  0  0  0  0  0  0  0
  -24.3404  -32.4006   24.9473 N   0  3  0  0  0  0  0  0  0  0  0  0
  -30.5710  -17.4920   19.8059 O   0  0  0  0  0  0  0  0  0  0  0  0
  -28.3220  -26.9187   20.0187 O   0  0  0  0  0  0  0  0  0  0  0  0
  -28.7123  -30.3686   21.4818 O   0  0  0  0  0  0  0  0  0  0  0  0
  -25.1590  -29.7362   24.5632 O   0  0  0  0  0  0  0  0  0  0  0  0
  -22.9419  -19.9042   19.6494 O   0  0  0  0  0  0  0  0  0  0  0  0
  -24.5886  -12.6220   20.8452 O   0  0  0  0  0  0  0  0  0  0  0  0
  -21.9103  -25.4233   20.4164 O   0  0  0  0  0  0  0  0  0  1  0  0
  -27.2276   -8.7431   23.7424 F   0  0  0  0  0  0  0  0  0  0  0  0
  -27.1371  -11.8141   20.1415 F   0  0  0  0  0  0  0  0  0  0  0  0
  1  2  1  0  0  0  0
  1  5  2  0  0  0  0
  2  6  2  0  0  0  0
  3  8  2  0  0  0  0
  3 15  1  0  0  0  0
  4  9  1  0  0  0  0
  4 15  2  0  0  0  0
  5 17  1  0  0  0  0
  6 19  1  0  0  0  0
  7 10  2  0  0  0  0
  7 18  1  0  0  0  0
  8 27  1  0  0  0  0
  9 27  2  0  0  0  0
 10 28  1  0  0  0  0
 11 12  2  0  0  0  0
 11 29  1  0  0  0  0
 12 30  1  0  0  0  0
 13 20  1  0  0  0  0
 13 28  2  0  0  0  0
 14 30  2  0  0  0  0
 14 31  1  0  0  0  0
 15 32  1  0  0  0  0
 16 32  1  0  0  0  0
 16 33  2  0  0  0  0
 16 34  1  0  0  0  0
 17 19  2  0  0  0  0
 17 39  1  0  0  0  0
 18 20  2  0  0  0  0
 18 40  1  0  0  0  0
 19 52  1  0  0  0  0
 20 41  1  0  0  0  0
 21 22  1  0  0  0  0
 21 26  2  0  0  0  0
 21 51  1  0  0  0  0
 22 23  2  0  0  0  0
 22 56  1  0  0  0  0
 23 24  1  0  0  0  0
 23 57  1  0  0  0  0
 24 25  2  0  0  0  0
 24 58  1  0  0  0  0
 25 26  1  0  0  0  0
 25 59  1  0  0  0  0
 26 77  1  0  0  0  0
 27 87  1  0  0  0  0
 28 88  1  0  0  0  0
 29 31  2  0  0  0  0
 29 87  1  0  0  0  0
 30 89  1  0  0  0  0
 31 90  1  0  0  0  0
 32 71  2  0  0  0  0
 33 72  1  0  0  0  0
 33 75  1  0  0  0  0
 34 76  1  0  0  0  0
 34 82  2  0  0  0  0
 35 53  1  0  0  0  0
 35 78  1  0  0  0  0
 35 83  2  0  0  0  0
 36 68  1  0  0  0  0
 36 73  1  0  0  0  0
 36 84  2  0  0  0  0
 37 69  1  0  0  0  0
 37 79  1  0  0  0  0
 37 85  2  0  0  0  0
 38 74  1  0  0  0  0
 38 77  1  0  0  0  0
 38 86  2  0  0  0  0
 39 42  1  0  0  0  0
 40 53  1  0  0  0  0
 41 73  1  0  0  0  0
 42 44  1  0  0  0  0
 43 45  1  0  0  0  0
 43 47  1  0  0  0  0
 44 52  1  0  0  0  0
 45 55  1  0  0  0  0
 46 49  1  0  0  0  0
 46 51  1  0  0  0  0
 47 74  1  0  0  0  0
 48 55  1  0  0  0  0
 48 74  1  0  0  0  0
 49 80  1  0  0  0  0
 50 54  1  0  0  0  0
 50 80  1  0  0  0  0
 51 54  1  0  0  0  0
 52 78  1  0  0  0  0
 53 73  1  0  0  0  0
 54 60  1  0  0  0  0
 55 72  1  0  0  0  0
 61 69  1  0  0  0  0
 62 70  1  0  0  0  0
 63 70  1  0  0  0  0
 64 70  1  0  0  0  0
 65 81  1  0  0  0  0
 66 67  1  0  0  0  0
 66 80  1  0  0  0  0
 67 88  1  0  0  0  0
 68 70  1  0  0  0  0
 68 79  1  0  0  0  0
 69 81  1  0  0  0  0
 71 72  1  0  0  0  0
M  CHG  2  80   1  81   1
M  ISO  4  38 100  67 101  77 100  88 101
M  END
> <Batch ID>
0160

> <Smiles>
CNC(C)C(=O)NC(C(=O)N1Cc2cc([101O:1][101CH2:1]CN3CCC(c4c(C)c(C)c(C)c(C)c4[100NH:0][100C:0](=O)N4CCCC(n5nc(-c6ccc(Oc7ccc(F)cc7F)cc6)c(C(N)=O)c5N)C4)C(C)C3)ccc2CC1C(=O)NC1CCCc2ccccc21)C(C)(C)C

> <Shape>
0.174

> <Color>
0.072

> <Negative vol penalty>
0.000

$$$$

  -OEChem-04052322093D

 88 98  0     1  0  0  0  0  0999 V2000
  -14.9135  -27.3614   23.2794 C   0  0  0  0  0  0  0  0  0  0  0  0
  -15.7159  -26.3936   22.6837 C   0  0  0  0  0  0  0  0  0  0  0  0
  -30.7874  -19.9725   19.5995 C   0  0  0  0  0  0  0  0  0  0  0  0
  -28.5428  -19.5247   20.3732 C   0  0  0  0  0  0  0  0  0  0  0  0
  -15.4700  -28.5740   23.6842 C   0  0  0  0  0  0  0  0  0  0  0  0
  -17.0752  -26.6383   22.4914 C   0  0  0  0  0  0  0  0  0  0  0  0
  -19.9644  -22.6920   23.8044 C   0  0  0  0  0  0  0  0  0  0  0  0
  -30.3894  -21.2417   19.1794 C   0  0  0  0  0  0  0  0  0  0  0  0
  -28.1449  -20.7939   19.9532 C   0  0  0  0  0  0  0  0  0  0  0  0
  -20.0361  -21.6284   22.9058 C   0  0  0  0  0  0  0  0  0  0  0  0
  -29.7906  -24.2573   20.5866 C   0  0  0  0  0  0  0  0  0  0  0  0
  -30.6217  -25.3334   20.8980 C   0  0  0  0  0  0  0  0  0  0  0  0
  -22.4466  -15.3268   20.9754 C   0  0  0  0  0  0  0  0  0  0  0  0
  -21.8858  -13.3172   22.1935 C   0  0  0  0  0  0  0  0  0  0  0  0
  -22.1620  -22.4487   22.1140 C   0  0  0  0  0  0  0  0  0  0  0  0
  -30.8822  -25.8131   18.5445 C   0  0  0  0  0  0  0  0  0  0  0  0
  -29.8641  -19.1140   20.1964 C   0  0  0  0  0  0  0  0  0  0  0  0
  -31.2670  -17.4930   21.5790 C   0  0  0  0  0  0  0  0  0  0  0  0
  -16.8386  -28.8299   23.5055 C   0  0  0  0  0  0  0  0  0  0  0  0
  -20.9875  -23.6495   23.8571 C   0  0  0  0  0  0  0  0  0  0  0  0
  -17.6502  -27.8560   22.8930 C   0  0  0  0  0  0  0  0  0  0  0  0
  -22.6895  -13.9852   21.2696 C   0  0  0  0  0  0  0  0  0  0  0  0
  -21.4001  -16.0005   21.6051 C   0  0  0  0  0  0  0  0  0  0  0  0
  -22.1021  -23.5220   23.0160 C   0  0  0  0  0  0  0  0  0  0  0  0
  -20.5963  -15.3326   22.5289 C   0  0  0  0  0  0  0  0  0  0  0  0
  -29.0682  -21.6524   19.3563 C   0  0  0  0  0  0  0  0  0  0  0  0
  -21.1337  -21.5083   22.0584 C   0  0  0  0  0  0  0  0  0  0  0  0
  -29.5054  -23.9590   19.2542 C   0  0  0  0  0  0  0  0  0  0  0  0
  -20.8392  -13.9909   22.8231 C   0  0  0  0  0  0  0  0  0  0  0  0
  -31.1675  -26.1113   19.8769 C   0  0  0  0  0  0  0  0  0  0  0  0
  -30.0512  -24.7370   18.2331 C   0  0  0  0  0  0  0  0  0  0  0  0
  -30.2744  -17.8026   20.6300 C   0  0  0  0  0  0  0  0  0  0  0  0
  -31.2738  -16.1206   21.6335 C   0  0  0  0  0  0  0  0  0  0  0  0
  -32.1077  -18.3678   22.3431 C   0  0  0  0  0  0  0  0  0  0  0  0
  -21.1567  -26.7819   23.3439 C   0  0  0  0  0  0  0  0  0  0  0  0
  -24.1927  -26.4003   24.4207 C   0  0  0  0  0  0  0  0  0  0  0  0
  -26.8555  -24.3211   24.9041 C   0  0  0  0  0  0  0  0  0  0  0  0
  -26.9986  -12.0540   20.2383 C   0  0  0  0  0  0  0  0  0  0  0  0
  -17.3855  -30.1742   23.9162 C   0  0  0  0  0  0  0  0  0  0  0  0
  -20.9079  -24.7760   24.8506 C   0  0  0  0  0  0  0  0  0  0  0  0
  -23.2367  -24.5120   23.0474 C   0  0  0  0  0  0  0  0  0  0  0  0
  -18.9083  -30.2072   24.0172 C   0  0  0  0  0  0  0  0  0  0  0  0
  -30.3713  -12.2506   19.0056 C   0  0  0  0  0  0  0  0  0  0  0  0
  -21.5537  -17.8528   19.8316 C   0  0  0  0  0  0  0  0  0  0  0  0
  -19.5388  -29.5498   22.7936 C   0  0  0  0  0  0  0  0  0  0  0  0
  -30.8028  -13.6805   19.3138 C   0  0  0  0  0  0  0  0  0  0  0  0
  -22.6336  -18.9234   19.9765 C   0  0  0  0  0  0  0  0  0  0  0  0
  -21.9315  -18.4131   22.1975 C   0  0  0  0  0  0  0  0  0  0  0  0
  -28.8895  -12.1922   18.6592 C   0  0  0  0  0  0  0  0  0  0  0  0
  -25.2100  -13.9664   20.2983 C   0  0  0  0  0  0  0  0  0  0  0  0
  -24.7140  -12.2044   21.3675 C   0  0  0  0  0  0  0  0  0  0  0  0
  -28.4269  -14.1661   20.0887 C   0  0  0  0  0  0  0  0  0  0  0  0
  -23.8785  -13.2192   20.5536 C   0  0  0  0  0  0  0  0  0  0  0  0
  -21.1580  -17.4550   21.2687 C   0  0  2  0  0  0  0  0  0  0  0  0
  -19.1338  -28.0745   22.6898 C   0  0  1  0  0  0  0  0  0  0  0  0
  -21.7617  -25.9785   24.4603 C   0  0  1  0  0  0  0  0  0  0  0  0
  -29.9272  -14.2781   20.4246 C   0  0  2  0  0  0  0  0  0  0  0  0
  -22.3177  -19.5870   21.3081 C   0  0  2  0  0  0  0  0  0  1  0  0
  -19.4734  -16.0503   23.2077 C   0  0  0  0  0  0  0  0  0  0  0  0
  -29.2107  -24.3054   25.7702 C   0  0  0  0  0  0  0  0  0  0  0  0
  -25.1383  -27.7773   21.8674 C   0  0  0  0  0  0  0  0  0  0  0  0
  -27.4363  -26.8959   22.3260 C   0  0  0  0  0  0  0  0  0  0  0  0
  -26.3600  -28.4662   23.9380 C   0  0  0  0  0  0  0  0  0  0  0  0
  -26.1913  -22.3499   27.0093 C   0  0  0  0  0  0  0  0  0  0  0  0
  -20.3858  -11.9531   23.9624 C   0  0  0  0  0  0  0  0  0  0  0  0
  -25.5228  -26.0859   23.7797 C   0  0  1  0  0  0  0  0  0  0  0  0
  -27.7449  -24.0877   26.1119 C   0  0  2  0  0  0  0  0  0  0  0  0
  -26.0922  -27.2886   22.9756 C   0  0  0  0  0  0  0  0  0  0  0  0
  -29.6930  -16.7145   20.1183 N   0  0  0  0  0  0  0  0  0  0  0  0
  -30.3222  -15.7077   20.7480 N   0  0  0  0  0  0  0  0  0  0  0  0
  -23.1096  -25.5994   24.0318 N   0  0  0  0  0  0  0  0  0  0  0  0
  -28.0548  -12.7983   19.7010 N   0  0  0  0  0  0  0  0  0  0  0  0
  -25.8770  -12.7276   20.6612 N   0  0  0  0  0  0  0  0  0  0  0  0
  -32.0010  -15.2389   22.3519 N   0  0  0  0  0  0  0  0  0  0  0  0
  -31.9700  -19.7511   22.1647 N   0  0  0  0  0  0  0  0  0  0  0  0
  -19.8963  -27.2741   23.6239 N   0  0  0  0  0  0  0  0  0  0  0  0
  -26.3933  -25.6192   24.8535 N   0  0  0  0  0  0  0  0  0  0  0  0
  -27.5814  -22.6940   26.6140 N   0  3  0  0  0  0  0  0  0  0  0  0
  -32.9672  -17.9351   23.1478 O   0  0  0  0  0  0  0  0  0  0  0  0
  -21.7875  -26.9444   22.3059 O   0  0  0  0  0  0  0  0  0  0  0  0
  -24.1190  -27.3179   25.2418 O   0  0  0  0  0  0  0  0  0  0  0  0
  -26.5996  -23.4411   24.0853 O   0  0  0  0  0  0  0  0  0  0  0  0
  -27.0412  -10.8187   20.3119 O   0  0  0  0  0  0  0  0  0  0  0  0
  -28.6795  -22.8908   18.9467 O   0  0  0  0  0  0  0  0  0  0  0  0
  -21.2064  -20.4644   21.1738 O   0  0  0  0  0  0  0  0  0  1  0  0
  -20.0653  -13.3221   23.7233 O   0  0  0  0  0  0  0  0  0  0  0  0
  -31.9643  -27.1456   20.1762 F   0  0  0  0  0  0  0  0  0  0  0  0
  -29.7799  -24.4560   16.9512 F   0  0  0  0  0  0  0  0  0  0  0  0
  1  2  1  0  0  0  0
  1  5  2  0  0  0  0
  2  6  2  0  0  0  0
  3  8  2  0  0  0  0
  3 17  1  0  0  0  0
  4  9  1  0  0  0  0
  4 17  2  0  0  0  0
  5 19  1  0  0  0  0
  6 21  1  0  0  0  0
  7 10  2  0  0  0  0
  7 20  1  0  0  0  0
  8 26  1  0  0  0  0
  9 26  2  0  0  0  0
 10 27  1  0  0  0  0
 11 12  2  0  0  0  0
 11 28  1  0  0  0  0
 12 30  1  0  0  0  0
 13 22  2  0  0  0  0
 13 23  1  0  0  0  0
 14 22  1  0  0  0  0
 14 29  2  0  0  0  0
 15 24  1  0  0  0  0
 15 27  2  0  0  0  0
 16 30  2  0  0  0  0
 16 31  1  0  0  0  0
 17 32  1  0  0  0  0
 18 32  1  0  0  0  0
 18 33  2  0  0  0  0
 18 34  1  0  0  0  0
 19 21  2  0  0  0  0
 19 39  1  0  0  0  0
 20 24  2  0  0  0  0
 20 40  1  0  0  0  0
 21 55  1  0  0  0  0
 22 53  1  0  0  0  0
 23 25  2  0  0  0  0
 23 54  1  0  0  0  0
 24 41  1  0  0  0  0
 25 29  1  0  0  0  0
 25 59  1  0  0  0  0
 26 84  1  0  0  0  0
 27 85  1  0  0  0  0
 28 31  2  0  0  0  0
 28 84  1  0  0  0  0
 29 86  1  0  0  0  0
 30 87  1  0  0  0  0
 31 88  1  0  0  0  0
 32 69  2  0  0  0  0
 33 70  1  0  0  0  0
 33 74  1  0  0  0  0
 34 75  1  0  0  0  0
 34 79  2  0  0  0  0
 35 56  1  0  0  0  0
 35 76  1  0  0  0  0
 35 80  2  0  0  0  0
 36 66  1  0  0  0  0
 36 71  1  0  0  0  0
 36 81  2  0  0  0  0
 37 67  1  0  0  0  0
 37 77  1  0  0  0  0
 37 82  2  0  0  0  0
 38 72  1  0  0  0  0
 38 73  1  0  0  0  0
 38 83  2  0  0  0  0
 39 42  1  0  0  0  0
 40 56  1  0  0  0  0
 41 71  1  0  0  0  0
 42 45  1  0  0  0  0
 43 46  1  0  0  0  0
 43 49  1  0  0  0  0
 44 47  1  0  0  0  0
 44 54  1  0  0  0  0
 45 55  1  0  0  0  0
 46 57  1  0  0  0  0
 47 58  1  0  0  0  0
 48 54  1  0  0  0  0
 48 58  1  0  0  0  0
 49 72  1  0  0  0  0
 50 53  1  0  0  0  0
 50 73  1  0  0  0  0
 51 53  1  0  0  0  0
 51 73  1  0  0  0  0
 52 57  1  0  0  0  0
 52 72  1  0  0  0  0
 55 76  1  0  0  0  0
 56 71  1  0  0  0  0
 57 70  1  0  0  0  0
 58 85  1  0  0  0  0
 60 67  1  0  0  0  0
 61 68  1  0  0  0  0
 62 68  1  0  0  0  0
 63 68  1  0  0  0  0
 64 78  1  0  0  0  0
 65 86  1  0  0  0  0
 66 68  1  0  0  0  0
 66 77  1  0  0  0  0
 67 78  1  0  0  0  0
 69 70  1  0  0  0  0
M  CHG  1  78   1
M  ISO  4  38 100  58 101  73 100  85 101
M  END
> <Batch ID>
0160

> <Smiles>
CNC(C)C(=O)NC(C(=O)N1Cc2cc([101O:1][101CH:1]3CCC(c4cc(C5C[100N:0]([100C:0](=O)N6CCCC(n7nc(-c8ccc(Oc9ccc(F)cc9F)cc8)c(C(N)=O)c7N)C6)C5)cc(OC)c4C)C3)ccc2CC1C(=O)NC1CCCc2ccccc21)C(C)(C)C

> <Shape>
0.255

> <Color>
0.067

> <Negative vol penalty>
0.000

$$$$

  -OEChem-04052322093D

 83 92  0     1  0  0  0  0  0999 V2000
  -25.7754  -38.6172   22.1874 C   0  0  0  0  0  0  0  0  0  0  0  0
  -26.4268  -37.7092   21.3588 C   0  0  0  0  0  0  0  0  0  0  0  0
  -24.3477  -12.9606   19.9020 C   0  0  0  0  0  0  0  0  0  0  0  0
  -25.7738  -13.0700   21.8491 C   0  0  0  0  0  0  0  0  0  0  0  0
  -25.2020  -38.1824   23.3816 C   0  0  0  0  0  0  0  0  0  0  0  0
  -26.5061  -36.3659   21.7245 C   0  0  0  0  0  0  0  0  0  0  0  0
  -26.6350  -29.7995   18.8641 C   0  0  0  0  0  0  0  0  0  0  0  0
  -24.3627  -11.5675   19.9692 C   0  0  0  0  0  0  0  0  0  0  0  0
  -25.7888  -11.6769   21.9164 C   0  0  0  0  0  0  0  0  0  0  0  0
  -27.3896  -28.6275   18.8912 C   0  0  0  0  0  0  0  0  0  0  0  0
  -22.8443   -9.1442   21.7734 C   0  0  0  0  0  0  0  0  0  0  0  0
  -21.6306   -8.4746   21.6183 C   0  0  0  0  0  0  0  0  0  0  0  0
  -26.2935  -27.9761   20.9389 C   0  0  0  0  0  0  0  0  0  0  0  0
  -30.5602  -24.8912   20.0515 C   0  0  0  0  0  0  0  0  0  0  0  0
  -22.5148   -7.3188   19.6897 C   0  0  0  0  0  0  0  0  0  0  0  0
  -29.2384  -23.9496   18.3129 C   0  0  0  0  0  0  0  0  0  0  0  0
  -25.0533  -13.7119   20.8419 C   0  0  0  0  0  0  0  0  0  0  0  0
  -24.1241  -16.0227   21.3936 C   0  0  0  0  0  0  0  0  0  0  0  0
  -25.2660  -36.8313   23.7575 C   0  0  0  0  0  0  0  0  0  0  0  0
  -25.7102  -30.0742   19.8818 C   0  0  0  0  0  0  0  0  0  0  0  0
  -25.9343  -35.9128   22.9255 C   0  0  0  0  0  0  0  0  0  0  0  0
  -25.5265  -29.1510   20.9211 C   0  0  0  0  0  0  0  0  0  0  0  0
  -29.5706  -25.0492   19.0877 C   0  0  0  0  0  0  0  0  0  0  0  0
  -31.1787  -23.6559   20.2089 C   0  0  0  0  0  0  0  0  0  0  0  0
  -25.0832  -10.9256   20.9765 C   0  0  0  0  0  0  0  0  0  0  0  0
  -27.2211  -27.7170   19.9302 C   0  0  0  0  0  0  0  0  0  0  0  0
  -23.8933   -8.9012   20.8867 C   0  0  0  0  0  0  0  0  0  0  0  0
  -21.4658   -7.5619   20.5764 C   0  0  0  0  0  0  0  0  0  0  0  0
  -23.7286   -7.9884   19.8449 C   0  0  0  0  0  0  0  0  0  0  0  0
  -25.0386  -15.1510   20.7726 C   0  0  0  0  0  0  0  0  0  0  0  0
  -30.7744  -22.6186   19.3840 C   0  0  0  0  0  0  0  0  0  0  0  0
  -24.5387  -17.2779   21.0205 C   0  0  0  0  0  0  0  0  0  0  0  0
  -23.0005  -15.7245   22.2328 C   0  0  0  0  0  0  0  0  0  0  0  0
  -25.3938  -32.3595   22.0683 C   0  0  0  0  0  0  0  0  0  0  0  0
  -22.5824  -30.8566   22.6679 C   0  0  0  0  0  0  0  0  0  0  0  0
  -20.7403  -27.9878   22.5140 C   0  0  0  0  0  0  0  0  0  0  0  0
  -29.6776  -19.5085   19.5295 C   0  0  0  0  0  0  0  0  0  0  0  0
  -24.6724  -36.4170   25.0806 C   0  0  0  0  0  0  0  0  0  0  0  0
  -24.8847  -31.3302   19.8239 C   0  0  0  0  0  0  0  0  0  0  0  0
  -24.5321  -29.3893   22.0270 C   0  0  0  0  0  0  0  0  0  0  0  0
  -24.4750  -34.9092   25.2142 C   0  0  0  0  0  0  0  0  0  0  0  0
  -26.7870  -19.5974   17.5025 C   0  0  0  0  0  0  0  0  0  0  0  0
  -25.7243  -34.1645   24.7544 C   0  0  0  0  0  0  0  0  0  0  0  0
  -25.9153  -18.5359   18.1720 C   0  0  0  0  0  0  0  0  0  0  0  0
  -32.4183  -19.0777   17.3446 C   0  0  0  0  0  0  0  0  0  0  0  0
  -31.1012  -18.4365   17.0238 C   0  0  0  0  0  0  0  0  0  0  0  0
  -28.2588  -19.1830   17.4505 C   0  0  0  0  0  0  0  0  0  0  0  0
  -27.9475  -17.7393   19.4358 C   0  0  0  0  0  0  0  0  0  0  0  0
  -26.0198  -34.4431   23.2757 C   0  0  1  0  0  0  0  0  0  0  0  0
  -24.3409  -31.7511   21.1857 C   0  0  1  0  0  0  0  0  0  0  0  0
  -26.4738  -18.1573   19.5546 C   0  0  2  0  0  0  0  0  0  0  0  0
  -31.1447  -19.8632   17.4981 C   0  0  0  0  0  0  0  0  0  0  0  0
  -32.2411  -23.4802   21.2384 C   0  0  0  0  0  0  0  0  0  0  0  0
  -18.4889  -27.0577   23.1169 C   0  0  0  0  0  0  0  0  0  0  0  0
  -23.4315  -30.7049   25.5947 C   0  0  0  0  0  0  0  0  0  0  0  0
  -21.6529  -28.9789   25.9489 C   0  0  0  0  0  0  0  0  0  0  0  0
  -21.0257  -31.2854   25.2352 C   0  0  0  0  0  0  0  0  0  0  0  0
  -20.1057  -27.3800   19.6879 C   0  0  0  0  0  0  0  0  0  0  0  0
  -28.8832  -26.3687   18.8932 C   0  0  0  0  0  0  0  0  0  1  0  0
  -31.4032  -21.2693   19.5087 C   0  0  0  0  0  0  0  0  0  0  0  0
  -22.1422  -29.7359   23.5786 C   0  0  1  0  0  0  0  0  0  0  0  0
  -19.3241  -27.7246   22.0350 C   0  0  2  0  0  0  0  0  0  0  0  0
  -22.0833  -30.1724   25.0697 C   0  0  0  0  0  0  0  0  0  0  0  0
  -29.8169  -22.7340   18.4367 N   0  0  0  0  0  0  0  0  0  0  0  0
  -25.9642  -15.7976   20.0590 N   0  0  0  0  0  0  0  0  0  0  0  0
  -25.6334  -17.0890   20.2292 N   0  0  0  0  0  0  0  0  0  0  0  0
  -23.7533  -30.6349   21.9293 N   0  0  0  0  0  0  0  0  0  0  0  0
  -28.7379  -18.7845   18.7810 N   0  0  0  0  0  0  0  0  0  0  0  0
  -24.0699  -18.5136   21.2953 N   0  0  0  0  0  0  0  0  0  0  0  0
  -22.7157  -14.3817   22.5159 N   0  0  0  0  0  0  0  0  0  0  0  0
  -25.1376  -33.6685   22.4293 N   0  0  0  0  0  0  0  0  0  0  0  0
  -20.8725  -29.2527   23.0468 N   0  0  0  0  0  0  0  0  0  0  0  0
  -30.6404  -20.2394   18.8174 N   0  0  0  0  0  0  0  0  0  0  0  0
  -19.3386  -26.8367   20.8382 N   0  3  0  0  0  0  0  0  0  0  0  0
  -22.2608  -16.6215   22.7038 O   0  0  0  0  0  0  0  0  0  0  0  0
  -26.3658  -31.6904   22.3985 O   0  0  0  0  0  0  0  0  0  0  0  0
  -21.9081  -31.8879   22.6086 O   0  0  0  0  0  0  0  0  0  0  0  0
  -21.6385  -27.1534   22.4277 O   0  0  0  0  0  0  0  0  0  0  0  0
  -29.6633  -19.4970   20.7672 O   0  0  0  0  0  0  0  0  0  0  0  0
  -25.0979   -9.5662   21.0426 O   0  0  0  0  0  0  0  0  0  0  0  0
  -27.9569  -26.5726   19.9594 O   0  0  0  0  0  0  0  0  0  1  0  0
  -20.3008   -6.9178   20.4285 F   0  0  0  0  0  0  0  0  0  0  0  0
  -24.7331   -7.7499   18.9906 F   0  0  0  0  0  0  0  0  0  0  0  0
  1  2  1  0  0  0  0
  1  5  2  0  0  0  0
  2  6  2  0  0  0  0
  3  8  2  0  0  0  0
  3 17  1  0  0  0  0
  4  9  1  0  0  0  0
  4 17  2  0  0  0  0
  5 19  1  0  0  0  0
  6 21  1  0  0  0  0
  7 10  2  0  0  0  0
  7 20  1  0  0  0  0
  8 25  1  0  0  0  0
  9 25  2  0  0  0  0
 10 26  1  0  0  0  0
 11 12  2  0  0  0  0
 11 27  1  0  0  0  0
 12 28  1  0  0  0  0
 13 22  1  0  0  0  0
 13 26  2  0  0  0  0
 14 23  2  0  0  0  0
 14 24  1  0  0  0  0
 15 28  2  0  0  0  0
 15 29  1  0  0  0  0
 16 23  1  0  0  0  0
 16 64  2  0  0  0  0
 17 30  1  0  0  0  0
 18 30  1  0  0  0  0
 18 32  2  0  0  0  0
 18 33  1  0  0  0  0
 19 21  2  0  0  0  0
 19 38  1  0  0  0  0
 20 22  2  0  0  0  0
 20 39  1  0  0  0  0
 21 49  1  0  0  0  0
 22 40  1  0  0  0  0
 23 59  1  0  0  0  0
 24 31  2  0  0  0  0
 24 53  1  0  0  0  0
 25 80  1  0  0  0  0
 26 81  1  0  0  0  0
 27 29  2  0  0  0  0
 27 80  1  0  0  0  0
 28 82  1  0  0  0  0
 29 83  1  0  0  0  0
 30 65  2  0  0  0  0
 31 60  1  0  0  0  0
 31 64  1  0  0  0  0
 32 66  1  0  0  0  0
 32 69  1  0  0  0  0
 33 70  1  0  0  0  0
 33 75  2  0  0  0  0
 34 50  1  0  0  0  0
 34 71  1  0  0  0  0
 34 76  2  0  0  0  0
 35 61  1  0  0  0  0
 35 67  1  0  0  0  0
 35 77  2  0  0  0  0
 36 62  1  0  0  0  0
 36 72  1  0  0  0  0
 36 78  2  0  0  0  0
 37 68  1  0  0  0  0
 37 73  1  0  0  0  0
 37 79  2  0  0  0  0
 38 41  1  0  0  0  0
 39 50  1  0  0  0  0
 40 67  1  0  0  0  0
 41 43  1  0  0  0  0
 42 44  1  0  0  0  0
 42 47  1  0  0  0  0
 43 49  1  0  0  0  0
 44 51  1  0  0  0  0
 45 46  1  0  0  0  0
 45 52  1  0  0  0  0
 46 52  1  0  0  0  0
 47 68  1  0  0  0  0
 48 51  1  0  0  0  0
 48 68  1  0  0  0  0
 49 71  1  0  0  0  0
 50 67  1  0  0  0  0
 51 66  1  0  0  0  0
 52 73  1  0  0  0  0
 54 62  1  0  0  0  0
 55 63  1  0  0  0  0
 56 63  1  0  0  0  0
 57 63  1  0  0  0  0
 58 74  1  0  0  0  0
 59 81  1  0  0  0  0
 60 73  1  0  0  0  0
 61 63  1  0  0  0  0
 61 72  1  0  0  0  0
 62 74  1  0  0  0  0
 65 66  1  0  0  0  0
M  CHG  1  74   1
M  ISO  4  37 100  59 101  73 100  81 101
M  END
> <Batch ID>
0160

> <Smiles>
CNC(C)C(=O)NC(C(=O)N1Cc2cc([101O:1][101CH2:1]c3cnc(C[100N:0](C4CC4)[100C:0](=O)N4CCCC(n5nc(-c6ccc(Oc7ccc(F)cc7F)cc6)c(C(N)=O)c5N)C4)c(C)c3)ccc2CC1C(=O)NC1CCCc2ccccc21)C(C)(C)C

> <Shape>
0.300

> <Color>
0.100

> <Negative vol penalty>
0.000

$$$$

  -OEChem-04052322093D

 88 97  0     1  0  0  0  0  0999 V2000
  -22.9710  -10.5874   18.3176 C   0  0  0  0  0  0  0  0  0  0  0  0
  -22.8234  -11.8948   17.8654 C   0  0  0  0  0  0  0  0  0  0  0  0
  -22.8357  -25.6746   22.3598 C   0  0  0  0  0  0  0  0  0  0  0  0
  -21.7889  -26.0407   24.5063 C   0  0  0  0  0  0  0  0  0  0  0  0
  -23.7484  -10.3244   19.4447 C   0  0  0  0  0  0  0  0  0  0  0  0
  -23.4524  -12.9401   18.5409 C   0  0  0  0  0  0  0  0  0  0  0  0
  -26.5016  -19.3142   17.3623 C   0  0  0  0  0  0  0  0  0  0  0  0
  -22.8714  -24.3031   22.6112 C   0  0  0  0  0  0  0  0  0  0  0  0
  -21.8246  -24.6692   24.7576 C   0  0  0  0  0  0  0  0  0  0  0  0
  -26.4441  -20.6344   17.8069 C   0  0  0  0  0  0  0  0  0  0  0  0
  -24.7609  -22.1480   24.4028 C   0  0  0  0  0  0  0  0  0  0  0  0
  -25.9434  -21.4674   24.1130 C   0  0  0  0  0  0  0  0  0  0  0  0
  -27.8270  -20.0521   19.6958 C   0  0  0  0  0  0  0  0  0  0  0  0
  -32.2326  -25.8784   18.1400 C   0  0  0  0  0  0  0  0  0  0  0  0
  -30.7923  -27.5527   19.1193 C   0  0  0  0  0  0  0  0  0  0  0  0
  -24.7511  -20.0605   22.5521 C   0  0  0  0  0  0  0  0  0  0  0  0
  -22.2945  -26.5435   23.3074 C   0  0  0  0  0  0  0  0  0  0  0  0
  -21.2253  -28.6837   22.4220 C   0  0  0  0  0  0  0  0  0  0  0  0
  -24.3951  -11.3659   20.1286 C   0  0  0  0  0  0  0  0  0  0  0  0
  -27.2144  -18.3491   18.0882 C   0  0  0  0  0  0  0  0  0  0  0  0
  -24.2381  -12.6909   19.6790 C   0  0  0  0  0  0  0  0  0  0  0  0
  -27.8941  -18.7209   19.2569 C   0  0  0  0  0  0  0  0  0  0  0  0
  -32.0085  -27.1968   18.5363 C   0  0  0  0  0  0  0  0  0  0  0  0
  -31.2405  -24.9158   18.3265 C   0  0  0  0  0  0  0  0  0  0  0  0
  -30.0243  -25.2717   18.9095 C   0  0  0  0  0  0  0  0  0  0  0  0
  -22.3659  -23.8003   23.8100 C   0  0  0  0  0  0  0  0  0  0  0  0
  -27.1045  -21.0029   18.9754 C   0  0  0  0  0  0  0  0  0  0  0  0
  -23.5734  -21.7848   23.7673 C   0  0  0  0  0  0  0  0  0  0  0  0
  -29.8002  -26.5901   19.3059 C   0  0  0  0  0  0  0  0  0  0  0  0
  -25.9385  -20.4236   23.1877 C   0  0  0  0  0  0  0  0  0  0  0  0
  -23.5686  -20.7411   22.8420 C   0  0  0  0  0  0  0  0  0  0  0  0
  -22.2578  -27.9604   23.0486 C   0  0  0  0  0  0  0  0  0  0  0  0
  -21.6698  -29.9832   22.4180 C   0  0  0  0  0  0  0  0  0  0  0  0
  -19.9760  -28.2221   21.8910 C   0  0  0  0  0  0  0  0  0  0  0  0
  -26.4509  -15.6484   19.5804 C   0  0  0  0  0  0  0  0  0  0  0  0
  -29.6640  -15.4024   19.9522 C   0  0  0  0  0  0  0  0  0  0  0  0
  -32.6906  -16.9712   20.1114 C   0  0  0  0  0  0  0  0  0  0  0  0
  -26.5079  -29.0383   24.5688 C   0  0  0  0  0  0  0  0  0  0  0  0
  -25.1864  -11.0379   21.3699 C   0  0  0  0  0  0  0  0  0  0  0  0
  -27.2888  -16.9351   17.5809 C   0  0  0  0  0  0  0  0  0  0  0  0
  -28.6899  -17.7272   20.0617 C   0  0  0  0  0  0  0  0  0  0  0  0
  -26.1245  -12.1595   21.8083 C   0  0  0  0  0  0  0  0  0  0  0  0
  -24.1309  -31.2973   25.8115 C   0  0  0  0  0  0  0  0  0  0  0  0
  -25.3992  -13.5013   21.7863 C   0  0  0  0  0  0  0  0  0  0  0  0
  -23.4749  -31.8933   24.5685 C   0  0  0  0  0  0  0  0  0  0  0  0
  -28.1263  -28.9272   21.1965 C   0  0  0  0  0  0  0  0  0  0  0  0
  -27.8797  -26.6050   22.1370 C   0  0  0  0  0  0  0  0  0  0  0  0
  -25.6263  -31.1067   25.6014 C   0  0  0  0  0  0  0  0  0  0  0  0
  -28.0329  -29.4809   22.6125 C   0  0  0  0  0  0  0  0  0  0  0  0
  -27.7856  -27.1996   23.5372 C   0  0  0  0  0  0  0  0  0  0  0  0
  -25.3220  -30.7991   23.1624 C   0  0  0  0  0  0  0  0  0  0  0  0
  -24.9248  -13.8488   20.3701 C   0  0  1  0  0  0  0  0  0  0  0  0
  -27.6179  -15.9243   18.6751 C   0  0  1  0  0  0  0  0  0  0  0  0
  -23.8199  -31.1434   23.2694 C   0  0  1  0  0  0  0  0  0  0  0  0
  -28.6790  -27.5023   21.1946 C   0  0  0  0  0  0  0  0  0  0  0  0
  -33.0693  -28.2260   18.3364 C   0  0  0  0  0  0  0  0  0  0  0  0
  -31.5088  -23.5113   17.8929 C   0  0  0  0  0  0  0  0  0  0  0  0
  -35.1322  -16.5103   20.4627 C   0  0  0  0  0  0  0  0  0  0  0  0
  -29.1655  -15.0538   22.9422 C   0  0  0  0  0  0  0  0  0  0  0  0
  -31.5881  -15.5504   23.3331 C   0  0  0  0  0  0  0  0  0  0  0  0
  -30.9265  -13.5511   21.9960 C   0  0  0  0  0  0  0  0  0  0  0  0
  -33.3928  -18.0220   17.4353 C   0  0  0  0  0  0  0  0  0  0  0  0
  -27.6307  -24.5679   18.8788 C   0  0  0  0  0  0  0  0  0  0  0  0
  -26.9151  -23.3079   18.4213 C   0  0  0  0  0  0  0  0  0  1  0  0
  -30.6575  -15.8567   20.9940 C   0  0  1  0  0  0  0  0  0  0  0  0
  -34.0181  -16.6694   19.4398 C   0  0  2  0  0  0  0  0  0  0  0  0
  -30.5679  -15.0216   22.3024 C   0  0  0  0  0  0  0  0  0  0  0  0
  -23.2812  -28.7361   23.4159 N   0  0  0  0  0  0  0  0  0  0  0  0
  -22.8941  -29.9602   23.0188 N   0  0  0  0  0  0  0  0  0  0  0  0
  -28.7273  -16.3556   19.5280 N   0  0  0  0  0  0  0  0  0  0  0  0
  -25.8973  -30.2938   24.4173 N   0  0  0  0  0  0  0  0  0  0  0  0
  -27.2891  -28.5753   23.4989 N   0  0  0  0  0  0  0  0  0  0  0  0
  -21.1291  -31.1319   21.9592 N   0  0  0  0  0  0  0  0  0  0  0  0
  -19.6774  -26.8555   21.9776 N   0  0  0  0  0  0  0  0  0  0  0  0
  -29.0158  -24.2990   19.0999 N   0  0  0  0  0  0  0  0  0  0  0  0
  -26.0305  -14.3321   19.5711 N   0  0  0  0  0  0  0  0  0  0  0  0
  -31.9670  -15.8223   20.3517 N   0  0  0  0  0  0  0  0  0  0  0  0
  -34.3895  -17.7716   18.5080 N   0  3  0  0  0  0  0  0  0  0  0  0
  -19.1563  -28.9960   21.3409 O   0  0  0  0  0  0  0  0  0  0  0  0
  -25.9686  -16.5618   20.2398 O   0  0  0  0  0  0  0  0  0  0  0  0
  -29.7214  -14.2466   19.5251 O   0  0  0  0  0  0  0  0  0  0  0  0
  -32.3330  -18.1117   20.3978 O   0  0  0  0  0  0  0  0  0  0  0  0
  -26.3456  -28.3557   25.5883 O   0  0  0  0  0  0  0  0  0  0  0  0
  -22.4004  -22.4620   24.0555 O   0  0  0  0  0  0  0  0  0  0  0  0
  -28.6131  -26.9614   19.8804 O   0  0  0  0  0  0  0  0  0  0  0  0
  -27.0490  -22.2996   19.4150 O   0  0  0  0  0  0  0  0  0  1  0  0
  -27.0745  -19.7711   22.9083 F   0  0  0  0  0  0  0  0  0  0  0  0
  -22.4311  -20.3884   22.2274 F   0  0  0  0  0  0  0  0  0  0  0  0
  1  2  1  0  0  0  0
  1  5  2  0  0  0  0
  2  6  2  0  0  0  0
  3  8  2  0  0  0  0
  3 17  1  0  0  0  0
  4  9  1  0  0  0  0
  4 17  2  0  0  0  0
  5 19  1  0  0  0  0
  6 21  1  0  0  0  0
  7 10  2  0  0  0  0
  7 20  1  0  0  0  0
  8 26  1  0  0  0  0
  9 26  2  0  0  0  0
 10 27  1  0  0  0  0
 11 12  2  0  0  0  0
 11 28  1  0  0  0  0
 12 30  1  0  0  0  0
 13 22  1  0  0  0  0
 13 27  2  0  0  0  0
 14 23  1  0  0  0  0
 14 24  2  0  0  0  0
 15 23  2  0  0  0  0
 15 29  1  0  0  0  0
 16 30  2  0  0  0  0
 16 31  1  0  0  0  0
 17 32  1  0  0  0  0
 18 32  1  0  0  0  0
 18 33  2  0  0  0  0
 18 34  1  0  0  0  0
 19 21  2  0  0  0  0
 19 39  1  0  0  0  0
 20 22  2  0  0  0  0
 20 40  1  0  0  0  0
 21 52  1  0  0  0  0
 22 41  1  0  0  0  0
 23 56  1  0  0  0  0
 24 25  1  0  0  0  0
 24 57  1  0  0  0  0
 25 29  2  0  0  0  0
 25 75  1  0  0  0  0
 26 84  1  0  0  0  0
 27 86  1  0  0  0  0
 28 31  2  0  0  0  0
 28 84  1  0  0  0  0
 29 85  1  0  0  0  0
 30 87  1  0  0  0  0
 31 88  1  0  0  0  0
 32 68  2  0  0  0  0
 33 69  1  0  0  0  0
 33 73  1  0  0  0  0
 34 74  1  0  0  0  0
 34 79  2  0  0  0  0
 35 53  1  0  0  0  0
 35 76  1  0  0  0  0
 35 80  2  0  0  0  0
 36 65  1  0  0  0  0
 36 70  1  0  0  0  0
 36 81  2  0  0  0  0
 37 66  1  0  0  0  0
 37 77  1  0  0  0  0
 37 82  2  0  0  0  0
 38 71  1  0  0  0  0
 38 72  1  0  0  0  0
 38 83  2  0  0  0  0
 39 42  1  0  0  0  0
 40 53  1  0  0  0  0
 41 70  1  0  0  0  0
 42 44  1  0  0  0  0
 43 45  1  0  0  0  0
 43 48  1  0  0  0  0
 44 52  1  0  0  0  0
 45 54  1  0  0  0  0
 46 49  1  0  0  0  0
 46 55  1  0  0  0  0
 47 50  1  0  0  0  0
 47 55  1  0  0  0  0
 48 71  1  0  0  0  0
 49 72  1  0  0  0  0
 50 72  1  0  0  0  0
 51 54  1  0  0  0  0
 51 71  1  0  0  0  0
 52 76  1  0  0  0  0
 53 70  1  0  0  0  0
 54 69  1  0  0  0  0
 55 85  1  0  0  0  0
 58 66  1  0  0  0  0
 59 67  1  0  0  0  0
 60 67  1  0  0  0  0
 61 67  1  0  0  0  0
 62 78  1  0  0  0  0
 63 64  1  0  0  0  0
 63 75  1  0  0  0  0
 64 86  1  0  0  0  0
 65 67  1  0  0  0  0
 65 77  1  0  0  0  0
 66 78  1  0  0  0  0
 68 69  1  0  0  0  0
M  CHG  1  78   1
M  ISO  4  38 100  64 101  72 100  86 101
M  END
> <Batch ID>
0160

> <Smiles>
CNC(C)C(=O)NC(C(=O)N1Cc2cc([101O:1][101CH2:1]CNc3c(C)cc(C)cc3OC3CC[100N:0]([100C:0](=O)N4CCCC(n5nc(-c6ccc(Oc7ccc(F)cc7F)cc6)c(C(N)=O)c5N)C4)CC3)ccc2CC1C(=O)NC1CCCc2ccccc21)C(C)(C)C

> <Shape>
0.239

> <Color>
0.058

> <Negative vol penalty>
0.000

$$$$

  -OEChem-04052322093D

 88 97  0     1  0  0  0  0  0999 V2000
  -27.8503  -34.4639   24.5297 C   0  0  0  0  0  0  0  0  0  0  0  0
  -28.0129  -33.1300   24.1697 C   0  0  0  0  0  0  0  0  0  0  0  0
  -23.7322   -9.3238   21.2639 C   0  0  0  0  0  0  0  0  0  0  0  0
  -25.1829   -9.9872   23.0784 C   0  0  0  0  0  0  0  0  0  0  0  0
  -26.5870  -34.9428   24.8742 C   0  0  0  0  0  0  0  0  0  0  0  0
  -26.9123  -32.2739   24.1549 C   0  0  0  0  0  0  0  0  0  0  0  0
  -26.7737  -29.3592   20.0160 C   0  0  0  0  0  0  0  0  0  0  0  0
  -23.3790   -8.1722   21.9672 C   0  0  0  0  0  0  0  0  0  0  0  0
  -24.8296   -8.8356   23.7818 C   0  0  0  0  0  0  0  0  0  0  0  0
  -27.6240  -28.2548   19.9863 C   0  0  0  0  0  0  0  0  0  0  0  0
  -21.3165   -7.3441   24.5155 C   0  0  0  0  0  0  0  0  0  0  0  0
  -19.9654   -7.0008   24.5604 C   0  0  0  0  0  0  0  0  0  0  0  0
  -25.7806  -26.8264   20.6032 C   0  0  0  0  0  0  0  0  0  0  0  0
  -20.4647   -4.8948   23.4869 C   0  0  0  0  0  0  0  0  0  0  0  0
  -24.6342  -10.2312   21.8194 C   0  0  0  0  0  0  0  0  0  0  0  0
  -24.1418  -12.4479   20.6568 C   0  0  0  0  0  0  0  0  0  0  0  0
  -25.4688  -34.0945   24.8543 C   0  0  0  0  0  0  0  0  0  0  0  0
  -25.4205  -29.2068   20.3508 C   0  0  0  0  0  0  0  0  0  0  0  0
  -25.6331  -32.7416   24.5007 C   0  0  0  0  0  0  0  0  0  0  0  0
  -24.9146  -27.9300   20.6340 C   0  0  0  0  0  0  0  0  0  0  0  0
  -28.6185  -21.3485   19.8370 C   0  0  0  0  0  0  0  0  0  0  0  0
  -28.7958  -20.5691   18.6939 C   0  0  0  0  0  0  0  0  0  0  0  0
  -28.4518  -20.7366   21.0794 C   0  0  0  0  0  0  0  0  0  0  0  0
  -28.8062  -19.1778   18.7931 C   0  0  0  0  0  0  0  0  0  0  0  0
  -28.4622  -19.3453   21.1786 C   0  0  0  0  0  0  0  0  0  0  0  0
  -28.6394  -18.5659   20.0355 C   0  0  0  0  0  0  0  0  0  0  0  0
  -23.9277   -7.9281   23.2262 C   0  0  0  0  0  0  0  0  0  0  0  0
  -27.1282  -26.9885   20.2826 C   0  0  0  0  0  0  0  0  0  0  0  0
  -22.2418   -6.4627   23.9562 C   0  0  0  0  0  0  0  0  0  0  0  0
  -19.5394   -5.7761   24.0462 C   0  0  0  0  0  0  0  0  0  0  0  0
  -21.8159   -5.2381   23.4419 C   0  0  0  0  0  0  0  0  0  0  0  0
  -24.9999  -11.4207   21.0931 C   0  0  0  0  0  0  0  0  0  0  0  0
  -24.9701  -13.3407   20.0217 C   0  0  0  0  0  0  0  0  0  0  0  0
  -22.7228  -12.5830   20.8119 C   0  0  0  0  0  0  0  0  0  0  0  0
  -23.5502  -30.2917   22.6808 C   0  0  0  0  0  0  0  0  0  0  0  0
  -21.2161  -28.8528   20.9475 C   0  0  0  0  0  0  0  0  0  0  0  0
  -20.8115  -25.7629   19.1292 C   0  0  0  0  0  0  0  0  0  0  0  0
  -29.6876  -16.2889   19.7847 C   0  0  0  0  0  0  0  0  0  0  0  0
  -24.1313  -34.6463   25.2802 C   0  0  0  0  0  0  0  0  0  0  0  0
  -24.5104  -30.4043   20.3524 C   0  0  0  0  0  0  0  0  0  0  0  0
  -23.4652  -27.7100   20.9795 C   0  0  0  0  0  0  0  0  0  0  0  0
  -22.9523  -33.7644   24.8772 C   0  0  0  0  0  0  0  0  0  0  0  0
  -29.8201  -12.9218   18.6347 C   0  0  0  0  0  0  0  0  0  0  0  0
  -27.4205  -23.3605   18.8794 C   0  0  0  0  0  0  0  0  0  0  0  0
  -29.9375  -23.4320   19.2165 C   0  0  0  0  0  0  0  0  0  0  0  0
  -23.2368  -32.3048   25.2168 C   0  0  0  0  0  0  0  0  0  0  0  0
  -28.5073  -12.3156   19.1359 C   0  0  0  0  0  0  0  0  0  0  0  0
  -27.6787  -24.7112   18.1999 C   0  0  0  0  0  0  0  0  0  0  0  0
  -29.9631  -24.9650   19.2756 C   0  0  0  0  0  0  0  0  0  0  0  0
  -30.4056  -13.9145   19.6375 C   0  0  0  0  0  0  0  0  0  0  0  0
  -28.1725  -14.3663   20.5745 C   0  0  0  0  0  0  0  0  0  0  0  0
  -28.6075  -22.8623   19.7290 C   0  0  0  0  0  0  0  0  0  0  0  0
  -24.4593  -31.7879   24.4487 C   0  0  1  0  0  0  0  0  0  0  0  0
  -23.2632  -30.2059   21.2084 C   0  0  1  0  0  0  0  0  0  0  0  0
  -27.5112  -13.4088   19.5697 C   0  0  2  0  0  0  0  0  0  0  0  0
  -28.5984  -25.6143   19.0145 C   0  0  0  0  0  0  0  0  0  1  0  0
  -28.9750  -21.2261   17.3614 C   0  0  0  0  0  0  0  0  0  0  0  0
  -28.2619  -21.5735   22.3053 C   0  0  0  0  0  0  0  0  0  0  0  0
  -28.9968  -18.3452   17.5632 C   0  0  0  0  0  0  0  0  0  0  0  0
  -29.5524  -18.7524   23.3573 C   0  0  0  0  0  0  0  0  0  0  0  0
  -19.3339  -25.1976   17.1813 C   0  0  0  0  0  0  0  0  0  0  0  0
  -19.2633  -27.8832   23.0820 C   0  0  0  0  0  0  0  0  0  0  0  0
  -18.6585  -25.9841   21.5668 C   0  0  0  0  0  0  0  0  0  0  0  0
  -18.2294  -28.3346   20.8501 C   0  0  0  0  0  0  0  0  0  0  0  0
  -23.1063  -24.8287   17.5106 C   0  0  0  0  0  0  0  0  0  0  0  0
  -28.2838  -18.6928   22.5144 C   0  0  0  0  0  0  0  0  0  0  0  0
  -20.6053  -27.4726   20.9149 C   0  0  1  0  0  0  0  0  0  0  0  0
  -20.7329  -25.5989   17.6221 C   0  0  2  0  0  0  0  0  0  0  0  0
  -19.2162  -27.4227   21.6114 C   0  0  0  0  0  0  0  0  0  0  0  0
  -26.2755  -11.6394   20.7629 N   0  0  0  0  0  0  0  0  0  0  0  0
  -26.2250  -12.8143   20.1123 N   0  0  0  0  0  0  0  0  0  0  0  0
  -22.6167  -28.9131   20.9740 N   0  0  0  0  0  0  0  0  0  0  0  0
  -29.4069  -14.9228   19.9990 N   0  0  0  0  0  0  0  0  0  0  0  0
  -24.7401  -14.5167   19.4001 N   0  0  0  0  0  0  0  0  0  0  0  0
  -22.2347  -13.2425   21.9482 N   0  0  0  0  0  0  0  0  0  0  0  0
  -28.6507  -17.1526   20.1362 N   0  0  0  0  0  0  0  0  0  0  0  0
  -24.1065  -31.4931   23.0765 N   0  0  0  0  0  0  0  0  0  0  0  0
  -20.5860  -27.0678   19.5134 N   0  0  0  0  0  0  0  0  0  0  0  0
  -21.6886  -24.5509   17.1646 N   0  3  0  0  0  0  0  0  0  0  0  0
  -21.9114  -12.1179   19.9760 O   0  0  0  0  0  0  0  0  0  0  0  0
  -23.2850  -29.3390   23.4045 O   0  0  0  0  0  0  0  0  0  0  0  0
  -20.4779  -29.8411   20.9422 O   0  0  0  0  0  0  0  0  0  0  0  0
  -21.0456  -24.8263   19.8899 O   0  0  0  0  0  0  0  0  0  0  0  0
  -30.7577  -16.6630   19.2980 O   0  0  0  0  0  0  0  0  0  0  0  0
  -23.5830   -6.8047   23.9130 O   0  0  0  0  0  0  0  0  0  0  0  0
  -27.9562  -25.9090   20.2549 O   0  0  0  0  0  0  0  0  0  1  0  0
  -18.2420   -5.4460   24.0909 F   0  0  0  0  0  0  0  0  0  0  0  0
  -22.7003   -4.3868   22.9045 F   0  0  0  0  0  0  0  0  0  0  0  0
  1  2  1  0  0  0  0
  1  5  2  0  0  0  0
  2  6  2  0  0  0  0
  3  8  2  0  0  0  0
  3 15  1  0  0  0  0
  4  9  1  0  0  0  0
  4 15  2  0  0  0  0
  5 17  1  0  0  0  0
  6 19  1  0  0  0  0
  7 10  2  0  0  0  0
  7 18  1  0  0  0  0
  8 27  1  0  0  0  0
  9 27  2  0  0  0  0
 10 28  1  0  0  0  0
 11 12  2  0  0  0  0
 11 29  1  0  0  0  0
 12 30  1  0  0  0  0
 13 20  1  0  0  0  0
 13 28  2  0  0  0  0
 14 30  2  0  0  0  0
 14 31  1  0  0  0  0
 15 32  1  0  0  0  0
 16 32  1  0  0  0  0
 16 33  2  0  0  0  0
 16 34  1  0  0  0  0
 17 19  2  0  0  0  0
 17 39  1  0  0  0  0
 18 20  2  0  0  0  0
 18 40  1  0  0  0  0
 19 53  1  0  0  0  0
 20 41  1  0  0  0  0
 21 22  1  0  0  0  0
 21 23  2  0  0  0  0
 21 52  1  0  0  0  0
 22 24  2  0  0  0  0
 22 57  1  0  0  0  0
 23 25  1  0  0  0  0
 23 58  1  0  0  0  0
 24 26  1  0  0  0  0
 24 59  1  0  0  0  0
 25 26  2  0  0  0  0
 25 66  1  0  0  0  0
 26 76  1  0  0  0  0
 27 85  1  0  0  0  0
 28 86  1  0  0  0  0
 29 31  2  0  0  0  0
 29 85  1  0  0  0  0
 30 87  1  0  0  0  0
 31 88  1  0  0  0  0
 32 70  2  0  0  0  0
 33 71  1  0  0  0  0
 33 74  1  0  0  0  0
 34 75  1  0  0  0  0
 34 80  2  0  0  0  0
 35 54  1  0  0  0  0
 35 77  1  0  0  0  0
 35 81  2  0  0  0  0
 36 67  1  0  0  0  0
 36 72  1  0  0  0  0
 36 82  2  0  0  0  0
 37 68  1  0  0  0  0
 37 78  1  0  0  0  0
 37 83  2  0  0  0  0
 38 73  1  0  0  0  0
 38 76  1  0  0  0  0
 38 84  2  0  0  0  0
 39 42  1  0  0  0  0
 40 54  1  0  0  0  0
 41 72  1  0  0  0  0
 42 46  1  0  0  0  0
 43 47  1  0  0  0  0
 43 50  1  0  0  0  0
 44 48  1  0  0  0  0
 44 52  1  0  0  0  0
 45 49  1  0  0  0  0
 45 52  1  0  0  0  0
 46 53  1  0  0  0  0
 47 55  1  0  0  0  0
 48 56  1  0  0  0  0
 49 56  1  0  0  0  0
 50 73  1  0  0  0  0
 51 55  1  0  0  0  0
 51 73  1  0  0  0  0
 53 77  1  0  0  0  0
 54 72  1  0  0  0  0
 55 71  1  0  0  0  0
 56 86  1  0  0  0  0
 60 66  1  0  0  0  0
 61 68  1  0  0  0  0
 62 69  1  0  0  0  0
 63 69  1  0  0  0  0
 64 69  1  0  0  0  0
 65 79  1  0  0  0  0
 67 69  1  0  0  0  0
 67 78  1  0  0  0  0
 68 79  1  0  0  0  0
 70 71  1  0  0  0  0
M  CHG  1  79   1
M  ISO  4  38 100  56 101  76 100  86 101
M  END
> <Batch ID>
0160

> <Smiles>
CCc1c(C)c(C2CC[101CH:1]([101O:1]c3ccc4c(c3)CN(C(=O)C(NC(=O)C(C)NC)C(C)(C)C)C(C(=O)NC3CCCc5ccccc53)C4)CC2)c(C)c(C)c1[100NH:0][100C:0](=O)N1CCCC(n2nc(-c3ccc(Oc4ccc(F)cc4F)cc3)c(C(N)=O)c2N)C1

> <Shape>
0.384

> <Color>
0.119

> <Negative vol penalty>
0.000

$$$$

  -OEChem-04052322093D

 91101  0     1  0  0  0  0  0999 V2000
  -17.6508  -27.2309   22.5763 C   0  0  0  0  0  0  0  0  0  0  0  0
  -18.3564  -26.1825   23.1580 C   0  0  0  0  0  0  0  0  0  0  0  0
  -23.0149   -9.9931   19.9722 C   0  0  0  0  0  0  0  0  0  0  0  0
  -23.7288   -9.9955   22.2803 C   0  0  0  0  0  0  0  0  0  0  0  0
  -18.3376  -28.3217   22.0448 C   0  0  0  0  0  0  0  0  0  0  0  0
  -19.7493  -26.2238   23.2076 C   0  0  0  0  0  0  0  0  0  0  0  0
  -23.3410  -24.0348   27.6589 C   0  0  0  0  0  0  0  0  0  0  0  0
  -22.2138   -8.8787   20.2211 C   0  0  0  0  0  0  0  0  0  0  0  0
  -22.9277   -8.8811   22.5292 C   0  0  0  0  0  0  0  0  0  0  0  0
  -24.0594  -22.8467   27.7855 C   0  0  0  0  0  0  0  0  0  0  0  0
  -22.6265   -5.5416   20.5644 C   0  0  0  0  0  0  0  0  0  0  0  0
  -22.6644   -4.4977   19.6401 C   0  0  0  0  0  0  0  0  0  0  0  0
  -26.0410  -23.9668   26.9867 C   0  0  0  0  0  0  0  0  0  0  0  0
  -22.9838  -17.6918   25.8774 C   0  0  0  0  0  0  0  0  0  0  0  0
  -24.5472  -16.6016   27.3619 C   0  0  0  0  0  0  0  0  0  0  0  0
  -20.2974   -4.7680   19.2379 C   0  0  0  0  0  0  0  0  0  0  0  0
  -23.7724  -10.5515   21.0017 C   0  0  0  0  0  0  0  0  0  0  0  0
  -24.2327  -13.0565   20.8577 C   0  0  0  0  0  0  0  0  0  0  0  0
  -19.7392  -28.3808   22.0966 C   0  0  0  0  0  0  0  0  0  0  0  0
  -23.9656  -25.1971   27.1842 C   0  0  0  0  0  0  0  0  0  0  0  0
  -20.4556  -27.3157   22.6752 C   0  0  0  0  0  0  0  0  0  0  0  0
  -25.3289  -25.1691   26.8574 C   0  0  0  0  0  0  0  0  0  0  0  0
  -25.2969  -18.3882   25.9187 C   0  0  0  0  0  0  0  0  0  0  0  0
  -23.2551  -16.7329   26.8533 C   0  0  0  0  0  0  0  0  0  0  0  0
  -24.0047  -18.5195   25.4100 C   0  0  0  0  0  0  0  0  0  0  0  0
  -25.5682  -17.4292   26.8946 C   0  0  0  0  0  0  0  0  0  0  0  0
  -22.1702   -8.3227   21.4996 C   0  0  0  0  0  0  0  0  0  0  0  0
  -25.4089  -22.8118   27.4466 C   0  0  0  0  0  0  0  0  0  0  0  0
  -21.4242   -6.1987   20.8256 C   0  0  0  0  0  0  0  0  0  0  0  0
  -21.4998   -4.1109   18.9768 C   0  0  0  0  0  0  0  0  0  0  0  0
  -20.2596   -5.8119   20.1623 C   0  0  0  0  0  0  0  0  0  0  0  0
  -24.6006  -11.7023   20.7451 C   0  0  0  0  0  0  0  0  0  0  0  0
  -25.3652  -13.7502   20.5075 C   0  0  0  0  0  0  0  0  0  0  0  0
  -22.9793  -13.6355   21.2443 C   0  0  0  0  0  0  0  0  0  0  0  0
  -23.5622  -27.0902   24.6628 C   0  0  0  0  0  0  0  0  0  0  0  0
  -25.8092  -28.8968   26.1492 C   0  0  0  0  0  0  0  0  0  0  0  0
  -28.4132  -29.0495   28.3499 C   0  0  0  0  0  0  0  0  0  0  0  0
  -30.7717  -14.6024   20.6273 C   0  0  0  0  0  0  0  0  0  0  0  0
  -20.4399  -29.5585   21.4665 C   0  0  0  0  0  0  0  0  0  0  0  0
  -23.1832  -26.4774   27.0787 C   0  0  0  0  0  0  0  0  0  0  0  0
  -26.0511  -26.3945   26.3622 C   0  0  0  0  0  0  0  0  0  0  0  0
  -21.8983  -29.6999   21.8946 C   0  0  0  0  0  0  0  0  0  0  0  0
  -29.6850  -12.1828   18.4095 C   0  0  0  0  0  0  0  0  0  0  0  0
  -22.6096  -28.3525   21.8201 C   0  0  0  0  0  0  0  0  0  0  0  0
  -28.2313  -11.9437   18.8171 C   0  0  0  0  0  0  0  0  0  0  0  0
  -29.2615  -17.8388   21.6128 C   0  0  0  0  0  0  0  0  0  0  0  0
  -28.6802  -16.1041   23.3454 C   0  0  0  0  0  0  0  0  0  0  0  0
  -30.5767  -12.3414   19.6357 C   0  0  0  0  0  0  0  0  0  0  0  0
  -30.4515  -16.9849   21.1839 C   0  0  0  0  0  0  0  0  0  0  0  0
  -29.8834  -15.2861   22.8879 C   0  0  0  0  0  0  0  0  0  0  0  0
  -28.6877  -13.2029   20.9792 C   0  0  0  0  0  0  0  0  0  0  0  0
  -28.4994  -19.5494   25.4590 C   0  0  0  0  0  0  0  0  0  0  0  0
  -21.9658  -27.3355   22.7702 C   0  0  1  0  0  0  0  0  0  0  0  0
  -26.4174  -19.2970   25.4053 C   0  0  1  0  0  0  0  0  0  0  0  0
  -23.7949  -27.4723   26.0972 C   0  0  1  0  0  0  0  0  0  0  0  0
  -28.8929  -17.6011   23.0830 C   0  0  0  0  0  0  0  0  0  0  0  0
  -27.3742  -19.9656   26.4317 C   0  0  2  0  0  0  0  0  0  0  0  0
  -27.7381  -13.0427   19.7749 C   0  0  2  0  0  0  0  0  0  0  0  0
  -22.1634  -15.8476   27.3520 C   0  0  0  0  0  0  0  0  0  0  0  0
  -23.6918  -19.5392   24.3651 C   0  0  0  0  0  0  0  0  0  0  0  0
  -26.9439  -17.2702   27.4528 C   0  0  0  0  0  0  0  0  0  0  0  0
  -30.0736  -30.6565   29.3286 C   0  0  0  0  0  0  0  0  0  0  0  0
  -27.4042  -28.8286   23.5489 C   0  0  0  0  0  0  0  0  0  0  0  0
  -29.4077  -29.5966   24.8391 C   0  0  0  0  0  0  0  0  0  0  0  0
  -27.3833  -31.0477   24.7020 C   0  0  0  0  0  0  0  0  0  0  0  0
  -27.4046  -28.5999   31.0957 C   0  0  0  0  0  0  0  0  0  0  0  0
  -27.6517  -18.4020   23.4690 C   0  0  0  0  0  0  0  0  0  0  0  0
  -27.1970  -21.4518   26.6663 C   0  0  0  0  0  0  0  0  0  1  0  0
  -27.3174  -28.9597   26.1260 C   0  0  1  0  0  0  0  0  0  0  0  0
  -28.7108  -30.0021   29.4937 C   0  0  2  0  0  0  0  0  0  0  0  0
  -27.8644  -29.5844   24.8115 C   0  0  0  0  0  0  0  0  0  0  0  0
  -25.8677  -11.5430   20.3538 N   0  0  0  0  0  0  0  0  0  0  0  0
  -26.3059  -12.8061   20.2174 N   0  0  0  0  0  0  0  0  0  0  0  0
  -25.2413  -27.6206   26.2703 N   0  0  0  0  0  0  0  0  0  0  0  0
  -30.0726  -13.3905   20.5217 N   0  0  0  0  0  0  0  0  0  0  0  0
  -30.2342  -15.5717   21.4903 N   0  0  0  0  0  0  0  0  0  0  0  0
  -25.6382  -15.0695   20.4224 N   0  0  0  0  0  0  0  0  0  0  0  0
  -21.9201  -12.7783   21.5720 N   0  0  0  0  0  0  0  0  0  0  0  0
  -22.3844  -27.5820   24.1334 N   0  0  0  0  0  0  0  0  0  0  0  0
  -27.7149  -29.6709   27.3362 N   0  0  0  0  0  0  0  0  0  0  0  0
  -27.5910  -18.5021   24.9414 N   0  3  1  0  0  0  0  0  0  0  0  0
  -28.6941  -29.2726   30.7931 N   0  3  0  0  0  0  0  0  0  0  0  0
  -22.7990  -14.8763   21.2817 O   0  0  0  0  0  0  0  0  0  0  0  0
  -24.3908  -26.4014   24.0790 O   0  0  0  0  0  0  0  0  0  0  0  0
  -25.1591  -29.9421   26.0701 O   0  0  0  0  0  0  0  0  0  0  0  0
  -28.7681  -27.8728   28.3535 O   0  0  0  0  0  0  0  0  0  0  0  0
  -31.8102  -14.8102   19.9874 O   0  0  0  0  0  0  0  0  0  0  0  0
  -21.3884   -7.2354   21.7430 O   0  0  0  0  0  0  0  0  0  0  0  0
  -26.1175  -21.6447   27.5695 O   0  0  0  0  0  0  0  0  0  1  0  0
  -21.5366   -3.1094   18.0880 F   0  0  0  0  0  0  0  0  0  0  0  0
  -19.1018   -6.4402   20.4082 F   0  0  0  0  0  0  0  0  0  0  0  0
  1  2  1  0  0  0  0
  1  5  2  0  0  0  0
  2  6  2  0  0  0  0
  3  8  2  0  0  0  0
  3 17  1  0  0  0  0
  4  9  1  0  0  0  0
  4 17  2  0  0  0  0
  5 19  1  0  0  0  0
  6 21  1  0  0  0  0
  7 10  2  0  0  0  0
  7 20  1  0  0  0  0
  8 27  1  0  0  0  0
  9 27  2  0  0  0  0
 10 28  1  0  0  0  0
 11 12  2  0  0  0  0
 11 29  1  0  0  0  0
 12 30  1  0  0  0  0
 13 22  1  0  0  0  0
 13 28  2  0  0  0  0
 14 24  1  0  0  0  0
 14 25  2  0  0  0  0
 15 24  2  0  0  0  0
 15 26  1  0  0  0  0
 16 30  2  0  0  0  0
 16 31  1  0  0  0  0
 17 32  1  0  0  0  0
 18 32  1  0  0  0  0
 18 33  2  0  0  0  0
 18 34  1  0  0  0  0
 19 21  2  0  0  0  0
 19 39  1  0  0  0  0
 20 22  2  0  0  0  0
 20 40  1  0  0  0  0
 21 53  1  0  0  0  0
 22 41  1  0  0  0  0
 23 25  1  0  0  0  0
 23 26  2  0  0  0  0
 23 54  1  0  0  0  0
 24 59  1  0  0  0  0
 25 60  1  0  0  0  0
 26 61  1  0  0  0  0
 27 88  1  0  0  0  0
 28 89  1  0  0  0  0
 29 31  2  0  0  0  0
 29 88  1  0  0  0  0
 30 90  1  0  0  0  0
 31 91  1  0  0  0  0
 32 72  2  0  0  0  0
 33 73  1  0  0  0  0
 33 77  1  0  0  0  0
 34 78  1  0  0  0  0
 34 83  2  0  0  0  0
 35 55  1  0  0  0  0
 35 79  1  0  0  0  0
 35 84  2  0  0  0  0
 36 69  1  0  0  0  0
 36 74  1  0  0  0  0
 36 85  2  0  0  0  0
 37 70  1  0  0  0  0
 37 80  1  0  0  0  0
 37 86  2  0  0  0  0
 38 75  1  0  0  0  0
 38 76  1  0  0  0  0
 38 87  2  0  0  0  0
 39 42  1  0  0  0  0
 40 55  1  0  0  0  0
 41 74  1  0  0  0  0
 42 44  1  0  0  0  0
 43 45  1  0  0  0  0
 43 48  1  0  0  0  0
 44 53  1  0  0  0  0
 45 58  1  0  0  0  0
 46 49  1  0  0  0  0
 46 56  1  0  0  0  0
 47 50  1  0  0  0  0
 47 56  1  0  0  0  0
 48 75  1  0  0  0  0
 49 76  1  0  0  0  0
 50 76  1  0  0  0  0
 51 58  1  0  0  0  0
 51 75  1  0  0  0  0
 52 57  1  0  0  0  0
 52 81  1  0  0  0  0
 53 79  1  0  0  0  0
 54 57  1  0  0  0  0
 54 81  1  0  0  0  0
 55 74  1  0  0  0  0
 56 67  1  0  0  0  0
 57 68  1  0  0  0  0
 58 73  1  0  0  0  0
 62 70  1  0  0  0  0
 63 71  1  0  0  0  0
 64 71  1  0  0  0  0
 65 71  1  0  0  0  0
 66 82  1  0  0  0  0
 67 81  1  0  0  0  0
 68 89  1  0  0  0  0
 69 71  1  0  0  0  0
 69 80  1  0  0  0  0
 70 82  1  0  0  0  0
 72 73  1  0  0  0  0
M  CHG  2  81   1  82   1
M  ISO  4  38 100  68 101  76 100  89 101
M  END
> <Batch ID>
0160

> <Smiles>
CNC(C)C(=O)NC(C(=O)N1Cc2cc([101O:1][101CH2:1]C3CN(CC4CC[100N:0]([100C:0](=O)N5CCCC(n6nc(-c7ccc(Oc8ccc(F)cc8F)cc7)c(C(N)=O)c6N)C5)CC4)C3c3c(C)cc(C)cc3C)ccc2CC1C(=O)NC1CCCc2ccccc21)C(C)(C)C

> <Shape>
0.236

> <Color>
0.201

> <Negative vol penalty>
0.000

$$$$

  -OEChem-04052322093D

 85 94  0     1  0  0  0  0  0999 V2000
  -28.6519  -35.3805   22.8222 C   0  0  0  0  0  0  0  0  0  0  0  0
  -29.3105  -34.2501   22.3488 C   0  0  0  0  0  0  0  0  0  0  0  0
  -24.6167  -15.5198   21.3013 C   0  0  0  0  0  0  0  0  0  0  0  0
  -25.3203  -13.5317   22.4800 C   0  0  0  0  0  0  0  0  0  0  0  0
  -27.4222  -35.2508   23.4663 C   0  0  0  0  0  0  0  0  0  0  0  0
  -28.7401  -32.9893   22.5202 C   0  0  0  0  0  0  0  0  0  0  0  0
  -28.2520  -26.6004   19.3169 C   0  0  0  0  0  0  0  0  0  0  0  0
  -25.3264  -15.1033   20.1751 C   0  0  0  0  0  0  0  0  0  0  0  0
  -26.0299  -13.1151   21.3537 C   0  0  0  0  0  0  0  0  0  0  0  0
  -28.4448  -25.2453   19.5818 C   0  0  0  0  0  0  0  0  0  0  0  0
  -28.3212  -11.7030   18.9112 C   0  0  0  0  0  0  0  0  0  0  0  0
  -29.6121  -11.2110   19.1037 C   0  0  0  0  0  0  0  0  0  0  0  0
  -28.9003  -18.4410   21.0468 C   0  0  0  0  0  0  0  0  0  0  0  0
  -26.2787  -25.1500   20.6392 C   0  0  0  0  0  0  0  0  0  0  0  0
  -30.2761  -13.3277   20.0607 C   0  0  0  0  0  0  0  0  0  0  0  0
  -24.6137  -14.7340   22.4538 C   0  0  0  0  0  0  0  0  0  0  0  0
  -22.5397  -14.8757   23.9325 C   0  0  0  0  0  0  0  0  0  0  0  0
  -26.8319  -33.9887   23.6371 C   0  0  0  0  0  0  0  0  0  0  0  0
  -27.0737  -27.2442   19.7216 C   0  0  0  0  0  0  0  0  0  0  0  0
  -27.5019  -32.8425   23.1683 C   0  0  0  0  0  0  0  0  0  0  0  0
  -29.0954  -19.3924   22.0480 C   0  0  0  0  0  0  0  0  0  0  0  0
  -26.0723  -26.5128   20.3760 C   0  0  0  0  0  0  0  0  0  0  0  0
  -28.6957  -18.8480   19.7284 C   0  0  0  0  0  0  0  0  0  0  0  0
  -29.0857  -20.7507   21.7309 C   0  0  0  0  0  0  0  0  0  0  0  0
  -28.6860  -20.2063   19.4112 C   0  0  0  0  0  0  0  0  0  0  0  0
  -28.8811  -21.1577   20.4125 C   0  0  0  0  0  0  0  0  0  0  0  0
  -26.0330  -13.9009   20.2013 C   0  0  0  0  0  0  0  0  0  0  0  0
  -27.4593  -24.5205   20.2455 C   0  0  0  0  0  0  0  0  0  0  0  0
  -28.0077  -13.0074   19.2934 C   0  0  0  0  0  0  0  0  0  0  0  0
  -30.5896  -12.0234   19.6784 C   0  0  0  0  0  0  0  0  0  0  0  0
  -28.9852  -13.8197   19.8681 C   0  0  0  0  0  0  0  0  0  0  0  0
  -23.8812  -15.1640   23.6177 C   0  0  0  0  0  0  0  0  0  0  0  0
  -22.3245  -15.5095   25.1318 C   0  0  0  0  0  0  0  0  0  0  0  0
  -21.5745  -14.1038   23.2057 C   0  0  0  0  0  0  0  0  0  0  0  0
  -26.3913  -29.6416   21.6941 C   0  0  0  0  0  0  0  0  0  0  0  0
  -23.3943  -29.2397   20.5200 C   0  0  0  0  0  0  0  0  0  0  0  0
  -21.1144  -27.1745   19.0422 C   0  0  0  0  0  0  0  0  0  0  0  0
  -27.5082  -17.1364   26.2452 C   0  0  0  0  0  0  0  0  0  0  0  0
  -25.5236  -33.8939   24.3815 C   0  0  0  0  0  0  0  0  0  0  0  0
  -26.8697  -28.7003   19.4047 C   0  0  0  0  0  0  0  0  0  0  0  0
  -24.7807  -27.1523   20.8134 C   0  0  0  0  0  0  0  0  0  0  0  0
  -24.8095  -32.5583   24.1905 C   0  0  0  0  0  0  0  0  0  0  0  0
  -24.4798  -19.3797   27.0071 C   0  0  0  0  0  0  0  0  0  0  0  0
  -25.7876  -31.4005   24.3631 C   0  0  0  0  0  0  0  0  0  0  0  0
  -23.4052  -18.4284   26.4973 C   0  0  0  0  0  0  0  0  0  0  0  0
  -29.9819  -17.5563   23.5909 C   0  0  0  0  0  0  0  0  0  0  0  0
  -25.8241  -19.0582   26.3604 C   0  0  0  0  0  0  0  0  0  0  0  0
  -29.6454  -17.1536   25.0169 C   0  0  0  0  0  0  0  0  0  0  0  0
  -28.0290  -18.7636   24.2899 C   0  0  0  0  0  0  0  0  0  0  0  0
  -25.2584  -16.7723   27.1641 C   0  0  0  0  0  0  0  0  0  0  0  0
  -29.3139  -18.9256   23.4654 C   0  0  2  0  0  0  0  0  0  0  0  0
  -26.9037  -31.4600   23.3132 C   0  0  1  0  0  0  0  0  0  0  0  0
  -25.8501  -29.3735   20.3183 C   0  0  1  0  0  0  0  0  0  0  0  0
  -23.8051  -16.9527   26.6837 C   0  0  2  0  0  0  0  0  0  0  0  0
  -28.4902  -17.8091   18.6749 C   0  0  0  0  0  0  0  0  0  0  0  0
  -29.2954  -21.7689   22.8067 C   0  0  0  0  0  0  0  0  0  0  0  0
  -28.4655  -20.6399   17.9965 C   0  0  0  0  0  0  0  0  0  0  0  0
  -18.7369  -27.1171   18.2412 C   0  0  0  0  0  0  0  0  0  0  0  0
  -22.4304  -29.0039   23.4053 C   0  0  0  0  0  0  0  0  0  0  0  0
  -20.2966  -28.0218   22.5389 C   0  0  0  0  0  0  0  0  0  0  0  0
  -20.9403  -30.3496   21.9144 C   0  0  0  0  0  0  0  0  0  0  0  0
  -21.9448  -26.6319   16.2539 C   0  0  0  0  0  0  0  0  0  0  0  0
  -28.8713  -22.6147   20.0722 C   0  0  0  0  0  0  0  0  0  1  0  0
  -22.1985  -28.4026   20.9052 C   0  0  1  0  0  0  0  0  0  0  0  0
  -20.1851  -27.3818   17.8599 C   0  0  2  0  0  0  0  0  0  0  0  0
  -21.4915  -28.9326   22.1846 C   0  0  0  0  0  0  0  0  0  0  0  0
  -24.4763  -15.9222   24.5425 N   0  0  0  0  0  0  0  0  0  0  0  0
  -23.5041  -16.1157   25.4500 N   0  0  0  0  0  0  0  0  0  0  0  0
  -24.6310  -28.5799   20.4862 N   0  0  0  0  0  0  0  0  0  0  0  0
  -26.2258  -17.6529   26.4934 N   0  0  0  0  0  0  0  0  0  0  0  0
  -28.3234  -17.7227   25.2783 N   0  0  0  0  0  0  0  0  0  0  0  0
  -21.2432  -15.6020   25.9347 N   0  0  0  0  0  0  0  0  0  0  0  0
  -21.9620  -13.5217   21.9911 N   0  0  0  0  0  0  0  0  0  0  0  0
  -26.4219  -30.9802   22.0357 N   0  0  0  0  0  0  0  0  0  0  0  0
  -21.3403  -28.3500   19.7266 N   0  0  0  0  0  0  0  0  0  0  0  0
  -20.5528  -26.4641   16.7448 N   0  3  0  0  0  0  0  0  0  0  0  0
  -20.3982  -13.9488   23.6130 O   0  0  0  0  0  0  0  0  0  0  0  0
  -26.7530  -28.7033   22.3945 O   0  0  0  0  0  0  0  0  0  0  0  0
  -23.2358  -30.4332   20.2517 O   0  0  0  0  0  0  0  0  0  0  0  0
  -21.5892  -26.0785   19.3320 O   0  0  0  0  0  0  0  0  0  0  0  0
  -27.9136  -16.1426   26.8693 O   0  0  0  0  0  0  0  0  0  0  0  0
  -26.7254  -13.4941   19.1024 O   0  0  0  0  0  0  0  0  0  0  0  0
  -27.6465  -23.1880   20.5078 O   0  0  0  0  0  0  0  0  0  1  0  0
  -31.8288  -11.5503   19.8646 F   0  0  0  0  0  0  0  0  0  0  0  0
  -28.6896  -15.0733   20.2384 F   0  0  0  0  0  0  0  0  0  0  0  0
  1  2  1  0  0  0  0
  1  5  2  0  0  0  0
  2  6  2  0  0  0  0
  3  8  2  0  0  0  0
  3 16  1  0  0  0  0
  4  9  1  0  0  0  0
  4 16  2  0  0  0  0
  5 18  1  0  0  0  0
  6 20  1  0  0  0  0
  7 10  2  0  0  0  0
  7 19  1  0  0  0  0
  8 27  1  0  0  0  0
  9 27  2  0  0  0  0
 10 28  1  0  0  0  0
 11 12  2  0  0  0  0
 11 29  1  0  0  0  0
 12 30  1  0  0  0  0
 13 21  2  0  0  0  0
 13 23  1  0  0  0  0
 14 22  1  0  0  0  0
 14 28  2  0  0  0  0
 15 30  2  0  0  0  0
 15 31  1  0  0  0  0
 16 32  1  0  0  0  0
 17 32  1  0  0  0  0
 17 33  2  0  0  0  0
 17 34  1  0  0  0  0
 18 20  2  0  0  0  0
 18 39  1  0  0  0  0
 19 22  2  0  0  0  0
 19 40  1  0  0  0  0
 20 52  1  0  0  0  0
 21 24  1  0  0  0  0
 21 51  1  0  0  0  0
 22 41  1  0  0  0  0
 23 25  2  0  0  0  0
 23 55  1  0  0  0  0
 24 26  2  0  0  0  0
 24 56  1  0  0  0  0
 25 26  1  0  0  0  0
 25 57  1  0  0  0  0
 26 63  1  0  0  0  0
 27 82  1  0  0  0  0
 28 83  1  0  0  0  0
 29 31  2  0  0  0  0
 29 82  1  0  0  0  0
 30 84  1  0  0  0  0
 31 85  1  0  0  0  0
 32 67  2  0  0  0  0
 33 68  1  0  0  0  0
 33 72  1  0  0  0  0
 34 73  1  0  0  0  0
 34 77  2  0  0  0  0
 35 53  1  0  0  0  0
 35 74  1  0  0  0  0
 35 78  2  0  0  0  0
 36 64  1  0  0  0  0
 36 69  1  0  0  0  0
 36 79  2  0  0  0  0
 37 65  1  0  0  0  0
 37 75  1  0  0  0  0
 37 80  2  0  0  0  0
 38 70  1  0  0  0  0
 38 71  1  0  0  0  0
 38 81  2  0  0  0  0
 39 42  1  0  0  0  0
 40 53  1  0  0  0  0
 41 69  1  0  0  0  0
 42 44  1  0  0  0  0
 43 45  1  0  0  0  0
 43 47  1  0  0  0  0
 44 52  1  0  0  0  0
 45 54  1  0  0  0  0
 46 48  1  0  0  0  0
 46 51  1  0  0  0  0
 47 70  1  0  0  0  0
 48 71  1  0  0  0  0
 49 51  1  0  0  0  0
 49 71  1  0  0  0  0
 50 54  1  0  0  0  0
 50 70  1  0  0  0  0
 52 74  1  0  0  0  0
 53 69  1  0  0  0  0
 54 68  1  0  0  0  0
 58 65  1  0  0  0  0
 59 66  1  0  0  0  0
 60 66  1  0  0  0  0
 61 66  1  0  0  0  0
 62 76  1  0  0  0  0
 63 83  1  0  0  0  0
 64 66  1  0  0  0  0
 64 75  1  0  0  0  0
 65 76  1  0  0  0  0
 67 68  1  0  0  0  0
M  CHG  1  76   1
M  ISO  4  38 100  63 101  71 100  83 101
M  END
> <Batch ID>
0160

> <Smiles>
CNC(C)C(=O)NC(C(=O)N1Cc2cc([101O:1][101CH2:1]c3c(C)c(C)cc(C4CC[100N:0]([100C:0](=O)N5CCCC(n6nc(-c7ccc(Oc8ccc(F)cc8F)cc7)c(C(N)=O)c6N)C5)C4)c3C)ccc2CC1C(=O)NC1CCCc2ccccc21)C(C)(C)C

> <Shape>
0.265

> <Color>
0.046

> <Negative vol penalty>
0.000

$$$$

  -OEChem-04052322093D

 84 93  0     1  0  0  0  0  0999 V2000
  -27.5008  -37.5182   19.9472 C   0  0  0  0  0  0  0  0  0  0  0  0
  -28.0108  -36.3410   19.4091 C   0  0  0  0  0  0  0  0  0  0  0  0
  -22.8612  -15.8009   21.0864 C   0  0  0  0  0  0  0  0  0  0  0  0
  -22.3449  -14.4813   19.1296 C   0  0  0  0  0  0  0  0  0  0  0  0
  -26.8210  -37.4899   21.1641 C   0  0  0  0  0  0  0  0  0  0  0  0
  -27.8422  -35.1349   20.0883 C   0  0  0  0  0  0  0  0  0  0  0  0
  -26.9172  -28.1335   18.8875 C   0  0  0  0  0  0  0  0  0  0  0  0
  -21.7699  -16.6269   20.8173 C   0  0  0  0  0  0  0  0  0  0  0  0
  -21.2535  -15.3072   18.8605 C   0  0  0  0  0  0  0  0  0  0  0  0
  -27.4542  -26.8986   19.2485 C   0  0  0  0  0  0  0  0  0  0  0  0
  -18.0899  -15.6963   19.9831 C   0  0  0  0  0  0  0  0  0  0  0  0
  -16.8858  -15.0840   19.6355 C   0  0  0  0  0  0  0  0  0  0  0  0
  -26.1938  -26.9583   21.3045 C   0  0  0  0  0  0  0  0  0  0  0  0
  -30.3177  -22.9358   20.6783 C   0  0  0  0  0  0  0  0  0  0  0  0
  -28.0237  -22.1780   20.6770 C   0  0  0  0  0  0  0  0  0  0  0  0
  -16.9122  -16.2371   17.5126 C   0  0  0  0  0  0  0  0  0  0  0  0
  -23.1488  -14.7281   20.2425 C   0  0  0  0  0  0  0  0  0  0  0  0
  -24.2855  -12.7065   21.3048 C   0  0  0  0  0  0  0  0  0  0  0  0
  -26.6356  -36.2814   21.8538 C   0  0  0  0  0  0  0  0  0  0  0  0
  -26.0213  -28.7963   19.7386 C   0  0  0  0  0  0  0  0  0  0  0  0
  -27.1604  -35.0906   21.3163 C   0  0  0  0  0  0  0  0  0  0  0  0
  -25.6448  -28.2003   20.9508 C   0  0  0  0  0  0  0  0  0  0  0  0
  -28.9664  -23.1759   20.4298 C   0  0  0  0  0  0  0  0  0  0  0  0
  -30.7264  -21.6976   21.1738 C   0  0  0  0  0  0  0  0  0  0  0  0
  -28.4324  -20.9398   21.1725 C   0  0  0  0  0  0  0  0  0  0  0  0
  -20.9660  -16.3800   19.7044 C   0  0  0  0  0  0  0  0  0  0  0  0
  -27.0948  -26.3122   20.4585 C   0  0  0  0  0  0  0  0  0  0  0  0
  -18.7051  -16.5791   19.0955 C   0  0  0  0  0  0  0  0  0  0  0  0
  -29.7838  -20.6996   21.4210 C   0  0  0  0  0  0  0  0  0  0  0  0
  -16.2970  -15.3544   18.4003 C   0  0  0  0  0  0  0  0  0  0  0  0
  -18.1163  -16.8495   17.8602 C   0  0  0  0  0  0  0  0  0  0  0  0
  -24.2763  -13.8749   20.5196 C   0  0  0  0  0  0  0  0  0  0  0  0
  -25.5867  -12.2697   21.2551 C   0  0  0  0  0  0  0  0  0  0  0  0
  -23.2137  -12.0728   22.0156 C   0  0  0  0  0  0  0  0  0  0  0  0
  -26.0364  -31.5708   21.2897 C   0  0  0  0  0  0  0  0  0  0  0  0
  -22.9874  -30.7360   22.0170 C   0  0  0  0  0  0  0  0  0  0  0  0
  -20.6788  -28.2538   22.4116 C   0  0  0  0  0  0  0  0  0  0  0  0
  -30.7519  -15.2397   20.1313 C   0  0  0  0  0  0  0  0  0  0  0  0
  -25.9352  -36.3078   23.1893 C   0  0  0  0  0  0  0  0  0  0  0  0
  -25.4302  -30.1153   19.3224 C   0  0  0  0  0  0  0  0  0  0  0  0
  -24.6712  -28.8613   21.8907 C   0  0  0  0  0  0  0  0  0  0  0  0
  -25.4731  -34.9318   23.6621 C   0  0  0  0  0  0  0  0  0  0  0  0
  -29.4630  -12.3125   18.4877 C   0  0  0  0  0  0  0  0  0  0  0  0
  -26.5877  -33.9052   23.4871 C   0  0  0  0  0  0  0  0  0  0  0  0
  -27.9797  -12.3035   18.8421 C   0  0  0  0  0  0  0  0  0  0  0  0
  -29.9765  -13.7377   18.3337 C   0  0  0  0  0  0  0  0  0  0  0  0
  -28.2934  -14.5722   19.9544 C   0  0  0  0  0  0  0  0  0  0  0  0
  -31.4083  -17.3440   21.4139 C   0  0  0  0  0  0  0  0  0  0  0  0
  -29.4307  -17.4412   20.6349 C   0  0  0  0  0  0  0  0  0  0  0  0
  -26.9762  -33.7588   22.0109 C   0  0  1  0  0  0  0  0  0  0  0  0
  -24.9234  -30.9414   20.5007 C   0  0  1  0  0  0  0  0  0  0  0  0
  -27.7229  -13.1472   20.0989 C   0  0  1  0  0  0  0  0  0  0  0  0
  -30.5141  -18.4912   20.9260 C   0  0  0  0  0  0  0  0  0  0  0  0
  -32.1776  -21.4595   21.4337 C   0  0  0  0  0  0  0  0  0  0  0  0
  -27.4083  -19.8841   21.4312 C   0  0  0  0  0  0  0  0  0  0  0  0
  -18.2809  -27.8768   23.0480 C   0  0  0  0  0  0  0  0  0  0  0  0
  -23.6994  -31.1765   24.9512 C   0  0  0  0  0  0  0  0  0  0  0  0
  -21.6359  -29.9015   25.5711 C   0  0  0  0  0  0  0  0  0  0  0  0
  -21.4452  -32.0304   24.2851 C   0  0  0  0  0  0  0  0  0  0  0  0
  -20.0420  -27.0778   19.7714 C   0  0  0  0  0  0  0  0  0  0  0  0
  -28.5293  -24.4995   19.8995 C   0  0  0  0  0  0  0  0  0  1  0  0
  -22.3283  -29.9609   23.1323 C   0  0  1  0  0  0  0  0  0  0  0  0
  -19.2551  -28.1124   21.9042 C   0  0  2  0  0  0  0  0  0  0  0  0
  -22.2971  -30.7555   24.4683 C   0  0  0  0  0  0  0  0  0  0  0  0
  -25.4764  -14.1622   20.0086 N   0  0  0  0  0  0  0  0  0  0  0  0
  -26.2519  -13.1681   20.4738 N   0  0  0  0  0  0  0  0  0  0  0  0
  -24.1255  -30.1530   21.4420 N   0  0  0  0  0  0  0  0  0  0  0  0
  -29.6964  -14.5563   19.5173 N   0  0  0  0  0  0  0  0  0  0  0  0
  -30.4798  -16.4413   20.7439 N   0  0  0  0  0  0  0  0  0  0  0  0
  -26.2153  -11.2086   21.8040 N   0  0  0  0  0  0  0  0  0  0  0  0
  -21.9396  -12.6542   21.9605 N   0  0  0  0  0  0  0  0  0  0  0  0
  -26.0009  -32.9520   21.3092 N   0  0  0  0  0  0  0  0  0  0  0  0
  -21.0121  -29.5726   22.6370 N   0  0  0  0  0  0  0  0  0  0  0  0
  -19.1540  -26.9662   20.9572 N   0  3  0  0  0  0  0  0  0  0  0  0
  -23.3843  -11.0310   22.6933 O   0  0  0  0  0  0  0  0  0  0  0  0
  -26.8652  -30.8562   21.8412 O   0  0  0  0  0  0  0  0  0  0  0  0
  -22.5060  -31.8155   21.6642 O   0  0  0  0  0  0  0  0  0  0  0  0
  -21.4199  -27.2903   22.5935 O   0  0  0  0  0  0  0  0  0  0  0  0
  -31.9119  -14.8071   20.1073 O   0  0  0  0  0  0  0  0  0  0  0  0
  -19.9009  -17.1857   19.4417 O   0  0  0  0  0  0  0  0  0  0  0  0
  -30.1832  -19.4898   21.9060 O   0  0  0  0  0  0  0  0  0  0  0  0
  -27.6217  -25.0989   20.8161 O   0  0  0  0  0  0  0  0  0  1  0  0
  -15.1415  -14.7651   18.0660 F   0  0  0  0  0  0  0  0  0  0  0  0
  -18.7032  -17.6958   17.0028 F   0  0  0  0  0  0  0  0  0  0  0  0
  1  2  1  0  0  0  0
  1  5  2  0  0  0  0
  2  6  2  0  0  0  0
  3  8  2  0  0  0  0
  3 17  1  0  0  0  0
  4  9  1  0  0  0  0
  4 17  2  0  0  0  0
  5 19  1  0  0  0  0
  6 21  1  0  0  0  0
  7 10  2  0  0  0  0
  7 20  1  0  0  0  0
  8 26  1  0  0  0  0
  9 26  2  0  0  0  0
 10 27  1  0  0  0  0
 11 12  2  0  0  0  0
 11 28  1  0  0  0  0
 12 30  1  0  0  0  0
 13 22  1  0  0  0  0
 13 27  2  0  0  0  0
 14 23  1  0  0  0  0
 14 24  2  0  0  0  0
 15 23  2  0  0  0  0
 15 25  1  0  0  0  0
 16 30  2  0  0  0  0
 16 31  1  0  0  0  0
 17 32  1  0  0  0  0
 18 32  1  0  0  0  0
 18 33  2  0  0  0  0
 18 34  1  0  0  0  0
 19 21  2  0  0  0  0
 19 39  1  0  0  0  0
 20 22  2  0  0  0  0
 20 40  1  0  0  0  0
 21 50  1  0  0  0  0
 22 41  1  0  0  0  0
 23 61  1  0  0  0  0
 24 29  1  0  0  0  0
 24 54  1  0  0  0  0
 25 29  2  0  0  0  0
 25 55  1  0  0  0  0
 26 80  1  0  0  0  0
 27 82  1  0  0  0  0
 28 31  2  0  0  0  0
 28 80  1  0  0  0  0
 29 81  1  0  0  0  0
 30 83  1  0  0  0  0
 31 84  1  0  0  0  0
 32 65  2  0  0  0  0
 33 66  1  0  0  0  0
 33 70  1  0  0  0  0
 34 71  1  0  0  0  0
 34 75  2  0  0  0  0
 35 51  1  0  0  0  0
 35 72  1  0  0  0  0
 35 76  2  0  0  0  0
 36 62  1  0  0  0  0
 36 67  1  0  0  0  0
 36 77  2  0  0  0  0
 37 63  1  0  0  0  0
 37 73  1  0  0  0  0
 37 78  2  0  0  0  0
 38 68  1  0  0  0  0
 38 69  1  0  0  0  0
 38 79  2  0  0  0  0
 39 42  1  0  0  0  0
 40 51  1  0  0  0  0
 41 67  1  0  0  0  0
 42 44  1  0  0  0  0
 43 45  1  0  0  0  0
 43 46  1  0  0  0  0
 44 50  1  0  0  0  0
 45 52  1  0  0  0  0
 46 68  1  0  0  0  0
 47 52  1  0  0  0  0
 47 68  1  0  0  0  0
 48 53  1  0  0  0  0
 48 69  1  0  0  0  0
 49 53  1  0  0  0  0
 49 69  1  0  0  0  0
 50 72  1  0  0  0  0
 51 67  1  0  0  0  0
 52 66  1  0  0  0  0
 53 81  1  0  0  0  0
 56 63  1  0  0  0  0
 57 64  1  0  0  0  0
 58 64  1  0  0  0  0
 59 64  1  0  0  0  0
 60 74  1  0  0  0  0
 61 82  1  0  0  0  0
 62 64  1  0  0  0  0
 62 73  1  0  0  0  0
 63 74  1  0  0  0  0
 65 66  1  0  0  0  0
M  CHG  1  74   1
M  ISO  4  38 100  61 101  69 100  82 101
M  END
> <Batch ID>
0160

> <Smiles>
CNC(C)C(=O)NC(C(=O)N1Cc2cc([101O:1][101CH2:1]c3cc(C)c(OC4C[100N:0]([100C:0](=O)N5CCCC(n6nc(-c7ccc(Oc8ccc(F)cc8F)cc7)c(C(N)=O)c6N)C5)C4)c(C)c3)ccc2CC1C(=O)NC1CCCc2ccccc21)C(C)(C)C

> <Shape>
0.303

> <Color>
0.110

> <Negative vol penalty>
0.000

$$$$

  -OEChem-04052322093D

 90100  0     1  0  0  0  0  0999 V2000
  -27.8820  -34.2486   24.5306 C   0  0  0  0  0  0  0  0  0  0  0  0
  -28.0454  -32.9247   24.1357 C   0  0  0  0  0  0  0  0  0  0  0  0
  -22.4339  -15.6047   22.7918 C   0  0  0  0  0  0  0  0  0  0  0  0
  -23.7461  -15.1030   24.7574 C   0  0  0  0  0  0  0  0  0  0  0  0
  -26.6216  -34.7127   24.9047 C   0  0  0  0  0  0  0  0  0  0  0  0
  -26.9487  -32.0638   24.1156 C   0  0  0  0  0  0  0  0  0  0  0  0
  -26.3850  -17.8783   16.5915 C   0  0  0  0  0  0  0  0  0  0  0  0
  -26.7637  -29.2507   19.9088 C   0  0  0  0  0  0  0  0  0  0  0  0
  -25.3546  -16.9625   16.3791 C   0  0  0  0  0  0  0  0  0  0  0  0
  -21.4721  -16.2220   23.5914 C   0  0  0  0  0  0  0  0  0  0  0  0
  -22.7843  -15.7204   25.5571 C   0  0  0  0  0  0  0  0  0  0  0  0
  -27.6186  -28.1516   19.8398 C   0  0  0  0  0  0  0  0  0  0  0  0
  -18.9236  -15.2763   25.6003 C   0  0  0  0  0  0  0  0  0  0  0  0
  -17.5842  -14.9813   25.3461 C   0  0  0  0  0  0  0  0  0  0  0  0
  -25.7908  -26.6994   20.4477 C   0  0  0  0  0  0  0  0  0  0  0  0
  -27.9346  -16.0560   16.9304 C   0  0  0  0  0  0  0  0  0  0  0  0
  -17.1552  -17.3161   24.8968 C   0  0  0  0  0  0  0  0  0  0  0  0
  -23.5709  -15.0451   23.3748 C   0  0  0  0  0  0  0  0  0  0  0  0
  -24.3804  -13.2989   21.7006 C   0  0  0  0  0  0  0  0  0  0  0  0
  -27.6751  -17.4250   16.8671 C   0  0  0  0  0  0  0  0  0  0  0  0
  -25.5070  -33.8596   24.8800 C   0  0  0  0  0  0  0  0  0  0  0  0
  -25.4162  -29.0835   20.2591 C   0  0  0  0  0  0  0  0  0  0  0  0
  -25.6724  -32.5166   24.4910 C   0  0  0  0  0  0  0  0  0  0  0  0
  -24.9203  -27.7977   20.5180 C   0  0  0  0  0  0  0  0  0  0  0  0
  -25.6141  -15.5935   16.4423 C   0  0  0  0  0  0  0  0  0  0  0  0
  -21.6472  -16.2799   24.9741 C   0  0  0  0  0  0  0  0  0  0  0  0
  -27.1329  -26.8760   20.1120 C   0  0  0  0  0  0  0  0  0  0  0  0
  -19.3788  -16.5912   25.5028 C   0  0  0  0  0  0  0  0  0  0  0  0
  -16.7000  -16.0011   24.9944 C   0  0  0  0  0  0  0  0  0  0  0  0
  -26.9042  -15.1402   16.7179 C   0  0  0  0  0  0  0  0  0  0  0  0
  -18.4946  -17.6111   25.1510 C   0  0  0  0  0  0  0  0  0  0  0  0
  -24.5645  -14.4068   22.5494 C   0  0  0  0  0  0  0  0  0  0  0  0
  -25.6178  -13.0825   21.1452 C   0  0  0  0  0  0  0  0  0  0  0  0
  -23.1967  -12.5338   21.4377 C   0  0  0  0  0  0  0  0  0  0  0  0
  -23.5747  -30.1018   22.6414 C   0  0  0  0  0  0  0  0  0  0  0  0
  -21.2226  -28.6943   20.9068 C   0  0  0  0  0  0  0  0  0  0  0  0
  -20.3418  -26.3656   18.5727 C   0  0  0  0  0  0  0  0  0  0  0  0
  -30.3277  -16.6311   20.1516 C   0  0  0  0  0  0  0  0  0  0  0  0
  -24.1734  -34.3943   25.3384 C   0  0  0  0  0  0  0  0  0  0  0  0
  -24.5008  -30.2762   20.3030 C   0  0  0  0  0  0  0  0  0  0  0  0
  -23.4771  -27.5622   20.8787 C   0  0  0  0  0  0  0  0  0  0  0  0
  -22.9927  -33.5167   24.9308 C   0  0  0  0  0  0  0  0  0  0  0  0
  -30.2824  -13.6375   22.0615 C   0  0  0  0  0  0  0  0  0  0  0  0
  -23.2887  -32.0506   25.2303 C   0  0  0  0  0  0  0  0  0  0  0  0
  -28.7956  -13.3909   22.3235 C   0  0  0  0  0  0  0  0  0  0  0  0
  -28.7550  -24.6183   18.0969 C   0  0  0  0  0  0  0  0  0  0  0  0
  -27.3916  -23.4799   19.8797 C   0  0  0  0  0  0  0  0  0  0  0  0
  -29.9207  -19.6499   18.4890 C   0  0  0  0  0  0  0  0  0  0  0  0
  -30.6218  -15.1260   22.0944 C   0  0  0  0  0  0  0  0  0  0  0  0
  -28.3157  -15.7233   21.4689 C   0  0  0  0  0  0  0  0  0  0  0  0
  -28.5083  -23.4443   17.1625 C   0  0  0  0  0  0  0  0  0  0  0  0
  -27.1473  -22.3085   18.9416 C   0  0  0  0  0  0  0  0  0  0  0  0
  -28.8110  -18.4343   17.1020 C   0  0  1  0  0  0  0  0  0  0  0  0
  -24.5024  -31.5587   24.4324 C   0  0  1  0  0  0  0  0  0  0  0  0
  -23.2670  -30.0507   21.1716 C   0  0  1  0  0  0  0  0  0  0  0  0
  -28.4875  -19.7367   17.9085 C   0  0  2  0  0  0  0  0  0  0  0  0
  -27.9125  -14.2408   21.3898 C   0  0  2  0  0  0  0  0  0  0  0  0
  -29.8942  -18.1355   18.1876 C   0  0  2  0  0  0  0  0  0  0  0  0
  -27.6298  -24.7785   19.1156 C   0  0  0  0  0  0  0  0  0  1  0  0
  -24.5099  -14.6171   16.2153 C   0  0  0  0  0  0  0  0  0  0  0  0
  -18.3402  -25.4224   17.3888 C   0  0  0  0  0  0  0  0  0  0  0  0
  -20.4727  -27.1364   23.4209 C   0  0  0  0  0  0  0  0  0  0  0  0
  -19.1545  -25.5741   21.9753 C   0  0  0  0  0  0  0  0  0  0  0  0
  -18.5260  -27.9849   22.1000 C   0  0  0  0  0  0  0  0  0  0  0  0
  -21.3738  -27.1917   15.9248 C   0  0  0  0  0  0  0  0  0  0  0  0
  -28.1692  -20.9748   17.0990 C   0  0  0  0  0  0  0  0  0  0  0  0
  -20.6177  -27.3124   20.8491 C   0  0  1  0  0  0  0  0  0  0  0  0
  -19.4546  -26.4563   17.3443 C   0  0  2  0  0  0  0  0  0  0  0  0
  -19.7204  -27.0063   22.0815 C   0  0  0  0  0  0  0  0  0  0  0  0
  -25.8200  -14.8624   22.5376 N   0  0  0  0  0  0  0  0  0  0  0  0
  -26.4361  -14.0366   21.6747 N   0  0  0  0  0  0  0  0  0  0  0  0
  -22.6230  -28.7609   20.9148 N   0  0  0  0  0  0  0  0  0  0  0  0
  -29.7512  -15.8720   21.1821 N   0  0  0  0  0  0  0  0  0  0  0  0
  -26.0749  -12.1711   20.2605 N   0  0  0  0  0  0  0  0  0  0  0  0
  -22.0106  -12.8917   22.0930 N   0  0  0  0  0  0  0  0  0  0  0  0
  -24.1312  -31.2959   23.0585 N   0  0  0  0  0  0  0  0  0  0  0  0
  -19.9246  -27.2234   19.5685 N   0  0  0  0  0  0  0  0  0  0  0  0
  -29.4382  -17.3043   19.3205 N   0  0  0  0  0  0  0  0  0  0  0  0
  -28.3036  -22.1886   17.9768 N   0  3  0  0  0  0  0  0  0  0  0  0
  -20.2563  -26.2302   16.1085 N   0  3  0  0  0  0  0  0  0  0  0  0
  -23.1948  -11.5514   20.6578 O   0  0  0  0  0  0  0  0  0  0  0  0
  -23.3244  -29.1304   23.3453 O   0  0  0  0  0  0  0  0  0  0  0  0
  -20.4799  -29.6788   20.9363 O   0  0  0  0  0  0  0  0  0  0  0  0
  -21.3060  -25.6068   18.6435 O   0  0  0  0  0  0  0  0  0  0  0  0
  -31.5485  -16.7024   19.9733 O   0  0  0  0  0  0  0  0  0  0  0  0
  -20.7090  -16.8824   25.7546 O   0  0  0  0  0  0  0  0  0  0  0  0
  -27.9654  -25.8015   20.0460 O   0  0  0  0  0  0  0  0  0  1  0  0
  -15.4142  -15.7175   24.7489 F   0  0  0  0  0  0  0  0  0  0  0  0
  -27.1629  -13.8265   16.7818 F   0  0  0  0  0  0  0  0  0  0  0  0
  -18.9263  -18.8761   25.0546 F   0  0  0  0  0  0  0  0  0  0  0  0
  1  2  1  0  0  0  0
  1  5  2  0  0  0  0
  2  6  2  0  0  0  0
  3 10  2  0  0  0  0
  3 18  1  0  0  0  0
  4 11  1  0  0  0  0
  4 18  2  0  0  0  0
  5 21  1  0  0  0  0
  6 23  1  0  0  0  0
  7  9  2  0  0  0  0
  7 20  1  0  0  0  0
  8 12  2  0  0  0  0
  8 22  1  0  0  0  0
  9 25  1  0  0  0  0
 10 26  1  0  0  0  0
 11 26  2  0  0  0  0
 12 27  1  0  0  0  0
 13 14  2  0  0  0  0
 13 28  1  0  0  0  0
 14 29  1  0  0  0  0
 15 24  1  0  0  0  0
 15 27  2  0  0  0  0
 16 20  2  0  0  0  0
 16 30  1  0  0  0  0
 17 29  2  0  0  0  0
 17 31  1  0  0  0  0
 18 32  1  0  0  0  0
 19 32  1  0  0  0  0
 19 33  2  0  0  0  0
 19 34  1  0  0  0  0
 20 53  1  0  0  0  0
 21 23  2  0  0  0  0
 21 39  1  0  0  0  0
 22 24  2  0  0  0  0
 22 40  1  0  0  0  0
 23 54  1  0  0  0  0
 24 41  1  0  0  0  0
 25 30  2  0  0  0  0
 25 60  1  0  0  0  0
 26 86  1  0  0  0  0
 27 87  1  0  0  0  0
 28 31  2  0  0  0  0
 28 86  1  0  0  0  0
 29 88  1  0  0  0  0
 30 89  1  0  0  0  0
 31 90  1  0  0  0  0
 32 70  2  0  0  0  0
 33 71  1  0  0  0  0
 33 74  1  0  0  0  0
 34 75  1  0  0  0  0
 34 81  2  0  0  0  0
 35 55  1  0  0  0  0
 35 76  1  0  0  0  0
 35 82  2  0  0  0  0
 36 67  1  0  0  0  0
 36 72  1  0  0  0  0
 36 83  2  0  0  0  0
 37 68  1  0  0  0  0
 37 77  1  0  0  0  0
 37 84  2  0  0  0  0
 38 73  1  0  0  0  0
 38 78  1  0  0  0  0
 38 85  2  0  0  0  0
 39 42  1  0  0  0  0
 40 55  1  0  0  0  0
 41 72  1  0  0  0  0
 42 44  1  0  0  0  0
 43 45  1  0  0  0  0
 43 49  1  0  0  0  0
 44 54  1  0  0  0  0
 45 57  1  0  0  0  0
 46 51  1  0  0  0  0
 46 59  1  0  0  0  0
 47 52  1  0  0  0  0
 47 59  1  0  0  0  0
 48 56  1  0  0  0  0
 48 58  1  0  0  0  0
 49 73  1  0  0  0  0
 50 57  1  0  0  0  0
 50 73  1  0  0  0  0
 51 79  1  0  0  0  0
 52 79  1  0  0  0  0
 53 56  1  0  0  0  0
 53 58  1  0  0  0  0
 54 76  1  0  0  0  0
 55 72  1  0  0  0  0
 56 66  1  0  0  0  0
 57 71  1  0  0  0  0
 58 78  1  0  0  0  0
 59 87  1  0  0  0  0
 61 68  1  0  0  0  0
 62 69  1  0  0  0  0
 63 69  1  0  0  0  0
 64 69  1  0  0  0  0
 65 80  1  0  0  0  0
 66 79  1  0  0  0  0
 67 69  1  0  0  0  0
 67 77  1  0  0  0  0
 68 80  1  0  0  0  0
 70 71  1  0  0  0  0
M  CHG  2  79   1  80   1
M  ISO  4  38 100  59 101  78 100  87 101
M  END
> <Batch ID>
0160

> <Smiles>
CNC(C)C(=O)NC(C(=O)N1Cc2cc([101O:1][101CH:1]3CCN(CC4CC([100NH:0][100C:0](=O)N5CCCC(n6nc(-c7ccc(Oc8ccc(F)cc8F)cc7)c(C(N)=O)c6N)C5)C4c4ccc(C)c(F)c4)CC3)ccc2CC1C(=O)NC1CCCc2ccccc21)C(C)(C)C

> <Shape>
0.244

> <Color>
0.076

> <Negative vol penalty>
0.000

$$$$
