
  -OEChem-04052322123D

 84 93  0     1  0  0  0  0  0999 V2000
  -32.3470  -33.9739   20.5898 C   0  0  0  0  0  0  0  0  0  0  0  0
  -32.1588  -32.8764   19.7558 C   0  0  0  0  0  0  0  0  0  0  0  0
  -23.2397   -9.8200   19.8468 C   0  0  0  0  0  0  0  0  0  0  0  0
  -23.7223   -9.8097   22.2141 C   0  0  0  0  0  0  0  0  0  0  0  0
  -31.7453  -34.0038   21.8472 C   0  0  0  0  0  0  0  0  0  0  0  0
  -31.3697  -31.8076   20.1793 C   0  0  0  0  0  0  0  0  0  0  0  0
  -26.8793  -26.8351   17.6443 C   0  0  0  0  0  0  0  0  0  0  0  0
  -22.5126   -8.6383   19.9899 C   0  0  0  0  0  0  0  0  0  0  0  0
  -22.9951   -8.6280   22.3572 C   0  0  0  0  0  0  0  0  0  0  0  0
  -26.6756  -25.4560   17.6665 C   0  0  0  0  0  0  0  0  0  0  0  0
  -23.4668   -5.3284   21.7904 C   0  0  0  0  0  0  0  0  0  0  0  0
  -24.0288   -4.3111   22.5615 C   0  0  0  0  0  0  0  0  0  0  0  0
  -25.6214  -25.6525   19.8273 C   0  0  0  0  0  0  0  0  0  0  0  0
  -28.0695  -19.1588   19.2244 C   0  0  0  0  0  0  0  0  0  0  0  0
  -22.1324   -4.3963   24.0560 C   0  0  0  0  0  0  0  0  0  0  0  0
  -23.8446  -10.4057   20.9589 C   0  0  0  0  0  0  0  0  0  0  0  0
  -24.1090  -12.9426   20.9169 C   0  0  0  0  0  0  0  0  0  0  0  0
  -30.9406  -32.9391   22.2824 C   0  0  0  0  0  0  0  0  0  0  0  0
  -26.4646  -27.6332   18.7202 C   0  0  0  0  0  0  0  0  0  0  0  0
  -30.7578  -31.8227   21.4442 C   0  0  0  0  0  0  0  0  0  0  0  0
  -25.8187  -27.0417   19.8152 C   0  0  0  0  0  0  0  0  0  0  0  0
  -28.4827  -18.0987   18.4368 C   0  0  0  0  0  0  0  0  0  0  0  0
  -28.9077  -18.2982   17.1196 C   0  0  0  0  0  0  0  0  0  0  0  0
  -28.9304  -19.5630   16.5592 C   0  0  0  0  0  0  0  0  0  0  0  0
  -28.5175  -20.6405   17.3461 C   0  0  0  0  0  0  0  0  0  0  0  0
  -22.3903   -8.0423   21.2450 C   0  0  0  0  0  0  0  0  0  0  0  0
  -26.0492  -24.8641   18.7594 C   0  0  0  0  0  0  0  0  0  0  0  0
  -22.2376   -5.8798   22.1521 C   0  0  0  0  0  0  0  0  0  0  0  0
  -28.0910  -20.4400   18.6692 C   0  0  0  0  0  0  0  0  0  0  0  0
  -23.3616   -3.8449   23.6943 C   0  0  0  0  0  0  0  0  0  0  0  0
  -21.5704   -5.4137   23.2849 C   0  0  0  0  0  0  0  0  0  0  0  0
  -24.5963  -11.6261   20.8117 C   0  0  0  0  0  0  0  0  0  0  0  0
  -25.2094  -13.7346   20.6969 C   0  0  0  0  0  0  0  0  0  0  0  0
  -22.7805  -13.4080   21.1893 C   0  0  0  0  0  0  0  0  0  0  0  0
  -27.9370  -29.5218   20.8103 C   0  0  0  0  0  0  0  0  0  0  0  0
  -24.9038  -30.2337   21.7133 C   0  0  0  0  0  0  0  0  0  0  0  0
  -21.6263  -29.2930   21.8533 C   0  0  0  0  0  0  0  0  0  0  0  0
  -29.7324  -14.7659   17.5081 C   0  0  0  0  0  0  0  0  0  0  0  0
  -30.3495  -32.9954   23.6688 C   0  0  0  0  0  0  0  0  0  0  0  0
  -26.6676  -29.1227   18.6690 C   0  0  0  0  0  0  0  0  0  0  0  0
  -25.3364  -27.8568   20.9864 C   0  0  0  0  0  0  0  0  0  0  0  0
  -28.5312  -16.6462   18.7840 C   0  0  0  0  0  0  0  0  0  0  0  0
  -29.3007  -16.9997   16.5001 C   0  0  0  0  0  0  0  0  0  0  0  0
  -29.2234  -31.9893   23.8922 C   0  0  0  0  0  0  0  0  0  0  0  0
  -30.1245  -12.5652   20.4162 C   0  0  0  0  0  0  0  0  0  0  0  0
  -29.6244  -30.6141   23.3680 C   0  0  0  0  0  0  0  0  0  0  0  0
  -28.6777  -12.2011   20.7566 C   0  0  0  0  0  0  0  0  0  0  0  0
  -30.3138  -12.8277   18.9235 C   0  0  0  0  0  0  0  0  0  0  0  0
  -27.9388  -13.4359   18.6877 C   0  0  0  0  0  0  0  0  0  0  0  0
  -29.8887  -30.6549   21.8580 C   0  0  1  0  0  0  0  0  0  0  0  0
  -26.6664  -29.7736   20.0487 C   0  0  1  0  0  0  0  0  0  0  0  0
  -27.6918  -13.2408   20.1895 C   0  0  1  0  0  0  0  0  0  0  0  0
  -29.3853  -19.7592   15.1530 C   0  0  0  0  0  0  0  0  0  0  0  0
  -28.5276  -22.0258   16.7796 C   0  0  0  0  0  0  0  0  0  0  0  0
  -19.3886  -30.0665   22.6851 C   0  0  0  0  0  0  0  0  0  0  0  0
  -25.7155  -29.5087   24.5638 C   0  0  0  0  0  0  0  0  0  0  0  0
  -23.2846  -29.3766   25.1482 C   0  0  0  0  0  0  0  0  0  0  0  0
  -24.2644  -31.5369   24.3763 C   0  0  0  0  0  0  0  0  0  0  0  0
  -20.4852  -29.3037   19.1226 C   0  0  0  0  0  0  0  0  0  0  0  0
  -25.8401  -22.8859   20.0628 C   0  0  0  0  0  0  0  0  0  1  0  0
  -26.3502  -21.4646   19.9245 C   0  0  0  0  0  0  0  0  0  0  0  0
  -23.9241  -29.6650   22.7112 C   0  0  1  0  0  0  0  0  0  0  0  0
  -20.3491  -30.0367   21.5065 C   0  0  2  0  0  0  0  0  0  0  0  0
  -24.3079  -30.0059   24.1788 C   0  0  0  0  0  0  0  0  0  0  0  0
  -25.9044  -11.5802   20.5454 N   0  0  0  0  0  0  0  0  0  0  0  0
  -26.2483  -12.8777   20.4813 N   0  0  0  0  0  0  0  0  0  0  0  0
  -25.5636  -29.3083   20.8923 N   0  0  0  0  0  0  0  0  0  0  0  0
  -29.1148  -16.0169   17.5807 N   0  0  0  0  0  0  0  0  0  0  0  0
  -29.3363  -13.8014   18.4398 N   0  0  0  0  0  0  0  0  0  0  0  0
  -25.3799  -15.0735   20.6687 N   0  0  0  0  0  0  0  0  0  0  0  0
  -21.7685  -12.4596   21.3907 N   0  0  0  0  0  0  0  0  0  0  0  0
  -28.6400  -30.6686   21.1265 N   0  0  0  0  0  0  0  0  0  0  0  0
  -22.6069  -30.1477   22.3105 N   0  0  0  0  0  0  0  0  0  0  0  0
  -19.6632  -29.3804   20.3577 N   0  3  0  0  0  0  0  0  0  0  0  0
  -22.4959  -14.6288   21.2359 O   0  0  0  0  0  0  0  0  0  0  0  0
  -28.2551  -28.3723   21.0916 O   0  0  0  0  0  0  0  0  0  0  0  0
  -25.0720  -31.4545   21.6593 O   0  0  0  0  0  0  0  0  0  0  0  0
  -21.7411  -28.0751   21.7342 O   0  0  0  0  0  0  0  0  0  0  0  0
  -30.6322  -14.5385   16.6894 O   0  0  0  0  0  0  0  0  0  0  0  0
  -21.6806   -6.8893   21.3850 O   0  0  0  0  0  0  0  0  0  0  0  0
  -25.8485  -23.5090   18.7840 O   0  0  0  0  0  0  0  0  0  1  0  0
  -27.6879  -21.4957   19.4334 O   0  0  0  0  0  0  0  0  0  0  0  0
  -23.9007   -2.8668   24.4338 F   0  0  0  0  0  0  0  0  0  0  0  0
  -20.3887   -5.9387   23.6367 F   0  0  0  0  0  0  0  0  0  0  0  0
  1  2  1  0  0  0  0
  1  5  2  0  0  0  0
  2  6  2  0  0  0  0
  3  8  2  0  0  0  0
  3 16  1  0  0  0  0
  4  9  1  0  0  0  0
  4 16  2  0  0  0  0
  5 18  1  0  0  0  0
  6 20  1  0  0  0  0
  7 10  2  0  0  0  0
  7 19  1  0  0  0  0
  8 26  1  0  0  0  0
  9 26  2  0  0  0  0
 10 27  1  0  0  0  0
 11 12  2  0  0  0  0
 11 28  1  0  0  0  0
 12 30  1  0  0  0  0
 13 21  1  0  0  0  0
 13 27  2  0  0  0  0
 14 22  2  0  0  0  0
 14 29  1  0  0  0  0
 15 30  2  0  0  0  0
 15 31  1  0  0  0  0
 16 32  1  0  0  0  0
 17 32  1  0  0  0  0
 17 33  2  0  0  0  0
 17 34  1  0  0  0  0
 18 20  2  0  0  0  0
 18 39  1  0  0  0  0
 19 21  2  0  0  0  0
 19 40  1  0  0  0  0
 20 50  1  0  0  0  0
 21 41  1  0  0  0  0
 22 23  1  0  0  0  0
 22 42  1  0  0  0  0
 23 24  2  0  0  0  0
 23 43  1  0  0  0  0
 24 25  1  0  0  0  0
 24 53  1  0  0  0  0
 25 29  2  0  0  0  0
 25 54  1  0  0  0  0
 26 80  1  0  0  0  0
 27 81  1  0  0  0  0
 28 31  2  0  0  0  0
 28 80  1  0  0  0  0
 29 82  1  0  0  0  0
 30 83  1  0  0  0  0
 31 84  1  0  0  0  0
 32 65  2  0  0  0  0
 33 66  1  0  0  0  0
 33 70  1  0  0  0  0
 34 71  1  0  0  0  0
 34 75  2  0  0  0  0
 35 51  1  0  0  0  0
 35 72  1  0  0  0  0
 35 76  2  0  0  0  0
 36 62  1  0  0  0  0
 36 67  1  0  0  0  0
 36 77  2  0  0  0  0
 37 63  1  0  0  0  0
 37 73  1  0  0  0  0
 37 78  2  0  0  0  0
 38 68  1  0  0  0  0
 38 69  1  0  0  0  0
 38 79  2  0  0  0  0
 39 44  1  0  0  0  0
 40 51  1  0  0  0  0
 41 67  1  0  0  0  0
 42 68  1  0  0  0  0
 43 68  1  0  0  0  0
 44 46  1  0  0  0  0
 45 47  1  0  0  0  0
 45 48  1  0  0  0  0
 46 50  1  0  0  0  0
 47 52  1  0  0  0  0
 48 69  1  0  0  0  0
 49 52  1  0  0  0  0
 49 69  1  0  0  0  0
 50 72  1  0  0  0  0
 51 67  1  0  0  0  0
 52 66  1  0  0  0  0
 55 63  1  0  0  0  0
 56 64  1  0  0  0  0
 57 64  1  0  0  0  0
 58 64  1  0  0  0  0
 59 74  1  0  0  0  0
 60 61  1  0  0  0  0
 60 81  1  0  0  0  0
 61 82  1  0  0  0  0
 62 64  1  0  0  0  0
 62 73  1  0  0  0  0
 63 74  1  0  0  0  0
 65 66  1  0  0  0  0
M  CHG  1  74   1
M  ISO  4  38 100  60 101  68 100  81 101
M  END
> <Batch ID>
0161

> <Smiles>
CNC(C)C(=O)NC(C(=O)N1Cc2cc([101O:1][101CH2:1]COc3cc4c(c(C)c3C)C[100N:0]([100C:0](=O)N3CCCC(n5nc(-c6ccc(Oc7ccc(F)cc7F)cc6)c(C(N)=O)c5N)C3)C4)ccc2CC1C(=O)NC1CCCc2ccccc21)C(C)(C)C

> <Shape>
0.287

> <Color>
0.201

> <Negative vol penalty>
0.000

$$$$

  -OEChem-04052322123D

 88 97  0     1  0  0  0  0  0999 V2000
  -28.8229  -35.3399   14.0283 C   0  0  0  0  0  0  0  0  0  0  0  0
  -28.6032  -34.0083   14.3658 C   0  0  0  0  0  0  0  0  0  0  0  0
  -23.3767  -10.1164   22.1481 C   0  0  0  0  0  0  0  0  0  0  0  0
  -23.9669   -9.3411   19.9373 C   0  0  0  0  0  0  0  0  0  0  0  0
  -29.2451  -36.2442   15.0019 C   0  0  0  0  0  0  0  0  0  0  0  0
  -28.8066  -33.5799   15.6771 C   0  0  0  0  0  0  0  0  0  0  0  0
  -25.6281  -29.2959   18.6854 C   0  0  0  0  0  0  0  0  0  0  0  0
  -22.5120   -9.0322   22.2975 C   0  0  0  0  0  0  0  0  0  0  0  0
  -23.1021   -8.2568   20.0867 C   0  0  0  0  0  0  0  0  0  0  0  0
  -25.8765  -27.9472   18.9368 C   0  0  0  0  0  0  0  0  0  0  0  0
  -20.4210   -6.2716   23.4028 C   0  0  0  0  0  0  0  0  0  0  0  0
  -20.4557   -5.5762   24.6115 C   0  0  0  0  0  0  0  0  0  0  0  0
  -26.7911  -28.5239   21.0932 C   0  0  0  0  0  0  0  0  0  0  0  0
  -22.7825   -5.0433   24.2380 C   0  0  0  0  0  0  0  0  0  0  0  0
  -24.1041  -10.2709   20.9679 C   0  0  0  0  0  0  0  0  0  0  0  0
  -26.3609  -11.4450   21.1576 C   0  0  0  0  0  0  0  0  0  0  0  0
  -29.4444  -35.8287   16.3280 C   0  0  0  0  0  0  0  0  0  0  0  0
  -25.9699  -30.2713   19.6331 C   0  0  0  0  0  0  0  0  0  0  0  0
  -29.2331  -34.4792   16.6692 C   0  0  0  0  0  0  0  0  0  0  0  0
  -26.5436  -29.8840   20.8525 C   0  0  0  0  0  0  0  0  0  0  0  0
  -28.2581  -22.1794   20.2855 C   0  0  0  0  0  0  0  0  0  0  0  0
  -27.9687  -23.4741   19.8545 C   0  0  0  0  0  0  0  0  0  0  0  0
  -27.2272  -21.3346   20.6971 C   0  0  0  0  0  0  0  0  0  0  0  0
  -25.6177  -23.0792   20.2469 C   0  0  0  0  0  0  0  0  0  0  0  0
  -26.6485  -23.9240   19.8352 C   0  0  0  0  0  0  0  0  0  0  0  0
  -25.9071  -21.7845   20.6779 C   0  0  0  0  0  0  0  0  0  0  0  0
  -22.3747   -8.1024   21.2669 C   0  0  0  0  0  0  0  0  0  0  0  0
  -26.4607  -27.5613   20.1397 C   0  0  0  0  0  0  0  0  0  0  0  0
  -21.5670   -6.3528   22.6117 C   0  0  0  0  0  0  0  0  0  0  0  0
  -21.6364   -4.9620   25.0291 C   0  0  0  0  0  0  0  0  0  0  0  0
  -22.7477   -5.7386   23.0294 C   0  0  0  0  0  0  0  0  0  0  0  0
  -24.9971  -11.3909   20.8127 C   0  0  0  0  0  0  0  0  0  0  0  0
  -26.7516  -12.7164   20.8150 C   0  0  0  0  0  0  0  0  0  0  0  0
  -27.1997  -10.4361   21.7358 C   0  0  0  0  0  0  0  0  0  0  0  0
  -27.9440  -32.7622   19.6764 C   0  0  0  0  0  0  0  0  0  0  0  0
  -26.5726  -33.3034   22.5658 C   0  0  0  0  0  0  0  0  0  0  0  0
  -24.9096  -32.0412   25.2654 C   0  0  0  0  0  0  0  0  0  0  0  0
  -23.6192  -17.7282   20.3713 C   0  0  0  0  0  0  0  0  0  0  0  0
  -29.9467  -36.8324   17.3354 C   0  0  0  0  0  0  0  0  0  0  0  0
  -25.6708  -31.7195   19.3578 C   0  0  0  0  0  0  0  0  0  0  0  0
  -26.9106  -30.8904   21.9113 C   0  0  0  0  0  0  0  0  0  0  0  0
  -29.7782  -36.3788   18.7832 C   0  0  0  0  0  0  0  0  0  0  0  0
  -25.7682  -16.2615   17.7885 C   0  0  0  0  0  0  0  0  0  0  0  0
  -30.2505  -34.9379   18.9496 C   0  0  0  0  0  0  0  0  0  0  0  0
  -25.8841  -14.8246   18.2857 C   0  0  0  0  0  0  0  0  0  0  0  0
  -21.2706  -19.9794   19.5371 C   0  0  0  0  0  0  0  0  0  0  0  0
  -24.4022  -16.8756   18.0978 C   0  0  0  0  0  0  0  0  0  0  0  0
  -22.0413  -18.9620   18.6902 C   0  0  0  0  0  0  0  0  0  0  0  0
  -24.1384  -15.3387   20.0270 C   0  0  0  0  0  0  0  0  0  0  0  0
  -29.4189  -33.9816   18.0862 C   0  0  1  0  0  0  0  0  0  0  0  0
  -26.5311  -32.6740   20.1801 C   0  0  1  0  0  0  0  0  0  0  0  0
  -25.5306  -14.7417   19.7781 C   0  0  1  0  0  0  0  0  0  0  0  0
  -22.4548  -19.9985   20.5157 C   0  0  2  0  0  0  0  0  0  0  0  0
  -29.6740  -21.6959   20.3045 C   0  0  0  0  0  0  0  0  0  0  0  0
  -29.0745  -24.3794   19.4110 C   0  0  0  0  0  0  0  0  0  0  0  0
  -27.5374  -19.9453   21.1585 C   0  0  0  0  0  0  0  0  0  0  0  0
  -24.2016  -23.5624   20.2259 C   0  0  0  0  0  0  0  0  0  0  0  0
  -24.5864  -20.9567   22.6429 C   0  0  0  0  0  0  0  0  0  0  0  0
  -23.9573  -32.7192   27.4860 C   0  0  0  0  0  0  0  0  0  0  0  0
  -29.3850  -33.3759   23.7471 C   0  0  0  0  0  0  0  0  0  0  0  0
  -28.3637  -33.0992   26.0161 C   0  0  0  0  0  0  0  0  0  0  0  0
  -27.8300  -35.1154   24.6476 C   0  0  0  0  0  0  0  0  0  0  0  0
  -22.1694  -31.2693   24.4566 C   0  0  0  0  0  0  0  0  0  0  0  0
  -26.3385  -25.3132   19.3736 C   0  0  0  0  0  0  0  0  0  1  0  0
  -23.4529  -21.1322   20.3866 C   0  0  0  0  0  0  0  0  0  0  0  0
  -24.7840  -20.8645   21.1249 C   0  0  1  0  0  0  0  0  0  0  0  0
  -26.8632  -32.8755   23.9840 C   0  0  1  0  0  0  0  0  0  0  0  0
  -23.6749  -32.5249   26.0043 C   0  0  2  0  0  0  0  0  0  0  0  0
  -28.1055  -33.5975   24.5782 C   0  0  0  0  0  0  0  0  0  0  0  0
  -24.5513  -12.5370   20.2912 N   0  0  0  0  0  0  0  0  0  0  0  0
  -25.6412  -13.3231   20.3059 N   0  0  0  0  0  0  0  0  0  0  0  0
  -26.6043  -32.2947   21.5925 N   0  0  0  0  0  0  0  0  0  0  0  0
  -24.0324  -16.7075   19.5082 N   0  0  0  0  0  0  0  0  0  0  0  0
  -22.9231  -18.7889   19.8354 N   0  0  0  0  0  0  0  0  0  0  0  0
  -27.9331  -13.3635   20.9027 N   0  0  0  0  0  0  0  0  0  0  0  0
  -26.6376   -9.1852   22.0252 N   0  0  0  0  0  0  0  0  0  0  0  0
  -28.1362  -33.7271   18.7061 N   0  0  0  0  0  0  0  0  0  0  0  0
  -25.6313  -33.0899   24.7356 N   0  0  0  0  0  0  0  0  0  0  0  0
  -22.5668  -31.5386   25.8625 N   0  3  0  0  0  0  0  0  0  0  0  0
  -28.4076  -10.6432   22.0034 O   0  0  0  0  0  0  0  0  0  0  0  0
  -28.7970  -32.0115   20.1352 O   0  0  0  0  0  0  0  0  0  0  0  0
  -26.3196  -34.4877   22.3312 O   0  0  0  0  0  0  0  0  0  0  0  0
  -25.2064  -30.8523   25.1711 O   0  0  0  0  0  0  0  0  0  0  0  0
  -23.8364  -17.6825   21.5893 O   0  0  0  0  0  0  0  0  0  0  0  0
  -21.5312   -7.0442   21.4124 O   0  0  0  0  0  0  0  0  0  0  0  0
  -26.7067  -26.2359   20.3892 O   0  0  0  0  0  0  0  0  0  1  0  0
  -21.6700   -4.2956   26.1905 F   0  0  0  0  0  0  0  0  0  0  0  0
  -23.8522   -5.8142   22.2742 F   0  0  0  0  0  0  0  0  0  0  0  0
  1  2  1  0  0  0  0
  1  5  2  0  0  0  0
  2  6  2  0  0  0  0
  3  8  2  0  0  0  0
  3 15  1  0  0  0  0
  4  9  1  0  0  0  0
  4 15  2  0  0  0  0
  5 17  1  0  0  0  0
  6 19  1  0  0  0  0
  7 10  2  0  0  0  0
  7 18  1  0  0  0  0
  8 27  1  0  0  0  0
  9 27  2  0  0  0  0
 10 28  1  0  0  0  0
 11 12  2  0  0  0  0
 11 29  1  0  0  0  0
 12 30  1  0  0  0  0
 13 20  1  0  0  0  0
 13 28  2  0  0  0  0
 14 30  2  0  0  0  0
 14 31  1  0  0  0  0
 15 32  1  0  0  0  0
 16 32  1  0  0  0  0
 16 33  2  0  0  0  0
 16 34  1  0  0  0  0
 17 19  2  0  0  0  0
 17 39  1  0  0  0  0
 18 20  2  0  0  0  0
 18 40  1  0  0  0  0
 19 50  1  0  0  0  0
 20 41  1  0  0  0  0
 21 22  2  0  0  0  0
 21 23  1  0  0  0  0
 21 54  1  0  0  0  0
 22 25  1  0  0  0  0
 22 55  1  0  0  0  0
 23 26  2  0  0  0  0
 23 56  1  0  0  0  0
 24 25  2  0  0  0  0
 24 26  1  0  0  0  0
 24 57  1  0  0  0  0
 25 64  1  0  0  0  0
 26 66  1  0  0  0  0
 27 85  1  0  0  0  0
 28 86  1  0  0  0  0
 29 31  2  0  0  0  0
 29 85  1  0  0  0  0
 30 87  1  0  0  0  0
 31 88  1  0  0  0  0
 32 70  2  0  0  0  0
 33 71  1  0  0  0  0
 33 75  1  0  0  0  0
 34 76  1  0  0  0  0
 34 80  2  0  0  0  0
 35 51  1  0  0  0  0
 35 77  1  0  0  0  0
 35 81  2  0  0  0  0
 36 67  1  0  0  0  0
 36 72  1  0  0  0  0
 36 82  2  0  0  0  0
 37 68  1  0  0  0  0
 37 78  1  0  0  0  0
 37 83  2  0  0  0  0
 38 73  1  0  0  0  0
 38 74  1  0  0  0  0
 38 84  2  0  0  0  0
 39 42  1  0  0  0  0
 40 51  1  0  0  0  0
 41 72  1  0  0  0  0
 42 44  1  0  0  0  0
 43 45  1  0  0  0  0
 43 47  1  0  0  0  0
 44 50  1  0  0  0  0
 45 52  1  0  0  0  0
 46 48  1  0  0  0  0
 46 53  1  0  0  0  0
 47 73  1  0  0  0  0
 48 74  1  0  0  0  0
 49 52  1  0  0  0  0
 49 73  1  0  0  0  0
 50 77  1  0  0  0  0
 51 72  1  0  0  0  0
 52 71  1  0  0  0  0
 53 65  1  0  0  0  0
 53 74  1  0  0  0  0
 58 66  1  0  0  0  0
 59 68  1  0  0  0  0
 60 69  1  0  0  0  0
 61 69  1  0  0  0  0
 62 69  1  0  0  0  0
 63 79  1  0  0  0  0
 64 86  1  0  0  0  0
 65 66  1  0  0  0  0
 67 69  1  0  0  0  0
 67 78  1  0  0  0  0
 68 79  1  0  0  0  0
 70 71  1  0  0  0  0
M  CHG  1  79   1
M  ISO  4  38 100  64 101  74 100  86 101
M  END
> <Batch ID>
0161

> <Smiles>
CNC(C)C(=O)NC(C(=O)N1Cc2cc([101O:1][101CH2:1]c3c(C)c(C)c(C)c(C(C)CC4CC[100N:0]4[100C:0](=O)N4CCCC(n5nc(-c6ccc(Oc7ccc(F)cc7F)cc6)c(C(N)=O)c5N)C4)c3C)ccc2CC1C(=O)NC1CCCc2ccccc21)C(C)(C)C

> <Shape>
0.227

> <Color>
0.108

> <Negative vol penalty>
0.000

$$$$

  -OEChem-04052322123D

 89 98  0     1  0  0  0  0  0999 V2000
  -18.4887  -18.3592   24.1866 C   0  0  0  0  0  0  0  0  0  0  0  0
  -19.0217  -19.5969   24.5322 C   0  0  0  0  0  0  0  0  0  0  0  0
  -26.2469  -18.5885   21.6167 C   0  0  0  0  0  0  0  0  0  0  0  0
  -27.9197  -17.4907   20.2626 C   0  0  0  0  0  0  0  0  0  0  0  0
  -18.9606  -17.6886   23.0590 C   0  0  0  0  0  0  0  0  0  0  0  0
  -20.0278  -20.1642   23.7510 C   0  0  0  0  0  0  0  0  0  0  0  0
  -20.8728  -26.1179   22.5915 C   0  0  0  0  0  0  0  0  0  0  0  0
  -25.3695  -17.5275   21.3929 C   0  0  0  0  0  0  0  0  0  0  0  0
  -27.0423  -16.4297   20.0388 C   0  0  0  0  0  0  0  0  0  0  0  0
  -21.7222  -27.0712   23.1514 C   0  0  0  0  0  0  0  0  0  0  0  0
  -25.9602  -13.6994   21.7106 C   0  0  0  0  0  0  0  0  0  0  0  0
  -26.4673  -12.4053   21.8280 C   0  0  0  0  0  0  0  0  0  0  0  0
  -23.3125  -26.6866   21.3788 C   0  0  0  0  0  0  0  0  0  0  0  0
  -25.8812  -11.9669   19.5255 C   0  0  0  0  0  0  0  0  0  0  0  0
  -27.5220  -18.5701   21.0515 C   0  0  0  0  0  0  0  0  0  0  0  0
  -28.9188  -20.1176   22.5220 C   0  0  0  0  0  0  0  0  0  0  0  0
  -19.9662  -18.2523   22.2581 C   0  0  0  0  0  0  0  0  0  0  0  0
  -21.2424  -25.4328   21.4251 C   0  0  0  0  0  0  0  0  0  0  0  0
  -20.5146  -19.4998   22.6123 C   0  0  0  0  0  0  0  0  0  0  0  0
  -22.4649  -25.7269   20.8046 C   0  0  0  0  0  0  0  0  0  0  0  0
  -28.0261  -27.0668   23.3941 C   0  0  0  0  0  0  0  0  0  0  0  0
  -28.0947  -25.8927   24.1439 C   0  0  0  0  0  0  0  0  0  0  0  0
  -27.0539  -28.0241   23.6845 C   0  0  0  0  0  0  0  0  0  0  0  0
  -27.1910  -25.6756   25.1840 C   0  0  0  0  0  0  0  0  0  0  0  0
  -26.2187  -26.6327   25.4744 C   0  0  0  0  0  0  0  0  0  0  0  0
  -26.1502  -27.8070   24.7246 C   0  0  0  0  0  0  0  0  0  0  0  0
  -25.7672  -16.4482   20.6039 C   0  0  0  0  0  0  0  0  0  0  0  0
  -22.9436  -27.3537   22.5467 C   0  0  0  0  0  0  0  0  0  0  0  0
  -25.4136  -14.1273   20.5007 C   0  0  0  0  0  0  0  0  0  0  0  0
  -26.4278  -11.5391   20.7355 C   0  0  0  0  0  0  0  0  0  0  0  0
  -25.3741  -13.2610   19.4081 C   0  0  0  0  0  0  0  0  0  0  0  0
  -28.4287  -19.6660   21.2819 C   0  0  0  0  0  0  0  0  0  0  0  0
  -29.7375  -21.1734   22.2037 C   0  0  0  0  0  0  0  0  0  0  0  0
  -28.6574  -19.6264   23.8434 C   0  0  0  0  0  0  0  0  0  0  0  0
  -21.7809  -22.3883   20.6873 C   0  0  0  0  0  0  0  0  0  0  0  0
  -22.0359  -23.5684   17.6765 C   0  0  0  0  0  0  0  0  0  0  0  0
  -22.6800  -26.2441   15.6584 C   0  0  0  0  0  0  0  0  0  0  0  0
  -30.7752  -25.8020   19.3527 C   0  0  0  0  0  0  0  0  0  0  0  0
  -20.4773  -17.4682   21.0755 C   0  0  0  0  0  0  0  0  0  0  0  0
  -20.3031  -24.4266   20.8188 C   0  0  0  0  0  0  0  0  0  0  0  0
  -22.8993  -25.0339   19.5399 C   0  0  0  0  0  0  0  0  0  0  0  0
  -21.2829  -18.3096   20.0889 C   0  0  0  0  0  0  0  0  0  0  0  0
  -31.5149  -22.7616   17.7583 C   0  0  0  0  0  0  0  0  0  0  0  0
  -22.2937  -19.1791   20.8298 C   0  0  0  0  0  0  0  0  0  0  0  0
  -30.8019  -21.7154   18.6122 C   0  0  0  0  0  0  0  0  0  0  0  0
  -30.4672  -27.3395   22.7153 C   0  0  0  0  0  0  0  0  0  0  0  0
  -30.6732  -24.0249   17.6329 C   0  0  0  0  0  0  0  0  0  0  0  0
  -29.6114  -23.6053   19.8349 C   0  0  0  0  0  0  0  0  0  0  0  0
  -29.0051  -27.3021   22.2670 C   0  0  1  0  0  0  0  0  0  0  0  0
  -21.5897  -20.1592   21.7760 C   0  0  1  0  0  0  0  0  0  0  0  0
  -21.0081  -23.4198   19.9150 C   0  0  1  0  0  0  0  0  0  0  0  0
  -30.4183  -22.2993   19.9816 C   0  0  1  0  0  0  0  0  0  0  0  0
  -31.2338  -27.1424   21.4067 C   0  0  1  0  0  0  0  0  0  0  0  0
  -28.9983  -26.2189   21.1587 C   0  0  1  0  0  0  0  0  0  0  0  0
  -29.1378  -24.8660   23.8322 C   0  0  0  0  0  0  0  0  0  0  0  0
  -26.9797  -29.2834   22.8797 C   0  0  0  0  0  0  0  0  0  0  0  0
  -27.2628  -24.4144   25.9861 C   0  0  0  0  0  0  0  0  0  0  0  0
  -25.2484  -26.3985   26.5892 C   0  0  0  0  0  0  0  0  0  0  0  0
  -32.6227  -26.5707   21.6714 C   0  0  0  0  0  0  0  0  0  0  0  0
  -27.9138  -26.5353   20.1265 C   0  0  0  0  0  0  0  0  0  0  0  0
  -22.8499  -26.8915   13.2398 C   0  0  0  0  0  0  0  0  0  0  0  0
  -24.7533  -22.1919   17.5014 C   0  0  0  0  0  0  0  0  0  0  0  0
  -25.2717  -23.6219   15.5128 C   0  0  0  0  0  0  0  0  0  0  0  0
  -23.3614  -22.0198   15.4308 C   0  0  0  0  0  0  0  0  0  0  0  0
  -20.4864  -28.2145   15.9118 C   0  0  0  0  0  0  0  0  0  0  0  0
  -25.1068  -28.8333   25.0363 C   0  0  0  0  0  0  0  0  0  0  0  0
  -23.7232  -28.4519   24.5067 C   0  0  0  0  0  0  0  0  0  1  0  0
  -23.1636  -24.1136   16.8339 C   0  0  1  0  0  0  0  0  0  0  0  0
  -21.9399  -26.7992   14.4548 C   0  0  2  0  0  0  0  0  0  0  0  0
  -24.1305  -22.9986   16.3446 C   0  0  0  0  0  0  0  0  0  0  0  0
  -28.8968  -20.3770   20.2526 N   0  0  0  0  0  0  0  0  0  0  0  0
  -29.6896  -21.2860   20.8453 N   0  0  0  0  0  0  0  0  0  0  0  0
  -21.9490  -24.0535   18.9891 N   0  0  0  0  0  0  0  0  0  0  0  0
  -30.2957  -24.5518   18.9444 N   0  0  0  0  0  0  0  0  0  0  0  0
  -30.3757  -26.2568   20.6124 N   0  0  0  0  0  0  0  0  0  0  0  0
  -30.4864  -22.0074   22.9561 N   0  0  0  0  0  0  0  0  0  0  0  0
  -29.4919  -18.6268   24.3618 N   0  0  0  0  0  0  0  0  0  0  0  0
  -21.0413  -21.2734   21.0329 N   0  0  0  0  0  0  0  0  0  0  0  0
  -22.5381  -24.8762   15.7589 N   0  0  0  0  0  0  0  0  0  0  0  0
  -21.4144  -28.1615   14.7530 N   0  3  0  0  0  0  0  0  0  0  0  0
  -27.7019  -20.0494   24.5373 O   0  0  0  0  0  0  0  0  0  0  0  0
  -22.9613  -22.5883   20.9488 O   0  0  0  0  0  0  0  0  0  0  0  0
  -21.2565  -22.7479   17.1858 O   0  0  0  0  0  0  0  0  0  0  0  0
  -23.3230  -26.9525   16.4299 O   0  0  0  0  0  0  0  0  0  0  0  0
  -31.5158  -26.4805   18.6302 O   0  0  0  0  0  0  0  0  0  0  0  0
  -24.9113  -15.4126   20.3855 O   0  0  0  0  0  0  0  0  0  0  0  0
  -23.7806  -28.2898   23.0953 O   0  0  0  0  0  0  0  0  0  1  0  0
  -26.9161  -10.2969   20.8479 F   0  0  0  0  0  0  0  0  0  0  0  0
  -24.8513  -13.6667   18.2429 F   0  0  0  0  0  0  0  0  0  0  0  0
  1  2  1  0  0  0  0
  1  5  2  0  0  0  0
  2  6  2  0  0  0  0
  3  8  2  0  0  0  0
  3 15  1  0  0  0  0
  4  9  1  0  0  0  0
  4 15  2  0  0  0  0
  5 17  1  0  0  0  0
  6 19  1  0  0  0  0
  7 10  2  0  0  0  0
  7 18  1  0  0  0  0
  8 27  1  0  0  0  0
  9 27  2  0  0  0  0
 10 28  1  0  0  0  0
 11 12  2  0  0  0  0
 11 29  1  0  0  0  0
 12 30  1  0  0  0  0
 13 20  1  0  0  0  0
 13 28  2  0  0  0  0
 14 30  2  0  0  0  0
 14 31  1  0  0  0  0
 15 32  1  0  0  0  0
 16 32  1  0  0  0  0
 16 33  2  0  0  0  0
 16 34  1  0  0  0  0
 17 19  2  0  0  0  0
 17 39  1  0  0  0  0
 18 20  2  0  0  0  0
 18 40  1  0  0  0  0
 19 50  1  0  0  0  0
 20 41  1  0  0  0  0
 21 22  2  0  0  0  0
 21 23  1  0  0  0  0
 21 49  1  0  0  0  0
 22 24  1  0  0  0  0
 22 55  1  0  0  0  0
 23 26  2  0  0  0  0
 23 56  1  0  0  0  0
 24 25  2  0  0  0  0
 24 57  1  0  0  0  0
 25 26  1  0  0  0  0
 25 58  1  0  0  0  0
 26 66  1  0  0  0  0
 27 86  1  0  0  0  0
 28 87  1  0  0  0  0
 29 31  2  0  0  0  0
 29 86  1  0  0  0  0
 30 88  1  0  0  0  0
 31 89  1  0  0  0  0
 32 71  2  0  0  0  0
 33 72  1  0  0  0  0
 33 76  1  0  0  0  0
 34 77  1  0  0  0  0
 34 81  2  0  0  0  0
 35 51  1  0  0  0  0
 35 78  1  0  0  0  0
 35 82  2  0  0  0  0
 36 68  1  0  0  0  0
 36 73  1  0  0  0  0
 36 83  2  0  0  0  0
 37 69  1  0  0  0  0
 37 79  1  0  0  0  0
 37 84  2  0  0  0  0
 38 74  1  0  0  0  0
 38 75  1  0  0  0  0
 38 85  2  0  0  0  0
 39 42  1  0  0  0  0
 40 51  1  0  0  0  0
 41 73  1  0  0  0  0
 42 44  1  0  0  0  0
 43 45  1  0  0  0  0
 43 47  1  0  0  0  0
 44 50  1  0  0  0  0
 45 52  1  0  0  0  0
 46 49  1  0  0  0  0
 46 53  1  0  0  0  0
 47 74  1  0  0  0  0
 48 52  1  0  0  0  0
 48 74  1  0  0  0  0
 49 54  1  0  0  0  0
 50 78  1  0  0  0  0
 51 73  1  0  0  0  0
 52 72  1  0  0  0  0
 53 59  1  0  0  0  0
 53 75  1  0  0  0  0
 54 60  1  0  0  0  0
 54 75  1  0  0  0  0
 61 69  1  0  0  0  0
 62 70  1  0  0  0  0
 63 70  1  0  0  0  0
 64 70  1  0  0  0  0
 65 80  1  0  0  0  0
 66 67  1  0  0  0  0
 67 87  1  0  0  0  0
 68 70  1  0  0  0  0
 68 79  1  0  0  0  0
 69 80  1  0  0  0  0
 71 72  1  0  0  0  0
M  CHG  1  80   1
M  ISO  4  38 100  67 101  75 100  87 101
M  END
> <Batch ID>
0161

> <Smiles>
CNC(C)C(=O)NC(C(=O)N1Cc2cc([101O:1][101CH2:1]Cc3c(C)c(C)c(C)c(C4CC(C)[100N:0]([100C:0](=O)N5CCCC(n6nc(-c7ccc(Oc8ccc(F)cc8F)cc7)c(C(N)=O)c6N)C5)C4C)c3C)ccc2CC1C(=O)NC1CCCc2ccccc21)C(C)(C)C

> <Shape>
0.144

> <Color>
0.055

> <Negative vol penalty>
0.000

$$$$

  -OEChem-04052322123D

 87 96  0     1  0  0  0  0  0999 V2000
  -28.9153  -33.3068   24.0200 C   0  0  0  0  0  0  0  0  0  0  0  0
  -28.7521  -31.9403   23.8169 C   0  0  0  0  0  0  0  0  0  0  0  0
  -23.5582  -11.8007   23.7007 C   0  0  0  0  0  0  0  0  0  0  0  0
  -24.8131  -13.8026   24.2056 C   0  0  0  0  0  0  0  0  0  0  0  0
  -27.8061  -34.1080   24.2878 C   0  0  0  0  0  0  0  0  0  0  0  0
  -27.4796  -31.3738   23.8826 C   0  0  0  0  0  0  0  0  0  0  0  0
  -26.6031  -28.1215   20.1012 C   0  0  0  0  0  0  0  0  0  0  0  0
  -23.0577  -11.7861   25.0025 C   0  0  0  0  0  0  0  0  0  0  0  0
  -24.3125  -13.7880   25.5075 C   0  0  0  0  0  0  0  0  0  0  0  0
  -27.1665  -26.8509   20.2107 C   0  0  0  0  0  0  0  0  0  0  0  0
  -24.9245  -12.1366   28.3936 C   0  0  0  0  0  0  0  0  0  0  0  0
  -25.8232  -12.3629   29.4360 C   0  0  0  0  0  0  0  0  0  0  0  0
  -25.0441  -25.9809   20.9576 C   0  0  0  0  0  0  0  0  0  0  0  0
  -29.8429  -18.8370   18.9657 C   0  0  0  0  0  0  0  0  0  0  0  0
  -24.5490  -14.3004   30.1139 C   0  0  0  0  0  0  0  0  0  0  0  0
  -24.4360  -12.8089   23.3022 C   0  0  0  0  0  0  0  0  0  0  0  0
  -24.2147  -12.9122   20.7630 C   0  0  0  0  0  0  0  0  0  0  0  0
  -26.5182  -33.5527   24.3473 C   0  0  0  0  0  0  0  0  0  0  0  0
  -25.2566  -28.3338   20.4300 C   0  0  0  0  0  0  0  0  0  0  0  0
  -26.3523  -32.1681   24.1528 C   0  0  0  0  0  0  0  0  0  0  0  0
  -24.4654  -27.2546   20.8489 C   0  0  0  0  0  0  0  0  0  0  0  0
  -28.9956  -20.3993   20.6022 C   0  0  0  0  0  0  0  0  0  0  0  0
  -29.1236  -19.9914   19.2745 C   0  0  0  0  0  0  0  0  0  0  0  0
  -30.4342  -18.0902   19.9848 C   0  0  0  0  0  0  0  0  0  0  0  0
  -29.5870  -19.6526   21.6213 C   0  0  0  0  0  0  0  0  0  0  0  0
  -30.3062  -18.4980   21.3125 C   0  0  0  0  0  0  0  0  0  0  0  0
  -23.4348  -12.7797   25.9059 C   0  0  0  0  0  0  0  0  0  0  0  0
  -26.3877  -25.7809   20.6417 C   0  0  0  0  0  0  0  0  0  0  0  0
  -23.8381  -12.9923   28.2112 C   0  0  0  0  0  0  0  0  0  0  0  0
  -25.6354  -13.4447   30.2962 C   0  0  0  0  0  0  0  0  0  0  0  0
  -23.6503  -14.0742   29.0714 C   0  0  0  0  0  0  0  0  0  0  0  0
  -24.9539  -12.8243   21.9577 C   0  0  0  0  0  0  0  0  0  0  0  0
  -25.1631  -12.8887   19.7698 C   0  0  0  0  0  0  0  0  0  0  0  0
  -22.7973  -13.0069   20.5683 C   0  0  0  0  0  0  0  0  0  0  0  0
  -23.7255  -30.0907   22.5917 C   0  0  0  0  0  0  0  0  0  0  0  0
  -21.0959  -29.0582   20.9974 C   0  0  0  0  0  0  0  0  0  0  0  0
  -19.9473  -25.9654   19.5371 C   0  0  0  0  0  0  0  0  0  0  0  0
  -30.9584  -14.3873   19.6298 C   0  0  0  0  0  0  0  0  0  0  0  0
  -25.3553  -34.4510   24.6867 C   0  0  0  0  0  0  0  0  0  0  0  0
  -24.6570  -29.7052   20.2809 C   0  0  0  0  0  0  0  0  0  0  0  0
  -23.0095  -27.4258   21.1946 C   0  0  0  0  0  0  0  0  0  0  0  0
  -23.9958  -33.8340   24.3684 C   0  0  0  0  0  0  0  0  0  0  0  0
  -29.5454  -11.2222   18.8160 C   0  0  0  0  0  0  0  0  0  0  0  0
  -29.1155  -22.7355   21.5656 C   0  0  0  0  0  0  0  0  0  0  0  0
  -26.9835  -21.3760   21.8118 C   0  0  0  0  0  0  0  0  0  0  0  0
  -23.9296  -32.3972   24.8765 C   0  0  0  0  0  0  0  0  0  0  0  0
  -28.1417  -11.2818   19.4211 C   0  0  0  0  0  0  0  0  0  0  0  0
  -28.3607  -23.7050   22.4839 C   0  0  0  0  0  0  0  0  0  0  0  0
  -26.1155  -22.6278   21.9951 C   0  0  0  0  0  0  0  0  0  0  0  0
  -30.5686  -11.9417   19.6920 C   0  0  0  0  0  0  0  0  0  0  0  0
  -28.8168  -13.3929   20.6403 C   0  0  0  0  0  0  0  0  0  0  0  0
  -28.2122  -21.6558   20.9354 C   0  0  0  0  0  0  0  0  0  0  0  0
  -24.9850  -31.5206   24.1916 C   0  0  1  0  0  0  0  0  0  0  0  0
  -23.4088  -29.9076   21.1343 C   0  0  1  0  0  0  0  0  0  0  0  0
  -27.7403  -12.7289   19.7648 C   0  0  2  0  0  0  0  0  0  0  0  0
  -26.9192  -23.9332   22.0423 C   0  0  0  0  0  0  0  0  0  1  0  0
  -28.5007  -20.7733   18.1645 C   0  0  0  0  0  0  0  0  0  0  0  0
  -29.4492  -20.0897   23.0456 C   0  0  0  0  0  0  0  0  0  0  0  0
  -30.9421  -17.6956   22.4034 C   0  0  0  0  0  0  0  0  0  0  0  0
  -18.3544  -25.5479   17.6434 C   0  0  0  0  0  0  0  0  0  0  0  0
  -18.9945  -28.8304   23.1979 C   0  0  0  0  0  0  0  0  0  0  0  0
  -17.9378  -26.9685   21.8997 C   0  0  0  0  0  0  0  0  0  0  0  0
  -18.0707  -29.2558   20.9131 C   0  0  0  0  0  0  0  0  0  0  0  0
  -21.9350  -24.3345   18.0715 C   0  0  0  0  0  0  0  0  0  0  0  0
  -31.1983  -16.8574   19.6274 C   0  0  0  0  0  0  0  0  0  0  0  0
  -20.1745  -27.8680   21.1128 C   0  0  1  0  0  0  0  0  0  0  0  0
  -19.8139  -25.6535   18.0574 C   0  0  2  0  0  0  0  0  0  0  0  0
  -18.8217  -28.2292   21.7887 C   0  0  0  0  0  0  0  0  0  0  0  0
  -26.2705  -12.7502   21.7452 N   0  0  0  0  0  0  0  0  0  0  0  0
  -26.3660  -12.7914   20.4053 N   0  0  0  0  0  0  0  0  0  0  0  0
  -22.4709  -28.7871   21.0387 N   0  0  0  0  0  0  0  0  0  0  0  0
  -30.1289  -13.3091   19.9798 N   0  0  0  0  0  0  0  0  0  0  0  0
  -25.0772  -12.9417   18.4236 N   0  0  0  0  0  0  0  0  0  0  0  0
  -21.9671  -13.0185   21.6974 N   0  0  0  0  0  0  0  0  0  0  0  0
  -24.5559  -31.1630   22.8565 N   0  0  0  0  0  0  0  0  0  0  0  0
  -20.0427  -27.3217   19.7665 N   0  0  0  0  0  0  0  0  0  0  0  0
  -30.4634  -15.6499   19.9320 N   0  0  0  0  0  0  0  0  0  0  0  0
  -20.4878  -24.3633   17.7373 N   0  3  0  0  0  0  0  0  0  0  0  0
  -22.2813  -13.0626   19.4263 O   0  0  0  0  0  0  0  0  0  0  0  0
  -23.2504  -29.3174   23.4150 O   0  0  0  0  0  0  0  0  0  0  0  0
  -20.6135  -30.1861   20.8680 O   0  0  0  0  0  0  0  0  0  0  0  0
  -19.9613  -25.0934   20.4030 O   0  0  0  0  0  0  0  0  0  0  0  0
  -32.0563  -14.2360   19.0833 O   0  0  0  0  0  0  0  0  0  0  0  0
  -22.9463  -12.7659   27.1763 O   0  0  0  0  0  0  0  0  0  0  0  0
  -26.9353  -24.5398   20.7501 O   0  0  0  0  0  0  0  0  0  1  0  0
  -26.4977  -13.6610   31.2982 F   0  0  0  0  0  0  0  0  0  0  0  0
  -22.6078  -14.8990   28.9020 F   0  0  0  0  0  0  0  0  0  0  0  0
  1  2  1  0  0  0  0
  1  5  2  0  0  0  0
  2  6  2  0  0  0  0
  3  8  2  0  0  0  0
  3 16  1  0  0  0  0
  4  9  1  0  0  0  0
  4 16  2  0  0  0  0
  5 18  1  0  0  0  0
  6 20  1  0  0  0  0
  7 10  2  0  0  0  0
  7 19  1  0  0  0  0
  8 27  1  0  0  0  0
  9 27  2  0  0  0  0
 10 28  1  0  0  0  0
 11 12  2  0  0  0  0
 11 29  1  0  0  0  0
 12 30  1  0  0  0  0
 13 21  1  0  0  0  0
 13 28  2  0  0  0  0
 14 23  2  0  0  0  0
 14 24  1  0  0  0  0
 15 30  2  0  0  0  0
 15 31  1  0  0  0  0
 16 32  1  0  0  0  0
 17 32  1  0  0  0  0
 17 33  2  0  0  0  0
 17 34  1  0  0  0  0
 18 20  2  0  0  0  0
 18 39  1  0  0  0  0
 19 21  2  0  0  0  0
 19 40  1  0  0  0  0
 20 53  1  0  0  0  0
 21 41  1  0  0  0  0
 22 23  1  0  0  0  0
 22 25  2  0  0  0  0
 22 52  1  0  0  0  0
 23 57  1  0  0  0  0
 24 26  2  0  0  0  0
 24 65  1  0  0  0  0
 25 26  1  0  0  0  0
 25 58  1  0  0  0  0
 26 59  1  0  0  0  0
 27 84  1  0  0  0  0
 28 85  1  0  0  0  0
 29 31  2  0  0  0  0
 29 84  1  0  0  0  0
 30 86  1  0  0  0  0
 31 87  1  0  0  0  0
 32 69  2  0  0  0  0
 33 70  1  0  0  0  0
 33 73  1  0  0  0  0
 34 74  1  0  0  0  0
 34 79  2  0  0  0  0
 35 54  1  0  0  0  0
 35 75  1  0  0  0  0
 35 80  2  0  0  0  0
 36 66  1  0  0  0  0
 36 71  1  0  0  0  0
 36 81  2  0  0  0  0
 37 67  1  0  0  0  0
 37 76  1  0  0  0  0
 37 82  2  0  0  0  0
 38 72  1  0  0  0  0
 38 77  1  0  0  0  0
 38 83  2  0  0  0  0
 39 42  1  0  0  0  0
 40 54  1  0  0  0  0
 41 71  1  0  0  0  0
 42 46  1  0  0  0  0
 43 47  1  0  0  0  0
 43 50  1  0  0  0  0
 44 48  1  0  0  0  0
 44 52  1  0  0  0  0
 45 49  1  0  0  0  0
 45 52  1  0  0  0  0
 46 53  1  0  0  0  0
 47 55  1  0  0  0  0
 48 56  1  0  0  0  0
 49 56  1  0  0  0  0
 50 72  1  0  0  0  0
 51 55  1  0  0  0  0
 51 72  1  0  0  0  0
 53 75  1  0  0  0  0
 54 71  1  0  0  0  0
 55 70  1  0  0  0  0
 56 85  1  0  0  0  0
 60 67  1  0  0  0  0
 61 68  1  0  0  0  0
 62 68  1  0  0  0  0
 63 68  1  0  0  0  0
 64 78  1  0  0  0  0
 65 77  1  0  0  0  0
 66 68  1  0  0  0  0
 66 76  1  0  0  0  0
 67 78  1  0  0  0  0
 69 70  1  0  0  0  0
M  CHG  1  78   1
M  ISO  4  38 100  56 101  77 100  85 101
M  END
> <Batch ID>
0161

> <Smiles>
CNC(C)C(=O)NC(C(=O)N1Cc2cc([101O:1][101CH:1]3CCC(c4c(C)cc(C[100NH:0][100C:0](=O)N5CCCC(n6nc(-c7ccc(Oc8ccc(F)cc8F)cc7)c(C(N)=O)c6N)C5)c(C)c4C)CC3)ccc2CC1C(=O)NC1CCCc2ccccc21)C(C)(C)C

> <Shape>
0.283

> <Color>
0.077

> <Negative vol penalty>
0.000

$$$$

  -OEChem-04052322123D

 84 93  0     1  0  0  0  0  0999 V2000
  -21.4284  -28.2659   20.9852 C   0  0  0  0  0  0  0  0  0  0  0  0
  -21.9756  -27.0696   21.4378 C   0  0  0  0  0  0  0  0  0  0  0  0
  -23.2772   -9.8252   19.9234 C   0  0  0  0  0  0  0  0  0  0  0  0
  -23.7279   -9.9739   22.2924 C   0  0  0  0  0  0  0  0  0  0  0  0
  -22.2653  -29.3136   20.6034 C   0  0  0  0  0  0  0  0  0  0  0  0
  -23.3603  -26.9199   21.5077 C   0  0  0  0  0  0  0  0  0  0  0  0
  -26.5134  -23.7419   25.6867 C   0  0  0  0  0  0  0  0  0  0  0  0
  -22.5425   -8.6588   20.1364 C   0  0  0  0  0  0  0  0  0  0  0  0
  -22.9932   -8.8075   22.5054 C   0  0  0  0  0  0  0  0  0  0  0  0
  -27.0678  -22.4628   25.6702 C   0  0  0  0  0  0  0  0  0  0  0  0
  -19.7397   -7.9205   22.7255 C   0  0  0  0  0  0  0  0  0  0  0  0
  -18.8367   -7.9102   23.7886 C   0  0  0  0  0  0  0  0  0  0  0  0
  -30.6998  -17.2907   26.3741 C   0  0  0  0  0  0  0  0  0  0  0  0
  -29.1992  -23.4014   25.0412 C   0  0  0  0  0  0  0  0  0  0  0  0
  -28.4862  -17.6748   24.7201 C   0  0  0  0  0  0  0  0  0  0  0  0
  -20.0289   -6.0593   24.7834 C   0  0  0  0  0  0  0  0  0  0  0  0
  -23.8700  -10.4827   21.0014 C   0  0  0  0  0  0  0  0  0  0  0  0
  -24.1474  -13.0098   20.7909 C   0  0  0  0  0  0  0  0  0  0  0  0
  -23.6607  -29.1802   20.6778 C   0  0  0  0  0  0  0  0  0  0  0  0
  -27.2963  -24.8612   25.3694 C   0  0  0  0  0  0  0  0  0  0  0  0
  -24.2166  -27.9664   21.1252 C   0  0  0  0  0  0  0  0  0  0  0  0
  -30.3093  -16.2874   25.4873 C   0  0  0  0  0  0  0  0  0  0  0  0
  -28.6529  -24.6939   25.0569 C   0  0  0  0  0  0  0  0  0  0  0  0
  -29.9834  -18.4861   26.4340 C   0  0  0  0  0  0  0  0  0  0  0  0
  -29.2026  -16.4794   24.6603 C   0  0  0  0  0  0  0  0  0  0  0  0
  -28.8767  -18.6782   25.6070 C   0  0  0  0  0  0  0  0  0  0  0  0
  -22.4004   -8.1500   21.4274 C   0  0  0  0  0  0  0  0  0  0  0  0
  -28.4102  -22.2921   25.3446 C   0  0  0  0  0  0  0  0  0  0  0  0
  -20.7873   -7.0001   22.6913 C   0  0  0  0  0  0  0  0  0  0  0  0
  -18.9813   -6.9797   24.8175 C   0  0  0  0  0  0  0  0  0  0  0  0
  -20.9319   -6.0695   23.7203 C   0  0  0  0  0  0  0  0  0  0  0  0
  -24.6296  -11.6873   20.7820 C   0  0  0  0  0  0  0  0  0  0  0  0
  -25.2544  -13.7807   20.5327 C   0  0  0  0  0  0  0  0  0  0  0  0
  -22.8176  -13.4979   21.0128 C   0  0  0  0  0  0  0  0  0  0  0  0
  -27.2117  -27.0882   23.1028 C   0  0  0  0  0  0  0  0  0  0  0  0
  -29.6321  -28.3841   24.8304 C   0  0  0  0  0  0  0  0  0  0  0  0
  -32.1721  -27.9180   27.0615 C   0  0  0  0  0  0  0  0  0  0  0  0
  -31.1190  -12.9002   21.3592 C   0  0  0  0  0  0  0  0  0  0  0  0
  -24.5253  -30.3237   20.2093 C   0  0  0  0  0  0  0  0  0  0  0  0
  -26.6898  -26.2368   25.4177 C   0  0  0  0  0  0  0  0  0  0  0  0
  -29.5414  -25.8649   24.7284 C   0  0  0  0  0  0  0  0  0  0  0  0
  -25.9774  -30.2170   20.6680 C   0  0  0  0  0  0  0  0  0  0  0  0
  -29.4767  -13.6366   18.2872 C   0  0  0  0  0  0  0  0  0  0  0  0
  -26.5097  -28.8072   20.4318 C   0  0  0  0  0  0  0  0  0  0  0  0
  -28.0047  -13.3398   18.5790 C   0  0  0  0  0  0  0  0  0  0  0  0
  -32.5783  -15.0802   25.2058 C   0  0  0  0  0  0  0  0  0  0  0  0
  -30.4027  -12.6540   19.0006 C   0  0  0  0  0  0  0  0  0  0  0  0
  -28.7123  -12.2449   20.7467 C   0  0  0  0  0  0  0  0  0  0  0  0
  -31.0896  -15.0155   25.4405 C   0  0  2  0  0  0  0  0  0  0  0  0
  -25.7134  -27.7745   21.2387 C   0  0  1  0  0  0  0  0  0  0  0  0
  -27.4522  -27.2559   24.5765 C   0  0  1  0  0  0  0  0  0  0  0  0
  -31.6756  -14.5680   24.1232 C   0  0  2  0  0  0  0  0  0  0  0  0
  -27.7417  -13.2438   20.0939 C   0  0  2  0  0  0  0  0  0  0  0  0
  -30.4201  -19.5464   27.3909 C   0  0  0  0  0  0  0  0  0  0  0  0
  -28.7649  -15.4208   23.7015 C   0  0  0  0  0  0  0  0  0  0  0  0
  -33.9992  -29.1580   28.2537 C   0  0  0  0  0  0  0  0  0  0  0  0
  -31.2760  -28.4279   22.2602 C   0  0  0  0  0  0  0  0  0  0  0  0
  -33.3257  -28.7589   23.6593 C   0  0  0  0  0  0  0  0  0  0  0  0
  -31.5112  -30.4705   23.6839 C   0  0  0  0  0  0  0  0  0  0  0  0
  -31.0382  -27.2695   29.7172 C   0  0  0  0  0  0  0  0  0  0  0  0
  -28.0910  -19.9557   25.6527 C   0  0  0  0  0  0  0  0  0  1  0  0
  -31.6812  -13.1214   23.7663 C   0  0  0  0  0  0  0  0  0  0  0  0
  -31.1357  -28.2495   24.8321 C   0  0  1  0  0  0  0  0  0  0  0  0
  -32.5590  -28.6741   28.3197 C   0  0  2  0  0  0  0  0  0  0  0  0
  -31.7952  -28.9543   23.6131 C   0  0  0  0  0  0  0  0  0  0  0  0
  -25.9408  -11.6182   20.5373 N   0  0  0  0  0  0  0  0  0  0  0  0
  -26.2920  -12.9070   20.3901 N   0  0  0  0  0  0  0  0  0  0  0  0
  -28.9004  -27.1891   24.7831 N   0  0  0  0  0  0  0  0  0  0  0  0
  -30.1024  -12.6115   20.4338 N   0  0  0  0  0  0  0  0  0  0  0  0
  -25.4318  -15.1138   20.4160 N   0  0  0  0  0  0  0  0  0  0  0  0
  -21.7983  -12.5694   21.2642 N   0  0  0  0  0  0  0  0  0  0  0  0
  -26.1227  -27.7930   22.6268 N   0  0  0  0  0  0  0  0  0  0  0  0
  -31.5886  -28.7468   26.1267 N   0  0  0  0  0  0  0  0  0  0  0  0
  -30.7482  -12.8436   22.6971 N   0  0  0  0  0  0  0  0  0  0  0  0
  -32.4120  -27.7980   29.5163 N   0  3  0  0  0  0  0  0  0  0  0  0
  -22.5384  -14.7202   20.9725 O   0  0  0  0  0  0  0  0  0  0  0  0
  -27.9597  -26.3735   22.4460 O   0  0  0  0  0  0  0  0  0  0  0  0
  -29.1255  -29.5079   24.8767 O   0  0  0  0  0  0  0  0  0  0  0  0
  -32.3711  -26.7134   26.9205 O   0  0  0  0  0  0  0  0  0  0  0  0
  -32.2702  -13.1922   21.0182 O   0  0  0  0  0  0  0  0  0  0  0  0
  -21.6834   -7.0120   21.6356 O   0  0  0  0  0  0  0  0  0  0  0  0
  -28.9538  -21.0447   25.3271 O   0  0  0  0  0  0  0  0  0  1  0  0
  -18.1151   -6.9710   25.8391 F   0  0  0  0  0  0  0  0  0  0  0  0
  -21.9370   -5.1836   23.6936 F   0  0  0  0  0  0  0  0  0  0  0  0
  1  2  1  0  0  0  0
  1  5  2  0  0  0  0
  2  6  2  0  0  0  0
  3  8  2  0  0  0  0
  3 17  1  0  0  0  0
  4  9  1  0  0  0  0
  4 17  2  0  0  0  0
  5 19  1  0  0  0  0
  6 21  1  0  0  0  0
  7 10  2  0  0  0  0
  7 20  1  0  0  0  0
  8 27  1  0  0  0  0
  9 27  2  0  0  0  0
 10 28  1  0  0  0  0
 11 12  2  0  0  0  0
 11 29  1  0  0  0  0
 12 30  1  0  0  0  0
 13 22  2  0  0  0  0
 13 24  1  0  0  0  0
 14 23  1  0  0  0  0
 14 28  2  0  0  0  0
 15 25  2  0  0  0  0
 15 26  1  0  0  0  0
 16 30  2  0  0  0  0
 16 31  1  0  0  0  0
 17 32  1  0  0  0  0
 18 32  1  0  0  0  0
 18 33  2  0  0  0  0
 18 34  1  0  0  0  0
 19 21  2  0  0  0  0
 19 39  1  0  0  0  0
 20 23  2  0  0  0  0
 20 40  1  0  0  0  0
 21 50  1  0  0  0  0
 22 25  1  0  0  0  0
 22 49  1  0  0  0  0
 23 41  1  0  0  0  0
 24 26  2  0  0  0  0
 24 54  1  0  0  0  0
 25 55  1  0  0  0  0
 26 61  1  0  0  0  0
 27 81  1  0  0  0  0
 28 82  1  0  0  0  0
 29 31  2  0  0  0  0
 29 81  1  0  0  0  0
 30 83  1  0  0  0  0
 31 84  1  0  0  0  0
 32 66  2  0  0  0  0
 33 67  1  0  0  0  0
 33 70  1  0  0  0  0
 34 71  1  0  0  0  0
 34 76  2  0  0  0  0
 35 51  1  0  0  0  0
 35 72  1  0  0  0  0
 35 77  2  0  0  0  0
 36 63  1  0  0  0  0
 36 68  1  0  0  0  0
 36 78  2  0  0  0  0
 37 64  1  0  0  0  0
 37 73  1  0  0  0  0
 37 79  2  0  0  0  0
 38 69  1  0  0  0  0
 38 74  1  0  0  0  0
 38 80  2  0  0  0  0
 39 42  1  0  0  0  0
 40 51  1  0  0  0  0
 41 68  1  0  0  0  0
 42 44  1  0  0  0  0
 43 45  1  0  0  0  0
 43 47  1  0  0  0  0
 44 50  1  0  0  0  0
 45 53  1  0  0  0  0
 46 49  1  0  0  0  0
 46 52  1  0  0  0  0
 47 69  1  0  0  0  0
 48 53  1  0  0  0  0
 48 69  1  0  0  0  0
 49 52  1  0  0  0  0
 50 72  1  0  0  0  0
 51 68  1  0  0  0  0
 52 62  1  0  0  0  0
 53 67  1  0  0  0  0
 56 64  1  0  0  0  0
 57 65  1  0  0  0  0
 58 65  1  0  0  0  0
 59 65  1  0  0  0  0
 60 75  1  0  0  0  0
 61 82  1  0  0  0  0
 62 74  1  0  0  0  0
 63 65  1  0  0  0  0
 63 73  1  0  0  0  0
 64 75  1  0  0  0  0
 66 67  1  0  0  0  0
M  CHG  1  75   1
M  ISO  4  38 100  61 101  74 100  82 101
M  END
> <Batch ID>
0161

> <Smiles>
CNC(C)C(=O)NC(C(=O)N1Cc2cc([101O:1][101CH2:1]c3cc(C)c(C4CC4C[100NH:0][100C:0](=O)N4CCCC(n5nc(-c6ccc(Oc7ccc(F)cc7F)cc6)c(C(N)=O)c5N)C4)cc3C)ccc2CC1C(=O)NC1CCCc2ccccc21)C(C)(C)C

> <Shape>
0.186

> <Color>
0.192

> <Negative vol penalty>
0.000

$$$$

  -OEChem-04052322123D

 88 97  0     1  0  0  0  0  0999 V2000
  -22.5175  -37.8557   20.7456 C   0  0  0  0  0  0  0  0  0  0  0  0
  -23.6243  -37.1868   21.2584 C   0  0  0  0  0  0  0  0  0  0  0  0
  -21.5740  -11.5230   20.0913 C   0  0  0  0  0  0  0  0  0  0  0  0
  -20.6685  -13.1955   18.6015 C   0  0  0  0  0  0  0  0  0  0  0  0
  -21.2476  -37.2924   20.8636 C   0  0  0  0  0  0  0  0  0  0  0  0
  -23.4616  -35.9546   21.8906 C   0  0  0  0  0  0  0  0  0  0  0  0
  -26.8527  -30.0739   19.4805 C   0  0  0  0  0  0  0  0  0  0  0  0
  -20.6107  -10.6132   19.6555 C   0  0  0  0  0  0  0  0  0  0  0  0
  -19.7052  -12.2857   18.1656 C   0  0  0  0  0  0  0  0  0  0  0  0
  -27.6307  -28.9485   19.2079 C   0  0  0  0  0  0  0  0  0  0  0  0
  -20.1093   -8.6064   16.9807 C   0  0  0  0  0  0  0  0  0  0  0  0
  -20.5295   -7.3100   16.6837 C   0  0  0  0  0  0  0  0  0  0  0  0
  -26.4660  -27.7131   20.9299 C   0  0  0  0  0  0  0  0  0  0  0  0
  -19.0371   -6.4393   18.3723 C   0  0  0  0  0  0  0  0  0  0  0  0
  -21.6028  -12.8142   19.5643 C   0  0  0  0  0  0  0  0  0  0  0  0
  -23.9959  -13.6213   19.9244 C   0  0  0  0  0  0  0  0  0  0  0  0
  -21.0705  -36.0481   21.4890 C   0  0  0  0  0  0  0  0  0  0  0  0
  -25.8667  -30.0184   20.4694 C   0  0  0  0  0  0  0  0  0  0  0  0
  -22.1880  -35.3748   22.0183 C   0  0  0  0  0  0  0  0  0  0  0  0
  -25.6751  -28.8334   21.1987 C   0  0  0  0  0  0  0  0  0  0  0  0
  -19.6763  -10.9945   18.6926 C   0  0  0  0  0  0  0  0  0  0  0  0
  -27.4380  -27.7711   19.9310 C   0  0  0  0  0  0  0  0  0  0  0  0
  -19.1531   -8.8193   17.9737 C   0  0  0  0  0  0  0  0  0  0  0  0
  -19.9934   -6.2264   17.3794 C   0  0  0  0  0  0  0  0  0  0  0  0
  -18.6169   -7.7358   18.6694 C   0  0  0  0  0  0  0  0  0  0  0  0
  -22.5973  -13.7546   20.0145 C   0  0  0  0  0  0  0  0  0  0  0  0
  -24.4876  -14.7732   20.4881 C   0  0  0  0  0  0  0  0  0  0  0  0
  -24.7803  -12.5520   19.3796 C   0  0  0  0  0  0  0  0  0  0  0  0
  -23.1392  -31.8166   22.3142 C   0  0  0  0  0  0  0  0  0  0  0  0
  -22.1342  -28.9651   21.7957 C   0  0  0  0  0  0  0  0  0  0  0  0
  -20.2640  -26.1726   21.2113 C   0  0  0  0  0  0  0  0  0  0  0  0
  -24.3720  -20.3172   21.1182 C   0  0  0  0  0  0  0  0  0  0  0  0
  -19.6725  -35.5013   21.6347 C   0  0  0  0  0  0  0  0  0  0  0  0
  -25.0470  -31.2248   20.8388 C   0  0  0  0  0  0  0  0  0  0  0  0
  -24.6263  -28.8303   22.2771 C   0  0  0  0  0  0  0  0  0  0  0  0
  -19.6328  -34.0165   21.9865 C   0  0  0  0  0  0  0  0  0  0  0  0
  -22.1568  -18.3967   23.1385 C   0  0  0  0  0  0  0  0  0  0  0  0
  -20.6156  -33.7080   23.1116 C   0  0  0  0  0  0  0  0  0  0  0  0
  -29.8431  -24.3723   20.5122 C   0  0  0  0  0  0  0  0  0  0  0  0
  -30.7910  -25.1116   18.2862 C   0  0  0  0  0  0  0  0  0  0  0  0
  -22.1847  -17.0093   22.4948 C   0  0  0  0  0  0  0  0  0  0  0  0
  -30.0789  -25.8392   20.8915 C   0  0  0  0  0  0  0  0  0  0  0  0
  -30.3176  -26.5585   18.4735 C   0  0  0  0  0  0  0  0  0  0  0  0
  -27.8275  -20.3927   20.6091 C   0  0  0  0  0  0  0  0  0  0  0  0
  -22.2438  -19.5060   22.0926 C   0  0  0  0  0  0  0  0  0  0  0  0
  -23.4150  -18.0091   20.5237 C   0  0  0  0  0  0  0  0  0  0  0  0
  -27.8519  -22.4016   18.4750 C   0  0  0  0  0  0  0  0  0  0  0  0
  -22.0552  -34.0246   22.6889 C   0  0  1  0  0  0  0  0  0  0  0  0
  -23.6044  -30.8732   21.2442 C   0  0  1  0  0  0  0  0  0  0  0  0
  -29.8788  -24.1100   18.9967 C   0  0  0  0  0  0  0  0  0  0  0  0
  -23.3860  -16.8570   21.5426 C   0  0  2  0  0  0  0  0  0  0  0  0
  -26.5214  -20.9834   20.0717 C   0  0  1  0  0  0  0  0  0  0  0  0
  -29.6144  -26.8102   19.8125 C   0  0  0  0  0  0  0  0  0  1  0  0
  -29.0146  -21.3503   20.4486 C   0  0  1  0  0  0  0  0  0  0  0  0
  -26.6463  -21.4475   18.5971 C   0  0  0  0  0  0  0  0  0  0  0  0
  -30.2970  -20.6658   20.9192 C   0  0  0  0  0  0  0  0  0  0  0  0
  -26.7988  -20.2596   17.6223 C   0  0  0  0  0  0  0  0  0  0  0  0
  -25.3900  -22.2427   18.1768 C   0  0  0  0  0  0  0  0  0  0  0  0
  -18.3314  -24.8667   22.1374 C   0  0  0  0  0  0  0  0  0  0  0  0
  -30.7266  -22.4780   17.2582 C   0  0  0  0  0  0  0  0  0  0  0  0
  -23.9367  -27.8656   23.9970 C   0  0  0  0  0  0  0  0  0  0  0  0
  -22.3369  -25.9573   24.2560 C   0  0  0  0  0  0  0  0  0  0  0  0
  -21.5741  -28.2908   24.6981 C   0  0  0  0  0  0  0  0  0  0  0  0
  -18.6739  -26.5541   18.7445 C   0  0  0  0  0  0  0  0  0  0  0  0
  -22.0010  -27.5565   22.3168 C   0  0  1  0  0  0  0  0  0  0  0  0
  -18.7620  -25.9567   21.1682 C   0  0  2  0  0  0  0  0  0  0  0  0
  -30.3017  -22.6716   18.7050 C   0  0  2  0  0  0  0  0  0  0  0  0
  -22.4742  -27.4230   23.7918 C   0  0  0  0  0  0  0  0  0  0  0  0
  -22.2246  -14.9007   20.5904 N   0  0  0  0  0  0  0  0  0  0  0  0
  -23.3962  -15.4981   20.8672 N   0  0  0  0  0  0  0  0  0  0  0  0
  -23.4179  -29.5240   21.8045 N   0  0  0  0  0  0  0  0  0  0  0  0
  -23.4052  -19.3036   21.2229 N   0  0  0  0  0  0  0  0  0  0  0  0
  -25.7427  -15.2267   20.6916 N   0  0  0  0  0  0  0  0  0  0  0  0
  -25.1270  -12.6018   18.0225 N   0  0  0  0  0  0  0  0  0  0  0  0
  -22.5713  -32.9798   21.8307 N   0  0  0  0  0  0  0  0  0  0  0  0
  -20.6113  -27.1699   22.0978 N   0  0  0  0  0  0  0  0  0  0  0  0
  -25.4437  -20.0417   20.2777 N   0  0  0  0  0  0  0  0  0  0  0  0
  -29.1286  -21.7611   18.9858 N   0  3  2  0  0  0  0  0  0  0  0  0
  -18.3347  -25.5613   19.7963 N   0  3  0  0  0  0  0  0  0  0  0  0
  -25.1487  -11.5728   20.0718 O   0  0  0  0  0  0  0  0  0  0  0  0
  -23.2830  -31.5121   23.4925 O   0  0  0  0  0  0  0  0  0  0  0  0
  -21.1281  -29.5581   21.3964 O   0  0  0  0  0  0  0  0  0  0  0  0
  -21.0507  -25.5190   20.5298 O   0  0  0  0  0  0  0  0  0  0  0  0
  -24.2892  -21.3861   21.7327 O   0  0  0  0  0  0  0  0  0  0  0  0
  -18.7363  -10.1070   18.2669 O   0  0  0  0  0  0  0  0  0  0  0  0
  -28.2029  -26.6676   19.6550 O   0  0  0  0  0  0  0  0  0  1  0  0
  -20.3959   -4.9813   17.0930 F   0  0  0  0  0  0  0  0  0  0  0  0
  -17.6971   -7.9339   19.6236 F   0  0  0  0  0  0  0  0  0  0  0  0
  1  2  1  0  0  0  0
  1  5  2  0  0  0  0
  2  6  2  0  0  0  0
  3  8  2  0  0  0  0
  3 15  1  0  0  0  0
  4  9  1  0  0  0  0
  4 15  2  0  0  0  0
  5 17  1  0  0  0  0
  6 19  1  0  0  0  0
  7 10  2  0  0  0  0
  7 18  1  0  0  0  0
  8 21  1  0  0  0  0
  9 21  2  0  0  0  0
 10 22  1  0  0  0  0
 11 12  2  0  0  0  0
 11 23  1  0  0  0  0
 12 24  1  0  0  0  0
 13 20  1  0  0  0  0
 13 22  2  0  0  0  0
 14 24  2  0  0  0  0
 14 25  1  0  0  0  0
 15 26  1  0  0  0  0
 16 26  1  0  0  0  0
 16 27  2  0  0  0  0
 16 28  1  0  0  0  0
 17 19  2  0  0  0  0
 17 33  1  0  0  0  0
 18 20  2  0  0  0  0
 18 34  1  0  0  0  0
 19 48  1  0  0  0  0
 20 35  1  0  0  0  0
 21 85  1  0  0  0  0
 22 86  1  0  0  0  0
 23 25  2  0  0  0  0
 23 85  1  0  0  0  0
 24 87  1  0  0  0  0
 25 88  1  0  0  0  0
 26 69  2  0  0  0  0
 27 70  1  0  0  0  0
 27 73  1  0  0  0  0
 28 74  1  0  0  0  0
 28 80  2  0  0  0  0
 29 49  1  0  0  0  0
 29 75  1  0  0  0  0
 29 81  2  0  0  0  0
 30 65  1  0  0  0  0
 30 71  1  0  0  0  0
 30 82  2  0  0  0  0
 31 66  1  0  0  0  0
 31 76  1  0  0  0  0
 31 83  2  0  0  0  0
 32 72  1  0  0  0  0
 32 77  1  0  0  0  0
 32 84  2  0  0  0  0
 33 36  1  0  0  0  0
 34 49  1  0  0  0  0
 35 71  1  0  0  0  0
 36 38  1  0  0  0  0
 37 41  1  0  0  0  0
 37 45  1  0  0  0  0
 38 48  1  0  0  0  0
 39 42  1  0  0  0  0
 39 50  1  0  0  0  0
 40 43  1  0  0  0  0
 40 50  1  0  0  0  0
 41 51  1  0  0  0  0
 42 53  1  0  0  0  0
 43 53  1  0  0  0  0
 44 52  1  0  0  0  0
 44 54  1  0  0  0  0
 45 72  1  0  0  0  0
 46 51  1  0  0  0  0
 46 72  1  0  0  0  0
 47 55  1  0  0  0  0
 47 78  1  0  0  0  0
 48 75  1  0  0  0  0
 49 71  1  0  0  0  0
 50 67  1  0  0  0  0
 51 70  1  0  0  0  0
 52 55  1  0  0  0  0
 52 77  1  0  0  0  0
 53 86  1  0  0  0  0
 54 56  1  0  0  0  0
 54 78  1  0  0  0  0
 55 57  1  0  0  0  0
 55 58  1  0  0  0  0
 59 66  1  0  0  0  0
 60 67  1  0  0  0  0
 61 68  1  0  0  0  0
 62 68  1  0  0  0  0
 63 68  1  0  0  0  0
 64 79  1  0  0  0  0
 65 68  1  0  0  0  0
 65 76  1  0  0  0  0
 66 79  1  0  0  0  0
 67 78  1  0  0  0  0
 69 70  1  0  0  0  0
M  CHG  2  78   1  79   1
M  ISO  4  32 100  53 101  77 100  86 101
M  END
> <Batch ID>
0161

> <Smiles>
CNC(C)C(=O)NC(C(=O)N1Cc2cc([101O:1][101CH:1]3CCC(C(C)N4CC(C)(C)C([100NH:0][100C:0](=O)N5CCCC(n6nc(-c7ccc(Oc8ccc(F)cc8F)cc7)c(C(N)=O)c6N)C5)CC4C)CC3)ccc2CC1C(=O)NC1CCCc2ccccc21)C(C)(C)C

> <Shape>
0.209

> <Color>
0.109

> <Negative vol penalty>
0.000

$$$$

  -OEChem-04052322123D

 92101  0     1  0  0  0  0  0999 V2000
  -26.1847  -26.1268   11.9810 C   0  0  0  0  0  0  0  0  0  0  0  0
  -26.5807  -25.7801   13.2688 C   0  0  0  0  0  0  0  0  0  0  0  0
  -22.8421  -10.3404   19.9535 C   0  0  0  0  0  0  0  0  0  0  0  0
  -23.8991   -9.7451   22.0429 C   0  0  0  0  0  0  0  0  0  0  0  0
  -25.4825  -27.3117   11.7641 C   0  0  0  0  0  0  0  0  0  0  0  0
  -26.2757  -26.6186   14.3403 C   0  0  0  0  0  0  0  0  0  0  0  0
  -24.5206  -24.0798   18.3553 C   0  0  0  0  0  0  0  0  0  0  0  0
  -22.0140   -9.2225   20.0539 C   0  0  0  0  0  0  0  0  0  0  0  0
  -23.0708   -8.6272   22.1433 C   0  0  0  0  0  0  0  0  0  0  0  0
  -25.4565  -23.4180   19.1489 C   0  0  0  0  0  0  0  0  0  0  0  0
  -19.8839   -7.9640   23.0511 C   0  0  0  0  0  0  0  0  0  0  0  0
  -19.2914   -7.7073   24.2875 C   0  0  0  0  0  0  0  0  0  0  0  0
  -30.3457  -18.0593   23.1456 C   0  0  0  0  0  0  0  0  0  0  0  0
  -25.3892  -25.2356   20.7335 C   0  0  0  0  0  0  0  0  0  0  0  0
  -30.1770  -16.8564   25.6571 C   0  0  0  0  0  0  0  0  0  0  0  0
  -20.3952   -5.5598   24.3706 C   0  0  0  0  0  0  0  0  0  0  0  0
  -23.7847  -10.6016   20.9479 C   0  0  0  0  0  0  0  0  0  0  0  0
  -24.3884  -13.0489   21.3408 C   0  0  0  0  0  0  0  0  0  0  0  0
  -25.1602  -28.1603   12.8349 C   0  0  0  0  0  0  0  0  0  0  0  0
  -24.0194  -25.3317   18.7400 C   0  0  0  0  0  0  0  0  0  0  0  0
  -25.5697  -27.8165   14.1374 C   0  0  0  0  0  0  0  0  0  0  0  0
  -29.7401  -18.7365   24.2039 C   0  0  0  0  0  0  0  0  0  0  0  0
  -24.4451  -25.9101   19.9443 C   0  0  0  0  0  0  0  0  0  0  0  0
  -30.8670  -16.7806   23.3429 C   0  0  0  0  0  0  0  0  0  0  0  0
  -29.6557  -18.1351   25.4597 C   0  0  0  0  0  0  0  0  0  0  0  0
  -30.7826  -16.1792   24.5987 C   0  0  0  0  0  0  0  0  0  0  0  0
  -22.1283   -8.3659   21.1488 C   0  0  0  0  0  0  0  0  0  0  0  0
  -25.8931  -23.9971   20.3368 C   0  0  0  0  0  0  0  0  0  0  0  0
  -20.7320   -7.0185   22.4744 C   0  0  0  0  0  0  0  0  0  0  0  0
  -19.5471   -6.5052   24.9473 C   0  0  0  0  0  0  0  0  0  0  0  0
  -20.9877   -5.8165   23.1342 C   0  0  0  0  0  0  0  0  0  0  0  0
  -24.6409  -11.7559   20.8445 C   0  0  0  0  0  0  0  0  0  0  0  0
  -25.4990  -13.7754   20.9870 C   0  0  0  0  0  0  0  0  0  0  0  0
  -23.2517  -13.5484   22.0577 C   0  0  0  0  0  0  0  0  0  0  0  0
  -24.0894  -28.2553   17.4944 C   0  0  0  0  0  0  0  0  0  0  0  0
  -22.1043  -28.9347   19.9683 C   0  0  0  0  0  0  0  0  0  0  0  0
  -20.9908  -28.1345   23.0934 C   0  0  0  0  0  0  0  0  0  0  0  0
  -31.0378  -14.2897   20.5362 C   0  0  0  0  0  0  0  0  0  0  0  0
  -24.4409  -29.4538   12.5449 C   0  0  0  0  0  0  0  0  0  0  0  0
  -22.9903  -26.0204   17.8861 C   0  0  0  0  0  0  0  0  0  0  0  0
  -23.9226  -27.2429   20.4122 C   0  0  0  0  0  0  0  0  0  0  0  0
  -23.8305  -30.1025   13.7847 C   0  0  0  0  0  0  0  0  0  0  0  0
  -29.3297  -12.6340   17.8871 C   0  0  0  0  0  0  0  0  0  0  0  0
  -24.8364  -30.1139   14.9313 C   0  0  0  0  0  0  0  0  0  0  0  0
  -27.9396  -12.3593   18.4634 C   0  0  0  0  0  0  0  0  0  0  0  0
  -30.0939  -21.2660   23.3262 C   0  0  0  0  0  0  0  0  0  0  0  0
  -30.4187  -12.4921   18.9482 C   0  0  0  0  0  0  0  0  0  0  0  0
  -28.8146  -13.0204   20.7429 C   0  0  0  0  0  0  0  0  0  0  0  0
  -29.1547  -20.1913   23.9573 C   0  0  1  0  0  0  0  0  0  0  0  0
  -25.2359  -28.6878   15.3289 C   0  0  1  0  0  0  0  0  0  0  0  0
  -22.9326  -27.5271   18.1184 C   0  0  1  0  0  0  0  0  0  0  0  0
  -28.8451  -21.8615   22.6308 C   0  0  2  0  0  0  0  0  0  0  0  0
  -27.6777  -13.2061   19.7234 C   0  0  2  0  0  0  0  0  0  0  0  0
  -28.2243  -20.4429   22.7286 C   0  0  2  0  0  0  0  0  0  0  0  0
  -29.0122  -18.8439   26.6057 C   0  0  0  0  0  0  0  0  0  0  0  0
  -31.3326  -14.8107   24.8338 C   0  0  0  0  0  0  0  0  0  0  0  0
  -24.4626  -20.8216   22.3513 C   0  0  0  0  0  0  0  0  0  0  0  0
  -26.5324  -18.0214   22.8255 C   0  0  0  0  0  0  0  0  0  0  0  0
  -19.3905  -28.8971   24.8696 C   0  0  0  0  0  0  0  0  0  0  0  0
  -29.7119  -23.7915   21.3232 C   0  0  0  0  0  0  0  0  0  0  0  0
  -24.0184  -31.1882   20.7218 C   0  0  0  0  0  0  0  0  0  0  0  0
  -22.9158  -31.2797   22.9678 C   0  0  0  0  0  0  0  0  0  0  0  0
  -21.5939  -31.7720   20.9104 C   0  0  0  0  0  0  0  0  0  0  0  0
  -19.4679  -25.5997   22.9730 C   0  0  0  0  0  0  0  0  0  0  0  0
  -31.5100  -16.0745   22.1947 C   0  0  0  0  0  0  0  0  0  0  0  0
  -25.9039  -20.7879   21.8922 C   0  0  0  0  0  0  0  0  0  0  0  0
  -26.3303  -19.1954   23.7584 C   0  0  0  0  0  0  0  0  0  0  0  0
  -27.7422  -22.5057   20.4476 C   0  0  0  0  0  0  0  0  0  1  0  0
  -22.2916  -29.3907   21.3951 C   0  0  1  0  0  0  0  0  0  0  0  0
  -19.5886  -27.9984   23.6589 C   0  0  2  0  0  0  0  0  0  0  0  0
  -29.0524  -22.4129   21.2344 C   0  0  2  0  0  0  0  0  0  0  0  0
  -22.7164  -30.8834   21.4893 C   0  0  0  0  0  0  0  0  0  0  0  0
  -25.8194  -11.6634   20.2226 N   0  0  0  0  0  0  0  0  0  0  0  0
  -26.3172  -12.9074   20.3257 N   0  0  0  0  0  0  0  0  0  0  0  0
  -22.9225  -27.8799   19.5395 N   0  0  0  0  0  0  0  0  0  0  0  0
  -30.1110  -13.3215   20.1158 N   0  0  0  0  0  0  0  0  0  0  0  0
  -25.8457  -15.0657   21.1801 N   0  0  0  0  0  0  0  0  0  0  0  0
  -22.1987  -12.6671   22.3384 N   0  0  0  0  0  0  0  0  0  0  0  0
  -24.1962  -28.0760   16.1284 N   0  0  0  0  0  0  0  0  0  0  0  0
  -21.0474  -29.0786   22.0901 N   0  0  0  0  0  0  0  0  0  0  0  0
  -30.6651  -15.0367   21.6470 N   0  0  0  0  0  0  0  0  0  0  0  0
  -19.3312  -26.5898   24.0721 N   0  3  0  0  0  0  0  0  0  0  0  0
  -26.7961  -20.4634   23.0727 N   0  3  0  0  0  0  0  0  0  0  0  0
  -23.1648  -14.7451   22.4237 O   0  0  0  0  0  0  0  0  0  0  0  0
  -24.8294  -28.9309   18.1998 O   0  0  0  0  0  0  0  0  0  0  0  0
  -21.2580  -29.4890   19.2624 O   0  0  0  0  0  0  0  0  0  0  0  0
  -21.9416  -27.4725   23.5035 O   0  0  0  0  0  0  0  0  0  0  0  0
  -32.1150  -14.4783   19.9609 O   0  0  0  0  0  0  0  0  0  0  0  0
  -21.3201   -7.2752   21.2472 O   0  0  0  0  0  0  0  0  0  0  0  0
  -26.8069  -23.3535   21.1130 O   0  0  0  0  0  0  0  0  0  1  0  0
  -18.9792   -6.2595   26.1353 F   0  0  0  0  0  0  0  0  0  0  0  0
  -21.8025   -4.9049   22.5857 F   0  0  0  0  0  0  0  0  0  0  0  0
  1  2  1  0  0  0  0
  1  5  2  0  0  0  0
  2  6  2  0  0  0  0
  3  8  2  0  0  0  0
  3 17  1  0  0  0  0
  4  9  1  0  0  0  0
  4 17  2  0  0  0  0
  5 19  1  0  0  0  0
  6 21  1  0  0  0  0
  7 10  2  0  0  0  0
  7 20  1  0  0  0  0
  8 27  1  0  0  0  0
  9 27  2  0  0  0  0
 10 28  1  0  0  0  0
 11 12  2  0  0  0  0
 11 29  1  0  0  0  0
 12 30  1  0  0  0  0
 13 22  1  0  0  0  0
 13 24  2  0  0  0  0
 14 23  1  0  0  0  0
 14 28  2  0  0  0  0
 15 25  1  0  0  0  0
 15 26  2  0  0  0  0
 16 30  2  0  0  0  0
 16 31  1  0  0  0  0
 17 32  1  0  0  0  0
 18 32  1  0  0  0  0
 18 33  2  0  0  0  0
 18 34  1  0  0  0  0
 19 21  2  0  0  0  0
 19 39  1  0  0  0  0
 20 23  2  0  0  0  0
 20 40  1  0  0  0  0
 21 50  1  0  0  0  0
 22 25  2  0  0  0  0
 22 49  1  0  0  0  0
 23 41  1  0  0  0  0
 24 26  1  0  0  0  0
 24 65  1  0  0  0  0
 25 55  1  0  0  0  0
 26 56  1  0  0  0  0
 27 89  1  0  0  0  0
 28 90  1  0  0  0  0
 29 31  2  0  0  0  0
 29 89  1  0  0  0  0
 30 91  1  0  0  0  0
 31 92  1  0  0  0  0
 32 73  2  0  0  0  0
 33 74  1  0  0  0  0
 33 77  1  0  0  0  0
 34 78  1  0  0  0  0
 34 84  2  0  0  0  0
 35 51  1  0  0  0  0
 35 79  1  0  0  0  0
 35 85  2  0  0  0  0
 36 69  1  0  0  0  0
 36 75  1  0  0  0  0
 36 86  2  0  0  0  0
 37 70  1  0  0  0  0
 37 80  1  0  0  0  0
 37 87  2  0  0  0  0
 38 76  1  0  0  0  0
 38 81  1  0  0  0  0
 38 88  2  0  0  0  0
 39 42  1  0  0  0  0
 40 51  1  0  0  0  0
 41 75  1  0  0  0  0
 42 44  1  0  0  0  0
 43 45  1  0  0  0  0
 43 47  1  0  0  0  0
 44 50  1  0  0  0  0
 45 53  1  0  0  0  0
 46 49  1  0  0  0  0
 46 52  1  0  0  0  0
 47 76  1  0  0  0  0
 48 53  1  0  0  0  0
 48 76  1  0  0  0  0
 49 54  1  0  0  0  0
 50 79  1  0  0  0  0
 51 75  1  0  0  0  0
 52 54  1  0  0  0  0
 52 71  1  0  0  0  0
 53 74  1  0  0  0  0
 54 83  1  0  0  0  0
 57 66  1  0  0  0  0
 58 67  1  0  0  0  0
 59 70  1  0  0  0  0
 60 71  1  0  0  0  0
 61 72  1  0  0  0  0
 62 72  1  0  0  0  0
 63 72  1  0  0  0  0
 64 82  1  0  0  0  0
 65 81  1  0  0  0  0
 66 83  1  0  0  0  0
 67 83  1  0  0  0  0
 68 71  1  0  0  0  0
 68 90  1  0  0  0  0
 69 72  1  0  0  0  0
 69 80  1  0  0  0  0
 70 82  1  0  0  0  0
 73 74  1  0  0  0  0
M  CHG  2  82   1  83   1
M  ISO  4  38 100  68 101  81 100  90 101
M  END
> <Batch ID>
0161

> <Smiles>
CCN(CC)C1C(c2cc(C[100NH:0][100C:0](=O)N3CCCC(n4nc(-c5ccc(Oc6ccc(F)cc6F)cc5)c(C(N)=O)c4N)C3)c(C)cc2C)CC1C(C)[101CH2:1][101O:1]c1ccc2c(c1)CN(C(=O)C(NC(=O)C(C)NC)C(C)(C)C)C(C(=O)NC1CCCc3ccccc31)C2

> <Shape>
0.260

> <Color>
0.156

> <Negative vol penalty>
0.000

$$$$

  -OEChem-04052322123D

 92102  0     1  0  0  0  0  0999 V2000
  -18.0174  -25.6860   20.2737 C   0  0  0  0  0  0  0  0  0  0  0  0
  -19.3071  -25.8700   19.7857 C   0  0  0  0  0  0  0  0  0  0  0  0
  -21.5801  -17.2648   22.5709 C   0  0  0  0  0  0  0  0  0  0  0  0
  -20.1808  -16.6647   20.6950 C   0  0  0  0  0  0  0  0  0  0  0  0
  -17.5979  -26.3772   21.4095 C   0  0  0  0  0  0  0  0  0  0  0  0
  -20.1778  -26.7463   20.4326 C   0  0  0  0  0  0  0  0  0  0  0  0
  -24.8212  -24.8064   20.9986 C   0  0  0  0  0  0  0  0  0  0  0  0
  -29.2260  -19.6104   19.3033 C   0  0  0  0  0  0  0  0  0  0  0  0
  -21.0849  -18.5679   22.5235 C   0  0  0  0  0  0  0  0  0  0  0  0
  -19.6855  -17.9678   20.6477 C   0  0  0  0  0  0  0  0  0  0  0  0
  -25.6551  -24.8143   19.8813 C   0  0  0  0  0  0  0  0  0  0  0  0
  -28.9746  -18.2759   19.6219 C   0  0  0  0  0  0  0  0  0  0  0  0
  -18.2956  -20.2096   23.5020 C   0  0  0  0  0  0  0  0  0  0  0  0
  -17.9284  -20.8077   24.7074 C   0  0  0  0  0  0  0  0  0  0  0  0
  -26.7716  -26.7744   20.7359 C   0  0  0  0  0  0  0  0  0  0  0  0
  -19.5518  -22.5575   24.3337 C   0  0  0  0  0  0  0  0  0  0  0  0
  -21.1282  -16.3132   21.6566 C   0  0  0  0  0  0  0  0  0  0  0  0
  -21.1186  -13.8852   22.4393 C   0  0  0  0  0  0  0  0  0  0  0  0
  -18.4670  -27.2551   22.0763 C   0  0  0  0  0  0  0  0  0  0  0  0
  -24.9493  -25.7906   21.9893 C   0  0  0  0  0  0  0  0  0  0  0  0
  -19.7690  -27.4509   21.5776 C   0  0  0  0  0  0  0  0  0  0  0  0
  -30.5356  -20.0426   19.0933 C   0  0  0  0  0  0  0  0  0  0  0  0
  -25.9398  -26.7753   21.8660 C   0  0  0  0  0  0  0  0  0  0  0  0
  -31.5937  -19.1402   19.2019 C   0  0  0  0  0  0  0  0  0  0  0  0
  -31.3423  -17.8057   19.5205 C   0  0  0  0  0  0  0  0  0  0  0  0
  -20.1375  -18.9194   21.5620 C   0  0  0  0  0  0  0  0  0  0  0  0
  -26.6285  -25.8001   19.7484 C   0  0  0  0  0  0  0  0  0  0  0  0
  -30.0327  -17.3735   19.7305 C   0  0  0  0  0  0  0  0  0  0  0  0
  -19.2910  -20.7854   22.7124 C   0  0  0  0  0  0  0  0  0  0  0  0
  -18.5565  -21.9817   25.1232 C   0  0  0  0  0  0  0  0  0  0  0  0
  -19.9191  -21.9593   23.1283 C   0  0  0  0  0  0  0  0  0  0  0  0
  -21.6398  -14.9671   21.7046 C   0  0  0  0  0  0  0  0  0  0  0  0
  -21.9569  -12.8369   22.1482 C   0  0  0  0  0  0  0  0  0  0  0  0
  -19.9785  -13.8326   23.3071 C   0  0  0  0  0  0  0  0  0  0  0  0
  -23.0559  -28.0646   23.1501 C   0  0  0  0  0  0  0  0  0  0  0  0
  -25.4797  -28.4579   25.2698 C   0  0  0  0  0  0  0  0  0  0  0  0
  -28.7962  -28.0813   25.9811 C   0  0  0  0  0  0  0  0  0  0  0  0
  -27.6504  -12.5900   20.3243 C   0  0  0  0  0  0  0  0  0  0  0  0
  -17.9529  -28.0160   23.2728 C   0  0  0  0  0  0  0  0  0  0  0  0
  -24.0597  -25.7525   23.2015 C   0  0  0  0  0  0  0  0  0  0  0  0
  -26.1316  -27.8424   22.9115 C   0  0  0  0  0  0  0  0  0  0  0  0
  -19.0594  -28.6419   24.1179 C   0  0  0  0  0  0  0  0  0  0  0  0
  -24.8371  -11.1650   18.7359 C   0  0  0  0  0  0  0  0  0  0  0  0
  -20.0714  -29.3565   23.2279 C   0  0  0  0  0  0  0  0  0  0  0  0
  -23.6461  -11.8920   19.3542 C   0  0  0  0  0  0  0  0  0  0  0  0
  -29.9337  -14.8681   22.1425 C   0  0  0  0  0  0  0  0  0  0  0  0
  -30.0726  -21.8378   17.4349 C   0  0  0  0  0  0  0  0  0  0  0  0
  -30.2860  -22.3846   19.8930 C   0  0  0  0  0  0  0  0  0  0  0  0
  -26.0092  -12.1171   18.5405 C   0  0  0  0  0  0  0  0  0  0  0  0
  -29.5874  -13.5043   21.5624 C   0  0  0  0  0  0  0  0  0  0  0  0
  -25.2812  -13.5008   20.4653 C   0  0  0  0  0  0  0  0  0  0  0  0
  -27.8257  -15.0513   21.0340 C   0  0  0  0  0  0  0  0  0  0  0  0
  -30.2305  -23.3159   17.1023 C   0  0  0  0  0  0  0  0  0  0  0  0
  -30.4427  -23.8586   19.5415 C   0  0  0  0  0  0  0  0  0  0  0  0
  -30.7769  -21.4770   18.7532 C   0  0  0  0  0  0  0  0  0  0  0  0
  -20.7508  -28.3741   22.2661 C   0  0  1  0  0  0  0  0  0  0  0  0
  -23.9389  -27.1051   23.8967 C   0  0  1  0  0  0  0  0  0  0  0  0
  -24.0546  -12.5862   20.6628 C   0  0  1  0  0  0  0  0  0  0  0  0
  -29.1139  -15.8259   21.2849 C   0  0  2  0  0  0  0  0  0  0  0  0
  -32.9973  -19.6057   18.9756 C   0  0  0  0  0  0  0  0  0  0  0  0
  -32.4715  -16.8322   19.6389 C   0  0  0  0  0  0  0  0  0  0  0  0
  -30.4890  -28.5317   27.7780 C   0  0  0  0  0  0  0  0  0  0  0  0
  -25.5029  -31.4115   24.5043 C   0  0  0  0  0  0  0  0  0  0  0  0
  -27.7596  -31.5987   25.5723 C   0  0  0  0  0  0  0  0  0  0  0  0
  -25.7787  -30.9653   26.9496 C   0  0  0  0  0  0  0  0  0  0  0  0
  -29.4143  -25.2027   26.2816 C   0  0  0  0  0  0  0  0  0  0  0  0
  -29.7283  -25.6155   17.9235 C   0  0  0  0  0  0  0  0  0  0  0  0
  -28.7554  -26.3410   18.8320 C   0  0  0  0  0  0  0  0  0  1  0  0
  -26.7367  -29.2927   25.3136 C   0  0  1  0  0  0  0  0  0  0  0  0
  -29.5079  -27.5234   27.2004 C   0  0  2  0  0  0  0  0  0  0  0  0
  -26.4398  -30.7982   25.5641 C   0  0  0  0  0  0  0  0  0  0  0  0
  -22.7253  -14.6366   21.0000 N   0  0  0  0  0  0  0  0  0  0  0  0
  -22.8930  -13.3352   21.2906 N   0  0  0  0  0  0  0  0  0  0  0  0
  -25.2331  -27.7664   24.0753 N   0  0  0  0  0  0  0  0  0  0  0  0
  -26.3744  -12.7924   19.7871 N   0  0  0  0  0  0  0  0  0  0  0  0
  -28.2388  -13.6434   21.0237 N   0  0  0  0  0  0  0  0  0  0  0  0
  -21.9772  -11.5467   22.5448 N   0  0  0  0  0  0  0  0  0  0  0  0
  -19.2272  -15.0008   23.4948 N   0  0  0  0  0  0  0  0  0  0  0  0
  -21.7655  -27.6090   22.9586 N   0  0  0  0  0  0  0  0  0  0  0  0
  -27.5997  -28.6788   26.3169 N   0  0  0  0  0  0  0  0  0  0  0  0
  -29.7134  -24.1477   18.2513 N   0  3  0  0  0  0  0  0  0  0  0  0
  -30.2603  -26.2883   26.8409 N   0  3  0  0  0  0  0  0  0  0  0  0
  -19.6458  -12.7850   23.9115 O   0  0  0  0  0  0  0  0  0  0  0  0
  -23.5112  -29.1393   22.7769 O   0  0  0  0  0  0  0  0  0  0  0  0
  -24.7473  -28.4151   26.2615 O   0  0  0  0  0  0  0  0  0  0  0  0
  -29.2574  -27.9989   24.8448 O   0  0  0  0  0  0  0  0  0  0  0  0
  -28.2594  -11.5257   20.1502 O   0  0  0  0  0  0  0  0  0  0  0  0
  -19.6538  -20.1908   21.5156 O   0  0  0  0  0  0  0  0  0  0  0  0
  -29.7659  -16.0667   20.0443 O   0  0  0  0  0  0  0  0  0  0  0  0
  -27.4492  -25.8105   18.6506 O   0  0  0  0  0  0  0  0  0  1  0  0
  -18.2026  -22.5568   26.2801 F   0  0  0  0  0  0  0  0  0  0  0  0
  -20.8752  -22.5178   22.3734 F   0  0  0  0  0  0  0  0  0  0  0  0
  1  2  1  0  0  0  0
  1  5  2  0  0  0  0
  2  6  2  0  0  0  0
  3  9  2  0  0  0  0
  3 17  1  0  0  0  0
  4 10  1  0  0  0  0
  4 17  2  0  0  0  0
  5 19  1  0  0  0  0
  6 21  1  0  0  0  0
  7 11  2  0  0  0  0
  7 20  1  0  0  0  0
  8 12  2  0  0  0  0
  8 22  1  0  0  0  0
  9 26  1  0  0  0  0
 10 26  2  0  0  0  0
 11 27  1  0  0  0  0
 12 28  1  0  0  0  0
 13 14  2  0  0  0  0
 13 29  1  0  0  0  0
 14 30  1  0  0  0  0
 15 23  1  0  0  0  0
 15 27  2  0  0  0  0
 16 30  2  0  0  0  0
 16 31  1  0  0  0  0
 17 32  1  0  0  0  0
 18 32  1  0  0  0  0
 18 33  2  0  0  0  0
 18 34  1  0  0  0  0
 19 21  2  0  0  0  0
 19 39  1  0  0  0  0
 20 23  2  0  0  0  0
 20 40  1  0  0  0  0
 21 56  1  0  0  0  0
 22 24  2  0  0  0  0
 22 55  1  0  0  0  0
 23 41  1  0  0  0  0
 24 25  1  0  0  0  0
 24 60  1  0  0  0  0
 25 28  2  0  0  0  0
 25 61  1  0  0  0  0
 26 88  1  0  0  0  0
 27 90  1  0  0  0  0
 28 89  1  0  0  0  0
 29 31  2  0  0  0  0
 29 88  1  0  0  0  0
 30 91  1  0  0  0  0
 31 92  1  0  0  0  0
 32 72  2  0  0  0  0
 33 73  1  0  0  0  0
 33 77  1  0  0  0  0
 34 78  1  0  0  0  0
 34 83  2  0  0  0  0
 35 57  1  0  0  0  0
 35 79  1  0  0  0  0
 35 84  2  0  0  0  0
 36 69  1  0  0  0  0
 36 74  1  0  0  0  0
 36 85  2  0  0  0  0
 37 70  1  0  0  0  0
 37 80  1  0  0  0  0
 37 86  2  0  0  0  0
 38 75  1  0  0  0  0
 38 76  1  0  0  0  0
 38 87  2  0  0  0  0
 39 42  1  0  0  0  0
 40 57  1  0  0  0  0
 41 74  1  0  0  0  0
 42 44  1  0  0  0  0
 43 45  1  0  0  0  0
 43 49  1  0  0  0  0
 44 56  1  0  0  0  0
 45 58  1  0  0  0  0
 46 50  1  0  0  0  0
 46 59  1  0  0  0  0
 47 53  1  0  0  0  0
 47 55  1  0  0  0  0
 48 54  1  0  0  0  0
 48 55  1  0  0  0  0
 49 75  1  0  0  0  0
 50 76  1  0  0  0  0
 51 58  1  0  0  0  0
 51 75  1  0  0  0  0
 52 59  1  0  0  0  0
 52 76  1  0  0  0  0
 53 81  1  0  0  0  0
 54 81  1  0  0  0  0
 56 79  1  0  0  0  0
 57 74  1  0  0  0  0
 58 73  1  0  0  0  0
 59 89  1  0  0  0  0
 62 70  1  0  0  0  0
 63 71  1  0  0  0  0
 64 71  1  0  0  0  0
 65 71  1  0  0  0  0
 66 82  1  0  0  0  0
 67 68  1  0  0  0  0
 67 81  1  0  0  0  0
 68 90  1  0  0  0  0
 69 71  1  0  0  0  0
 69 80  1  0  0  0  0
 70 82  1  0  0  0  0
 72 73  1  0  0  0  0
M  CHG  2  81   1  82   1
M  ISO  4  38 100  68 101  76 100  90 101
M  END
> <Batch ID>
0161

> <Smiles>
CNC(C)C(=O)NC(C(=O)N1Cc2cc([101O:1][101CH2:1]CN3CCC(c4ccc(OC5CC[100N:0]([100C:0](=O)N6CCCC(n7nc(-c8ccc(Oc9ccc(F)cc9F)cc8)c(C(N)=O)c7N)C6)C5)c(C)c4C)CC3)ccc2CC1C(=O)NC1CCCc2ccccc21)C(C)(C)C

> <Shape>
0.251

> <Color>
0.066

> <Negative vol penalty>
0.000

$$$$

  -OEChem-04052322123D

 92102  0     1  0  0  0  0  0999 V2000
  -31.7166  -27.3405   16.9162 C   0  0  0  0  0  0  0  0  0  0  0  0
  -30.3534  -27.0627   16.9162 C   0  0  0  0  0  0  0  0  0  0  0  0
  -22.7203  -10.6287   22.0396 C   0  0  0  0  0  0  0  0  0  0  0  0
  -23.1782   -9.7142   19.8507 C   0  0  0  0  0  0  0  0  0  0  0  0
  -32.3352  -27.7900   18.0820 C   0  0  0  0  0  0  0  0  0  0  0  0
  -29.6083  -27.2332   18.0825 C   0  0  0  0  0  0  0  0  0  0  0  0
  -23.7874  -29.0917   18.4935 C   0  0  0  0  0  0  0  0  0  0  0  0
  -22.2139   -9.3952   22.4490 C   0  0  0  0  0  0  0  0  0  0  0  0
  -22.6719   -8.4807   20.2602 C   0  0  0  0  0  0  0  0  0  0  0  0
  -22.5895  -28.3960   18.6513 C   0  0  0  0  0  0  0  0  0  0  0  0
  -23.4402   -6.4102   23.4583 C   0  0  0  0  0  0  0  0  0  0  0  0
  -23.8378   -5.9279   24.7052 C   0  0  0  0  0  0  0  0  0  0  0  0
  -22.6887  -28.7771   21.0313 C   0  0  0  0  0  0  0  0  0  0  0  0
  -21.5333   -5.9036   25.4306 C   0  0  0  0  0  0  0  0  0  0  0  0
  -23.2023  -10.7883   20.7404 C   0  0  0  0  0  0  0  0  0  0  0  0
  -25.0572  -12.5080   20.4089 C   0  0  0  0  0  0  0  0  0  0  0  0
  -31.5954  -27.9753   19.2606 C   0  0  0  0  0  0  0  0  0  0  0  0
  -24.4516  -29.6269   19.6066 C   0  0  0  0  0  0  0  0  0  0  0  0
  -30.2179  -27.6843   19.2655 C   0  0  0  0  0  0  0  0  0  0  0  0
  -23.8935  -29.4814   20.8846 C   0  0  0  0  0  0  0  0  0  0  0  0
  -22.5016  -22.5532   22.9825 C   0  0  0  0  0  0  0  0  0  0  0  0
  -21.3085  -24.8110   24.1057 C   0  0  0  0  0  0  0  0  0  0  0  0
  -21.3609  -23.1031   22.3977 C   0  0  0  0  0  0  0  0  0  0  0  0
  -23.0457  -23.1322   24.1291 C   0  0  0  0  0  0  0  0  0  0  0  0
  -20.7644  -24.2320   22.9592 C   0  0  0  0  0  0  0  0  0  0  0  0
  -22.1898   -8.3212   21.5594 C   0  0  0  0  0  0  0  0  0  0  0  0
  -22.0415  -28.2361   19.9206 C   0  0  0  0  0  0  0  0  0  0  0  0
  -22.0892   -6.6392   23.1974 C   0  0  0  0  0  0  0  0  0  0  0  0
  -22.4491  -24.2611   24.6906 C   0  0  0  0  0  0  0  0  0  0  0  0
  -22.8844   -5.6746   25.6914 C   0  0  0  0  0  0  0  0  0  0  0  0
  -21.1358   -6.3859   24.1836 C   0  0  0  0  0  0  0  0  0  0  0  0
  -23.7250  -12.0624   20.3166 C   0  0  0  0  0  0  0  0  0  0  0  0
  -25.0339  -13.7730   19.8746 C   0  0  0  0  0  0  0  0  0  0  0  0
  -26.2124  -11.8382   20.9310 C   0  0  0  0  0  0  0  0  0  0  0  0
  -27.2875  -29.1603   20.9646 C   0  0  0  0  0  0  0  0  0  0  0  0
  -26.3714  -31.6543   22.8256 C   0  0  0  0  0  0  0  0  0  0  0  0
  -23.8239  -33.5091   24.1359 C   0  0  0  0  0  0  0  0  0  0  0  0
  -22.7978  -18.7314   19.2145 C   0  0  0  0  0  0  0  0  0  0  0  0
  -32.3172  -28.4179   20.5087 C   0  0  0  0  0  0  0  0  0  0  0  0
  -25.7292  -30.3977   19.4165 C   0  0  0  0  0  0  0  0  0  0  0  0
  -24.5568  -30.0542   22.1095 C   0  0  0  0  0  0  0  0  0  0  0  0
  -31.3840  -28.9303   21.6027 C   0  0  0  0  0  0  0  0  0  0  0  0
  -21.4352  -16.2015   17.2932 C   0  0  0  0  0  0  0  0  0  0  0  0
  -20.2653  -25.9804   26.1596 C   0  0  0  0  0  0  0  0  0  0  0  0
  -19.2184  -25.9692   25.0899 C   0  0  0  0  0  0  0  0  0  0  0  0
  -30.2051  -27.9801   21.7870 C   0  0  0  0  0  0  0  0  0  0  0  0
  -22.0141  -14.9270   17.9071 C   0  0  0  0  0  0  0  0  0  0  0  0
  -22.2109  -20.1066   22.3897 C   0  0  0  0  0  0  0  0  0  0  0  0
  -23.6661  -21.5931   20.9466 C   0  0  0  0  0  0  0  0  0  0  0  0
  -21.0424  -17.1993   18.3765 C   0  0  0  0  0  0  0  0  0  0  0  0
  -22.8609  -18.8800   21.7432 C   0  0  0  0  0  0  0  0  0  0  0  0
  -24.2982  -20.3363   20.3554 C   0  0  0  0  0  0  0  0  0  0  0  0
  -22.7509  -16.2962   19.9203 C   0  0  0  0  0  0  0  0  0  0  0  0
  -23.1510  -21.3254   22.3724 C   0  0  0  0  0  0  0  0  0  0  0  0
  -20.6735  -26.0216   24.7125 C   0  0  0  0  0  0  0  0  0  0  0  0
  -29.3709  -27.8805   20.5042 C   0  0  1  0  0  0  0  0  0  0  0  0
  -26.5846  -30.4571   20.6783 C   0  0  1  0  0  0  0  0  0  0  0  0
  -23.1727  -15.2522   18.8665 C   0  0  1  0  0  0  0  0  0  0  0  0
  -20.7772  -22.4822   21.1678 C   0  0  0  0  0  0  0  0  0  0  0  0
  -24.2687  -22.5471   24.7608 C   0  0  0  0  0  0  0  0  0  0  0  0
  -23.3853  -35.4600   25.6521 C   0  0  0  0  0  0  0  0  0  0  0  0
  -26.9608  -29.8989   25.2507 C   0  0  0  0  0  0  0  0  0  0  0  0
  -25.6372  -31.5023   26.6456 C   0  0  0  0  0  0  0  0  0  0  0  0
  -27.7017  -32.2766   25.4791 C   0  0  0  0  0  0  0  0  0  0  0  0
  -22.5152  -35.0457   21.9714 C   0  0  0  0  0  0  0  0  0  0  0  0
  -23.9653  -25.8401   25.6200 C   0  0  0  0  0  0  0  0  0  0  0  0
  -19.5405  -24.8210   22.3311 C   0  0  0  0  0  0  0  0  0  0  0  0
  -19.8176  -25.6340   21.0591 C   0  0  0  0  0  0  0  0  0  0  0  0
  -20.6842  -26.8628   21.3090 C   0  0  0  0  0  0  0  0  0  1  0  0
  -25.6198  -31.7976   24.1270 C   0  0  1  0  0  0  0  0  0  0  0  0
  -23.6086  -35.0096   24.2168 C   0  0  2  0  0  0  0  0  0  0  0  0
  -26.4681  -31.3563   25.3529 C   0  0  0  0  0  0  0  0  0  0  0  0
  -22.9144  -12.9706   19.7670 N   0  0  0  0  0  0  0  0  0  0  0  0
  -23.7395  -13.9996   19.5092 N   0  0  0  0  0  0  0  0  0  0  0  0
  -25.8074  -30.7942   21.8727 N   0  0  0  0  0  0  0  0  0  0  0  0
  -22.1675  -17.4790   19.2684 N   0  0  0  0  0  0  0  0  0  0  0  0
  -23.3696  -19.2072   20.4040 N   0  0  0  0  0  0  0  0  0  0  0  0
  -25.9945  -14.7027   19.6863 N   0  0  0  0  0  0  0  0  0  0  0  0
  -26.0594  -10.5419   21.4414 N   0  0  0  0  0  0  0  0  0  0  0  0
  -28.5246  -29.0456   20.3599 N   0  0  0  0  0  0  0  0  0  0  0  0
  -25.1625  -33.1818   24.1839 N   0  0  0  0  0  0  0  0  0  0  0  0
  -22.4207  -35.4067   23.4094 N   0  3  0  0  0  0  0  0  0  0  0  0
  -27.3436  -12.3797   20.9594 O   0  0  0  0  0  0  0  0  0  0  0  0
  -26.7480  -28.3263   21.6822 O   0  0  0  0  0  0  0  0  0  0  0  0
  -27.4165  -32.2877   22.6578 O   0  0  0  0  0  0  0  0  0  0  0  0
  -22.8971  -32.7072   24.0434 O   0  0  0  0  0  0  0  0  0  0  0  0
  -22.8477  -19.3860   18.1656 O   0  0  0  0  0  0  0  0  0  0  0  0
  -21.6960   -7.1173   21.9587 O   0  0  0  0  0  0  0  0  0  0  0  0
  -22.9823  -24.8263   25.8124 O   0  0  0  0  0  0  0  0  0  0  0  0
  -20.8645  -27.5521   20.0786 O   0  0  0  0  0  0  0  0  0  1  0  0
  -23.2662   -5.2100   26.8883 F   0  0  0  0  0  0  0  0  0  0  0  0
  -19.8363   -6.6029   23.9385 F   0  0  0  0  0  0  0  0  0  0  0  0
  1  2  1  0  0  0  0
  1  5  2  0  0  0  0
  2  6  2  0  0  0  0
  3  8  2  0  0  0  0
  3 15  1  0  0  0  0
  4  9  1  0  0  0  0
  4 15  2  0  0  0  0
  5 17  1  0  0  0  0
  6 19  1  0  0  0  0
  7 10  2  0  0  0  0
  7 18  1  0  0  0  0
  8 26  1  0  0  0  0
  9 26  2  0  0  0  0
 10 27  1  0  0  0  0
 11 12  2  0  0  0  0
 11 28  1  0  0  0  0
 12 30  1  0  0  0  0
 13 20  1  0  0  0  0
 13 27  2  0  0  0  0
 14 30  2  0  0  0  0
 14 31  1  0  0  0  0
 15 32  1  0  0  0  0
 16 32  1  0  0  0  0
 16 33  2  0  0  0  0
 16 34  1  0  0  0  0
 17 19  2  0  0  0  0
 17 39  1  0  0  0  0
 18 20  2  0  0  0  0
 18 40  1  0  0  0  0
 19 56  1  0  0  0  0
 20 41  1  0  0  0  0
 21 23  2  0  0  0  0
 21 24  1  0  0  0  0
 21 54  1  0  0  0  0
 22 25  2  0  0  0  0
 22 29  1  0  0  0  0
 22 55  1  0  0  0  0
 23 25  1  0  0  0  0
 23 59  1  0  0  0  0
 24 29  2  0  0  0  0
 24 60  1  0  0  0  0
 25 67  1  0  0  0  0
 26 88  1  0  0  0  0
 27 90  1  0  0  0  0
 28 31  2  0  0  0  0
 28 88  1  0  0  0  0
 29 89  1  0  0  0  0
 30 91  1  0  0  0  0
 31 92  1  0  0  0  0
 32 73  2  0  0  0  0
 33 74  1  0  0  0  0
 33 78  1  0  0  0  0
 34 79  1  0  0  0  0
 34 83  2  0  0  0  0
 35 57  1  0  0  0  0
 35 80  1  0  0  0  0
 35 84  2  0  0  0  0
 36 70  1  0  0  0  0
 36 75  1  0  0  0  0
 36 85  2  0  0  0  0
 37 71  1  0  0  0  0
 37 81  1  0  0  0  0
 37 86  2  0  0  0  0
 38 76  1  0  0  0  0
 38 77  1  0  0  0  0
 38 87  2  0  0  0  0
 39 42  1  0  0  0  0
 40 57  1  0  0  0  0
 41 75  1  0  0  0  0
 42 46  1  0  0  0  0
 43 47  1  0  0  0  0
 43 50  1  0  0  0  0
 44 45  1  0  0  0  0
 44 55  1  0  0  0  0
 45 55  1  0  0  0  0
 46 56  1  0  0  0  0
 47 58  1  0  0  0  0
 48 51  1  0  0  0  0
 48 54  1  0  0  0  0
 49 52  1  0  0  0  0
 49 54  1  0  0  0  0
 50 76  1  0  0  0  0
 51 77  1  0  0  0  0
 52 77  1  0  0  0  0
 53 58  1  0  0  0  0
 53 76  1  0  0  0  0
 56 80  1  0  0  0  0
 57 75  1  0  0  0  0
 58 74  1  0  0  0  0
 61 71  1  0  0  0  0
 62 72  1  0  0  0  0
 63 72  1  0  0  0  0
 64 72  1  0  0  0  0
 65 82  1  0  0  0  0
 66 89  1  0  0  0  0
 67 68  1  0  0  0  0
 68 69  1  0  0  0  0
 69 90  1  0  0  0  0
 70 72  1  0  0  0  0
 70 81  1  0  0  0  0
 71 82  1  0  0  0  0
 73 74  1  0  0  0  0
M  CHG  1  82   1
M  ISO  4  38 100  69 101  77 100  90 101
M  END
> <Batch ID>
0161

> <Smiles>
CNC(C)C(=O)NC(C(=O)N1Cc2cc([101O:1][101CH2:1]CCc3c(C)c(C4CC[100N:0]([100C:0](=O)N5CCCC(n6nc(-c7ccc(Oc8ccc(F)cc8F)cc7)c(C(N)=O)c6N)C5)CC4)c(C)c(OC)c3C3CC3)ccc2CC1C(=O)NC1CCCc2ccccc21)C(C)(C)C

> <Shape>
0.251

> <Color>
0.102

> <Negative vol penalty>
0.000

$$$$

  -OEChem-04052322123D

 86 95  0     1  0  0  0  0  0999 V2000
  -32.8863  -29.4790   21.6856 C   0  0  0  0  0  0  0  0  0  0  0  0
  -31.8760  -30.2419   21.1110 C   0  0  0  0  0  0  0  0  0  0  0  0
  -31.9986  -20.6179   16.0174 C   0  0  0  0  0  0  0  0  0  0  0  0
  -29.8398  -19.7340   15.3886 C   0  0  0  0  0  0  0  0  0  0  0  0
  -33.2703  -28.2779   21.0930 C   0  0  0  0  0  0  0  0  0  0  0  0
  -31.2412  -29.7983   19.9504 C   0  0  0  0  0  0  0  0  0  0  0  0
  -24.1283  -17.4021   21.3099 C   0  0  0  0  0  0  0  0  0  0  0  0
  -25.9275  -24.7166   17.6707 C   0  0  0  0  0  0  0  0  0  0  0  0
  -23.3266  -18.5337   21.4592 C   0  0  0  0  0  0  0  0  0  0  0  0
  -32.3818  -20.6359   14.6764 C   0  0  0  0  0  0  0  0  0  0  0  0
  -30.2230  -19.7521   14.0476 C   0  0  0  0  0  0  0  0  0  0  0  0
  -25.6371  -23.4593   18.1984 C   0  0  0  0  0  0  0  0  0  0  0  0
  -34.0569  -20.5764   11.4492 C   0  0  0  0  0  0  0  0  0  0  0  0
  -35.3255  -20.0930   11.1291 C   0  0  0  0  0  0  0  0  0  0  0  0
  -25.8196  -24.3599   20.4288 C   0  0  0  0  0  0  0  0  0  0  0  0
  -34.7342  -17.9360   12.0428 C   0  0  0  0  0  0  0  0  0  0  0  0
  -30.7276  -20.1668   16.3736 C   0  0  0  0  0  0  0  0  0  0  0  0
  -29.6992  -21.1802   18.4767 C   0  0  0  0  0  0  0  0  0  0  0  0
  -32.6479  -27.8262   19.9176 C   0  0  0  0  0  0  0  0  0  0  0  0
  -26.1773  -25.8044   18.5196 C   0  0  0  0  0  0  0  0  0  0  0  0
  -31.5981  -28.5770   19.3505 C   0  0  0  0  0  0  0  0  0  0  0  0
  -25.2373  -17.4396   20.4646 C   0  0  0  0  0  0  0  0  0  0  0  0
  -26.1104  -25.6306   19.9094 C   0  0  0  0  0  0  0  0  0  0  0  0
  -23.6337  -19.7028   20.7631 C   0  0  0  0  0  0  0  0  0  0  0  0
  -25.5444  -18.6087   19.7685 C   0  0  0  0  0  0  0  0  0  0  0  0
  -24.7426  -19.7403   19.9177 C   0  0  0  0  0  0  0  0  0  0  0  0
  -31.4940  -20.2031   13.6914 C   0  0  0  0  0  0  0  0  0  0  0  0
  -25.5859  -23.2801   19.5777 C   0  0  0  0  0  0  0  0  0  0  0  0
  -33.1269  -19.7396   12.0662 C   0  0  0  0  0  0  0  0  0  0  0  0
  -35.6642  -18.7729   11.4259 C   0  0  0  0  0  0  0  0  0  0  0  0
  -33.4655  -18.4195   12.3630 C   0  0  0  0  0  0  0  0  0  0  0  0
  -30.3313  -20.1474   17.7587 C   0  0  0  0  0  0  0  0  0  0  0  0
  -29.5385  -20.6704   19.7419 C   0  0  0  0  0  0  0  0  0  0  0  0
  -29.2934  -22.4838   18.0390 C   0  0  0  0  0  0  0  0  0  0  0  0
  -28.6591  -27.7217   19.0377 C   0  0  0  0  0  0  0  0  0  0  0  0
  -26.5556  -29.2840   20.9501 C   0  0  0  0  0  0  0  0  0  0  0  0
  -23.7113  -29.1659   22.8324 C   0  0  0  0  0  0  0  0  0  0  0  0
  -29.3449  -14.8229   21.4987 C   0  0  0  0  0  0  0  0  0  0  0  0
  -33.0975  -26.5150   19.3226 C   0  0  0  0  0  0  0  0  0  0  0  0
  -26.4628  -27.1603   17.9344 C   0  0  0  0  0  0  0  0  0  0  0  0
  -26.3508  -26.7708   20.8636 C   0  0  0  0  0  0  0  0  0  0  0  0
  -32.6802  -26.3494   17.8650 C   0  0  0  0  0  0  0  0  0  0  0  0
  -31.4544  -17.5628   22.8251 C   0  0  0  0  0  0  0  0  0  0  0  0
  -31.2005  -26.6667   17.7088 C   0  0  0  0  0  0  0  0  0  0  0  0
  -31.4127  -18.5883   21.6922 C   0  0  0  0  0  0  0  0  0  0  0  0
  -31.2728  -16.1369   22.3116 C   0  0  0  0  0  0  0  0  0  0  0  0
  -27.1459  -13.7145   21.2637 C   0  0  0  0  0  0  0  0  0  0  0  0
  -27.2008  -16.1642   21.3730 C   0  0  0  0  0  0  0  0  0  0  0  0
  -30.0238  -16.9690   20.3475 C   0  0  0  0  0  0  0  0  0  0  0  0
  -26.0106  -13.8314   20.2542 C   0  0  0  0  0  0  0  0  0  0  0  0
  -30.9144  -28.1295   18.0712 C   0  0  1  0  0  0  0  0  0  0  0  0
  -26.0897  -16.1990   20.3214 C   0  0  1  0  0  0  0  0  0  0  0  0
  -27.2071  -28.0815   18.8961 C   0  0  1  0  0  0  0  0  0  0  0  0
  -30.1385  -18.4165   20.8478 C   0  0  2  0  0  0  0  0  0  0  0  0
  -22.7576  -20.8999   20.9394 C   0  0  0  0  0  0  0  0  0  0  0  0
  -26.3445  -18.5448   17.3932 C   0  0  0  0  0  0  0  0  0  0  0  0
  -22.2646  -30.5904   24.3072 C   0  0  0  0  0  0  0  0  0  0  0  0
  -28.6070  -29.0385   23.1955 C   0  0  0  0  0  0  0  0  0  0  0  0
  -26.7879  -29.5933   24.8238 C   0  0  0  0  0  0  0  0  0  0  0  0
  -27.4466  -31.2509   23.0799 C   0  0  0  0  0  0  0  0  0  0  0  0
  -21.3702  -28.8347   21.0524 C   0  0  0  0  0  0  0  0  0  0  0  0
  -26.7349  -18.6464   18.8636 C   0  0  0  0  0  0  0  0  0  0  0  0
  -25.0696  -20.9946   19.1707 C   0  0  0  0  0  0  0  0  0  1  0  0
  -26.1545  -29.1861   22.4022 C   0  0  1  0  0  0  0  0  0  0  0  0
  -22.5048  -30.0851   22.8930 C   0  0  2  0  0  0  0  0  0  0  0  0
  -27.2463  -29.7451   23.3576 C   0  0  0  0  0  0  0  0  0  0  0  0
  -30.5570  -19.0634   18.5058 N   0  0  0  0  0  0  0  0  0  0  0  0
  -30.0640  -19.4123   19.7063 N   0  0  0  0  0  0  0  0  0  0  0  0
  -26.6325  -28.0758   20.2429 N   0  0  0  0  0  0  0  0  0  0  0  0
  -30.0848  -16.0162   21.4659 N   0  0  0  0  0  0  0  0  0  0  0  0
  -27.9698  -14.9210   21.2451 N   0  0  0  0  0  0  0  0  0  0  0  0
  -29.0004  -21.1800   20.8702 N   0  0  0  0  0  0  0  0  0  0  0  0
  -29.5339  -22.8462   16.7067 N   0  0  0  0  0  0  0  0  0  0  0  0
  -29.4833  -28.3343   18.1131 N   0  0  0  0  0  0  0  0  0  0  0  0
  -24.8628  -29.8548   22.5148 N   0  0  0  0  0  0  0  0  0  0  0  0
  -21.2819  -29.3655   22.4371 N   0  3  0  0  0  0  0  0  0  0  0  0
  -28.7489  -23.3091   18.8110 O   0  0  0  0  0  0  0  0  0  0  0  0
  -29.0062  -26.9470   19.9214 O   0  0  0  0  0  0  0  0  0  0  0  0
  -26.7852  -30.3922   20.4595 O   0  0  0  0  0  0  0  0  0  0  0  0
  -23.6402  -27.9582   23.0490 O   0  0  0  0  0  0  0  0  0  0  0  0
  -29.8815  -13.7341   21.7394 O   0  0  0  0  0  0  0  0  0  0  0  0
  -25.2630  -15.0334   20.4581 O   0  0  0  0  0  0  0  0  0  0  0  0
  -31.8675  -20.2208   12.3827 O   0  0  0  0  0  0  0  0  0  0  0  0
  -25.3012  -22.0447   20.0993 O   0  0  0  0  0  0  0  0  0  1  0  0
  -36.8820  -18.3084   11.1170 F   0  0  0  0  0  0  0  0  0  0  0  0
  -32.5759  -17.6105   12.9546 F   0  0  0  0  0  0  0  0  0  0  0  0
  1  2  1  0  0  0  0
  1  5  2  0  0  0  0
  2  6  2  0  0  0  0
  3 10  2  0  0  0  0
  3 17  1  0  0  0  0
  4 11  1  0  0  0  0
  4 17  2  0  0  0  0
  5 19  1  0  0  0  0
  6 21  1  0  0  0  0
  7  9  1  0  0  0  0
  7 22  2  0  0  0  0
  8 12  2  0  0  0  0
  8 20  1  0  0  0  0
  9 24  2  0  0  0  0
 10 27  1  0  0  0  0
 11 27  2  0  0  0  0
 12 28  1  0  0  0  0
 13 14  2  0  0  0  0
 13 29  1  0  0  0  0
 14 30  1  0  0  0  0
 15 23  1  0  0  0  0
 15 28  2  0  0  0  0
 16 30  2  0  0  0  0
 16 31  1  0  0  0  0
 17 32  1  0  0  0  0
 18 32  1  0  0  0  0
 18 33  2  0  0  0  0
 18 34  1  0  0  0  0
 19 21  2  0  0  0  0
 19 39  1  0  0  0  0
 20 23  2  0  0  0  0
 20 40  1  0  0  0  0
 21 51  1  0  0  0  0
 22 25  1  0  0  0  0
 22 52  1  0  0  0  0
 23 41  1  0  0  0  0
 24 26  1  0  0  0  0
 24 55  1  0  0  0  0
 25 26  2  0  0  0  0
 25 62  1  0  0  0  0
 26 63  1  0  0  0  0
 27 83  1  0  0  0  0
 28 84  1  0  0  0  0
 29 31  2  0  0  0  0
 29 83  1  0  0  0  0
 30 85  1  0  0  0  0
 31 86  1  0  0  0  0
 32 67  2  0  0  0  0
 33 68  1  0  0  0  0
 33 72  1  0  0  0  0
 34 73  1  0  0  0  0
 34 77  2  0  0  0  0
 35 53  1  0  0  0  0
 35 74  1  0  0  0  0
 35 78  2  0  0  0  0
 36 64  1  0  0  0  0
 36 69  1  0  0  0  0
 36 79  2  0  0  0  0
 37 65  1  0  0  0  0
 37 75  1  0  0  0  0
 37 80  2  0  0  0  0
 38 70  1  0  0  0  0
 38 71  1  0  0  0  0
 38 81  2  0  0  0  0
 39 42  1  0  0  0  0
 40 53  1  0  0  0  0
 41 69  1  0  0  0  0
 42 44  1  0  0  0  0
 43 45  1  0  0  0  0
 43 46  1  0  0  0  0
 44 51  1  0  0  0  0
 45 54  1  0  0  0  0
 46 70  1  0  0  0  0
 47 50  1  0  0  0  0
 47 71  1  0  0  0  0
 48 52  1  0  0  0  0
 48 71  1  0  0  0  0
 49 54  1  0  0  0  0
 49 70  1  0  0  0  0
 50 82  1  0  0  0  0
 51 74  1  0  0  0  0
 52 82  1  0  0  0  0
 53 69  1  0  0  0  0
 54 68  1  0  0  0  0
 56 62  1  0  0  0  0
 57 65  1  0  0  0  0
 58 66  1  0  0  0  0
 59 66  1  0  0  0  0
 60 66  1  0  0  0  0
 61 76  1  0  0  0  0
 63 84  1  0  0  0  0
 64 66  1  0  0  0  0
 64 75  1  0  0  0  0
 65 76  1  0  0  0  0
 67 68  1  0  0  0  0
M  CHG  1  76   1
M  ISO  4  38 100  63 101  71 100  84 101
M  END
> <Batch ID>
0161

> <Smiles>
CCc1c(C2C[100N:0]([100C:0](=O)N3CCCC(n4nc(-c5ccc(Oc6ccc(F)cc6F)cc5)c(C(N)=O)c4N)C3)CCO2)ccc(C)c1[101CH2:1][101O:1]c1ccc2c(c1)CN(C(=O)C(NC(=O)C(C)NC)C(C)(C)C)C(C(=O)NC1CCCc3ccccc31)C2

> <Shape>
0.193

> <Color>
0.081

> <Negative vol penalty>
0.000

$$$$

  -OEChem-04052322123D

 89 99  0     1  0  0  0  0  0999 V2000
  -24.1375  -11.7149   20.4726 C   0  0  0  0  0  0  0  0  0  0  0  0
  -23.9670  -12.7805   21.3506 C   0  0  0  0  0  0  0  0  0  0  0  0
  -24.8025  -32.1665   21.1262 C   0  0  0  0  0  0  0  0  0  0  0  0
  -25.7123  -31.5190   23.2686 C   0  0  0  0  0  0  0  0  0  0  0  0
  -25.3671  -11.5203   19.8448 C   0  0  0  0  0  0  0  0  0  0  0  0
  -25.0265  -13.6516   21.6021 C   0  0  0  0  0  0  0  0  0  0  0  0
  -23.6054  -18.5116   21.5276 C   0  0  0  0  0  0  0  0  0  0  0  0
  -25.2804  -33.4632   21.3151 C   0  0  0  0  0  0  0  0  0  0  0  0
  -26.1903  -32.8157   23.4576 C   0  0  0  0  0  0  0  0  0  0  0  0
  -22.9461  -18.9995   22.6549 C   0  0  0  0  0  0  0  0  0  0  0  0
  -24.9463  -35.8183   24.3891 C   0  0  0  0  0  0  0  0  0  0  0  0
  -24.7440  -36.4082   25.6368 C   0  0  0  0  0  0  0  0  0  0  0  0
  -25.0050  -19.9972   23.4198 C   0  0  0  0  0  0  0  0  0  0  0  0
  -27.1329  -36.6377   25.9155 C   0  0  0  0  0  0  0  0  0  0  0  0
  -25.0184  -31.1944   22.1030 C   0  0  0  0  0  0  0  0  0  0  0  0
  -25.1986  -28.7804   21.2979 C   0  0  0  0  0  0  0  0  0  0  0  0
  -26.4393  -12.3951   20.0813 C   0  0  0  0  0  0  0  0  0  0  0  0
  -24.9743  -18.7539   21.3430 C   0  0  0  0  0  0  0  0  0  0  0  0
  -26.2720  -13.4677   20.9779 C   0  0  0  0  0  0  0  0  0  0  0  0
  -25.6788  -19.5134   22.2880 C   0  0  0  0  0  0  0  0  0  0  0  0
  -23.0254  -20.7274   28.0140 C   0  0  0  0  0  0  0  0  0  0  0  0
  -22.2142  -21.1095   29.0824 C   0  0  0  0  0  0  0  0  0  0  0  0
  -22.9123  -21.3774   26.7850 C   0  0  0  0  0  0  0  0  0  0  0  0
  -21.2897  -22.1416   28.9218 C   0  0  0  0  0  0  0  0  0  0  0  0
  -21.9878  -22.4095   26.6244 C   0  0  0  0  0  0  0  0  0  0  0  0
  -21.1765  -22.7916   27.6928 C   0  0  0  0  0  0  0  0  0  0  0  0
  -25.9743  -33.7878   22.4808 C   0  0  0  0  0  0  0  0  0  0  0  0
  -23.6465  -19.7400   23.6027 C   0  0  0  0  0  0  0  0  0  0  0  0
  -26.2419  -35.6381   23.9046 C   0  0  0  0  0  0  0  0  0  0  0  0
  -25.8373  -36.8179   26.4000 C   0  0  0  0  0  0  0  0  0  0  0  0
  -27.3352  -36.0478   24.6678 C   0  0  0  0  0  0  0  0  0  0  0  0
  -24.5245  -29.8548   21.9086 C   0  0  0  0  0  0  0  0  0  0  0  0
  -24.3087  -27.7362   21.3611 C   0  0  0  0  0  0  0  0  0  0  0  0
  -26.5119  -28.7308   20.7247 C   0  0  0  0  0  0  0  0  0  0  0  0
  -27.5649  -16.9264   21.1140 C   0  0  0  0  0  0  0  0  0  0  0  0
  -29.0182  -19.7466   20.4381 C   0  0  0  0  0  0  0  0  0  0  0  0
  -29.0061  -23.1490   20.7039 C   0  0  0  0  0  0  0  0  0  0  0  0
  -19.8839  -26.5607   25.0768 C   0  0  0  0  0  0  0  0  0  0  0  0
  -27.7637  -12.1166   19.4158 C   0  0  0  0  0  0  0  0  0  0  0  0
  -25.6649  -18.2433   20.1082 C   0  0  0  0  0  0  0  0  0  0  0  0
  -27.1448  -19.8186   22.1264 C   0  0  0  0  0  0  0  0  0  0  0  0
  -28.7233  -13.3034   19.4485 C   0  0  0  0  0  0  0  0  0  0  0  0
  -19.6130  -26.8199   21.4783 C   0  0  0  0  0  0  0  0  0  0  0  0
  -25.0305  -19.7189   29.2932 C   0  0  0  0  0  0  0  0  0  0  0  0
  -25.4636  -19.8832   27.8699 C   0  0  0  0  0  0  0  0  0  0  0  0
  -28.7674  -13.9158   20.8449 C   0  0  0  0  0  0  0  0  0  0  0  0
  -20.9211  -27.5309   21.1272 C   0  0  0  0  0  0  0  0  0  0  0  0
  -17.8995  -23.1565   27.1456 C   0  0  0  0  0  0  0  0  0  0  0  0
  -17.1201  -24.2513   26.3858 C   0  0  0  0  0  0  0  0  0  0  0  0
  -19.0283  -27.3491   22.7848 C   0  0  0  0  0  0  0  0  0  0  0  0
  -21.2633  -27.9900   23.5986 C   0  0  0  0  0  0  0  0  0  0  0  0
  -24.0172  -19.6203   28.1865 C   0  0  0  0  0  0  0  0  0  0  0  0
  -27.3899  -14.4486   21.2574 C   0  0  1  0  0  0  0  0  0  0  0  0
  -27.1753  -18.1132   20.2789 C   0  0  1  0  0  0  0  0  0  0  0  0
  -21.9171  -27.4822   22.3007 C   0  0  2  0  0  0  0  0  0  0  0  0
  -19.1885  -23.7873   26.5757 C   0  0  1  0  0  0  0  0  0  0  0  0
  -18.4012  -25.1166   26.4646 C   0  0  1  0  0  0  0  0  0  0  0  0
  -22.3347  -20.4131   30.4017 C   0  0  0  0  0  0  0  0  0  0  0  0
  -20.4209  -22.5495   30.0708 C   0  0  0  0  0  0  0  0  0  0  0  0
  -21.8696  -23.1049   25.3039 C   0  0  0  0  0  0  0  0  0  0  0  0
  -29.7388  -25.5175   20.3157 C   0  0  0  0  0  0  0  0  0  0  0  0
  -31.0025  -19.1152   22.6683 C   0  0  0  0  0  0  0  0  0  0  0  0
  -31.6915  -21.5220   22.6417 C   0  0  0  0  0  0  0  0  0  0  0  0
  -32.0243  -20.1087   20.6132 C   0  0  0  0  0  0  0  0  0  0  0  0
  -27.3338  -23.3905   18.2740 C   0  0  0  0  0  0  0  0  0  0  0  0
  -23.7844  -20.9679   25.6347 C   0  0  0  0  0  0  0  0  0  1  0  0
  -29.6863  -20.8274   21.2533 C   0  0  1  0  0  0  0  0  0  0  0  0
  -29.2215  -24.2407   19.6714 C   0  0  2  0  0  0  0  0  0  0  0  0
  -31.0740  -20.3861   21.7984 C   0  0  0  0  0  0  0  0  0  0  0  0
  -23.3007  -29.5236   22.3288 N   0  0  0  0  0  0  0  0  0  0  0  0
  -23.1987  -28.2294   21.9814 N   0  0  0  0  0  0  0  0  0  0  0  0
  -27.7769  -19.2921   20.9055 N   0  0  0  0  0  0  0  0  0  0  0  0
  -20.0207  -27.2569   23.8653 N   0  0  0  0  0  0  0  0  0  0  0  0
  -24.3752  -26.4533   20.9460 N   0  0  0  0  0  0  0  0  0  0  0  0
  -27.2935  -29.8940   20.7435 N   0  0  0  0  0  0  0  0  0  0  0  0
  -20.2387  -23.8383   27.5302 N   0  0  0  0  0  0  0  0  0  0  0  0
  -27.1245  -15.7166   20.6123 N   0  0  0  0  0  0  0  0  0  0  0  0
  -29.7274  -22.0128   20.4039 N   0  0  0  0  0  0  0  0  0  0  0  0
  -18.6818  -25.8859   25.2612 N   0  0  0  0  0  0  0  0  0  0  0  0
  -27.9428  -24.5519   18.9721 N   0  3  0  0  0  0  0  0  0  0  0  0
  -26.9722  -27.6904   20.1963 O   0  0  0  0  0  0  0  0  0  0  0  0
  -28.2181  -17.0957   22.1369 O   0  0  0  0  0  0  0  0  0  0  0  0
  -29.5737  -19.3263   19.4201 O   0  0  0  0  0  0  0  0  0  0  0  0
  -28.2742  -23.2912   21.6809 O   0  0  0  0  0  0  0  0  0  0  0  0
  -20.7703  -26.5327   25.9377 O   0  0  0  0  0  0  0  0  0  0  0  0
  -26.4410  -35.0530   22.6654 O   0  0  0  0  0  0  0  0  0  0  0  0
  -23.0055  -20.2169   24.7043 O   0  0  0  0  0  0  0  0  0  1  0  0
  -25.6428  -37.3857   27.5974 F   0  0  0  0  0  0  0  0  0  0  0  0
  -28.5821  -35.8783   24.2072 F   0  0  0  0  0  0  0  0  0  0  0  0
  1  2  1  0  0  0  0
  1  5  2  0  0  0  0
  2  6  2  0  0  0  0
  3  8  2  0  0  0  0
  3 15  1  0  0  0  0
  4  9  1  0  0  0  0
  4 15  2  0  0  0  0
  5 17  1  0  0  0  0
  6 19  1  0  0  0  0
  7 10  2  0  0  0  0
  7 18  1  0  0  0  0
  8 27  1  0  0  0  0
  9 27  2  0  0  0  0
 10 28  1  0  0  0  0
 11 12  2  0  0  0  0
 11 29  1  0  0  0  0
 12 30  1  0  0  0  0
 13 20  1  0  0  0  0
 13 28  2  0  0  0  0
 14 30  2  0  0  0  0
 14 31  1  0  0  0  0
 15 32  1  0  0  0  0
 16 32  1  0  0  0  0
 16 33  2  0  0  0  0
 16 34  1  0  0  0  0
 17 19  2  0  0  0  0
 17 39  1  0  0  0  0
 18 20  2  0  0  0  0
 18 40  1  0  0  0  0
 19 53  1  0  0  0  0
 20 41  1  0  0  0  0
 21 22  1  0  0  0  0
 21 23  2  0  0  0  0
 21 52  1  0  0  0  0
 22 24  2  0  0  0  0
 22 58  1  0  0  0  0
 23 25  1  0  0  0  0
 23 66  1  0  0  0  0
 24 26  1  0  0  0  0
 24 59  1  0  0  0  0
 25 26  2  0  0  0  0
 25 60  1  0  0  0  0
 26 76  1  0  0  0  0
 27 86  1  0  0  0  0
 28 87  1  0  0  0  0
 29 31  2  0  0  0  0
 29 86  1  0  0  0  0
 30 88  1  0  0  0  0
 31 89  1  0  0  0  0
 32 70  2  0  0  0  0
 33 71  1  0  0  0  0
 33 74  1  0  0  0  0
 34 75  1  0  0  0  0
 34 81  2  0  0  0  0
 35 54  1  0  0  0  0
 35 77  1  0  0  0  0
 35 82  2  0  0  0  0
 36 67  1  0  0  0  0
 36 72  1  0  0  0  0
 36 83  2  0  0  0  0
 37 68  1  0  0  0  0
 37 78  1  0  0  0  0
 37 84  2  0  0  0  0
 38 73  1  0  0  0  0
 38 79  1  0  0  0  0
 38 85  2  0  0  0  0
 39 42  1  0  0  0  0
 40 54  1  0  0  0  0
 41 72  1  0  0  0  0
 42 46  1  0  0  0  0
 43 47  1  0  0  0  0
 43 50  1  0  0  0  0
 44 45  1  0  0  0  0
 44 52  1  0  0  0  0
 45 52  1  0  0  0  0
 46 53  1  0  0  0  0
 47 55  1  0  0  0  0
 48 49  1  0  0  0  0
 48 56  1  0  0  0  0
 49 57  1  0  0  0  0
 50 73  1  0  0  0  0
 51 55  1  0  0  0  0
 51 73  1  0  0  0  0
 53 77  1  0  0  0  0
 54 72  1  0  0  0  0
 55 71  1  0  0  0  0
 56 57  1  0  0  0  0
 56 76  1  0  0  0  0
 57 79  1  0  0  0  0
 61 68  1  0  0  0  0
 62 69  1  0  0  0  0
 63 69  1  0  0  0  0
 64 69  1  0  0  0  0
 65 80  1  0  0  0  0
 66 87  1  0  0  0  0
 67 69  1  0  0  0  0
 67 78  1  0  0  0  0
 68 80  1  0  0  0  0
 70 71  1  0  0  0  0
M  CHG  1  80   1
M  ISO  4  38 100  66 101  79 100  87 101
M  END
> <Batch ID>
0161

> <Smiles>
CNC(C)C(=O)NC(C(=O)N1Cc2cc([101O:1][101CH2:1]c3c(C)c(NC4CCC4[100NH:0][100C:0](=O)N4CCCC(n5nc(-c6ccc(Oc7ccc(F)cc7F)cc6)c(C(N)=O)c5N)C4)c(C)c(C)c3C3CC3)ccc2CC1C(=O)NC1CCCc2ccccc21)C(C)(C)C

> <Shape>
0.247

> <Color>
0.054

> <Negative vol penalty>
0.000

$$$$

  -OEChem-04052322123D

 90 99  0     1  0  0  0  0  0999 V2000
  -25.7046  -35.5656   13.7374 C   0  0  0  0  0  0  0  0  0  0  0  0
  -25.5645  -34.2607   14.1991 C   0  0  0  0  0  0  0  0  0  0  0  0
  -23.0810  -10.3210   21.8489 C   0  0  0  0  0  0  0  0  0  0  0  0
  -24.8224   -8.7225   21.3494 C   0  0  0  0  0  0  0  0  0  0  0  0
  -26.4897  -36.4740   14.4461 C   0  0  0  0  0  0  0  0  0  0  0  0
  -26.2104  -33.8633   15.3693 C   0  0  0  0  0  0  0  0  0  0  0  0
  -24.1549  -29.8727   19.5354 C   0  0  0  0  0  0  0  0  0  0  0  0
  -22.1177   -9.3292   21.6647 C   0  0  0  0  0  0  0  0  0  0  0  0
  -23.8591   -7.7306   21.1653 C   0  0  0  0  0  0  0  0  0  0  0  0
  -24.4187  -28.5205   19.7492 C   0  0  0  0  0  0  0  0  0  0  0  0
  -21.8805   -4.6907   20.9167 C   0  0  0  0  0  0  0  0  0  0  0  0
  -22.1140   -3.4434   21.4958 C   0  0  0  0  0  0  0  0  0  0  0  0
  -26.0766  -29.1110   21.3990 C   0  0  0  0  0  0  0  0  0  0  0  0
  -22.1856   -4.4714   23.6811 C   0  0  0  0  0  0  0  0  0  0  0  0
  -24.4333  -10.0177   21.6912 C   0  0  0  0  0  0  0  0  0  0  0  0
  -26.0833  -11.3798   23.0805 C   0  0  0  0  0  0  0  0  0  0  0  0
  -27.1377  -36.0902   15.6307 C   0  0  0  0  0  0  0  0  0  0  0  0
  -24.8588  -30.8562   20.2451 C   0  0  0  0  0  0  0  0  0  0  0  0
  -27.0060  -34.7671   16.0937 C   0  0  0  0  0  0  0  0  0  0  0  0
  -25.8180  -30.4749   21.1942 C   0  0  0  0  0  0  0  0  0  0  0  0
  -26.0293  -21.8997   21.2395 C   0  0  0  0  0  0  0  0  0  0  0  0
  -26.1924  -22.3285   19.9223 C   0  0  0  0  0  0  0  0  0  0  0  0
  -25.4956  -22.7657   22.1940 C   0  0  0  0  0  0  0  0  0  0  0  0
  -25.1252  -24.0606   21.8312 C   0  0  0  0  0  0  0  0  0  0  0  0
  -25.2884  -24.4895   20.5140 C   0  0  0  0  0  0  0  0  0  0  0  0
  -25.8219  -23.6235   19.5595 C   0  0  0  0  0  0  0  0  0  0  0  0
  -22.5067   -8.0340   21.3230 C   0  0  0  0  0  0  0  0  0  0  0  0
  -25.3817  -28.1395   20.6790 C   0  0  0  0  0  0  0  0  0  0  0  0
  -21.7997   -5.8283   21.7198 C   0  0  0  0  0  0  0  0  0  0  0  0
  -22.2665   -3.3337   22.8780 C   0  0  0  0  0  0  0  0  0  0  0  0
  -21.9522   -5.7187   23.1019 C   0  0  0  0  0  0  0  0  0  0  0  0
  -25.4289  -11.0420   21.8808 C   0  0  0  0  0  0  0  0  0  0  0  0
  -26.9274  -12.4063   22.7340 C   0  0  0  0  0  0  0  0  0  0  0  0
  -25.9410  -10.8159   24.3911 C   0  0  0  0  0  0  0  0  0  0  0  0
  -26.8207  -33.2263   19.4471 C   0  0  0  0  0  0  0  0  0  0  0  0
  -26.6143  -33.9397   22.6047 C   0  0  0  0  0  0  0  0  0  0  0  0
  -25.9893  -32.8650   25.7829 C   0  0  0  0  0  0  0  0  0  0  0  0
  -28.0870  -17.0672   20.0971 C   0  0  0  0  0  0  0  0  0  0  0  0
  -28.0140  -37.0942   16.3369 C   0  0  0  0  0  0  0  0  0  0  0  0
  -24.5436  -32.3099   20.0223 C   0  0  0  0  0  0  0  0  0  0  0  0
  -26.5871  -31.4912   21.9968 C   0  0  0  0  0  0  0  0  0  0  0  0
  -28.3620  -36.6979   17.7694 C   0  0  0  0  0  0  0  0  0  0  0  0
  -28.2808  -14.1820   18.2033 C   0  0  0  0  0  0  0  0  0  0  0  0
  -28.7994  -35.2377   17.8280 C   0  0  0  0  0  0  0  0  0  0  0  0
  -27.6124  -13.1250   19.0821 C   0  0  0  0  0  0  0  0  0  0  0  0
  -25.6107  -19.4253   20.8874 C   0  0  0  0  0  0  0  0  0  0  0  0
  -27.9401  -20.2472   21.4423 C   0  0  0  0  0  0  0  0  0  0  0  0
  -27.5208  -15.5019   18.2640 C   0  0  0  0  0  0  0  0  0  0  0  0
  -26.0447  -18.0065   21.2665 C   0  0  0  0  0  0  0  0  0  0  0  0
  -28.3103  -18.8190   21.8320 C   0  0  0  0  0  0  0  0  0  0  0  0
  -26.6920  -14.9961   20.5389 C   0  0  0  0  0  0  0  0  0  0  0  0
  -26.4323  -20.4914   21.6343 C   0  0  0  0  0  0  0  0  0  0  0  0
  -27.6708  -34.3050   17.3723 C   0  0  1  0  0  0  0  0  0  0  0  0
  -25.6840  -33.2378   20.4296 C   0  0  1  0  0  0  0  0  0  0  0  0
  -27.4253  -13.6395   20.5204 C   0  0  1  0  0  0  0  0  0  0  0  0
  -26.7648  -21.3993   18.8986 C   0  0  0  0  0  0  0  0  0  0  0  0
  -24.5531  -24.9902   22.8548 C   0  0  0  0  0  0  0  0  0  0  0  0
  -24.1082  -21.3975   23.7718 C   0  0  0  0  0  0  0  0  0  0  0  0
  -26.9797  -25.2652   18.0371 C   0  0  0  0  0  0  0  0  0  0  0  0
  -24.6624  -24.4454   17.4777 C   0  0  0  0  0  0  0  0  0  0  0  0
  -25.9367  -33.6687   28.1596 C   0  0  0  0  0  0  0  0  0  0  0  0
  -29.6639  -33.8839   22.6886 C   0  0  0  0  0  0  0  0  0  0  0  0
  -29.5232  -33.7407   25.1842 C   0  0  0  0  0  0  0  0  0  0  0  0
  -28.6181  -35.7400   23.9984 C   0  0  0  0  0  0  0  0  0  0  0  0
  -23.1115  -32.2306   26.0558 C   0  0  0  0  0  0  0  0  0  0  0  0
  -25.3214  -22.3061   23.6073 C   0  0  0  0  0  0  0  0  0  0  0  0
  -24.8927  -25.8791   20.1245 C   0  0  0  0  0  0  0  0  0  1  0  0
  -25.9998  -24.0842   18.1470 C   0  0  0  0  0  0  0  0  0  0  0  0
  -27.3801  -33.5410   23.8431 C   0  0  1  0  0  0  0  0  0  0  0  0
  -25.1285  -33.4441   26.8911 C   0  0  2  0  0  0  0  0  0  0  0  0
  -28.7834  -34.2071   23.9122 C   0  0  0  0  0  0  0  0  0  0  0  0
  -25.8232  -11.7932   20.8491 N   0  0  0  0  0  0  0  0  0  0  0  0
  -26.7345  -12.6132   21.3997 N   0  0  0  0  0  0  0  0  0  0  0  0
  -26.2474  -32.9002   21.7383 N   0  0  0  0  0  0  0  0  0  0  0  0
  -27.3607  -15.9549   19.6457 N   0  0  0  0  0  0  0  0  0  0  0  0
  -27.4964  -17.8467   21.1031 N   0  0  0  0  0  0  0  0  0  0  0  0
  -27.8083  -13.1433   23.4434 N   0  0  0  0  0  0  0  0  0  0  0  0
  -25.0290   -9.7671   24.5717 N   0  0  0  0  0  0  0  0  0  0  0  0
  -26.6900  -34.1467   18.4246 N   0  0  0  0  0  0  0  0  0  0  0  0
  -26.5148  -33.8517   24.9758 N   0  0  0  0  0  0  0  0  0  0  0  0
  -24.0025  -32.5208   27.2085 N   0  3  0  0  0  0  0  0  0  0  0  0
  -26.5909  -11.2408   25.3762 O   0  0  0  0  0  0  0  0  0  0  0  0
  -27.7485  -32.4416   19.6057 O   0  0  0  0  0  0  0  0  0  0  0  0
  -26.3453  -35.1288   22.4167 O   0  0  0  0  0  0  0  0  0  0  0  0
  -26.1798  -31.6582   25.6491 O   0  0  0  0  0  0  0  0  0  0  0  0
  -29.1981  -17.3475   19.6301 O   0  0  0  0  0  0  0  0  0  0  0  0
  -21.5671   -7.0658   21.1434 O   0  0  0  0  0  0  0  0  0  0  0  0
  -25.6435  -26.8106   20.8907 O   0  0  0  0  0  0  0  0  0  1  0  0
  -22.4891   -2.1356   23.4341 F   0  0  0  0  0  0  0  0  0  0  0  0
  -21.8743   -6.8079   23.8787 F   0  0  0  0  0  0  0  0  0  0  0  0
  1  2  1  0  0  0  0
  1  5  2  0  0  0  0
  2  6  2  0  0  0  0
  3  8  2  0  0  0  0
  3 15  1  0  0  0  0
  4  9  1  0  0  0  0
  4 15  2  0  0  0  0
  5 17  1  0  0  0  0
  6 19  1  0  0  0  0
  7 10  2  0  0  0  0
  7 18  1  0  0  0  0
  8 27  1  0  0  0  0
  9 27  2  0  0  0  0
 10 28  1  0  0  0  0
 11 12  2  0  0  0  0
 11 29  1  0  0  0  0
 12 30  1  0  0  0  0
 13 20  1  0  0  0  0
 13 28  2  0  0  0  0
 14 30  2  0  0  0  0
 14 31  1  0  0  0  0
 15 32  1  0  0  0  0
 16 32  1  0  0  0  0
 16 33  2  0  0  0  0
 16 34  1  0  0  0  0
 17 19  2  0  0  0  0
 17 39  1  0  0  0  0
 18 20  2  0  0  0  0
 18 40  1  0  0  0  0
 19 53  1  0  0  0  0
 20 41  1  0  0  0  0
 21 22  1  0  0  0  0
 21 23  2  0  0  0  0
 21 52  1  0  0  0  0
 22 26  2  0  0  0  0
 22 56  1  0  0  0  0
 23 24  1  0  0  0  0
 23 66  1  0  0  0  0
 24 25  2  0  0  0  0
 24 57  1  0  0  0  0
 25 26  1  0  0  0  0
 25 67  1  0  0  0  0
 26 68  1  0  0  0  0
 27 87  1  0  0  0  0
 28 88  1  0  0  0  0
 29 31  2  0  0  0  0
 29 87  1  0  0  0  0
 30 89  1  0  0  0  0
 31 90  1  0  0  0  0
 32 72  2  0  0  0  0
 33 73  1  0  0  0  0
 33 77  1  0  0  0  0
 34 78  1  0  0  0  0
 34 82  2  0  0  0  0
 35 54  1  0  0  0  0
 35 79  1  0  0  0  0
 35 83  2  0  0  0  0
 36 69  1  0  0  0  0
 36 74  1  0  0  0  0
 36 84  2  0  0  0  0
 37 70  1  0  0  0  0
 37 80  1  0  0  0  0
 37 85  2  0  0  0  0
 38 75  1  0  0  0  0
 38 76  1  0  0  0  0
 38 86  2  0  0  0  0
 39 42  1  0  0  0  0
 40 54  1  0  0  0  0
 41 74  1  0  0  0  0
 42 44  1  0  0  0  0
 43 45  1  0  0  0  0
 43 48  1  0  0  0  0
 44 53  1  0  0  0  0
 45 55  1  0  0  0  0
 46 49  1  0  0  0  0
 46 52  1  0  0  0  0
 47 50  1  0  0  0  0
 47 52  1  0  0  0  0
 48 75  1  0  0  0  0
 49 76  1  0  0  0  0
 50 76  1  0  0  0  0
 51 55  1  0  0  0  0
 51 75  1  0  0  0  0
 53 79  1  0  0  0  0
 54 74  1  0  0  0  0
 55 73  1  0  0  0  0
 58 66  1  0  0  0  0
 59 68  1  0  0  0  0
 60 68  1  0  0  0  0
 61 70  1  0  0  0  0
 62 71  1  0  0  0  0
 63 71  1  0  0  0  0
 64 71  1  0  0  0  0
 65 81  1  0  0  0  0
 67 88  1  0  0  0  0
 69 71  1  0  0  0  0
 69 80  1  0  0  0  0
 70 81  1  0  0  0  0
 72 73  1  0  0  0  0
M  CHG  1  81   1
M  ISO  4  38 100  67 101  76 100  88 101
M  END
> <Batch ID>
0161

> <Smiles>
CCc1c(C)c([101CH2:1][101O:1]c2ccc3c(c2)CN(C(=O)C(NC(=O)C(C)NC)C(C)(C)C)C(C(=O)NC2CCCc4ccccc42)C3)c(C(C)C)c(C)c1C1CC[100N:0]([100C:0](=O)N2CCCC(n3nc(-c4ccc(Oc5ccc(F)cc5F)cc4)c(C(N)=O)c3N)C2)CC1

> <Shape>
0.213

> <Color>
0.090

> <Negative vol penalty>
0.000

$$$$

  -OEChem-04052322123D

 89 98  0     1  0  0  0  0  0999 V2000
  -26.9450  -38.0272   22.5801 C   0  0  0  0  0  0  0  0  0  0  0  0
  -27.5136  -37.0432   21.7777 C   0  0  0  0  0  0  0  0  0  0  0  0
  -32.0865  -14.1071   19.0355 C   0  0  0  0  0  0  0  0  0  0  0  0
  -32.1497  -12.1399   20.4367 C   0  0  0  0  0  0  0  0  0  0  0  0
  -26.2156  -37.6664   23.7122 C   0  0  0  0  0  0  0  0  0  0  0  0
  -27.3541  -35.6978   22.1076 C   0  0  0  0  0  0  0  0  0  0  0  0
  -26.6990  -29.2441   19.0683 C   0  0  0  0  0  0  0  0  0  0  0  0
  -33.4763  -14.2019   19.1059 C   0  0  0  0  0  0  0  0  0  0  0  0
  -33.5395  -12.2348   20.5071 C   0  0  0  0  0  0  0  0  0  0  0  0
  -27.2585  -27.9681   19.1186 C   0  0  0  0  0  0  0  0  0  0  0  0
  -37.1337  -11.7485   20.7599 C   0  0  0  0  0  0  0  0  0  0  0  0
  -37.8737  -10.5784   20.5904 C   0  0  0  0  0  0  0  0  0  0  0  0
  -25.9111  -27.4601   21.0539 C   0  0  0  0  0  0  0  0  0  0  0  0
  -28.3715  -23.1091   18.4867 C   0  0  0  0  0  0  0  0  0  0  0  0
  -36.9316  -10.3024   18.3828 C   0  0  0  0  0  0  0  0  0  0  0  0
  -31.4231  -13.0761   19.7009 C   0  0  0  0  0  0  0  0  0  0  0  0
  -29.2303  -12.2731   18.6741 C   0  0  0  0  0  0  0  0  0  0  0  0
  -26.0388  -36.3155   24.0508 C   0  0  0  0  0  0  0  0  0  0  0  0
  -25.7477  -29.6421   20.0186 C   0  0  0  0  0  0  0  0  0  0  0  0
  -26.6227  -35.3186   23.2460 C   0  0  0  0  0  0  0  0  0  0  0  0
  -25.3391  -28.7408   21.0119 C   0  0  0  0  0  0  0  0  0  0  0  0
  -28.8354  -24.0925   19.3604 C   0  0  0  0  0  0  0  0  0  0  0  0
  -28.7835  -21.7857   18.6440 C   0  0  0  0  0  0  0  0  0  0  0  0
  -29.7113  -23.7526   20.3913 C   0  0  0  0  0  0  0  0  0  0  0  0
  -30.1234  -22.4293   20.5486 C   0  0  0  0  0  0  0  0  0  0  0  0
  -34.2028  -13.2658   19.8417 C   0  0  0  0  0  0  0  0  0  0  0  0
  -26.8667  -27.0769   20.1132 C   0  0  0  0  0  0  0  0  0  0  0  0
  -36.2925  -12.1956   19.7409 C   0  0  0  0  0  0  0  0  0  0  0  0
  -29.6594  -21.4458   19.6749 C   0  0  0  0  0  0  0  0  0  0  0  0
  -37.7727   -9.8554   19.4018 C   0  0  0  0  0  0  0  0  0  0  0  0
  -36.1915  -11.4726   18.5523 C   0  0  0  0  0  0  0  0  0  0  0  0
  -29.9874  -12.9779   19.6290 C   0  0  0  0  0  0  0  0  0  0  0  0
  -27.9250  -12.4918   19.0414 C   0  0  0  0  0  0  0  0  0  0  0  0
  -29.6678  -11.4907   17.5551 C   0  0  0  0  0  0  0  0  0  0  0  0
  -25.6110  -31.9096   22.2420 C   0  0  0  0  0  0  0  0  0  0  0  0
  -22.5614  -30.8552   22.5747 C   0  0  0  0  0  0  0  0  0  0  0  0
  -20.3166  -28.3136   22.1906 C   0  0  0  0  0  0  0  0  0  0  0  0
  -28.9353  -15.8388   23.1283 C   0  0  0  0  0  0  0  0  0  0  0  0
  -25.2821  -35.9758   25.3104 C   0  0  0  0  0  0  0  0  0  0  0  0
  -25.1340  -31.0128   19.9345 C   0  0  0  0  0  0  0  0  0  0  0  0
  -24.3065  -29.1123   22.0436 C   0  0  0  0  0  0  0  0  0  0  0  0
  -24.8436  -34.5154   25.3824 C   0  0  0  0  0  0  0  0  0  0  0  0
  -27.0612  -12.8817   23.3311 C   0  0  0  0  0  0  0  0  0  0  0  0
  -25.9960  -33.5925   24.9991 C   0  0  0  0  0  0  0  0  0  0  0  0
  -26.3033  -12.8111   22.0077 C   0  0  0  0  0  0  0  0  0  0  0  0
  -28.3809  -18.8452   20.9700 C   0  0  0  0  0  0  0  0  0  0  0  0
  -30.8389  -18.4965   21.3878 C   0  0  0  0  0  0  0  0  0  0  0  0
  -27.1260  -14.3121   23.8474 C   0  0  0  0  0  0  0  0  0  0  0  0
  -28.0806  -18.0281   22.2201 C   0  0  0  0  0  0  0  0  0  0  0  0
  -30.4957  -17.6808   22.6287 C   0  0  0  0  0  0  0  0  0  0  0  0
  -27.0347  -15.2276   21.5475 C   0  0  0  0  0  0  0  0  0  0  0  0
  -26.4509  -33.8476   23.5571 C   0  0  1  0  0  0  0  0  0  0  0  0
  -24.5524  -31.4894   21.2619 C   0  0  1  0  0  0  0  0  0  0  0  0
  -26.8017  -13.8193   20.9569 C   0  0  1  0  0  0  0  0  0  0  0  0
  -29.7503  -19.5173   21.0638 C   0  0  0  0  0  0  0  0  0  0  0  0
  -30.2070  -24.8084   21.3279 C   0  0  0  0  0  0  0  0  0  0  0  0
  -31.0619  -22.0583   21.6524 C   0  0  0  0  0  0  0  0  0  0  0  0
  -28.7066  -21.0153   16.2452 C   0  0  0  0  0  0  0  0  0  0  0  0
  -26.7460  -20.5858   17.7705 C   0  0  0  0  0  0  0  0  0  0  0  0
  -17.9067  -27.7370   22.5876 C   0  0  0  0  0  0  0  0  0  0  0  0
  -23.1347  -30.5203   25.5528 C   0  0  0  0  0  0  0  0  0  0  0  0
  -21.0875  -29.0882   25.7147 C   0  0  0  0  0  0  0  0  0  0  0  0
  -20.8851  -31.4768   25.0246 C   0  0  0  0  0  0  0  0  0  0  0  0
  -19.8288  -27.8630   19.3065 C   0  0  0  0  0  0  0  0  0  0  0  0
  -28.3788  -25.5021   19.1701 C   0  0  0  0  0  0  0  0  0  1  0  0
  -28.2756  -20.7473   17.6989 C   0  0  0  0  0  0  0  0  0  0  0  0
  -21.8802  -29.8013   23.4138 C   0  0  1  0  0  0  0  0  0  0  0  0
  -18.9206  -28.2840   21.5949 C   0  0  2  0  0  0  0  0  0  0  0  0
  -21.7678  -30.2151   24.9083 C   0  0  0  0  0  0  0  0  0  0  0  0
  -29.2265  -13.5980   20.5348 N   0  0  0  0  0  0  0  0  0  0  0  0
  -27.9776  -13.2837   20.1506 N   0  0  0  0  0  0  0  0  0  0  0  0
  -23.7404  -30.4660   21.9232 N   0  0  0  0  0  0  0  0  0  0  0  0
  -27.7101  -15.2101   22.8531 N   0  0  0  0  0  0  0  0  0  0  0  0
  -29.1647  -17.0830   22.5213 N   0  0  0  0  0  0  0  0  0  0  0  0
  -26.7489  -12.0821   18.5205 N   0  0  0  0  0  0  0  0  0  0  0  0
  -31.0445  -11.3697   17.3218 N   0  0  0  0  0  0  0  0  0  0  0  0
  -25.5317  -33.2360   22.6214 N   0  0  0  0  0  0  0  0  0  0  0  0
  -20.5988  -29.5325   22.7702 N   0  0  0  0  0  0  0  0  0  0  0  0
  -18.8954  -27.4262   20.3765 N   0  3  0  0  0  0  0  0  0  0  0  0
  -28.8613  -10.9294   16.7753 O   0  0  0  0  0  0  0  0  0  0  0  0
  -26.4375  -31.0908   22.6266 O   0  0  0  0  0  0  0  0  0  0  0  0
  -22.0619  -31.9803   22.4942 O   0  0  0  0  0  0  0  0  0  0  0  0
  -21.0789  -27.3504   22.1494 O   0  0  0  0  0  0  0  0  0  0  0  0
  -29.7885  -15.3102   23.8524 O   0  0  0  0  0  0  0  0  0  0  0  0
  -35.5591  -13.3579   19.9104 O   0  0  0  0  0  0  0  0  0  0  0  0
  -30.0646  -20.1459   19.8268 O   0  0  0  0  0  0  0  0  0  0  0  0
  -27.4156  -25.8221   20.1653 O   0  0  0  0  0  0  0  0  0  1  0  0
  -38.4846   -8.7326   19.2385 F   0  0  0  0  0  0  0  0  0  0  0  0
  -35.3860  -11.8977   17.5694 F   0  0  0  0  0  0  0  0  0  0  0  0
  1  2  1  0  0  0  0
  1  5  2  0  0  0  0
  2  6  2  0  0  0  0
  3  8  2  0  0  0  0
  3 16  1  0  0  0  0
  4  9  1  0  0  0  0
  4 16  2  0  0  0  0
  5 18  1  0  0  0  0
  6 20  1  0  0  0  0
  7 10  2  0  0  0  0
  7 19  1  0  0  0  0
  8 26  1  0  0  0  0
  9 26  2  0  0  0  0
 10 27  1  0  0  0  0
 11 12  2  0  0  0  0
 11 28  1  0  0  0  0
 12 30  1  0  0  0  0
 13 21  1  0  0  0  0
 13 27  2  0  0  0  0
 14 22  1  0  0  0  0
 14 23  2  0  0  0  0
 15 30  2  0  0  0  0
 15 31  1  0  0  0  0
 16 32  1  0  0  0  0
 17 32  1  0  0  0  0
 17 33  2  0  0  0  0
 17 34  1  0  0  0  0
 18 20  2  0  0  0  0
 18 39  1  0  0  0  0
 19 21  2  0  0  0  0
 19 40  1  0  0  0  0
 20 52  1  0  0  0  0
 21 41  1  0  0  0  0
 22 24  2  0  0  0  0
 22 65  1  0  0  0  0
 23 29  1  0  0  0  0
 23 66  1  0  0  0  0
 24 25  1  0  0  0  0
 24 56  1  0  0  0  0
 25 29  2  0  0  0  0
 25 57  1  0  0  0  0
 26 85  1  0  0  0  0
 27 87  1  0  0  0  0
 28 31  2  0  0  0  0
 28 85  1  0  0  0  0
 29 86  1  0  0  0  0
 30 88  1  0  0  0  0
 31 89  1  0  0  0  0
 32 70  2  0  0  0  0
 33 71  1  0  0  0  0
 33 75  1  0  0  0  0
 34 76  1  0  0  0  0
 34 80  2  0  0  0  0
 35 53  1  0  0  0  0
 35 77  1  0  0  0  0
 35 81  2  0  0  0  0
 36 67  1  0  0  0  0
 36 72  1  0  0  0  0
 36 82  2  0  0  0  0
 37 68  1  0  0  0  0
 37 78  1  0  0  0  0
 37 83  2  0  0  0  0
 38 73  1  0  0  0  0
 38 74  1  0  0  0  0
 38 84  2  0  0  0  0
 39 42  1  0  0  0  0
 40 53  1  0  0  0  0
 41 72  1  0  0  0  0
 42 44  1  0  0  0  0
 43 45  1  0  0  0  0
 43 48  1  0  0  0  0
 44 52  1  0  0  0  0
 45 54  1  0  0  0  0
 46 49  1  0  0  0  0
 46 55  1  0  0  0  0
 47 50  1  0  0  0  0
 47 55  1  0  0  0  0
 48 73  1  0  0  0  0
 49 74  1  0  0  0  0
 50 74  1  0  0  0  0
 51 54  1  0  0  0  0
 51 73  1  0  0  0  0
 52 77  1  0  0  0  0
 53 72  1  0  0  0  0
 54 71  1  0  0  0  0
 55 86  1  0  0  0  0
 58 66  1  0  0  0  0
 59 66  1  0  0  0  0
 60 68  1  0  0  0  0
 61 69  1  0  0  0  0
 62 69  1  0  0  0  0
 63 69  1  0  0  0  0
 64 79  1  0  0  0  0
 65 87  1  0  0  0  0
 67 69  1  0  0  0  0
 67 78  1  0  0  0  0
 68 79  1  0  0  0  0
 70 71  1  0  0  0  0
M  CHG  1  79   1
M  ISO  4  38 100  65 101  74 100  87 101
M  END
> <Batch ID>
0161

> <Smiles>
CNC(C)C(=O)NC(C(=O)N1Cc2cc([101O:1][101CH2:1]c3cc(C(C)C)c(OC4CC[100N:0]([100C:0](=O)N5CCCC(n6nc(-c7ccc(Oc8ccc(F)cc8F)cc7)c(C(N)=O)c6N)C5)CC4)c(C)c3C)ccc2CC1C(=O)NC1CCCc2ccccc21)C(C)(C)C

> <Shape>
0.300

> <Color>
0.079

> <Negative vol penalty>
0.000

$$$$

  -OEChem-04052322123D

 90 99  0     1  0  0  0  0  0999 V2000
  -19.4887  -12.4540   33.2277 C   0  0  0  0  0  0  0  0  0  0  0  0
  -19.7481  -13.3080   32.1605 C   0  0  0  0  0  0  0  0  0  0  0  0
  -23.0719   -9.8701   19.9445 C   0  0  0  0  0  0  0  0  0  0  0  0
  -23.8344   -9.8793   22.2370 C   0  0  0  0  0  0  0  0  0  0  0  0
  -20.5414  -11.8049   33.8715 C   0  0  0  0  0  0  0  0  0  0  0  0
  -21.0606  -13.5142   31.7372 C   0  0  0  0  0  0  0  0  0  0  0  0
  -22.9735  -14.4434   25.9941 C   0  0  0  0  0  0  0  0  0  0  0  0
  -22.3283   -8.7172   20.1964 C   0  0  0  0  0  0  0  0  0  0  0  0
  -23.0907   -8.7264   22.4889 C   0  0  0  0  0  0  0  0  0  0  0  0
  -23.2935  -15.6021   25.2879 C   0  0  0  0  0  0  0  0  0  0  0  0
  -20.5141   -5.5660   20.1432 C   0  0  0  0  0  0  0  0  0  0  0  0
  -20.5764   -4.5347   19.2062 C   0  0  0  0  0  0  0  0  0  0  0  0
  -25.6239  -15.2743   25.8180 C   0  0  0  0  0  0  0  0  0  0  0  0
  -29.3417  -18.8772   22.3067 C   0  0  0  0  0  0  0  0  0  0  0  0
  -29.8148  -17.3719   24.1362 C   0  0  0  0  0  0  0  0  0  0  0  0
  -22.9616   -4.3649   19.5515 C   0  0  0  0  0  0  0  0  0  0  0  0
  -23.8250  -10.4511   20.9647 C   0  0  0  0  0  0  0  0  0  0  0  0
  -24.1666  -12.9762   20.8418 C   0  0  0  0  0  0  0  0  0  0  0  0
  -21.8666  -11.9959   33.4497 C   0  0  0  0  0  0  0  0  0  0  0  0
  -23.9768  -13.6961   26.6278 C   0  0  0  0  0  0  0  0  0  0  0  0
  -22.1321  -12.8682   32.3768 C   0  0  0  0  0  0  0  0  0  0  0  0
  -25.3144  -14.1051   26.5294 C   0  0  0  0  0  0  0  0  0  0  0  0
  -28.4018  -19.2990   24.4920 C   0  0  0  0  0  0  0  0  0  0  0  0
  -29.9704  -17.7331   22.7979 C   0  0  0  0  0  0  0  0  0  0  0  0
  -28.5574  -19.6602   23.1538 C   0  0  0  0  0  0  0  0  0  0  0  0
  -29.0305  -18.1548   24.9833 C   0  0  0  0  0  0  0  0  0  0  0  0
  -22.3377   -8.1453   21.4686 C   0  0  0  0  0  0  0  0  0  0  0  0
  -24.6185  -16.0193   25.2022 C   0  0  0  0  0  0  0  0  0  0  0  0
  -21.6756   -5.9969   20.7843 C   0  0  0  0  0  0  0  0  0  0  0  0
  -21.8001   -3.9341   18.9103 C   0  0  0  0  0  0  0  0  0  0  0  0
  -22.8993   -5.3964   20.4885 C   0  0  0  0  0  0  0  0  0  0  0  0
  -24.5938  -11.6418   20.7050 C   0  0  0  0  0  0  0  0  0  0  0  0
  -25.2584  -13.7253   20.4766 C   0  0  0  0  0  0  0  0  0  0  0  0
  -22.8966  -13.4924   21.2616 C   0  0  0  0  0  0  0  0  0  0  0  0
  -24.6101  -12.8880   29.6360 C   0  0  0  0  0  0  0  0  0  0  0  0
  -26.9428  -11.1057   28.2559 C   0  0  0  0  0  0  0  0  0  0  0  0
  -29.0123  -10.6069   25.5885 C   0  0  0  0  0  0  0  0  0  0  0  0
  -30.7423  -14.7446   20.6578 C   0  0  0  0  0  0  0  0  0  0  0  0
  -22.9755  -11.3092   34.2069 C   0  0  0  0  0  0  0  0  0  0  0  0
  -23.6183  -12.4339   27.3631 C   0  0  0  0  0  0  0  0  0  0  0  0
  -26.4310  -13.3271   27.1747 C   0  0  0  0  0  0  0  0  0  0  0  0
  -24.3049  -11.2909   33.4567 C   0  0  0  0  0  0  0  0  0  0  0  0
  -29.6021  -12.3577   18.2747 C   0  0  0  0  0  0  0  0  0  0  0  0
  -24.6124  -12.6699   32.8817 C   0  0  0  0  0  0  0  0  0  0  0  0
  -28.1651  -12.0644   18.7095 C   0  0  0  0  0  0  0  0  0  0  0  0
  -28.3576  -20.7400   26.5851 C   0  0  0  0  0  0  0  0  0  0  0  0
  -26.5386  -19.5634   27.5795 C   0  0  0  0  0  0  0  0  0  0  0  0
  -30.5206  -12.5797   19.4743 C   0  0  0  0  0  0  0  0  0  0  0  0
  -28.6204  -13.3121   20.8623 C   0  0  0  0  0  0  0  0  0  0  0  0
  -27.5504  -20.1484   25.4107 C   0  0  2  0  0  0  0  0  0  0  0  0
  -23.5403  -13.0984   31.8725 C   0  0  1  0  0  0  0  0  0  0  0  0
  -24.6600  -12.0315   28.4025 C   0  0  1  0  0  0  0  0  0  0  0  0
  -27.6449  -13.1364   19.6859 C   0  0  2  0  0  0  0  0  0  0  0  0
  -27.3262  -20.8573   27.6953 C   0  0  1  0  0  0  0  0  0  0  0  0
  -26.3773  -19.3787   26.0688 C   0  0  2  0  0  0  0  0  0  0  0  0
  -27.8940  -20.8799   22.6026 C   0  0  0  0  0  0  0  0  0  0  0  0
  -28.8796  -17.7462   26.4123 C   0  0  0  0  0  0  0  0  0  0  0  0
  -30.8350   -9.0907   24.7659 C   0  0  0  0  0  0  0  0  0  0  0  0
  -23.6428  -20.5883   23.7673 C   0  0  0  0  0  0  0  0  0  0  0  0
  -28.9241  -12.4751   30.1292 C   0  0  0  0  0  0  0  0  0  0  0  0
  -30.7754  -11.6602   28.6538 C   0  0  0  0  0  0  0  0  0  0  0  0
  -29.3021  -10.0219   29.8234 C   0  0  0  0  0  0  0  0  0  0  0  0
  -27.4103   -9.7590   23.2490 C   0  0  0  0  0  0  0  0  0  0  0  0
  -30.8095  -16.8964   21.8925 C   0  0  0  0  0  0  0  0  0  0  0  0
  -23.9474  -18.1809   24.4720 C   0  0  0  0  0  0  0  0  0  1  0  0
  -28.3837  -11.3424   27.8728 C   0  0  1  0  0  0  0  0  0  0  0  0
  -29.3384   -9.3603   24.7859 C   0  0  2  0  0  0  0  0  0  0  0  0
  -24.6081  -19.5446   24.3053 C   0  0  2  0  0  0  0  0  0  0  0  0
  -29.3253  -11.3908   29.1092 C   0  0  0  0  0  0  0  0  0  0  0  0
  -25.8582  -11.5455   20.2854 N   0  0  0  0  0  0  0  0  0  0  0  0
  -26.2349  -12.8290   20.1553 N   0  0  0  0  0  0  0  0  0  0  0  0
  -26.0290  -12.1034   27.8878 N   0  0  0  0  0  0  0  0  0  0  0  0
  -29.9710  -13.6091   20.3599 N   0  0  0  0  0  0  0  0  0  0  0  0
  -25.4687  -15.0567   20.4020 N   0  0  0  0  0  0  0  0  0  0  0  0
  -21.8851  -12.5835   21.6009 N   0  0  0  0  0  0  0  0  0  0  0  0
  -23.7409  -12.4269   30.6063 N   0  0  0  0  0  0  0  0  0  0  0  0
  -28.7236  -10.3069   26.9030 N   0  0  0  0  0  0  0  0  0  0  0  0
  -30.1441  -15.6742   21.4996 N   0  0  0  0  0  0  0  0  0  0  0  0
  -27.9726  -20.9726   29.0145 N   0  3  0  0  0  0  0  0  0  0  0  0
  -25.0918  -20.0026   25.6399 N   0  3  0  0  0  0  0  0  0  0  0  0
  -28.8694   -9.5124   23.3795 N   0  3  0  0  0  0  0  0  0  0  0  0
  -22.6604  -14.7231   21.3180 O   0  0  0  0  0  0  0  0  0  0  0  0
  -25.3096  -13.8919   29.7032 O   0  0  0  0  0  0  0  0  0  0  0  0
  -26.6380  -10.0703   28.8531 O   0  0  0  0  0  0  0  0  0  0  0  0
  -29.0172  -11.7343   25.0993 O   0  0  0  0  0  0  0  0  0  0  0  0
  -31.8778  -14.9196   20.2027 O   0  0  0  0  0  0  0  0  0  0  0  0
  -21.6120   -7.0205   21.7149 O   0  0  0  0  0  0  0  0  0  0  0  0
  -24.9336  -17.1503   24.5141 O   0  0  0  0  0  0  0  0  0  1  0  0
  -21.8595   -2.9426   18.0116 F   0  0  0  0  0  0  0  0  0  0  0  0
  -24.0183   -5.8052   21.1020 F   0  0  0  0  0  0  0  0  0  0  0  0
  1  2  1  0  0  0  0
  1  5  2  0  0  0  0
  2  6  2  0  0  0  0
  3  8  2  0  0  0  0
  3 17  1  0  0  0  0
  4  9  1  0  0  0  0
  4 17  2  0  0  0  0
  5 19  1  0  0  0  0
  6 21  1  0  0  0  0
  7 10  2  0  0  0  0
  7 20  1  0  0  0  0
  8 27  1  0  0  0  0
  9 27  2  0  0  0  0
 10 28  1  0  0  0  0
 11 12  2  0  0  0  0
 11 29  1  0  0  0  0
 12 30  1  0  0  0  0
 13 22  1  0  0  0  0
 13 28  2  0  0  0  0
 14 24  1  0  0  0  0
 14 25  2  0  0  0  0
 15 24  2  0  0  0  0
 15 26  1  0  0  0  0
 16 30  2  0  0  0  0
 16 31  1  0  0  0  0
 17 32  1  0  0  0  0
 18 32  1  0  0  0  0
 18 33  2  0  0  0  0
 18 34  1  0  0  0  0
 19 21  2  0  0  0  0
 19 39  1  0  0  0  0
 20 22  2  0  0  0  0
 20 40  1  0  0  0  0
 21 51  1  0  0  0  0
 22 41  1  0  0  0  0
 23 25  1  0  0  0  0
 23 26  2  0  0  0  0
 23 50  1  0  0  0  0
 24 64  1  0  0  0  0
 25 56  1  0  0  0  0
 26 57  1  0  0  0  0
 27 87  1  0  0  0  0
 28 88  1  0  0  0  0
 29 31  2  0  0  0  0
 29 87  1  0  0  0  0
 30 89  1  0  0  0  0
 31 90  1  0  0  0  0
 32 70  2  0  0  0  0
 33 71  1  0  0  0  0
 33 74  1  0  0  0  0
 34 75  1  0  0  0  0
 34 82  2  0  0  0  0
 35 52  1  0  0  0  0
 35 76  1  0  0  0  0
 35 83  2  0  0  0  0
 36 66  1  0  0  0  0
 36 72  1  0  0  0  0
 36 84  2  0  0  0  0
 37 67  1  0  0  0  0
 37 77  1  0  0  0  0
 37 85  2  0  0  0  0
 38 73  1  0  0  0  0
 38 78  1  0  0  0  0
 38 86  2  0  0  0  0
 39 42  1  0  0  0  0
 40 52  1  0  0  0  0
 41 72  1  0  0  0  0
 42 44  1  0  0  0  0
 43 45  1  0  0  0  0
 43 48  1  0  0  0  0
 44 51  1  0  0  0  0
 45 53  1  0  0  0  0
 46 50  1  0  0  0  0
 46 54  1  0  0  0  0
 47 54  1  0  0  0  0
 47 55  1  0  0  0  0
 48 73  1  0  0  0  0
 49 53  1  0  0  0  0
 49 73  1  0  0  0  0
 50 55  1  0  0  0  0
 51 76  1  0  0  0  0
 52 72  1  0  0  0  0
 53 71  1  0  0  0  0
 54 79  1  0  0  0  0
 55 80  1  0  0  0  0
 58 67  1  0  0  0  0
 59 68  1  0  0  0  0
 60 69  1  0  0  0  0
 61 69  1  0  0  0  0
 62 69  1  0  0  0  0
 63 81  1  0  0  0  0
 64 78  1  0  0  0  0
 65 68  1  0  0  0  0
 65 88  1  0  0  0  0
 66 69  1  0  0  0  0
 66 77  1  0  0  0  0
 67 81  1  0  0  0  0
 68 80  1  0  0  0  0
 70 71  1  0  0  0  0
M  CHG  3  79   1  80   1  81   1
M  ISO  4  38 100  65 101  78 100  88 101
M  END
> <Batch ID>
0161

> <Smiles>
CNC(C)C(=O)NC(C(=O)N1Cc2cc([101O:1][101CH2:1]C(C)NC3CC(N)CC3c3c(C)cc(C[100NH:0][100C:0](=O)N4CCCC(n5nc(-c6ccc(Oc7ccc(F)cc7F)cc6)c(C(N)=O)c5N)C4)cc3C)ccc2CC1C(=O)NC1CCCc2ccccc21)C(C)(C)C

> <Shape>
0.150

> <Color>
0.180

> <Negative vol penalty>
0.000

$$$$

  -OEChem-04052322123D

 89 98  0     1  0  0  0  0  0999 V2000
  -23.6259   -8.2768   23.3565 C   0  0  0  0  0  0  0  0  0  0  0  0
  -24.2829   -9.0605   22.4134 C   0  0  0  0  0  0  0  0  0  0  0  0
  -22.3065  -27.7309   20.2152 C   0  0  0  0  0  0  0  0  0  0  0  0
  -22.6904  -28.7240   22.3840 C   0  0  0  0  0  0  0  0  0  0  0  0
  -22.3004   -8.5531   23.6892 C   0  0  0  0  0  0  0  0  0  0  0  0
  -23.6145  -10.1204   21.8016 C   0  0  0  0  0  0  0  0  0  0  0  0
  -26.4307  -14.3233   21.5777 C   0  0  0  0  0  0  0  0  0  0  0  0
  -21.0061  -27.4006   20.5966 C   0  0  0  0  0  0  0  0  0  0  0  0
  -21.3900  -28.3938   22.7654 C   0  0  0  0  0  0  0  0  0  0  0  0
  -27.4116  -14.3805   20.5886 C   0  0  0  0  0  0  0  0  0  0  0  0
  -18.2701  -29.5948   22.2711 C   0  0  0  0  0  0  0  0  0  0  0  0
  -17.5219  -30.5706   22.9295 C   0  0  0  0  0  0  0  0  0  0  0  0
  -25.9498  -15.7312   19.2255 C   0  0  0  0  0  0  0  0  0  0  0  0
  -29.7290  -19.4752   18.9475 C   0  0  0  0  0  0  0  0  0  0  0  0
  -29.5139  -17.8834   16.6666 C   0  0  0  0  0  0  0  0  0  0  0  0
  -17.3041  -29.1123   24.8434 C   0  0  0  0  0  0  0  0  0  0  0  0
  -23.1487  -28.3926   21.1089 C   0  0  0  0  0  0  0  0  0  0  0  0
  -24.9208  -29.9225   20.0956 C   0  0  0  0  0  0  0  0  0  0  0  0
  -21.6184   -9.6228   23.0882 C   0  0  0  0  0  0  0  0  0  0  0  0
  -25.1958  -14.9616   21.3932 C   0  0  0  0  0  0  0  0  0  0  0  0
  -22.2782  -10.4104   22.1256 C   0  0  0  0  0  0  0  0  0  0  0  0
  -24.9559  -15.6828   20.2148 C   0  0  0  0  0  0  0  0  0  0  0  0
  -29.2574  -20.0248   17.7554 C   0  0  0  0  0  0  0  0  0  0  0  0
  -29.1498  -19.2289   16.6149 C   0  0  0  0  0  0  0  0  0  0  0  0
  -29.9855  -17.3337   17.8587 C   0  0  0  0  0  0  0  0  0  0  0  0
  -20.5478  -27.7321   21.8717 C   0  0  0  0  0  0  0  0  0  0  0  0
  -27.1702  -15.0821   19.4111 C   0  0  0  0  0  0  0  0  0  0  0  0
  -18.5353  -28.3777   22.8988 C   0  0  0  0  0  0  0  0  0  0  0  0
  -30.0931  -18.1296   18.9991 C   0  0  0  0  0  0  0  0  0  0  0  0
  -17.0389  -30.3294   24.2157 C   0  0  0  0  0  0  0  0  0  0  0  0
  -18.0523  -28.1364   24.1849 C   0  0  0  0  0  0  0  0  0  0  0  0
  -24.4923  -28.7335   20.7157 C   0  0  0  0  0  0  0  0  0  0  0  0
  -26.2745  -29.7564   19.9330 C   0  0  0  0  0  0  0  0  0  0  0  0
  -24.1629  -31.0741   19.7019 C   0  0  0  0  0  0  0  0  0  0  0  0
  -22.1727  -13.9933   21.2286 C   0  0  0  0  0  0  0  0  0  0  0  0
  -21.5645  -17.1788   21.1575 C   0  0  0  0  0  0  0  0  0  0  0  0
  -22.6816  -20.3267   20.4580 C   0  0  0  0  0  0  0  0  0  0  0  0
  -29.8206  -25.1098   19.4041 C   0  0  0  0  0  0  0  0  0  0  0  0
  -20.1713   -9.8535   23.4453 C   0  0  0  0  0  0  0  0  0  0  0  0
  -24.1581  -14.9128   22.4810 C   0  0  0  0  0  0  0  0  0  0  0  0
  -23.6544  -16.4023   19.9765 C   0  0  0  0  0  0  0  0  0  0  0  0
  -19.6520  -11.2265   23.0265 C   0  0  0  0  0  0  0  0  0  0  0  0
  -30.0416  -27.5361   21.8561 C   0  0  0  0  0  0  0  0  0  0  0  0
  -20.0678  -11.5400   21.5928 C   0  0  0  0  0  0  0  0  0  0  0  0
  -28.6887  -28.2442   21.7896 C   0  0  0  0  0  0  0  0  0  0  0  0
  -28.2971  -21.9655   19.0719 C   0  0  0  0  0  0  0  0  0  0  0  0
  -30.0390  -22.3891   17.2842 C   0  0  0  0  0  0  0  0  0  0  0  0
  -29.8766  -26.0286   21.7027 C   0  0  0  0  0  0  0  0  0  0  0  0
  -27.9371  -23.4537   19.0427 C   0  0  0  0  0  0  0  0  0  0  0  0
  -29.6215  -23.8568   17.2783 C   0  0  0  0  0  0  0  0  0  0  0  0
  -27.8142  -26.3235   20.3694 C   0  0  0  0  0  0  0  0  0  0  0  0
  -28.8686  -21.4909   17.7237 C   0  0  0  0  0  0  0  0  0  0  0  0
  -21.5947  -11.5842   21.4583 C   0  0  1  0  0  0  0  0  0  0  0  0
  -22.7438  -15.1690   21.9696 C   0  0  1  0  0  0  0  0  0  0  0  0
  -27.9231  -27.8552   20.5125 C   0  0  1  0  0  0  0  0  0  0  0  0
  -28.6471  -19.7956   15.3278 C   0  0  0  0  0  0  0  0  0  0  0  0
  -32.8194  -16.2998   17.2520 C   0  0  0  0  0  0  0  0  0  0  0  0
  -21.9444  -22.7255   20.4648 C   0  0  0  0  0  0  0  0  0  0  0  0
  -19.9473  -16.6865   18.6174 C   0  0  0  0  0  0  0  0  0  0  0  0
  -20.0468  -19.1461   18.1607 C   0  0  0  0  0  0  0  0  0  0  0  0
  -18.9108  -18.3060   20.2165 C   0  0  0  0  0  0  0  0  0  0  0  0
  -24.7697  -21.0838   22.4139 C   0  0  0  0  0  0  0  0  0  0  0  0
  -30.6289  -18.4932   21.2875 C   0  0  0  0  0  0  0  0  0  0  0  0
  -31.8665  -15.6576   18.2532 C   0  0  0  0  0  0  0  0  0  0  0  0
  -29.4863  -15.0783   18.8713 C   0  0  0  0  0  0  0  0  0  1  0  0
  -30.3719  -15.8919   17.8955 C   0  0  1  0  0  0  0  0  0  0  0  0
  -21.4333  -18.2182   20.0706 C   0  0  1  0  0  0  0  0  0  0  0  0
  -22.6221  -21.6171   21.2554 C   0  0  2  0  0  0  0  0  0  0  0  0
  -20.1084  -18.0741   19.2697 C   0  0  0  0  0  0  0  0  0  0  0  0
  -25.4927  -27.8753   20.9322 N   0  0  0  0  0  0  0  0  0  0  0  0
  -26.5632  -28.5258   20.4453 N   0  0  0  0  0  0  0  0  0  0  0  0
  -22.6689  -16.3198   21.0672 N   0  0  0  0  0  0  0  0  0  0  0  0
  -29.1422  -25.7003   20.4809 N   0  0  0  0  0  0  0  0  0  0  0  0
  -29.0775  -24.2546   18.5765 N   0  0  0  0  0  0  0  0  0  0  0  0
  -27.2340  -30.5443   19.4031 N   0  0  0  0  0  0  0  0  0  0  0  0
  -22.7823  -31.0798   19.9429 N   0  0  0  0  0  0  0  0  0  0  0  0
  -22.1117  -12.8327   21.9761 N   0  0  0  0  0  0  0  0  0  0  0  0
  -21.6001  -19.5130   20.7217 N   0  0  0  0  0  0  0  0  0  0  0  0
  -23.9964  -22.0683   21.6140 N   0  3  0  0  0  0  0  0  0  0  0  0
  -24.6917  -32.0619   19.1378 O   0  0  0  0  0  0  0  0  0  0  0  0
  -21.8125  -14.1294   20.0652 O   0  0  0  0  0  0  0  0  0  0  0  0
  -20.7221  -17.1354   22.0576 O   0  0  0  0  0  0  0  0  0  0  0  0
  -23.5942  -20.0682   19.6763 O   0  0  0  0  0  0  0  0  0  0  0  0
  -31.0192  -25.3335   19.1934 O   0  0  0  0  0  0  0  0  0  0  0  0
  -19.2789  -27.4102   22.2441 O   0  0  0  0  0  0  0  0  0  0  0  0
  -30.5512  -17.6084   20.1717 O   0  0  0  0  0  0  0  0  0  0  0  0
  -28.1319  -15.1394   18.4375 O   0  0  0  0  0  0  0  0  0  1  0  0
  -16.3217  -31.2672   24.8484 F   0  0  0  0  0  0  0  0  0  0  0  0
  -18.3048  -26.9695   24.7935 F   0  0  0  0  0  0  0  0  0  0  0  0
  1  2  1  0  0  0  0
  1  5  2  0  0  0  0
  2  6  2  0  0  0  0
  3  8  2  0  0  0  0
  3 17  1  0  0  0  0
  4  9  1  0  0  0  0
  4 17  2  0  0  0  0
  5 19  1  0  0  0  0
  6 21  1  0  0  0  0
  7 10  2  0  0  0  0
  7 20  1  0  0  0  0
  8 26  1  0  0  0  0
  9 26  2  0  0  0  0
 10 27  1  0  0  0  0
 11 12  2  0  0  0  0
 11 28  1  0  0  0  0
 12 30  1  0  0  0  0
 13 22  1  0  0  0  0
 13 27  2  0  0  0  0
 14 23  2  0  0  0  0
 14 29  1  0  0  0  0
 15 24  2  0  0  0  0
 15 25  1  0  0  0  0
 16 30  2  0  0  0  0
 16 31  1  0  0  0  0
 17 32  1  0  0  0  0
 18 32  1  0  0  0  0
 18 33  2  0  0  0  0
 18 34  1  0  0  0  0
 19 21  2  0  0  0  0
 19 39  1  0  0  0  0
 20 22  2  0  0  0  0
 20 40  1  0  0  0  0
 21 53  1  0  0  0  0
 22 41  1  0  0  0  0
 23 24  1  0  0  0  0
 23 52  1  0  0  0  0
 24 56  1  0  0  0  0
 25 29  2  0  0  0  0
 25 66  1  0  0  0  0
 26 85  1  0  0  0  0
 27 87  1  0  0  0  0
 28 31  2  0  0  0  0
 28 85  1  0  0  0  0
 29 86  1  0  0  0  0
 30 88  1  0  0  0  0
 31 89  1  0  0  0  0
 32 70  2  0  0  0  0
 33 71  1  0  0  0  0
 33 75  1  0  0  0  0
 34 76  1  0  0  0  0
 34 80  2  0  0  0  0
 35 54  1  0  0  0  0
 35 77  1  0  0  0  0
 35 81  2  0  0  0  0
 36 67  1  0  0  0  0
 36 72  1  0  0  0  0
 36 82  2  0  0  0  0
 37 68  1  0  0  0  0
 37 78  1  0  0  0  0
 37 83  2  0  0  0  0
 38 73  1  0  0  0  0
 38 74  1  0  0  0  0
 38 84  2  0  0  0  0
 39 42  1  0  0  0  0
 40 54  1  0  0  0  0
 41 72  1  0  0  0  0
 42 44  1  0  0  0  0
 43 45  1  0  0  0  0
 43 48  1  0  0  0  0
 44 53  1  0  0  0  0
 45 55  1  0  0  0  0
 46 49  1  0  0  0  0
 46 52  1  0  0  0  0
 47 50  1  0  0  0  0
 47 52  1  0  0  0  0
 48 73  1  0  0  0  0
 49 74  1  0  0  0  0
 50 74  1  0  0  0  0
 51 55  1  0  0  0  0
 51 73  1  0  0  0  0
 53 77  1  0  0  0  0
 54 72  1  0  0  0  0
 55 71  1  0  0  0  0
 57 64  1  0  0  0  0
 58 68  1  0  0  0  0
 59 69  1  0  0  0  0
 60 69  1  0  0  0  0
 61 69  1  0  0  0  0
 62 79  1  0  0  0  0
 63 86  1  0  0  0  0
 64 66  1  0  0  0  0
 65 66  1  0  0  0  0
 65 87  1  0  0  0  0
 67 69  1  0  0  0  0
 67 78  1  0  0  0  0
 68 79  1  0  0  0  0
 70 71  1  0  0  0  0
M  CHG  1  79   1
M  ISO  4  38 100  65 101  74 100  87 101
M  END
> <Batch ID>
0161

> <Smiles>
CCC(c1cc(C)c(C2CC[100N:0]([100C:0](=O)N3CCCC(n4nc(-c5ccc(Oc6ccc(F)cc6F)cc5)c(C(N)=O)c4N)C3)CC2)cc1OC)[101CH2:1][101O:1]c1ccc2c(c1)CN(C(=O)C(NC(=O)C(C)NC)C(C)(C)C)C(C(=O)NC1CCCc3ccccc31)C2

> <Shape>
0.253

> <Color>
0.094

> <Negative vol penalty>
0.000

$$$$

  -OEChem-04052322123D

 88 97  0     1  0  0  0  0  0999 V2000
  -26.8160  -34.0731   22.0132 C   0  0  0  0  0  0  0  0  0  0  0  0
  -27.0072  -32.8239   21.4314 C   0  0  0  0  0  0  0  0  0  0  0  0
  -23.0762   -9.9097   19.9308 C   0  0  0  0  0  0  0  0  0  0  0  0
  -23.8544   -9.8843   22.2179 C   0  0  0  0  0  0  0  0  0  0  0  0
  -25.9550  -34.2097   23.1012 C   0  0  0  0  0  0  0  0  0  0  0  0
  -26.3381  -31.7103   21.9382 C   0  0  0  0  0  0  0  0  0  0  0  0
  -24.2136  -26.9286   18.7558 C   0  0  0  0  0  0  0  0  0  0  0  0
  -22.3419   -8.7477   20.1677 C   0  0  0  0  0  0  0  0  0  0  0  0
  -23.1200   -8.7223   22.4548 C   0  0  0  0  0  0  0  0  0  0  0  0
  -24.7277  -25.6536   18.5232 C   0  0  0  0  0  0  0  0  0  0  0  0
  -19.9020   -7.8934   23.0697 C   0  0  0  0  0  0  0  0  0  0  0  0
  -19.1547   -7.8294   24.2457 C   0  0  0  0  0  0  0  0  0  0  0  0
  -29.3205  -18.9406   22.2813 C   0  0  0  0  0  0  0  0  0  0  0  0
  -23.4055  -24.7942   20.3487 C   0  0  0  0  0  0  0  0  0  0  0  0
  -28.8810  -18.2689   24.9531 C   0  0  0  0  0  0  0  0  0  0  0  0
  -20.4145   -5.8885   24.9405 C   0  0  0  0  0  0  0  0  0  0  0  0
  -23.8325  -10.4780   20.9559 C   0  0  0  0  0  0  0  0  0  0  0  0
  -24.1570  -13.0070   20.8745 C   0  0  0  0  0  0  0  0  0  0  0  0
  -25.2676  -33.0989   23.6154 C   0  0  0  0  0  0  0  0  0  0  0  0
  -23.2984  -27.1483   19.7953 C   0  0  0  0  0  0  0  0  0  0  0  0
  -25.4681  -31.8320   23.0350 C   0  0  0  0  0  0  0  0  0  0  0  0
  -28.5066  -19.7458   23.0781 C   0  0  0  0  0  0  0  0  0  0  0  0
  -22.8794  -26.0723   20.5908 C   0  0  0  0  0  0  0  0  0  0  0  0
  -29.9146  -17.7994   22.8205 C   0  0  0  0  0  0  0  0  0  0  0  0
  -28.2869  -19.4100   24.4139 C   0  0  0  0  0  0  0  0  0  0  0  0
  -29.6949  -17.4636   24.1563 C   0  0  0  0  0  0  0  0  0  0  0  0
  -22.3637   -8.1540   21.4297 C   0  0  0  0  0  0  0  0  0  0  0  0
  -24.3259  -24.5867   19.3216 C   0  0  0  0  0  0  0  0  0  0  0  0
  -20.9055   -6.9549   22.8290 C   0  0  0  0  0  0  0  0  0  0  0  0
  -19.4110   -6.8269   25.1812 C   0  0  0  0  0  0  0  0  0  0  0  0
  -21.1618   -5.9525   23.7645 C   0  0  0  0  0  0  0  0  0  0  0  0
  -24.5918  -11.6780   20.7116 C   0  0  0  0  0  0  0  0  0  0  0  0
  -25.2413  -13.7695   20.5149 C   0  0  0  0  0  0  0  0  0  0  0  0
  -22.8866  -13.5074   21.3118 C   0  0  0  0  0  0  0  0  0  0  0  0
  -23.2924  -28.9043   22.4448 C   0  0  0  0  0  0  0  0  0  0  0  0
  -20.2148  -27.8979   22.6391 C   0  0  0  0  0  0  0  0  0  0  0  0
  -17.8718  -25.5628   21.7998 C   0  0  0  0  0  0  0  0  0  0  0  0
  -30.7196  -14.8216   20.6766 C   0  0  0  0  0  0  0  0  0  0  0  0
  -24.3836  -33.2875   24.8228 C   0  0  0  0  0  0  0  0  0  0  0  0
  -22.7329  -28.5245   20.0161 C   0  0  0  0  0  0  0  0  0  0  0  0
  -21.8838  -26.2516   21.7066 C   0  0  0  0  0  0  0  0  0  0  0  0
  -23.4246  -32.1244   25.0631 C   0  0  0  0  0  0  0  0  0  0  0  0
  -29.5785  -12.4689   18.2602 C   0  0  0  0  0  0  0  0  0  0  0  0
  -24.1602  -30.7932   24.9471 C   0  0  0  0  0  0  0  0  0  0  0  0
  -28.1465  -12.1586   18.6996 C   0  0  0  0  0  0  0  0  0  0  0  0
  -28.8842  -21.9852   21.9284 C   0  0  0  0  0  0  0  0  0  0  0  0
  -30.5038  -12.6761   19.4573 C   0  0  0  0  0  0  0  0  0  0  0  0
  -28.6085  -13.3719   20.8706 C   0  0  0  0  0  0  0  0  0  0  0  0
  -28.0293  -22.9332   21.1081 C   0  0  0  0  0  0  0  0  0  0  0  0
  -27.8746  -20.9771   22.4722 C   0  0  1  0  0  0  0  0  0  0  0  0
  -24.7412  -30.6047   23.5405 C   0  0  1  0  0  0  0  0  0  0  0  0
  -22.1981  -28.7309   21.4299 C   0  0  1  0  0  0  0  0  0  0  0  0
  -27.6261  -13.2101   19.6980 C   0  0  2  0  0  0  0  0  0  0  0  0
  -26.9901  -20.7079   21.2480 C   0  0  1  0  0  0  0  0  0  0  0  0
  -27.4199  -20.2572   25.2863 C   0  0  0  0  0  0  0  0  0  0  0  0
  -30.3196  -16.2464   24.7552 C   0  0  0  0  0  0  0  0  0  0  0  0
  -25.5981  -20.2028   21.5960 C   0  0  0  0  0  0  0  0  0  0  0  0
  -15.4520  -24.9903   22.1378 C   0  0  0  0  0  0  0  0  0  0  0  0
  -20.8408  -26.9307   25.4644 C   0  0  0  0  0  0  0  0  0  0  0  0
  -18.7472  -25.5600   25.3841 C   0  0  0  0  0  0  0  0  0  0  0  0
  -18.6162  -28.0451   25.2122 C   0  0  0  0  0  0  0  0  0  0  0  0
  -17.3050  -25.7400   18.9004 C   0  0  0  0  0  0  0  0  0  0  0  0
  -30.7814  -16.9521   21.9480 C   0  0  0  0  0  0  0  0  0  0  0  0
  -26.8326  -22.0154   19.0845 C   0  0  0  0  0  0  0  0  0  0  0  0
  -26.1447  -23.2590   18.5568 C   0  0  0  0  0  0  0  0  0  1  0  0
  -19.5145  -26.7134   23.2599 C   0  0  1  0  0  0  0  0  0  0  0  0
  -16.4629  -25.7013   21.2516 C   0  0  2  0  0  0  0  0  0  0  0  0
  -19.4499  -26.8090   24.8104 C   0  0  0  0  0  0  0  0  0  0  0  0
  -25.8538  -11.5973   20.2818 N   0  0  0  0  0  0  0  0  0  0  0  0
  -26.2214  -12.8853   20.1715 N   0  0  0  0  0  0  0  0  0  0  0  0
  -21.3644  -27.6173   21.8870 N   0  0  0  0  0  0  0  0  0  0  0  0
  -29.9536  -13.6864   20.3643 N   0  0  0  0  0  0  0  0  0  0  0  0
  -25.4425  -15.1033   20.4620 N   0  0  0  0  0  0  0  0  0  0  0  0
  -21.8833  -12.5862   21.6421 N   0  0  0  0  0  0  0  0  0  0  0  0
  -23.7018  -30.2134   22.6126 N   0  0  0  0  0  0  0  0  0  0  0  0
  -18.2105  -26.6244   22.6119 N   0  0  0  0  0  0  0  0  0  0  0  0
  -30.1212  -15.7326   21.5385 N   0  0  0  0  0  0  0  0  0  0  0  0
  -26.8893  -22.0787   20.5807 N   0  3  2  0  0  0  0  0  0  0  0  0
  -16.3801  -25.1181   19.8827 N   0  3  0  0  0  0  0  0  0  0  0  0
  -22.6428  -14.7354   21.3911 O   0  0  0  0  0  0  0  0  0  0  0  0
  -23.7317  -27.9233   23.0333 O   0  0  0  0  0  0  0  0  0  0  0  0
  -19.7546  -29.0297   22.8090 O   0  0  0  0  0  0  0  0  0  0  0  0
  -18.5977  -24.6065   21.5370 O   0  0  0  0  0  0  0  0  0  0  0  0
  -31.8508  -15.0120   20.2170 O   0  0  0  0  0  0  0  0  0  0  0  0
  -21.6471   -7.0203   21.6613 O   0  0  0  0  0  0  0  0  0  0  0  0
  -24.8265  -23.3414   19.0971 O   0  0  0  0  0  0  0  0  0  1  0  0
  -18.6943   -6.7665   26.3112 F   0  0  0  0  0  0  0  0  0  0  0  0
  -22.1254   -5.0488   23.5394 F   0  0  0  0  0  0  0  0  0  0  0  0
  1  2  1  0  0  0  0
  1  5  2  0  0  0  0
  2  6  2  0  0  0  0
  3  8  2  0  0  0  0
  3 17  1  0  0  0  0
  4  9  1  0  0  0  0
  4 17  2  0  0  0  0
  5 19  1  0  0  0  0
  6 21  1  0  0  0  0
  7 10  2  0  0  0  0
  7 20  1  0  0  0  0
  8 27  1  0  0  0  0
  9 27  2  0  0  0  0
 10 28  1  0  0  0  0
 11 12  2  0  0  0  0
 11 29  1  0  0  0  0
 12 30  1  0  0  0  0
 13 22  1  0  0  0  0
 13 24  2  0  0  0  0
 14 23  1  0  0  0  0
 14 28  2  0  0  0  0
 15 25  1  0  0  0  0
 15 26  2  0  0  0  0
 16 30  2  0  0  0  0
 16 31  1  0  0  0  0
 17 32  1  0  0  0  0
 18 32  1  0  0  0  0
 18 33  2  0  0  0  0
 18 34  1  0  0  0  0
 19 21  2  0  0  0  0
 19 39  1  0  0  0  0
 20 23  2  0  0  0  0
 20 40  1  0  0  0  0
 21 51  1  0  0  0  0
 22 25  2  0  0  0  0
 22 50  1  0  0  0  0
 23 41  1  0  0  0  0
 24 26  1  0  0  0  0
 24 63  1  0  0  0  0
 25 55  1  0  0  0  0
 26 56  1  0  0  0  0
 27 85  1  0  0  0  0
 28 86  1  0  0  0  0
 29 31  2  0  0  0  0
 29 85  1  0  0  0  0
 30 87  1  0  0  0  0
 31 88  1  0  0  0  0
 32 69  2  0  0  0  0
 33 70  1  0  0  0  0
 33 73  1  0  0  0  0
 34 74  1  0  0  0  0
 34 80  2  0  0  0  0
 35 52  1  0  0  0  0
 35 75  1  0  0  0  0
 35 81  2  0  0  0  0
 36 66  1  0  0  0  0
 36 71  1  0  0  0  0
 36 82  2  0  0  0  0
 37 67  1  0  0  0  0
 37 76  1  0  0  0  0
 37 83  2  0  0  0  0
 38 72  1  0  0  0  0
 38 77  1  0  0  0  0
 38 84  2  0  0  0  0
 39 42  1  0  0  0  0
 40 52  1  0  0  0  0
 41 71  1  0  0  0  0
 42 44  1  0  0  0  0
 43 45  1  0  0  0  0
 43 47  1  0  0  0  0
 44 51  1  0  0  0  0
 45 53  1  0  0  0  0
 46 49  1  0  0  0  0
 46 50  1  0  0  0  0
 47 72  1  0  0  0  0
 48 53  1  0  0  0  0
 48 72  1  0  0  0  0
 49 78  1  0  0  0  0
 50 54  1  0  0  0  0
 51 75  1  0  0  0  0
 52 71  1  0  0  0  0
 53 70  1  0  0  0  0
 54 57  1  0  0  0  0
 54 78  1  0  0  0  0
 58 67  1  0  0  0  0
 59 68  1  0  0  0  0
 60 68  1  0  0  0  0
 61 68  1  0  0  0  0
 62 79  1  0  0  0  0
 63 77  1  0  0  0  0
 64 65  1  0  0  0  0
 64 78  1  0  0  0  0
 65 86  1  0  0  0  0
 66 68  1  0  0  0  0
 66 76  1  0  0  0  0
 67 79  1  0  0  0  0
 69 70  1  0  0  0  0
M  CHG  2  78   1  79   1
M  ISO  4  38 100  65 101  77 100  86 101
M  END
> <Batch ID>
0161

> <Smiles>
CNC(C)C(=O)NC(C(=O)N1Cc2cc([101O:1][101CH2:1]CN3CCC(c4cc(C[100NH:0][100C:0](=O)N5CCCC(n6nc(-c7ccc(Oc8ccc(F)cc8F)cc7)c(C(N)=O)c6N)C5)c(C)cc4C)C3C)ccc2CC1C(=O)NC1CCCc2ccccc21)C(C)(C)C

> <Shape>
0.330

> <Color>
0.196

> <Negative vol penalty>
0.000

$$$$

  -OEChem-04052322123D

 86 95  0     1  0  0  0  0  0999 V2000
  -19.4164  -16.3434   18.1226 C   0  0  0  0  0  0  0  0  0  0  0  0
  -20.5382  -17.1516   18.2766 C   0  0  0  0  0  0  0  0  0  0  0  0
  -23.4356  -30.0862   24.2211 C   0  0  0  0  0  0  0  0  0  0  0  0
  -24.9555  -29.7282   22.3775 C   0  0  0  0  0  0  0  0  0  0  0  0
  -19.3460  -15.1174   18.7828 C   0  0  0  0  0  0  0  0  0  0  0  0
  -21.5899  -16.7347   19.0918 C   0  0  0  0  0  0  0  0  0  0  0  0
  -26.1192  -17.4816   16.9536 C   0  0  0  0  0  0  0  0  0  0  0  0
  -22.3559  -29.7946   23.3876 C   0  0  0  0  0  0  0  0  0  0  0  0
  -23.8758  -29.4366   21.5440 C   0  0  0  0  0  0  0  0  0  0  0  0
  -26.6270  -18.7799   16.9748 C   0  0  0  0  0  0  0  0  0  0  0  0
  -20.8686  -27.0403   22.1091 C   0  0  0  0  0  0  0  0  0  0  0  0
  -19.8804  -26.1883   22.6024 C   0  0  0  0  0  0  0  0  0  0  0  0
  -28.0223  -18.1971   18.8543 C   0  0  0  0  0  0  0  0  0  0  0  0
  -18.2361  -27.9371   22.3286 C   0  0  0  0  0  0  0  0  0  0  0  0
  -24.7354  -30.0530   23.7161 C   0  0  0  0  0  0  0  0  0  0  0  0
  -26.0875  -31.5551   25.2727 C   0  0  0  0  0  0  0  0  0  0  0  0
  -20.4015  -14.6809   19.5989 C   0  0  0  0  0  0  0  0  0  0  0  0
  -26.5519  -16.5328   17.8911 C   0  0  0  0  0  0  0  0  0  0  0  0
  -21.5329  -15.5023   19.7646 C   0  0  0  0  0  0  0  0  0  0  0  0
  -27.5204  -16.8867   18.8413 C   0  0  0  0  0  0  0  0  0  0  0  0
  -22.5759  -29.4698   22.0490 C   0  0  0  0  0  0  0  0  0  0  0  0
  -27.5766  -19.1386   17.9270 C   0  0  0  0  0  0  0  0  0  0  0  0
  -20.5406  -28.3407   21.7257 C   0  0  0  0  0  0  0  0  0  0  0  0
  -18.5642  -26.6367   22.7121 C   0  0  0  0  0  0  0  0  0  0  0  0
  -19.2243  -28.7891   21.8354 C   0  0  0  0  0  0  0  0  0  0  0  0
  -25.8512  -30.3546   24.5765 C   0  0  0  0  0  0  0  0  0  0  0  0
  -27.2679  -31.3380   25.9406 C   0  0  0  0  0  0  0  0  0  0  0  0
  -25.3096  -32.7589   25.3122 C   0  0  0  0  0  0  0  0  0  0  0  0
  -25.1443  -14.8445   20.1872 C   0  0  0  0  0  0  0  0  0  0  0  0
  -28.0586  -13.4361   20.4008 C   0  0  0  0  0  0  0  0  0  0  0  0
  -31.4231  -13.6446   19.8685 C   0  0  0  0  0  0  0  0  0  0  0  0
  -29.9261  -29.6049   22.7709 C   0  0  0  0  0  0  0  0  0  0  0  0
  -20.2595  -13.3693   20.3298 C   0  0  0  0  0  0  0  0  0  0  0  0
  -26.0141  -15.1291   17.8381 C   0  0  0  0  0  0  0  0  0  0  0  0
  -28.0328  -15.8996   19.8569 C   0  0  0  0  0  0  0  0  0  0  0  0
  -21.5788  -12.8315   20.8779 C   0  0  0  0  0  0  0  0  0  0  0  0
  -28.9343  -27.0221   24.9458 C   0  0  0  0  0  0  0  0  0  0  0  0
  -22.3521  -13.9377   21.5886 C   0  0  0  0  0  0  0  0  0  0  0  0
  -28.7957  -27.8004   26.2580 C   0  0  0  0  0  0  0  0  0  0  0  0
  -29.4668  -27.9843   19.4643 C   0  0  0  0  0  0  0  0  0  0  0  0
  -31.6059  -27.1440   20.4973 C   0  0  0  0  0  0  0  0  0  0  0  0
  -30.1397  -27.4681   24.1223 C   0  0  0  0  0  0  0  0  0  0  0  0
  -29.5344  -29.2133   20.3677 C   0  0  0  0  0  0  0  0  0  0  0  0
  -31.6386  -28.3909   21.3760 C   0  0  0  0  0  0  0  0  0  0  0  0
  -30.1414  -29.6663   25.2393 C   0  0  0  0  0  0  0  0  0  0  0  0
  -29.9829  -25.1519   19.1014 C   0  0  0  0  0  0  0  0  0  0  0  0
  -22.7049  -15.0736   20.6207 C   0  0  1  0  0  0  0  0  0  0  0  0
  -26.1464  -14.3880   19.1650 C   0  0  1  0  0  0  0  0  0  0  0  0
  -29.7475  -24.9507   16.7052 C   0  0  2  0  0  0  0  0  0  0  0  0
  -28.8998  -29.3335   26.0928 C   0  0  1  0  0  0  0  0  0  0  0  0
  -30.8628  -27.4182   19.1854 C   0  0  0  0  0  0  0  0  0  0  0  0
  -29.1498  -24.4723   18.0214 C   0  0  1  0  0  0  0  0  0  0  0  0
  -30.1524  -26.3851   17.0728 C   0  0  2  0  0  0  0  0  0  0  0  0
  -28.7745  -24.8604   15.5372 C   0  0  0  0  0  0  0  0  0  0  0  0
  -31.1339  -26.9888   16.0734 C   0  0  0  0  0  0  0  0  0  0  0  0
  -33.5507  -12.3509   20.1802 C   0  0  0  0  0  0  0  0  0  0  0  0
  -28.0196  -14.0944   23.3799 C   0  0  0  0  0  0  0  0  0  0  0  0
  -30.4848  -13.6608   23.4368 C   0  0  0  0  0  0  0  0  0  0  0  0
  -28.9111  -11.8247   22.8246 C   0  0  0  0  0  0  0  0  0  0  0  0
  -31.9603  -13.6028   16.9584 C   0  0  0  0  0  0  0  0  0  0  0  0
  -28.3534  -22.4316   19.2215 C   0  0  0  0  0  0  0  0  0  0  0  0
  -28.4814  -20.9211   19.2155 C   0  0  0  0  0  0  0  0  0  1  0  0
  -29.3208  -13.7044   21.1842 C   0  0  1  0  0  0  0  0  0  0  0  0
  -32.4046  -12.6754   19.2347 C   0  0  2  0  0  0  0  0  0  0  0  0
  -29.1732  -13.3405   22.6886 C   0  0  0  0  0  0  0  0  0  0  0  0
  -26.8048  -29.4425   24.7828 N   0  0  0  0  0  0  0  0  0  0  0  0
  -27.6520  -30.0701   25.6162 N   0  0  0  0  0  0  0  0  0  0  0  0
  -27.4718  -14.5414   19.7683 N   0  0  0  0  0  0  0  0  0  0  0  0
  -30.1561  -28.9270   23.9771 N   0  0  0  0  0  0  0  0  0  0  0  0
  -30.2927  -28.9409   21.5887 N   0  0  0  0  0  0  0  0  0  0  0  0
  -30.7591  -26.1896   18.4015 N   0  0  2  0  0  0  0  0  0  0  0  0
  -28.0043  -32.1098   26.7679 N   0  0  0  0  0  0  0  0  0  0  0  0
  -25.5742  -33.7568   24.3644 N   0  0  0  0  0  0  0  0  0  0  0  0
  -23.8289  -14.6987   19.7897 N   0  0  0  0  0  0  0  0  0  0  0  0
  -30.3882  -12.9852   20.4974 N   0  0  0  0  0  0  0  0  0  0  0  0
  -29.2081  -23.0024   18.1405 N   0  3  0  0  0  0  0  0  0  0  0  0
  -32.9751  -13.2577   17.9871 N   0  3  0  0  0  0  0  0  0  0  0  0
  -24.4178  -32.9509   26.1732 O   0  0  0  0  0  0  0  0  0  0  0  0
  -25.5354  -15.2942   21.2579 O   0  0  0  0  0  0  0  0  0  0  0  0
  -27.6137  -12.2869   20.3459 O   0  0  0  0  0  0  0  0  0  0  0  0
  -31.5626  -14.8645   19.8146 O   0  0  0  0  0  0  0  0  0  0  0  0
  -29.4190  -30.7332   22.7450 O   0  0  0  0  0  0  0  0  0  0  0  0
  -21.5226  -29.1850   21.2354 O   0  0  0  0  0  0  0  0  0  0  0  0
  -28.0769  -20.4144   17.9505 O   0  0  0  0  0  0  0  0  0  1  0  0
  -17.6151  -25.8180   23.1844 F   0  0  0  0  0  0  0  0  0  0  0  0
  -18.9028  -30.0369   21.4675 F   0  0  0  0  0  0  0  0  0  0  0  0
  1  2  1  0  0  0  0
  1  5  2  0  0  0  0
  2  6  2  0  0  0  0
  3  8  2  0  0  0  0
  3 15  1  0  0  0  0
  4  9  1  0  0  0  0
  4 15  2  0  0  0  0
  5 17  1  0  0  0  0
  6 19  1  0  0  0  0
  7 10  2  0  0  0  0
  7 18  1  0  0  0  0
  8 21  1  0  0  0  0
  9 21  2  0  0  0  0
 10 22  1  0  0  0  0
 11 12  2  0  0  0  0
 11 23  1  0  0  0  0
 12 24  1  0  0  0  0
 13 20  1  0  0  0  0
 13 22  2  0  0  0  0
 14 24  2  0  0  0  0
 14 25  1  0  0  0  0
 15 26  1  0  0  0  0
 16 26  1  0  0  0  0
 16 27  2  0  0  0  0
 16 28  1  0  0  0  0
 17 19  2  0  0  0  0
 17 33  1  0  0  0  0
 18 20  2  0  0  0  0
 18 34  1  0  0  0  0
 19 47  1  0  0  0  0
 20 35  1  0  0  0  0
 21 83  1  0  0  0  0
 22 84  1  0  0  0  0
 23 25  2  0  0  0  0
 23 83  1  0  0  0  0
 24 85  1  0  0  0  0
 25 86  1  0  0  0  0
 26 66  2  0  0  0  0
 27 67  1  0  0  0  0
 27 72  1  0  0  0  0
 28 73  1  0  0  0  0
 28 78  2  0  0  0  0
 29 48  1  0  0  0  0
 29 74  1  0  0  0  0
 29 79  2  0  0  0  0
 30 63  1  0  0  0  0
 30 68  1  0  0  0  0
 30 80  2  0  0  0  0
 31 64  1  0  0  0  0
 31 75  1  0  0  0  0
 31 81  2  0  0  0  0
 32 69  1  0  0  0  0
 32 70  1  0  0  0  0
 32 82  2  0  0  0  0
 33 36  1  0  0  0  0
 34 48  1  0  0  0  0
 35 68  1  0  0  0  0
 36 38  1  0  0  0  0
 37 39  1  0  0  0  0
 37 42  1  0  0  0  0
 38 47  1  0  0  0  0
 39 50  1  0  0  0  0
 40 43  1  0  0  0  0
 40 51  1  0  0  0  0
 41 44  1  0  0  0  0
 41 51  1  0  0  0  0
 42 69  1  0  0  0  0
 43 70  1  0  0  0  0
 44 70  1  0  0  0  0
 45 50  1  0  0  0  0
 45 69  1  0  0  0  0
 46 52  1  0  0  0  0
 46 71  1  0  0  0  0
 47 74  1  0  0  0  0
 48 68  1  0  0  0  0
 49 52  1  0  0  0  0
 49 53  1  0  0  0  0
 49 54  1  0  0  0  0
 50 67  1  0  0  0  0
 51 71  1  0  0  0  0
 52 76  1  0  0  0  0
 53 55  1  0  0  0  0
 53 71  1  0  0  0  0
 56 64  1  0  0  0  0
 57 65  1  0  0  0  0
 58 65  1  0  0  0  0
 59 65  1  0  0  0  0
 60 77  1  0  0  0  0
 61 62  1  0  0  0  0
 61 76  1  0  0  0  0
 62 84  1  0  0  0  0
 63 65  1  0  0  0  0
 63 75  1  0  0  0  0
 64 77  1  0  0  0  0
 66 67  1  0  0  0  0
M  CHG  2  76   1  77   1
M  ISO  4  32 100  62 101  70 100  84 101
M  END
> <Batch ID>
0161

> <Smiles>
CNC(C)C(=O)NC(C(=O)N1Cc2cc([101O:1][101CH2:1]CNC3CN(C4CC[100N:0]([100C:0](=O)N5CCCC(n6nc(-c7ccc(Oc8ccc(F)cc8F)cc7)c(C(N)=O)c6N)C5)CC4)C(C)C3C)ccc2CC1C(=O)NC1CCCc2ccccc21)C(C)(C)C

> <Shape>
0.281

> <Color>
0.060

> <Negative vol penalty>
0.000

$$$$

  -OEChem-04052322123D

 86 95  0     1  0  0  0  0  0999 V2000
  -23.8135  -24.0027   19.9494 C   0  0  0  0  0  0  0  0  0  0  0  0
  -24.5055  -22.9106   19.4380 C   0  0  0  0  0  0  0  0  0  0  0  0
  -26.0949  -27.6961   18.9007 C   0  0  0  0  0  0  0  0  0  0  0  0
  -26.3983  -27.5765   21.2945 C   0  0  0  0  0  0  0  0  0  0  0  0
  -23.1737  -23.9020   21.1830 C   0  0  0  0  0  0  0  0  0  0  0  0
  -24.5479  -21.7140   20.1543 C   0  0  0  0  0  0  0  0  0  0  0  0
  -27.5167  -16.5169   19.0124 C   0  0  0  0  0  0  0  0  0  0  0  0
  -24.9603  -28.4865   19.0840 C   0  0  0  0  0  0  0  0  0  0  0  0
  -25.2638  -28.3669   21.4779 C   0  0  0  0  0  0  0  0  0  0  0  0
  -28.7490  -15.9453   19.3265 C   0  0  0  0  0  0  0  0  0  0  0  0
  -21.9080  -27.9574   21.4315 C   0  0  0  0  0  0  0  0  0  0  0  0
  -20.9937  -27.5621   22.4079 C   0  0  0  0  0  0  0  0  0  0  0  0
  -27.7212  -14.7465   21.1502 C   0  0  0  0  0  0  0  0  0  0  0  0
  -21.3249  -29.6566   23.5659 C   0  0  0  0  0  0  0  0  0  0  0  0
  -26.8139  -27.2410   20.0060 C   0  0  0  0  0  0  0  0  0  0  0  0
  -29.3146  -26.8646   19.6710 C   0  0  0  0  0  0  0  0  0  0  0  0
  -23.2192  -22.7070   21.9198 C   0  0  0  0  0  0  0  0  0  0  0  0
  -26.3778  -16.2155   19.7729 C   0  0  0  0  0  0  0  0  0  0  0  0
  -23.8883  -21.5850   21.3899 C   0  0  0  0  0  0  0  0  0  0  0  0
  -26.4752  -15.3137   20.8421 C   0  0  0  0  0  0  0  0  0  0  0  0
  -32.8549  -14.9072   20.3449 C   0  0  0  0  0  0  0  0  0  0  0  0
  -32.6374  -16.0766   21.0785 C   0  0  0  0  0  0  0  0  0  0  0  0
  -33.3043  -14.9588   19.0355 C   0  0  0  0  0  0  0  0  0  0  0  0
  -32.8647  -17.3232   20.5190 C   0  0  0  0  0  0  0  0  0  0  0  0
  -33.5252  -16.2114   18.4591 C   0  0  0  0  0  0  0  0  0  0  0  0
  -33.3072  -17.3856   19.1959 C   0  0  0  0  0  0  0  0  0  0  0  0
  -24.5448  -28.8220   20.3725 C   0  0  0  0  0  0  0  0  0  0  0  0
  -28.8519  -15.0622   20.3973 C   0  0  0  0  0  0  0  0  0  0  0  0
  -22.5309  -29.2022   21.5223 C   0  0  0  0  0  0  0  0  0  0  0  0
  -20.7021  -28.4117   23.4751 C   0  0  0  0  0  0  0  0  0  0  0  0
  -22.2393  -30.0518   22.5895 C   0  0  0  0  0  0  0  0  0  0  0  0
  -27.9856  -26.4240   19.8173 C   0  0  0  0  0  0  0  0  0  0  0  0
  -30.0444  -25.7107   19.5217 C   0  0  0  0  0  0  0  0  0  0  0  0
  -29.8423  -28.1977   19.6703 C   0  0  0  0  0  0  0  0  0  0  0  0
  -24.3783  -17.8991   21.5816 C   0  0  0  0  0  0  0  0  0  0  0  0
  -22.7602  -15.0913   21.7241 C   0  0  0  0  0  0  0  0  0  0  0  0
  -22.8380  -11.6875   21.4896 C   0  0  0  0  0  0  0  0  0  0  0  0
  -31.2703  -20.6189   21.1085 C   0  0  0  0  0  0  0  0  0  0  0  0
  -22.5024  -22.6507   23.2459 C   0  0  0  0  0  0  0  0  0  0  0  0
  -25.0505  -16.8198   19.4046 C   0  0  0  0  0  0  0  0  0  0  0  0
  -32.5840  -13.6904   21.1738 C   0  0  0  0  0  0  0  0  0  0  0  0
  -32.1977  -15.7653   22.4753 C   0  0  0  0  0  0  0  0  0  0  0  0
  -25.2783  -14.9415   21.6772 C   0  0  0  0  0  0  0  0  0  0  0  0
  -22.9730  -21.4986   24.1276 C   0  0  0  0  0  0  0  0  0  0  0  0
  -28.5456  -20.9413   18.7485 C   0  0  0  0  0  0  0  0  0  0  0  0
  -22.9789  -20.2028   23.3304 C   0  0  0  0  0  0  0  0  0  0  0  0
  -28.2683  -22.4445   18.8077 C   0  0  0  0  0  0  0  0  0  0  0  0
  -28.9096  -20.3917   20.1247 C   0  0  0  0  0  0  0  0  0  0  0  0
  -29.7827  -22.5828   20.8393 C   0  0  0  0  0  0  0  0  0  0  0  0
  -23.9737  -20.2828   22.1654 C   0  0  1  0  0  0  0  0  0  0  0  0
  -24.0603  -16.8394   20.5650 C   0  0  1  0  0  0  0  0  0  0  0  0
  -29.4310  -23.2030   19.4748 C   0  0  2  0  0  0  0  0  0  0  0  0
  -31.7686  -14.2747   22.3621 C   0  0  2  0  0  0  0  0  0  0  0  0
  -33.5477  -13.7025   18.2690 C   0  0  0  0  0  0  0  0  0  0  0  0
  -34.0054  -16.3011   17.0437 C   0  0  0  0  0  0  0  0  0  0  0  0
  -33.5566  -18.7184   18.5609 C   0  0  0  0  0  0  0  0  0  0  0  0
  -32.0742  -13.5180   23.6590 C   0  0  0  0  0  0  0  0  0  0  0  0
  -21.3667   -9.6648   21.6934 C   0  0  0  0  0  0  0  0  0  0  0  0
  -22.8329  -15.3476   24.7636 C   0  0  0  0  0  0  0  0  0  0  0  0
  -22.2298  -12.9223   24.9129 C   0  0  0  0  0  0  0  0  0  0  0  0
  -20.6576  -14.5328   23.8372 C   0  0  0  0  0  0  0  0  0  0  0  0
  -23.3215  -10.9089   18.6756 C   0  0  0  0  0  0  0  0  0  0  0  0
  -32.6441  -18.5632   21.3183 C   0  0  0  0  0  0  0  0  0  0  0  0
  -30.2852  -14.1777   22.0764 C   0  0  0  0  0  0  0  0  0  1  0  0
  -22.7859  -13.8876   22.6348 C   0  0  1  0  0  0  0  0  0  0  0  0
  -21.9446  -10.7081   20.7499 C   0  0  2  0  0  0  0  0  0  0  0  0
  -22.1497  -14.1809   24.0228 C   0  0  0  0  0  0  0  0  0  0  0  0
  -27.8746  -25.0939   19.7654 N   0  0  0  0  0  0  0  0  0  0  0  0
  -29.1433  -24.6889   19.5848 N   0  0  0  0  0  0  0  0  0  0  0  0
  -24.0039  -15.5636   21.2815 N   0  0  0  0  0  0  0  0  0  0  0  0
  -30.0347  -21.1450   20.6964 N   0  0  0  0  0  0  0  0  0  0  0  0
  -31.3627  -25.4805   19.3438 N   0  0  0  0  0  0  0  0  0  0  0  0
  -28.9530  -29.2683   19.8357 N   0  0  0  0  0  0  0  0  0  0  0  0
  -23.7996  -19.1255   21.3157 N   0  0  0  0  0  0  0  0  0  0  0  0
  -22.1417  -12.8051   21.8989 N   0  0  0  0  0  0  0  0  0  0  0  0
  -31.4261  -19.2478   20.9458 N   0  0  0  0  0  0  0  0  0  0  0  0
  -22.7163  -10.0043   19.6868 N   0  3  0  0  0  0  0  0  0  0  0  0
  -31.0639  -28.4334   19.5107 O   0  0  0  0  0  0  0  0  0  0  0  0
  -25.0944  -17.6241   22.5373 O   0  0  0  0  0  0  0  0  0  0  0  0
  -21.6761  -15.5897   21.4110 O   0  0  0  0  0  0  0  0  0  0  0  0
  -24.0330  -11.4800   21.6881 O   0  0  0  0  0  0  0  0  0  0  0  0
  -32.1709  -21.3203   21.5818 O   0  0  0  0  0  0  0  0  0  0  0  0
  -23.4379  -29.5934   20.5518 O   0  0  0  0  0  0  0  0  0  0  0  0
  -30.0536  -14.5033   20.7064 O   0  0  0  0  0  0  0  0  0  1  0  0
  -19.8228  -28.0327   24.4118 F   0  0  0  0  0  0  0  0  0  0  0  0
  -22.8336  -31.2493   22.6815 F   0  0  0  0  0  0  0  0  0  0  0  0
  1  2  1  0  0  0  0
  1  5  2  0  0  0  0
  2  6  2  0  0  0  0
  3  8  2  0  0  0  0
  3 15  1  0  0  0  0
  4  9  1  0  0  0  0
  4 15  2  0  0  0  0
  5 17  1  0  0  0  0
  6 19  1  0  0  0  0
  7 10  2  0  0  0  0
  7 18  1  0  0  0  0
  8 27  1  0  0  0  0
  9 27  2  0  0  0  0
 10 28  1  0  0  0  0
 11 12  2  0  0  0  0
 11 29  1  0  0  0  0
 12 30  1  0  0  0  0
 13 20  1  0  0  0  0
 13 28  2  0  0  0  0
 14 30  2  0  0  0  0
 14 31  1  0  0  0  0
 15 32  1  0  0  0  0
 16 32  1  0  0  0  0
 16 33  2  0  0  0  0
 16 34  1  0  0  0  0
 17 19  2  0  0  0  0
 17 39  1  0  0  0  0
 18 20  2  0  0  0  0
 18 40  1  0  0  0  0
 19 50  1  0  0  0  0
 20 43  1  0  0  0  0
 21 22  2  0  0  0  0
 21 23  1  0  0  0  0
 21 41  1  0  0  0  0
 22 24  1  0  0  0  0
 22 42  1  0  0  0  0
 23 25  2  0  0  0  0
 23 54  1  0  0  0  0
 24 26  2  0  0  0  0
 24 63  1  0  0  0  0
 25 26  1  0  0  0  0
 25 55  1  0  0  0  0
 26 56  1  0  0  0  0
 27 83  1  0  0  0  0
 28 84  1  0  0  0  0
 29 31  2  0  0  0  0
 29 83  1  0  0  0  0
 30 85  1  0  0  0  0
 31 86  1  0  0  0  0
 32 68  2  0  0  0  0
 33 69  1  0  0  0  0
 33 72  1  0  0  0  0
 34 73  1  0  0  0  0
 34 78  2  0  0  0  0
 35 51  1  0  0  0  0
 35 74  1  0  0  0  0
 35 79  2  0  0  0  0
 36 65  1  0  0  0  0
 36 70  1  0  0  0  0
 36 80  2  0  0  0  0
 37 66  1  0  0  0  0
 37 75  1  0  0  0  0
 37 81  2  0  0  0  0
 38 71  1  0  0  0  0
 38 76  1  0  0  0  0
 38 82  2  0  0  0  0
 39 44  1  0  0  0  0
 40 51  1  0  0  0  0
 41 53  1  0  0  0  0
 42 53  1  0  0  0  0
 43 70  1  0  0  0  0
 44 46  1  0  0  0  0
 45 47  1  0  0  0  0
 45 48  1  0  0  0  0
 46 50  1  0  0  0  0
 47 52  1  0  0  0  0
 48 71  1  0  0  0  0
 49 52  1  0  0  0  0
 49 71  1  0  0  0  0
 50 74  1  0  0  0  0
 51 70  1  0  0  0  0
 52 69  1  0  0  0  0
 53 57  1  0  0  0  0
 53 64  1  0  0  0  0
 58 66  1  0  0  0  0
 59 67  1  0  0  0  0
 60 67  1  0  0  0  0
 61 67  1  0  0  0  0
 62 77  1  0  0  0  0
 63 76  1  0  0  0  0
 64 84  1  0  0  0  0
 65 67  1  0  0  0  0
 65 75  1  0  0  0  0
 66 77  1  0  0  0  0
 68 69  1  0  0  0  0
M  CHG  1  77   1
M  ISO  4  38 100  64 101  76 100  84 101
M  END
> <Batch ID>
0161

> <Smiles>
CNC(C)C(=O)NC(C(=O)N1Cc2cc([101O:1][101CH2:1]C3(C)Cc4c(C)c(C)c(C)c(C[100NH:0][100C:0](=O)N5CCCC(n6nc(-c7ccc(Oc8ccc(F)cc8F)cc7)c(C(N)=O)c6N)C5)c4C3)ccc2CC1C(=O)NC1CCCc2ccccc21)C(C)(C)C

> <Shape>
0.224

> <Color>
0.052

> <Negative vol penalty>
0.000

$$$$

  -OEChem-04052322123D

 86 95  0     1  0  0  0  0  0999 V2000
  -19.8364  -17.2503   17.1252 C   0  0  0  0  0  0  0  0  0  0  0  0
  -21.0086  -17.9316   17.4369 C   0  0  0  0  0  0  0  0  0  0  0  0
  -21.7847  -29.0184   21.9917 C   0  0  0  0  0  0  0  0  0  0  0  0
  -23.4084  -27.2316   21.9031 C   0  0  0  0  0  0  0  0  0  0  0  0
  -19.5781  -16.0087   17.7044 C   0  0  0  0  0  0  0  0  0  0  0  0
  -21.9227  -17.3721   18.3290 C   0  0  0  0  0  0  0  0  0  0  0  0
  -26.7039  -17.7504   16.7037 C   0  0  0  0  0  0  0  0  0  0  0  0
  -20.7844  -28.0945   22.2936 C   0  0  0  0  0  0  0  0  0  0  0  0
  -22.4081  -26.3076   22.2050 C   0  0  0  0  0  0  0  0  0  0  0  0
  -27.3300  -18.9876   16.8494 C   0  0  0  0  0  0  0  0  0  0  0  0
  -18.8852  -25.8474   20.6298 C   0  0  0  0  0  0  0  0  0  0  0  0
  -17.6731  -25.9600   19.9489 C   0  0  0  0  0  0  0  0  0  0  0  0
  -31.4514  -24.9125   20.9741 C   0  0  0  0  0  0  0  0  0  0  0  0
  -28.4554  -18.1788   18.8239 C   0  0  0  0  0  0  0  0  0  0  0  0
  -16.5222  -26.2748   22.0497 C   0  0  0  0  0  0  0  0  0  0  0  0
  -23.0968  -28.5870   21.7964 C   0  0  0  0  0  0  0  0  0  0  0  0
  -24.5428  -30.6350   22.2679 C   0  0  0  0  0  0  0  0  0  0  0  0
  -20.4940  -15.4292   18.5966 C   0  0  0  0  0  0  0  0  0  0  0  0
  -26.9409  -16.7199   17.6247 C   0  0  0  0  0  0  0  0  0  0  0  0
  -21.6757  -16.1222   18.9218 C   0  0  0  0  0  0  0  0  0  0  0  0
  -31.5184  -26.1935   20.4036 C   0  0  0  0  0  0  0  0  0  0  0  0
  -27.8331  -16.9286   18.6862 C   0  0  0  0  0  0  0  0  0  0  0  0
  -31.0442  -26.3925   19.0925 C   0  0  0  0  0  0  0  0  0  0  0  0
  -30.9060  -23.8440   20.2637 C   0  0  0  0  0  0  0  0  0  0  0  0
  -30.4976  -25.3054   18.3893 C   0  0  0  0  0  0  0  0  0  0  0  0
  -21.0960  -26.7390   22.4003 C   0  0  0  0  0  0  0  0  0  0  0  0
  -28.2036  -19.2029   17.9112 C   0  0  0  0  0  0  0  0  0  0  0  0
  -18.9159  -25.9484   22.0207 C   0  0  0  0  0  0  0  0  0  0  0  0
  -30.4292  -24.0403   18.9716 C   0  0  0  0  0  0  0  0  0  0  0  0
  -16.4916  -26.1737   20.6588 C   0  0  0  0  0  0  0  0  0  0  0  0
  -17.7344  -26.1622   22.7306 C   0  0  0  0  0  0  0  0  0  0  0  0
  -24.1305  -29.5409   21.4839 C   0  0  0  0  0  0  0  0  0  0  0  0
  -25.5453  -31.2233   21.5363 C   0  0  0  0  0  0  0  0  0  0  0  0
  -24.0626  -31.0797   23.5436 C   0  0  0  0  0  0  0  0  0  0  0  0
  -25.1412  -15.0798   19.6680 C   0  0  0  0  0  0  0  0  0  0  0  0
  -27.8663  -13.3726   20.0939 C   0  0  0  0  0  0  0  0  0  0  0  0
  -31.2726  -13.2605   19.9160 C   0  0  0  0  0  0  0  0  0  0  0  0
  -29.3132  -29.1443   17.3731 C   0  0  0  0  0  0  0  0  0  0  0  0
  -20.1490  -14.1066   19.2340 C   0  0  0  0  0  0  0  0  0  0  0  0
  -26.2784  -15.3825   17.4384 C   0  0  0  0  0  0  0  0  0  0  0  0
  -32.1642  -27.3051   21.1931 C   0  0  0  0  0  0  0  0  0  0  0  0
  -28.1371  -15.8483   19.6907 C   0  0  0  0  0  0  0  0  0  0  0  0
  -21.3445  -13.4120   19.8810 C   0  0  0  0  0  0  0  0  0  0  0  0
  -31.8875  -28.6973   20.6307 C   0  0  0  0  0  0  0  0  0  0  0  0
  -27.0195  -31.8454   17.0273 C   0  0  0  0  0  0  0  0  0  0  0  0
  -22.1418  -14.3993   20.7274 C   0  0  0  0  0  0  0  0  0  0  0  0
  -32.0702  -28.7061   19.1172 C   0  0  0  0  0  0  0  0  0  0  0  0
  -26.0562  -31.6598   18.2010 C   0  0  0  0  0  0  0  0  0  0  0  0
  -27.4636  -30.5057   16.4445 C   0  0  0  0  0  0  0  0  0  0  0  0
  -27.0680  -29.3758   18.5986 C   0  0  0  0  0  0  0  0  0  0  0  0
  -22.7034  -15.5368   19.8659 C   0  0  1  0  0  0  0  0  0  0  0  0
  -31.0748  -27.7572   18.4370 C   0  0  2  0  0  0  0  0  0  0  0  0
  -26.1970  -14.5711   18.7277 C   0  0  1  0  0  0  0  0  0  0  0  0
  -26.6359  -30.6979   19.2555 C   0  0  2  0  0  0  0  0  0  0  0  0
  -30.8499  -22.4962   20.9048 C   0  0  0  0  0  0  0  0  0  0  0  0
  -30.0171  -25.4400   16.9764 C   0  0  0  0  0  0  0  0  0  0  0  0
  -33.2198  -11.7430   20.3665 C   0  0  0  0  0  0  0  0  0  0  0  0
  -27.5761  -13.8927   23.0865 C   0  0  0  0  0  0  0  0  0  0  0  0
  -29.9677  -13.2073   23.3668 C   0  0  0  0  0  0  0  0  0  0  0  0
  -28.2973  -11.5720   22.4961 C   0  0  0  0  0  0  0  0  0  0  0  0
  -32.1083  -13.2988   17.0771 C   0  0  0  0  0  0  0  0  0  0  0  0
  -28.1113  -21.5562   17.5808 C   0  0  0  0  0  0  0  0  0  1  0  0
  -28.5048  -22.7600   18.4147 C   0  0  0  0  0  0  0  0  0  0  0  0
  -29.0585  -13.4739   21.0145 C   0  0  1  0  0  0  0  0  0  0  0  0
  -32.2172  -12.2264   19.3303 C   0  0  2  0  0  0  0  0  0  0  0  0
  -28.7179  -13.0576   22.4733 C   0  0  0  0  0  0  0  0  0  0  0  0
  -24.8150  -29.4381   20.3416 N   0  0  0  0  0  0  0  0  0  0  0  0
  -25.6675  -30.4752   20.4025 N   0  0  0  0  0  0  0  0  0  0  0  0
  -27.4597  -14.5601   19.4692 N   0  0  0  0  0  0  0  0  0  0  0  0
  -28.0050  -29.6410   17.4957 N   0  0  0  0  0  0  0  0  0  0  0  0
  -26.3253  -32.3024   21.7586 N   0  0  0  0  0  0  0  0  0  0  0  0
  -24.6692  -30.5711   24.7002 N   0  0  0  0  0  0  0  0  0  0  0  0
  -23.8674  -15.0878   19.1324 N   0  0  0  0  0  0  0  0  0  0  0  0
  -30.1180  -12.6819   20.3990 N   0  0  0  0  0  0  0  0  0  0  0  0
  -29.7506  -28.3376   18.4165 N   0  0  0  0  0  0  0  0  0  0  0  0
  -32.9702  -12.8045   18.1816 N   0  3  0  0  0  0  0  0  0  0  0  0
  -23.1125  -31.8911   23.6548 O   0  0  0  0  0  0  0  0  0  0  0  0
  -25.4585  -15.4371   20.7964 O   0  0  0  0  0  0  0  0  0  0  0  0
  -27.3205  -12.2786   19.9295 O   0  0  0  0  0  0  0  0  0  0  0  0
  -31.5346  -14.4609   19.9456 O   0  0  0  0  0  0  0  0  0  0  0  0
  -30.0395  -29.4050   16.4080 O   0  0  0  0  0  0  0  0  0  0  0  0
  -20.1202  -25.8372   22.6952 O   0  0  0  0  0  0  0  0  0  0  0  0
  -28.8155  -20.4097   18.0561 O   0  0  0  0  0  0  0  0  0  1  0  0
  -29.9022  -22.9854   18.2749 O   0  0  0  0  0  0  0  0  0  0  0  0
  -15.3279  -26.2834   20.0047 F   0  0  0  0  0  0  0  0  0  0  0  0
  -17.7577  -26.2613   24.0669 F   0  0  0  0  0  0  0  0  0  0  0  0
  1  2  1  0  0  0  0
  1  5  2  0  0  0  0
  2  6  2  0  0  0  0
  3  8  2  0  0  0  0
  3 16  1  0  0  0  0
  4  9  1  0  0  0  0
  4 16  2  0  0  0  0
  5 18  1  0  0  0  0
  6 20  1  0  0  0  0
  7 10  2  0  0  0  0
  7 19  1  0  0  0  0
  8 26  1  0  0  0  0
  9 26  2  0  0  0  0
 10 27  1  0  0  0  0
 11 12  2  0  0  0  0
 11 28  1  0  0  0  0
 12 30  1  0  0  0  0
 13 21  1  0  0  0  0
 13 24  2  0  0  0  0
 14 22  1  0  0  0  0
 14 27  2  0  0  0  0
 15 30  2  0  0  0  0
 15 31  1  0  0  0  0
 16 32  1  0  0  0  0
 17 32  1  0  0  0  0
 17 33  2  0  0  0  0
 17 34  1  0  0  0  0
 18 20  2  0  0  0  0
 18 39  1  0  0  0  0
 19 22  2  0  0  0  0
 19 40  1  0  0  0  0
 20 51  1  0  0  0  0
 21 23  2  0  0  0  0
 21 41  1  0  0  0  0
 22 42  1  0  0  0  0
 23 25  1  0  0  0  0
 23 52  1  0  0  0  0
 24 29  1  0  0  0  0
 24 55  1  0  0  0  0
 25 29  2  0  0  0  0
 25 56  1  0  0  0  0
 26 82  1  0  0  0  0
 27 83  1  0  0  0  0
 28 31  2  0  0  0  0
 28 82  1  0  0  0  0
 29 84  1  0  0  0  0
 30 85  1  0  0  0  0
 31 86  1  0  0  0  0
 32 67  2  0  0  0  0
 33 68  1  0  0  0  0
 33 71  1  0  0  0  0
 34 72  1  0  0  0  0
 34 77  2  0  0  0  0
 35 53  1  0  0  0  0
 35 73  1  0  0  0  0
 35 78  2  0  0  0  0
 36 64  1  0  0  0  0
 36 69  1  0  0  0  0
 36 79  2  0  0  0  0
 37 65  1  0  0  0  0
 37 74  1  0  0  0  0
 37 80  2  0  0  0  0
 38 70  1  0  0  0  0
 38 75  1  0  0  0  0
 38 81  2  0  0  0  0
 39 43  1  0  0  0  0
 40 53  1  0  0  0  0
 41 44  1  0  0  0  0
 42 69  1  0  0  0  0
 43 46  1  0  0  0  0
 44 47  1  0  0  0  0
 45 48  1  0  0  0  0
 45 49  1  0  0  0  0
 46 51  1  0  0  0  0
 47 52  1  0  0  0  0
 48 54  1  0  0  0  0
 49 70  1  0  0  0  0
 50 54  1  0  0  0  0
 50 70  1  0  0  0  0
 51 73  1  0  0  0  0
 52 75  1  0  0  0  0
 53 69  1  0  0  0  0
 54 68  1  0  0  0  0
 57 65  1  0  0  0  0
 58 66  1  0  0  0  0
 59 66  1  0  0  0  0
 60 66  1  0  0  0  0
 61 76  1  0  0  0  0
 62 63  1  0  0  0  0
 62 83  1  0  0  0  0
 63 84  1  0  0  0  0
 64 66  1  0  0  0  0
 64 74  1  0  0  0  0
 65 76  1  0  0  0  0
 67 68  1  0  0  0  0
M  CHG  1  76   1
M  ISO  4  38 100  62 101  75 100  83 101
M  END
> <Batch ID>
0161

> <Smiles>
CNC(C)C(=O)NC(C(=O)N1Cc2cc([101O:1][101CH2:1]COc3c(C)cc4c(c3C)C([100NH:0][100C:0](=O)N3CCCC(n5nc(-c6ccc(Oc7ccc(F)cc7F)cc6)c(C(N)=O)c5N)C3)CCC4)ccc2CC1C(=O)NC1CCCc2ccccc21)C(C)(C)C

> <Shape>
0.249

> <Color>
0.072

> <Negative vol penalty>
0.000

$$$$

  -OEChem-04052322123D

 94104  0     1  0  0  0  0  0999 V2000
  -12.4933  -25.6808   24.4289 C   0  0  0  0  0  0  0  0  0  0  0  0
  -13.6648  -26.4311   24.4338 C   0  0  0  0  0  0  0  0  0  0  0  0
  -25.1206  -13.8623   21.6919 C   0  0  0  0  0  0  0  0  0  0  0  0
  -25.4113  -12.6982   19.5949 C   0  0  0  0  0  0  0  0  0  0  0  0
  -12.5090  -24.3630   24.8842 C   0  0  0  0  0  0  0  0  0  0  0  0
  -14.8525  -25.8645   24.8950 C   0  0  0  0  0  0  0  0  0  0  0  0
  -18.7890  -26.8757   21.8741 C   0  0  0  0  0  0  0  0  0  0  0  0
  -24.1120  -12.9675   22.0489 C   0  0  0  0  0  0  0  0  0  0  0  0
  -24.4027  -11.8033   19.9519 C   0  0  0  0  0  0  0  0  0  0  0  0
  -19.3618  -28.1425   21.9773 C   0  0  0  0  0  0  0  0  0  0  0  0
  -22.1521   -8.9945   20.4659 C   0  0  0  0  0  0  0  0  0  0  0  0
  -22.3809   -7.6365   20.2448 C   0  0  0  0  0  0  0  0  0  0  0  0
  -21.1231  -27.2279   23.3486 C   0  0  0  0  0  0  0  0  0  0  0  0
  -31.1598  -26.4494   18.6366 C   0  0  0  0  0  0  0  0  0  0  0  0
  -24.3014   -7.7218   21.7082 C   0  0  0  0  0  0  0  0  0  0  0  0
  -25.7702  -13.7277   20.4649 C   0  0  0  0  0  0  0  0  0  0  0  0
  -28.1899  -14.5283   20.3549 C   0  0  0  0  0  0  0  0  0  0  0  0
  -13.6994  -23.7768   25.3422 C   0  0  0  0  0  0  0  0  0  0  0  0
  -19.3739  -25.7755   22.5175 C   0  0  0  0  0  0  0  0  0  0  0  0
  -14.8838  -24.5381   25.3581 C   0  0  0  0  0  0  0  0  0  0  0  0
  -20.5572  -25.9476   23.2499 C   0  0  0  0  0  0  0  0  0  0  0  0
  -29.9147  -25.9278   18.2858 C   0  0  0  0  0  0  0  0  0  0  0  0
  -28.7787  -26.7352   18.3440 C   0  0  0  0  0  0  0  0  0  0  0  0
  -28.8879  -28.0643   18.7532 C   0  0  0  0  0  0  0  0  0  0  0  0
  -30.1331  -28.5859   19.1042 C   0  0  0  0  0  0  0  0  0  0  0  0
  -23.7530  -11.9379   21.1790 C   0  0  0  0  0  0  0  0  0  0  0  0
  -20.5275  -28.3194   22.7170 C   0  0  0  0  0  0  0  0  0  0  0  0
  -22.9980   -9.7163   21.3080 C   0  0  0  0  0  0  0  0  0  0  0  0
  -31.2690  -27.7785   19.0459 C   0  0  0  0  0  0  0  0  0  0  0  0
  -23.4556   -7.0001   20.8660 C   0  0  0  0  0  0  0  0  0  0  0  0
  -24.0726   -9.0800   21.9292 C   0  0  0  0  0  0  0  0  0  0  0  0
  -26.8118  -14.6522   20.0953 C   0  0  0  0  0  0  0  0  0  0  0  0
  -28.7459  -15.6571   19.8043 C   0  0  0  0  0  0  0  0  0  0  0  0
  -28.9036  -13.4859   21.0330 C   0  0  0  0  0  0  0  0  0  0  0  0
  -18.4491  -23.7528   24.7884 C   0  0  0  0  0  0  0  0  0  0  0  0
  -21.2456  -22.2754   24.0678 C   0  0  0  0  0  0  0  0  0  0  0  0
  -24.3976  -22.5083   22.7803 C   0  0  0  0  0  0  0  0  0  0  0  0
  -28.6708  -21.1346   19.2177 C   0  0  0  0  0  0  0  0  0  0  0  0
  -13.6572  -22.3642   25.8689 C   0  0  0  0  0  0  0  0  0  0  0  0
  -18.7584  -24.4106   22.3743 C   0  0  0  0  0  0  0  0  0  0  0  0
  -21.2356  -24.7952   23.9428 C   0  0  0  0  0  0  0  0  0  0  0  0
  -15.0349  -21.7182   25.9908 C   0  0  0  0  0  0  0  0  0  0  0  0
  -26.7883  -19.1496   16.7420 C   0  0  0  0  0  0  0  0  0  0  0  0
  -16.0161  -22.6755   26.6598 C   0  0  0  0  0  0  0  0  0  0  0  0
  -26.6993  -17.8024   17.4527 C   0  0  0  0  0  0  0  0  0  0  0  0
  -25.7997  -30.6330   21.7193 C   0  0  0  0  0  0  0  0  0  0  0  0
  -24.6881  -29.2457   19.9346 C   0  0  0  0  0  0  0  0  0  0  0  0
  -30.8750  -23.5299   18.3129 C   0  0  0  0  0  0  0  0  0  0  0  0
  -26.7497  -20.3197   17.7241 C   0  0  0  0  0  0  0  0  0  0  0  0
  -27.6921  -18.8805   19.5087 C   0  0  0  0  0  0  0  0  0  0  0  0
  -24.5450  -31.4888   21.8264 C   0  0  0  0  0  0  0  0  0  0  0  0
  -23.4392  -30.1089   20.0508 C   0  0  0  0  0  0  0  0  0  0  0  0
  -29.8232  -24.5017   17.8528 C   0  0  1  0  0  0  0  0  0  0  0  0
  -16.1971  -23.9507   25.8276 C   0  0  1  0  0  0  0  0  0  0  0  0
  -19.1553  -23.4555   23.4958 C   0  0  1  0  0  0  0  0  0  0  0  0
  -25.9527  -30.0212   20.3219 C   0  0  0  0  0  0  0  0  0  0  0  0
  -27.7783  -17.6906   18.5406 C   0  0  1  0  0  0  0  0  0  0  0  0
  -29.4892  -23.4473   18.8812 C   0  0  1  0  0  0  0  0  0  0  0  0
  -27.4436  -26.1759   17.9658 C   0  0  0  0  0  0  0  0  0  0  0  0
  -30.2597  -30.0096   19.5445 C   0  0  0  0  0  0  0  0  0  0  0  0
  -26.4603  -21.1420   22.3614 C   0  0  0  0  0  0  0  0  0  0  0  0
  -21.9450  -22.4263   27.0340 C   0  0  0  0  0  0  0  0  0  0  0  0
  -24.3254  -21.9442   26.4259 C   0  0  0  0  0  0  0  0  0  0  0  0
  -22.5484  -20.2656   25.9285 C   0  0  0  0  0  0  0  0  0  0  0  0
  -24.2335  -22.9445   19.8576 C   0  0  0  0  0  0  0  0  0  0  0  0
  -32.8854  -28.1497   20.7504 C   0  0  0  0  0  0  0  0  0  0  0  0
  -27.6607  -28.9381   18.8172 C   0  0  0  0  0  0  0  0  0  0  0  0
  -27.1830  -29.1189   20.2571 C   0  0  0  0  0  0  0  0  0  0  0  0
  -22.0587  -31.4231   21.6576 C   0  0  0  0  0  0  0  0  0  0  0  0
  -20.9008  -30.4468   21.7218 C   0  0  0  0  0  0  0  0  0  1  0  0
  -22.6698  -22.3856   24.5563 C   0  0  1  0  0  0  0  0  0  0  0  0
  -25.1451  -21.6411   21.7835 C   0  0  2  0  0  0  0  0  0  0  0  0
  -22.8585  -21.7777   25.9748 C   0  0  0  0  0  0  0  0  0  0  0  0
  -26.5108  -15.7715   19.4316 N   0  0  0  0  0  0  0  0  0  0  0  0
  -27.7074  -16.3613   19.2696 N   0  0  0  0  0  0  0  0  0  0  0  0
  -20.5918  -23.4814   23.7784 N   0  0  0  0  0  0  0  0  0  0  0  0
  -27.7476  -20.1616   18.7937 N   0  0  0  0  0  0  0  0  0  0  0  0
  -30.0168  -16.1061   19.7304 N   0  0  0  0  0  0  0  0  0  0  0  0
  -28.1780  -12.3980   21.5372 N   0  0  0  0  0  0  0  0  0  0  0  0
  -17.0710  -23.6997   24.7017 N   0  0  0  0  0  0  0  0  0  0  0  0
  -23.5028  -21.7721   23.5276 N   0  0  0  0  0  0  0  0  0  0  0  0
  -28.6129  -22.3546   18.5536 N   0  0  0  0  0  0  0  0  0  0  0  0
  -23.3392  -30.6617   21.4518 N   0  3  0  0  0  0  0  0  0  0  0  0
  -25.4396  -22.4135   20.5435 N   0  3  0  0  0  0  0  0  0  0  0  0
  -30.1460  -13.5263   21.2016 O   0  0  0  0  0  0  0  0  0  0  0  0
  -19.1059  -24.0097   25.7905 O   0  0  0  0  0  0  0  0  0  0  0  0
  -20.7345  -21.1599   23.9408 O   0  0  0  0  0  0  0  0  0  0  0  0
  -24.5909  -23.7173   22.8879 O   0  0  0  0  0  0  0  0  0  0  0  0
  -29.4848  -20.9348   20.1260 O   0  0  0  0  0  0  0  0  0  0  0  0
  -22.7690  -11.0644   21.5271 O   0  0  0  0  0  0  0  0  0  0  0  0
  -32.4938  -28.2707   19.3846 O   0  0  0  0  0  0  0  0  0  0  0  0
  -21.0883  -29.5550   22.8199 O   0  0  0  0  0  0  0  0  0  1  0  0
  -23.6743   -5.6956   20.6548 F   0  0  0  0  0  0  0  0  0  0  0  0
  -24.8880   -9.7678   22.7403 F   0  0  0  0  0  0  0  0  0  0  0  0
  1  2  1  0  0  0  0
  1  5  2  0  0  0  0
  2  6  2  0  0  0  0
  3  8  2  0  0  0  0
  3 16  1  0  0  0  0
  4  9  1  0  0  0  0
  4 16  2  0  0  0  0
  5 18  1  0  0  0  0
  6 20  1  0  0  0  0
  7 10  2  0  0  0  0
  7 19  1  0  0  0  0
  8 26  1  0  0  0  0
  9 26  2  0  0  0  0
 10 27  1  0  0  0  0
 11 12  2  0  0  0  0
 11 28  1  0  0  0  0
 12 30  1  0  0  0  0
 13 21  1  0  0  0  0
 13 27  2  0  0  0  0
 14 22  2  0  0  0  0
 14 29  1  0  0  0  0
 15 30  2  0  0  0  0
 15 31  1  0  0  0  0
 16 32  1  0  0  0  0
 17 32  1  0  0  0  0
 17 33  2  0  0  0  0
 17 34  1  0  0  0  0
 18 20  2  0  0  0  0
 18 39  1  0  0  0  0
 19 21  2  0  0  0  0
 19 40  1  0  0  0  0
 20 54  1  0  0  0  0
 21 41  1  0  0  0  0
 22 23  1  0  0  0  0
 22 53  1  0  0  0  0
 23 24  2  0  0  0  0
 23 59  1  0  0  0  0
 24 25  1  0  0  0  0
 24 67  1  0  0  0  0
 25 29  2  0  0  0  0
 25 60  1  0  0  0  0
 26 90  1  0  0  0  0
 27 92  1  0  0  0  0
 28 31  2  0  0  0  0
 28 90  1  0  0  0  0
 29 91  1  0  0  0  0
 30 93  1  0  0  0  0
 31 94  1  0  0  0  0
 32 74  2  0  0  0  0
 33 75  1  0  0  0  0
 33 78  1  0  0  0  0
 34 79  1  0  0  0  0
 34 85  2  0  0  0  0
 35 55  1  0  0  0  0
 35 80  1  0  0  0  0
 35 86  2  0  0  0  0
 36 71  1  0  0  0  0
 36 76  1  0  0  0  0
 36 87  2  0  0  0  0
 37 72  1  0  0  0  0
 37 81  1  0  0  0  0
 37 88  2  0  0  0  0
 38 77  1  0  0  0  0
 38 82  1  0  0  0  0
 38 89  2  0  0  0  0
 39 42  1  0  0  0  0
 40 55  1  0  0  0  0
 41 76  1  0  0  0  0
 42 44  1  0  0  0  0
 43 45  1  0  0  0  0
 43 49  1  0  0  0  0
 44 54  1  0  0  0  0
 45 57  1  0  0  0  0
 46 51  1  0  0  0  0
 46 56  1  0  0  0  0
 47 52  1  0  0  0  0
 47 56  1  0  0  0  0
 48 53  1  0  0  0  0
 48 58  1  0  0  0  0
 49 77  1  0  0  0  0
 50 57  1  0  0  0  0
 50 77  1  0  0  0  0
 51 83  1  0  0  0  0
 52 83  1  0  0  0  0
 53 58  1  0  0  0  0
 54 80  1  0  0  0  0
 55 76  1  0  0  0  0
 56 68  1  0  0  0  0
 57 75  1  0  0  0  0
 58 82  1  0  0  0  0
 61 72  1  0  0  0  0
 62 73  1  0  0  0  0
 63 73  1  0  0  0  0
 64 73  1  0  0  0  0
 65 84  1  0  0  0  0
 66 91  1  0  0  0  0
 67 68  1  0  0  0  0
 69 70  1  0  0  0  0
 69 83  1  0  0  0  0
 70 92  1  0  0  0  0
 71 73  1  0  0  0  0
 71 81  1  0  0  0  0
 72 84  1  0  0  0  0
 74 75  1  0  0  0  0
M  CHG  2  83   1  84   1
M  ISO  4  38 100  70 101  82 100  92 101
M  END
> <Batch ID>
0161

> <Smiles>
CNC(C)C(=O)NC(C(=O)N1Cc2cc([101O:1][101CH2:1]CN3CCC(CCc4c(C)c(OC)cc(C5CC5[100NH:0][100C:0](=O)N5CCCC(n6nc(-c7ccc(Oc8ccc(F)cc8F)cc7)c(C(N)=O)c6N)C5)c4C)CC3)ccc2CC1C(=O)NC1CCCc2ccccc21)C(C)(C)C

> <Shape>
0.265

> <Color>
0.065

> <Negative vol penalty>
0.000

$$$$

  -OEChem-04052322123D

 87 96  0     1  0  0  0  0  0999 V2000
  -16.8684  -28.7357   23.7234 C   0  0  0  0  0  0  0  0  0  0  0  0
  -17.4095  -28.6877   22.4426 C   0  0  0  0  0  0  0  0  0  0  0  0
  -28.4574  -20.3099   19.1649 C   0  0  0  0  0  0  0  0  0  0  0  0
  -30.5269  -21.0360   20.1783 C   0  0  0  0  0  0  0  0  0  0  0  0
  -17.4920  -29.4927   24.7144 C   0  0  0  0  0  0  0  0  0  0  0  0
  -18.5739  -29.3976   22.1518 C   0  0  0  0  0  0  0  0  0  0  0  0
  -24.4563  -29.0464   18.0786 C   0  0  0  0  0  0  0  0  0  0  0  0
  -28.8497  -18.9800   19.3167 C   0  0  0  0  0  0  0  0  0  0  0  0
  -30.9192  -19.7060   20.3302 C   0  0  0  0  0  0  0  0  0  0  0  0
  -25.1747  -29.8062   17.1564 C   0  0  0  0  0  0  0  0  0  0  0  0
  -30.2675  -17.1434   22.4346 C   0  0  0  0  0  0  0  0  0  0  0  0
  -30.8189  -16.7678   23.6595 C   0  0  0  0  0  0  0  0  0  0  0  0
  -26.2093  -31.0165   18.9686 C   0  0  0  0  0  0  0  0  0  0  0  0
  -32.8597  -16.1181   22.5415 C   0  0  0  0  0  0  0  0  0  0  0  0
  -29.2961  -21.3379   19.5957 C   0  0  0  0  0  0  0  0  0  0  0  0
  -28.1674  -23.4952   20.3571 C   0  0  0  0  0  0  0  0  0  0  0  0
  -18.6700  -30.2044   24.4382 C   0  0  0  0  0  0  0  0  0  0  0  0
  -24.6010  -29.2738   19.4547 C   0  0  0  0  0  0  0  0  0  0  0  0
  -19.2131  -30.1659   23.1397 C   0  0  0  0  0  0  0  0  0  0  0  0
  -25.4934  -30.2565   19.9062 C   0  0  0  0  0  0  0  0  0  0  0  0
  -33.1956  -30.8862   17.7028 C   0  0  0  0  0  0  0  0  0  0  0  0
  -32.4594  -29.8193   17.1757 C   0  0  0  0  0  0  0  0  0  0  0  0
  -34.4771  -30.6903   18.1923 C   0  0  0  0  0  0  0  0  0  0  0  0
  -35.0117  -29.4004   18.1587 C   0  0  0  0  0  0  0  0  0  0  0  0
  -34.2697  -28.3317   17.6327 C   0  0  0  0  0  0  0  0  0  0  0  0
  -32.9831  -28.5383   17.1318 C   0  0  0  0  0  0  0  0  0  0  0  0
  -30.0805  -18.6780   19.8994 C   0  0  0  0  0  0  0  0  0  0  0  0
  -26.0492  -30.7933   17.6012 C   0  0  0  0  0  0  0  0  0  0  0  0
  -31.0121  -17.0063   21.2631 C   0  0  0  0  0  0  0  0  0  0  0  0
  -32.1151  -16.2552   23.7130 C   0  0  0  0  0  0  0  0  0  0  0  0
  -32.3082  -16.4937   21.3166 C   0  0  0  0  0  0  0  0  0  0  0  0
  -28.8917  -22.7119   19.4386 C   0  0  0  0  0  0  0  0  0  0  0  0
  -28.0410  -24.7167   19.7420 C   0  0  0  0  0  0  0  0  0  0  0  0
  -27.6547  -23.1496   21.6507 C   0  0  0  0  0  0  0  0  0  0  0  0
  -22.6541  -30.1919   21.7935 C   0  0  0  0  0  0  0  0  0  0  0  0
  -25.2327  -29.5645   23.6588 C   0  0  0  0  0  0  0  0  0  0  0  0
  -28.6219  -29.2495   23.9058 C   0  0  0  0  0  0  0  0  0  0  0  0
  -31.2645  -27.5448   15.5807 C   0  0  0  0  0  0  0  0  0  0  0  0
  -19.2820  -31.0468   25.5293 C   0  0  0  0  0  0  0  0  0  0  0  0
  -23.8389  -28.4276   20.4373 C   0  0  0  0  0  0  0  0  0  0  0  0
  -25.7001  -30.5262   21.3736 C   0  0  0  0  0  0  0  0  0  0  0  0
  -31.1293  -30.2825   16.6855 C   0  0  0  0  0  0  0  0  0  0  0  0
  -20.7199  -31.4690   25.2388 C   0  0  0  0  0  0  0  0  0  0  0  0
  -27.8071  -26.7146   15.3959 C   0  0  0  0  0  0  0  0  0  0  0  0
  -20.8448  -31.9914   23.8111 C   0  0  0  0  0  0  0  0  0  0  0  0
  -27.6257  -25.6697   16.4993 C   0  0  0  0  0  0  0  0  0  0  0  0
  -29.1569  -26.5709   14.6951 C   0  0  0  0  0  0  0  0  0  0  0  0
  -30.1409  -25.5154   16.6918 C   0  0  0  0  0  0  0  0  0  0  0  0
  -20.4886  -30.9023   22.7920 C   0  0  1  0  0  0  0  0  0  0  0  0
  -32.4140  -32.1628   17.6044 C   0  0  2  0  0  0  0  0  0  0  0  0
  -23.6787  -29.0930   21.8008 C   0  0  1  0  0  0  0  0  0  0  0  0
  -28.8229  -25.6614   17.4699 C   0  0  2  0  0  0  0  0  0  0  0  0
  -35.2930  -31.8265   18.7100 C   0  0  0  0  0  0  0  0  0  0  0  0
  -36.3944  -29.1563   18.6799 C   0  0  0  0  0  0  0  0  0  0  0  0
  -34.8681  -26.9587   17.6046 C   0  0  0  0  0  0  0  0  0  0  0  0
  -32.2818  -32.9543   18.9009 C   0  0  0  0  0  0  0  0  0  0  0  0
  -30.4396  -28.7675   25.5675 C   0  0  0  0  0  0  0  0  0  0  0  0
  -24.9467  -32.3853   24.7863 C   0  0  0  0  0  0  0  0  0  0  0  0
  -27.2741  -32.1861   25.6872 C   0  0  0  0  0  0  0  0  0  0  0  0
  -25.4926  -30.6331   26.4852 C   0  0  0  0  0  0  0  0  0  0  0  0
  -29.4933  -26.8381   22.4277 C   0  0  0  0  0  0  0  0  0  0  0  0
  -28.9228  -32.1513   15.8910 C   0  0  0  0  0  0  0  0  0  0  0  0
  -30.3276  -32.6418   16.2075 C   0  0  0  0  0  0  0  0  0  0  0  0
  -28.0283  -32.0202   17.1176 C   0  0  0  0  0  0  0  0  0  1  0  0
  -26.4177  -30.3617   24.1480 C   0  0  1  0  0  0  0  0  0  0  0  0
  -29.4905  -28.1762   24.5368 C   0  0  2  0  0  0  0  0  0  0  0  0
  -26.0276  -31.3881   25.2489 C   0  0  0  0  0  0  0  0  0  0  0  0
  -29.2035  -23.3797   18.3247 N   0  0  0  0  0  0  0  0  0  0  0  0
  -28.6724  -24.5955   18.5392 N   0  0  0  0  0  0  0  0  0  0  0  0
  -24.9274  -29.6767   22.2950 N   0  0  0  0  0  0  0  0  0  0  0  0
  -30.2438  -26.5753   15.6766 N   0  0  0  0  0  0  0  0  0  0  0  0
  -27.4524  -25.8720   20.1180 N   0  0  0  0  0  0  0  0  0  0  0  0
  -27.8740  -21.8514   22.1312 N   0  0  0  0  0  0  0  0  0  0  0  0
  -32.2262  -27.4711   16.5879 N   0  0  0  0  0  0  0  0  0  0  0  0
  -21.5865  -29.9713   22.6427 N   0  0  0  0  0  0  0  0  0  0  0  0
  -27.4199  -29.3879   24.5670 N   0  0  0  0  0  0  0  0  0  0  0  0
  -30.9927  -31.7335   17.1709 N   0  3  1  0  0  0  0  0  0  0  0  0
  -30.3004  -27.4857   23.4936 N   0  3  0  0  0  0  0  0  0  0  0  0
  -27.0067  -23.9627   22.3524 O   0  0  0  0  0  0  0  0  0  0  0  0
  -22.8204  -31.1684   21.0721 O   0  0  0  0  0  0  0  0  0  0  0  0
  -24.6056  -28.8623   24.4558 O   0  0  0  0  0  0  0  0  0  0  0  0
  -28.9760  -29.9026   22.9267 O   0  0  0  0  0  0  0  0  0  0  0  0
  -31.2693  -28.3959   14.6877 O   0  0  0  0  0  0  0  0  0  0  0  0
  -30.4635  -17.3804   20.0479 O   0  0  0  0  0  0  0  0  0  0  0  0
  -26.7512  -31.5368   16.7033 O   0  0  0  0  0  0  0  0  0  1  0  0
  -32.6451  -15.8959   24.8895 F   0  0  0  0  0  0  0  0  0  0  0  0
  -33.0289  -16.3608   20.1946 F   0  0  0  0  0  0  0  0  0  0  0  0
  1  2  1  0  0  0  0
  1  5  2  0  0  0  0
  2  6  2  0  0  0  0
  3  8  2  0  0  0  0
  3 15  1  0  0  0  0
  4  9  1  0  0  0  0
  4 15  2  0  0  0  0
  5 17  1  0  0  0  0
  6 19  1  0  0  0  0
  7 10  2  0  0  0  0
  7 18  1  0  0  0  0
  8 27  1  0  0  0  0
  9 27  2  0  0  0  0
 10 28  1  0  0  0  0
 11 12  2  0  0  0  0
 11 29  1  0  0  0  0
 12 30  1  0  0  0  0
 13 20  1  0  0  0  0
 13 28  2  0  0  0  0
 14 30  2  0  0  0  0
 14 31  1  0  0  0  0
 15 32  1  0  0  0  0
 16 32  1  0  0  0  0
 16 33  2  0  0  0  0
 16 34  1  0  0  0  0
 17 19  2  0  0  0  0
 17 39  1  0  0  0  0
 18 20  2  0  0  0  0
 18 40  1  0  0  0  0
 19 49  1  0  0  0  0
 20 41  1  0  0  0  0
 21 22  2  0  0  0  0
 21 23  1  0  0  0  0
 21 50  1  0  0  0  0
 22 26  1  0  0  0  0
 22 42  1  0  0  0  0
 23 24  2  0  0  0  0
 23 53  1  0  0  0  0
 24 25  1  0  0  0  0
 24 54  1  0  0  0  0
 25 26  2  0  0  0  0
 25 55  1  0  0  0  0
 26 74  1  0  0  0  0
 27 84  1  0  0  0  0
 28 85  1  0  0  0  0
 29 31  2  0  0  0  0
 29 84  1  0  0  0  0
 30 86  1  0  0  0  0
 31 87  1  0  0  0  0
 32 68  2  0  0  0  0
 33 69  1  0  0  0  0
 33 72  1  0  0  0  0
 34 73  1  0  0  0  0
 34 79  2  0  0  0  0
 35 51  1  0  0  0  0
 35 75  1  0  0  0  0
 35 80  2  0  0  0  0
 36 65  1  0  0  0  0
 36 70  1  0  0  0  0
 36 81  2  0  0  0  0
 37 66  1  0  0  0  0
 37 76  1  0  0  0  0
 37 82  2  0  0  0  0
 38 71  1  0  0  0  0
 38 74  1  0  0  0  0
 38 83  2  0  0  0  0
 39 43  1  0  0  0  0
 40 51  1  0  0  0  0
 41 70  1  0  0  0  0
 42 77  1  0  0  0  0
 43 45  1  0  0  0  0
 44 46  1  0  0  0  0
 44 47  1  0  0  0  0
 45 49  1  0  0  0  0
 46 52  1  0  0  0  0
 47 71  1  0  0  0  0
 48 52  1  0  0  0  0
 48 71  1  0  0  0  0
 49 75  1  0  0  0  0
 50 56  1  0  0  0  0
 50 77  1  0  0  0  0
 51 70  1  0  0  0  0
 52 69  1  0  0  0  0
 57 66  1  0  0  0  0
 58 67  1  0  0  0  0
 59 67  1  0  0  0  0
 60 67  1  0  0  0  0
 61 78  1  0  0  0  0
 62 63  1  0  0  0  0
 62 64  1  0  0  0  0
 63 77  1  0  0  0  0
 64 85  1  0  0  0  0
 65 67  1  0  0  0  0
 65 76  1  0  0  0  0
 66 78  1  0  0  0  0
 68 69  1  0  0  0  0
M  CHG  2  77   1  78   1
M  ISO  4  38 100  64 101  74 100  85 101
M  END
> <Batch ID>
0161

> <Smiles>
CNC(C)C(=O)NC(C(=O)N1Cc2cc([101O:1][101CH2:1]CCN3Cc4c([100NH:0][100C:0](=O)N5CCCC(n6nc(-c7ccc(Oc8ccc(F)cc8F)cc7)c(C(N)=O)c6N)C5)c(C)c(C)c(C)c4C3C)ccc2CC1C(=O)NC1CCCc2ccccc21)C(C)(C)C

> <Shape>
0.220

> <Color>
0.089

> <Negative vol penalty>
0.000

$$$$

  -OEChem-04052322123D

 91101  0     1  0  0  0  0  0999 V2000
  -20.5790   -8.7066   19.3091 C   0  0  0  0  0  0  0  0  0  0  0  0
  -20.4247  -10.0841   19.4275 C   0  0  0  0  0  0  0  0  0  0  0  0
  -27.7804  -28.6237   19.8840 C   0  0  0  0  0  0  0  0  0  0  0  0
  -26.4932  -27.1234   21.2730 C   0  0  0  0  0  0  0  0  0  0  0  0
  -21.7106   -8.0852   19.8354 C   0  0  0  0  0  0  0  0  0  0  0  0
  -21.4017  -10.8409   20.0734 C   0  0  0  0  0  0  0  0  0  0  0  0
  -23.1566  -16.5420   18.6864 C   0  0  0  0  0  0  0  0  0  0  0  0
  -28.7721  -27.6517   19.7531 C   0  0  0  0  0  0  0  0  0  0  0  0
  -27.4850  -26.1514   21.1421 C   0  0  0  0  0  0  0  0  0  0  0  0
  -22.8201  -17.7839   19.2234 C   0  0  0  0  0  0  0  0  0  0  0  0
  -28.4634  -23.8891   18.8300 C   0  0  0  0  0  0  0  0  0  0  0  0
  -28.0564  -22.5825   18.5605 C   0  0  0  0  0  0  0  0  0  0  0  0
  -21.0578  -26.2226   20.4627 C   0  0  0  0  0  0  0  0  0  0  0  0
  -22.3203  -25.5480   22.8492 C   0  0  0  0  0  0  0  0  0  0  0  0
  -24.7904  -17.7100   20.6132 C   0  0  0  0  0  0  0  0  0  0  0  0
  -29.1012  -21.8351   20.6067 C   0  0  0  0  0  0  0  0  0  0  0  0
  -26.6409  -28.3596   20.6440 C   0  0  0  0  0  0  0  0  0  0  0  0
  -24.4967  -29.5537   19.9482 C   0  0  0  0  0  0  0  0  0  0  0  0
  -22.7066   -8.8360   20.4796 C   0  0  0  0  0  0  0  0  0  0  0  0
  -24.3087  -15.8688   19.1174 C   0  0  0  0  0  0  0  0  0  0  0  0
  -22.5471  -10.2288   20.6100 C   0  0  0  0  0  0  0  0  0  0  0  0
  -21.8074  -25.0383   20.5349 C   0  0  0  0  0  0  0  0  0  0  0  0
  -22.4413  -24.6928   21.7418 C   0  0  0  0  0  0  0  0  0  0  0  0
  -25.1407  -16.4610   20.0782 C   0  0  0  0  0  0  0  0  0  0  0  0
  -20.9504  -27.0647   21.5686 C   0  0  0  0  0  0  0  0  0  0  0  0
  -21.5816  -26.7275   22.7617 C   0  0  0  0  0  0  0  0  0  0  0  0
  -28.6245  -26.4155   20.3821 C   0  0  0  0  0  0  0  0  0  0  0  0
  -23.6354  -18.3667   20.1890 C   0  0  0  0  0  0  0  0  0  0  0  0
  -29.1893  -24.1688   19.9878 C   0  0  0  0  0  0  0  0  0  0  0  0
  -28.3753  -21.5555   19.4489 C   0  0  0  0  0  0  0  0  0  0  0  0
  -29.5082  -23.1418   20.8762 C   0  0  0  0  0  0  0  0  0  0  0  0
  -25.6163  -29.3635   20.7801 C   0  0  0  0  0  0  0  0  0  0  0  0
  -23.8384  -30.6263   20.4983 C   0  0  0  0  0  0  0  0  0  0  0  0
  -24.0881  -28.8257   18.7825 C   0  0  0  0  0  0  0  0  0  0  0  0
  -24.8774  -13.0960   20.5637 C   0  0  0  0  0  0  0  0  0  0  0  0
  -27.9745  -13.8930   20.0206 C   0  0  0  0  0  0  0  0  0  0  0  0
  -30.2785  -16.3464   19.4553 C   0  0  0  0  0  0  0  0  0  0  0  0
  -23.6578  -30.0150   25.5340 C   0  0  0  0  0  0  0  0  0  0  0  0
  -23.8896   -8.1139   21.0743 C   0  0  0  0  0  0  0  0  0  0  0  0
  -24.6720  -14.5421   18.5088 C   0  0  0  0  0  0  0  0  0  0  0  0
  -21.8527  -24.1284   19.3346 C   0  0  0  0  0  0  0  0  0  0  0  0
  -26.3993  -15.7886   20.5600 C   0  0  0  0  0  0  0  0  0  0  0  0
  -25.0580   -9.0357   21.4140 C   0  0  0  0  0  0  0  0  0  0  0  0
  -26.2373  -32.0833   24.1793 C   0  0  0  0  0  0  0  0  0  0  0  0
  -20.1978  -30.1118   26.6152 C   0  0  0  0  0  0  0  0  0  0  0  0
  -24.5629  -10.2750   22.1528 C   0  0  0  0  0  0  0  0  0  0  0  0
  -25.5772  -32.8230   23.0211 C   0  0  0  0  0  0  0  0  0  0  0  0
  -20.3205  -28.6192   26.3433 C   0  0  0  0  0  0  0  0  0  0  0  0
  -25.2521  -31.8877   25.3213 C   0  0  0  0  0  0  0  0  0  0  0  0
  -21.2118  -30.7095   25.6521 C   0  0  0  0  0  0  0  0  0  0  0  0
  -23.3469  -31.7835   23.7259 C   0  0  0  0  0  0  0  0  0  0  0  0
  -22.9856  -23.1126   19.3765 C   0  0  0  0  0  0  0  0  0  0  0  0
  -23.5968  -11.0872   21.2819 C   0  0  1  0  0  0  0  0  0  0  0  0
  -23.2608  -23.4260   21.8632 C   0  0  2  0  0  0  0  0  0  0  0  0
  -25.5944  -13.7107   19.3951 C   0  0  1  0  0  0  0  0  0  0  0  0
  -24.2826  -32.1423   22.5485 C   0  0  2  0  0  0  0  0  0  0  0  0
  -21.8213  -28.4269   26.1081 C   0  0  1  0  0  0  0  0  0  0  0  0
  -20.1450  -28.3174   21.4467 C   0  0  0  0  0  0  0  0  0  0  0  0
  -24.7609  -23.7311   21.9528 C   0  0  0  0  0  0  0  0  0  0  0  0
  -32.7366  -16.6938   19.0888 C   0  0  0  0  0  0  0  0  0  0  0  0
  -28.4768  -13.4640   22.9994 C   0  0  0  0  0  0  0  0  0  0  0  0
  -30.6314  -14.7135   22.7450 C   0  0  0  0  0  0  0  0  0  0  0  0
  -30.2738  -12.5812   21.5007 C   0  0  0  0  0  0  0  0  0  0  0  0
  -29.8317  -17.5122   16.7719 C   0  0  0  0  0  0  0  0  0  0  0  0
  -22.1037  -27.2885   25.1362 C   0  0  0  0  0  0  0  0  0  0  0  0
  -21.8807  -21.5016   20.9693 C   0  0  0  0  0  0  0  0  0  0  0  0
  -22.1181  -20.1975   20.2338 C   0  0  0  0  0  0  0  0  0  1  0  0
  -29.0298  -14.6607   20.7795 C   0  0  1  0  0  0  0  0  0  0  0  0
  -31.3867  -16.4695   18.4252 C   0  0  2  0  0  0  0  0  0  0  0  0
  -29.5783  -13.8669   21.9987 C   0  0  0  0  0  0  0  0  0  0  0  0
  -25.6697  -30.2448   21.7823 N   0  0  0  0  0  0  0  0  0  0  0  0
  -24.5753  -30.9992   21.5837 N   0  0  0  0  0  0  0  0  0  0  0  0
  -26.7084  -14.4898   19.9394 N   0  0  0  0  0  0  0  0  0  0  0  0
  -24.0376  -31.1988   24.8843 N   0  0  0  0  0  0  0  0  0  0  0  0
  -22.2937  -29.7244   25.6101 N   0  0  0  0  0  0  0  0  0  0  0  0
  -22.7070  -31.2776   20.1545 N   0  0  0  0  0  0  0  0  0  0  0  0
  -24.8796  -27.7513   18.3542 N   0  0  0  0  0  0  0  0  0  0  0  0
  -21.4876  -27.5582   23.8794 N   0  0  0  0  0  0  0  0  0  0  0  0
  -24.3282  -11.8562   20.2979 N   0  0  0  0  0  0  0  0  0  0  0  0
  -30.0469  -15.0321   19.8017 N   0  0  0  0  0  0  0  0  0  0  0  0
  -23.0418  -22.4314   20.7214 N   0  3  1  0  0  0  0  0  0  0  0  0
  -31.1176  -17.6136   17.5089 N   0  3  0  0  0  0  0  0  0  0  0  0
  -23.0606  -29.1296   18.1302 O   0  0  0  0  0  0  0  0  0  0  0  0
  -24.8276  -13.7010   21.6282 O   0  0  0  0  0  0  0  0  0  0  0  0
  -28.2650  -12.8073   19.5122 O   0  0  0  0  0  0  0  0  0  0  0  0
  -29.6807  -17.3193   19.9100 O   0  0  0  0  0  0  0  0  0  0  0  0
  -24.4990  -29.2558   26.0330 O   0  0  0  0  0  0  0  0  0  0  0  0
  -29.5919  -25.4667   20.2544 O   0  0  0  0  0  0  0  0  0  0  0  0
  -23.3066  -19.5872   20.7191 O   0  0  0  0  0  0  0  0  0  1  0  0
  -27.9831  -20.3010   19.1907 F   0  0  0  0  0  0  0  0  0  0  0  0
  -30.2043  -23.4045   21.9907 F   0  0  0  0  0  0  0  0  0  0  0  0
  1  2  1  0  0  0  0
  1  5  2  0  0  0  0
  2  6  2  0  0  0  0
  3  8  2  0  0  0  0
  3 17  1  0  0  0  0
  4  9  1  0  0  0  0
  4 17  2  0  0  0  0
  5 19  1  0  0  0  0
  6 21  1  0  0  0  0
  7 10  2  0  0  0  0
  7 20  1  0  0  0  0
  8 27  1  0  0  0  0
  9 27  2  0  0  0  0
 10 28  1  0  0  0  0
 11 12  2  0  0  0  0
 11 29  1  0  0  0  0
 12 30  1  0  0  0  0
 13 22  1  0  0  0  0
 13 25  2  0  0  0  0
 14 23  1  0  0  0  0
 14 26  2  0  0  0  0
 15 24  1  0  0  0  0
 15 28  2  0  0  0  0
 16 30  2  0  0  0  0
 16 31  1  0  0  0  0
 17 32  1  0  0  0  0
 18 32  1  0  0  0  0
 18 33  2  0  0  0  0
 18 34  1  0  0  0  0
 19 21  2  0  0  0  0
 19 39  1  0  0  0  0
 20 24  2  0  0  0  0
 20 40  1  0  0  0  0
 21 53  1  0  0  0  0
 22 23  2  0  0  0  0
 22 41  1  0  0  0  0
 23 54  1  0  0  0  0
 24 42  1  0  0  0  0
 25 26  1  0  0  0  0
 25 58  1  0  0  0  0
 26 78  1  0  0  0  0
 27 88  1  0  0  0  0
 28 89  1  0  0  0  0
 29 31  2  0  0  0  0
 29 88  1  0  0  0  0
 30 90  1  0  0  0  0
 31 91  1  0  0  0  0
 32 71  2  0  0  0  0
 33 72  1  0  0  0  0
 33 76  1  0  0  0  0
 34 77  1  0  0  0  0
 34 83  2  0  0  0  0
 35 55  1  0  0  0  0
 35 79  1  0  0  0  0
 35 84  2  0  0  0  0
 36 68  1  0  0  0  0
 36 73  1  0  0  0  0
 36 85  2  0  0  0  0
 37 69  1  0  0  0  0
 37 80  1  0  0  0  0
 37 86  2  0  0  0  0
 38 74  1  0  0  0  0
 38 75  1  0  0  0  0
 38 87  2  0  0  0  0
 39 43  1  0  0  0  0
 40 55  1  0  0  0  0
 41 52  1  0  0  0  0
 42 73  1  0  0  0  0
 43 46  1  0  0  0  0
 44 47  1  0  0  0  0
 44 49  1  0  0  0  0
 45 48  1  0  0  0  0
 45 50  1  0  0  0  0
 46 53  1  0  0  0  0
 47 56  1  0  0  0  0
 48 57  1  0  0  0  0
 49 74  1  0  0  0  0
 50 75  1  0  0  0  0
 51 56  1  0  0  0  0
 51 74  1  0  0  0  0
 52 81  1  0  0  0  0
 53 79  1  0  0  0  0
 54 59  1  0  0  0  0
 54 81  1  0  0  0  0
 55 73  1  0  0  0  0
 56 72  1  0  0  0  0
 57 65  1  0  0  0  0
 57 75  1  0  0  0  0
 60 69  1  0  0  0  0
 61 70  1  0  0  0  0
 62 70  1  0  0  0  0
 63 70  1  0  0  0  0
 64 82  1  0  0  0  0
 65 78  1  0  0  0  0
 66 67  1  0  0  0  0
 66 81  1  0  0  0  0
 67 89  1  0  0  0  0
 68 70  1  0  0  0  0
 68 80  1  0  0  0  0
 69 82  1  0  0  0  0
 71 72  1  0  0  0  0
M  CHG  2  81   1  82   1
M  ISO  4  38 100  67 101  75 100  89 101
M  END
> <Batch ID>
0161

> <Smiles>
CNC(C)C(=O)NC(C(=O)N1Cc2cc([101O:1][101CH2:1]CN3CCc4cc(C)c(NCC5CCC[100N:0]5[100C:0](=O)N5CCCC(n6nc(-c7ccc(Oc8ccc(F)cc8F)cc7)c(C(N)=O)c6N)C5)cc4C3C)ccc2CC1C(=O)NC1CCCc2ccccc21)C(C)(C)C

> <Shape>
0.298

> <Color>
0.044

> <Negative vol penalty>
0.000

$$$$

  -OEChem-04052322123D

 89 99  0     1  0  0  0  0  0999 V2000
  -27.2945  -32.0947   27.6964 C   0  0  0  0  0  0  0  0  0  0  0  0
  -27.6028  -31.1255   26.7471 C   0  0  0  0  0  0  0  0  0  0  0  0
  -23.2412  -10.4586   21.7769 C   0  0  0  0  0  0  0  0  0  0  0  0
  -24.3126   -8.4407   20.9912 C   0  0  0  0  0  0  0  0  0  0  0  0
  -25.9622  -32.3965   27.9754 C   0  0  0  0  0  0  0  0  0  0  0  0
  -26.5789  -30.4569   26.0770 C   0  0  0  0  0  0  0  0  0  0  0  0
  -27.4370  -30.0784   21.1005 C   0  0  0  0  0  0  0  0  0  0  0  0
  -21.9912   -9.8895   21.5341 C   0  0  0  0  0  0  0  0  0  0  0  0
  -23.0625   -7.8715   20.7484 C   0  0  0  0  0  0  0  0  0  0  0  0
  -28.3390  -29.1010   20.6825 C   0  0  0  0  0  0  0  0  0  0  0  0
  -20.1489   -5.7526   20.2600 C   0  0  0  0  0  0  0  0  0  0  0  0
  -19.9434   -4.4363   20.6734 C   0  0  0  0  0  0  0  0  0  0  0  0
  -30.8635  -20.7927   21.3717 C   0  0  0  0  0  0  0  0  0  0  0  0
  -26.4960  -27.6579   20.0995 C   0  0  0  0  0  0  0  0  0  0  0  0
  -20.3985   -5.0823   22.9565 C   0  0  0  0  0  0  0  0  0  0  0  0
  -24.4020   -9.7342   21.5054 C   0  0  0  0  0  0  0  0  0  0  0  0
  -26.4417  -10.2551   22.9462 C   0  0  0  0  0  0  0  0  0  0  0  0
  -24.9216  -31.7381   27.3015 C   0  0  0  0  0  0  0  0  0  0  0  0
  -26.0555  -29.8483   21.0313 C   0  0  0  0  0  0  0  0  0  0  0  0
  -25.2314  -30.7493   26.3483 C   0  0  0  0  0  0  0  0  0  0  0  0
  -30.0143  -20.3030   22.3640 C   0  0  0  0  0  0  0  0  0  0  0  0
  -25.5784  -28.6350   20.5149 C   0  0  0  0  0  0  0  0  0  0  0  0
  -30.2435  -23.0533   21.9570 C   0  0  0  0  0  0  0  0  0  0  0  0
  -30.9782  -22.1680   21.1683 C   0  0  0  0  0  0  0  0  0  0  0  0
  -29.2796  -21.1883   23.1527 C   0  0  0  0  0  0  0  0  0  0  0  0
  -29.3942  -22.5635   22.9492 C   0  0  0  0  0  0  0  0  0  0  0  0
  -21.9018   -8.5959   21.0198 C   0  0  0  0  0  0  0  0  0  0  0  0
  -27.8686  -27.8894   20.1846 C   0  0  0  0  0  0  0  0  0  0  0  0
  -20.4792   -6.7337   21.1948 C   0  0  0  0  0  0  0  0  0  0  0  0
  -20.0681   -4.1012   22.0216 C   0  0  0  0  0  0  0  0  0  0  0  0
  -20.6040   -6.3986   22.5431 C   0  0  0  0  0  0  0  0  0  0  0  0
  -25.6936  -10.3218   21.7556 C   0  0  0  0  0  0  0  0  0  0  0  0
  -27.5845  -10.9668   22.6741 C   0  0  0  0  0  0  0  0  0  0  0  0
  -26.1314   -9.6077   24.1873 C   0  0  0  0  0  0  0  0  0  0  0  0
  -23.6987  -29.6877   23.1582 C   0  0  0  0  0  0  0  0  0  0  0  0
  -21.8444  -29.4626   20.5062 C   0  0  0  0  0  0  0  0  0  0  0  0
  -21.5985  -28.6345   17.2046 C   0  0  0  0  0  0  0  0  0  0  0  0
  -30.2511  -15.2518   20.5413 C   0  0  0  0  0  0  0  0  0  0  0  0
  -23.4963  -32.0648   27.6711 C   0  0  0  0  0  0  0  0  0  0  0  0
  -25.0952  -30.9232   21.4613 C   0  0  0  0  0  0  0  0  0  0  0  0
  -24.1046  -28.3465   20.4009 C   0  0  0  0  0  0  0  0  0  0  0  0
  -22.4745  -31.5766   26.6475 C   0  0  0  0  0  0  0  0  0  0  0  0
  -29.4047  -12.7488   18.3126 C   0  0  0  0  0  0  0  0  0  0  0  0
  -22.7701  -30.1357   26.2435 C   0  0  0  0  0  0  0  0  0  0  0  0
  -28.4239  -11.8790   19.0985 C   0  0  0  0  0  0  0  0  0  0  0  0
  -28.7582  -18.1900   21.7480 C   0  0  0  0  0  0  0  0  0  0  0  0
  -31.2358  -18.0849   22.2581 C   0  0  0  0  0  0  0  0  0  0  0  0
  -30.4975  -25.1523   20.2693 C   0  0  0  0  0  0  0  0  0  0  0  0
  -29.1039  -25.5039   21.8348 C   0  0  0  0  0  0  0  0  0  0  0  0
  -29.1509  -14.2291   18.5729 C   0  0  0  0  0  0  0  0  0  0  0  0
  -28.6785  -16.6717   21.9311 C   0  0  0  0  0  0  0  0  0  0  0  0
  -31.0932  -16.5784   22.4543 C   0  0  0  0  0  0  0  0  0  0  0  0
  -28.2307  -13.7443   20.8171 C   0  0  0  0  0  0  0  0  0  0  0  0
  -29.9093  -18.8030   22.5658 C   0  0  0  0  0  0  0  0  0  0  0  0
  -30.3756  -24.6146   21.7240 C   0  0  0  0  0  0  0  0  0  0  0  0
  -24.1490  -30.0198   25.5826 C   0  0  1  0  0  0  0  0  0  0  0  0
  -23.7163  -30.3816   21.8256 C   0  0  1  0  0  0  0  0  0  0  0  0
  -28.4474  -12.2335   20.5958 C   0  0  1  0  0  0  0  0  0  0  0  0
  -29.6976  -26.3940   20.7212 C   0  0  0  0  0  0  0  0  0  1  0  0
  -31.8948  -22.6699   20.1017 C   0  0  0  0  0  0  0  0  0  0  0  0
  -28.3698  -20.6606   24.2164 C   0  0  0  0  0  0  0  0  0  0  0  0
  -28.6072  -23.5157   23.7922 C   0  0  0  0  0  0  0  0  0  0  0  0
  -19.9456  -28.5215   15.3198 C   0  0  0  0  0  0  0  0  0  0  0  0
  -20.6492  -26.9262   21.7098 C   0  0  0  0  0  0  0  0  0  0  0  0
  -19.7489  -26.3586   19.4436 C   0  0  0  0  0  0  0  0  0  0  0  0
  -18.9923  -28.4354   20.6000 C   0  0  0  0  0  0  0  0  0  0  0  0
  -23.1331  -30.5815   15.5881 C   0  0  0  0  0  0  0  0  0  0  0  0
  -21.3336  -28.3275   19.6521 C   0  0  1  0  0  0  0  0  0  0  0  0
  -20.9922  -29.3711   16.0238 C   0  0  2  0  0  0  0  0  0  0  0  0
  -20.2088  -27.5163   20.3552 C   0  0  0  0  0  0  0  0  0  0  0  0
  -26.3093  -11.0208   20.7983 N   0  0  0  0  0  0  0  0  0  0  0  0
  -27.4562  -11.4000   21.3872 N   0  0  0  0  0  0  0  0  0  0  0  0
  -23.2056  -29.4266   20.8401 N   0  0  0  0  0  0  0  0  0  0  0  0
  -29.1776  -14.5245   20.0053 N   0  0  0  0  0  0  0  0  0  0  0  0
  -29.9820  -16.0476   21.6650 N   0  0  0  0  0  0  0  0  0  0  0  0
  -28.6764  -11.2582   23.4124 N   0  0  0  0  0  0  0  0  0  0  0  0
  -24.9150   -8.9202   24.2964 N   0  0  0  0  0  0  0  0  0  0  0  0
  -24.0943  -30.4868   24.2139 N   0  0  0  0  0  0  0  0  0  0  0  0
  -20.9364  -28.9207   18.3798 N   0  0  0  0  0  0  0  0  0  0  0  0
  -22.0503  -29.7270   15.0366 N   0  3  0  0  0  0  0  0  0  0  0  0
  -26.9025   -9.6517   25.1757 O   0  0  0  0  0  0  0  0  0  0  0  0
  -23.3506  -28.5146   23.2240 O   0  0  0  0  0  0  0  0  0  0  0  0
  -21.0658  -30.3523   20.8582 O   0  0  0  0  0  0  0  0  0  0  0  0
  -22.5608  -27.8779   17.0948 O   0  0  0  0  0  0  0  0  0  0  0  0
  -31.3836  -15.1936   20.0460 O   0  0  0  0  0  0  0  0  0  0  0  0
  -20.6821   -8.0402   20.7830 O   0  0  0  0  0  0  0  0  0  0  0  0
  -28.7571  -26.9223   19.7718 O   0  0  0  0  0  0  0  0  0  1  0  0
  -19.8693   -2.8375   22.4186 F   0  0  0  0  0  0  0  0  0  0  0  0
  -20.9200   -7.3371   23.4460 F   0  0  0  0  0  0  0  0  0  0  0  0
  1  2  1  0  0  0  0
  1  5  2  0  0  0  0
  2  6  2  0  0  0  0
  3  8  2  0  0  0  0
  3 16  1  0  0  0  0
  4  9  1  0  0  0  0
  4 16  2  0  0  0  0
  5 18  1  0  0  0  0
  6 20  1  0  0  0  0
  7 10  2  0  0  0  0
  7 19  1  0  0  0  0
  8 27  1  0  0  0  0
  9 27  2  0  0  0  0
 10 28  1  0  0  0  0
 11 12  2  0  0  0  0
 11 29  1  0  0  0  0
 12 30  1  0  0  0  0
 13 21  1  0  0  0  0
 13 24  2  0  0  0  0
 14 22  1  0  0  0  0
 14 28  2  0  0  0  0
 15 30  2  0  0  0  0
 15 31  1  0  0  0  0
 16 32  1  0  0  0  0
 17 32  1  0  0  0  0
 17 33  2  0  0  0  0
 17 34  1  0  0  0  0
 18 20  2  0  0  0  0
 18 39  1  0  0  0  0
 19 22  2  0  0  0  0
 19 40  1  0  0  0  0
 20 56  1  0  0  0  0
 21 25  2  0  0  0  0
 21 54  1  0  0  0  0
 22 41  1  0  0  0  0
 23 24  1  0  0  0  0
 23 26  2  0  0  0  0
 23 55  1  0  0  0  0
 24 60  1  0  0  0  0
 25 26  1  0  0  0  0
 25 61  1  0  0  0  0
 26 62  1  0  0  0  0
 27 86  1  0  0  0  0
 28 87  1  0  0  0  0
 29 31  2  0  0  0  0
 29 86  1  0  0  0  0
 30 88  1  0  0  0  0
 31 89  1  0  0  0  0
 32 71  2  0  0  0  0
 33 72  1  0  0  0  0
 33 76  1  0  0  0  0
 34 77  1  0  0  0  0
 34 81  2  0  0  0  0
 35 57  1  0  0  0  0
 35 78  1  0  0  0  0
 35 82  2  0  0  0  0
 36 68  1  0  0  0  0
 36 73  1  0  0  0  0
 36 83  2  0  0  0  0
 37 69  1  0  0  0  0
 37 79  1  0  0  0  0
 37 84  2  0  0  0  0
 38 74  1  0  0  0  0
 38 75  1  0  0  0  0
 38 85  2  0  0  0  0
 39 42  1  0  0  0  0
 40 57  1  0  0  0  0
 41 73  1  0  0  0  0
 42 44  1  0  0  0  0
 43 45  1  0  0  0  0
 43 50  1  0  0  0  0
 44 56  1  0  0  0  0
 45 58  1  0  0  0  0
 46 51  1  0  0  0  0
 46 54  1  0  0  0  0
 47 52  1  0  0  0  0
 47 54  1  0  0  0  0
 48 55  1  0  0  0  0
 48 59  1  0  0  0  0
 49 55  1  0  0  0  0
 49 59  1  0  0  0  0
 50 74  1  0  0  0  0
 51 75  1  0  0  0  0
 52 75  1  0  0  0  0
 53 58  1  0  0  0  0
 53 74  1  0  0  0  0
 56 78  1  0  0  0  0
 57 73  1  0  0  0  0
 58 72  1  0  0  0  0
 59 87  1  0  0  0  0
 63 69  1  0  0  0  0
 64 70  1  0  0  0  0
 65 70  1  0  0  0  0
 66 70  1  0  0  0  0
 67 80  1  0  0  0  0
 68 70  1  0  0  0  0
 68 79  1  0  0  0  0
 69 80  1  0  0  0  0
 71 72  1  0  0  0  0
M  CHG  1  80   1
M  ISO  4  38 100  59 101  75 100  87 101
M  END
> <Batch ID>
0161

> <Smiles>
CNC(C)C(=O)NC(C(=O)N1Cc2cc([101O:1][101CH:1]3CC(c4c(C)cc(C5CC[100N:0]([100C:0](=O)N6CCCC(n7nc(-c8ccc(Oc9ccc(F)cc9F)cc8)c(C(N)=O)c7N)C6)CC5)c(C)c4C)C3)ccc2CC1C(=O)NC1CCCc2ccccc21)C(C)(C)C

> <Shape>
0.279

> <Color>
0.116

> <Negative vol penalty>
0.000

$$$$

  -OEChem-04052322123D

 89 98  0     1  0  0  0  0  0999 V2000
  -22.6507   -7.6237   20.6639 C   0  0  0  0  0  0  0  0  0  0  0  0
  -21.8156   -8.5878   20.1086 C   0  0  0  0  0  0  0  0  0  0  0  0
  -28.2329  -26.4905   19.9893 C   0  0  0  0  0  0  0  0  0  0  0  0
  -26.2643  -25.5586   18.9439 C   0  0  0  0  0  0  0  0  0  0  0  0
  -23.6558   -8.0022   21.5530 C   0  0  0  0  0  0  0  0  0  0  0  0
  -21.9844   -9.9310   20.4429 C   0  0  0  0  0  0  0  0  0  0  0  0
  -21.3412  -16.5003   17.6595 C   0  0  0  0  0  0  0  0  0  0  0  0
  -28.9005  -25.2787   19.8125 C   0  0  0  0  0  0  0  0  0  0  0  0
  -26.9319  -24.3467   18.7670 C   0  0  0  0  0  0  0  0  0  0  0  0
  -20.7461  -17.7315   17.9309 C   0  0  0  0  0  0  0  0  0  0  0  0
  -28.9956  -22.2470   21.3040 C   0  0  0  0  0  0  0  0  0  0  0  0
  -29.7307  -21.7499   22.3801 C   0  0  0  0  0  0  0  0  0  0  0  0
  -22.5667  -18.2772   19.4164 C   0  0  0  0  0  0  0  0  0  0  0  0
  -31.7396  -21.8188   21.0395 C   0  0  0  0  0  0  0  0  0  0  0  0
  -26.9148  -26.6305   19.5551 C   0  0  0  0  0  0  0  0  0  0  0  0
  -26.1840  -28.9690   18.8445 C   0  0  0  0  0  0  0  0  0  0  0  0
  -23.8433   -9.3518   21.8909 C   0  0  0  0  0  0  0  0  0  0  0  0
  -22.5501  -16.1432   18.2739 C   0  0  0  0  0  0  0  0  0  0  0  0
  -22.9921  -10.3278   21.3383 C   0  0  0  0  0  0  0  0  0  0  0  0
  -23.1764  -17.0419   19.1491 C   0  0  0  0  0  0  0  0  0  0  0  0
  -20.6351  -22.9087   19.1877 C   0  0  0  0  0  0  0  0  0  0  0  0
  -19.9382  -22.1242   21.3639 C   0  0  0  0  0  0  0  0  0  0  0  0
  -19.8918  -24.0748   19.3700 C   0  0  0  0  0  0  0  0  0  0  0  0
  -19.1949  -23.2903   21.5463 C   0  0  0  0  0  0  0  0  0  0  0  0
  -20.6583  -21.9333   20.1846 C   0  0  0  0  0  0  0  0  0  0  0  0
  -19.1717  -24.2656   20.5493 C   0  0  0  0  0  0  0  0  0  0  0  0
  -28.2500  -24.2068   19.2013 C   0  0  0  0  0  0  0  0  0  0  0  0
  -21.3574  -18.6190   18.8117 C   0  0  0  0  0  0  0  0  0  0  0  0
  -29.6324  -22.5299   20.0956 C   0  0  0  0  0  0  0  0  0  0  0  0
  -31.1027  -21.5358   22.2479 C   0  0  0  0  0  0  0  0  0  0  0  0
  -31.0043  -22.3158   19.9634 C   0  0  0  0  0  0  0  0  0  0  0  0
  -26.2244  -27.8819   19.7380 C   0  0  0  0  0  0  0  0  0  0  0  0
  -25.4036  -29.9052   19.4777 C   0  0  0  0  0  0  0  0  0  0  0  0
  -26.7971  -29.1192   17.5571 C   0  0  0  0  0  0  0  0  0  0  0  0
  -23.4633  -13.8275   20.2506 C   0  0  0  0  0  0  0  0  0  0  0  0
  -26.4093  -15.0849   19.7383 C   0  0  0  0  0  0  0  0  0  0  0  0
  -28.6971  -17.8387   19.2914 C   0  0  0  0  0  0  0  0  0  0  0  0
  -21.1354  -29.6639   23.4947 C   0  0  0  0  0  0  0  0  0  0  0  0
  -24.9128   -9.7075   22.8929 C   0  0  0  0  0  0  0  0  0  0  0  0
  -23.1927  -14.8224   17.9500 C   0  0  0  0  0  0  0  0  0  0  0  0
  -24.4851  -16.7147   19.8191 C   0  0  0  0  0  0  0  0  0  0  0  0
  -25.2660  -11.1925   22.9056 C   0  0  0  0  0  0  0  0  0  0  0  0
  -24.1115  -31.3909   23.8323 C   0  0  0  0  0  0  0  0  0  0  0  0
  -23.9993  -12.0424   22.9167 C   0  0  0  0  0  0  0  0  0  0  0  0
  -24.9986  -30.8030   22.7351 C   0  0  0  0  0  0  0  0  0  0  0  0
  -18.3816  -27.7977   21.8636 C   0  0  0  0  0  0  0  0  0  0  0  0
  -20.4029  -26.3014   22.0200 C   0  0  0  0  0  0  0  0  0  0  0  0
  -23.2982  -30.3001   24.5198 C   0  0  0  0  0  0  0  0  0  0  0  0
  -18.9430  -28.6440   23.0028 C   0  0  0  0  0  0  0  0  0  0  0  0
  -20.9231  -27.1720   23.1591 C   0  0  0  0  0  0  0  0  0  0  0  0
  -23.3298  -28.9006   22.4811 C   0  0  0  0  0  0  0  0  0  0  0  0
  -23.1597  -11.7976   21.6572 C   0  0  1  0  0  0  0  0  0  0  0  0
  -24.1633  -14.3498   19.0280 C   0  0  1  0  0  0  0  0  0  0  0  0
  -18.8709  -26.3457   21.9408 C   0  0  0  0  0  0  0  0  0  0  0  0
  -24.1708  -29.9635   21.7458 C   0  0  2  0  0  0  0  0  0  0  0  0
  -21.4078  -22.7039   17.9228 C   0  0  0  0  0  0  0  0  0  0  0  0
  -19.9630  -21.0783   22.4339 C   0  0  0  0  0  0  0  0  0  0  0  0
  -19.8671  -25.1209   18.3004 C   0  0  0  0  0  0  0  0  0  0  0  0
  -18.4235  -23.4964   22.8119 C   0  0  0  0  0  0  0  0  0  0  0  0
  -16.8692  -25.2349   20.8855 C   0  0  0  0  0  0  0  0  0  0  0  0
  -31.1592  -17.8521   18.8065 C   0  0  0  0  0  0  0  0  0  0  0  0
  -26.7104  -15.2919   22.7676 C   0  0  0  0  0  0  0  0  0  0  0  0
  -28.6273  -16.8599   22.4000 C   0  0  0  0  0  0  0  0  0  0  0  0
  -28.7608  -14.5126   21.5662 C   0  0  0  0  0  0  0  0  0  0  0  0
  -28.3330  -19.5313   16.8910 C   0  0  0  0  0  0  0  0  0  0  0  0
  -21.4564  -20.6827   19.9896 C   0  0  0  0  0  0  0  0  0  1  0  0
  -18.3649  -25.5369   20.7488 C   0  0  2  0  0  0  0  0  0  0  0  0
  -27.2419  -16.1596   20.3947 C   0  0  1  0  0  0  0  0  0  0  0  0
  -29.7621  -17.9703   18.2176 C   0  0  2  0  0  0  0  0  0  0  0  0
  -27.8095  -15.7117   21.7711 C   0  0  0  0  0  0  0  0  0  0  0  0
  -25.5254  -28.1055   20.8540 N   0  0  0  0  0  0  0  0  0  0  0  0
  -25.0385  -29.3439   20.6659 N   0  0  0  0  0  0  0  0  0  0  0  0
  -25.0707  -15.4085   19.4750 N   0  0  0  0  0  0  0  0  0  0  0  0
  -22.5304  -29.5231   23.5469 N   0  0  0  0  0  0  0  0  0  0  0  0
  -20.3998  -28.5422   23.0776 N   0  0  0  0  0  0  0  0  0  0  0  0
  -25.0010  -31.1455   19.1286 N   0  0  0  0  0  0  0  0  0  0  0  0
  -27.5658  -28.0600   17.0555 N   0  0  0  0  0  0  0  0  0  0  0  0
  -23.7282  -12.4996   20.5265 N   0  0  0  0  0  0  0  0  0  0  0  0
  -28.2616  -16.5370   19.4220 N   0  0  0  0  0  0  0  0  0  0  0  0
  -29.6497  -19.2906   17.5356 N   0  3  0  0  0  0  0  0  0  0  0  0
  -26.6807  -30.1681   16.8791 O   0  0  0  0  0  0  0  0  0  0  0  0
  -22.7378  -14.5744   20.8968 O   0  0  0  0  0  0  0  0  0  0  0  0
  -26.9293  -14.0008   19.4627 O   0  0  0  0  0  0  0  0  0  0  0  0
  -28.2945  -18.7944   19.9510 O   0  0  0  0  0  0  0  0  0  0  0  0
  -20.5787  -30.7267   23.7973 O   0  0  0  0  0  0  0  0  0  0  0  0
  -28.9013  -23.0242   19.0284 O   0  0  0  0  0  0  0  0  0  0  0  0
  -20.7740  -19.8301   19.0809 O   0  0  0  0  0  0  0  0  0  1  0  0
  -31.8089  -21.0599   23.2818 F   0  0  0  0  0  0  0  0  0  0  0  0
  -31.6219  -22.5869   18.8053 F   0  0  0  0  0  0  0  0  0  0  0  0
  1  2  1  0  0  0  0
  1  5  2  0  0  0  0
  2  6  2  0  0  0  0
  3  8  2  0  0  0  0
  3 15  1  0  0  0  0
  4  9  1  0  0  0  0
  4 15  2  0  0  0  0
  5 17  1  0  0  0  0
  6 19  1  0  0  0  0
  7 10  2  0  0  0  0
  7 18  1  0  0  0  0
  8 27  1  0  0  0  0
  9 27  2  0  0  0  0
 10 28  1  0  0  0  0
 11 12  2  0  0  0  0
 11 29  1  0  0  0  0
 12 30  1  0  0  0  0
 13 20  1  0  0  0  0
 13 28  2  0  0  0  0
 14 30  2  0  0  0  0
 14 31  1  0  0  0  0
 15 32  1  0  0  0  0
 16 32  1  0  0  0  0
 16 33  2  0  0  0  0
 16 34  1  0  0  0  0
 17 19  2  0  0  0  0
 17 39  1  0  0  0  0
 18 20  2  0  0  0  0
 18 40  1  0  0  0  0
 19 52  1  0  0  0  0
 20 41  1  0  0  0  0
 21 23  2  0  0  0  0
 21 25  1  0  0  0  0
 21 56  1  0  0  0  0
 22 24  1  0  0  0  0
 22 25  2  0  0  0  0
 22 57  1  0  0  0  0
 23 26  1  0  0  0  0
 23 58  1  0  0  0  0
 24 26  2  0  0  0  0
 24 59  1  0  0  0  0
 25 66  1  0  0  0  0
 26 67  1  0  0  0  0
 27 86  1  0  0  0  0
 28 87  1  0  0  0  0
 29 31  2  0  0  0  0
 29 86  1  0  0  0  0
 30 88  1  0  0  0  0
 31 89  1  0  0  0  0
 32 71  2  0  0  0  0
 33 72  1  0  0  0  0
 33 76  1  0  0  0  0
 34 77  1  0  0  0  0
 34 81  2  0  0  0  0
 35 53  1  0  0  0  0
 35 78  1  0  0  0  0
 35 82  2  0  0  0  0
 36 68  1  0  0  0  0
 36 73  1  0  0  0  0
 36 83  2  0  0  0  0
 37 69  1  0  0  0  0
 37 79  1  0  0  0  0
 37 84  2  0  0  0  0
 38 74  1  0  0  0  0
 38 75  1  0  0  0  0
 38 85  2  0  0  0  0
 39 42  1  0  0  0  0
 40 53  1  0  0  0  0
 41 73  1  0  0  0  0
 42 44  1  0  0  0  0
 43 45  1  0  0  0  0
 43 48  1  0  0  0  0
 44 52  1  0  0  0  0
 45 55  1  0  0  0  0
 46 49  1  0  0  0  0
 46 54  1  0  0  0  0
 47 50  1  0  0  0  0
 47 54  1  0  0  0  0
 48 74  1  0  0  0  0
 49 75  1  0  0  0  0
 50 75  1  0  0  0  0
 51 55  1  0  0  0  0
 51 74  1  0  0  0  0
 52 78  1  0  0  0  0
 53 73  1  0  0  0  0
 54 67  1  0  0  0  0
 55 72  1  0  0  0  0
 60 67  1  0  0  0  0
 61 69  1  0  0  0  0
 62 70  1  0  0  0  0
 63 70  1  0  0  0  0
 64 70  1  0  0  0  0
 65 80  1  0  0  0  0
 66 87  1  0  0  0  0
 68 70  1  0  0  0  0
 68 79  1  0  0  0  0
 69 80  1  0  0  0  0
 71 72  1  0  0  0  0
M  CHG  1  80   1
M  ISO  4  38 100  66 101  75 100  87 101
M  END
> <Batch ID>
0161

> <Smiles>
CNC(C)C(=O)NC(C(=O)N1Cc2cc([101O:1][101CH2:1]c3c(C)c(C)c(C(C)C4CC[100N:0]([100C:0](=O)N5CCCC(n6nc(-c7ccc(Oc8ccc(F)cc8F)cc7)c(C(N)=O)c6N)C5)CC4)c(C)c3C)ccc2CC1C(=O)NC1CCCc2ccccc21)C(C)(C)C

> <Shape>
0.263

> <Color>
0.082

> <Negative vol penalty>
0.000

$$$$

  -OEChem-04052322123D

 92102  0     1  0  0  0  0  0999 V2000
  -28.3313  -22.7934   16.0815 C   0  0  0  0  0  0  0  0  0  0  0  0
  -27.9474  -22.4843   17.3825 C   0  0  0  0  0  0  0  0  0  0  0  0
  -23.1450   -9.7799   19.9221 C   0  0  0  0  0  0  0  0  0  0  0  0
  -23.8486   -9.8509   22.2322 C   0  0  0  0  0  0  0  0  0  0  0  0
  -28.5438  -24.1219   15.7156 C   0  0  0  0  0  0  0  0  0  0  0  0
  -27.7768  -23.5035   18.3187 C   0  0  0  0  0  0  0  0  0  0  0  0
  -23.4692  -22.9505   21.0810 C   0  0  0  0  0  0  0  0  0  0  0  0
  -22.4304   -8.6092   20.1757 C   0  0  0  0  0  0  0  0  0  0  0  0
  -23.1340   -8.6802   22.4859 C   0  0  0  0  0  0  0  0  0  0  0  0
  -23.4640  -22.0226   22.1216 C   0  0  0  0  0  0  0  0  0  0  0  0
  -19.4732   -7.7488   21.5714 C   0  0  0  0  0  0  0  0  0  0  0  0
  -18.1804   -7.6540   21.0563 C   0  0  0  0  0  0  0  0  0  0  0  0
  -23.8852  -23.7983   23.6989 C   0  0  0  0  0  0  0  0  0  0  0  0
  -26.9937  -17.9781   24.3653 C   0  0  0  0  0  0  0  0  0  0  0  0
  -18.8303   -5.7057   19.7839 C   0  0  0  0  0  0  0  0  0  0  0  0
  -23.8541  -10.4008   20.9503 C   0  0  0  0  0  0  0  0  0  0  0  0
  -24.1225  -12.9327   20.7917 C   0  0  0  0  0  0  0  0  0  0  0  0
  -28.3663  -25.1587   16.6452 C   0  0  0  0  0  0  0  0  0  0  0  0
  -23.6931  -24.3104   21.3403 C   0  0  0  0  0  0  0  0  0  0  0  0
  -27.9884  -24.8470   17.9653 C   0  0  0  0  0  0  0  0  0  0  0  0
  -23.8879  -24.7419   22.6604 C   0  0  0  0  0  0  0  0  0  0  0  0
  -25.9188  -18.5920   25.0082 C   0  0  0  0  0  0  0  0  0  0  0  0
  -27.3015  -20.5155   25.4831 C   0  0  0  0  0  0  0  0  0  0  0  0
  -26.0727  -19.8607   25.5671 C   0  0  0  0  0  0  0  0  0  0  0  0
  -28.3764  -19.9016   24.8402 C   0  0  0  0  0  0  0  0  0  0  0  0
  -28.2225  -18.6328   24.2814 C   0  0  0  0  0  0  0  0  0  0  0  0
  -22.4248   -8.0594   21.4576 C   0  0  0  0  0  0  0  0  0  0  0  0
  -23.6743  -22.4462   23.4304 C   0  0  0  0  0  0  0  0  0  0  0  0
  -20.4446   -6.8221   21.1927 C   0  0  0  0  0  0  0  0  0  0  0  0
  -17.8589   -6.6325   20.1626 C   0  0  0  0  0  0  0  0  0  0  0  0
  -20.1231   -5.8006   20.2990 C   0  0  0  0  0  0  0  0  0  0  0  0
  -24.5930  -11.6098   20.6888 C   0  0  0  0  0  0  0  0  0  0  0  0
  -25.2001  -13.7086   20.4405 C   0  0  0  0  0  0  0  0  0  0  0  0
  -22.8273  -13.4168   21.1708 C   0  0  0  0  0  0  0  0  0  0  0  0
  -25.8584  -26.5078   20.4867 C   0  0  0  0  0  0  0  0  0  0  0  0
  -23.7592  -28.4708   22.1580 C   0  0  0  0  0  0  0  0  0  0  0  0
  -25.3479  -31.1943   20.8550 C   0  0  0  0  0  0  0  0  0  0  0  0
  -30.6444  -14.8980   20.7395 C   0  0  0  0  0  0  0  0  0  0  0  0
  -28.6536  -26.5757   16.2159 C   0  0  0  0  0  0  0  0  0  0  0  0
  -23.6645  -25.2996   20.2067 C   0  0  0  0  0  0  0  0  0  0  0  0
  -24.1286  -26.1901   22.9911 C   0  0  0  0  0  0  0  0  0  0  0  0
  -28.0876  -27.6270   17.1671 C   0  0  0  0  0  0  0  0  0  0  0  0
  -27.7471  -22.5056   29.0589 C   0  0  0  0  0  0  0  0  0  0  0  0
  -29.6373  -12.4377   18.3711 C   0  0  0  0  0  0  0  0  0  0  0  0
  -28.4081  -27.2655   18.6140 C   0  0  0  0  0  0  0  0  0  0  0  0
  -28.2098  -21.1574   28.4729 C   0  0  0  0  0  0  0  0  0  0  0  0
  -28.6275  -23.2002   28.0018 C   0  0  0  0  0  0  0  0  0  0  0  0
  -28.1993  -12.1080   18.7753 C   0  0  0  0  0  0  0  0  0  0  0  0
  -31.3391  -16.9430   23.2738 C   0  0  0  0  0  0  0  0  0  0  0  0
  -30.5180  -12.7078   19.5890 C   0  0  0  0  0  0  0  0  0  0  0  0
  -30.2348  -17.1379   24.3111 C   0  0  0  0  0  0  0  0  0  0  0  0
  -28.5621  -13.4050   20.9165 C   0  0  0  0  0  0  0  0  0  0  0  0
  -29.5687  -18.1541   22.2176 C   0  0  0  0  0  0  0  0  0  0  0  0
  -27.7691  -25.9268   19.0027 C   0  0  1  0  0  0  0  0  0  0  0  0
  -24.3608  -26.6197   20.5310 C   0  0  1  0  0  0  0  0  0  0  0  0
  -28.5430  -21.9042   27.1570 C   0  0  0  0  0  0  0  0  0  0  0  0
  -27.6224  -13.1798   19.7196 C   0  0  2  0  0  0  0  0  0  0  0  0
  -30.6155  -17.0712   21.9375 C   0  0  2  0  0  0  0  0  0  0  0  0
  -24.6134  -17.8699   25.0835 C   0  0  0  0  0  0  0  0  0  0  0  0
  -29.6936  -20.6064   24.7478 C   0  0  0  0  0  0  0  0  0  0  0  0
  -25.2082  -20.7682   27.7490 C   0  0  0  0  0  0  0  0  0  0  0  0
  -25.1540  -33.6900   20.6774 C   0  0  0  0  0  0  0  0  0  0  0  0
  -21.5822  -28.1480   20.0456 C   0  0  0  0  0  0  0  0  0  0  0  0
  -22.1038  -30.4657   19.2555 C   0  0  0  0  0  0  0  0  0  0  0  0
  -21.2686  -30.0998   21.5774 C   0  0  0  0  0  0  0  0  0  0  0  0
  -27.9092  -31.6108   22.2781 C   0  0  0  0  0  0  0  0  0  0  0  0
  -27.4661  -21.8764   26.0831 C   0  0  0  0  0  0  0  0  0  0  0  0
  -24.4866  -21.8354   25.5806 C   0  0  0  0  0  0  0  0  0  1  0  0
  -24.8996  -20.5271   26.2686 C   0  0  1  0  0  0  0  0  0  0  0  0
  -23.6282  -29.4111   20.9860 C   0  0  1  0  0  0  0  0  0  0  0  0
  -25.7306  -32.5279   21.4711 C   0  0  2  0  0  0  0  0  0  0  0  0
  -22.1660  -29.5112   20.4671 C   0  0  0  0  0  0  0  0  0  0  0  0
  -25.8699  -11.5453   20.3024 N   0  0  0  0  0  0  0  0  0  0  0  0
  -26.2110  -12.8373   20.1593 N   0  0  0  0  0  0  0  0  0  0  0  0
  -29.2732  -18.0097   23.6419 N   0  0  3  0  0  0  0  0  0  0  0  0
  -24.0072  -27.1239   21.8640 N   0  0  0  0  0  0  0  0  0  0  0  0
  -29.9155  -13.7346   20.4425 N   0  0  0  0  0  0  0  0  0  0  0  0
  -25.3720  -15.0444   20.3478 N   0  0  0  0  0  0  0  0  0  0  0  0
  -21.8354  -12.4832   21.5009 N   0  0  0  0  0  0  0  0  0  0  0  0
  -26.3561  -26.0983   19.2644 N   0  0  0  0  0  0  0  0  0  0  0  0
  -24.1976  -30.6831   21.4177 N   0  0  0  0  0  0  0  0  0  0  0  0
  -29.9974  -15.8229   21.5498 N   0  0  0  0  0  0  0  0  0  0  0  0
  -27.2131  -32.6745   21.5093 N   0  3  0  0  0  0  0  0  0  0  0  0
  -22.5528  -14.6404   21.1998 O   0  0  0  0  0  0  0  0  0  0  0  0
  -26.5140  -26.7748   21.4870 O   0  0  0  0  0  0  0  0  0  0  0  0
  -23.6376  -28.9143   23.3033 O   0  0  0  0  0  0  0  0  0  0  0  0
  -26.0018  -30.6614   19.9612 O   0  0  0  0  0  0  0  0  0  0  0  0
  -31.7852  -15.1000   20.3097 O   0  0  0  0  0  0  0  0  0  0  0  0
  -21.7274   -6.9171   21.7055 O   0  0  0  0  0  0  0  0  0  0  0  0
  -23.6692  -21.5427   24.4481 O   0  0  0  0  0  0  0  0  0  1  0  0
  -16.6170   -6.5407   19.6693 F   0  0  0  0  0  0  0  0  0  0  0  0
  -21.0517   -4.9067   19.9323 F   0  0  0  0  0  0  0  0  0  0  0  0
  1  2  1  0  0  0  0
  1  5  2  0  0  0  0
  2  6  2  0  0  0  0
  3  8  2  0  0  0  0
  3 16  1  0  0  0  0
  4  9  1  0  0  0  0
  4 16  2  0  0  0  0
  5 18  1  0  0  0  0
  6 20  1  0  0  0  0
  7 10  2  0  0  0  0
  7 19  1  0  0  0  0
  8 27  1  0  0  0  0
  9 27  2  0  0  0  0
 10 28  1  0  0  0  0
 11 12  2  0  0  0  0
 11 29  1  0  0  0  0
 12 30  1  0  0  0  0
 13 21  1  0  0  0  0
 13 28  2  0  0  0  0
 14 22  2  0  0  0  0
 14 26  1  0  0  0  0
 15 30  2  0  0  0  0
 15 31  1  0  0  0  0
 16 32  1  0  0  0  0
 17 32  1  0  0  0  0
 17 33  2  0  0  0  0
 17 34  1  0  0  0  0
 18 20  2  0  0  0  0
 18 39  1  0  0  0  0
 19 21  2  0  0  0  0
 19 40  1  0  0  0  0
 20 54  1  0  0  0  0
 21 41  1  0  0  0  0
 22 24  1  0  0  0  0
 22 59  1  0  0  0  0
 23 24  2  0  0  0  0
 23 25  1  0  0  0  0
 23 67  1  0  0  0  0
 24 69  1  0  0  0  0
 25 26  2  0  0  0  0
 25 60  1  0  0  0  0
 26 75  1  0  0  0  0
 27 89  1  0  0  0  0
 28 90  1  0  0  0  0
 29 31  2  0  0  0  0
 29 89  1  0  0  0  0
 30 91  1  0  0  0  0
 31 92  1  0  0  0  0
 32 73  2  0  0  0  0
 33 74  1  0  0  0  0
 33 78  1  0  0  0  0
 34 79  1  0  0  0  0
 34 84  2  0  0  0  0
 35 55  1  0  0  0  0
 35 80  1  0  0  0  0
 35 85  2  0  0  0  0
 36 70  1  0  0  0  0
 36 76  1  0  0  0  0
 36 86  2  0  0  0  0
 37 71  1  0  0  0  0
 37 81  1  0  0  0  0
 37 87  2  0  0  0  0
 38 77  1  0  0  0  0
 38 82  1  0  0  0  0
 38 88  2  0  0  0  0
 39 42  1  0  0  0  0
 40 55  1  0  0  0  0
 41 76  1  0  0  0  0
 42 45  1  0  0  0  0
 43 46  1  0  0  0  0
 43 47  1  0  0  0  0
 44 48  1  0  0  0  0
 44 50  1  0  0  0  0
 45 54  1  0  0  0  0
 46 56  1  0  0  0  0
 47 56  1  0  0  0  0
 48 57  1  0  0  0  0
 49 51  1  0  0  0  0
 49 58  1  0  0  0  0
 50 77  1  0  0  0  0
 51 75  1  0  0  0  0
 52 57  1  0  0  0  0
 52 77  1  0  0  0  0
 53 58  1  0  0  0  0
 53 75  1  0  0  0  0
 54 80  1  0  0  0  0
 55 76  1  0  0  0  0
 56 67  1  0  0  0  0
 57 74  1  0  0  0  0
 58 82  1  0  0  0  0
 61 69  1  0  0  0  0
 62 71  1  0  0  0  0
 63 72  1  0  0  0  0
 64 72  1  0  0  0  0
 65 72  1  0  0  0  0
 66 83  1  0  0  0  0
 68 69  1  0  0  0  0
 68 90  1  0  0  0  0
 70 72  1  0  0  0  0
 70 81  1  0  0  0  0
 71 83  1  0  0  0  0
 73 74  1  0  0  0  0
M  CHG  1  83   1
M  ISO  4  38 100  68 101  82 100  90 101
M  END
> <Batch ID>
0161

> <Smiles>
CNC(C)C(=O)NC(C(=O)N1Cc2cc([101O:1][101CH2:1]C(C)c3c(C)cc(N4CCC([100NH:0][100C:0](=O)N5CCCC(n6nc(-c7ccc(Oc8ccc(F)cc8F)cc7)c(C(N)=O)c6N)C5)C4)c(C)c3CC3CCC3)ccc2CC1C(=O)NC1CCCc2ccccc21)C(C)(C)C

> <Shape>
0.233

> <Color>
0.208

> <Negative vol penalty>
0.000

$$$$

  -OEChem-04052322123D

 87 96  0     1  0  0  0  0  0999 V2000
  -22.7071   -7.9039   22.0859 C   0  0  0  0  0  0  0  0  0  0  0  0
  -23.6768   -8.7101   21.4983 C   0  0  0  0  0  0  0  0  0  0  0  0
  -22.3485  -29.2325   20.6741 C   0  0  0  0  0  0  0  0  0  0  0  0
  -23.8980  -29.7455   22.4553 C   0  0  0  0  0  0  0  0  0  0  0  0
  -21.4233   -8.4035   22.3005 C   0  0  0  0  0  0  0  0  0  0  0  0
  -23.3628  -10.0161   21.1239 C   0  0  0  0  0  0  0  0  0  0  0  0
  -26.9412  -13.3367   22.4703 C   0  0  0  0  0  0  0  0  0  0  0  0
  -21.3060  -29.7769   21.4241 C   0  0  0  0  0  0  0  0  0  0  0  0
  -22.8556  -30.2900   23.2053 C   0  0  0  0  0  0  0  0  0  0  0  0
  -28.0877  -13.3931   21.6789 C   0  0  0  0  0  0  0  0  0  0  0  0
  -19.3423  -28.8360   24.0091 C   0  0  0  0  0  0  0  0  0  0  0  0
  -18.1469  -28.1200   24.0713 C   0  0  0  0  0  0  0  0  0  0  0  0
  -27.2152  -15.3469   20.5649 C   0  0  0  0  0  0  0  0  0  0  0  0
  -16.9767  -29.9878   23.0819 C   0  0  0  0  0  0  0  0  0  0  0  0
  -23.6445  -29.2168   21.1897 C   0  0  0  0  0  0  0  0  0  0  0  0
  -25.5521  -29.3270   19.4996 C   0  0  0  0  0  0  0  0  0  0  0  0
  -21.0961   -9.7194   21.9374 C   0  0  0  0  0  0  0  0  0  0  0  0
  -25.9166  -14.2801   22.3072 C   0  0  0  0  0  0  0  0  0  0  0  0
  -22.0730  -10.5333   21.3326 C   0  0  0  0  0  0  0  0  0  0  0  0
  -26.0579  -15.3018   21.3573 C   0  0  0  0  0  0  0  0  0  0  0  0
  -32.8745  -19.1588   20.4738 C   0  0  0  0  0  0  0  0  0  0  0  0
  -32.4029  -18.3755   19.4121 C   0  0  0  0  0  0  0  0  0  0  0  0
  -32.6320  -20.5213   20.5190 C   0  0  0  0  0  0  0  0  0  0  0  0
  -31.6848  -18.9415   18.3718 C   0  0  0  0  0  0  0  0  0  0  0  0
  -31.4465  -20.3172   18.4034 C   0  0  0  0  0  0  0  0  0  0  0  0
  -31.9162  -21.1011   19.4693 C   0  0  0  0  0  0  0  0  0  0  0  0
  -21.5596  -30.3057   22.6897 C   0  0  0  0  0  0  0  0  0  0  0  0
  -28.2235  -14.3966   20.7241 C   0  0  0  0  0  0  0  0  0  0  0  0
  -19.3549  -30.1280   23.4834 C   0  0  0  0  0  0  0  0  0  0  0  0
  -16.9641  -28.6958   23.6076 C   0  0  0  0  0  0  0  0  0  0  0  0
  -18.1721  -30.7038   23.0198 C   0  0  0  0  0  0  0  0  0  0  0  0
  -24.7216  -28.6540   20.4157 C   0  0  0  0  0  0  0  0  0  0  0  0
  -26.4077  -28.3579   19.0356 C   0  0  0  0  0  0  0  0  0  0  0  0
  -25.5504  -30.7050   19.1036 C   0  0  0  0  0  0  0  0  0  0  0  0
  -22.8531  -14.1423   21.4708 C   0  0  0  0  0  0  0  0  0  0  0  0
  -22.9109  -17.2992   22.2146 C   0  0  0  0  0  0  0  0  0  0  0  0
  -24.7415  -20.1557   22.5836 C   0  0  0  0  0  0  0  0  0  0  0  0
  -29.8077  -24.1722   19.9667 C   0  0  0  0  0  0  0  0  0  0  0  0
  -19.6817  -10.1997   22.1459 C   0  0  0  0  0  0  0  0  0  0  0  0
  -24.6981  -14.2213   23.1871 C   0  0  0  0  0  0  0  0  0  0  0  0
  -33.5791  -18.3148   21.4898 C   0  0  0  0  0  0  0  0  0  0  0  0
  -24.9958  -16.3506   21.1568 C   0  0  0  0  0  0  0  0  0  0  0  0
  -19.5352  -11.7169   22.0629 C   0  0  0  0  0  0  0  0  0  0  0  0
  -33.8697  -17.0446   20.6718 C   0  0  0  0  0  0  0  0  0  0  0  0
  -26.3072  -23.3313   19.5965 C   0  0  0  0  0  0  0  0  0  0  0  0
  -20.2758  -12.2589   20.8445 C   0  0  0  0  0  0  0  0  0  0  0  0
  -25.6506  -24.7090   19.7022 C   0  0  0  0  0  0  0  0  0  0  0  0
  -27.4974  -23.2120   20.5439 C   0  0  0  0  0  0  0  0  0  0  0  0
  -27.8799  -25.6456   20.4722 C   0  0  0  0  0  0  0  0  0  0  0  0
  -21.7778  -11.9634   20.9353 C   0  0  1  0  0  0  0  0  0  0  0  0
  -32.7555  -16.9350   19.6155 C   0  0  1  0  0  0  0  0  0  0  0  0
  -23.4894  -14.9286   22.5819 C   0  0  1  0  0  0  0  0  0  0  0  0
  -26.6835  -25.8372   19.5225 C   0  0  2  0  0  0  0  0  0  0  0  0
  -33.1226  -21.3398   21.6651 C   0  0  0  0  0  0  0  0  0  0  0  0
  -31.1807  -18.0966   17.2508 C   0  0  0  0  0  0  0  0  0  0  0  0
  -30.6777  -20.9605   17.2912 C   0  0  0  0  0  0  0  0  0  0  0  0
  -24.5051  -22.5858   23.1633 C   0  0  0  0  0  0  0  0  0  0  0  0
  -21.7548  -17.8451   19.4442 C   0  0  0  0  0  0  0  0  0  0  0  0
  -22.4246  -20.2424   19.7134 C   0  0  0  0  0  0  0  0  0  0  0  0
  -20.7669  -19.2291   21.2780 C   0  0  0  0  0  0  0  0  0  0  0  0
  -26.5161  -19.8864   24.9368 C   0  0  0  0  0  0  0  0  0  0  0  0
  -31.6429  -22.5732   19.4848 C   0  0  0  0  0  0  0  0  0  0  0  0
  -31.7351  -14.6740   19.8919 C   0  0  0  0  0  0  0  0  0  0  0  0
  -30.5533  -13.9638   20.5220 C   0  0  0  0  0  0  0  0  0  1  0  0
  -23.2016  -18.5713   21.4555 C   0  0  1  0  0  0  0  0  0  0  0  0
  -24.7835  -21.1886   23.6953 C   0  0  2  0  0  0  0  0  0  0  0  0
  -22.0563  -18.9512   20.4750 C   0  0  0  0  0  0  0  0  0  0  0  0
  -25.0223  -27.3575   20.5281 N   0  0  0  0  0  0  0  0  0  0  0  0
  -26.0513  -27.2080   19.6767 N   0  0  0  0  0  0  0  0  0  0  0  0
  -23.8202  -16.2469   22.0370 N   0  0  0  0  0  0  0  0  0  0  0  0
  -28.4516  -24.3048   20.3085 N   0  0  0  0  0  0  0  0  0  0  0  0
  -27.4225  -28.3857   18.1458 N   0  0  0  0  0  0  0  0  0  0  0  0
  -24.6040  -31.5642   19.6785 N   0  0  0  0  0  0  0  0  0  0  0  0
  -22.4200  -12.8854   21.8475 N   0  0  0  0  0  0  0  0  0  0  0  0
  -23.4905  -19.5891   22.4599 N   0  0  0  0  0  0  0  0  0  0  0  0
  -30.2722  -22.8690   19.8379 N   0  0  0  0  0  0  0  0  0  0  0  0
  -31.6320  -16.1304   20.1613 N   0  3  0  0  0  0  0  0  0  0  0  0
  -26.1231  -21.1927   24.3483 N   0  3  0  0  0  0  0  0  0  0  0  0
  -26.3534  -31.1574   18.2527 O   0  0  0  0  0  0  0  0  0  0  0  0
  -22.7604  -14.6399   20.3548 O   0  0  0  0  0  0  0  0  0  0  0  0
  -21.9177  -17.2438   22.9440 O   0  0  0  0  0  0  0  0  0  0  0  0
  -25.7196  -19.8818   21.8916 O   0  0  0  0  0  0  0  0  0  0  0  0
  -30.5490  -25.1439   19.7844 O   0  0  0  0  0  0  0  0  0  0  0  0
  -20.5427  -30.8372   23.4217 O   0  0  0  0  0  0  0  0  0  0  0  0
  -29.3412  -14.4536   19.9499 O   0  0  0  0  0  0  0  0  0  1  0  0
  -15.8164  -28.0075   23.6659 F   0  0  0  0  0  0  0  0  0  0  0  0
  -18.1782  -31.9442   22.5126 F   0  0  0  0  0  0  0  0  0  0  0  0
  1  2  1  0  0  0  0
  1  5  2  0  0  0  0
  2  6  2  0  0  0  0
  3  8  2  0  0  0  0
  3 15  1  0  0  0  0
  4  9  1  0  0  0  0
  4 15  2  0  0  0  0
  5 17  1  0  0  0  0
  6 19  1  0  0  0  0
  7 10  2  0  0  0  0
  7 18  1  0  0  0  0
  8 27  1  0  0  0  0
  9 27  2  0  0  0  0
 10 28  1  0  0  0  0
 11 12  2  0  0  0  0
 11 29  1  0  0  0  0
 12 30  1  0  0  0  0
 13 20  1  0  0  0  0
 13 28  2  0  0  0  0
 14 30  2  0  0  0  0
 14 31  1  0  0  0  0
 15 32  1  0  0  0  0
 16 32  1  0  0  0  0
 16 33  2  0  0  0  0
 16 34  1  0  0  0  0
 17 19  2  0  0  0  0
 17 39  1  0  0  0  0
 18 20  2  0  0  0  0
 18 40  1  0  0  0  0
 19 50  1  0  0  0  0
 20 42  1  0  0  0  0
 21 22  2  0  0  0  0
 21 23  1  0  0  0  0
 21 41  1  0  0  0  0
 22 24  1  0  0  0  0
 22 51  1  0  0  0  0
 23 26  2  0  0  0  0
 23 54  1  0  0  0  0
 24 25  2  0  0  0  0
 24 55  1  0  0  0  0
 25 26  1  0  0  0  0
 25 56  1  0  0  0  0
 26 62  1  0  0  0  0
 27 84  1  0  0  0  0
 28 85  1  0  0  0  0
 29 31  2  0  0  0  0
 29 84  1  0  0  0  0
 30 86  1  0  0  0  0
 31 87  1  0  0  0  0
 32 68  2  0  0  0  0
 33 69  1  0  0  0  0
 33 72  1  0  0  0  0
 34 73  1  0  0  0  0
 34 79  2  0  0  0  0
 35 52  1  0  0  0  0
 35 74  1  0  0  0  0
 35 80  2  0  0  0  0
 36 65  1  0  0  0  0
 36 70  1  0  0  0  0
 36 81  2  0  0  0  0
 37 66  1  0  0  0  0
 37 75  1  0  0  0  0
 37 82  2  0  0  0  0
 38 71  1  0  0  0  0
 38 76  1  0  0  0  0
 38 83  2  0  0  0  0
 39 43  1  0  0  0  0
 40 52  1  0  0  0  0
 41 44  1  0  0  0  0
 42 70  1  0  0  0  0
 43 46  1  0  0  0  0
 44 51  1  0  0  0  0
 45 47  1  0  0  0  0
 45 48  1  0  0  0  0
 46 50  1  0  0  0  0
 47 53  1  0  0  0  0
 48 71  1  0  0  0  0
 49 53  1  0  0  0  0
 49 71  1  0  0  0  0
 50 74  1  0  0  0  0
 51 77  1  0  0  0  0
 52 70  1  0  0  0  0
 53 69  1  0  0  0  0
 57 66  1  0  0  0  0
 58 67  1  0  0  0  0
 59 67  1  0  0  0  0
 60 67  1  0  0  0  0
 61 78  1  0  0  0  0
 62 76  1  0  0  0  0
 63 64  1  0  0  0  0
 63 77  1  0  0  0  0
 64 85  1  0  0  0  0
 65 67  1  0  0  0  0
 65 75  1  0  0  0  0
 66 78  1  0  0  0  0
 68 69  1  0  0  0  0
M  CHG  2  77   1  78   1
M  ISO  4  38 100  64 101  76 100  85 101
M  END
> <Batch ID>
0161

> <Smiles>
CNC(C)C(=O)NC(C(=O)N1Cc2cc([101O:1][101CH2:1]CNC3CCc4c(C)c(C[100NH:0][100C:0](=O)N5CCCC(n6nc(-c7ccc(Oc8ccc(F)cc8F)cc7)c(C(N)=O)c6N)C5)c(C)c(C)c43)ccc2CC1C(=O)NC1CCCc2ccccc21)C(C)(C)C

> <Shape>
0.213

> <Color>
0.086

> <Negative vol penalty>
0.000

$$$$

  -OEChem-04052322123D

 91100  0     1  0  0  0  0  0999 V2000
  -29.8672  -33.3237   16.0521 C   0  0  0  0  0  0  0  0  0  0  0  0
  -29.6780  -32.0218   16.5045 C   0  0  0  0  0  0  0  0  0  0  0  0
  -23.3579  -10.4560   21.3023 C   0  0  0  0  0  0  0  0  0  0  0  0
  -24.8349   -8.7183   22.0998 C   0  0  0  0  0  0  0  0  0  0  0  0
  -29.5211  -34.4009   16.8669 C   0  0  0  0  0  0  0  0  0  0  0  0
  -29.1437  -31.7963   17.7726 C   0  0  0  0  0  0  0  0  0  0  0  0
  -25.4360  -27.2176   19.4441 C   0  0  0  0  0  0  0  0  0  0  0  0
  -22.3337   -9.5199   21.1594 C   0  0  0  0  0  0  0  0  0  0  0  0
  -23.8107   -7.7822   21.9570 C   0  0  0  0  0  0  0  0  0  0  0  0
  -25.6758  -26.0026   20.0845 C   0  0  0  0  0  0  0  0  0  0  0  0
  -21.0487   -6.8354   23.6586 C   0  0  0  0  0  0  0  0  0  0  0  0
  -20.8496   -5.9306   24.7014 C   0  0  0  0  0  0  0  0  0  0  0  0
  -25.0884  -27.0073   22.1975 C   0  0  0  0  0  0  0  0  0  0  0  0
  -21.2788   -4.0948   23.1905 C   0  0  0  0  0  0  0  0  0  0  0  0
  -24.6085  -10.0552   21.7724 C   0  0  0  0  0  0  0  0  0  0  0  0
  -25.9605  -11.7939   23.0595 C   0  0  0  0  0  0  0  0  0  0  0  0
  -28.9732  -34.1884   18.1418 C   0  0  0  0  0  0  0  0  0  0  0  0
  -25.0304  -28.3413   20.1784 C   0  0  0  0  0  0  0  0  0  0  0  0
  -28.7912  -32.8716   18.6058 C   0  0  0  0  0  0  0  0  0  0  0  0
  -24.8417  -28.2347   21.5637 C   0  0  0  0  0  0  0  0  0  0  0  0
  -28.3153  -19.0730   19.4435 C   0  0  0  0  0  0  0  0  0  0  0  0
  -28.5262  -20.4043   19.7666 C   0  0  0  0  0  0  0  0  0  0  0  0
  -29.7640  -20.7705   20.2961 C   0  0  0  0  0  0  0  0  0  0  0  0
  -30.5501  -18.4711   20.1509 C   0  0  0  0  0  0  0  0  0  0  0  0
  -29.3147  -18.1162   19.6290 C   0  0  0  0  0  0  0  0  0  0  0  0
  -22.5601   -8.1831   21.4868 C   0  0  0  0  0  0  0  0  0  0  0  0
  -25.5048  -25.8981   21.4618 C   0  0  0  0  0  0  0  0  0  0  0  0
  -21.3627   -6.3699   22.3817 C   0  0  0  0  0  0  0  0  0  0  0  0
  -30.7685  -19.8105   20.4866 C   0  0  0  0  0  0  0  0  0  0  0  0
  -20.9647   -4.5603   24.4673 C   0  0  0  0  0  0  0  0  0  0  0  0
  -21.4778   -4.9996   22.1477 C   0  0  0  0  0  0  0  0  0  0  0  0
  -25.6670  -11.0216   21.9197 C   0  0  0  0  0  0  0  0  0  0  0  0
  -27.0479  -12.5484   22.6924 C   0  0  0  0  0  0  0  0  0  0  0  0
  -25.3086  -11.8263   24.3361 C   0  0  0  0  0  0  0  0  0  0  0  0
  -26.2532  -31.2238   20.7262 C   0  0  0  0  0  0  0  0  0  0  0  0
  -23.4074  -31.7226   22.2009 C   0  0  0  0  0  0  0  0  0  0  0  0
  -20.6835  -30.3912   23.7676 C   0  0  0  0  0  0  0  0  0  0  0  0
  -29.6789  -15.7467   18.9726 C   0  0  0  0  0  0  0  0  0  0  0  0
  -28.6585  -35.3843   19.0052 C   0  0  0  0  0  0  0  0  0  0  0  0
  -24.7501  -29.6376   19.4689 C   0  0  0  0  0  0  0  0  0  0  0  0
  -27.1008  -18.4760   18.8090 C   0  0  0  0  0  0  0  0  0  0  0  0
  -24.3881  -29.4061   22.3947 C   0  0  0  0  0  0  0  0  0  0  0  0
  -27.7495  -35.0595   20.1878 C   0  0  0  0  0  0  0  0  0  0  0  0
  -30.0810  -12.2493   18.6779 C   0  0  0  0  0  0  0  0  0  0  0  0
  -28.2312  -33.8004   20.9014 C   0  0  0  0  0  0  0  0  0  0  0  0
  -28.9759  -11.6715   19.5580 C   0  0  0  0  0  0  0  0  0  0  0  0
  -27.4117  -16.9763   18.8954 C   0  0  0  0  0  0  0  0  0  0  0  0
  -29.5953  -13.4945   17.9486 C   0  0  0  0  0  0  0  0  0  0  0  0
  -28.0075  -14.0181   19.7831 C   0  0  0  0  0  0  0  0  0  0  0  0
  -28.1911  -32.5863   19.9654 C   0  0  1  0  0  0  0  0  0  0  0  0
  -24.8372  -30.8525   20.3876 C   0  0  1  0  0  0  0  0  0  0  0  0
  -28.4414  -12.7379   20.5265 C   0  0  1  0  0  0  0  0  0  0  0  0
  -27.4535  -21.4162   19.5414 C   0  0  0  0  0  0  0  0  0  0  0  0
  -31.6174  -17.4838   20.4879 C   0  0  0  0  0  0  0  0  0  0  0  0
  -31.1354  -22.7806   19.7569 C   0  0  0  0  0  0  0  0  0  0  0  0
  -18.5423  -31.0518   24.8973 C   0  0  0  0  0  0  0  0  0  0  0  0
  -31.1504  -23.6940   22.4508 C   0  0  0  0  0  0  0  0  0  0  0  0
  -24.9797  -32.5935   24.6665 C   0  0  0  0  0  0  0  0  0  0  0  0
  -22.8859  -32.3215   26.0119 C   0  0  0  0  0  0  0  0  0  0  0  0
  -22.9697  -33.9937   24.1627 C   0  0  0  0  0  0  0  0  0  0  0  0
  -19.0502  -28.9021   21.7994 C   0  0  0  0  0  0  0  0  0  0  0  0
  -33.1262  -19.9751   20.2229 C   0  0  0  0  0  0  0  0  0  0  0  0
  -27.0192  -23.5420   23.7593 C   0  0  0  0  0  0  0  0  0  0  0  0
  -29.1113  -22.3516   23.0921 C   0  0  0  0  0  0  0  0  0  0  0  0
  -26.1914  -24.7712   23.4404 C   0  0  0  0  0  0  0  0  0  1  0  0
  -30.0267  -22.1973   20.6634 C   0  0  2  0  0  0  0  0  0  0  0  0
  -22.8814  -31.5298   23.6027 C   0  0  1  0  0  0  0  0  0  0  0  0
  -19.1967  -30.6395   23.5879 C   0  0  2  0  0  0  0  0  0  0  0  0
  -30.3579  -22.4042   22.1862 C   0  0  1  0  0  0  0  0  0  0  0  0
  -23.4396  -32.5879   24.5959 C   0  0  0  0  0  0  0  0  0  0  0  0
  -26.5006  -11.2634   20.9044 N   0  0  0  0  0  0  0  0  0  0  0  0
  -27.3284  -12.1962   21.4050 N   0  0  0  0  0  0  0  0  0  0  0  0
  -28.8515  -16.8421   19.2291 N   0  0  0  0  0  0  0  0  0  0  0  0
  -24.1329  -30.6537   21.6559 N   0  0  0  0  0  0  0  0  0  0  0  0
  -29.0582  -14.4926   18.8744 N   0  0  0  0  0  0  0  0  0  0  0  0
  -27.7817  -13.4723   23.3484 N   0  0  0  0  0  0  0  0  0  0  0  0
  -24.2063  -10.9863   24.5449 N   0  0  0  0  0  0  0  0  0  0  0  0
  -26.8356  -32.0982   19.8286 N   0  0  0  0  0  0  0  0  0  0  0  0
  -21.4265  -31.5203   23.4951 N   0  0  0  0  0  0  0  0  0  0  0  0
  -18.5217  -29.4064   23.0930 N   0  3  0  0  0  0  0  0  0  0  0  0
  -28.2031  -23.4992   22.8573 N   0  3  0  0  0  0  0  0  0  0  0  0
  -25.6820  -12.5898   25.2586 O   0  0  0  0  0  0  0  0  0  0  0  0
  -26.7780  -30.7530   21.7285 O   0  0  0  0  0  0  0  0  0  0  0  0
  -23.1767  -32.7797   21.6085 O   0  0  0  0  0  0  0  0  0  0  0  0
  -21.1399  -29.3053   24.1185 O   0  0  0  0  0  0  0  0  0  0  0  0
  -30.8931  -15.8680   18.7687 O   0  0  0  0  0  0  0  0  0  0  0  0
  -21.5608   -7.2694   21.3477 O   0  0  0  0  0  0  0  0  0  0  0  0
  -31.9670  -20.1909   21.0217 O   0  0  0  0  0  0  0  0  0  0  0  0
  -25.7405  -24.7050   22.0940 O   0  0  0  0  0  0  0  0  0  1  0  0
  -20.7750   -3.6917   25.4691 F   0  0  0  0  0  0  0  0  0  0  0  0
  -21.7804   -4.5465   20.9234 F   0  0  0  0  0  0  0  0  0  0  0  0
  1  2  1  0  0  0  0
  1  5  2  0  0  0  0
  2  6  2  0  0  0  0
  3  8  2  0  0  0  0
  3 15  1  0  0  0  0
  4  9  1  0  0  0  0
  4 15  2  0  0  0  0
  5 17  1  0  0  0  0
  6 19  1  0  0  0  0
  7 10  2  0  0  0  0
  7 18  1  0  0  0  0
  8 26  1  0  0  0  0
  9 26  2  0  0  0  0
 10 27  1  0  0  0  0
 11 12  2  0  0  0  0
 11 28  1  0  0  0  0
 12 30  1  0  0  0  0
 13 20  1  0  0  0  0
 13 27  2  0  0  0  0
 14 30  2  0  0  0  0
 14 31  1  0  0  0  0
 15 32  1  0  0  0  0
 16 32  1  0  0  0  0
 16 33  2  0  0  0  0
 16 34  1  0  0  0  0
 17 19  2  0  0  0  0
 17 39  1  0  0  0  0
 18 20  2  0  0  0  0
 18 40  1  0  0  0  0
 19 50  1  0  0  0  0
 20 42  1  0  0  0  0
 21 22  2  0  0  0  0
 21 25  1  0  0  0  0
 21 41  1  0  0  0  0
 22 23  1  0  0  0  0
 22 53  1  0  0  0  0
 23 29  2  0  0  0  0
 23 66  1  0  0  0  0
 24 25  2  0  0  0  0
 24 29  1  0  0  0  0
 24 54  1  0  0  0  0
 25 73  1  0  0  0  0
 26 87  1  0  0  0  0
 27 89  1  0  0  0  0
 28 31  2  0  0  0  0
 28 87  1  0  0  0  0
 29 88  1  0  0  0  0
 30 90  1  0  0  0  0
 31 91  1  0  0  0  0
 32 71  2  0  0  0  0
 33 72  1  0  0  0  0
 33 76  1  0  0  0  0
 34 77  1  0  0  0  0
 34 82  2  0  0  0  0
 35 51  1  0  0  0  0
 35 78  1  0  0  0  0
 35 83  2  0  0  0  0
 36 67  1  0  0  0  0
 36 74  1  0  0  0  0
 36 84  2  0  0  0  0
 37 68  1  0  0  0  0
 37 79  1  0  0  0  0
 37 85  2  0  0  0  0
 38 73  1  0  0  0  0
 38 75  1  0  0  0  0
 38 86  2  0  0  0  0
 39 43  1  0  0  0  0
 40 51  1  0  0  0  0
 41 47  1  0  0  0  0
 42 74  1  0  0  0  0
 43 45  1  0  0  0  0
 44 46  1  0  0  0  0
 44 48  1  0  0  0  0
 45 50  1  0  0  0  0
 46 52  1  0  0  0  0
 47 73  1  0  0  0  0
 48 75  1  0  0  0  0
 49 52  1  0  0  0  0
 49 75  1  0  0  0  0
 50 78  1  0  0  0  0
 51 74  1  0  0  0  0
 52 72  1  0  0  0  0
 55 66  1  0  0  0  0
 56 68  1  0  0  0  0
 57 69  1  0  0  0  0
 58 70  1  0  0  0  0
 59 70  1  0  0  0  0
 60 70  1  0  0  0  0
 61 80  1  0  0  0  0
 62 88  1  0  0  0  0
 63 65  1  0  0  0  0
 63 81  1  0  0  0  0
 64 69  1  0  0  0  0
 64 81  1  0  0  0  0
 65 89  1  0  0  0  0
 66 69  1  0  0  0  0
 67 70  1  0  0  0  0
 67 79  1  0  0  0  0
 68 80  1  0  0  0  0
 71 72  1  0  0  0  0
M  CHG  2  80   1  81   1
M  ISO  4  38 100  65 101  73 100  89 101
M  END
> <Batch ID>
0161

> <Smiles>
CNC(C)C(=O)NC(C(=O)N1Cc2cc([101O:1][101CH2:1]CNCC(C)C(C)c3c(C)c4c(c(C)c3OC)[100N:0]([100C:0](=O)N3CCCC(n5nc(-c6ccc(Oc7ccc(F)cc7F)cc6)c(C(N)=O)c5N)C3)CC4)ccc2CC1C(=O)NC1CCCc2ccccc21)C(C)(C)C

> <Shape>
0.286

> <Color>
0.081

> <Negative vol penalty>
0.000

$$$$

  -OEChem-04052322123D

 87 96  0     1  0  0  0  0  0999 V2000
  -27.2631  -35.8565   23.0680 C   0  0  0  0  0  0  0  0  0  0  0  0
  -27.6218  -34.5224   22.9046 C   0  0  0  0  0  0  0  0  0  0  0  0
  -21.0749  -10.0983   20.7761 C   0  0  0  0  0  0  0  0  0  0  0  0
  -23.2635   -9.6328   21.6873 C   0  0  0  0  0  0  0  0  0  0  0  0
  -25.9694  -36.1851   23.4709 C   0  0  0  0  0  0  0  0  0  0  0  0
  -26.6872  -33.5158   23.1451 C   0  0  0  0  0  0  0  0  0  0  0  0
  -26.7076  -29.9471   19.5522 C   0  0  0  0  0  0  0  0  0  0  0  0
  -20.7694   -8.7379   20.8147 C   0  0  0  0  0  0  0  0  0  0  0  0
  -22.9580   -8.2723   21.7260 C   0  0  0  0  0  0  0  0  0  0  0  0
  -27.7295  -29.0000   19.6012 C   0  0  0  0  0  0  0  0  0  0  0  0
  -22.6228   -4.7158   22.4019 C   0  0  0  0  0  0  0  0  0  0  0  0
  -22.9560   -4.0081   23.5568 C   0  0  0  0  0  0  0  0  0  0  0  0
  -27.5684  -19.5879   20.1226 C   0  0  0  0  0  0  0  0  0  0  0  0
  -26.2166  -27.4298   20.6330 C   0  0  0  0  0  0  0  0  0  0  0  0
  -28.7714  -19.3927   22.6321 C   0  0  0  0  0  0  0  0  0  0  0  0
  -21.5306   -5.4611   24.8584 C   0  0  0  0  0  0  0  0  0  0  0  0
  -22.3219  -10.5458   21.2124 C   0  0  0  0  0  0  0  0  0  0  0  0
  -22.4181  -12.9012   22.1872 C   0  0  0  0  0  0  0  0  0  0  0  0
  -25.0157  -35.1824   23.7071 C   0  0  0  0  0  0  0  0  0  0  0  0
  -25.4333  -29.6459   20.0539 C   0  0  0  0  0  0  0  0  0  0  0  0
  -25.3799  -33.8311   23.5528 C   0  0  0  0  0  0  0  0  0  0  0  0
  -28.2067  -20.6967   20.6782 C   0  0  0  0  0  0  0  0  0  0  0  0
  -25.1795  -28.3740   20.5867 C   0  0  0  0  0  0  0  0  0  0  0  0
  -28.8082  -20.5991   21.9329 C   0  0  0  0  0  0  0  0  0  0  0  0
  -28.1330  -18.2838   22.0765 C   0  0  0  0  0  0  0  0  0  0  0  0
  -27.5314  -18.3815   20.8218 C   0  0  0  0  0  0  0  0  0  0  0  0
  -21.7109   -7.8249   21.2897 C   0  0  0  0  0  0  0  0  0  0  0  0
  -27.4849  -27.7421   20.1443 C   0  0  0  0  0  0  0  0  0  0  0  0
  -21.7435   -5.7962   22.4753 C   0  0  0  0  0  0  0  0  0  0  0  0
  -22.4099   -4.3807   24.7850 C   0  0  0  0  0  0  0  0  0  0  0  0
  -21.1974   -6.1688   23.7035 C   0  0  0  0  0  0  0  0  0  0  0  0
  -22.6383  -11.9509   21.1722 C   0  0  0  0  0  0  0  0  0  0  0  0
  -22.8885  -14.0799   21.6619 C   0  0  0  0  0  0  0  0  0  0  0  0
  -21.8401  -12.7335   23.4886 C   0  0  0  0  0  0  0  0  0  0  0  0
  -23.6047  -30.8109   22.3783 C   0  0  0  0  0  0  0  0  0  0  0  0
  -21.4166  -28.7500   21.1589 C   0  0  0  0  0  0  0  0  0  0  0  0
  -20.7922  -25.9063   19.3783 C   0  0  0  0  0  0  0  0  0  0  0  0
  -26.7462  -16.9778   18.8829 C   0  0  0  0  0  0  0  0  0  0  0  0
  -23.6434  -35.5843   24.1868 C   0  0  0  0  0  0  0  0  0  0  0  0
  -24.3344  -30.6694   19.9692 C   0  0  0  0  0  0  0  0  0  0  0  0
  -23.8232  -27.9938   21.1202 C   0  0  0  0  0  0  0  0  0  0  0  0
  -22.6040  -34.4737   24.0589 C   0  0  0  0  0  0  0  0  0  0  0  0
  -24.3086  -15.2500   16.9464 C   0  0  0  0  0  0  0  0  0  0  0  0
  -23.1622  -33.1565   24.5883 C   0  0  0  0  0  0  0  0  0  0  0  0
  -23.6386  -14.3158   17.9567 C   0  0  0  0  0  0  0  0  0  0  0  0
  -29.6443  -22.4432   19.5373 C   0  0  0  0  0  0  0  0  0  0  0  0
  -25.8056  -15.3950   17.2141 C   0  0  0  0  0  0  0  0  0  0  0  0
  -25.4861  -14.8519   19.5957 C   0  0  0  0  0  0  0  0  0  0  0  0
  -28.3044  -22.4055   17.5996 C   0  0  0  0  0  0  0  0  0  0  0  0
  -24.3871  -32.7118   23.7801 C   0  0  1  0  0  0  0  0  0  0  0  0
  -28.2339  -21.9904   19.9037 C   0  0  1  0  0  0  0  0  0  0  0  0
  -23.2154  -30.4295   20.9780 C   0  0  1  0  0  0  0  0  0  0  0  0
  -23.9657  -14.7255   19.4061 C   0  0  2  0  0  0  0  0  0  0  0  0
  -29.4356  -23.1820   18.2379 C   0  0  1  0  0  0  0  0  0  0  0  0
  -29.4976  -21.7727   22.5477 C   0  0  0  0  0  0  0  0  0  0  0  0
  -28.1087  -17.0042   22.8478 C   0  0  0  0  0  0  0  0  0  0  0  0
  -18.9062  -24.4556   18.5807 C   0  0  0  0  0  0  0  0  0  0  0  0
  -21.1052  -27.6118   23.9727 C   0  0  0  0  0  0  0  0  0  0  0  0
  -19.9789  -25.6156   22.9654 C   0  0  0  0  0  0  0  0  0  0  0  0
  -18.9617  -27.8793   22.7125 C   0  0  0  0  0  0  0  0  0  0  0  0
  -21.4959  -26.3527   16.5385 C   0  0  0  0  0  0  0  0  0  0  0  0
  -30.0578  -25.4939   18.9500 C   0  0  0  0  0  0  0  0  0  0  0  0
  -29.4747  -26.8756   19.1717 C   0  0  0  0  0  0  0  0  0  1  0  0
  -21.0513  -27.3068   21.4095 C   0  0  1  0  0  0  0  0  0  0  0  0
  -19.8247  -25.6200   18.2441 C   0  0  2  0  0  0  0  0  0  0  0  0
  -20.3005  -27.1109   22.7569 C   0  0  0  0  0  0  0  0  0  0  0  0
  -23.2044  -12.4801   20.0843 N   0  0  0  0  0  0  0  0  0  0  0  0
  -23.3437  -13.7758   20.4127 N   0  0  0  0  0  0  0  0  0  0  0  0
  -22.7832  -29.0311   21.0209 N   0  0  0  0  0  0  0  0  0  0  0  0
  -26.0388  -15.7890   18.6052 N   0  0  0  0  0  0  0  0  0  0  0  0
  -22.9528  -15.3364   22.1512 N   0  0  0  0  0  0  0  0  0  0  0  0
  -21.4092  -11.4551   23.8685 N   0  0  0  0  0  0  0  0  0  0  0  0
  -26.8780  -17.2665   20.2408 N   0  0  0  0  0  0  0  0  0  0  0  0
  -23.9774  -32.1342   22.5180 N   0  0  0  0  0  0  0  0  0  0  0  0
  -20.3016  -26.8661   20.2381 N   0  0  0  0  0  0  0  0  0  0  0  0
  -28.9790  -24.5705   18.5167 N   0  3  0  0  0  0  0  0  0  0  0  0
  -20.5713  -25.2849   16.9986 N   0  3  0  0  0  0  0  0  0  0  0  0
  -21.6947  -13.6921   24.2844 O   0  0  0  0  0  0  0  0  0  0  0  0
  -23.5682  -29.9674   23.2665 O   0  0  0  0  0  0  0  0  0  0  0  0
  -20.5218  -29.5955   21.0811 O   0  0  0  0  0  0  0  0  0  0  0  0
  -21.8733  -25.3329   19.4924 O   0  0  0  0  0  0  0  0  0  0  0  0
  -27.1778  -17.7017   17.9819 O   0  0  0  0  0  0  0  0  0  0  0  0
  -27.5013  -21.8776   18.6669 O   0  0  0  0  0  0  0  0  0  0  0  0
  -21.4131   -6.4973   21.3277 O   0  0  0  0  0  0  0  0  0  0  0  0
  -28.4808  -26.8161   20.1940 O   0  0  0  0  0  0  0  0  0  1  0  0
  -22.7287   -3.7000   25.8937 F   0  0  0  0  0  0  0  0  0  0  0  0
  -20.3513   -7.2051   23.7801 F   0  0  0  0  0  0  0  0  0  0  0  0
  1  2  1  0  0  0  0
  1  5  2  0  0  0  0
  2  6  2  0  0  0  0
  3  8  2  0  0  0  0
  3 17  1  0  0  0  0
  4  9  1  0  0  0  0
  4 17  2  0  0  0  0
  5 19  1  0  0  0  0
  6 21  1  0  0  0  0
  7 10  2  0  0  0  0
  7 20  1  0  0  0  0
  8 27  1  0  0  0  0
  9 27  2  0  0  0  0
 10 28  1  0  0  0  0
 11 12  2  0  0  0  0
 11 29  1  0  0  0  0
 12 30  1  0  0  0  0
 13 22  1  0  0  0  0
 13 26  2  0  0  0  0
 14 23  1  0  0  0  0
 14 28  2  0  0  0  0
 15 24  1  0  0  0  0
 15 25  2  0  0  0  0
 16 30  2  0  0  0  0
 16 31  1  0  0  0  0
 17 32  1  0  0  0  0
 18 32  1  0  0  0  0
 18 33  2  0  0  0  0
 18 34  1  0  0  0  0
 19 21  2  0  0  0  0
 19 39  1  0  0  0  0
 20 23  2  0  0  0  0
 20 40  1  0  0  0  0
 21 50  1  0  0  0  0
 22 24  2  0  0  0  0
 22 51  1  0  0  0  0
 23 41  1  0  0  0  0
 24 55  1  0  0  0  0
 25 26  1  0  0  0  0
 25 56  1  0  0  0  0
 26 73  1  0  0  0  0
 27 84  1  0  0  0  0
 28 85  1  0  0  0  0
 29 31  2  0  0  0  0
 29 84  1  0  0  0  0
 30 86  1  0  0  0  0
 31 87  1  0  0  0  0
 32 67  2  0  0  0  0
 33 68  1  0  0  0  0
 33 71  1  0  0  0  0
 34 72  1  0  0  0  0
 34 78  2  0  0  0  0
 35 52  1  0  0  0  0
 35 74  1  0  0  0  0
 35 79  2  0  0  0  0
 36 64  1  0  0  0  0
 36 69  1  0  0  0  0
 36 80  2  0  0  0  0
 37 65  1  0  0  0  0
 37 75  1  0  0  0  0
 37 81  2  0  0  0  0
 38 70  1  0  0  0  0
 38 73  1  0  0  0  0
 38 82  2  0  0  0  0
 39 42  1  0  0  0  0
 40 52  1  0  0  0  0
 41 69  1  0  0  0  0
 42 44  1  0  0  0  0
 43 45  1  0  0  0  0
 43 47  1  0  0  0  0
 44 50  1  0  0  0  0
 45 53  1  0  0  0  0
 46 51  1  0  0  0  0
 46 54  1  0  0  0  0
 47 70  1  0  0  0  0
 48 53  1  0  0  0  0
 48 70  1  0  0  0  0
 49 54  1  0  0  0  0
 49 83  1  0  0  0  0
 50 74  1  0  0  0  0
 51 83  1  0  0  0  0
 52 69  1  0  0  0  0
 53 68  1  0  0  0  0
 54 76  1  0  0  0  0
 57 65  1  0  0  0  0
 58 66  1  0  0  0  0
 59 66  1  0  0  0  0
 60 66  1  0  0  0  0
 61 77  1  0  0  0  0
 62 63  1  0  0  0  0
 62 76  1  0  0  0  0
 63 85  1  0  0  0  0
 64 66  1  0  0  0  0
 64 75  1  0  0  0  0
 65 77  1  0  0  0  0
 67 68  1  0  0  0  0
M  CHG  2  76   1  77   1
M  ISO  4  38 100  63 101  73 100  85 101
M  END
> <Batch ID>
0161

> <Smiles>
CNC(C)C(=O)NC(C(=O)N1Cc2cc([101O:1][101CH2:1]CNC3COC(c4cc([100NH:0][100C:0](=O)N5CCCC(n6nc(-c7ccc(Oc8ccc(F)cc8F)cc7)c(C(N)=O)c6N)C5)c(C)cc4C)C3)ccc2CC1C(=O)NC1CCCc2ccccc21)C(C)(C)C

> <Shape>
0.337

> <Color>
0.078

> <Negative vol penalty>
0.000

$$$$

  -OEChem-04052322123D

 90 99  0     1  0  0  0  0  0999 V2000
  -29.3430  -30.3752   26.8922 C   0  0  0  0  0  0  0  0  0  0  0  0
  -29.0814  -29.5240   25.8235 C   0  0  0  0  0  0  0  0  0  0  0  0
  -23.0660   -9.7921   20.8222 C   0  0  0  0  0  0  0  0  0  0  0  0
  -22.7235  -12.0754   21.5337 C   0  0  0  0  0  0  0  0  0  0  0  0
  -28.2899  -31.0047   27.5546 C   0  0  0  0  0  0  0  0  0  0  0  0
  -27.7663  -29.3008   25.4171 C   0  0  0  0  0  0  0  0  0  0  0  0
  -27.2287  -29.4921   20.3853 C   0  0  0  0  0  0  0  0  0  0  0  0
  -21.9899   -9.3850   21.6108 C   0  0  0  0  0  0  0  0  0  0  0  0
  -21.6473  -11.6683   22.3222 C   0  0  0  0  0  0  0  0  0  0  0  0
  -27.6354  -28.3740   19.6585 C   0  0  0  0  0  0  0  0  0  0  0  0
  -18.6140   -9.4111   21.4232 C   0  0  0  0  0  0  0  0  0  0  0  0
  -17.6949   -8.5266   20.8589 C   0  0  0  0  0  0  0  0  0  0  0  0
  -29.1336  -22.6715   15.9312 C   0  0  0  0  0  0  0  0  0  0  0  0
  -25.3406  -27.6464   19.5052 C   0  0  0  0  0  0  0  0  0  0  0  0
  -18.1850   -6.9132   22.5892 C   0  0  0  0  0  0  0  0  0  0  0  0
  -23.4329  -11.1374   20.7837 C   0  0  0  0  0  0  0  0  0  0  0  0
  -29.7331  -22.8057   17.1835 C   0  0  0  0  0  0  0  0  0  0  0  0
  -24.5052  -11.9718   18.6247 C   0  0  0  0  0  0  0  0  0  0  0  0
  -26.9619  -30.7966   27.1500 C   0  0  0  0  0  0  0  0  0  0  0  0
  -25.8738  -29.6905   20.6873 C   0  0  0  0  0  0  0  0  0  0  0  0
  -26.6943  -29.9270   26.0755 C   0  0  0  0  0  0  0  0  0  0  0  0
  -24.9190  -28.7692   20.2337 C   0  0  0  0  0  0  0  0  0  0  0  0
  -28.3225  -23.6914   15.4334 C   0  0  0  0  0  0  0  0  0  0  0  0
  -29.5215  -23.9597   17.9380 C   0  0  0  0  0  0  0  0  0  0  0  0
  -28.1110  -24.8453   16.1878 C   0  0  0  0  0  0  0  0  0  0  0  0
  -28.7105  -24.9795   17.4401 C   0  0  0  0  0  0  0  0  0  0  0  0
  -21.2806  -10.3231   22.3607 C   0  0  0  0  0  0  0  0  0  0  0  0
  -26.6916  -27.4495   19.2208 C   0  0  0  0  0  0  0  0  0  0  0  0
  -19.3187   -9.0466   22.5705 C   0  0  0  0  0  0  0  0  0  0  0  0
  -17.4803   -7.2777   21.4419 C   0  0  0  0  0  0  0  0  0  0  0  0
  -19.1042   -7.7977   23.1535 C   0  0  0  0  0  0  0  0  0  0  0  0
  -24.5448  -11.5585   19.9698 C   0  0  0  0  0  0  0  0  0  0  0  0
  -25.8114  -12.2646   18.3169 C   0  0  0  0  0  0  0  0  0  0  0  0
  -30.5748  -21.7237   17.6770 C   0  0  0  0  0  0  0  0  0  0  0  0
  -23.3877  -12.0815   17.7332 C   0  0  0  0  0  0  0  0  0  0  0  0
  -24.1789  -29.8869   23.3692 C   0  0  0  0  0  0  0  0  0  0  0  0
  -30.6630  -14.6852   19.6923 C   0  0  0  0  0  0  0  0  0  0  0  0
  -21.7707  -30.6430   21.3318 C   0  0  0  0  0  0  0  0  0  0  0  0
  -20.4812  -30.4645   18.1771 C   0  0  0  0  0  0  0  0  0  0  0  0
  -25.8536  -31.4622   27.9268 C   0  0  0  0  0  0  0  0  0  0  0  0
  -25.4484  -30.9156   21.4493 C   0  0  0  0  0  0  0  0  0  0  0  0
  -23.4499  -28.9467   20.5142 C   0  0  0  0  0  0  0  0  0  0  0  0
  -24.5138  -31.4652   27.1952 C   0  0  0  0  0  0  0  0  0  0  0  0
  -30.0851  -11.3420   20.8451 C   0  0  0  0  0  0  0  0  0  0  0  0
  -24.2187  -30.0853   26.6159 C   0  0  0  0  0  0  0  0  0  0  0  0
  -30.6955  -17.6520   20.1149 C   0  0  0  0  0  0  0  0  0  0  0  0
  -28.5840  -11.1452   20.6378 C   0  0  0  0  0  0  0  0  0  0  0  0
  -30.5530  -19.1535   19.8449 C   0  0  0  0  0  0  0  0  0  0  0  0
  -30.1048  -17.9978   17.7943 C   0  0  0  0  0  0  0  0  0  0  0  0
  -30.4101  -12.7777   21.2453 C   0  0  0  0  0  0  0  0  0  0  0  0
  -28.3905  -13.6112   20.0842 C   0  0  0  0  0  0  0  0  0  0  0  0
  -25.2829  -29.6789   25.5893 C   0  0  1  0  0  0  0  0  0  0  0  0
  -24.0992  -30.7499   22.1419 C   0  0  1  0  0  0  0  0  0  0  0  0
  -30.7233  -16.9701   18.7408 C   0  0  2  0  0  0  0  0  0  0  0  0
  -28.0220  -12.1818   19.6489 C   0  0  2  0  0  0  0  0  0  0  0  0
  -30.6658  -19.3075   18.3307 C   0  0  1  0  0  0  0  0  0  0  0  0
  -27.6923  -23.5226   14.0896 C   0  0  0  0  0  0  0  0  0  0  0  0
  -30.1634  -24.1035   19.2822 C   0  0  0  0  0  0  0  0  0  0  0  0
  -27.2402  -25.9375   15.6518 C   0  0  0  0  0  0  0  0  0  0  0  0
  -30.0206  -15.0060   17.3317 C   0  0  0  0  0  0  0  0  0  0  0  0
  -18.4785  -31.1441   16.8262 C   0  0  0  0  0  0  0  0  0  0  0  0
  -20.1438  -28.4083   22.6239 C   0  0  0  0  0  0  0  0  0  0  0  0
  -18.5899  -28.5005   20.6630 C   0  0  0  0  0  0  0  0  0  0  0  0
  -18.8513  -30.4938   22.1398 C   0  0  0  0  0  0  0  0  0  0  0  0
  -22.1275  -32.1107   16.3498 C   0  0  0  0  0  0  0  0  0  0  0  0
  -28.4825  -26.2205   18.2521 C   0  0  0  0  0  0  0  0  0  1  0  0
  -30.0045  -15.6316   18.7204 C   0  0  1  0  0  0  0  0  0  0  0  0
  -20.7290  -29.8595   20.5702 C   0  0  1  0  0  0  0  0  0  0  0  0
  -19.8813  -31.5259   17.2726 C   0  0  2  0  0  0  0  0  0  0  0  0
  -19.6063  -29.3109   21.4954 C   0  0  0  0  0  0  0  0  0  0  0  0
  -25.7784  -11.5847   20.4812 N   0  0  0  0  0  0  0  0  0  0  0  0
  -26.5261  -12.0180   19.4520 N   0  0  0  0  0  0  0  0  0  0  0  0
  -23.0844  -30.1572   21.2683 N   0  0  0  0  0  0  0  0  0  0  0  0
  -29.8399  -13.7326   20.2934 N   0  0  0  0  0  0  0  0  0  0  0  0
  -26.4068  -12.7062   17.1887 N   0  0  0  0  0  0  0  0  0  0  0  0
  -22.1152  -11.7407   18.2118 N   0  0  0  0  0  0  0  0  0  0  0  0
  -29.9708  -20.4717   17.8304 N   0  0  0  0  0  0  0  0  0  0  0  0
  -25.0546  -30.3549   24.3302 N   0  0  0  0  0  0  0  0  0  0  0  0
  -20.2518  -30.7392   19.5087 N   0  0  0  0  0  0  0  0  0  0  0  0
  -20.7267  -31.7104   16.0592 N   0  3  0  0  0  0  0  0  0  0  0  0
  -31.7659  -21.9335   17.9615 O   0  0  0  0  0  0  0  0  0  0  0  0
  -23.5161  -12.4545   16.5424 O   0  0  0  0  0  0  0  0  0  0  0  0
  -23.4953  -28.8722   23.4398 O   0  0  0  0  0  0  0  0  0  0  0  0
  -31.8734  -14.7891   19.9075 O   0  0  0  0  0  0  0  0  0  0  0  0
  -21.4325  -31.6529   21.9541 O   0  0  0  0  0  0  0  0  0  0  0  0
  -21.0890  -29.4874   17.7454 O   0  0  0  0  0  0  0  0  0  0  0  0
  -20.2303   -9.9262   23.1301 O   0  0  0  0  0  0  0  0  0  0  0  0
  -27.0860  -26.3569   18.5118 O   0  0  0  0  0  0  0  0  0  1  0  0
  -16.5965   -6.4290   20.9007 F   0  0  0  0  0  0  0  0  0  0  0  0
  -19.7773   -7.4425   24.2565 F   0  0  0  0  0  0  0  0  0  0  0  0
  1  2  1  0  0  0  0
  1  5  2  0  0  0  0
  2  6  2  0  0  0  0
  3  8  2  0  0  0  0
  3 16  1  0  0  0  0
  4  9  1  0  0  0  0
  4 16  2  0  0  0  0
  5 19  1  0  0  0  0
  6 21  1  0  0  0  0
  7 10  2  0  0  0  0
  7 20  1  0  0  0  0
  8 27  1  0  0  0  0
  9 27  2  0  0  0  0
 10 28  1  0  0  0  0
 11 12  2  0  0  0  0
 11 29  1  0  0  0  0
 12 30  1  0  0  0  0
 13 17  2  0  0  0  0
 13 23  1  0  0  0  0
 14 22  1  0  0  0  0
 14 28  2  0  0  0  0
 15 30  2  0  0  0  0
 15 31  1  0  0  0  0
 16 32  1  0  0  0  0
 17 24  1  0  0  0  0
 17 34  1  0  0  0  0
 18 32  1  0  0  0  0
 18 33  2  0  0  0  0
 18 35  1  0  0  0  0
 19 21  2  0  0  0  0
 19 40  1  0  0  0  0
 20 22  2  0  0  0  0
 20 41  1  0  0  0  0
 21 52  1  0  0  0  0
 22 42  1  0  0  0  0
 23 25  2  0  0  0  0
 23 57  1  0  0  0  0
 24 26  2  0  0  0  0
 24 58  1  0  0  0  0
 25 26  1  0  0  0  0
 25 59  1  0  0  0  0
 26 66  1  0  0  0  0
 27 87  1  0  0  0  0
 28 88  1  0  0  0  0
 29 31  2  0  0  0  0
 29 87  1  0  0  0  0
 30 89  1  0  0  0  0
 31 90  1  0  0  0  0
 32 71  2  0  0  0  0
 33 72  1  0  0  0  0
 33 75  1  0  0  0  0
 34 77  1  0  0  0  0
 34 81  2  0  0  0  0
 35 76  1  0  0  0  0
 35 82  2  0  0  0  0
 36 53  1  0  0  0  0
 36 78  1  0  0  0  0
 36 83  2  0  0  0  0
 37 67  1  0  0  0  0
 37 74  1  0  0  0  0
 37 84  2  0  0  0  0
 38 68  1  0  0  0  0
 38 73  1  0  0  0  0
 38 85  2  0  0  0  0
 39 69  1  0  0  0  0
 39 79  1  0  0  0  0
 39 86  2  0  0  0  0
 40 43  1  0  0  0  0
 41 53  1  0  0  0  0
 42 73  1  0  0  0  0
 43 45  1  0  0  0  0
 44 47  1  0  0  0  0
 44 50  1  0  0  0  0
 45 52  1  0  0  0  0
 46 48  1  0  0  0  0
 46 54  1  0  0  0  0
 47 55  1  0  0  0  0
 48 56  1  0  0  0  0
 49 54  1  0  0  0  0
 49 56  1  0  0  0  0
 50 74  1  0  0  0  0
 51 55  1  0  0  0  0
 51 74  1  0  0  0  0
 52 78  1  0  0  0  0
 53 73  1  0  0  0  0
 54 67  1  0  0  0  0
 55 72  1  0  0  0  0
 56 77  1  0  0  0  0
 60 67  1  0  0  0  0
 61 69  1  0  0  0  0
 62 70  1  0  0  0  0
 63 70  1  0  0  0  0
 64 70  1  0  0  0  0
 65 80  1  0  0  0  0
 66 88  1  0  0  0  0
 68 70  1  0  0  0  0
 68 79  1  0  0  0  0
 69 80  1  0  0  0  0
 71 72  1  0  0  0  0
M  CHG  1  80   1
M  ISO  4  37 100  66 101  67 100  88 101
M  END
> <Batch ID>
0161

> <Smiles>
CNC(C)C(=O)NC(C(=O)N1Cc2cc([101O:1][101CH2:1]c3c(C)c(C)cc(C(=O)NC4CCC([100CH:0](C)[100C:0](=O)N5CCCC(n6nc(-c7ccc(Oc8ccc(F)cc8F)cc7)c(C(N)=O)c6N)C5)C4)c3C)ccc2CC1C(=O)NC1CCCc2ccccc21)C(C)(C)C

> <Shape>
0.252

> <Color>
0.100

> <Negative vol penalty>
0.000

$$$$

  -OEChem-04052322123D

 90 99  0     1  0  0  0  0  0999 V2000
  -32.3615  -13.7217   21.1550 C   0  0  0  0  0  0  0  0  0  0  0  0
  -31.5738  -14.8363   21.4247 C   0  0  0  0  0  0  0  0  0  0  0  0
  -25.3107  -31.5767   22.1621 C   0  0  0  0  0  0  0  0  0  0  0  0
  -27.2229  -30.3925   23.0442 C   0  0  0  0  0  0  0  0  0  0  0  0
  -31.8181  -12.6342   20.4723 C   0  0  0  0  0  0  0  0  0  0  0  0
  -30.2425  -14.8645   21.0107 C   0  0  0  0  0  0  0  0  0  0  0  0
  -25.5374  -17.4913   23.9206 C   0  0  0  0  0  0  0  0  0  0  0  0
  -25.4021  -32.5002   23.2034 C   0  0  0  0  0  0  0  0  0  0  0  0
  -27.3143  -31.3160   24.0856 C   0  0  0  0  0  0  0  0  0  0  0  0
  -24.8964  -18.7178   23.7511 C   0  0  0  0  0  0  0  0  0  0  0  0
  -27.2826  -35.2009   23.9797 C   0  0  0  0  0  0  0  0  0  0  0  0
  -27.1667  -36.5534   23.6588 C   0  0  0  0  0  0  0  0  0  0  0  0
  -23.2194  -17.6463   22.3879 C   0  0  0  0  0  0  0  0  0  0  0  0
  -25.2393  -36.7313   25.1047 C   0  0  0  0  0  0  0  0  0  0  0  0
  -26.2210  -30.5228   22.0825 C   0  0  0  0  0  0  0  0  0  0  0  0
  -25.0366  -28.7290   20.7088 C   0  0  0  0  0  0  0  0  0  0  0  0
  -30.4768  -12.6451   20.0583 C   0  0  0  0  0  0  0  0  0  0  0  0
  -25.0293  -16.3331   23.3149 C   0  0  0  0  0  0  0  0  0  0  0  0
  -29.6811  -13.7767   20.3207 C   0  0  0  0  0  0  0  0  0  0  0  0
  -23.8543  -16.4058   22.5533 C   0  0  0  0  0  0  0  0  0  0  0  0
  -29.4834  -25.1816   20.3843 C   0  0  0  0  0  0  0  0  0  0  0  0
  -28.2713  -24.6371   20.7938 C   0  0  0  0  0  0  0  0  0  0  0  0
  -29.8063  -25.2071   19.0321 C   0  0  0  0  0  0  0  0  0  0  0  0
  -26.4040  -32.3699   24.1652 C   0  0  0  0  0  0  0  0  0  0  0  0
  -23.7389  -18.7960   22.9823 C   0  0  0  0  0  0  0  0  0  0  0  0
  -26.3768  -34.6136   24.8631 C   0  0  0  0  0  0  0  0  0  0  0  0
  -26.1451  -37.3186   24.2213 C   0  0  0  0  0  0  0  0  0  0  0  0
  -25.3552  -35.3788   25.4256 C   0  0  0  0  0  0  0  0  0  0  0  0
  -26.1267  -29.5682   21.0074 C   0  0  0  0  0  0  0  0  0  0  0  0
  -27.4237  -24.1351   19.8194 C   0  0  0  0  0  0  0  0  0  0  0  0
  -28.8901  -24.6793   18.1366 C   0  0  0  0  0  0  0  0  0  0  0  0
  -25.4416  -28.0197   19.6046 C   0  0  0  0  0  0  0  0  0  0  0  0
  -25.1685  -24.2534   20.8140 C   0  0  0  0  0  0  0  0  0  0  0  0
  -26.1139  -23.5380   20.1757 C   0  0  0  0  0  0  0  0  0  0  0  0
  -23.7709  -28.6021   21.3705 C   0  0  0  0  0  0  0  0  0  0  0  0
  -26.1152  -14.2716   21.1528 C   0  0  0  0  0  0  0  0  0  0  0  0
  -23.3915  -12.6687   21.8840 C   0  0  0  0  0  0  0  0  0  0  0  0
  -20.2045  -12.7757   23.0998 C   0  0  0  0  0  0  0  0  0  0  0  0
  -31.1376  -26.8543   17.6885 C   0  0  0  0  0  0  0  0  0  0  0  0
  -29.9471  -11.4657   19.2817 C   0  0  0  0  0  0  0  0  0  0  0  0
  -25.7175  -15.0129   23.5294 C   0  0  0  0  0  0  0  0  0  0  0  0
  -23.2569  -15.1880   21.8987 C   0  0  0  0  0  0  0  0  0  0  0  0
  -23.8418  -23.6803   21.2068 C   0  0  0  0  0  0  0  0  0  0  0  0
  -25.8743  -22.0884   19.8147 C   0  0  0  0  0  0  0  0  0  0  0  0
  -28.4231  -11.4204   19.2069 C   0  0  0  0  0  0  0  0  0  0  0  0
  -28.3085  -28.2984   15.7901 C   0  0  0  0  0  0  0  0  0  0  0  0
  -27.8655  -12.7930   18.8436 C   0  0  0  0  0  0  0  0  0  0  0  0
  -27.3755  -28.7917   16.8944 C   0  0  0  0  0  0  0  0  0  0  0  0
  -29.7683  -28.3131   16.2334 C   0  0  0  0  0  0  0  0  0  0  0  0
  -29.0818  -28.0401   18.5989 C   0  0  0  0  0  0  0  0  0  0  0  0
  -24.3970  -21.6944   19.8094 C   0  0  0  0  0  0  0  0  0  0  0  0
  -28.2258  -13.8347   19.9097 C   0  0  1  0  0  0  0  0  0  0  0  0
  -25.3993  -13.9898   22.4434 C   0  0  1  0  0  0  0  0  0  0  0  0
  -27.6016  -27.9966   18.1909 C   0  0  1  0  0  0  0  0  0  0  0  0
  -30.4357  -25.7355   21.3971 C   0  0  0  0  0  0  0  0  0  0  0  0
  -27.9054  -24.5995   22.2414 C   0  0  0  0  0  0  0  0  0  0  0  0
  -29.1780  -24.6757   16.6700 C   0  0  0  0  0  0  0  0  0  0  0  0
  -32.4521  -23.8642   17.8638 C   0  0  0  0  0  0  0  0  0  0  0  0
  -18.2134  -11.3127   23.5388 C   0  0  0  0  0  0  0  0  0  0  0  0
  -22.7487  -12.6527   18.9013 C   0  0  0  0  0  0  0  0  0  0  0  0
  -20.3867  -12.0617   19.4845 C   0  0  0  0  0  0  0  0  0  0  0  0
  -22.2443  -10.5102   20.0886 C   0  0  0  0  0  0  0  0  0  0  0  0
  -20.2808  -13.3447   26.0032 C   0  0  0  0  0  0  0  0  0  0  0  0
  -32.2792  -25.0100   18.8403 C   0  0  0  0  0  0  0  0  0  0  0  0
  -22.3593  -21.6647   21.2596 C   0  0  0  0  0  0  0  0  0  0  0  0
  -22.3997  -20.1865   21.5935 C   0  0  0  0  0  0  0  0  0  1  0  0
  -21.9742  -12.6764   21.3641 C   0  0  1  0  0  0  0  0  0  0  0  0
  -19.4857  -11.9104   24.1192 C   0  0  2  0  0  0  0  0  0  0  0  0
  -21.8506  -11.9987   19.9702 C   0  0  0  0  0  0  0  0  0  0  0  0
  -27.1477  -29.4079   20.1612 N   0  0  0  0  0  0  0  0  0  0  0  0
  -27.7029  -24.1421   18.4967 N   0  0  0  0  0  0  0  0  0  0  0  0
  -26.7008  -28.4597   19.3202 N   0  0  0  0  0  0  0  0  0  0  0  0
  -23.9699  -13.9214   22.1327 N   0  0  0  0  0  0  0  0  0  0  0  0
  -29.9582  -27.6037   17.4996 N   0  0  0  0  0  0  0  0  0  0  0  0
  -24.8400  -27.0686   18.8590 N   0  0  0  0  0  0  0  0  0  0  0  0
  -23.6516  -27.6712   22.4114 N   0  0  0  0  0  0  0  0  0  0  0  0
  -27.3669  -13.6926   21.0658 N   0  0  0  0  0  0  0  0  0  0  0  0
  -21.1552  -12.0606   22.4026 N   0  0  0  0  0  0  0  0  0  0  0  0
  -31.0562  -25.7649   18.5765 N   0  0  0  0  0  0  0  0  0  0  0  0
  -23.7618  -22.1728   21.0895 N   0  3  2  0  0  0  0  0  0  0  0  0
  -19.1216  -12.7169   25.3183 N   0  3  0  0  0  0  0  0  0  0  0  0
  -22.7708  -29.2820   21.0372 O   0  0  0  0  0  0  0  0  0  0  0  0
  -25.5716  -14.9618   20.2986 O   0  0  0  0  0  0  0  0  0  0  0  0
  -23.9618  -11.5907   22.0695 O   0  0  0  0  0  0  0  0  0  0  0  0
  -19.9457  -13.9659   22.9357 O   0  0  0  0  0  0  0  0  0  0  0  0
  -32.2052  -27.1668   17.1469 O   0  0  0  0  0  0  0  0  0  0  0  0
  -26.4936  -33.2710   25.1813 O   0  0  0  0  0  0  0  0  0  0  0  0
  -23.1117  -19.9920   22.8148 O   0  0  0  0  0  0  0  0  0  1  0  0
  -26.0349  -38.6177   23.9142 F   0  0  0  0  0  0  0  0  0  0  0  0
  -24.4828  -34.8205   26.2758 F   0  0  0  0  0  0  0  0  0  0  0  0
  1  2  1  0  0  0  0
  1  5  2  0  0  0  0
  2  6  2  0  0  0  0
  3  8  2  0  0  0  0
  3 15  1  0  0  0  0
  4  9  1  0  0  0  0
  4 15  2  0  0  0  0
  5 17  1  0  0  0  0
  6 19  1  0  0  0  0
  7 10  2  0  0  0  0
  7 18  1  0  0  0  0
  8 24  1  0  0  0  0
  9 24  2  0  0  0  0
 10 25  1  0  0  0  0
 11 12  2  0  0  0  0
 11 26  1  0  0  0  0
 12 27  1  0  0  0  0
 13 20  1  0  0  0  0
 13 25  2  0  0  0  0
 14 27  2  0  0  0  0
 14 28  1  0  0  0  0
 15 29  1  0  0  0  0
 16 29  1  0  0  0  0
 16 32  2  0  0  0  0
 16 35  1  0  0  0  0
 17 19  2  0  0  0  0
 17 40  1  0  0  0  0
 18 20  2  0  0  0  0
 18 41  1  0  0  0  0
 19 52  1  0  0  0  0
 20 42  1  0  0  0  0
 21 22  1  0  0  0  0
 21 23  2  0  0  0  0
 21 55  1  0  0  0  0
 22 30  2  0  0  0  0
 22 56  1  0  0  0  0
 23 31  1  0  0  0  0
 23 79  1  0  0  0  0
 24 87  1  0  0  0  0
 25 88  1  0  0  0  0
 26 28  2  0  0  0  0
 26 87  1  0  0  0  0
 27 89  1  0  0  0  0
 28 90  1  0  0  0  0
 29 70  2  0  0  0  0
 30 34  1  0  0  0  0
 30 71  1  0  0  0  0
 31 57  1  0  0  0  0
 31 71  2  0  0  0  0
 32 72  1  0  0  0  0
 32 75  1  0  0  0  0
 33 34  2  0  0  0  0
 33 43  1  0  0  0  0
 34 44  1  0  0  0  0
 35 76  1  0  0  0  0
 35 82  2  0  0  0  0
 36 53  1  0  0  0  0
 36 77  1  0  0  0  0
 36 83  2  0  0  0  0
 37 67  1  0  0  0  0
 37 73  1  0  0  0  0
 37 84  2  0  0  0  0
 38 68  1  0  0  0  0
 38 78  1  0  0  0  0
 38 85  2  0  0  0  0
 39 74  1  0  0  0  0
 39 79  1  0  0  0  0
 39 86  2  0  0  0  0
 40 45  1  0  0  0  0
 41 53  1  0  0  0  0
 42 73  1  0  0  0  0
 43 80  1  0  0  0  0
 44 51  1  0  0  0  0
 45 47  1  0  0  0  0
 46 48  1  0  0  0  0
 46 49  1  0  0  0  0
 47 52  1  0  0  0  0
 48 54  1  0  0  0  0
 49 74  1  0  0  0  0
 50 54  1  0  0  0  0
 50 74  1  0  0  0  0
 51 80  1  0  0  0  0
 52 77  1  0  0  0  0
 53 73  1  0  0  0  0
 54 72  1  0  0  0  0
 58 64  1  0  0  0  0
 59 68  1  0  0  0  0
 60 69  1  0  0  0  0
 61 69  1  0  0  0  0
 62 69  1  0  0  0  0
 63 81  1  0  0  0  0
 64 79  1  0  0  0  0
 65 66  1  0  0  0  0
 65 80  1  0  0  0  0
 66 88  1  0  0  0  0
 67 69  1  0  0  0  0
 67 78  1  0  0  0  0
 68 81  1  0  0  0  0
 70 72  1  0  0  0  0
M  CHG  2  80   1  81   1
M  ISO  4  39 100  66 101  79 100  88 101
M  END
> <Batch ID>
0161

> <Smiles>
CC[100N:0](c1c(C)nc(C2=CCN(C[101CH2:1][101O:1]c3ccc4c(c3)CN(C(=O)C(NC(=O)C(C)NC)C(C)(C)C)C(C(=O)NC3CCCc5ccccc53)C4)CC2)c(C)c1C)[100C:0](=O)N1CCCC(n2nc(-c3ccc(Oc4ccc(F)cc4F)cc3)c(C(N)=O)c2N)C1

> <Shape>
0.264

> <Color>
0.053

> <Negative vol penalty>
0.000

$$$$

  -OEChem-04052322123D

 88 98  0     1  0  0  0  0  0999 V2000
  -25.5203  -28.6423   19.4777 C   0  0  0  0  0  0  0  0  0  0  0  0
  -25.1029  -27.3367   19.2454 C   0  0  0  0  0  0  0  0  0  0  0  0
  -24.4902  -31.8574   21.5044 C   0  0  0  0  0  0  0  0  0  0  0  0
  -24.2106  -31.9667   23.9017 C   0  0  0  0  0  0  0  0  0  0  0  0
  -26.8725  -28.9127   19.6768 C   0  0  0  0  0  0  0  0  0  0  0  0
  -26.0359  -26.2994   19.2239 C   0  0  0  0  0  0  0  0  0  0  0  0
  -24.7027  -19.5623   20.4064 C   0  0  0  0  0  0  0  0  0  0  0  0
  -25.1824  -33.0680   21.5299 C   0  0  0  0  0  0  0  0  0  0  0  0
  -24.9030  -33.1774   23.9272 C   0  0  0  0  0  0  0  0  0  0  0  0
  -24.4461  -18.1955   20.5159 C   0  0  0  0  0  0  0  0  0  0  0  0
  -24.2625  -36.4281   23.2536 C   0  0  0  0  0  0  0  0  0  0  0  0
  -23.7308  -37.4626   24.0234 C   0  0  0  0  0  0  0  0  0  0  0  0
  -26.7891  -17.7160   20.1572 C   0  0  0  0  0  0  0  0  0  0  0  0
  -25.7492  -37.5129   25.3502 C   0  0  0  0  0  0  0  0  0  0  0  0
  -24.0042  -31.3067   22.6903 C   0  0  0  0  0  0  0  0  0  0  0  0
  -22.0950  -29.7741   21.9734 C   0  0  0  0  0  0  0  0  0  0  0  0
  -27.8234  -27.8794   19.6451 C   0  0  0  0  0  0  0  0  0  0  0  0
  -26.0075  -20.0125   20.1869 C   0  0  0  0  0  0  0  0  0  0  0  0
  -27.4022  -26.5488   19.4464 C   0  0  0  0  0  0  0  0  0  0  0  0
  -27.0541  -19.0846   20.0591 C   0  0  0  0  0  0  0  0  0  0  0  0
  -25.2065  -18.5972   25.8630 C   0  0  0  0  0  0  0  0  0  0  0  0
  -25.0494  -19.6652   24.9760 C   0  0  0  0  0  0  0  0  0  0  0  0
  -26.2301  -18.6315   26.7877 C   0  0  0  0  0  0  0  0  0  0  0  0
  -25.3888  -33.7280   22.7412 C   0  0  0  0  0  0  0  0  0  0  0  0
  -25.4867  -17.2746   20.3914 C   0  0  0  0  0  0  0  0  0  0  0  0
  -25.5377  -35.9359   23.5321 C   0  0  0  0  0  0  0  0  0  0  0  0
  -24.4741  -38.0050   25.0716 C   0  0  0  0  0  0  0  0  0  0  0  0
  -26.2810  -36.4783   24.5804 C   0  0  0  0  0  0  0  0  0  0  0  0
  -23.2885  -30.0564   22.6646 C   0  0  0  0  0  0  0  0  0  0  0  0
  -26.1683  -20.4511   24.7893 C   0  0  0  0  0  0  0  0  0  0  0  0
  -27.3613  -19.0327   26.1311 C   0  0  0  0  0  0  0  0  0  0  0  0
  -21.8295  -28.4595   22.2696 C   0  0  0  0  0  0  0  0  0  0  0  0
  -21.2978  -30.6242   21.1383 C   0  0  0  0  0  0  0  0  0  0  0  0
  -28.2998  -22.9457   19.7199 C   0  0  0  0  0  0  0  0  0  0  0  0
  -29.7816  -20.9307   21.4961 C   0  0  0  0  0  0  0  0  0  0  0  0
  -31.4499  -19.8630   23.9413 C   0  0  0  0  0  0  0  0  0  0  0  0
  -25.3601  -23.9808   23.7962 C   0  0  0  0  0  0  0  0  0  0  0  0
  -29.2731  -28.2273   19.8746 C   0  0  0  0  0  0  0  0  0  0  0  0
  -26.3206  -21.4724   20.0009 C   0  0  0  0  0  0  0  0  0  0  0  0
  -24.9597  -17.1837   25.3514 C   0  0  0  0  0  0  0  0  0  0  0  0
  -28.4365  -19.6129   19.7889 C   0  0  0  0  0  0  0  0  0  0  0  0
  -30.2286  -27.1394   19.3952 C   0  0  0  0  0  0  0  0  0  0  0  0
  -22.5151  -25.1781   25.6856 C   0  0  0  0  0  0  0  0  0  0  0  0
  -29.7867  -25.7861   19.9317 C   0  0  0  0  0  0  0  0  0  0  0  0
  -22.2818  -26.5490   25.0482 C   0  0  0  0  0  0  0  0  0  0  0  0
  -25.2232  -13.9613   22.0479 C   0  0  0  0  0  0  0  0  0  0  0  0
  -24.0045  -24.8633   25.7902 C   0  0  0  0  0  0  0  0  0  0  0  0
  -24.5107  -26.3082   23.8590 C   0  0  0  0  0  0  0  0  0  0  0  0
  -27.5939  -16.7137   25.5037 C   0  0  0  0  0  0  0  0  0  0  0  0
  -28.4028  -25.4086   19.3882 C   0  0  1  0  0  0  0  0  0  0  0  0
  -27.6912  -21.8736   20.5752 C   0  0  1  0  0  0  0  0  0  0  0  0
  -26.2728  -16.6735   24.6390 C   0  0  1  0  0  0  0  0  0  0  0  0
  -25.2244  -15.1975   22.9040 C   0  0  2  0  0  0  0  0  0  0  0  0
  -23.0237  -26.6756   23.7044 C   0  0  2  0  0  0  0  0  0  0  0  0
  -25.9104  -15.2094   21.5642 C   0  0  2  0  0  0  0  0  0  1  0  0
  -23.8246  -19.8251   24.1478 C   0  0  0  0  0  0  0  0  0  0  0  0
  -26.2626  -17.7489   27.9855 C   0  0  0  0  0  0  0  0  0  0  0  0
  -33.5630  -19.1390   25.0851 C   0  0  0  0  0  0  0  0  0  0  0  0
  -30.3486  -19.1394   19.0933 C   0  0  0  0  0  0  0  0  0  0  0  0
  -32.3462  -18.2533   20.3150 C   0  0  0  0  0  0  0  0  0  0  0  0
  -32.2234  -20.6722   19.7177 C   0  0  0  0  0  0  0  0  0  0  0  0
  -31.1634  -21.9345   26.0356 C   0  0  0  0  0  0  0  0  0  0  0  0
  -26.1454  -21.6283   23.8755 C   0  0  0  0  0  0  0  0  0  0  0  0
  -26.0288  -15.2405   24.1570 C   0  0  0  0  0  0  0  0  0  0  0  0
  -30.7473  -19.7748   21.5638 C   0  0  1  0  0  0  0  0  0  0  0  0
  -32.6059  -20.2923   24.8268 C   0  0  2  0  0  0  0  0  0  0  0  0
  -31.3905  -19.4583   20.1840 C   0  0  0  0  0  0  0  0  0  0  0  0
  -23.7493  -29.0056   23.3484 N   0  0  0  0  0  0  0  0  0  0  0  0
  -27.3706  -20.0972   25.2914 N   0  0  0  0  0  0  0  0  0  0  0  0
  -22.8405  -28.0503   23.0885 N   0  0  0  0  0  0  0  0  0  0  0  0
  -28.6942  -20.7962   20.6243 N   0  0  0  0  0  0  0  0  0  0  0  0
  -24.6476  -24.9838   24.4742 N   0  0  0  0  0  0  0  0  0  0  0  0
  -20.8321  -27.6252   21.9068 N   0  0  0  0  0  0  0  0  0  0  0  0
  -21.5792  -30.6669   19.7660 N   0  0  0  0  0  0  0  0  0  0  0  0
  -27.9306  -24.2283   20.0779 N   0  0  0  0  0  0  0  0  0  0  0  0
  -31.7091  -20.1071   22.6092 N   0  0  0  0  0  0  0  0  0  0  0  0
  -25.4494  -22.7580   24.4502 N   0  0  0  0  0  0  0  0  0  0  0  0
  -32.0983  -20.7846   26.1387 N   0  3  0  0  0  0  0  0  0  0  0  0
  -20.3741  -31.3377   21.5981 O   0  0  0  0  0  0  0  0  0  0  0  0
  -29.0506  -22.6336   18.8031 O   0  0  0  0  0  0  0  0  0  0  0  0
  -29.9864  -21.9294   22.1918 O   0  0  0  0  0  0  0  0  0  0  0  0
  -30.4216  -19.3581   24.3865 O   0  0  0  0  0  0  0  0  0  0  0  0
  -25.8745  -24.1599   22.6870 O   0  0  0  0  0  0  0  0  0  0  0  0
  -28.2286  -18.0096   25.7438 O   0  0  0  0  0  0  0  0  0  0  0  0
  -26.0645  -34.9093   22.7665 O   0  0  0  0  0  0  0  0  0  0  0  0
  -25.2299  -15.9419   20.5039 O   0  0  0  0  0  0  0  0  0  1  0  0
  -23.9639  -38.9995   25.8098 F   0  0  0  0  0  0  0  0  0  0  0  0
  -27.5070  -36.0104   24.8520 F   0  0  0  0  0  0  0  0  0  0  0  0
  1  2  1  0  0  0  0
  1  5  2  0  0  0  0
  2  6  2  0  0  0  0
  3  8  2  0  0  0  0
  3 15  1  0  0  0  0
  4  9  1  0  0  0  0
  4 15  2  0  0  0  0
  5 17  1  0  0  0  0
  6 19  1  0  0  0  0
  7 10  2  0  0  0  0
  7 18  1  0  0  0  0
  8 24  1  0  0  0  0
  9 24  2  0  0  0  0
 10 25  1  0  0  0  0
 11 12  2  0  0  0  0
 11 26  1  0  0  0  0
 12 27  1  0  0  0  0
 13 20  1  0  0  0  0
 13 25  2  0  0  0  0
 14 27  2  0  0  0  0
 14 28  1  0  0  0  0
 15 29  1  0  0  0  0
 16 29  1  0  0  0  0
 16 32  2  0  0  0  0
 16 33  1  0  0  0  0
 17 19  2  0  0  0  0
 17 38  1  0  0  0  0
 18 20  2  0  0  0  0
 18 39  1  0  0  0  0
 19 50  1  0  0  0  0
 20 41  1  0  0  0  0
 21 22  2  0  0  0  0
 21 23  1  0  0  0  0
 21 40  1  0  0  0  0
 22 30  1  0  0  0  0
 22 56  1  0  0  0  0
 23 31  2  0  0  0  0
 23 57  1  0  0  0  0
 24 85  1  0  0  0  0
 25 86  1  0  0  0  0
 26 28  2  0  0  0  0
 26 85  1  0  0  0  0
 27 87  1  0  0  0  0
 28 88  1  0  0  0  0
 29 68  2  0  0  0  0
 30 63  1  0  0  0  0
 30 69  2  0  0  0  0
 31 69  1  0  0  0  0
 31 84  1  0  0  0  0
 32 70  1  0  0  0  0
 32 73  1  0  0  0  0
 33 74  1  0  0  0  0
 33 79  2  0  0  0  0
 34 51  1  0  0  0  0
 34 75  1  0  0  0  0
 34 80  2  0  0  0  0
 35 65  1  0  0  0  0
 35 71  1  0  0  0  0
 35 81  2  0  0  0  0
 36 66  1  0  0  0  0
 36 76  1  0  0  0  0
 36 82  2  0  0  0  0
 37 72  1  0  0  0  0
 37 77  1  0  0  0  0
 37 83  2  0  0  0  0
 38 42  1  0  0  0  0
 39 51  1  0  0  0  0
 40 52  1  0  0  0  0
 41 71  1  0  0  0  0
 42 44  1  0  0  0  0
 43 45  1  0  0  0  0
 43 47  1  0  0  0  0
 44 50  1  0  0  0  0
 45 54  1  0  0  0  0
 46 53  1  0  0  0  0
 46 55  1  0  0  0  0
 47 72  1  0  0  0  0
 48 54  1  0  0  0  0
 48 72  1  0  0  0  0
 49 52  1  0  0  0  0
 49 84  1  0  0  0  0
 50 75  1  0  0  0  0
 51 71  1  0  0  0  0
 52 64  1  0  0  0  0
 53 55  1  0  0  0  0
 53 64  1  0  0  0  0
 54 70  1  0  0  0  0
 55 86  1  0  0  0  0
 58 66  1  0  0  0  0
 59 67  1  0  0  0  0
 60 67  1  0  0  0  0
 61 67  1  0  0  0  0
 62 78  1  0  0  0  0
 63 77  1  0  0  0  0
 65 67  1  0  0  0  0
 65 76  1  0  0  0  0
 66 78  1  0  0  0  0
 68 70  1  0  0  0  0
M  CHG  1  78   1
M  ISO  4  37 100  55 101  77 100  86 101
M  END
> <Batch ID>
0161

> <Smiles>
CNC(C)C(=O)NC(C(=O)N1Cc2cc([101O:1][101CH:1]3CC3CC3COc4nc(C[100NH:0][100C:0](=O)N5CCCC(n6nc(-c7ccc(Oc8ccc(F)cc8F)cc7)c(C(N)=O)c6N)C5)c(C)c(c4C)C3)ccc2CC1C(=O)NC1CCCc2ccccc21)C(C)(C)C

> <Shape>
0.211

> <Color>
0.063

> <Negative vol penalty>
0.000

$$$$

  -OEChem-04052322123D

 85 94  0     1  0  0  0  0  0999 V2000
  -27.8236  -20.6367   23.7740 C   0  0  0  0  0  0  0  0  0  0  0  0
  -28.9336  -20.3993   22.9695 C   0  0  0  0  0  0  0  0  0  0  0  0
  -23.1088   -9.8712   19.9105 C   0  0  0  0  0  0  0  0  0  0  0  0
  -23.7405   -9.9069   22.2422 C   0  0  0  0  0  0  0  0  0  0  0  0
  -26.7904  -21.4506   23.3116 C   0  0  0  0  0  0  0  0  0  0  0  0
  -29.0103  -20.9748   21.7017 C   0  0  0  0  0  0  0  0  0  0  0  0
  -33.5674  -22.9651   20.7444 C   0  0  0  0  0  0  0  0  0  0  0  0
  -22.3660   -8.7111   20.1295 C   0  0  0  0  0  0  0  0  0  0  0  0
  -22.9976   -8.7468   22.4612 C   0  0  0  0  0  0  0  0  0  0  0  0
  -34.5881  -22.0812   20.3970 C   0  0  0  0  0  0  0  0  0  0  0  0
  -23.3581   -5.4241   21.9511 C   0  0  0  0  0  0  0  0  0  0  0  0
  -23.9450   -4.4126   22.7113 C   0  0  0  0  0  0  0  0  0  0  0  0
  -34.6418  -17.7077   18.3851 C   0  0  0  0  0  0  0  0  0  0  0  0
  -34.2672  -22.6344   18.0710 C   0  0  0  0  0  0  0  0  0  0  0  0
  -36.7424  -17.6629   19.5534 C   0  0  0  0  0  0  0  0  0  0  0  0
  -22.1498   -4.5796   24.3195 C   0  0  0  0  0  0  0  0  0  0  0  0
  -23.7962  -10.4691   20.9669 C   0  0  0  0  0  0  0  0  0  0  0  0
  -24.1142  -12.9971   20.8429 C   0  0  0  0  0  0  0  0  0  0  0  0
  -26.8589  -22.0442   22.0414 C   0  0  0  0  0  0  0  0  0  0  0  0
  -32.8805  -23.6834   19.7552 C   0  0  0  0  0  0  0  0  0  0  0  0
  -27.9764  -21.7964   21.2214 C   0  0  0  0  0  0  0  0  0  0  0  0
  -34.0632  -16.8219   19.3180 C   0  0  0  0  0  0  0  0  0  0  0  0
  -33.2400  -23.5288   18.4087 C   0  0  0  0  0  0  0  0  0  0  0  0
  -34.8380  -16.3874   20.4106 C   0  0  0  0  0  0  0  0  0  0  0  0
  -35.9676  -18.1223   18.4989 C   0  0  0  0  0  0  0  0  0  0  0  0
  -36.1832  -16.8030   20.4970 C   0  0  0  0  0  0  0  0  0  0  0  0
  -22.3103   -8.1490   21.4048 C   0  0  0  0  0  0  0  0  0  0  0  0
  -34.9362  -21.9135   19.0599 C   0  0  0  0  0  0  0  0  0  0  0  0
  -22.1671   -6.0135   22.3752 C   0  0  0  0  0  0  0  0  0  0  0  0
  -23.3409   -3.9903   23.8955 C   0  0  0  0  0  0  0  0  0  0  0  0
  -21.5630   -5.5912   23.5593 C   0  0  0  0  0  0  0  0  0  0  0  0
  -24.5642  -11.6671   20.7412 C   0  0  0  0  0  0  0  0  0  0  0  0
  -25.2159  -13.7569   20.5337 C   0  0  0  0  0  0  0  0  0  0  0  0
  -22.8165  -13.5008   21.1863 C   0  0  0  0  0  0  0  0  0  0  0  0
  -29.8615  -23.8182   18.7696 C   0  0  0  0  0  0  0  0  0  0  0  0
  -30.9834  -26.2317   16.9152 C   0  0  0  0  0  0  0  0  0  0  0  0
  -33.6466  -27.6921   15.3592 C   0  0  0  0  0  0  0  0  0  0  0  0
  -30.6910  -14.5644   21.4979 C   0  0  0  0  0  0  0  0  0  0  0  0
  -25.6957  -22.8784   21.5662 C   0  0  0  0  0  0  0  0  0  0  0  0
  -31.8000  -24.6530   20.1485 C   0  0  0  0  0  0  0  0  0  0  0  0
  -32.6187  -16.4401   19.0869 C   0  0  0  0  0  0  0  0  0  0  0  0
  -34.3417  -15.4568   21.4934 C   0  0  0  0  0  0  0  0  0  0  0  0
  -32.5471  -24.2915   17.3103 C   0  0  0  0  0  0  0  0  0  0  0  0
  -26.0262  -23.7530   20.3595 C   0  0  0  0  0  0  0  0  0  0  0  0
  -29.6864  -12.4551   18.5812 C   0  0  0  0  0  0  0  0  0  0  0  0
  -26.7736  -22.9452   19.3033 C   0  0  0  0  0  0  0  0  0  0  0  0
  -28.2387  -12.1260   18.9431 C   0  0  0  0  0  0  0  0  0  0  0  0
  -32.2140  -15.0365   19.5374 C   0  0  0  0  0  0  0  0  0  0  0  0
  -32.8772  -15.6168   21.8884 C   0  0  0  0  0  0  0  0  0  0  0  0
  -30.5312  -12.6730   19.8306 C   0  0  0  0  0  0  0  0  0  0  0  0
  -28.5466  -13.3993   21.1158 C   0  0  0  0  0  0  0  0  0  0  0  0
  -28.1076  -22.4228   19.8501 C   0  0  1  0  0  0  0  0  0  0  0  0
  -30.8208  -24.9480   19.0165 C   0  0  1  0  0  0  0  0  0  0  0  0
  -27.6500  -13.1915   19.8836 C   0  0  2  0  0  0  0  0  0  0  0  0
  -37.0922  -16.3361   21.5936 C   0  0  0  0  0  0  0  0  0  0  0  0
  -36.5714  -18.4319   16.0759 C   0  0  0  0  0  0  0  0  0  0  0  0
  -34.2457  -29.6332   13.8860 C   0  0  0  0  0  0  0  0  0  0  0  0
  -29.7861  -24.7767   14.5153 C   0  0  0  0  0  0  0  0  0  0  0  0
  -31.1992  -26.2120   13.0283 C   0  0  0  0  0  0  0  0  0  0  0  0
  -29.4725  -27.2578   14.4939 C   0  0  0  0  0  0  0  0  0  0  0  0
  -35.4729  -28.8230   17.3951 C   0  0  0  0  0  0  0  0  0  0  0  0
  -35.8339  -20.4200   17.4415 C   0  0  0  0  0  0  0  0  0  1  0  0
  -36.5504  -19.0506   17.4883 C   0  0  1  0  0  0  0  0  0  0  0  0
  -31.5818  -26.3280   15.5326 C   0  0  1  0  0  0  0  0  0  0  0  0
  -34.1225  -29.1330   15.3169 C   0  0  2  0  0  0  0  0  0  0  0  0
  -30.5218  -26.1277   14.4128 C   0  0  0  0  0  0  0  0  0  0  0  0
  -25.8513  -11.5833   20.3943 N   0  0  0  0  0  0  0  0  0  0  0  0
  -26.2195  -12.8703   20.2753 N   0  0  0  0  0  0  0  0  0  0  0  0
  -31.4930  -25.2229   17.7450 N   0  0  0  0  0  0  0  0  0  0  0  0
  -31.9416  -14.9543   20.9798 N   0  0  0  0  0  0  0  0  0  0  0  0
  -29.9305  -13.6732   20.7230 N   0  0  0  0  0  0  0  0  0  0  0  0
  -25.4143  -15.0902   20.4603 N   0  0  0  0  0  0  0  0  0  0  0  0
  -21.7983  -12.5821   21.4754 N   0  0  0  0  0  0  0  0  0  0  0  0
  -29.0951  -23.4805   19.8688 N   0  0  0  0  0  0  0  0  0  0  0  0
  -32.2752  -27.6104   15.4764 N   0  0  0  0  0  0  0  0  0  0  0  0
  -35.4538  -29.2584   15.9749 N   0  3  0  0  0  0  0  0  0  0  0  0
  -22.5629  -14.7289   21.2192 O   0  0  0  0  0  0  0  0  0  0  0  0
  -29.8187  -23.2927   17.6634 O   0  0  0  0  0  0  0  0  0  0  0  0
  -30.1015  -27.0268   17.2493 O   0  0  0  0  0  0  0  0  0  0  0  0
  -34.4144  -26.7348   15.2912 O   0  0  0  0  0  0  0  0  0  0  0  0
  -30.2800  -14.9911   22.5845 O   0  0  0  0  0  0  0  0  0  0  0  0
  -21.5853   -7.0171   21.6189 O   0  0  0  0  0  0  0  0  0  0  0  0
  -35.9381  -21.0452   18.7157 O   0  0  0  0  0  0  0  0  0  1  0  0
  -23.9038   -3.0178   24.6246 F   0  0  0  0  0  0  0  0  0  0  0  0
  -20.4181   -6.1529   23.9712 F   0  0  0  0  0  0  0  0  0  0  0  0
  1  2  1  0  0  0  0
  1  5  2  0  0  0  0
  2  6  2  0  0  0  0
  3  8  2  0  0  0  0
  3 17  1  0  0  0  0
  4  9  1  0  0  0  0
  4 17  2  0  0  0  0
  5 19  1  0  0  0  0
  6 21  1  0  0  0  0
  7 10  2  0  0  0  0
  7 20  1  0  0  0  0
  8 27  1  0  0  0  0
  9 27  2  0  0  0  0
 10 28  1  0  0  0  0
 11 12  2  0  0  0  0
 11 29  1  0  0  0  0
 12 30  1  0  0  0  0
 13 22  1  0  0  0  0
 13 25  2  0  0  0  0
 14 23  1  0  0  0  0
 14 28  2  0  0  0  0
 15 25  1  0  0  0  0
 15 26  2  0  0  0  0
 16 30  2  0  0  0  0
 16 31  1  0  0  0  0
 17 32  1  0  0  0  0
 18 32  1  0  0  0  0
 18 33  2  0  0  0  0
 18 34  1  0  0  0  0
 19 21  2  0  0  0  0
 19 39  1  0  0  0  0
 20 23  2  0  0  0  0
 20 40  1  0  0  0  0
 21 52  1  0  0  0  0
 22 24  2  0  0  0  0
 22 41  1  0  0  0  0
 23 43  1  0  0  0  0
 24 26  1  0  0  0  0
 24 42  1  0  0  0  0
 25 63  1  0  0  0  0
 26 55  1  0  0  0  0
 27 82  1  0  0  0  0
 28 83  1  0  0  0  0
 29 31  2  0  0  0  0
 29 82  1  0  0  0  0
 30 84  1  0  0  0  0
 31 85  1  0  0  0  0
 32 67  2  0  0  0  0
 33 68  1  0  0  0  0
 33 72  1  0  0  0  0
 34 73  1  0  0  0  0
 34 77  2  0  0  0  0
 35 53  1  0  0  0  0
 35 74  1  0  0  0  0
 35 78  2  0  0  0  0
 36 64  1  0  0  0  0
 36 69  1  0  0  0  0
 36 79  2  0  0  0  0
 37 65  1  0  0  0  0
 37 75  1  0  0  0  0
 37 80  2  0  0  0  0
 38 70  1  0  0  0  0
 38 71  1  0  0  0  0
 38 81  2  0  0  0  0
 39 44  1  0  0  0  0
 40 53  1  0  0  0  0
 41 48  1  0  0  0  0
 42 49  1  0  0  0  0
 43 69  1  0  0  0  0
 44 46  1  0  0  0  0
 45 47  1  0  0  0  0
 45 50  1  0  0  0  0
 46 52  1  0  0  0  0
 47 54  1  0  0  0  0
 48 70  1  0  0  0  0
 49 70  1  0  0  0  0
 50 71  1  0  0  0  0
 51 54  1  0  0  0  0
 51 71  1  0  0  0  0
 52 74  1  0  0  0  0
 53 69  1  0  0  0  0
 54 68  1  0  0  0  0
 56 63  1  0  0  0  0
 57 65  1  0  0  0  0
 58 66  1  0  0  0  0
 59 66  1  0  0  0  0
 60 66  1  0  0  0  0
 61 76  1  0  0  0  0
 62 63  1  0  0  0  0
 62 83  1  0  0  0  0
 64 66  1  0  0  0  0
 64 75  1  0  0  0  0
 65 76  1  0  0  0  0
 67 68  1  0  0  0  0
M  CHG  1  76   1
M  ISO  4  38 100  62 101  70 100  83 101
M  END
> <Batch ID>
0161

> <Smiles>
CNC(C)C(=O)NC(C(=O)N1Cc2cc([101O:1][101CH2:1]C(C)c3cc(C)c4c(c3)CC[100N:0]([100C:0](=O)N3CCCC(n5nc(-c6ccc(Oc7ccc(F)cc7F)cc6)c(C(N)=O)c5N)C3)CC4)ccc2CC1C(=O)NC1CCCc2ccccc21)C(C)(C)C

> <Shape>
0.218

> <Color>
0.181

> <Negative vol penalty>
0.000

$$$$

  -OEChem-04052322123D

 86 95  0     1  0  0  0  0  0999 V2000
  -19.1422  -31.2241   26.7033 C   0  0  0  0  0  0  0  0  0  0  0  0
  -20.3569  -30.5518   26.6142 C   0  0  0  0  0  0  0  0  0  0  0  0
  -23.2576  -10.3531   21.4060 C   0  0  0  0  0  0  0  0  0  0  0  0
  -24.8454   -8.6591   22.0739 C   0  0  0  0  0  0  0  0  0  0  0  0
  -18.2228  -31.1415   25.6584 C   0  0  0  0  0  0  0  0  0  0  0  0
  -20.6525  -29.7956   25.4805 C   0  0  0  0  0  0  0  0  0  0  0  0
  -26.1802  -27.8076   21.3806 C   0  0  0  0  0  0  0  0  0  0  0  0
  -22.2797   -9.3721   21.2423 C   0  0  0  0  0  0  0  0  0  0  0  0
  -23.8675   -7.6780   21.9103 C   0  0  0  0  0  0  0  0  0  0  0  0
  -26.7691  -26.6614   20.8485 C   0  0  0  0  0  0  0  0  0  0  0  0
  -21.6885   -4.7696   22.0160 C   0  0  0  0  0  0  0  0  0  0  0  0
  -21.5662   -3.8020   23.0132 C   0  0  0  0  0  0  0  0  0  0  0  0
  -25.1377  -26.6555   19.0715 C   0  0  0  0  0  0  0  0  0  0  0  0
  -28.2771  -21.9657   15.9648 C   0  0  0  0  0  0  0  0  0  0  0  0
  -21.0860   -5.5306   24.6314 C   0  0  0  0  0  0  0  0  0  0  0  0
  -24.5405   -9.9966   21.8217 C   0  0  0  0  0  0  0  0  0  0  0  0
  -25.8373  -11.7386   23.1602 C   0  0  0  0  0  0  0  0  0  0  0  0
  -18.5112  -30.3917   24.5072 C   0  0  0  0  0  0  0  0  0  0  0  0
  -25.0570  -28.3810   20.7673 C   0  0  0  0  0  0  0  0  0  0  0  0
  -19.7354  -29.7018   24.4198 C   0  0  0  0  0  0  0  0  0  0  0  0
  -24.5379  -27.8104   19.5964 C   0  0  0  0  0  0  0  0  0  0  0  0
  -27.7231  -20.9429   18.0822 C   0  0  0  0  0  0  0  0  0  0  0  0
  -28.3435  -20.8774   16.8346 C   0  0  0  0  0  0  0  0  0  0  0  0
  -27.5904  -23.1196   16.3425 C   0  0  0  0  0  0  0  0  0  0  0  0
  -27.0364  -22.0967   18.4600 C   0  0  0  0  0  0  0  0  0  0  0  0
  -26.9701  -23.1851   17.5901 C   0  0  0  0  0  0  0  0  0  0  0  0
  -22.5846   -8.0345   21.4945 C   0  0  0  0  0  0  0  0  0  0  0  0
  -26.2461  -26.0835   19.6954 C   0  0  0  0  0  0  0  0  0  0  0  0
  -21.5096   -6.1176   22.3265 C   0  0  0  0  0  0  0  0  0  0  0  0
  -21.2649   -4.1825   24.3209 C   0  0  0  0  0  0  0  0  0  0  0  0
  -21.2083   -6.4981   23.6342 C   0  0  0  0  0  0  0  0  0  0  0  0
  -25.5513  -11.0095   21.9904 C   0  0  0  0  0  0  0  0  0  0  0  0
  -26.8729  -12.5674   22.8037 C   0  0  0  0  0  0  0  0  0  0  0  0
  -25.2220  -11.6724   24.4535 C   0  0  0  0  0  0  0  0  0  0  0  0
  -22.0511  -28.9211   21.6483 C   0  0  0  0  0  0  0  0  0  0  0  0
  -21.9051  -30.4682   18.8009 C   0  0  0  0  0  0  0  0  0  0  0  0
  -23.1494  -30.8550   15.6467 C   0  0  0  0  0  0  0  0  0  0  0  0
  -29.3899  -15.9911   19.3448 C   0  0  0  0  0  0  0  0  0  0  0  0
  -17.4663  -30.2937   23.4241 C   0  0  0  0  0  0  0  0  0  0  0  0
  -24.4497  -29.6329   21.3387 C   0  0  0  0  0  0  0  0  0  0  0  0
  -23.3460  -28.3990   18.8884 C   0  0  0  0  0  0  0  0  0  0  0  0
  -18.0124  -29.7760   22.0959 C   0  0  0  0  0  0  0  0  0  0  0  0
  -29.7885  -12.6226   18.6797 C   0  0  0  0  0  0  0  0  0  0  0  0
  -18.8903  -28.5491   22.3215 C   0  0  0  0  0  0  0  0  0  0  0  0
  -28.7486  -11.9498   19.5754 C   0  0  0  0  0  0  0  0  0  0  0  0
  -27.1181  -18.5079   18.4379 C   0  0  0  0  0  0  0  0  0  0  0  0
  -29.2445  -19.4425   19.4450 C   0  0  0  0  0  0  0  0  0  0  0  0
  -29.2252  -13.8894   18.0462 C   0  0  0  0  0  0  0  0  0  0  0  0
  -27.2248  -17.3070   19.3822 C   0  0  0  0  0  0  0  0  0  0  0  0
  -29.2866  -18.2374   20.3802 C   0  0  0  0  0  0  0  0  0  0  0  0
  -27.6707  -14.2248   19.9407 C   0  0  0  0  0  0  0  0  0  0  0  0
  -27.7970  -19.7577   19.0265 C   0  0  0  0  0  0  0  0  0  0  0  0
  -20.1028  -28.8915   23.1956 C   0  0  1  0  0  0  0  0  0  0  0  0
  -22.9963  -29.8359   20.9220 C   0  0  1  0  0  0  0  0  0  0  0  0
  -28.1910  -12.9387   20.6144 C   0  0  1  0  0  0  0  0  0  0  0  0
  -29.0846  -19.6535   16.4056 C   0  0  0  0  0  0  0  0  0  0  0  0
  -27.5352  -24.2713   15.3928 C   0  0  0  0  0  0  0  0  0  0  0  0
  -26.3714  -22.1672   19.7985 C   0  0  0  0  0  0  0  0  0  0  0  0
  -22.7997  -32.1710   13.5388 C   0  0  0  0  0  0  0  0  0  0  0  0
  -19.4759  -28.7472   18.1323 C   0  0  0  0  0  0  0  0  0  0  0  0
  -19.7581  -29.4041   15.7329 C   0  0  0  0  0  0  0  0  0  0  0  0
  -19.2743  -31.1454   17.4523 C   0  0  0  0  0  0  0  0  0  0  0  0
  -25.8576  -32.0388   15.7989 C   0  0  0  0  0  0  0  0  0  0  0  0
  -26.2336  -24.4236   17.9923 C   0  0  0  0  0  0  0  0  0  1  0  0
  -21.5623  -30.0718   17.3852 C   0  0  1  0  0  0  0  0  0  0  0  0
  -23.5421  -32.0949   14.8638 C   0  0  2  0  0  0  0  0  0  0  0  0
  -20.0389  -29.8297   17.1899 C   0  0  0  0  0  0  0  0  0  0  0  0
  -26.3412  -11.3458   20.9672 N   0  0  0  0  0  0  0  0  0  0  0  0
  -27.1338  -12.2953   21.4929 N   0  0  0  0  0  0  0  0  0  0  0  0
  -22.7835  -29.6196   19.4894 N   0  0  0  0  0  0  0  0  0  0  0  0
  -28.7028  -14.8005   19.0643 N   0  0  0  0  0  0  0  0  0  0  0  0
  -28.6215  -17.0815   19.7795 N   0  0  0  0  0  0  0  0  0  0  0  0
  -27.5766  -13.4952   23.4866 N   0  0  0  0  0  0  0  0  0  0  0  0
  -24.1714  -10.7654   24.6480 N   0  0  0  0  0  0  0  0  0  0  0  0
  -21.1096  -29.5795   22.4162 N   0  0  0  0  0  0  0  0  0  0  0  0
  -22.1173  -31.1109   16.5246 N   0  0  0  0  0  0  0  0  0  0  0  0
  -25.0057  -32.0880   14.5828 N   0  3  0  0  0  0  0  0  0  0  0  0
  -25.5820  -12.4078   25.4039 O   0  0  0  0  0  0  0  0  0  0  0  0
  -22.1664  -27.7079   21.5202 O   0  0  0  0  0  0  0  0  0  0  0  0
  -21.4173  -31.4968   19.2759 O   0  0  0  0  0  0  0  0  0  0  0  0
  -23.7003  -29.7673   15.4921 O   0  0  0  0  0  0  0  0  0  0  0  0
  -30.6177  -16.0755   19.2155 O   0  0  0  0  0  0  0  0  0  0  0  0
  -21.6305   -7.0770   21.3351 O   0  0  0  0  0  0  0  0  0  0  0  0
  -26.8228  -24.9560   19.1705 O   0  0  0  0  0  0  0  0  0  1  0  0
  -21.1460   -3.2531   25.2782 F   0  0  0  0  0  0  0  0  0  0  0  0
  -21.0341   -7.7916   23.9383 F   0  0  0  0  0  0  0  0  0  0  0  0
  1  2  1  0  0  0  0
  1  5  2  0  0  0  0
  2  6  2  0  0  0  0
  3  8  2  0  0  0  0
  3 16  1  0  0  0  0
  4  9  1  0  0  0  0
  4 16  2  0  0  0  0
  5 18  1  0  0  0  0
  6 20  1  0  0  0  0
  7 10  2  0  0  0  0
  7 19  1  0  0  0  0
  8 27  1  0  0  0  0
  9 27  2  0  0  0  0
 10 28  1  0  0  0  0
 11 12  2  0  0  0  0
 11 29  1  0  0  0  0
 12 30  1  0  0  0  0
 13 21  1  0  0  0  0
 13 28  2  0  0  0  0
 14 23  1  0  0  0  0
 14 24  2  0  0  0  0
 15 30  2  0  0  0  0
 15 31  1  0  0  0  0
 16 32  1  0  0  0  0
 17 32  1  0  0  0  0
 17 33  2  0  0  0  0
 17 34  1  0  0  0  0
 18 20  2  0  0  0  0
 18 39  1  0  0  0  0
 19 21  2  0  0  0  0
 19 40  1  0  0  0  0
 20 53  1  0  0  0  0
 21 41  1  0  0  0  0
 22 23  2  0  0  0  0
 22 25  1  0  0  0  0
 22 52  1  0  0  0  0
 23 56  1  0  0  0  0
 24 26  1  0  0  0  0
 24 57  1  0  0  0  0
 25 26  2  0  0  0  0
 25 58  1  0  0  0  0
 26 64  1  0  0  0  0
 27 83  1  0  0  0  0
 28 84  1  0  0  0  0
 29 31  2  0  0  0  0
 29 83  1  0  0  0  0
 30 85  1  0  0  0  0
 31 86  1  0  0  0  0
 32 68  2  0  0  0  0
 33 69  1  0  0  0  0
 33 73  1  0  0  0  0
 34 74  1  0  0  0  0
 34 78  2  0  0  0  0
 35 54  1  0  0  0  0
 35 75  1  0  0  0  0
 35 79  2  0  0  0  0
 36 65  1  0  0  0  0
 36 70  1  0  0  0  0
 36 80  2  0  0  0  0
 37 66  1  0  0  0  0
 37 76  1  0  0  0  0
 37 81  2  0  0  0  0
 38 71  1  0  0  0  0
 38 72  1  0  0  0  0
 38 82  2  0  0  0  0
 39 42  1  0  0  0  0
 40 54  1  0  0  0  0
 41 70  1  0  0  0  0
 42 44  1  0  0  0  0
 43 45  1  0  0  0  0
 43 48  1  0  0  0  0
 44 53  1  0  0  0  0
 45 55  1  0  0  0  0
 46 49  1  0  0  0  0
 46 52  1  0  0  0  0
 47 50  1  0  0  0  0
 47 52  1  0  0  0  0
 48 71  1  0  0  0  0
 49 72  1  0  0  0  0
 50 72  1  0  0  0  0
 51 55  1  0  0  0  0
 51 71  1  0  0  0  0
 53 75  1  0  0  0  0
 54 70  1  0  0  0  0
 55 69  1  0  0  0  0
 59 66  1  0  0  0  0
 60 67  1  0  0  0  0
 61 67  1  0  0  0  0
 62 67  1  0  0  0  0
 63 77  1  0  0  0  0
 64 84  1  0  0  0  0
 65 67  1  0  0  0  0
 65 76  1  0  0  0  0
 66 77  1  0  0  0  0
 68 69  1  0  0  0  0
M  CHG  1  77   1
M  ISO  4  38 100  64 101  72 100  84 101
M  END
> <Batch ID>
0161

> <Smiles>
CNC(C)C(=O)NC(C(=O)N1Cc2cc([101O:1][101CH2:1]c3c(C)cc(C)c(C4CC[100N:0]([100C:0](=O)N5CCCC(n6nc(-c7ccc(Oc8ccc(F)cc8F)cc7)c(C(N)=O)c6N)C5)CC4)c3C)ccc2CC1C(=O)NC1CCCc2ccccc21)C(C)(C)C

> <Shape>
0.257

> <Color>
0.111

> <Negative vol penalty>
0.000

$$$$

  -OEChem-04052322123D

 88 97  0     1  0  0  0  0  0999 V2000
  -27.5033  -33.2647   26.7336 C   0  0  0  0  0  0  0  0  0  0  0  0
  -27.7639  -32.1326   25.9682 C   0  0  0  0  0  0  0  0  0  0  0  0
  -24.2508  -13.3335   21.4242 C   0  0  0  0  0  0  0  0  0  0  0  0
  -26.2510  -13.3816   20.0700 C   0  0  0  0  0  0  0  0  0  0  0  0
  -26.1883  -33.6035   27.0497 C   0  0  0  0  0  0  0  0  0  0  0  0
  -26.7096  -31.3379   25.5194 C   0  0  0  0  0  0  0  0  0  0  0  0
  -27.2111  -30.0089   20.6586 C   0  0  0  0  0  0  0  0  0  0  0  0
  -24.0509  -11.9963   21.0815 C   0  0  0  0  0  0  0  0  0  0  0  0
  -26.0511  -12.0443   19.7273 C   0  0  0  0  0  0  0  0  0  0  0  0
  -28.1026  -28.9768   20.3695 C   0  0  0  0  0  0  0  0  0  0  0  0
  -25.2806   -8.9808   21.9914 C   0  0  0  0  0  0  0  0  0  0  0  0
  -24.9403   -8.0938   23.0126 C   0  0  0  0  0  0  0  0  0  0  0  0
  -26.2559  -27.4322   20.2174 C   0  0  0  0  0  0  0  0  0  0  0  0
  -22.8724   -7.5775   21.8750 C   0  0  0  0  0  0  0  0  0  0  0  0
  -25.3509  -14.0262   20.9185 C   0  0  0  0  0  0  0  0  0  0  0  0
  -26.2880  -15.9047   22.3678 C   0  0  0  0  0  0  0  0  0  0  0  0
  -25.1168  -32.8179   26.5964 C   0  0  0  0  0  0  0  0  0  0  0  0
  -25.8339  -29.7578   20.7403 C   0  0  0  0  0  0  0  0  0  0  0  0
  -25.3791  -31.6658   25.8309 C   0  0  0  0  0  0  0  0  0  0  0  0
  -25.3487  -28.4634   20.5052 C   0  0  0  0  0  0  0  0  0  0  0  0
  -27.8069  -22.9409   22.1462 C   0  0  0  0  0  0  0  0  0  0  0  0
  -28.6317  -23.6256   21.2476 C   0  0  0  0  0  0  0  0  0  0  0  0
  -27.8317  -23.2226   23.5011 C   0  0  0  0  0  0  0  0  0  0  0  0
  -29.4936  -24.6172   21.6867 C   0  0  0  0  0  0  0  0  0  0  0  0
  -28.6999  -24.2186   23.9524 C   0  0  0  0  0  0  0  0  0  0  0  0
  -29.5247  -24.9112   23.0516 C   0  0  0  0  0  0  0  0  0  0  0  0
  -24.9510  -11.3517   20.2330 C   0  0  0  0  0  0  0  0  0  0  0  0
  -27.6254  -27.6876   20.1517 C   0  0  0  0  0  0  0  0  0  0  0  0
  -24.4168   -9.1663   20.9120 C   0  0  0  0  0  0  0  0  0  0  0  0
  -23.7362   -7.3921   22.9544 C   0  0  0  0  0  0  0  0  0  0  0  0
  -23.2127   -8.4646   20.8538 C   0  0  0  0  0  0  0  0  0  0  0  0
  -25.5576  -15.4077   21.2717 C   0  0  0  0  0  0  0  0  0  0  0  0
  -26.1830  -17.2699   22.2596 C   0  0  0  0  0  0  0  0  0  0  0  0
  -26.9979  -15.1958   23.3920 C   0  0  0  0  0  0  0  0  0  0  0  0
  -23.6429  -29.9925   23.0312 C   0  0  0  0  0  0  0  0  0  0  0  0
  -21.6058  -29.2414   20.6211 C   0  0  0  0  0  0  0  0  0  0  0  0
  -21.1391  -27.7866   17.5694 C   0  0  0  0  0  0  0  0  0  0  0  0
  -26.5082  -21.7868   18.9167 C   0  0  0  0  0  0  0  0  0  0  0  0
  -23.7151  -33.1978   27.0033 C   0  0  0  0  0  0  0  0  0  0  0  0
  -24.8829  -30.8874   21.0268 C   0  0  0  0  0  0  0  0  0  0  0  0
  -23.8776  -28.1456   20.5613 C   0  0  0  0  0  0  0  0  0  0  0  0
  -26.9879  -21.9183   21.4293 C   0  0  0  0  0  0  0  0  0  0  0  0
  -22.6329  -32.5116   26.1737 C   0  0  0  0  0  0  0  0  0  0  0  0
  -23.2524  -20.1395   19.2966 C   0  0  0  0  0  0  0  0  0  0  0  0
  -22.9316  -31.0223   26.0338 C   0  0  0  0  0  0  0  0  0  0  0  0
  -23.6322  -18.7835   19.8953 C   0  0  0  0  0  0  0  0  0  0  0  0
  -24.3528  -20.6974   18.3963 C   0  0  0  0  0  0  0  0  0  0  0  0
  -26.0593  -19.4002   19.6111 C   0  0  0  0  0  0  0  0  0  0  0  0
  -24.2609  -30.7923   25.3047 C   0  0  1  0  0  0  0  0  0  0  0  0
  -28.3993  -23.1344   19.8489 C   0  0  1  0  0  0  0  0  0  0  0  0
  -23.5471  -30.4149   21.5924 C   0  0  1  0  0  0  0  0  0  0  0  0
  -25.0102  -18.8429   20.5822 C   0  0  2  0  0  0  0  0  0  0  0  0
  -28.7505  -24.5499   25.4116 C   0  0  0  0  0  0  0  0  0  0  0  0
  -29.6414  -22.4993   19.2342 C   0  0  0  0  0  0  0  0  0  0  0  0
  -27.7152  -21.4119   25.2315 C   0  0  0  0  0  0  0  0  0  0  0  0
  -30.6189  -28.3519   24.4187 C   0  0  0  0  0  0  0  0  0  0  0  0
  -19.3562  -27.2960   15.8730 C   0  0  0  0  0  0  0  0  0  0  0  0
  -20.5606  -26.9764   22.3782 C   0  0  0  0  0  0  0  0  0  0  0  0
  -19.5109  -25.9723   20.3391 C   0  0  0  0  0  0  0  0  0  0  0  0
  -18.7927  -28.2273   21.1276 C   0  0  0  0  0  0  0  0  0  0  0  0
  -22.5062  -29.3963   15.4961 C   0  0  0  0  0  0  0  0  0  0  0  0
  -26.9520  -22.4740   24.4442 C   0  0  0  0  0  0  0  0  0  0  0  0
  -30.3461  -25.3749   20.7256 C   0  0  0  0  0  0  0  0  0  0  0  0
  -30.4429  -25.9796   23.5589 C   0  0  0  0  0  0  0  0  0  0  0  0
  -29.6902  -27.2789   23.8729 C   0  0  0  0  0  0  0  0  0  0  0  0
  -29.8049  -26.7753   20.4220 C   0  0  0  0  0  0  0  0  0  1  0  0
  -21.0605  -27.9578   20.0431 C   0  0  1  0  0  0  0  0  0  0  0  0
  -20.4313  -28.2750   16.3184 C   0  0  2  0  0  0  0  0  0  0  0  0
  -20.0091  -27.2887   20.9728 C   0  0  0  0  0  0  0  0  0  0  0  0
  -25.0277  -16.3781   20.5225 N   0  0  0  0  0  0  0  0  0  0  0  0
  -25.4253  -17.4987   21.1489 N   0  0  0  0  0  0  0  0  0  0  0  0
  -22.9882  -29.2825   20.8512 N   0  0  0  0  0  0  0  0  0  0  0  0
  -27.3126  -22.1412   20.0053 N   0  0  0  0  0  0  0  0  0  0  0  0
  -25.6388  -20.7049   19.0917 N   0  0  0  0  0  0  0  0  0  0  0  0
  -26.6656  -18.2850   23.0073 N   0  0  0  0  0  0  0  0  0  0  0  0
  -27.0044  -13.7948   23.3531 N   0  0  0  0  0  0  0  0  0  0  0  0
  -24.0957  -30.9845   23.8799 N   0  0  0  0  0  0  0  0  0  0  0  0
  -20.5580  -28.2896   18.7143 N   0  0  0  0  0  0  0  0  0  0  0  0
  -21.4061  -28.4418   15.2035 N   0  3  0  0  0  0  0  0  0  0  0  0
  -27.5948  -15.7868   24.3237 O   0  0  0  0  0  0  0  0  0  0  0  0
  -23.3278  -28.8514   23.3481 O   0  0  0  0  0  0  0  0  0  0  0  0
  -20.8345  -30.1757   20.8531 O   0  0  0  0  0  0  0  0  0  0  0  0
  -22.1081  -27.0314   17.5347 O   0  0  0  0  0  0  0  0  0  0  0  0
  -26.5290  -22.4327   17.8615 O   0  0  0  0  0  0  0  0  0  0  0  0
  -24.7564  -10.0468   19.8985 O   0  0  0  0  0  0  0  0  0  0  0  0
  -28.4996  -26.6712   19.8679 O   0  0  0  0  0  0  0  0  0  1  0  0
  -23.4103   -6.5391   23.9344 F   0  0  0  0  0  0  0  0  0  0  0  0
  -22.3792   -8.6377   19.8188 F   0  0  0  0  0  0  0  0  0  0  0  0
  1  2  1  0  0  0  0
  1  5  2  0  0  0  0
  2  6  2  0  0  0  0
  3  8  2  0  0  0  0
  3 15  1  0  0  0  0
  4  9  1  0  0  0  0
  4 15  2  0  0  0  0
  5 17  1  0  0  0  0
  6 19  1  0  0  0  0
  7 10  2  0  0  0  0
  7 18  1  0  0  0  0
  8 27  1  0  0  0  0
  9 27  2  0  0  0  0
 10 28  1  0  0  0  0
 11 12  2  0  0  0  0
 11 29  1  0  0  0  0
 12 30  1  0  0  0  0
 13 20  1  0  0  0  0
 13 28  2  0  0  0  0
 14 30  2  0  0  0  0
 14 31  1  0  0  0  0
 15 32  1  0  0  0  0
 16 32  1  0  0  0  0
 16 33  2  0  0  0  0
 16 34  1  0  0  0  0
 17 19  2  0  0  0  0
 17 39  1  0  0  0  0
 18 20  2  0  0  0  0
 18 40  1  0  0  0  0
 19 49  1  0  0  0  0
 20 41  1  0  0  0  0
 21 22  2  0  0  0  0
 21 23  1  0  0  0  0
 21 42  1  0  0  0  0
 22 24  1  0  0  0  0
 22 50  1  0  0  0  0
 23 25  2  0  0  0  0
 23 62  1  0  0  0  0
 24 26  2  0  0  0  0
 24 63  1  0  0  0  0
 25 26  1  0  0  0  0
 25 53  1  0  0  0  0
 26 64  1  0  0  0  0
 27 85  1  0  0  0  0
 28 86  1  0  0  0  0
 29 31  2  0  0  0  0
 29 85  1  0  0  0  0
 30 87  1  0  0  0  0
 31 88  1  0  0  0  0
 32 70  2  0  0  0  0
 33 71  1  0  0  0  0
 33 75  1  0  0  0  0
 34 76  1  0  0  0  0
 34 80  2  0  0  0  0
 35 51  1  0  0  0  0
 35 77  1  0  0  0  0
 35 81  2  0  0  0  0
 36 67  1  0  0  0  0
 36 72  1  0  0  0  0
 36 82  2  0  0  0  0
 37 68  1  0  0  0  0
 37 78  1  0  0  0  0
 37 83  2  0  0  0  0
 38 73  1  0  0  0  0
 38 74  1  0  0  0  0
 38 84  2  0  0  0  0
 39 43  1  0  0  0  0
 40 51  1  0  0  0  0
 41 72  1  0  0  0  0
 42 73  1  0  0  0  0
 43 45  1  0  0  0  0
 44 46  1  0  0  0  0
 44 47  1  0  0  0  0
 45 49  1  0  0  0  0
 46 52  1  0  0  0  0
 47 74  1  0  0  0  0
 48 52  1  0  0  0  0
 48 74  1  0  0  0  0
 49 77  1  0  0  0  0
 50 54  1  0  0  0  0
 50 73  1  0  0  0  0
 51 72  1  0  0  0  0
 52 71  1  0  0  0  0
 55 62  1  0  0  0  0
 56 65  1  0  0  0  0
 57 68  1  0  0  0  0
 58 69  1  0  0  0  0
 59 69  1  0  0  0  0
 60 69  1  0  0  0  0
 61 79  1  0  0  0  0
 63 66  1  0  0  0  0
 64 65  1  0  0  0  0
 66 86  1  0  0  0  0
 67 69  1  0  0  0  0
 67 78  1  0  0  0  0
 68 79  1  0  0  0  0
 70 71  1  0  0  0  0
M  CHG  1  79   1
M  ISO  4  38 100  66 101  73 100  86 101
M  END
> <Batch ID>
0161

> <Smiles>
CCCc1c(C)c(CC)c2c(c1C[101CH2:1][101O:1]c1ccc3c(c1)CN(C(=O)C(NC(=O)C(C)NC)C(C)(C)C)C(C(=O)NC1CCCc4ccccc41)C3)C(C)[100N:0]([100C:0](=O)N1CCCC(n3nc(-c4ccc(Oc5ccc(F)cc5F)cc4)c(C(N)=O)c3N)C1)C2

> <Shape>
0.254

> <Color>
0.083

> <Negative vol penalty>
0.000

$$$$

  -OEChem-04052322123D

 88 98  0     1  0  0  0  0  0999 V2000
  -25.2760  -32.2751   29.2545 C   0  0  0  0  0  0  0  0  0  0  0  0
  -26.0254  -31.4887   28.3853 C   0  0  0  0  0  0  0  0  0  0  0  0
  -23.3921   -9.5363   19.9093 C   0  0  0  0  0  0  0  0  0  0  0  0
  -23.8976   -9.7667   22.2606 C   0  0  0  0  0  0  0  0  0  0  0  0
  -23.9136  -32.4618   29.0247 C   0  0  0  0  0  0  0  0  0  0  0  0
  -25.4126  -30.8877   27.2864 C   0  0  0  0  0  0  0  0  0  0  0  0
  -27.8870  -29.9084   21.7706 C   0  0  0  0  0  0  0  0  0  0  0  0
  -22.7576   -8.3207   20.1649 C   0  0  0  0  0  0  0  0  0  0  0  0
  -23.2631   -8.5511   22.5162 C   0  0  0  0  0  0  0  0  0  0  0  0
  -28.4689  -28.7823   21.1902 C   0  0  0  0  0  0  0  0  0  0  0  0
  -20.0969   -7.4178   22.8500 C   0  0  0  0  0  0  0  0  0  0  0  0
  -19.2284   -7.3583   23.9398 C   0  0  0  0  0  0  0  0  0  0  0  0
  -26.3647  -28.2432   20.1408 C   0  0  0  0  0  0  0  0  0  0  0  0
  -20.5903   -5.6260   24.9306 C   0  0  0  0  0  0  0  0  0  0  0  0
  -23.9622  -10.2593   20.9572 C   0  0  0  0  0  0  0  0  0  0  0  0
  -24.0342  -12.7957   20.6940 C   0  0  0  0  0  0  0  0  0  0  0  0
  -23.2857  -31.8708   27.9170 C   0  0  0  0  0  0  0  0  0  0  0  0
  -26.5344  -30.2049   21.5489 C   0  0  0  0  0  0  0  0  0  0  0  0
  -24.0402  -31.0657   27.0423 C   0  0  0  0  0  0  0  0  0  0  0  0
  -25.7687  -29.3751   20.7176 C   0  0  0  0  0  0  0  0  0  0  0  0
  -22.6931   -7.8281   21.4683 C   0  0  0  0  0  0  0  0  0  0  0  0
  -27.7071  -27.9479   20.3775 C   0  0  0  0  0  0  0  0  0  0  0  0
  -21.2121   -6.5813   22.8003 C   0  0  0  0  0  0  0  0  0  0  0  0
  -19.4751   -6.4625   24.9801 C   0  0  0  0  0  0  0  0  0  0  0  0
  -21.4588   -5.6855   23.8406 C   0  0  0  0  0  0  0  0  0  0  0  0
  -24.6182  -11.5148   20.6938 C   0  0  0  0  0  0  0  0  0  0  0  0
  -25.0694  -13.6452   20.3891 C   0  0  0  0  0  0  0  0  0  0  0  0
  -22.6771  -13.1830   20.9474 C   0  0  0  0  0  0  0  0  0  0  0  0
  -23.9617  -30.4602   23.3981 C   0  0  0  0  0  0  0  0  0  0  0  0
  -22.5636  -31.4610   20.6475 C   0  0  0  0  0  0  0  0  0  0  0  0
  -22.5645  -31.4731   17.2348 C   0  0  0  0  0  0  0  0  0  0  0  0
  -30.3493  -15.3166   21.0298 C   0  0  0  0  0  0  0  0  0  0  0  0
  -21.8007  -32.0628   27.7363 C   0  0  0  0  0  0  0  0  0  0  0  0
  -25.9285  -31.4382   22.1608 C   0  0  0  0  0  0  0  0  0  0  0  0
  -24.3177  -29.6605   20.4316 C   0  0  0  0  0  0  0  0  0  0  0  0
  -21.3047  -31.6970   26.3397 C   0  0  0  0  0  0  0  0  0  0  0  0
  -29.7512  -12.6709   18.7375 C   0  0  0  0  0  0  0  0  0  0  0  0
  -21.8861  -30.3567   25.9008 C   0  0  0  0  0  0  0  0  0  0  0  0
  -27.7465  -24.1453   22.0664 C   0  0  0  0  0  0  0  0  0  0  0  0
  -28.3162  -12.2377   19.0422 C   0  0  0  0  0  0  0  0  0  0  0  0
  -26.5389  -23.2323   22.2155 C   0  0  0  0  0  0  0  0  0  0  0  0
  -27.5251  -20.8898   22.0483 C   0  0  0  0  0  0  0  0  0  0  0  0
  -30.5022  -13.0680   20.0066 C   0  0  0  0  0  0  0  0  0  0  0  0
  -28.3942  -13.6513   21.1390 C   0  0  0  0  0  0  0  0  0  0  0  0
  -28.9825  -18.5380   22.6175 C   0  0  0  0  0  0  0  0  0  0  0  0
  -30.1810  -18.5523   20.9090 C   0  0  0  0  0  0  0  0  0  0  0  0
  -23.4165  -30.4174   25.8254 C   0  0  1  0  0  0  0  0  0  0  0  0
  -24.4097  -31.3607   22.2819 C   0  0  1  0  0  0  0  0  0  0  0  0
  -28.0370  -24.0693   20.5686 C   0  0  2  0  0  0  0  0  0  0  0  0
  -29.1692  -21.7026   20.5332 C   0  0  2  0  0  0  0  0  0  0  0  0
  -27.5775  -13.2952   19.8848 C   0  0  2  0  0  0  0  0  0  0  0  0
  -30.0612  -17.5745   22.0915 C   0  0  0  0  0  0  0  0  0  0  0  0
  -28.5836  -20.4013   21.0786 C   0  0  1  0  0  0  0  0  0  0  0  0
  -26.8195  -22.0350   21.2805 C   0  0  2  0  0  0  0  0  0  0  0  0
  -27.8891  -22.5563   20.2227 C   0  0  1  0  0  0  0  0  0  0  0  0
  -30.1399  -21.4681   19.3778 C   0  0  0  0  0  0  0  0  0  0  0  0
  -25.4971  -21.5144   20.7017 C   0  0  0  0  0  0  0  0  0  0  0  0
  -27.4441  -22.4135   18.7561 C   0  0  0  0  0  0  0  0  0  0  0  0
  -21.2742  -32.3465   15.2676 C   0  0  0  0  0  0  0  0  0  0  0  0
  -20.4306  -29.3272   21.1022 C   0  0  0  0  0  0  0  0  0  0  0  0
  -19.7499  -29.5966   18.7080 C   0  0  0  0  0  0  0  0  0  0  0  0
  -19.5533  -31.5211   20.2829 C   0  0  0  0  0  0  0  0  0  0  0  0
  -24.8824  -33.0339   16.2599 C   0  0  0  0  0  0  0  0  0  0  0  0
  -29.3510  -24.7396   20.1938 C   0  0  0  0  0  0  0  0  0  0  0  0
  -29.3385  -26.2234   20.5213 C   0  0  0  0  0  0  0  0  0  1  0  0
  -21.8437  -30.7840   19.5063 C   0  0  1  0  0  0  0  0  0  0  0  0
  -22.4222  -32.6033   16.2314 C   0  0  2  0  0  0  0  0  0  0  0  0
  -20.4212  -30.3005   19.9066 C   0  0  0  0  0  0  0  0  0  0  0  0
  -25.9233  -11.5433   20.4110 N   0  0  0  0  0  0  0  0  0  0  0  0
  -26.1678  -12.8524   20.2305 N   0  0  0  0  0  0  0  0  0  0  0  0
  -23.7692  -30.8747   21.0580 N   0  0  0  0  0  0  0  0  0  0  0  0
  -29.7490  -14.0777   20.7547 N   0  0  0  0  0  0  0  0  0  0  0  0
  -25.1382  -14.9855   20.2437 N   0  0  0  0  0  0  0  0  0  0  0  0
  -21.7415  -12.1830   21.2458 N   0  0  0  0  0  0  0  0  0  0  0  0
  -23.8366  -31.0964   24.6184 N   0  0  0  0  0  0  0  0  0  0  0  0
  -21.8630  -31.7279   18.3941 N   0  0  0  0  0  0  0  0  0  0  0  0
  -29.5702  -16.2272   21.7360 N   0  0  0  0  0  0  0  0  0  0  0  0
  -29.5975  -19.5912   21.7831 N   0  3  0  0  0  0  0  0  0  0  0  0
  -23.6758  -32.7541   15.4397 N   0  3  0  0  0  0  0  0  0  0  0  0
  -22.3018  -14.3787   20.8941 O   0  0  0  0  0  0  0  0  0  0  0  0
  -23.7441  -29.2762   23.1690 O   0  0  0  0  0  0  0  0  0  0  0  0
  -22.0779  -32.4769   21.1512 O   0  0  0  0  0  0  0  0  0  0  0  0
  -23.2284  -30.4633   17.0109 O   0  0  0  0  0  0  0  0  0  0  0  0
  -31.4960  -15.6014   20.6676 O   0  0  0  0  0  0  0  0  0  0  0  0
  -22.0738   -6.6421   21.7180 O   0  0  0  0  0  0  0  0  0  0  0  0
  -28.2766  -26.8396   19.8061 O   0  0  0  0  0  0  0  0  0  1  0  0
  -18.6419   -6.4066   26.0274 F   0  0  0  0  0  0  0  0  0  0  0  0
  -22.5291   -4.8802   23.7992 F   0  0  0  0  0  0  0  0  0  0  0  0
  1  2  1  0  0  0  0
  1  5  2  0  0  0  0
  2  6  2  0  0  0  0
  3  8  2  0  0  0  0
  3 15  1  0  0  0  0
  4  9  1  0  0  0  0
  4 15  2  0  0  0  0
  5 17  1  0  0  0  0
  6 19  1  0  0  0  0
  7 10  2  0  0  0  0
  7 18  1  0  0  0  0
  8 21  1  0  0  0  0
  9 21  2  0  0  0  0
 10 22  1  0  0  0  0
 11 12  2  0  0  0  0
 11 23  1  0  0  0  0
 12 24  1  0  0  0  0
 13 20  1  0  0  0  0
 13 22  2  0  0  0  0
 14 24  2  0  0  0  0
 14 25  1  0  0  0  0
 15 26  1  0  0  0  0
 16 26  1  0  0  0  0
 16 27  2  0  0  0  0
 16 28  1  0  0  0  0
 17 19  2  0  0  0  0
 17 33  1  0  0  0  0
 18 20  2  0  0  0  0
 18 34  1  0  0  0  0
 19 47  1  0  0  0  0
 20 35  1  0  0  0  0
 21 85  1  0  0  0  0
 22 86  1  0  0  0  0
 23 25  2  0  0  0  0
 23 85  1  0  0  0  0
 24 87  1  0  0  0  0
 25 88  1  0  0  0  0
 26 69  2  0  0  0  0
 27 70  1  0  0  0  0
 27 73  1  0  0  0  0
 28 74  1  0  0  0  0
 28 80  2  0  0  0  0
 29 48  1  0  0  0  0
 29 75  1  0  0  0  0
 29 81  2  0  0  0  0
 30 66  1  0  0  0  0
 30 71  1  0  0  0  0
 30 82  2  0  0  0  0
 31 67  1  0  0  0  0
 31 76  1  0  0  0  0
 31 83  2  0  0  0  0
 32 72  1  0  0  0  0
 32 77  1  0  0  0  0
 32 84  2  0  0  0  0
 33 36  1  0  0  0  0
 34 48  1  0  0  0  0
 35 71  1  0  0  0  0
 36 38  1  0  0  0  0
 37 40  1  0  0  0  0
 37 43  1  0  0  0  0
 38 47  1  0  0  0  0
 39 41  1  0  0  0  0
 39 49  1  0  0  0  0
 40 51  1  0  0  0  0
 41 54  1  0  0  0  0
 42 53  1  0  0  0  0
 42 54  1  0  0  0  0
 43 72  1  0  0  0  0
 44 51  1  0  0  0  0
 44 72  1  0  0  0  0
 45 52  1  0  0  0  0
 45 78  1  0  0  0  0
 46 52  1  0  0  0  0
 46 78  1  0  0  0  0
 47 75  1  0  0  0  0
 48 71  1  0  0  0  0
 49 55  1  0  0  0  0
 49 64  1  0  0  0  0
 50 53  1  0  0  0  0
 50 55  1  0  0  0  0
 50 56  1  0  0  0  0
 51 70  1  0  0  0  0
 52 77  1  0  0  0  0
 53 78  1  0  0  0  0
 54 55  1  0  0  0  0
 54 57  1  0  0  0  0
 55 58  1  0  0  0  0
 59 67  1  0  0  0  0
 60 68  1  0  0  0  0
 61 68  1  0  0  0  0
 62 68  1  0  0  0  0
 63 79  1  0  0  0  0
 64 65  1  0  0  0  0
 65 86  1  0  0  0  0
 66 68  1  0  0  0  0
 66 76  1  0  0  0  0
 67 79  1  0  0  0  0
 69 70  1  0  0  0  0
M  CHG  2  78   1  79   1
M  ISO  4  32 100  65 101  77 100  86 101
M  END
> <Batch ID>
0161

> <Smiles>
CNC(C)C(=O)NC(C(=O)N1Cc2cc([101O:1][101CH2:1]CC3CCC4(C)CC(N5CC([100NH:0][100C:0](=O)N6CCCC(n7nc(-c8ccc(Oc9ccc(F)cc9F)cc8)c(C(N)=O)c7N)C6)C5)C(C)C34C)ccc2CC1C(=O)NC1CCCc2ccccc21)C(C)(C)C

> <Shape>
0.332

> <Color>
0.208

> <Negative vol penalty>
0.000

$$$$

  -OEChem-04052322123D

 89 99  0     1  0  0  0  0  0999 V2000
  -27.3720  -35.9219   24.8818 C   0  0  0  0  0  0  0  0  0  0  0  0
  -26.1575  -35.8980   24.2057 C   0  0  0  0  0  0  0  0  0  0  0  0
  -24.6206   -8.9262   21.9127 C   0  0  0  0  0  0  0  0  0  0  0  0
  -23.1251   -9.6955   20.1780 C   0  0  0  0  0  0  0  0  0  0  0  0
  -28.5350  -35.5133   24.2324 C   0  0  0  0  0  0  0  0  0  0  0  0
  -26.1035  -35.4543   22.8839 C   0  0  0  0  0  0  0  0  0  0  0  0
  -26.1910  -28.9208   18.8143 C   0  0  0  0  0  0  0  0  0  0  0  0
  -23.5600   -8.2678   22.5350 C   0  0  0  0  0  0  0  0  0  0  0  0
  -22.0646   -9.0370   20.8003 C   0  0  0  0  0  0  0  0  0  0  0  0
  -26.8594  -27.7285   19.0892 C   0  0  0  0  0  0  0  0  0  0  0  0
  -21.8302   -5.3913   22.1267 C   0  0  0  0  0  0  0  0  0  0  0  0
  -22.0492   -4.0886   22.5744 C   0  0  0  0  0  0  0  0  0  0  0  0
  -26.2079  -27.9044   21.4052 C   0  0  0  0  0  0  0  0  0  0  0  0
  -21.5373   -4.7786   24.8325 C   0  0  0  0  0  0  0  0  0  0  0  0
  -24.4031   -9.6401   20.7342 C   0  0  0  0  0  0  0  0  0  0  0  0
  -26.3656   -9.8004   19.1122 C   0  0  0  0  0  0  0  0  0  0  0  0
  -28.4964  -35.0763   22.8981 C   0  0  0  0  0  0  0  0  0  0  0  0
  -25.5342  -29.6207   19.8367 C   0  0  0  0  0  0  0  0  0  0  0  0
  -27.2626  -35.0152   22.2188 C   0  0  0  0  0  0  0  0  0  0  0  0
  -25.5298  -29.1040   21.1402 C   0  0  0  0  0  0  0  0  0  0  0  0
  -28.2174  -22.9088   19.7432 C   0  0  0  0  0  0  0  0  0  0  0  0
  -28.8027  -24.1376   20.0485 C   0  0  0  0  0  0  0  0  0  0  0  0
  -29.9755  -24.1834   20.8023 C   0  0  0  0  0  0  0  0  0  0  0  0
  -30.5630  -23.0004   21.2508 C   0  0  0  0  0  0  0  0  0  0  0  0
  -29.9777  -21.7716   20.9455 C   0  0  0  0  0  0  0  0  0  0  0  0
  -28.8049  -21.7258   20.1917 C   0  0  0  0  0  0  0  0  0  0  0  0
  -22.2820   -8.3231   21.9788 C   0  0  0  0  0  0  0  0  0  0  0  0
  -26.8703  -27.2216   20.3854 C   0  0  0  0  0  0  0  0  0  0  0  0
  -21.4648   -6.3878   23.0319 C   0  0  0  0  0  0  0  0  0  0  0  0
  -21.9027   -3.7822   23.9273 C   0  0  0  0  0  0  0  0  0  0  0  0
  -21.3183   -6.0814   24.3848 C   0  0  0  0  0  0  0  0  0  0  0  0
  -25.4981  -10.3210   20.0912 C   0  0  0  0  0  0  0  0  0  0  0  0
  -27.2242  -10.8345   18.8294 C   0  0  0  0  0  0  0  0  0  0  0  0
  -26.3927   -8.4986   18.5121 C   0  0  0  0  0  0  0  0  0  0  0  0
  -25.8528  -32.4987   21.1479 C   0  0  0  0  0  0  0  0  0  0  0  0
  -23.1581  -31.6435   22.7384 C   0  0  0  0  0  0  0  0  0  0  0  0
  -21.1552  -29.1400   23.9077 C   0  0  0  0  0  0  0  0  0  0  0  0
  -26.7877  -16.5942   19.0809 C   0  0  0  0  0  0  0  0  0  0  0  0
  -29.7840  -34.6380   22.2461 C   0  0  0  0  0  0  0  0  0  0  0  0
  -24.7953  -30.8916   19.5185 C   0  0  0  0  0  0  0  0  0  0  0  0
  -24.8227  -29.8065   22.2693 C   0  0  0  0  0  0  0  0  0  0  0  0
  -29.6995  -34.6084   20.7235 C   0  0  0  0  0  0  0  0  0  0  0  0
  -29.2059  -14.7117   20.7979 C   0  0  0  0  0  0  0  0  0  0  0  0
  -25.7628  -23.6415   19.4091 C   0  0  0  0  0  0  0  0  0  0  0  0
  -25.7605  -22.1472   19.4943 C   0  0  0  0  0  0  0  0  0  0  0  0
  -28.4534  -33.8526   20.2868 C   0  0  0  0  0  0  0  0  0  0  0  0
  -28.6101  -13.3065   20.7178 C   0  0  0  0  0  0  0  0  0  0  0  0
  -28.1368  -15.7731   21.0624 C   0  0  0  0  0  0  0  0  0  0  0  0
  -28.6112  -19.7949   18.6548 C   0  0  0  0  0  0  0  0  0  0  0  0
  -27.7717  -19.6509   21.0044 C   0  0  0  0  0  0  0  0  0  0  0  0
  -27.5510  -18.7811   18.2332 C   0  0  0  0  0  0  0  0  0  0  0  0
  -26.7194  -18.6504   20.5394 C   0  0  0  0  0  0  0  0  0  0  0  0
  -26.4124  -14.3348   20.0252 C   0  0  0  0  0  0  0  0  0  0  0  0
  -26.9580  -22.8631   18.9345 C   0  0  0  0  0  0  0  0  0  0  0  0
  -27.1845  -34.5655   20.7711 C   0  0  1  0  0  0  0  0  0  0  0  0
  -24.5947  -31.7872   20.7371 C   0  0  1  0  0  0  0  0  0  0  0  0
  -27.4550  -13.2533   19.7021 C   0  0  2  0  0  0  0  0  0  0  0  0
  -30.6036  -25.5015   21.1305 C   0  0  0  0  0  0  0  0  0  0  0  0
  -31.8216  -23.0505   22.0588 C   0  0  0  0  0  0  0  0  0  0  0  0
  -30.6111  -20.5044   21.4289 C   0  0  0  0  0  0  0  0  0  0  0  0
  -19.0413  -28.7508   25.2029 C   0  0  0  0  0  0  0  0  0  0  0  0
  -24.6256  -32.3104   25.3291 C   0  0  0  0  0  0  0  0  0  0  0  0
  -22.8675  -31.0327   26.5721 C   0  0  0  0  0  0  0  0  0  0  0  0
  -22.2404  -33.0588   25.2589 C   0  0  0  0  0  0  0  0  0  0  0  0
  -19.8722  -27.7626   21.6239 C   0  0  0  0  0  0  0  0  0  0  0  0
  -28.1744  -25.4083   19.5687 C   0  0  0  0  0  0  0  0  0  1  0  0
  -22.8633  -30.9343   24.0380 C   0  0  1  0  0  0  0  0  0  0  0  0
  -19.6545  -28.9277   23.8225 C   0  0  2  0  0  0  0  0  0  0  0  0
  -23.1643  -31.8216   25.2789 C   0  0  0  0  0  0  0  0  0  0  0  0
  -25.7800  -11.5873   20.4090 N   0  0  0  0  0  0  0  0  0  0  0  0
  -26.8342  -11.8711   19.6254 N   0  0  0  0  0  0  0  0  0  0  0  0
  -28.2189  -20.4911   19.8849 N   0  0  0  0  0  0  0  0  0  0  0  0
  -24.1197  -31.0489   21.9091 N   0  0  0  0  0  0  0  0  0  0  0  0
  -27.0375  -15.6573   20.0948 N   0  0  0  0  0  0  0  0  0  0  0  0
  -27.1509  -17.9245   19.3431 N   0  0  0  0  0  0  0  0  0  0  0  0
  -28.2672  -10.9490   17.9800 N   0  0  0  0  0  0  0  0  0  0  0  0
  -25.4383   -7.5558   18.9179 N   0  0  0  0  0  0  0  0  0  0  0  0
  -26.0411  -33.7157   20.5212 N   0  0  0  0  0  0  0  0  0  0  0  0
  -21.4800  -30.4794   23.9501 N   0  0  0  0  0  0  0  0  0  0  0  0
  -19.3480  -27.7145   23.0131 N   0  3  0  0  0  0  0  0  0  0  0  0
  -27.2485   -8.1755   17.6538 O   0  0  0  0  0  0  0  0  0  0  0  0
  -26.5968  -31.9824   21.9735 O   0  0  0  0  0  0  0  0  0  0  0  0
  -22.5522  -32.6828   22.4656 O   0  0  0  0  0  0  0  0  0  0  0  0
  -21.9587  -28.2105   23.9376 O   0  0  0  0  0  0  0  0  0  0  0  0
  -26.2742  -16.2639   18.0048 O   0  0  0  0  0  0  0  0  0  0  0  0
  -21.2470   -7.6805   22.5857 O   0  0  0  0  0  0  0  0  0  0  0  0
  -27.5273  -26.0498   20.6586 O   0  0  0  0  0  0  0  0  0  1  0  0
  -22.1115   -2.5308   24.3569 F   0  0  0  0  0  0  0  0  0  0  0  0
  -20.9663   -7.0342   25.2589 F   0  0  0  0  0  0  0  0  0  0  0  0
  1  2  1  0  0  0  0
  1  5  2  0  0  0  0
  2  6  2  0  0  0  0
  3  8  2  0  0  0  0
  3 15  1  0  0  0  0
  4  9  1  0  0  0  0
  4 15  2  0  0  0  0
  5 17  1  0  0  0  0
  6 19  1  0  0  0  0
  7 10  2  0  0  0  0
  7 18  1  0  0  0  0
  8 27  1  0  0  0  0
  9 27  2  0  0  0  0
 10 28  1  0  0  0  0
 11 12  2  0  0  0  0
 11 29  1  0  0  0  0
 12 30  1  0  0  0  0
 13 20  1  0  0  0  0
 13 28  2  0  0  0  0
 14 30  2  0  0  0  0
 14 31  1  0  0  0  0
 15 32  1  0  0  0  0
 16 32  1  0  0  0  0
 16 33  2  0  0  0  0
 16 34  1  0  0  0  0
 17 19  2  0  0  0  0
 17 39  1  0  0  0  0
 18 20  2  0  0  0  0
 18 40  1  0  0  0  0
 19 55  1  0  0  0  0
 20 41  1  0  0  0  0
 21 22  2  0  0  0  0
 21 26  1  0  0  0  0
 21 54  1  0  0  0  0
 22 23  1  0  0  0  0
 22 66  1  0  0  0  0
 23 24  2  0  0  0  0
 23 58  1  0  0  0  0
 24 25  1  0  0  0  0
 24 59  1  0  0  0  0
 25 26  2  0  0  0  0
 25 60  1  0  0  0  0
 26 72  1  0  0  0  0
 27 86  1  0  0  0  0
 28 87  1  0  0  0  0
 29 31  2  0  0  0  0
 29 86  1  0  0  0  0
 30 88  1  0  0  0  0
 31 89  1  0  0  0  0
 32 70  2  0  0  0  0
 33 71  1  0  0  0  0
 33 76  1  0  0  0  0
 34 77  1  0  0  0  0
 34 81  2  0  0  0  0
 35 56  1  0  0  0  0
 35 78  1  0  0  0  0
 35 82  2  0  0  0  0
 36 67  1  0  0  0  0
 36 73  1  0  0  0  0
 36 83  2  0  0  0  0
 37 68  1  0  0  0  0
 37 79  1  0  0  0  0
 37 84  2  0  0  0  0
 38 74  1  0  0  0  0
 38 75  1  0  0  0  0
 38 85  2  0  0  0  0
 39 42  1  0  0  0  0
 40 56  1  0  0  0  0
 41 73  1  0  0  0  0
 42 46  1  0  0  0  0
 43 47  1  0  0  0  0
 43 48  1  0  0  0  0
 44 45  1  0  0  0  0
 44 54  1  0  0  0  0
 45 54  1  0  0  0  0
 46 55  1  0  0  0  0
 47 57  1  0  0  0  0
 48 74  1  0  0  0  0
 49 51  1  0  0  0  0
 49 72  1  0  0  0  0
 50 52  1  0  0  0  0
 50 72  1  0  0  0  0
 51 75  1  0  0  0  0
 52 75  1  0  0  0  0
 53 57  1  0  0  0  0
 53 74  1  0  0  0  0
 55 78  1  0  0  0  0
 56 73  1  0  0  0  0
 57 71  1  0  0  0  0
 61 68  1  0  0  0  0
 62 69  1  0  0  0  0
 63 69  1  0  0  0  0
 64 69  1  0  0  0  0
 65 80  1  0  0  0  0
 66 87  1  0  0  0  0
 67 69  1  0  0  0  0
 67 79  1  0  0  0  0
 68 80  1  0  0  0  0
 70 71  1  0  0  0  0
M  CHG  1  80   1
M  ISO  4  38 100  66 101  75 100  87 101
M  END
> <Batch ID>
0161

> <Smiles>
CNC(C)C(=O)NC(C(=O)N1Cc2cc([101O:1][101CH2:1]c3c(C)c(C)c(C)c(N4CC[100N:0]([100C:0](=O)N5CCCC(n6nc(-c7ccc(Oc8ccc(F)cc8F)cc7)c(C(N)=O)c6N)C5)CC4)c3C3CC3)ccc2CC1C(=O)NC1CCCc2ccccc21)C(C)(C)C

> <Shape>
0.323

> <Color>
0.104

> <Negative vol penalty>
0.000

$$$$

  -OEChem-04052322123D

 89 98  0     1  0  0  0  0  0999 V2000
  -19.1342  -25.2790   17.8420 C   0  0  0  0  0  0  0  0  0  0  0  0
  -18.9284  -23.9187   18.0487 C   0  0  0  0  0  0  0  0  0  0  0  0
  -26.6515  -28.3279   18.9176 C   0  0  0  0  0  0  0  0  0  0  0  0
  -26.5328  -27.3292   21.1142 C   0  0  0  0  0  0  0  0  0  0  0  0
  -20.4030  -25.8268   18.0259 C   0  0  0  0  0  0  0  0  0  0  0  0
  -19.9918  -23.1052   18.4383 C   0  0  0  0  0  0  0  0  0  0  0  0
  -21.4261  -17.3004   22.3833 C   0  0  0  0  0  0  0  0  0  0  0  0
  -25.5097  -29.0787   19.1972 C   0  0  0  0  0  0  0  0  0  0  0  0
  -25.3910  -28.0800   21.3939 C   0  0  0  0  0  0  0  0  0  0  0  0
  -22.0605  -16.0626   22.2871 C   0  0  0  0  0  0  0  0  0  0  0  0
  -24.6583  -31.2505   22.3057 C   0  0  0  0  0  0  0  0  0  0  0  0
  -24.5866  -31.8798   23.5484 C   0  0  0  0  0  0  0  0  0  0  0  0
  -24.1913  -17.1331   22.6514 C   0  0  0  0  0  0  0  0  0  0  0  0
  -22.5834  -30.6319   24.0649 C   0  0  0  0  0  0  0  0  0  0  0  0
  -27.1630  -27.4531   19.8761 C   0  0  0  0  0  0  0  0  0  0  0  0
  -29.6803  -27.0428   19.8265 C   0  0  0  0  0  0  0  0  0  0  0  0
  -21.4804  -25.0213   18.4273 C   0  0  0  0  0  0  0  0  0  0  0  0
  -22.1720  -18.4672   22.6037 C   0  0  0  0  0  0  0  0  0  0  0  0
  -21.2766  -23.6425   18.6264 C   0  0  0  0  0  0  0  0  0  0  0  0
  -23.5638  -18.3841   22.7525 C   0  0  0  0  0  0  0  0  0  0  0  0
  -28.0431  -14.6679   19.2417 C   0  0  0  0  0  0  0  0  0  0  0  0
  -28.1707  -13.4542   19.9395 C   0  0  0  0  0  0  0  0  0  0  0  0
  -29.1890  -15.2915   18.7281 C   0  0  0  0  0  0  0  0  0  0  0  0
  -29.4355  -12.8668   20.0804 C   0  0  0  0  0  0  0  0  0  0  0  0
  -30.4440  -14.7029   18.8818 C   0  0  0  0  0  0  0  0  0  0  0  0
  -30.5669  -13.4904   19.5553 C   0  0  0  0  0  0  0  0  0  0  0  0
  -24.8794  -28.9548   20.4354 C   0  0  0  0  0  0  0  0  0  0  0  0
  -23.4435  -15.9791   22.4183 C   0  0  0  0  0  0  0  0  0  0  0  0
  -23.6924  -30.3119   21.9425 C   0  0  0  0  0  0  0  0  0  0  0  0
  -23.5492  -31.5705   24.4281 C   0  0  0  0  0  0  0  0  0  0  0  0
  -22.6550  -30.0026   22.8221 C   0  0  0  0  0  0  0  0  0  0  0  0
  -28.3421  -26.6769   19.5876 C   0  0  0  0  0  0  0  0  0  0  0  0
  -30.4143  -25.9713   19.3799 C   0  0  0  0  0  0  0  0  0  0  0  0
  -30.2123  -28.2440   20.4009 C   0  0  0  0  0  0  0  0  0  0  0  0
  -22.6646  -21.1548   20.9797 C   0  0  0  0  0  0  0  0  0  0  0  0
  -24.2448  -22.0334   23.6729 C   0  0  0  0  0  0  0  0  0  0  0  0
  -25.9178  -21.0820   26.4912 C   0  0  0  0  0  0  0  0  0  0  0  0
  -29.0846  -20.2447   18.8378 C   0  0  0  0  0  0  0  0  0  0  0  0
  -22.8441  -25.6500   18.5675 C   0  0  0  0  0  0  0  0  0  0  0  0
  -21.4699  -19.7913   22.7317 C   0  0  0  0  0  0  0  0  0  0  0  0
  -26.7013  -15.3396   19.0961 C   0  0  0  0  0  0  0  0  0  0  0  0
  -24.4080  -19.6045   23.0103 C   0  0  0  0  0  0  0  0  0  0  0  0
  -26.9612  -12.7490   20.4898 C   0  0  0  0  0  0  0  0  0  0  0  0
  -23.8355  -24.7875   19.3444 C   0  0  0  0  0  0  0  0  0  0  0  0
  -30.2754  -22.4056   16.1902 C   0  0  0  0  0  0  0  0  0  0  0  0
  -23.7877  -23.3445   18.8522 C   0  0  0  0  0  0  0  0  0  0  0  0
  -30.0367  -23.7896   16.7966 C   0  0  0  0  0  0  0  0  0  0  0  0
  -29.1573  -21.4374   16.5652 C   0  0  0  0  0  0  0  0  0  0  0  0
  -28.6875  -22.6830   18.6392 C   0  0  0  0  0  0  0  0  0  0  0  0
  -25.5264  -14.3846   19.2765 C   0  0  0  0  0  0  0  0  0  0  0  0
  -22.3995  -22.7318   19.0735 C   0  0  1  0  0  0  0  0  0  0  0  0
  -22.3811  -20.9808   22.4450 C   0  0  1  0  0  0  0  0  0  0  0  0
  -29.7953  -23.7019   18.3153 C   0  0  2  0  0  0  0  0  0  0  0  0
  -29.5872  -11.5559   20.7892 C   0  0  0  0  0  0  0  0  0  0  0  0
  -31.6601  -15.3742   18.3241 C   0  0  0  0  0  0  0  0  0  0  0  0
  -31.9135  -12.8571   19.7133 C   0  0  0  0  0  0  0  0  0  0  0  0
  -27.1260  -22.0256   28.4779 C   0  0  0  0  0  0  0  0  0  0  0  0
  -24.0127  -12.0835   19.7111 C   0  0  0  0  0  0  0  0  0  0  0  0
  -26.6464  -22.6763   21.9040 C   0  0  0  0  0  0  0  0  0  0  0  0
  -28.0712  -22.6890   23.9626 C   0  0  0  0  0  0  0  0  0  0  0  0
  -26.2153  -24.3384   23.7222 C   0  0  0  0  0  0  0  0  0  0  0  0
  -24.0173  -19.8339   28.3858 C   0  0  0  0  0  0  0  0  0  0  0  0
  -29.0857  -16.6058   18.0158 C   0  0  0  0  0  0  0  0  0  0  0  0
  -29.5009  -17.7989   18.8799 C   0  0  0  0  0  0  0  0  0  0  0  0
  -23.4540  -13.7901   21.4888 C   0  0  0  0  0  0  0  0  0  1  0  0
  -25.6662  -21.9109   24.1666 C   0  0  1  0  0  0  0  0  0  0  0  0
  -25.7940  -21.5310   27.9361 C   0  0  2  0  0  0  0  0  0  0  0  0
  -24.5024  -12.8273   20.9430 C   0  0  2  0  0  0  0  0  0  0  0  0
  -26.6344  -22.8807   23.4320 C   0  0  0  0  0  0  0  0  0  0  0  0
  -28.2296  -25.4674   19.0321 N   0  0  0  0  0  0  0  0  0  0  0  0
  -29.5065  -25.0641   18.9182 N   0  0  0  0  0  0  0  0  0  0  0  0
  -23.6758  -20.8769   23.1210 N   0  0  0  0  0  0  0  0  0  0  0  0
  -28.9913  -21.3864   18.0246 N   0  0  0  0  0  0  0  0  0  0  0  0
  -31.7413  -25.7260   19.3408 N   0  0  0  0  0  0  0  0  0  0  0  0
  -29.3178  -29.2438   20.8063 N   0  0  0  0  0  0  0  0  0  0  0  0
  -22.2271  -22.3586   20.4611 N   0  0  0  0  0  0  0  0  0  0  0  0
  -25.6140  -22.0999   25.6122 N   0  0  0  0  0  0  0  0  0  0  0  0
  -29.3683  -19.0557   18.1772 N   0  0  0  0  0  0  0  0  0  0  0  0
  -25.7213  -13.6170   20.5595 N   0  3  1  0  0  0  0  0  0  0  0  0
  -25.3286  -20.4026   28.7911 N   0  3  0  0  0  0  0  0  0  0  0  0
  -31.4453  -28.4321   20.5351 O   0  0  0  0  0  0  0  0  0  0  0  0
  -23.2392  -20.2636   20.3655 O   0  0  0  0  0  0  0  0  0  0  0  0
  -23.6586  -23.1134   23.7798 O   0  0  0  0  0  0  0  0  0  0  0  0
  -26.2542  -19.9432   26.1741 O   0  0  0  0  0  0  0  0  0  0  0  0
  -28.9317  -20.2829   20.0635 O   0  0  0  0  0  0  0  0  0  0  0  0
  -23.7654  -29.6874   20.7087 O   0  0  0  0  0  0  0  0  0  0  0  0
  -24.0653  -14.7723   22.3242 O   0  0  0  0  0  0  0  0  0  1  0  0
  -23.4814  -32.1738   25.6221 F   0  0  0  0  0  0  0  0  0  0  0  0
  -21.7249  -29.1008   22.4793 F   0  0  0  0  0  0  0  0  0  0  0  0
  1  2  1  0  0  0  0
  1  5  2  0  0  0  0
  2  6  2  0  0  0  0
  3  8  2  0  0  0  0
  3 15  1  0  0  0  0
  4  9  1  0  0  0  0
  4 15  2  0  0  0  0
  5 17  1  0  0  0  0
  6 19  1  0  0  0  0
  7 10  2  0  0  0  0
  7 18  1  0  0  0  0
  8 27  1  0  0  0  0
  9 27  2  0  0  0  0
 10 28  1  0  0  0  0
 11 12  2  0  0  0  0
 11 29  1  0  0  0  0
 12 30  1  0  0  0  0
 13 20  1  0  0  0  0
 13 28  2  0  0  0  0
 14 30  2  0  0  0  0
 14 31  1  0  0  0  0
 15 32  1  0  0  0  0
 16 32  1  0  0  0  0
 16 33  2  0  0  0  0
 16 34  1  0  0  0  0
 17 19  2  0  0  0  0
 17 39  1  0  0  0  0
 18 20  2  0  0  0  0
 18 40  1  0  0  0  0
 19 51  1  0  0  0  0
 20 42  1  0  0  0  0
 21 22  2  0  0  0  0
 21 23  1  0  0  0  0
 21 41  1  0  0  0  0
 22 24  1  0  0  0  0
 22 43  1  0  0  0  0
 23 25  2  0  0  0  0
 23 63  1  0  0  0  0
 24 26  2  0  0  0  0
 24 54  1  0  0  0  0
 25 26  1  0  0  0  0
 25 55  1  0  0  0  0
 26 56  1  0  0  0  0
 27 86  1  0  0  0  0
 28 87  1  0  0  0  0
 29 31  2  0  0  0  0
 29 86  1  0  0  0  0
 30 88  1  0  0  0  0
 31 89  1  0  0  0  0
 32 70  2  0  0  0  0
 33 71  1  0  0  0  0
 33 74  1  0  0  0  0
 34 75  1  0  0  0  0
 34 81  2  0  0  0  0
 35 52  1  0  0  0  0
 35 76  1  0  0  0  0
 35 82  2  0  0  0  0
 36 66  1  0  0  0  0
 36 72  1  0  0  0  0
 36 83  2  0  0  0  0
 37 67  1  0  0  0  0
 37 77  1  0  0  0  0
 37 84  2  0  0  0  0
 38 73  1  0  0  0  0
 38 78  1  0  0  0  0
 38 85  2  0  0  0  0
 39 44  1  0  0  0  0
 40 52  1  0  0  0  0
 41 50  1  0  0  0  0
 42 72  1  0  0  0  0
 43 79  1  0  0  0  0
 44 46  1  0  0  0  0
 45 47  1  0  0  0  0
 45 48  1  0  0  0  0
 46 51  1  0  0  0  0
 47 53  1  0  0  0  0
 48 73  1  0  0  0  0
 49 53  1  0  0  0  0
 49 73  1  0  0  0  0
 50 79  1  0  0  0  0
 51 76  1  0  0  0  0
 52 72  1  0  0  0  0
 53 71  1  0  0  0  0
 57 67  1  0  0  0  0
 58 68  1  0  0  0  0
 59 69  1  0  0  0  0
 60 69  1  0  0  0  0
 61 69  1  0  0  0  0
 62 80  1  0  0  0  0
 63 64  1  0  0  0  0
 64 78  1  0  0  0  0
 65 68  1  0  0  0  0
 65 87  1  0  0  0  0
 66 69  1  0  0  0  0
 66 77  1  0  0  0  0
 67 80  1  0  0  0  0
 68 79  1  0  0  0  0
 70 71  1  0  0  0  0
M  CHG  2  79   1  80   1
M  ISO  4  38 100  65 101  78 100  87 101
M  END
> <Batch ID>
0161

> <Smiles>
CNC(C)C(=O)NC(C(=O)N1Cc2cc([101O:1][101CH2:1]C(C)N3CCc4c(CC[100NH:0][100C:0](=O)N5CCCC(n6nc(-c7ccc(Oc8ccc(F)cc8F)cc7)c(C(N)=O)c6N)C5)c(C)c(C)c(C)c4C3)ccc2CC1C(=O)NC1CCCc2ccccc21)C(C)(C)C

> <Shape>
0.219

> <Color>
0.045

> <Negative vol penalty>
0.000

$$$$

  -OEChem-04052322123D

 88 98  0     1  0  0  0  0  0999 V2000
  -21.1914  -31.2856   26.2918 C   0  0  0  0  0  0  0  0  0  0  0  0
  -22.3385  -30.4985   26.2815 C   0  0  0  0  0  0  0  0  0  0  0  0
  -23.5738  -10.0194   21.5451 C   0  0  0  0  0  0  0  0  0  0  0  0
  -24.9528   -8.1974   22.3295 C   0  0  0  0  0  0  0  0  0  0  0  0
  -20.3278  -31.2713   25.1973 C   0  0  0  0  0  0  0  0  0  0  0  0
  -22.6221  -29.6959   25.1770 C   0  0  0  0  0  0  0  0  0  0  0  0
  -28.1511  -27.1096   21.4277 C   0  0  0  0  0  0  0  0  0  0  0  0
  -22.5173   -9.1319   21.3408 C   0  0  0  0  0  0  0  0  0  0  0  0
  -23.8963   -7.3098   22.1253 C   0  0  0  0  0  0  0  0  0  0  0  0
  -28.6551  -25.9023   20.9459 C   0  0  0  0  0  0  0  0  0  0  0  0
  -21.0457   -6.4261   23.7109 C   0  0  0  0  0  0  0  0  0  0  0  0
  -20.7772   -5.4981   24.7169 C   0  0  0  0  0  0  0  0  0  0  0  0
  -29.9735  -20.9922   16.2220 C   0  0  0  0  0  0  0  0  0  0  0  0
  -27.1321  -26.0184   19.0788 C   0  0  0  0  0  0  0  0  0  0  0  0
  -21.1785   -3.6944   23.1604 C   0  0  0  0  0  0  0  0  0  0  0  0
  -24.7915   -9.5522   22.0394 C   0  0  0  0  0  0  0  0  0  0  0  0
  -26.1721  -11.1915   23.4230 C   0  0  0  0  0  0  0  0  0  0  0  0
  -20.6059  -30.4755   24.0748 C   0  0  0  0  0  0  0  0  0  0  0  0
  -27.1245  -27.7760   20.7434 C   0  0  0  0  0  0  0  0  0  0  0  0
  -21.7607  -29.6700   24.0671 C   0  0  0  0  0  0  0  0  0  0  0  0
  -29.8881  -19.9198   17.1098 C   0  0  0  0  0  0  0  0  0  0  0  0
  -26.6186  -27.2354   19.5526 C   0  0  0  0  0  0  0  0  0  0  0  0
  -29.2086  -20.0679   18.3190 C   0  0  0  0  0  0  0  0  0  0  0  0
  -29.3796  -22.2127   16.5433 C   0  0  0  0  0  0  0  0  0  0  0  0
  -28.6146  -21.2884   18.6403 C   0  0  0  0  0  0  0  0  0  0  0  0
  -28.7001  -22.3608   17.7525 C   0  0  0  0  0  0  0  0  0  0  0  0
  -22.6785   -7.7771   21.6309 C   0  0  0  0  0  0  0  0  0  0  0  0
  -28.1436  -25.3550   19.7729 C   0  0  0  0  0  0  0  0  0  0  0  0
  -21.3806   -5.9883   22.4295 C   0  0  0  0  0  0  0  0  0  0  0  0
  -20.8436   -4.1322   24.4417 C   0  0  0  0  0  0  0  0  0  0  0  0
  -21.4470   -4.6225   22.1543 C   0  0  0  0  0  0  0  0  0  0  0  0
  -25.8835  -10.4684   22.2501 C   0  0  0  0  0  0  0  0  0  0  0  0
  -27.3004  -11.9111   23.1137 C   0  0  0  0  0  0  0  0  0  0  0  0
  -25.4821  -11.2109   24.6796 C   0  0  0  0  0  0  0  0  0  0  0  0
  -24.1405  -28.6182   21.4435 C   0  0  0  0  0  0  0  0  0  0  0  0
  -24.3033  -30.1172   18.5714 C   0  0  0  0  0  0  0  0  0  0  0  0
  -25.7525  -30.3226   15.4885 C   0  0  0  0  0  0  0  0  0  0  0  0
  -30.3218  -15.0084   19.7523 C   0  0  0  0  0  0  0  0  0  0  0  0
  -19.6182  -30.4571   22.9352 C   0  0  0  0  0  0  0  0  0  0  0  0
  -26.6102  -29.0910   21.2618 C   0  0  0  0  0  0  0  0  0  0  0  0
  -25.5303  -27.9216   18.7696 C   0  0  0  0  0  0  0  0  0  0  0  0
  -20.1848  -29.8642   21.6476 C   0  0  0  0  0  0  0  0  0  0  0  0
  -30.4334  -11.6041   19.1638 C   0  0  0  0  0  0  0  0  0  0  0  0
  -31.8158  -18.6437   15.9568 C   0  0  0  0  0  0  0  0  0  0  0  0
  -30.5474  -18.1984   15.2986 C   0  0  0  0  0  0  0  0  0  0  0  0
  -20.9260  -28.5634   21.9399 C   0  0  0  0  0  0  0  0  0  0  0  0
  -29.2857  -11.0515   20.0087 C   0  0  0  0  0  0  0  0  0  0  0  0
  -28.3549  -17.7089   18.6772 C   0  0  0  0  0  0  0  0  0  0  0  0
  -30.5014  -18.4595   19.7902 C   0  0  0  0  0  0  0  0  0  0  0  0
  -30.0299  -12.9049   18.4793 C   0  0  0  0  0  0  0  0  0  0  0  0
  -28.2936  -16.5235   19.6446 C   0  0  0  0  0  0  0  0  0  0  0  0
  -30.3760  -17.2757   20.7449 C   0  0  0  0  0  0  0  0  0  0  0  0
  -28.4113  -13.4253   20.2758 C   0  0  0  0  0  0  0  0  0  0  0  0
  -30.5320  -18.6236   16.7426 C   0  0  0  0  0  0  0  0  0  0  0  0
  -29.1162  -18.9012   19.2843 C   0  0  0  0  0  0  0  0  0  0  0  0
  -22.1155  -28.8049   22.8771 C   0  0  1  0  0  0  0  0  0  0  0  0
  -25.2086  -29.4241   20.7599 C   0  0  1  0  0  0  0  0  0  0  0  0
  -28.7679  -12.1102   20.9983 C   0  0  1  0  0  0  0  0  0  0  0  0
  -29.4865  -23.3458   15.5759 C   0  0  0  0  0  0  0  0  0  0  0  0
  -27.8860  -21.4486   19.9372 C   0  0  0  0  0  0  0  0  0  0  0  0
  -25.6495  -31.6253   13.3462 C   0  0  0  0  0  0  0  0  0  0  0  0
  -21.7600  -28.6242   17.7887 C   0  0  0  0  0  0  0  0  0  0  0  0
  -22.2374  -29.2048   15.4006 C   0  0  0  0  0  0  0  0  0  0  0  0
  -21.8293  -31.0172   17.0654 C   0  0  0  0  0  0  0  0  0  0  0  0
  -28.5498  -31.2444   15.7790 C   0  0  0  0  0  0  0  0  0  0  0  0
  -28.0655  -23.6717   18.0948 C   0  0  0  0  0  0  0  0  0  1  0  0
  -24.0030  -29.7284   17.1440 C   0  0  1  0  0  0  0  0  0  0  0  0
  -26.3062  -31.5039   14.7124 C   0  0  2  0  0  0  0  0  0  0  0  0
  -22.4766  -29.6295   16.8653 C   0  0  0  0  0  0  0  0  0  0  0  0
  -26.7577  -10.7069   21.2689 N   0  0  0  0  0  0  0  0  0  0  0  0
  -27.6068  -11.5882   21.8245 N   0  0  0  0  0  0  0  0  0  0  0  0
  -25.0559  -29.2018   19.3207 N   0  0  0  0  0  0  0  0  0  0  0  0
  -29.5408  -13.8824   19.4514 N   0  0  0  0  0  0  0  0  0  0  0  0
  -29.6380  -16.1754   20.1251 N   0  0  0  0  0  0  0  0  0  0  0  0
  -28.0503  -12.7824   23.8214 N   0  0  0  0  0  0  0  0  0  0  0  0
  -24.3405  -10.4115   24.8274 N   0  0  0  0  0  0  0  0  0  0  0  0
  -23.2259  -29.3782   22.1472 N   0  0  0  0  0  0  0  0  0  0  0  0
  -24.7029  -30.6929   16.3023 N   0  0  0  0  0  0  0  0  0  0  0  0
  -27.7756  -31.3516   14.5157 N   0  3  0  0  0  0  0  0  0  0  0  0
  -25.8571  -11.9288   25.6375 O   0  0  0  0  0  0  0  0  0  0  0  0
  -24.1449  -27.3972   21.3389 O   0  0  0  0  0  0  0  0  0  0  0  0
  -23.8915  -31.1967   19.0035 O   0  0  0  0  0  0  0  0  0  0  0  0
  -26.2035  -29.1843   15.3806 O   0  0  0  0  0  0  0  0  0  0  0  0
  -31.5573  -14.9737   19.6925 O   0  0  0  0  0  0  0  0  0  0  0  0
  -21.6477   -6.9109   21.4319 O   0  0  0  0  0  0  0  0  0  0  0  0
  -28.6370  -24.1677   19.2973 O   0  0  0  0  0  0  0  0  0  1  0  0
  -20.5872   -3.2412   25.4084 F   0  0  0  0  0  0  0  0  0  0  0  0
  -21.7693   -4.1958   20.9255 F   0  0  0  0  0  0  0  0  0  0  0  0
  1  2  1  0  0  0  0
  1  5  2  0  0  0  0
  2  6  2  0  0  0  0
  3  8  2  0  0  0  0
  3 16  1  0  0  0  0
  4  9  1  0  0  0  0
  4 16  2  0  0  0  0
  5 18  1  0  0  0  0
  6 20  1  0  0  0  0
  7 10  2  0  0  0  0
  7 19  1  0  0  0  0
  8 27  1  0  0  0  0
  9 27  2  0  0  0  0
 10 28  1  0  0  0  0
 11 12  2  0  0  0  0
 11 29  1  0  0  0  0
 12 30  1  0  0  0  0
 13 21  1  0  0  0  0
 13 24  2  0  0  0  0
 14 22  1  0  0  0  0
 14 28  2  0  0  0  0
 15 30  2  0  0  0  0
 15 31  1  0  0  0  0
 16 32  1  0  0  0  0
 17 32  1  0  0  0  0
 17 33  2  0  0  0  0
 17 34  1  0  0  0  0
 18 20  2  0  0  0  0
 18 39  1  0  0  0  0
 19 22  2  0  0  0  0
 19 40  1  0  0  0  0
 20 56  1  0  0  0  0
 21 23  2  0  0  0  0
 21 54  1  0  0  0  0
 22 41  1  0  0  0  0
 23 25  1  0  0  0  0
 23 55  1  0  0  0  0
 24 26  1  0  0  0  0
 24 59  1  0  0  0  0
 25 26  2  0  0  0  0
 25 60  1  0  0  0  0
 26 66  1  0  0  0  0
 27 85  1  0  0  0  0
 28 86  1  0  0  0  0
 29 31  2  0  0  0  0
 29 85  1  0  0  0  0
 30 87  1  0  0  0  0
 31 88  1  0  0  0  0
 32 70  2  0  0  0  0
 33 71  1  0  0  0  0
 33 75  1  0  0  0  0
 34 76  1  0  0  0  0
 34 80  2  0  0  0  0
 35 57  1  0  0  0  0
 35 77  1  0  0  0  0
 35 81  2  0  0  0  0
 36 67  1  0  0  0  0
 36 72  1  0  0  0  0
 36 82  2  0  0  0  0
 37 68  1  0  0  0  0
 37 78  1  0  0  0  0
 37 83  2  0  0  0  0
 38 73  1  0  0  0  0
 38 74  1  0  0  0  0
 38 84  2  0  0  0  0
 39 42  1  0  0  0  0
 40 57  1  0  0  0  0
 41 72  1  0  0  0  0
 42 46  1  0  0  0  0
 43 47  1  0  0  0  0
 43 50  1  0  0  0  0
 44 45  1  0  0  0  0
 44 54  1  0  0  0  0
 45 54  1  0  0  0  0
 46 56  1  0  0  0  0
 47 58  1  0  0  0  0
 48 51  1  0  0  0  0
 48 55  1  0  0  0  0
 49 52  1  0  0  0  0
 49 55  1  0  0  0  0
 50 73  1  0  0  0  0
 51 74  1  0  0  0  0
 52 74  1  0  0  0  0
 53 58  1  0  0  0  0
 53 73  1  0  0  0  0
 56 77  1  0  0  0  0
 57 72  1  0  0  0  0
 58 71  1  0  0  0  0
 61 68  1  0  0  0  0
 62 69  1  0  0  0  0
 63 69  1  0  0  0  0
 64 69  1  0  0  0  0
 65 79  1  0  0  0  0
 66 86  1  0  0  0  0
 67 69  1  0  0  0  0
 67 78  1  0  0  0  0
 68 79  1  0  0  0  0
 70 71  1  0  0  0  0
M  CHG  1  79   1
M  ISO  4  38 100  66 101  74 100  86 101
M  END
> <Batch ID>
0161

> <Smiles>
CNC(C)C(=O)NC(C(=O)N1Cc2cc([101O:1][101CH2:1]c3c(C)cc(C4CC4)c(C4CC[100N:0]([100C:0](=O)N5CCCC(n6nc(-c7ccc(Oc8ccc(F)cc8F)cc7)c(C(N)=O)c6N)C5)CC4)c3C)ccc2CC1C(=O)NC1CCCc2ccccc21)C(C)(C)C

> <Shape>
0.265

> <Color>
0.101

> <Negative vol penalty>
0.000

$$$$

  -OEChem-04052322123D

 93103  0     1  0  0  0  0  0999 V2000
  -29.2573  -12.1133   19.2464 C   0  0  0  0  0  0  0  0  0  0  0  0
  -29.0897  -13.4812   19.0564 C   0  0  0  0  0  0  0  0  0  0  0  0
  -20.1410  -28.2116   23.7941 C   0  0  0  0  0  0  0  0  0  0  0  0
  -20.7584  -27.1156   21.7314 C   0  0  0  0  0  0  0  0  0  0  0  0
  -28.1980  -11.3418   19.7224 C   0  0  0  0  0  0  0  0  0  0  0  0
  -27.8622  -14.0783   19.3412 C   0  0  0  0  0  0  0  0  0  0  0  0
  -28.3600  -18.4119   21.9135 C   0  0  0  0  0  0  0  0  0  0  0  0
  -18.8094  -28.2407   23.3800 C   0  0  0  0  0  0  0  0  0  0  0  0
  -19.4267  -27.1447   21.3173 C   0  0  0  0  0  0  0  0  0  0  0  0
  -28.7339  -19.5430   21.1892 C   0  0  0  0  0  0  0  0  0  0  0  0
  -16.5946  -25.4014   21.9180 C   0  0  0  0  0  0  0  0  0  0  0  0
  -16.0672  -24.2395   21.3546 C   0  0  0  0  0  0  0  0  0  0  0  0
  -26.4330  -20.2659   21.1418 C   0  0  0  0  0  0  0  0  0  0  0  0
  -15.6069  -25.4402   19.3092 C   0  0  0  0  0  0  0  0  0  0  0  0
  -21.1156  -27.6491   22.9697 C   0  0  0  0  0  0  0  0  0  0  0  0
  -23.1324  -26.6019   24.1288 C   0  0  0  0  0  0  0  0  0  0  0  0
  -26.9598  -11.9314   20.0224 C   0  0  0  0  0  0  0  0  0  0  0  0
  -27.0160  -18.1935   22.2486 C   0  0  0  0  0  0  0  0  0  0  0  0
  -26.7849  -13.3138   19.8203 C   0  0  0  0  0  0  0  0  0  0  0  0
  -26.0450  -19.1326   21.8727 C   0  0  0  0  0  0  0  0  0  0  0  0
  -30.5245  -26.6321   20.8596 C   0  0  0  0  0  0  0  0  0  0  0  0
  -29.8305  -28.7035   19.7966 C   0  0  0  0  0  0  0  0  0  0  0  0
  -31.8349  -27.1315   20.9227 C   0  0  0  0  0  0  0  0  0  0  0  0
  -31.1354  -29.1875   19.8689 C   0  0  0  0  0  0  0  0  0  0  0  0
  -32.1374  -28.4024   20.4328 C   0  0  0  0  0  0  0  0  0  0  0  0
  -29.5222  -27.4351   20.2978 C   0  0  0  0  0  0  0  0  0  0  0  0
  -18.4522  -27.7072   22.1417 C   0  0  0  0  0  0  0  0  0  0  0  0
  -27.7700  -20.4687   20.8007 C   0  0  0  0  0  0  0  0  0  0  0  0
  -16.6281  -26.5827   21.1770 C   0  0  0  0  0  0  0  0  0  0  0  0
  -15.5733  -24.2589   20.0502 C   0  0  0  0  0  0  0  0  0  0  0  0
  -16.1343  -26.6021   19.8727 C   0  0  0  0  0  0  0  0  0  0  0  0
  -22.4914  -27.6192   23.3966 C   0  0  0  0  0  0  0  0  0  0  0  0
  -24.4232  -27.0472   24.2775 C   0  0  0  0  0  0  0  0  0  0  0  0
  -22.6080  -25.3650   24.6295 C   0  0  0  0  0  0  0  0  0  0  0  0
  -24.8734  -15.9440   21.5757 C   0  0  0  0  0  0  0  0  0  0  0  0
  -23.0506  -17.5963   23.6898 C   0  0  0  0  0  0  0  0  0  0  0  0
  -22.3957  -20.5563   25.2570 C   0  0  0  0  0  0  0  0  0  0  0  0
  -27.8422  -30.7568   21.1734 C   0  0  0  0  0  0  0  0  0  0  0  0
  -25.8297  -11.0487   20.4897 C   0  0  0  0  0  0  0  0  0  0  0  0
  -26.6326  -16.9820   23.0534 C   0  0  0  0  0  0  0  0  0  0  0  0
  -24.5914  -18.9548   22.2250 C   0  0  0  0  0  0  0  0  0  0  0  0
  -24.6753  -11.8212   21.1230 C   0  0  0  0  0  0  0  0  0  0  0  0
  -26.6511  -29.4279   18.0167 C   0  0  0  0  0  0  0  0  0  0  0  0
  -27.0110  -31.0487   24.5576 C   0  0  0  0  0  0  0  0  0  0  0  0
  -28.0663  -28.8647   17.9869 C   0  0  0  0  0  0  0  0  0  0  0  0
  -24.3016  -13.0235   20.2619 C   0  0  0  0  0  0  0  0  0  0  0  0
  -25.8069  -30.1239   24.7244 C   0  0  0  0  0  0  0  0  0  0  0  0
  -26.9429  -31.7942   23.2307 C   0  0  0  0  0  0  0  0  0  0  0  0
  -26.3596  -29.5294   19.5058 C   0  0  0  0  0  0  0  0  0  0  0  0
  -25.6606  -29.9496   22.1885 C   0  0  0  0  0  0  0  0  0  0  0  0
  -27.8398  -25.9002   20.9305 C   0  0  0  0  0  0  0  0  0  0  0  0
  -30.2190  -25.2464   21.3846 C   0  0  2  0  0  0  0  0  0  0  0  0
  -28.7466  -29.5555   19.1761 C   0  0  1  0  0  0  0  0  0  0  0  0
  -25.4760  -14.0022   20.1414 C   0  0  1  0  0  0  0  0  0  0  0  0
  -25.1640  -16.6001   22.8958 C   0  0  1  0  0  0  0  0  0  0  0  0
  -28.8539  -24.7564   20.8589 C   0  0  2  0  0  0  0  0  0  0  0  0
  -25.6771  -29.1744   23.5219 C   0  0  2  0  0  0  0  0  0  0  0  0
  -32.9500  -26.3004   21.4821 C   0  0  0  0  0  0  0  0  0  0  0  0
  -31.4597  -30.5481   19.3372 C   0  0  0  0  0  0  0  0  0  0  0  0
  -33.5395  -28.9215   20.5035 C   0  0  0  0  0  0  0  0  0  0  0  0
  -30.2535  -25.2435   22.9193 C   0  0  0  0  0  0  0  0  0  0  0  0
  -20.8196  -21.6074   26.9028 C   0  0  0  0  0  0  0  0  0  0  0  0
  -27.8532  -23.2044   17.4375 C   0  0  0  0  0  0  0  0  0  0  0  0
  -20.8922  -17.7250   21.5370 C   0  0  0  0  0  0  0  0  0  0  0  0
  -19.7855  -19.5442   22.8537 C   0  0  0  0  0  0  0  0  0  0  0  0
  -20.0394  -17.2685   23.8433 C   0  0  0  0  0  0  0  0  0  0  0  0
  -24.5923  -21.1757   27.1413 C   0  0  0  0  0  0  0  0  0  0  0  0
  -28.9692  -24.2130   19.4279 C   0  0  0  0  0  0  0  0  0  0  0  0
  -27.0962  -22.4809   19.7269 C   0  0  0  0  0  0  0  0  0  1  0  0
  -22.0762  -18.7452   23.5921 C   0  0  1  0  0  0  0  0  0  0  0  0
  -22.1475  -20.8897   26.7171 C   0  0  2  0  0  0  0  0  0  0  0  0
  -27.6475  -23.6442   18.8916 C   0  0  2  0  0  0  0  0  0  0  0  0
  -20.7253  -18.3234   22.9481 C   0  0  0  0  0  0  0  0  0  0  0  0
  -23.3076  -28.6343   23.1010 N   0  0  0  0  0  0  0  0  0  0  0  0
  -24.4747  -28.2572   23.6502 N   0  0  0  0  0  0  0  0  0  0  0  0
  -24.2656  -17.7510   23.0075 N   0  0  0  0  0  0  0  0  0  0  0  0
  -26.8018  -30.8709   22.1042 N   0  0  0  0  0  0  0  0  0  0  0  0
  -27.6502  -29.8799   20.1017 N   0  0  0  0  0  0  0  0  0  0  0  0
  -25.5077  -26.5180   24.8825 N   0  0  0  0  0  0  0  0  0  0  0  0
  -21.2609  -25.0637   24.3873 N   0  0  0  0  0  0  0  0  0  0  0  0
  -25.6016  -14.7919   21.3477 N   0  0  0  0  0  0  0  0  0  0  0  0
  -21.9513  -19.2902   24.9396 N   0  0  0  0  0  0  0  0  0  0  0  0
  -23.2330  -21.7669   27.2399 N   0  3  0  0  0  0  0  0  0  0  0  0
  -23.3089  -24.5587   25.2869 O   0  0  0  0  0  0  0  0  0  0  0  0
  -24.0485  -16.4450   20.8206 O   0  0  0  0  0  0  0  0  0  0  0  0
  -22.7479  -16.6013   24.3532 O   0  0  0  0  0  0  0  0  0  0  0  0
  -22.9270  -21.3420   24.4754 O   0  0  0  0  0  0  0  0  0  0  0  0
  -28.8815  -31.4202   21.2808 O   0  0  0  0  0  0  0  0  0  0  0  0
  -28.2185  -27.0377   20.1524 O   0  0  0  0  0  0  0  0  0  0  0  0
  -17.1528  -27.7352   21.7375 O   0  0  0  0  0  0  0  0  0  0  0  0
  -28.1349  -21.5815   20.0878 O   0  0  0  0  0  0  0  0  0  1  0  0
  -15.0683  -23.1427   19.5088 F   0  0  0  0  0  0  0  0  0  0  0  0
  -16.1649  -27.7337   19.1555 F   0  0  0  0  0  0  0  0  0  0  0  0
  1  2  1  0  0  0  0
  1  5  2  0  0  0  0
  2  6  2  0  0  0  0
  3  8  2  0  0  0  0
  3 15  1  0  0  0  0
  4  9  1  0  0  0  0
  4 15  2  0  0  0  0
  5 17  1  0  0  0  0
  6 19  1  0  0  0  0
  7 10  2  0  0  0  0
  7 18  1  0  0  0  0
  8 27  1  0  0  0  0
  9 27  2  0  0  0  0
 10 28  1  0  0  0  0
 11 12  2  0  0  0  0
 11 29  1  0  0  0  0
 12 30  1  0  0  0  0
 13 20  1  0  0  0  0
 13 28  2  0  0  0  0
 14 30  2  0  0  0  0
 14 31  1  0  0  0  0
 15 32  1  0  0  0  0
 16 32  1  0  0  0  0
 16 33  2  0  0  0  0
 16 34  1  0  0  0  0
 17 19  2  0  0  0  0
 17 39  1  0  0  0  0
 18 20  2  0  0  0  0
 18 40  1  0  0  0  0
 19 54  1  0  0  0  0
 20 41  1  0  0  0  0
 21 23  2  0  0  0  0
 21 26  1  0  0  0  0
 21 52  1  0  0  0  0
 22 24  1  0  0  0  0
 22 26  2  0  0  0  0
 22 53  1  0  0  0  0
 23 25  1  0  0  0  0
 23 58  1  0  0  0  0
 24 25  2  0  0  0  0
 24 59  1  0  0  0  0
 25 60  1  0  0  0  0
 26 89  1  0  0  0  0
 27 90  1  0  0  0  0
 28 91  1  0  0  0  0
 29 31  2  0  0  0  0
 29 90  1  0  0  0  0
 30 92  1  0  0  0  0
 31 93  1  0  0  0  0
 32 74  2  0  0  0  0
 33 75  1  0  0  0  0
 33 79  1  0  0  0  0
 34 80  1  0  0  0  0
 34 84  2  0  0  0  0
 35 55  1  0  0  0  0
 35 81  1  0  0  0  0
 35 85  2  0  0  0  0
 36 70  1  0  0  0  0
 36 76  1  0  0  0  0
 36 86  2  0  0  0  0
 37 71  1  0  0  0  0
 37 82  1  0  0  0  0
 37 87  2  0  0  0  0
 38 77  1  0  0  0  0
 38 78  1  0  0  0  0
 38 88  2  0  0  0  0
 39 42  1  0  0  0  0
 40 55  1  0  0  0  0
 41 76  1  0  0  0  0
 42 46  1  0  0  0  0
 43 45  1  0  0  0  0
 43 49  1  0  0  0  0
 44 47  1  0  0  0  0
 44 48  1  0  0  0  0
 45 53  1  0  0  0  0
 46 54  1  0  0  0  0
 47 57  1  0  0  0  0
 48 77  1  0  0  0  0
 49 78  1  0  0  0  0
 50 57  1  0  0  0  0
 50 77  1  0  0  0  0
 51 56  1  0  0  0  0
 51 89  1  0  0  0  0
 52 56  1  0  0  0  0
 52 61  1  0  0  0  0
 53 78  1  0  0  0  0
 54 81  1  0  0  0  0
 55 76  1  0  0  0  0
 56 68  1  0  0  0  0
 57 75  1  0  0  0  0
 62 71  1  0  0  0  0
 63 72  1  0  0  0  0
 64 73  1  0  0  0  0
 65 73  1  0  0  0  0
 66 73  1  0  0  0  0
 67 83  1  0  0  0  0
 68 72  1  0  0  0  0
 69 72  1  0  0  0  0
 69 91  1  0  0  0  0
 70 73  1  0  0  0  0
 70 82  1  0  0  0  0
 71 83  1  0  0  0  0
 74 75  1  0  0  0  0
M  CHG  1  83   1
M  ISO  4  38 100  69 101  78 100  91 101
M  END
> <Batch ID>
0161

> <Smiles>
CNC(C)C(=O)NC(C(=O)N1Cc2cc([101O:1][101CH2:1]C(C)CC3COc4c(c(C)c(C)c(C)c4C4CCC[100N:0]4[100C:0](=O)N4CCCC(n5nc(-c6ccc(Oc7ccc(F)cc7F)cc6)c(C(N)=O)c5N)C4)C3C)ccc2CC1C(=O)NC1CCCc2ccccc21)C(C)(C)C

> <Shape>
0.221

> <Color>
0.078

> <Negative vol penalty>
0.000

$$$$

  -OEChem-04052322123D

 92102  0     1  0  0  0  0  0999 V2000
  -27.7726  -33.8278   22.9807 C   0  0  0  0  0  0  0  0  0  0  0  0
  -27.7046  -32.5379   23.4975 C   0  0  0  0  0  0  0  0  0  0  0  0
  -22.6424  -10.1751   20.1981 C   0  0  0  0  0  0  0  0  0  0  0  0
  -24.2828   -9.4064   21.7967 C   0  0  0  0  0  0  0  0  0  0  0  0
  -27.8154  -34.0232   21.6009 C   0  0  0  0  0  0  0  0  0  0  0  0
  -27.6782  -31.4428   22.6347 C   0  0  0  0  0  0  0  0  0  0  0  0
  -30.7764  -27.7231   24.1216 C   0  0  0  0  0  0  0  0  0  0  0  0
  -21.8954   -9.0159   20.4073 C   0  0  0  0  0  0  0  0  0  0  0  0
  -23.5357   -8.2472   22.0059 C   0  0  0  0  0  0  0  0  0  0  0  0
  -30.3362  -26.9053   25.1615 C   0  0  0  0  0  0  0  0  0  0  0  0
  -20.7742   -7.3431   23.7313 C   0  0  0  0  0  0  0  0  0  0  0  0
  -20.5816   -6.9269   25.0486 C   0  0  0  0  0  0  0  0  0  0  0  0
  -29.6895  -25.2238   23.5573 C   0  0  0  0  0  0  0  0  0  0  0  0
  -21.6849   -4.8363   24.5494 C   0  0  0  0  0  0  0  0  0  0  0  0
  -23.8362  -10.3703   20.8928 C   0  0  0  0  0  0  0  0  0  0  0  0
  -24.1957  -12.8959   20.8917 C   0  0  0  0  0  0  0  0  0  0  0  0
  -27.7992  -32.9295   20.7210 C   0  0  0  0  0  0  0  0  0  0  0  0
  -30.6662  -27.3012   22.7889 C   0  0  0  0  0  0  0  0  0  0  0  0
  -27.7195  -31.6239   21.2418 C   0  0  0  0  0  0  0  0  0  0  0  0
  -30.1313  -26.0371   22.5025 C   0  0  0  0  0  0  0  0  0  0  0  0
  -32.1342  -20.3163   26.2263 C   0  0  0  0  0  0  0  0  0  0  0  0
  -32.8328  -21.4847   26.5768 C   0  0  0  0  0  0  0  0  0  0  0  0
  -32.8286  -19.2467   25.6437 C   0  0  0  0  0  0  0  0  0  0  0  0
  -34.2179  -21.5502   26.3728 C   0  0  0  0  0  0  0  0  0  0  0  0
  -34.2056  -19.3256   25.4367 C   0  0  0  0  0  0  0  0  0  0  0  0
  -34.9001  -20.4755   25.8032 C   0  0  0  0  0  0  0  0  0  0  0  0
  -22.3420   -8.0519   21.3112 C   0  0  0  0  0  0  0  0  0  0  0  0
  -29.7900  -25.6567   24.8792 C   0  0  0  0  0  0  0  0  0  0  0  0
  -21.4220   -6.5058   22.8230 C   0  0  0  0  0  0  0  0  0  0  0  0
  -21.0370   -5.6736   25.4576 C   0  0  0  0  0  0  0  0  0  0  0  0
  -21.8774   -5.2525   23.2320 C   0  0  0  0  0  0  0  0  0  0  0  0
  -24.6086  -11.5673   20.6767 C   0  0  0  0  0  0  0  0  0  0  0  0
  -25.2850  -13.6551   20.5402 C   0  0  0  0  0  0  0  0  0  0  0  0
  -22.9398  -13.3987   21.3666 C   0  0  0  0  0  0  0  0  0  0  0  0
  -29.1222  -28.3616   20.2207 C   0  0  0  0  0  0  0  0  0  0  0  0
  -30.7752  -26.0004   18.7325 C   0  0  0  0  0  0  0  0  0  0  0  0
  -31.6876  -22.5805   19.4322 C   0  0  0  0  0  0  0  0  0  0  0  0
  -30.7799  -14.6250   20.6469 C   0  0  0  0  0  0  0  0  0  0  0  0
  -27.7995  -33.1925   19.2359 C   0  0  0  0  0  0  0  0  0  0  0  0
  -31.1701  -28.1840   21.6802 C   0  0  0  0  0  0  0  0  0  0  0  0
  -30.6404  -20.2240   26.4073 C   0  0  0  0  0  0  0  0  0  0  0  0
  -30.0096  -25.5290   21.0899 C   0  0  0  0  0  0  0  0  0  0  0  0
  -32.1232  -22.6455   27.2187 C   0  0  0  0  0  0  0  0  0  0  0  0
  -28.1457  -31.9633   18.3997 C   0  0  0  0  0  0  0  0  0  0  0  0
  -29.5663  -12.3720   18.1715 C   0  0  0  0  0  0  0  0  0  0  0  0
  -27.3611  -30.7487   18.8857 C   0  0  0  0  0  0  0  0  0  0  0  0
  -28.1372  -12.0669   18.6237 C   0  0  0  0  0  0  0  0  0  0  0  0
  -29.9343  -17.8154   22.3788 C   0  0  0  0  0  0  0  0  0  0  0  0
  -30.5135  -12.5255   19.3594 C   0  0  0  0  0  0  0  0  0  0  0  0
  -28.6514  -13.1990   20.8266 C   0  0  0  0  0  0  0  0  0  0  0  0
  -30.0947  -21.2149   27.4296 C   0  0  0  0  0  0  0  0  0  0  0  0
  -30.8042  -18.7667   23.1856 C   0  0  0  0  0  0  0  0  0  0  0  0
  -31.6924  -16.4885   23.2515 C   0  0  0  0  0  0  0  0  0  0  0  0
  -27.7140  -30.4094   20.3389 C   0  0  1  0  0  0  0  0  0  0  0  0
  -30.5368  -27.8669   20.3291 C   0  0  1  0  0  0  0  0  0  0  0  0
  -27.6480  -13.0908   19.6656 C   0  0  2  0  0  0  0  0  0  0  0  0
  -30.8869  -16.6998   21.9847 C   0  0  1  0  0  0  0  0  0  0  0  0
  -34.9857  -22.7726   26.7730 C   0  0  0  0  0  0  0  0  0  0  0  0
  -34.9380  -18.1753   24.8196 C   0  0  0  0  0  0  0  0  0  0  0  0
  -36.3786  -20.5557   25.5865 C   0  0  0  0  0  0  0  0  0  0  0  0
  -33.6327  -21.2138   18.6284 C   0  0  0  0  0  0  0  0  0  0  0  0
  -28.8494  -25.0692   16.5568 C   0  0  0  0  0  0  0  0  0  0  0  0
  -29.8499  -22.7821   16.7473 C   0  0  0  0  0  0  0  0  0  0  0  0
  -31.2680  -24.7064   16.0342 C   0  0  0  0  0  0  0  0  0  0  0  0
  -32.5266  -21.9367   22.1964 C   0  0  0  0  0  0  0  0  0  0  0  0
  -32.1012  -18.0057   25.2234 C   0  0  0  0  0  0  0  0  0  0  0  0
  -29.9428  -23.6661   27.8983 C   0  0  0  0  0  0  0  0  0  0  0  0
  -30.0283  -24.9798   27.1466 C   0  0  0  0  0  0  0  0  0  1  0  0
  -30.5276  -24.5390   18.4458 C   0  0  1  0  0  0  0  0  0  0  0  0
  -33.0746  -22.0594   19.7625 C   0  0  2  0  0  0  0  0  0  0  0  0
  -30.1124  -24.2870   16.9688 C   0  0  0  0  0  0  0  0  0  0  0  0
  -25.8624  -11.4839   20.2237 N   0  0  0  0  0  0  0  0  0  0  0  0
  -26.2466  -12.7696   20.1510 N   0  0  0  0  0  0  0  0  0  0  0  0
  -30.5105  -26.4316   20.0401 N   0  0  0  0  0  0  0  0  0  0  0  0
  -29.9926  -13.5119   20.3091 N   0  0  0  0  0  0  0  0  0  0  0  0
  -25.5045  -14.9870   20.5292 N   0  0  0  0  0  0  0  0  0  0  0  0
  -21.9288  -12.4808   21.6821 N   0  0  0  0  0  0  0  0  0  0  0  0
  -28.9873  -29.7246   20.4032 N   0  0  0  0  0  0  0  0  0  0  0  0
  -31.7362  -23.8322   18.8557 N   0  0  0  0  0  0  0  0  0  0  0  0
  -30.2085  -15.5143   21.5489 N   0  0  0  0  0  0  0  0  0  0  0  0
  -30.6142  -22.5899   27.0936 N   0  3  1  0  0  0  0  0  0  0  0  0
  -31.9221  -17.9029   23.7428 N   0  3  2  0  0  0  0  0  0  0  0  0
  -33.0338  -21.2237   20.9958 N   0  3  0  0  0  0  0  0  0  0  0  0
  -22.7151  -14.6265   21.4915 O   0  0  0  0  0  0  0  0  0  0  0  0
  -28.2200  -27.5658   19.9872 O   0  0  0  0  0  0  0  0  0  0  0  0
  -31.1950  -26.7308   17.8315 O   0  0  0  0  0  0  0  0  0  0  0  0
  -30.6637  -21.9397   19.6592 O   0  0  0  0  0  0  0  0  0  0  0  0
  -31.9061  -14.8152   20.1754 O   0  0  0  0  0  0  0  0  0  0  0  0
  -21.6131   -6.9208   21.5157 O   0  0  0  0  0  0  0  0  0  0  0  0
  -29.3591  -24.8568   25.8922 O   0  0  0  0  0  0  0  0  0  1  0  0
  -20.8533   -5.2747   26.7231 F   0  0  0  0  0  0  0  0  0  0  0  0
  -22.5016   -4.4442   22.3643 F   0  0  0  0  0  0  0  0  0  0  0  0
  1  2  1  0  0  0  0
  1  5  2  0  0  0  0
  2  6  2  0  0  0  0
  3  8  2  0  0  0  0
  3 15  1  0  0  0  0
  4  9  1  0  0  0  0
  4 15  2  0  0  0  0
  5 17  1  0  0  0  0
  6 19  1  0  0  0  0
  7 10  2  0  0  0  0
  7 18  1  0  0  0  0
  8 27  1  0  0  0  0
  9 27  2  0  0  0  0
 10 28  1  0  0  0  0
 11 12  2  0  0  0  0
 11 29  1  0  0  0  0
 12 30  1  0  0  0  0
 13 20  1  0  0  0  0
 13 28  2  0  0  0  0
 14 30  2  0  0  0  0
 14 31  1  0  0  0  0
 15 32  1  0  0  0  0
 16 32  1  0  0  0  0
 16 33  2  0  0  0  0
 16 34  1  0  0  0  0
 17 19  2  0  0  0  0
 17 39  1  0  0  0  0
 18 20  2  0  0  0  0
 18 40  1  0  0  0  0
 19 54  1  0  0  0  0
 20 42  1  0  0  0  0
 21 22  2  0  0  0  0
 21 23  1  0  0  0  0
 21 41  1  0  0  0  0
 22 24  1  0  0  0  0
 22 43  1  0  0  0  0
 23 25  2  0  0  0  0
 23 66  1  0  0  0  0
 24 26  2  0  0  0  0
 24 58  1  0  0  0  0
 25 26  1  0  0  0  0
 25 59  1  0  0  0  0
 26 60  1  0  0  0  0
 27 89  1  0  0  0  0
 28 90  1  0  0  0  0
 29 31  2  0  0  0  0
 29 89  1  0  0  0  0
 30 91  1  0  0  0  0
 31 92  1  0  0  0  0
 32 72  2  0  0  0  0
 33 73  1  0  0  0  0
 33 76  1  0  0  0  0
 34 77  1  0  0  0  0
 34 84  2  0  0  0  0
 35 55  1  0  0  0  0
 35 78  1  0  0  0  0
 35 85  2  0  0  0  0
 36 69  1  0  0  0  0
 36 74  1  0  0  0  0
 36 86  2  0  0  0  0
 37 70  1  0  0  0  0
 37 79  1  0  0  0  0
 37 87  2  0  0  0  0
 38 75  1  0  0  0  0
 38 80  1  0  0  0  0
 38 88  2  0  0  0  0
 39 44  1  0  0  0  0
 40 55  1  0  0  0  0
 41 51  1  0  0  0  0
 42 74  1  0  0  0  0
 43 81  1  0  0  0  0
 44 46  1  0  0  0  0
 45 47  1  0  0  0  0
 45 49  1  0  0  0  0
 46 54  1  0  0  0  0
 47 56  1  0  0  0  0
 48 52  1  0  0  0  0
 48 57  1  0  0  0  0
 49 75  1  0  0  0  0
 50 56  1  0  0  0  0
 50 75  1  0  0  0  0
 51 81  1  0  0  0  0
 52 82  1  0  0  0  0
 53 57  1  0  0  0  0
 53 82  1  0  0  0  0
 54 78  1  0  0  0  0
 55 74  1  0  0  0  0
 56 73  1  0  0  0  0
 57 80  1  0  0  0  0
 61 70  1  0  0  0  0
 62 71  1  0  0  0  0
 63 71  1  0  0  0  0
 64 71  1  0  0  0  0
 65 83  1  0  0  0  0
 66 82  1  0  0  0  0
 67 68  1  0  0  0  0
 67 81  1  0  0  0  0
 68 90  1  0  0  0  0
 69 71  1  0  0  0  0
 69 79  1  0  0  0  0
 70 83  1  0  0  0  0
 72 73  1  0  0  0  0
M  CHG  3  81   1  82   1  83   1
M  ISO  4  38 100  68 101  80 100  90 101
M  END
> <Batch ID>
0161

> <Smiles>
CNC(C)C(=O)NC(C(=O)N1Cc2cc([101O:1][101CH2:1]CN3CCc4c(CN5CCC([100NH:0][100C:0](=O)N6CCCC(n7nc(-c8ccc(Oc9ccc(F)cc9F)cc8)c(C(N)=O)c7N)C6)C5)c(C)c(C)c(C)c4C3)ccc2CC1C(=O)NC1CCCc2ccccc21)C(C)(C)C

> <Shape>
0.283

> <Color>
0.192

> <Negative vol penalty>
0.000

$$$$

  -OEChem-04052322123D

 87 96  0     1  0  0  0  0  0999 V2000
  -29.2005  -30.9739   26.6558 C   0  0  0  0  0  0  0  0  0  0  0  0
  -28.9650  -29.9754   25.7161 C   0  0  0  0  0  0  0  0  0  0  0  0
  -23.1997  -10.5706   21.4977 C   0  0  0  0  0  0  0  0  0  0  0  0
  -24.8145   -8.8101   21.8588 C   0  0  0  0  0  0  0  0  0  0  0  0
  -28.1292  -31.6648   27.2205 C   0  0  0  0  0  0  0  0  0  0  0  0
  -27.6579  -29.6665   25.3413 C   0  0  0  0  0  0  0  0  0  0  0  0
  -27.1465  -29.1390   20.3308 C   0  0  0  0  0  0  0  0  0  0  0  0
  -22.1858   -9.6187   21.3907 C   0  0  0  0  0  0  0  0  0  0  0  0
  -23.8006   -7.8582   21.7518 C   0  0  0  0  0  0  0  0  0  0  0  0
  -27.5833  -27.9402   19.7689 C   0  0  0  0  0  0  0  0  0  0  0  0
  -21.5801   -4.9850   21.9329 C   0  0  0  0  0  0  0  0  0  0  0  0
  -21.5545   -3.9553   22.8734 C   0  0  0  0  0  0  0  0  0  0  0  0
  -27.9610  -21.2763   17.0329 C   0  0  0  0  0  0  0  0  0  0  0  0
  -25.3067  -27.1442   19.7127 C   0  0  0  0  0  0  0  0  0  0  0  0
  -21.3130   -5.5797   24.6454 C   0  0  0  0  0  0  0  0  0  0  0  0
  -24.5140  -10.1663   21.7317 C   0  0  0  0  0  0  0  0  0  0  0  0
  -26.0032  -11.7938   23.0129 C   0  0  0  0  0  0  0  0  0  0  0  0
  -26.8088  -31.3708   26.8454 C   0  0  0  0  0  0  0  0  0  0  0  0
  -25.7856  -29.3456   20.5984 C   0  0  0  0  0  0  0  0  0  0  0  0
  -26.5678  -30.3532   25.9026 C   0  0  0  0  0  0  0  0  0  0  0  0
  -27.4908  -21.2843   18.3461 C   0  0  0  0  0  0  0  0  0  0  0  0
  -24.8550  -28.3476   20.2756 C   0  0  0  0  0  0  0  0  0  0  0  0
  -27.8238  -22.4129   16.2360 C   0  0  0  0  0  0  0  0  0  0  0  0
  -27.2162  -23.5574   16.7523 C   0  0  0  0  0  0  0  0  0  0  0  0
  -26.7459  -23.5654   18.0654 C   0  0  0  0  0  0  0  0  0  0  0  0
  -22.4862   -8.2625   21.5178 C   0  0  0  0  0  0  0  0  0  0  0  0
  -26.6637  -26.9414   19.4625 C   0  0  0  0  0  0  0  0  0  0  0  0
  -21.4723   -6.3121   22.3487 C   0  0  0  0  0  0  0  0  0  0  0  0
  -26.8832  -22.4288   18.8623 C   0  0  0  0  0  0  0  0  0  0  0  0
  -21.4209   -4.2525   24.2296 C   0  0  0  0  0  0  0  0  0  0  0  0
  -21.3386   -6.6094   23.7049 C   0  0  0  0  0  0  0  0  0  0  0  0
  -25.5619  -11.1491   21.8418 C   0  0  0  0  0  0  0  0  0  0  0  0
  -27.0085  -12.6276   22.5878 C   0  0  0  0  0  0  0  0  0  0  0  0
  -25.5454  -11.6516   24.3641 C   0  0  0  0  0  0  0  0  0  0  0  0
  -24.0704  -29.8753   23.2216 C   0  0  0  0  0  0  0  0  0  0  0  0
  -21.6579  -30.2817   21.0917 C   0  0  0  0  0  0  0  0  0  0  0  0
  -20.3919  -29.6330   17.9895 C   0  0  0  0  0  0  0  0  0  0  0  0
  -29.1763  -16.2329   19.0773 C   0  0  0  0  0  0  0  0  0  0  0  0
  -25.6808  -32.1121   27.5182 C   0  0  0  0  0  0  0  0  0  0  0  0
  -25.3275  -30.6549   21.1800 C   0  0  0  0  0  0  0  0  0  0  0  0
  -23.3805  -28.5278   20.5244 C   0  0  0  0  0  0  0  0  0  0  0  0
  -24.3457  -31.9811   26.7898 C   0  0  0  0  0  0  0  0  0  0  0  0
  -29.4110  -12.9101   18.1539 C   0  0  0  0  0  0  0  0  0  0  0  0
  -24.0860  -30.5271   26.4086 C   0  0  0  0  0  0  0  0  0  0  0  0
  -28.4697  -12.1962   19.1237 C   0  0  0  0  0  0  0  0  0  0  0  0
  -26.8739  -18.8411   18.6150 C   0  0  0  0  0  0  0  0  0  0  0  0
  -29.1274  -19.6719   19.4159 C   0  0  0  0  0  0  0  0  0  0  0  0
  -28.8069  -14.2254   17.6758 C   0  0  0  0  0  0  0  0  0  0  0  0
  -27.0636  -17.5784   19.4604 C   0  0  0  0  0  0  0  0  0  0  0  0
  -29.2518  -18.4066   20.2597 C   0  0  0  0  0  0  0  0  0  0  0  0
  -27.4984  -14.4590   19.7618 C   0  0  0  0  0  0  0  0  0  0  0  0
  -27.6483  -20.0378   19.1964 C   0  0  0  0  0  0  0  0  0  0  0  0
  -25.1654  -30.0063   25.4520 C   0  0  1  0  0  0  0  0  0  0  0  0
  -23.9783  -30.5560   21.8852 C   0  0  1  0  0  0  0  0  0  0  0  0
  -28.0642  -13.1225   20.2838 C   0  0  1  0  0  0  0  0  0  0  0  0
  -28.3373  -22.3787   14.8337 C   0  0  0  0  0  0  0  0  0  0  0  0
  -27.0698  -24.7753   15.8960 C   0  0  0  0  0  0  0  0  0  0  0  0
  -18.3824  -30.0694   16.5512 C   0  0  0  0  0  0  0  0  0  0  0  0
  -20.0750  -28.2120   22.6795 C   0  0  0  0  0  0  0  0  0  0  0  0
  -18.5313  -27.9921   20.7207 C   0  0  0  0  0  0  0  0  0  0  0  0
  -18.7378  -30.1781   21.9045 C   0  0  0  0  0  0  0  0  0  0  0  0
  -22.0109  -31.0457   15.9543 C   0  0  0  0  0  0  0  0  0  0  0  0
  -27.3357  -22.8555   21.1577 C   0  0  0  0  0  0  0  0  0  0  0  0
  -26.0939  -24.7896   18.6251 C   0  0  0  0  0  0  0  0  0  1  0  0
  -20.6391  -29.3749   20.4444 C   0  0  1  0  0  0  0  0  0  0  0  0
  -19.7733  -30.5428   16.9436 C   0  0  2  0  0  0  0  0  0  0  0  0
  -19.5238  -28.9348   21.4343 C   0  0  0  0  0  0  0  0  0  0  0  0
  -26.2319  -11.5400   20.7544 N   0  0  0  0  0  0  0  0  0  0  0  0
  -27.1043  -12.4393   21.2404 N   0  0  0  0  0  0  0  0  0  0  0  0
  -22.9828  -29.8230   21.1005 N   0  0  0  0  0  0  0  0  0  0  0  0
  -28.4320  -15.0749   18.8060 N   0  0  0  0  0  0  0  0  0  0  0  0
  -28.4919  -17.3042   19.6708 N   0  0  0  0  0  0  0  0  0  0  0  0
  -27.8109  -13.4962   23.2389 N   0  0  0  0  0  0  0  0  0  0  0  0
  -24.5038  -10.7509   24.6254 N   0  0  0  0  0  0  0  0  0  0  0  0
  -24.9293  -30.4938   24.1100 N   0  0  0  0  0  0  0  0  0  0  0  0
  -20.1483  -30.0859   19.2689 N   0  0  0  0  0  0  0  0  0  0  0  0
  -20.6215  -30.5757   15.7187 N   0  3  0  0  0  0  0  0  0  0  0  0
  -26.0340  -12.3160   25.3093 O   0  0  0  0  0  0  0  0  0  0  0  0
  -23.4100  -28.8647   23.4317 O   0  0  0  0  0  0  0  0  0  0  0  0
  -21.2928  -31.3605   21.5654 O   0  0  0  0  0  0  0  0  0  0  0  0
  -21.0246  -28.6197   17.7006 O   0  0  0  0  0  0  0  0  0  0  0  0
  -30.3815  -16.3057   18.8063 O   0  0  0  0  0  0  0  0  0  0  0  0
  -21.4971   -7.3333   21.4137 O   0  0  0  0  0  0  0  0  0  0  0  0
  -26.4234  -22.4345   20.1467 O   0  0  0  0  0  0  0  0  0  0  0  0
  -27.0905  -25.7614   18.9105 O   0  0  0  0  0  0  0  0  0  1  0  0
  -21.3948   -3.2635   25.1325 F   0  0  0  0  0  0  0  0  0  0  0  0
  -21.2334   -7.8824   24.1103 F   0  0  0  0  0  0  0  0  0  0  0  0
  1  2  1  0  0  0  0
  1  5  2  0  0  0  0
  2  6  2  0  0  0  0
  3  8  2  0  0  0  0
  3 16  1  0  0  0  0
  4  9  1  0  0  0  0
  4 16  2  0  0  0  0
  5 18  1  0  0  0  0
  6 20  1  0  0  0  0
  7 10  2  0  0  0  0
  7 19  1  0  0  0  0
  8 26  1  0  0  0  0
  9 26  2  0  0  0  0
 10 27  1  0  0  0  0
 11 12  2  0  0  0  0
 11 28  1  0  0  0  0
 12 30  1  0  0  0  0
 13 21  2  0  0  0  0
 13 23  1  0  0  0  0
 14 22  1  0  0  0  0
 14 27  2  0  0  0  0
 15 30  2  0  0  0  0
 15 31  1  0  0  0  0
 16 32  1  0  0  0  0
 17 32  1  0  0  0  0
 17 33  2  0  0  0  0
 17 34  1  0  0  0  0
 18 20  2  0  0  0  0
 18 39  1  0  0  0  0
 19 22  2  0  0  0  0
 19 40  1  0  0  0  0
 20 53  1  0  0  0  0
 21 29  1  0  0  0  0
 21 52  1  0  0  0  0
 22 41  1  0  0  0  0
 23 24  2  0  0  0  0
 23 56  1  0  0  0  0
 24 25  1  0  0  0  0
 24 57  1  0  0  0  0
 25 29  2  0  0  0  0
 25 64  1  0  0  0  0
 26 83  1  0  0  0  0
 27 85  1  0  0  0  0
 28 31  2  0  0  0  0
 28 83  1  0  0  0  0
 29 84  1  0  0  0  0
 30 86  1  0  0  0  0
 31 87  1  0  0  0  0
 32 68  2  0  0  0  0
 33 69  1  0  0  0  0
 33 73  1  0  0  0  0
 34 74  1  0  0  0  0
 34 78  2  0  0  0  0
 35 54  1  0  0  0  0
 35 75  1  0  0  0  0
 35 79  2  0  0  0  0
 36 65  1  0  0  0  0
 36 70  1  0  0  0  0
 36 80  2  0  0  0  0
 37 66  1  0  0  0  0
 37 76  1  0  0  0  0
 37 81  2  0  0  0  0
 38 71  1  0  0  0  0
 38 72  1  0  0  0  0
 38 82  2  0  0  0  0
 39 42  1  0  0  0  0
 40 54  1  0  0  0  0
 41 70  1  0  0  0  0
 42 44  1  0  0  0  0
 43 45  1  0  0  0  0
 43 48  1  0  0  0  0
 44 53  1  0  0  0  0
 45 55  1  0  0  0  0
 46 49  1  0  0  0  0
 46 52  1  0  0  0  0
 47 50  1  0  0  0  0
 47 52  1  0  0  0  0
 48 71  1  0  0  0  0
 49 72  1  0  0  0  0
 50 72  1  0  0  0  0
 51 55  1  0  0  0  0
 51 71  1  0  0  0  0
 53 75  1  0  0  0  0
 54 70  1  0  0  0  0
 55 69  1  0  0  0  0
 58 66  1  0  0  0  0
 59 67  1  0  0  0  0
 60 67  1  0  0  0  0
 61 67  1  0  0  0  0
 62 77  1  0  0  0  0
 63 84  1  0  0  0  0
 64 85  1  0  0  0  0
 65 67  1  0  0  0  0
 65 76  1  0  0  0  0
 66 77  1  0  0  0  0
 68 69  1  0  0  0  0
M  CHG  1  77   1
M  ISO  4  38 100  64 101  72 100  85 101
M  END
> <Batch ID>
0161

> <Smiles>
CNC(C)C(=O)NC(C(=O)N1Cc2cc([101O:1][101CH2:1]c3c(C)c(C)cc(C4CC[100N:0]([100C:0](=O)N5CCCC(n6nc(-c7ccc(Oc8ccc(F)cc8F)cc7)c(C(N)=O)c6N)C5)CC4)c3OC)ccc2CC1C(=O)NC1CCCc2ccccc21)C(C)(C)C

> <Shape>
0.304

> <Color>
0.126

> <Negative vol penalty>
0.000

$$$$

  -OEChem-04052322123D

 89 98  0     1  0  0  0  0  0999 V2000
  -17.0185  -26.3152   26.8680 C   0  0  0  0  0  0  0  0  0  0  0  0
  -18.4049  -26.3094   26.7532 C   0  0  0  0  0  0  0  0  0  0  0  0
  -23.1999   -9.8515   19.9514 C   0  0  0  0  0  0  0  0  0  0  0  0
  -23.9112   -9.9288   22.2590 C   0  0  0  0  0  0  0  0  0  0  0  0
  -16.3120  -25.1138   26.8297 C   0  0  0  0  0  0  0  0  0  0  0  0
  -19.0858  -25.1020   26.6010 C   0  0  0  0  0  0  0  0  0  0  0  0
  -24.8832  -22.3215   23.4428 C   0  0  0  0  0  0  0  0  0  0  0  0
  -22.5082   -8.6670   20.2043 C   0  0  0  0  0  0  0  0  0  0  0  0
  -23.2194   -8.7443   22.5120 C   0  0  0  0  0  0  0  0  0  0  0  0
  -26.0108  -21.5579   23.7418 C   0  0  0  0  0  0  0  0  0  0  0  0
  -20.0223   -7.7979   23.0625 C   0  0  0  0  0  0  0  0  0  0  0  0
  -19.2443   -7.7378   24.2186 C   0  0  0  0  0  0  0  0  0  0  0  0
  -24.6792  -19.5508   23.6096 C   0  0  0  0  0  0  0  0  0  0  0  0
  -20.5632   -5.8744   25.0094 C   0  0  0  0  0  0  0  0  0  0  0  0
  -23.9015  -10.4824   20.9788 C   0  0  0  0  0  0  0  0  0  0  0  0
  -24.1222  -13.0193   20.8266 C   0  0  0  0  0  0  0  0  0  0  0  0
  -16.9837  -23.8919   26.6673 C   0  0  0  0  0  0  0  0  0  0  0  0
  -23.6408  -21.7051   23.2353 C   0  0  0  0  0  0  0  0  0  0  0  0
  -18.3877  -23.8831   26.5619 C   0  0  0  0  0  0  0  0  0  0  0  0
  -23.5380  -20.3085   23.3056 C   0  0  0  0  0  0  0  0  0  0  0  0
  -32.2160  -21.6064   24.4522 C   0  0  0  0  0  0  0  0  0  0  0  0
  -33.2735  -20.7682   24.0992 C   0  0  0  0  0  0  0  0  0  0  0  0
  -30.9418  -21.0752   24.6520 C   0  0  0  0  0  0  0  0  0  0  0  0
  -33.0568  -19.3988   23.9459 C   0  0  0  0  0  0  0  0  0  0  0  0
  -30.7251  -19.7059   24.4986 C   0  0  0  0  0  0  0  0  0  0  0  0
  -31.7826  -18.8676   24.1456 C   0  0  0  0  0  0  0  0  0  0  0  0
  -22.5179   -8.1134   21.4846 C   0  0  0  0  0  0  0  0  0  0  0  0
  -25.9083  -20.1726   23.8281 C   0  0  0  0  0  0  0  0  0  0  0  0
  -21.0708   -6.8962   22.8798 C   0  0  0  0  0  0  0  0  0  0  0  0
  -19.5147   -6.7761   25.1921 C   0  0  0  0  0  0  0  0  0  0  0  0
  -21.3413   -5.9345   23.8532 C   0  0  0  0  0  0  0  0  0  0  0  0
  -24.6168  -11.7057   20.7180 C   0  0  0  0  0  0  0  0  0  0  0  0
  -25.1838  -13.8161   20.4736 C   0  0  0  0  0  0  0  0  0  0  0  0
  -22.8197  -13.4782   21.2122 C   0  0  0  0  0  0  0  0  0  0  0  0
  -20.8082  -21.8279   24.6722 C   0  0  0  0  0  0  0  0  0  0  0  0
  -19.8990  -19.9603   22.1807 C   0  0  0  0  0  0  0  0  0  0  0  0
  -20.7931  -17.7478   19.7409 C   0  0  0  0  0  0  0  0  0  0  0  0
  -30.9475  -14.0566   20.9594 C   0  0  0  0  0  0  0  0  0  0  0  0
  -16.1811  -22.6151   26.6792 C   0  0  0  0  0  0  0  0  0  0  0  0
  -22.4396  -22.5409   22.8873 C   0  0  0  0  0  0  0  0  0  0  0  0
  -22.2314  -19.5968   23.0714 C   0  0  0  0  0  0  0  0  0  0  0  0
  -16.9462  -21.4096   26.1392 C   0  0  0  0  0  0  0  0  0  0  0  0
  -29.3564  -13.1283   17.9126 C   0  0  0  0  0  0  0  0  0  0  0  0
  -18.3456  -21.3511   26.7435 C   0  0  0  0  0  0  0  0  0  0  0  0
  -27.9260  -12.7890   18.3355 C   0  0  0  0  0  0  0  0  0  0  0  0
  -31.0835  -15.2633   24.4985 C   0  0  0  0  0  0  0  0  0  0  0  0
  -30.3736  -12.6999   18.9679 C   0  0  0  0  0  0  0  0  0  0  0  0
  -31.6964  -16.5393   25.0753 C   0  0  0  0  0  0  0  0  0  0  0  0
  -28.6789  -12.8710   20.7490 C   0  0  0  0  0  0  0  0  0  0  0  0
  -31.1619  -16.8825   22.7398 C   0  0  0  0  0  0  0  0  0  0  0  0
  -19.1600  -22.5958   26.3707 C   0  0  1  0  0  0  0  0  0  0  0  0
  -21.1177  -21.8474   23.2020 C   0  0  1  0  0  0  0  0  0  0  0  0
  -27.6127  -13.3345   19.7417 C   0  0  2  0  0  0  0  0  0  0  0  0
  -31.3702  -15.3912   23.0086 C   0  0  2  0  0  0  0  0  0  0  0  0
  -32.4485  -23.0753   24.6168 C   0  0  0  0  0  0  0  0  0  0  0  0
  -34.6403  -21.3383   23.8850 C   0  0  0  0  0  0  0  0  0  0  0  0
  -29.8076  -21.9747   25.0311 C   0  0  0  0  0  0  0  0  0  0  0  0
  -34.1943  -18.5023   23.5668 C   0  0  0  0  0  0  0  0  0  0  0  0
  -29.1534  -18.6629   26.1641 C   0  0  0  0  0  0  0  0  0  0  0  0
  -19.8246  -16.3662   17.8834 C   0  0  0  0  0  0  0  0  0  0  0  0
  -18.8094  -17.9769   24.2274 C   0  0  0  0  0  0  0  0  0  0  0  0
  -18.7350  -16.2528   22.4135 C   0  0  0  0  0  0  0  0  0  0  0  0
  -17.3493  -18.3185   22.2259 C   0  0  0  0  0  0  0  0  0  0  0  0
  -22.4188  -19.1433   17.6992 C   0  0  0  0  0  0  0  0  0  0  0  0
  -28.2332  -20.1255   24.3269 C   0  0  0  0  0  0  0  0  0  1  0  0
  -29.3346  -19.1305   24.7173 C   0  0  1  0  0  0  0  0  0  0  0  0
  -19.8541  -18.4741   21.9193 C   0  0  1  0  0  0  0  0  0  0  0  0
  -20.4635  -17.6939   18.2601 C   0  0  2  0  0  0  0  0  0  0  0  0
  -18.7113  -17.7688   22.7029 C   0  0  0  0  0  0  0  0  0  0  0  0
  -25.8931  -11.6661   20.3264 N   0  0  0  0  0  0  0  0  0  0  0  0
  -26.2096  -12.9646   20.1858 N   0  0  0  0  0  0  0  0  0  0  0  0
  -31.5684  -17.5142   23.9940 N   0  0  3  0  0  0  0  0  0  0  0  0
  -21.0843  -20.4582   22.7403 N   0  0  0  0  0  0  0  0  0  0  0  0
  -30.0198  -13.2517   20.2779 N   0  0  0  0  0  0  0  0  0  0  0  0
  -25.3305  -15.1551   20.3842 N   0  0  0  0  0  0  0  0  0  0  0  0
  -21.8466  -12.5254   21.5433 N   0  0  0  0  0  0  0  0  0  0  0  0
  -19.6456  -22.4935   25.0112 N   0  0  0  0  0  0  0  0  0  0  0  0
  -19.7712  -18.3167   20.4712 N   0  0  0  0  0  0  0  0  0  0  0  0
  -30.5299  -14.5442   22.1917 N   0  0  0  0  0  0  0  0  0  0  0  0
  -21.7005  -17.8675   17.4474 N   0  3  0  0  0  0  0  0  0  0  0  0
  -22.5226  -14.6964   21.2459 O   0  0  0  0  0  0  0  0  0  0  0  0
  -21.5671  -21.2506   25.4419 O   0  0  0  0  0  0  0  0  0  0  0  0
  -18.9213  -20.6549   21.8923 O   0  0  0  0  0  0  0  0  0  0  0  0
  -21.8498  -17.3241   20.2040 O   0  0  0  0  0  0  0  0  0  0  0  0
  -32.0631  -14.3256   20.5010 O   0  0  0  0  0  0  0  0  0  0  0  0
  -21.8428   -6.9577   21.7318 O   0  0  0  0  0  0  0  0  0  0  0  0
  -27.0072  -19.4250   24.1205 O   0  0  0  0  0  0  0  0  0  1  0  0
  -18.7685   -6.7195   26.3030 F   0  0  0  0  0  0  0  0  0  0  0  0
  -22.3479   -5.0663   23.6838 F   0  0  0  0  0  0  0  0  0  0  0  0
  1  2  1  0  0  0  0
  1  5  2  0  0  0  0
  2  6  2  0  0  0  0
  3  8  2  0  0  0  0
  3 15  1  0  0  0  0
  4  9  1  0  0  0  0
  4 15  2  0  0  0  0
  5 17  1  0  0  0  0
  6 19  1  0  0  0  0
  7 10  2  0  0  0  0
  7 18  1  0  0  0  0
  8 27  1  0  0  0  0
  9 27  2  0  0  0  0
 10 28  1  0  0  0  0
 11 12  2  0  0  0  0
 11 29  1  0  0  0  0
 12 30  1  0  0  0  0
 13 20  1  0  0  0  0
 13 28  2  0  0  0  0
 14 30  2  0  0  0  0
 14 31  1  0  0  0  0
 15 32  1  0  0  0  0
 16 32  1  0  0  0  0
 16 33  2  0  0  0  0
 16 34  1  0  0  0  0
 17 19  2  0  0  0  0
 17 39  1  0  0  0  0
 18 20  2  0  0  0  0
 18 40  1  0  0  0  0
 19 51  1  0  0  0  0
 20 41  1  0  0  0  0
 21 22  1  0  0  0  0
 21 23  2  0  0  0  0
 21 55  1  0  0  0  0
 22 24  2  0  0  0  0
 22 56  1  0  0  0  0
 23 25  1  0  0  0  0
 23 57  1  0  0  0  0
 24 26  1  0  0  0  0
 24 58  1  0  0  0  0
 25 26  2  0  0  0  0
 25 66  1  0  0  0  0
 26 72  1  0  0  0  0
 27 86  1  0  0  0  0
 28 87  1  0  0  0  0
 29 31  2  0  0  0  0
 29 86  1  0  0  0  0
 30 88  1  0  0  0  0
 31 89  1  0  0  0  0
 32 70  2  0  0  0  0
 33 71  1  0  0  0  0
 33 75  1  0  0  0  0
 34 76  1  0  0  0  0
 34 81  2  0  0  0  0
 35 52  1  0  0  0  0
 35 77  1  0  0  0  0
 35 82  2  0  0  0  0
 36 67  1  0  0  0  0
 36 73  1  0  0  0  0
 36 83  2  0  0  0  0
 37 68  1  0  0  0  0
 37 78  1  0  0  0  0
 37 84  2  0  0  0  0
 38 74  1  0  0  0  0
 38 79  1  0  0  0  0
 38 85  2  0  0  0  0
 39 42  1  0  0  0  0
 40 52  1  0  0  0  0
 41 73  1  0  0  0  0
 42 44  1  0  0  0  0
 43 45  1  0  0  0  0
 43 47  1  0  0  0  0
 44 51  1  0  0  0  0
 45 53  1  0  0  0  0
 46 48  1  0  0  0  0
 46 54  1  0  0  0  0
 47 74  1  0  0  0  0
 48 72  1  0  0  0  0
 49 53  1  0  0  0  0
 49 74  1  0  0  0  0
 50 54  1  0  0  0  0
 50 72  1  0  0  0  0
 51 77  1  0  0  0  0
 52 73  1  0  0  0  0
 53 71  1  0  0  0  0
 54 79  1  0  0  0  0
 59 66  1  0  0  0  0
 60 68  1  0  0  0  0
 61 69  1  0  0  0  0
 62 69  1  0  0  0  0
 63 69  1  0  0  0  0
 64 80  1  0  0  0  0
 65 66  1  0  0  0  0
 65 87  1  0  0  0  0
 67 69  1  0  0  0  0
 67 78  1  0  0  0  0
 68 80  1  0  0  0  0
 70 71  1  0  0  0  0
M  CHG  1  80   1
M  ISO  4  38 100  65 101  79 100  87 101
M  END
> <Batch ID>
0161

> <Smiles>
CNC(C)C(=O)NC(C(=O)N1Cc2cc([101O:1][101CH2:1]C(C)c3c(C)c(C)c(C)c(C)c3N3CCC([100NH:0][100C:0](=O)N4CCCC(n5nc(-c6ccc(Oc7ccc(F)cc7F)cc6)c(C(N)=O)c5N)C4)C3)ccc2CC1C(=O)NC1CCCc2ccccc21)C(C)(C)C

> <Shape>
0.156

> <Color>
0.185

> <Negative vol penalty>
0.000

$$$$

  -OEChem-04052322123D

 87 96  0     1  0  0  0  0  0999 V2000
  -22.7085  -21.8521   26.6783 C   0  0  0  0  0  0  0  0  0  0  0  0
  -23.3622  -20.6260   26.7466 C   0  0  0  0  0  0  0  0  0  0  0  0
  -23.1524   -9.8584   19.9038 C   0  0  0  0  0  0  0  0  0  0  0  0
  -23.9073   -9.8791   22.1987 C   0  0  0  0  0  0  0  0  0  0  0  0
  -23.3273  -22.9992   27.1734 C   0  0  0  0  0  0  0  0  0  0  0  0
  -24.6357  -20.5465   27.3090 C   0  0  0  0  0  0  0  0  0  0  0  0
  -26.9345  -15.9035   30.5746 C   0  0  0  0  0  0  0  0  0  0  0  0
  -22.4416   -8.6834   20.1482 C   0  0  0  0  0  0  0  0  0  0  0  0
  -23.1965   -8.7041   22.4431 C   0  0  0  0  0  0  0  0  0  0  0  0
  -27.7706  -14.8410   30.2344 C   0  0  0  0  0  0  0  0  0  0  0  0
  -20.7194   -5.4815   20.0750 C   0  0  0  0  0  0  0  0  0  0  0  0
  -20.8142   -4.4567   19.1336 C   0  0  0  0  0  0  0  0  0  0  0  0
  -30.1312  -18.2661   24.4275 C   0  0  0  0  0  0  0  0  0  0  0  0
  -29.6752  -16.0966   31.0186 C   0  0  0  0  0  0  0  0  0  0  0  0
  -23.2022   -4.3543   19.4856 C   0  0  0  0  0  0  0  0  0  0  0  0
  -23.8853  -10.4563   20.9290 C   0  0  0  0  0  0  0  0  0  0  0  0
  -24.1542  -12.9906   20.8186 C   0  0  0  0  0  0  0  0  0  0  0  0
  -24.6050  -22.9321   27.7510 C   0  0  0  0  0  0  0  0  0  0  0  0
  -27.4647  -17.0768   31.1302 C   0  0  0  0  0  0  0  0  0  0  0  0
  -25.2727  -21.6940   27.8111 C   0  0  0  0  0  0  0  0  0  0  0  0
  -29.9421  -17.7208   23.1465 C   0  0  0  0  0  0  0  0  0  0  0  0
  -28.8434  -17.1716   31.3674 C   0  0  0  0  0  0  0  0  0  0  0  0
  -30.8004  -17.5482   25.4149 C   0  0  0  0  0  0  0  0  0  0  0  0
  -31.2680  -16.2691   25.1392 C   0  0  0  0  0  0  0  0  0  0  0  0
  -31.0795  -15.7111   23.8730 C   0  0  0  0  0  0  0  0  0  0  0  0
  -30.4369  -16.4321   22.8531 C   0  0  0  0  0  0  0  0  0  0  0  0
  -22.4637   -8.1062   21.4178 C   0  0  0  0  0  0  0  0  0  0  0  0
  -29.1415  -14.9386   30.4538 C   0  0  0  0  0  0  0  0  0  0  0  0
  -21.8660   -5.9428   20.7217 C   0  0  0  0  0  0  0  0  0  0  0  0
  -22.0556   -3.8930   18.8389 C   0  0  0  0  0  0  0  0  0  0  0  0
  -23.1074   -5.3791   20.4270 C   0  0  0  0  0  0  0  0  0  0  0  0
  -24.6201  -11.6698   20.6770 C   0  0  0  0  0  0  0  0  0  0  0  0
  -25.2250  -13.7726   20.4601 C   0  0  0  0  0  0  0  0  0  0  0  0
  -22.8686  -13.4681   21.2367 C   0  0  0  0  0  0  0  0  0  0  0  0
  -27.5666  -20.1291   30.2488 C   0  0  0  0  0  0  0  0  0  0  0  0
  -28.8651  -20.5319   33.1939 C   0  0  0  0  0  0  0  0  0  0  0  0
  -30.5564  -19.1681   35.8258 C   0  0  0  0  0  0  0  0  0  0  0  0
  -30.8021  -14.6619   21.1072 C   0  0  0  0  0  0  0  0  0  0  0  0
  -25.2532  -24.2070   28.2298 C   0  0  0  0  0  0  0  0  0  0  0  0
  -26.5461  -18.2035   31.5164 C   0  0  0  0  0  0  0  0  0  0  0  0
  -29.1552  -18.5234   22.1410 C   0  0  0  0  0  0  0  0  0  0  0  0
  -29.4600  -18.4016   31.9801 C   0  0  0  0  0  0  0  0  0  0  0  0
  -26.4487  -23.9742   29.1500 C   0  0  0  0  0  0  0  0  0  0  0  0
  -29.3123  -17.9942   20.7234 C   0  0  0  0  0  0  0  0  0  0  0  0
  -29.6138  -12.6056   18.2641 C   0  0  0  0  0  0  0  0  0  0  0  0
  -27.3705  -22.9073   28.5680 C   0  0  0  0  0  0  0  0  0  0  0  0
  -28.2010  -12.2177   18.6958 C   0  0  0  0  0  0  0  0  0  0  0  0
  -29.1972  -16.4799   20.7155 C   0  0  0  0  0  0  0  0  0  0  0  0
  -30.5285  -12.8357   19.4632 C   0  0  0  0  0  0  0  0  0  0  0  0
  -28.5801  -13.4586   20.8641 C   0  0  0  0  0  0  0  0  0  0  0  0
  -26.6446  -21.5630   28.4364 C   0  0  1  0  0  0  0  0  0  0  0  0
  -27.2561  -19.5512   31.6006 C   0  0  1  0  0  0  0  0  0  0  0  0
  -27.6294  -13.2564   19.6745 C   0  0  2  0  0  0  0  0  0  0  0  0
  -30.9815  -18.1671   26.7619 C   0  0  0  0  0  0  0  0  0  0  0  0
  -31.3563  -14.2387   23.8003 C   0  0  0  0  0  0  0  0  0  0  0  0
  -31.5068  -19.7542   38.0731 C   0  0  0  0  0  0  0  0  0  0  0  0
  -31.1958  -21.9563   31.8341 C   0  0  0  0  0  0  0  0  0  0  0  0
  -32.5124  -21.6674   33.9440 C   0  0  0  0  0  0  0  0  0  0  0  0
  -30.4180  -23.0223   33.9585 C   0  0  0  0  0  0  0  0  0  0  0  0
  -28.8155  -17.2098   37.2017 C   0  0  0  0  0  0  0  0  0  0  0  0
  -31.9418  -15.4872   26.2251 C   0  0  0  0  0  0  0  0  0  0  0  0
  -30.7995  -12.5144   28.3505 C   0  0  0  0  0  0  0  0  0  0  0  0
  -31.7507  -13.5794   27.8259 C   0  0  0  0  0  0  0  0  0  0  0  0
  -29.5579  -13.0812   29.0280 C   0  0  0  0  0  0  0  0  0  1  0  0
  -30.2654  -20.5067   33.7574 C   0  0  1  0  0  0  0  0  0  0  0  0
  -30.2998  -19.2152   37.3212 C   0  0  2  0  0  0  0  0  0  0  0  0
  -31.0868  -21.7656   33.3602 C   0  0  0  0  0  0  0  0  0  0  0  0
  -25.8880  -11.6120   20.2610 N   0  0  0  0  0  0  0  0  0  0  0  0
  -26.2279  -12.9064   20.1379 N   0  0  0  0  0  0  0  0  0  0  0  0
  -30.2394  -15.8720   21.5433 N   0  0  0  0  0  0  0  0  0  0  0  0
  -28.5210  -19.4787   32.3347 N   0  0  0  0  0  0  0  0  0  0  0  0
  -29.9464  -13.7788   20.4192 N   0  0  0  0  0  0  0  0  0  0  0  0
  -25.3970  -15.1099   20.3922 N   0  0  0  0  0  0  0  0  0  0  0  0
  -21.8827  -12.5288   21.5687 N   0  0  0  0  0  0  0  0  0  0  0  0
  -26.5538  -20.9094   29.7245 N   0  0  0  0  0  0  0  0  0  0  0  0
  -30.1228  -20.3160   35.1968 N   0  0  0  0  0  0  0  0  0  0  0  0
  -29.9952  -17.8508   37.8377 N   0  3  0  0  0  0  0  0  0  0  0  0
  -31.0863  -14.4084   26.7851 N   0  3  0  0  0  0  0  0  0  0  0  0
  -22.5968  -14.6911   21.2979 O   0  0  0  0  0  0  0  0  0  0  0  0
  -28.6456  -19.8862   29.7212 O   0  0  0  0  0  0  0  0  0  0  0  0
  -28.1023  -21.4482   33.5102 O   0  0  0  0  0  0  0  0  0  0  0  0
  -31.0916  -18.2105   35.2716 O   0  0  0  0  0  0  0  0  0  0  0  0
  -31.9725  -14.3659   21.3781 O   0  0  0  0  0  0  0  0  0  0  0  0
  -21.7701   -6.9598   21.6567 O   0  0  0  0  0  0  0  0  0  0  0  0
  -29.9657  -13.8959   30.1197 O   0  0  0  0  0  0  0  0  0  1  0  0
  -22.1463   -2.9078   17.9359 F   0  0  0  0  0  0  0  0  0  0  0  0
  -24.2123   -5.8173   21.0459 F   0  0  0  0  0  0  0  0  0  0  0  0
  1  2  1  0  0  0  0
  1  5  2  0  0  0  0
  2  6  2  0  0  0  0
  3  8  2  0  0  0  0
  3 16  1  0  0  0  0
  4  9  1  0  0  0  0
  4 16  2  0  0  0  0
  5 18  1  0  0  0  0
  6 20  1  0  0  0  0
  7 10  2  0  0  0  0
  7 19  1  0  0  0  0
  8 27  1  0  0  0  0
  9 27  2  0  0  0  0
 10 28  1  0  0  0  0
 11 12  2  0  0  0  0
 11 29  1  0  0  0  0
 12 30  1  0  0  0  0
 13 21  1  0  0  0  0
 13 23  2  0  0  0  0
 14 22  1  0  0  0  0
 14 28  2  0  0  0  0
 15 30  2  0  0  0  0
 15 31  1  0  0  0  0
 16 32  1  0  0  0  0
 17 32  1  0  0  0  0
 17 33  2  0  0  0  0
 17 34  1  0  0  0  0
 18 20  2  0  0  0  0
 18 39  1  0  0  0  0
 19 22  2  0  0  0  0
 19 40  1  0  0  0  0
 20 51  1  0  0  0  0
 21 26  2  0  0  0  0
 21 41  1  0  0  0  0
 22 42  1  0  0  0  0
 23 24  1  0  0  0  0
 23 54  1  0  0  0  0
 24 25  2  0  0  0  0
 24 61  1  0  0  0  0
 25 26  1  0  0  0  0
 25 55  1  0  0  0  0
 26 70  1  0  0  0  0
 27 84  1  0  0  0  0
 28 85  1  0  0  0  0
 29 31  2  0  0  0  0
 29 84  1  0  0  0  0
 30 86  1  0  0  0  0
 31 87  1  0  0  0  0
 32 68  2  0  0  0  0
 33 69  1  0  0  0  0
 33 73  1  0  0  0  0
 34 74  1  0  0  0  0
 34 79  2  0  0  0  0
 35 52  1  0  0  0  0
 35 75  1  0  0  0  0
 35 80  2  0  0  0  0
 36 65  1  0  0  0  0
 36 71  1  0  0  0  0
 36 81  2  0  0  0  0
 37 66  1  0  0  0  0
 37 76  1  0  0  0  0
 37 82  2  0  0  0  0
 38 70  1  0  0  0  0
 38 72  1  0  0  0  0
 38 83  2  0  0  0  0
 39 43  1  0  0  0  0
 40 52  1  0  0  0  0
 41 44  1  0  0  0  0
 42 71  1  0  0  0  0
 43 46  1  0  0  0  0
 44 48  1  0  0  0  0
 45 47  1  0  0  0  0
 45 49  1  0  0  0  0
 46 51  1  0  0  0  0
 47 53  1  0  0  0  0
 48 70  1  0  0  0  0
 49 72  1  0  0  0  0
 50 53  1  0  0  0  0
 50 72  1  0  0  0  0
 51 75  1  0  0  0  0
 52 71  1  0  0  0  0
 53 69  1  0  0  0  0
 56 66  1  0  0  0  0
 57 67  1  0  0  0  0
 58 67  1  0  0  0  0
 59 67  1  0  0  0  0
 60 77  1  0  0  0  0
 61 78  1  0  0  0  0
 62 63  1  0  0  0  0
 62 64  1  0  0  0  0
 63 78  1  0  0  0  0
 64 85  1  0  0  0  0
 65 67  1  0  0  0  0
 65 76  1  0  0  0  0
 66 77  1  0  0  0  0
 68 69  1  0  0  0  0
M  CHG  2  77   1  78   1
M  ISO  4  38 100  64 101  70 100  85 101
M  END
> <Batch ID>
0161

> <Smiles>
CNC(C)C(=O)NC(C(=O)N1Cc2cc([101O:1][101CH2:1]CCNCc3c(C)cc4c(c3C)[100N:0]([100C:0](=O)N3CCCC(n5nc(-c6ccc(Oc7ccc(F)cc7F)cc6)c(C(N)=O)c5N)C3)CCC4)ccc2CC1C(=O)NC1CCCc2ccccc21)C(C)(C)C

> <Shape>
0.158

> <Color>
0.172

> <Negative vol penalty>
0.000

$$$$

  -OEChem-04052322123D

 85 93  0     1  0  0  0  0  0999 V2000
  -27.5850  -31.1417   14.3011 C   0  0  0  0  0  0  0  0  0  0  0  0
  -27.7411  -29.8521   14.7990 C   0  0  0  0  0  0  0  0  0  0  0  0
  -23.8316   -9.7470   21.3357 C   0  0  0  0  0  0  0  0  0  0  0  0
  -24.3982  -10.7246   23.4711 C   0  0  0  0  0  0  0  0  0  0  0  0
  -27.6387  -32.2332   15.1670 C   0  0  0  0  0  0  0  0  0  0  0  0
  -27.9520  -29.6532   16.1629 C   0  0  0  0  0  0  0  0  0  0  0  0
  -25.9415  -24.9668   19.5543 C   0  0  0  0  0  0  0  0  0  0  0  0
  -23.3204   -8.6236   21.9855 C   0  0  0  0  0  0  0  0  0  0  0  0
  -23.8870   -9.6012   24.1210 C   0  0  0  0  0  0  0  0  0  0  0  0
  -26.5553  -23.7935   19.9907 C   0  0  0  0  0  0  0  0  0  0  0  0
  -20.4939   -7.7700   23.6332 C   0  0  0  0  0  0  0  0  0  0  0  0
  -19.2642   -7.2741   23.2002 C   0  0  0  0  0  0  0  0  0  0  0  0
  -27.0759  -24.8551   22.0933 C   0  0  0  0  0  0  0  0  0  0  0  0
  -27.6316  -19.2663   21.9158 C   0  0  0  0  0  0  0  0  0  0  0  0
  -30.4044  -19.1961   22.2143 C   0  0  0  0  0  0  0  0  0  0  0  0
  -20.3051   -5.1607   22.6643 C   0  0  0  0  0  0  0  0  0  0  0  0
  -24.3705  -10.7975   22.0784 C   0  0  0  0  0  0  0  0  0  0  0  0
  -24.2009  -13.1289   21.0571 C   0  0  0  0  0  0  0  0  0  0  0  0
  -27.8407  -32.0470   16.5436 C   0  0  0  0  0  0  0  0  0  0  0  0
  -25.8998  -26.0984   20.3814 C   0  0  0  0  0  0  0  0  0  0  0  0
  -28.0097  -30.7433   17.0478 C   0  0  0  0  0  0  0  0  0  0  0  0
  -26.4588  -26.0407   21.6661 C   0  0  0  0  0  0  0  0  0  0  0  0
  -28.4105  -20.3237   21.4461 C   0  0  0  0  0  0  0  0  0  0  0  0
  -28.2390  -18.1738   22.5348 C   0  0  0  0  0  0  0  0  0  0  0  0
  -29.7969  -20.2887   21.5954 C   0  0  0  0  0  0  0  0  0  0  0  0
  -23.3482   -8.5507   23.3782 C   0  0  0  0  0  0  0  0  0  0  0  0
  -27.1252  -23.7384   21.2592 C   0  0  0  0  0  0  0  0  0  0  0  0
  -21.6293   -6.9613   23.5817 C   0  0  0  0  0  0  0  0  0  0  0  0
  -29.6254  -18.1387   22.6840 C   0  0  0  0  0  0  0  0  0  0  0  0
  -19.1698   -5.9695   22.7158 C   0  0  0  0  0  0  0  0  0  0  0  0
  -21.5349   -5.6566   23.0973 C   0  0  0  0  0  0  0  0  0  0  0  0
  -24.8992  -11.9579   21.4077 C   0  0  0  0  0  0  0  0  0  0  0  0
  -25.1425  -13.9203   20.4459 C   0  0  0  0  0  0  0  0  0  0  0  0
  -22.8241  -13.4708   21.2654 C   0  0  0  0  0  0  0  0  0  0  0  0
  -27.0395  -29.0596   20.1905 C   0  0  0  0  0  0  0  0  0  0  0  0
  -25.3339  -29.4751   22.9183 C   0  0  0  0  0  0  0  0  0  0  0  0
  -23.8991  -28.0744   25.6798 C   0  0  0  0  0  0  0  0  0  0  0  0
  -31.1115  -14.1918   20.8309 C   0  0  0  0  0  0  0  0  0  0  0  0
  -27.9385  -33.2607   17.4337 C   0  0  0  0  0  0  0  0  0  0  0  0
  -25.2105  -27.3479   19.9061 C   0  0  0  0  0  0  0  0  0  0  0  0
  -26.4227  -27.2215   22.6004 C   0  0  0  0  0  0  0  0  0  0  0  0
  -27.7916  -32.9402   18.9189 C   0  0  0  0  0  0  0  0  0  0  0  0
  -29.1786  -13.6438   17.8915 C   0  0  0  0  0  0  0  0  0  0  0  0
  -28.6527  -31.7381   19.2934 C   0  0  0  0  0  0  0  0  0  0  0  0
  -27.7996  -13.2552   18.4277 C   0  0  0  0  0  0  0  0  0  0  0  0
  -30.3009  -13.0892   18.7661 C   0  0  0  0  0  0  0  0  0  0  0  0
  -28.8175  -13.0410   20.7335 C   0  0  0  0  0  0  0  0  0  0  0  0
  -28.2155  -30.4853   18.5247 C   0  0  1  0  0  0  0  0  0  0  0  0
  -25.6789  -28.6032   20.6357 C   0  0  1  0  0  0  0  0  0  0  0  0
  -27.6523  -13.6244   19.9161 C   0  0  2  0  0  0  0  0  0  0  0  0
  -30.6519  -21.4088   21.1006 C   0  0  0  0  0  0  0  0  0  0  0  0
  -25.7903  -16.2688   24.8326 C   0  0  0  0  0  0  0  0  0  0  0  0
  -22.6076  -28.6725   27.7466 C   0  0  0  0  0  0  0  0  0  0  0  0
  -27.8908  -30.5274   24.2085 C   0  0  0  0  0  0  0  0  0  0  0  0
  -26.8116  -30.2064   26.4447 C   0  0  0  0  0  0  0  0  0  0  0  0
  -25.8222  -31.8015   24.8018 C   0  0  0  0  0  0  0  0  0  0  0  0
  -21.5864  -26.4231   24.8529 C   0  0  0  0  0  0  0  0  0  0  0  0
  -27.3898  -17.0502   23.0308 C   0  0  0  0  0  0  0  0  0  0  0  0
  -27.7352  -21.4892   20.7851 C   0  0  0  0  0  0  0  0  0  1  0  0
  -26.6808  -17.4014   24.3468 C   0  0  0  0  0  0  0  0  0  0  0  0
  -31.7780  -15.2654   22.9669 C   0  0  0  0  0  0  0  0  0  0  0  0
  -31.5578  -16.7637   22.8599 C   0  0  0  0  0  0  0  0  0  0  0  0
  -25.6187  -29.3150   24.3921 C   0  0  1  0  0  0  0  0  0  0  0  0
  -22.5196  -28.2392   26.2915 C   0  0  2  0  0  0  0  0  0  0  0  0
  -26.5384  -30.4407   24.9437 C   0  0  0  0  0  0  0  0  0  0  0  0
  -26.1852  -11.9975   21.0489 N   0  0  0  0  0  0  0  0  0  0  0  0
  -26.3024  -13.2029   20.4664 N   0  0  0  0  0  0  0  0  0  0  0  0
  -25.7430  -28.4224   22.0874 N   0  0  0  0  0  0  0  0  0  0  0  0
  -30.1027  -13.4764   20.1649 N   0  0  0  0  0  0  0  0  0  0  0  0
  -25.0833  -15.1527   19.8982 N   0  0  0  0  0  0  0  0  0  0  0  0
  -21.9952  -12.5423   21.9096 N   0  0  0  0  0  0  0  0  0  0  0  0
  -27.0182  -29.9239   19.1126 N   0  0  0  0  0  0  0  0  0  0  0  0
  -24.3203  -29.2272   25.0516 N   0  0  0  0  0  0  0  0  0  0  0  0
  -30.8405  -14.5248   22.1524 N   0  0  0  0  0  0  0  0  0  0  0  0
  -21.7680  -26.9539   26.2285 N   0  3  0  0  0  0  0  0  0  0  0  0
  -22.3394  -14.5605   20.8767 O   0  0  0  0  0  0  0  0  0  0  0  0
  -28.0349  -28.6585   20.7822 O   0  0  0  0  0  0  0  0  0  0  0  0
  -24.7628  -30.4933   22.5198 O   0  0  0  0  0  0  0  0  0  0  0  0
  -24.5405  -27.0287   25.7552 O   0  0  0  0  0  0  0  0  0  0  0  0
  -32.1728  -14.5148   20.2865 O   0  0  0  0  0  0  0  0  0  0  0  0
  -22.8493   -7.4548   24.0127 O   0  0  0  0  0  0  0  0  0  0  0  0
  -27.7255  -22.5947   21.6874 O   0  0  0  0  0  0  0  0  0  1  0  0
  -30.2345  -17.0798   23.2875 O   0  0  0  0  0  0  0  0  0  0  0  0
  -17.9885   -5.4929   22.3014 F   0  0  0  0  0  0  0  0  0  0  0  0
  -22.6219   -4.8746   23.0465 F   0  0  0  0  0  0  0  0  0  0  0  0
  1  2  1  0  0  0  0
  1  5  2  0  0  0  0
  2  6  2  0  0  0  0
  3  8  2  0  0  0  0
  3 17  1  0  0  0  0
  4  9  1  0  0  0  0
  4 17  2  0  0  0  0
  5 19  1  0  0  0  0
  6 21  1  0  0  0  0
  7 10  2  0  0  0  0
  7 20  1  0  0  0  0
  8 26  1  0  0  0  0
  9 26  2  0  0  0  0
 10 27  1  0  0  0  0
 11 12  2  0  0  0  0
 11 28  1  0  0  0  0
 12 30  1  0  0  0  0
 13 22  1  0  0  0  0
 13 27  2  0  0  0  0
 14 23  2  0  0  0  0
 14 24  1  0  0  0  0
 15 25  2  0  0  0  0
 15 29  1  0  0  0  0
 16 30  2  0  0  0  0
 16 31  1  0  0  0  0
 17 32  1  0  0  0  0
 18 32  1  0  0  0  0
 18 33  2  0  0  0  0
 18 34  1  0  0  0  0
 19 21  2  0  0  0  0
 19 39  1  0  0  0  0
 20 22  2  0  0  0  0
 20 40  1  0  0  0  0
 21 48  1  0  0  0  0
 22 41  1  0  0  0  0
 23 25  1  0  0  0  0
 23 59  1  0  0  0  0
 24 29  2  0  0  0  0
 24 58  1  0  0  0  0
 25 51  1  0  0  0  0
 26 81  1  0  0  0  0
 27 82  1  0  0  0  0
 28 31  2  0  0  0  0
 28 81  1  0  0  0  0
 29 83  1  0  0  0  0
 30 84  1  0  0  0  0
 31 85  1  0  0  0  0
 32 66  2  0  0  0  0
 33 67  1  0  0  0  0
 33 70  1  0  0  0  0
 34 71  1  0  0  0  0
 34 76  2  0  0  0  0
 35 49  1  0  0  0  0
 35 72  1  0  0  0  0
 35 77  2  0  0  0  0
 36 63  1  0  0  0  0
 36 68  1  0  0  0  0
 36 78  2  0  0  0  0
 37 64  1  0  0  0  0
 37 73  1  0  0  0  0
 37 79  2  0  0  0  0
 38 69  1  0  0  0  0
 38 74  1  0  0  0  0
 38 80  2  0  0  0  0
 39 42  1  0  0  0  0
 40 49  1  0  0  0  0
 41 68  1  0  0  0  0
 42 44  1  0  0  0  0
 43 45  1  0  0  0  0
 43 46  1  0  0  0  0
 44 48  1  0  0  0  0
 45 50  1  0  0  0  0
 46 69  1  0  0  0  0
 47 50  1  0  0  0  0
 47 69  1  0  0  0  0
 48 72  1  0  0  0  0
 49 68  1  0  0  0  0
 50 67  1  0  0  0  0
 52 60  1  0  0  0  0
 53 64  1  0  0  0  0
 54 65  1  0  0  0  0
 55 65  1  0  0  0  0
 56 65  1  0  0  0  0
 57 75  1  0  0  0  0
 58 60  1  0  0  0  0
 59 82  1  0  0  0  0
 61 62  1  0  0  0  0
 61 74  1  0  0  0  0
 62 83  1  0  0  0  0
 63 65  1  0  0  0  0
 63 73  1  0  0  0  0
 64 75  1  0  0  0  0
 66 67  1  0  0  0  0
M  CHG  1  75   1
M  ISO  4  38 100  59 101  74 100  82 101
M  END
> <Batch ID>
0161

> <Smiles>
CCCc1cc([101CH2:1][101O:1]c2ccc3c(c2)CN(C(=O)C(NC(=O)C(C)NC)C(C)(C)C)C(C(=O)NC2CCCc4ccccc42)C3)c(C)cc1OCC[100NH:0][100C:0](=O)N1CCCC(n2nc(-c3ccc(Oc4ccc(F)cc4F)cc3)c(C(N)=O)c2N)C1

> <Shape>
0.254

> <Color>
0.145

> <Negative vol penalty>
0.000

$$$$

  -OEChem-04052322123D

 90100  0     1  0  0  0  0  0999 V2000
  -18.1413  -26.1150   24.7127 C   0  0  0  0  0  0  0  0  0  0  0  0
  -19.3078  -26.3203   23.9829 C   0  0  0  0  0  0  0  0  0  0  0  0
  -24.0854   -8.9824   20.4037 C   0  0  0  0  0  0  0  0  0  0  0  0
  -23.1639  -10.8802   21.5812 C   0  0  0  0  0  0  0  0  0  0  0  0
  -17.1699  -27.1137   24.7677 C   0  0  0  0  0  0  0  0  0  0  0  0
  -19.5030  -27.5240   23.3066 C   0  0  0  0  0  0  0  0  0  0  0  0
  -24.1708  -29.3793   23.9506 C   0  0  0  0  0  0  0  0  0  0  0  0
  -23.3007   -8.1238   21.1734 C   0  0  0  0  0  0  0  0  0  0  0  0
  -22.3791  -10.0215   22.3509 C   0  0  0  0  0  0  0  0  0  0  0  0
  -25.1947  -28.8009   23.2018 C   0  0  0  0  0  0  0  0  0  0  0  0
  -20.0838   -7.0851   21.2491 C   0  0  0  0  0  0  0  0  0  0  0  0
  -19.4100   -6.0570   20.5899 C   0  0  0  0  0  0  0  0  0  0  0  0
  -27.5159  -22.6490   20.6592 C   0  0  0  0  0  0  0  0  0  0  0  0
  -25.0807  -30.6356   21.6398 C   0  0  0  0  0  0  0  0  0  0  0  0
  -20.5962   -4.4263   21.9207 C   0  0  0  0  0  0  0  0  0  0  0  0
  -24.0171  -10.3607   20.6077 C   0  0  0  0  0  0  0  0  0  0  0  0
  -24.4835  -11.8434   18.5849 C   0  0  0  0  0  0  0  0  0  0  0  0
  -17.3576  -28.3340   24.0997 C   0  0  0  0  0  0  0  0  0  0  0  0
  -23.5857  -30.5867   23.5430 C   0  0  0  0  0  0  0  0  0  0  0  0
  -18.5326  -28.5394   23.3516 C   0  0  0  0  0  0  0  0  0  0  0  0
  -26.7331  -23.3613   19.7507 C   0  0  0  0  0  0  0  0  0  0  0  0
  -24.0513  -31.2286   22.3865 C   0  0  0  0  0  0  0  0  0  0  0  0
  -26.8787  -20.5802   19.5863 C   0  0  0  0  0  0  0  0  0  0  0  0
  -27.5888  -21.2584   20.5770 C   0  0  0  0  0  0  0  0  0  0  0  0
  -26.0230  -22.6831   18.7601 C   0  0  0  0  0  0  0  0  0  0  0  0
  -26.0958  -21.2925   18.6778 C   0  0  0  0  0  0  0  0  0  0  0  0
  -22.4476   -8.6433   22.1470 C   0  0  0  0  0  0  0  0  0  0  0  0
  -25.6479  -29.4275   22.0446 C   0  0  0  0  0  0  0  0  0  0  0  0
  -21.0139   -6.7838   22.2440 C   0  0  0  0  0  0  0  0  0  0  0  0
  -19.6661   -4.7276   20.9257 C   0  0  0  0  0  0  0  0  0  0  0  0
  -21.2700   -5.4544   22.5798 C   0  0  0  0  0  0  0  0  0  0  0  0
  -24.8279  -11.2482   19.8133 C   0  0  0  0  0  0  0  0  0  0  0  0
  -25.5848  -12.5903   18.2446 C   0  0  0  0  0  0  0  0  0  0  0  0
  -23.2761  -11.7312   17.8199 C   0  0  0  0  0  0  0  0  0  0  0  0
  -20.6626  -31.4811   22.6716 C   0  0  0  0  0  0  0  0  0  0  0  0
  -21.9923  -34.4399   22.6641 C   0  0  0  0  0  0  0  0  0  0  0  0
  -24.8099  -36.3493   22.4140 C   0  0  0  0  0  0  0  0  0  0  0  0
  -29.4618  -16.3004   19.8990 C   0  0  0  0  0  0  0  0  0  0  0  0
  -16.2583  -29.3654   24.1494 C   0  0  0  0  0  0  0  0  0  0  0  0
  -22.5003  -31.2113   24.3763 C   0  0  0  0  0  0  0  0  0  0  0  0
  -23.4703  -32.5364   21.9170 C   0  0  0  0  0  0  0  0  0  0  0  0
  -16.7086  -30.7570   23.7123 C   0  0  0  0  0  0  0  0  0  0  0  0
  -30.2422  -12.7250   20.2200 C   0  0  0  0  0  0  0  0  0  0  0  0
  -27.9959  -25.4652   20.3753 C   0  0  0  0  0  0  0  0  0  0  0  0
  -25.4868  -25.3350   20.7309 C   0  0  0  0  0  0  0  0  0  0  0  0
  -17.5208  -30.6751   22.4238 C   0  0  0  0  0  0  0  0  0  0  0  0
  -28.8620  -12.0757   20.0896 C   0  0  0  0  0  0  0  0  0  0  0  0
  -27.9248  -26.9867   20.4761 C   0  0  0  0  0  0  0  0  0  0  0  0
  -25.4287  -26.8572   20.8293 C   0  0  0  0  0  0  0  0  0  0  0  0
  -26.5321  -18.2793   20.7412 C   0  0  0  0  0  0  0  0  0  0  0  0
  -30.1643  -14.1228   20.8314 C   0  0  0  0  0  0  0  0  0  0  0  0
  -27.1298  -16.9020   20.5019 C   0  0  0  0  0  0  0  0  0  0  0  0
  -28.3758  -18.5238   19.2503 C   0  0  0  0  0  0  0  0  0  0  0  0
  -27.8413  -14.3785   20.0530 C   0  0  0  0  0  0  0  0  0  0  0  0
  -26.6708  -24.8737   19.8624 C   0  0  0  0  0  0  0  0  0  0  0  0
  -26.9604  -19.0718   19.4983 C   0  0  2  0  0  0  0  0  0  0  0  0
  -18.7919  -29.8413   22.6249 C   0  0  1  0  0  0  0  0  0  0  0  0
  -21.6255  -32.1814   23.5882 C   0  0  1  0  0  0  0  0  0  0  0  0
  -27.8729  -13.0083   19.3631 C   0  0  2  0  0  0  0  0  0  0  0  0
  -26.7458  -27.4409   21.3349 C   0  0  0  0  0  0  0  0  0  1  0  0
  -28.4350  -20.5195   21.5619 C   0  0  0  0  0  0  0  0  0  0  0  0
  -25.1838  -23.4496   17.7874 C   0  0  0  0  0  0  0  0  0  0  0  0
  -25.3340  -20.5651   17.6149 C   0  0  0  0  0  0  0  0  0  0  0  0
  -25.5758  -38.7390   22.4068 C   0  0  0  0  0  0  0  0  0  0  0  0
  -20.9622  -34.7589   19.8098 C   0  0  0  0  0  0  0  0  0  0  0  0
  -22.5279  -36.6932   19.5351 C   0  0  0  0  0  0  0  0  0  0  0  0
  -20.7121  -36.7933   21.2426 C   0  0  0  0  0  0  0  0  0  0  0  0
  -26.4888  -35.9398   24.8166 C   0  0  0  0  0  0  0  0  0  0  0  0
  -22.7050  -35.2890   21.6394 C   0  0  1  0  0  0  0  0  0  0  0  0
  -25.3226  -37.5033   23.2564 C   0  0  2  0  0  0  0  0  0  0  0  0
  -21.7366  -35.8580   20.5643 C   0  0  0  0  0  0  0  0  0  0  0  0
  -26.0522  -11.5876   20.2254 N   0  0  0  0  0  0  0  0  0  0  0  0
  -26.4868  -12.4041   19.2505 N   0  0  0  0  0  0  0  0  0  0  0  0
  -22.4069  -33.1041   22.7623 N   0  0  0  0  0  0  0  0  0  0  0  0
  -29.1908  -14.9462   20.1172 N   0  0  0  0  0  0  0  0  0  0  0  0
  -28.3628  -17.1531   19.7683 N   0  0  0  0  0  0  0  0  0  0  0  0
  -25.8599  -13.3817   17.1861 N   0  0  0  0  0  0  0  0  0  0  0  0
  -22.2443  -10.9221   18.3148 N   0  0  0  0  0  0  0  0  0  0  0  0
  -19.8000  -30.6155   23.3167 N   0  0  0  0  0  0  0  0  0  0  0  0
  -23.4318  -36.3085   22.3883 N   0  0  0  0  0  0  0  0  0  0  0  0
  -26.5976  -37.1267   23.9298 N   0  3  0  0  0  0  0  0  0  0  0  0
  -23.1233  -12.3176   16.7216 O   0  0  0  0  0  0  0  0  0  0  0  0
  -20.6985  -31.7104   21.4683 O   0  0  0  0  0  0  0  0  0  0  0  0
  -21.1055  -34.9450   23.3569 O   0  0  0  0  0  0  0  0  0  0  0  0
  -25.5570  -35.5649   21.8335 O   0  0  0  0  0  0  0  0  0  0  0  0
  -30.6222  -16.7113   19.7738 O   0  0  0  0  0  0  0  0  0  0  0  0
  -21.6815   -7.8057   22.8981 O   0  0  0  0  0  0  0  0  0  0  0  0
  -26.6533  -28.8611   21.3068 O   0  0  0  0  0  0  0  0  0  1  0  0
  -19.0178   -3.7405   20.2936 F   0  0  0  0  0  0  0  0  0  0  0  0
  -22.1616   -5.1588   23.5357 F   0  0  0  0  0  0  0  0  0  0  0  0
  1  2  1  0  0  0  0
  1  5  2  0  0  0  0
  2  6  2  0  0  0  0
  3  8  2  0  0  0  0
  3 16  1  0  0  0  0
  4  9  1  0  0  0  0
  4 16  2  0  0  0  0
  5 18  1  0  0  0  0
  6 20  1  0  0  0  0
  7 10  2  0  0  0  0
  7 19  1  0  0  0  0
  8 27  1  0  0  0  0
  9 27  2  0  0  0  0
 10 28  1  0  0  0  0
 11 12  2  0  0  0  0
 11 29  1  0  0  0  0
 12 30  1  0  0  0  0
 13 21  1  0  0  0  0
 13 24  2  0  0  0  0
 14 22  1  0  0  0  0
 14 28  2  0  0  0  0
 15 30  2  0  0  0  0
 15 31  1  0  0  0  0
 16 32  1  0  0  0  0
 17 32  1  0  0  0  0
 17 33  2  0  0  0  0
 17 34  1  0  0  0  0
 18 20  2  0  0  0  0
 18 39  1  0  0  0  0
 19 22  2  0  0  0  0
 19 40  1  0  0  0  0
 20 57  1  0  0  0  0
 21 25  2  0  0  0  0
 21 55  1  0  0  0  0
 22 41  1  0  0  0  0
 23 24  1  0  0  0  0
 23 26  2  0  0  0  0
 23 56  1  0  0  0  0
 24 61  1  0  0  0  0
 25 26  1  0  0  0  0
 25 62  1  0  0  0  0
 26 63  1  0  0  0  0
 27 87  1  0  0  0  0
 28 88  1  0  0  0  0
 29 31  2  0  0  0  0
 29 87  1  0  0  0  0
 30 89  1  0  0  0  0
 31 90  1  0  0  0  0
 32 72  2  0  0  0  0
 33 73  1  0  0  0  0
 33 77  1  0  0  0  0
 34 78  1  0  0  0  0
 34 82  2  0  0  0  0
 35 58  1  0  0  0  0
 35 79  1  0  0  0  0
 35 83  2  0  0  0  0
 36 69  1  0  0  0  0
 36 74  1  0  0  0  0
 36 84  2  0  0  0  0
 37 70  1  0  0  0  0
 37 80  1  0  0  0  0
 37 85  2  0  0  0  0
 38 75  1  0  0  0  0
 38 76  1  0  0  0  0
 38 86  2  0  0  0  0
 39 42  1  0  0  0  0
 40 58  1  0  0  0  0
 41 74  1  0  0  0  0
 42 46  1  0  0  0  0
 43 47  1  0  0  0  0
 43 51  1  0  0  0  0
 44 48  1  0  0  0  0
 44 55  1  0  0  0  0
 45 49  1  0  0  0  0
 45 55  1  0  0  0  0
 46 57  1  0  0  0  0
 47 59  1  0  0  0  0
 48 60  1  0  0  0  0
 49 60  1  0  0  0  0
 50 52  1  0  0  0  0
 50 56  1  0  0  0  0
 51 75  1  0  0  0  0
 52 76  1  0  0  0  0
 53 56  1  0  0  0  0
 53 76  1  0  0  0  0
 54 59  1  0  0  0  0
 54 75  1  0  0  0  0
 57 79  1  0  0  0  0
 58 74  1  0  0  0  0
 59 73  1  0  0  0  0
 60 88  1  0  0  0  0
 64 70  1  0  0  0  0
 65 71  1  0  0  0  0
 66 71  1  0  0  0  0
 67 71  1  0  0  0  0
 68 81  1  0  0  0  0
 69 71  1  0  0  0  0
 69 80  1  0  0  0  0
 70 81  1  0  0  0  0
 72 73  1  0  0  0  0
M  CHG  1  81   1
M  ISO  4  38 100  60 101  76 100  88 101
M  END
> <Batch ID>
0161

> <Smiles>
CNC(C)C(=O)NC(C(=O)N1Cc2cc([101O:1][101CH:1]3CCC(c4cc(C)c(C5CC[100N:0]([100C:0](=O)N6CCCC(n7nc(-c8ccc(Oc9ccc(F)cc9F)cc8)c(C(N)=O)c7N)C6)C5)c(C)c4C)CC3)ccc2CC1C(=O)NC1CCCc2ccccc21)C(C)(C)C

> <Shape>
0.270

> <Color>
0.114

> <Negative vol penalty>
0.000

$$$$

  -OEChem-04052322123D

 96107  0     1  0  0  0  0  0999 V2000
  -17.0084  -25.6311   24.1913 C   0  0  0  0  0  0  0  0  0  0  0  0
  -18.1764  -25.3534   23.4884 C   0  0  0  0  0  0  0  0  0  0  0  0
  -23.6188  -13.7927   18.1165 C   0  0  0  0  0  0  0  0  0  0  0  0
  -22.5827  -15.8583   18.8216 C   0  0  0  0  0  0  0  0  0  0  0  0
  -16.5858  -26.9508   24.3453 C   0  0  0  0  0  0  0  0  0  0  0  0
  -18.9220  -26.3954   22.9381 C   0  0  0  0  0  0  0  0  0  0  0  0
  -23.8899  -25.8830   23.7765 C   0  0  0  0  0  0  0  0  0  0  0  0
  -22.8845  -13.8290   16.9311 C   0  0  0  0  0  0  0  0  0  0  0  0
  -21.8484  -15.8946   17.6363 C   0  0  0  0  0  0  0  0  0  0  0  0
  -24.5805  -24.9751   22.9750 C   0  0  0  0  0  0  0  0  0  0  0  0
  -19.7365  -13.1146   15.9288 C   0  0  0  0  0  0  0  0  0  0  0  0
  -19.1282  -11.9322   15.5077 C   0  0  0  0  0  0  0  0  0  0  0  0
  -25.3748  -26.7963   21.6069 C   0  0  0  0  0  0  0  0  0  0  0  0
  -20.4050  -12.0052   13.4580 C   0  0  0  0  0  0  0  0  0  0  0  0
  -23.4679  -14.8073   19.0618 C   0  0  0  0  0  0  0  0  0  0  0  0
  -24.1998  -13.7650   21.2721 C   0  0  0  0  0  0  0  0  0  0  0  0
  -17.3318  -28.0101   23.8049 C   0  0  0  0  0  0  0  0  0  0  0  0
  -23.9277  -27.2556   23.4923 C   0  0  0  0  0  0  0  0  0  0  0  0
  -18.5084  -27.7304   23.0839 C   0  0  0  0  0  0  0  0  0  0  0  0
  -24.6859  -27.7198   22.4079 C   0  0  0  0  0  0  0  0  0  0  0  0
  -28.9074  -21.8388   19.5151 C   0  0  0  0  0  0  0  0  0  0  0  0
  -28.3005  -20.8416   18.7176 C   0  0  0  0  0  0  0  0  0  0  0  0
  -31.1790  -21.0028   19.8141 C   0  0  0  0  0  0  0  0  0  0  0  0
  -32.3052  -21.0291   20.6923 C   0  0  0  0  0  0  0  0  0  0  0  0
  -28.1025  -22.5869   20.3980 C   0  0  0  0  0  0  0  0  0  0  0  0
  -26.9117  -20.6289   18.8382 C   0  0  0  0  0  0  0  0  0  0  0  0
  -26.1354  -21.3793   19.7199 C   0  0  0  0  0  0  0  0  0  0  0  0
  -26.7316  -22.3581   20.5020 C   0  0  0  0  0  0  0  0  0  0  0  0
  -21.9993  -14.8800   16.6910 C   0  0  0  0  0  0  0  0  0  0  0  0
  -25.3208  -25.4314   21.8883 C   0  0  0  0  0  0  0  0  0  0  0  0
  -20.6791  -13.7425   15.1145 C   0  0  0  0  0  0  0  0  0  0  0  0
  -19.4624  -11.3775   14.2724 C   0  0  0  0  0  0  0  0  0  0  0  0
  -21.0134  -13.1877   13.8791 C   0  0  0  0  0  0  0  0  0  0  0  0
  -24.2257  -14.7700   20.2867 C   0  0  0  0  0  0  0  0  0  0  0  0
  -31.0484  -19.6900   19.3820 C   0  0  0  0  0  0  0  0  0  0  0  0
  -32.8143  -19.7554   20.7730 C   0  0  0  0  0  0  0  0  0  0  0  0
  -25.0896  -14.1960   22.2255 C   0  0  0  0  0  0  0  0  0  0  0  0
  -23.4394  -12.5505   21.3213 C   0  0  0  0  0  0  0  0  0  0  0  0
  -21.7600  -29.4450   22.7102 C   0  0  0  0  0  0  0  0  0  0  0  0
  -24.2730  -31.4748   23.0056 C   0  0  0  0  0  0  0  0  0  0  0  0
  -27.6556  -31.9242   22.9563 C   0  0  0  0  0  0  0  0  0  0  0  0
  -29.8368  -17.8393   22.0220 C   0  0  0  0  0  0  0  0  0  0  0  0
  -30.3714  -22.1965   19.4369 C   0  0  0  0  0  0  0  0  0  0  0  0
  -16.8100  -29.4170   23.9568 C   0  0  0  0  0  0  0  0  0  0  0  0
  -23.1989  -28.2246   24.3824 C   0  0  0  0  0  0  0  0  0  0  0  0
  -24.7753  -29.1853   22.0723 C   0  0  0  0  0  0  0  0  0  0  0  0
  -30.0553  -19.0140   18.4937 C   0  0  0  0  0  0  0  0  0  0  0  0
  -17.8561  -30.4895   23.6641 C   0  0  0  0  0  0  0  0  0  0  0  0
  -26.9500  -18.1971   24.0751 C   0  0  0  0  0  0  0  0  0  0  0  0
  -33.2468  -23.4757   20.6172 C   0  0  0  0  0  0  0  0  0  0  0  0
  -34.3143  -22.6255   21.2320 C   0  0  0  0  0  0  0  0  0  0  0  0
  -18.6058  -30.1665   22.3755 C   0  0  0  0  0  0  0  0  0  0  0  0
  -25.9221  -17.2687   23.4259 C   0  0  0  0  0  0  0  0  0  0  0  0
  -27.8297  -18.8825   23.0318 C   0  0  0  0  0  0  0  0  0  0  0  0
  -27.4675  -17.0393   21.4365 C   0  0  0  0  0  0  0  0  0  0  0  0
  -32.8563  -22.2499   21.4220 C   0  0  0  0  0  0  0  0  0  0  0  0
  -29.0706  -19.9407   17.7616 C   0  0  2  0  0  0  0  0  0  0  0  0
  -19.3575  -28.8352   22.4936 C   0  0  1  0  0  0  0  0  0  0  0  0
  -22.8898  -29.5511   23.6951 C   0  0  1  0  0  0  0  0  0  0  0  0
  -26.5938  -16.2825   22.4514 C   0  0  2  0  0  0  0  0  0  0  0  0
  -28.6956  -23.6713   21.2531 C   0  0  0  0  0  0  0  0  0  0  0  0
  -26.1664  -19.6370   17.9979 C   0  0  0  0  0  0  0  0  0  0  0  0
  -24.6611  -21.1458   19.8235 C   0  0  0  0  0  0  0  0  0  0  0  0
  -33.9641  -19.2344   21.5415 C   0  0  0  0  0  0  0  0  0  0  0  0
  -29.7018  -20.6714   16.5723 C   0  0  0  0  0  0  0  0  0  0  0  0
  -29.4102  -33.7026   23.1931 C   0  0  0  0  0  0  0  0  0  0  0  0
  -23.6317  -32.4783   20.1963 C   0  0  0  0  0  0  0  0  0  0  0  0
  -25.9091  -33.5158   20.1225 C   0  0  0  0  0  0  0  0  0  0  0  0
  -24.2517  -34.2696   21.8277 C   0  0  0  0  0  0  0  0  0  0  0  0
  -28.8570  -30.5888   25.3083 C   0  0  0  0  0  0  0  0  0  0  0  0
  -25.9028  -23.1676   21.4492 C   0  0  0  0  0  0  0  0  0  1  0  0
  -32.2683  -17.5336   19.7813 C   0  0  0  0  0  0  0  0  0  0  0  0
  -31.7486  -16.6855   20.9391 C   0  0  0  0  0  0  0  0  0  0  0  0
  -25.3383  -32.0000   22.0738 C   0  0  1  0  0  0  0  0  0  0  0  0
  -28.5904  -32.6428   23.9125 C   0  0  2  0  0  0  0  0  0  0  0  0
  -24.7797  -33.0380   21.0600 C   0  0  0  0  0  0  0  0  0  0  0  0
  -25.0654  -15.7646   20.5864 N   0  0  0  0  0  0  0  0  0  0  0  0
  -32.0476  -18.9536   19.9757 N   0  0  0  0  0  0  0  0  0  0  0  0
  -25.5753  -15.3867   21.7710 N   0  0  0  0  0  0  0  0  0  0  0  0
  -24.0401  -30.0927   22.9687 N   0  0  0  0  0  0  0  0  0  0  0  0
  -28.4381  -17.8919   22.1405 N   0  0  0  0  0  0  0  0  0  0  0  0
  -25.4962  -13.6688   23.3999 N   0  0  0  0  0  0  0  0  0  0  0  0
  -22.1749  -12.5779   21.9253 N   0  0  0  0  0  0  0  0  0  0  0  0
  -20.5716  -29.0068   23.2624 N   0  0  0  0  0  0  0  0  0  0  0  0
  -26.4083  -32.5110   22.9238 N   0  0  0  0  0  0  0  0  0  0  0  0
  -30.3314  -16.8672   21.1612 N   0  0  0  0  0  0  0  0  0  0  0  0
  -29.5280  -31.6735   24.5467 N   0  3  0  0  0  0  0  0  0  0  0  0
  -23.8753  -11.4693   20.8583 O   0  0  0  0  0  0  0  0  0  0  0  0
  -21.9520  -29.7404   21.5365 O   0  0  0  0  0  0  0  0  0  0  0  0
  -23.6746  -32.2609   23.7443 O   0  0  0  0  0  0  0  0  0  0  0  0
  -27.9989  -30.9429   22.3007 O   0  0  0  0  0  0  0  0  0  0  0  0
  -30.5892  -18.5987   22.6418 O   0  0  0  0  0  0  0  0  0  0  0  0
  -21.2828  -14.9159   15.5343 O   0  0  0  0  0  0  0  0  0  0  0  0
  -26.0004  -24.5406   21.0980 O   0  0  0  0  0  0  0  0  0  1  0  0
  -18.8793  -10.2412   13.8688 F   0  0  0  0  0  0  0  0  0  0  0  0
  -21.9191  -13.7856   13.0930 F   0  0  0  0  0  0  0  0  0  0  0  0
  1  2  1  0  0  0  0
  1  5  2  0  0  0  0
  2  6  2  0  0  0  0
  3  8  2  0  0  0  0
  3 15  1  0  0  0  0
  4  9  1  0  0  0  0
  4 15  2  0  0  0  0
  5 17  1  0  0  0  0
  6 19  1  0  0  0  0
  7 10  2  0  0  0  0
  7 18  1  0  0  0  0
  8 29  1  0  0  0  0
  9 29  2  0  0  0  0
 10 30  1  0  0  0  0
 11 12  2  0  0  0  0
 11 31  1  0  0  0  0
 12 32  1  0  0  0  0
 13 20  1  0  0  0  0
 13 30  2  0  0  0  0
 14 32  2  0  0  0  0
 14 33  1  0  0  0  0
 15 34  1  0  0  0  0
 16 34  1  0  0  0  0
 16 37  2  0  0  0  0
 16 38  1  0  0  0  0
 17 19  2  0  0  0  0
 17 44  1  0  0  0  0
 18 20  2  0  0  0  0
 18 45  1  0  0  0  0
 19 58  1  0  0  0  0
 20 46  1  0  0  0  0
 21 22  2  0  0  0  0
 21 25  1  0  0  0  0
 21 43  1  0  0  0  0
 22 26  1  0  0  0  0
 22 57  1  0  0  0  0
 23 24  1  0  0  0  0
 23 35  2  0  0  0  0
 23 43  1  0  0  0  0
 24 36  2  0  0  0  0
 24 56  1  0  0  0  0
 25 28  2  0  0  0  0
 25 61  1  0  0  0  0
 26 27  2  0  0  0  0
 26 62  1  0  0  0  0
 27 28  1  0  0  0  0
 27 63  1  0  0  0  0
 28 71  1  0  0  0  0
 29 93  1  0  0  0  0
 30 94  1  0  0  0  0
 31 33  2  0  0  0  0
 31 93  1  0  0  0  0
 32 95  1  0  0  0  0
 33 96  1  0  0  0  0
 34 77  2  0  0  0  0
 35 47  1  0  0  0  0
 35 78  1  0  0  0  0
 36 64  1  0  0  0  0
 36 78  1  0  0  0  0
 37 79  1  0  0  0  0
 37 82  1  0  0  0  0
 38 83  1  0  0  0  0
 38 88  2  0  0  0  0
 39 59  1  0  0  0  0
 39 84  1  0  0  0  0
 39 89  2  0  0  0  0
 40 74  1  0  0  0  0
 40 80  1  0  0  0  0
 40 90  2  0  0  0  0
 41 75  1  0  0  0  0
 41 85  1  0  0  0  0
 41 91  2  0  0  0  0
 42 81  1  0  0  0  0
 42 86  1  0  0  0  0
 42 92  2  0  0  0  0
 44 48  1  0  0  0  0
 45 59  1  0  0  0  0
 46 80  1  0  0  0  0
 47 57  1  0  0  0  0
 48 52  1  0  0  0  0
 49 53  1  0  0  0  0
 49 54  1  0  0  0  0
 50 51  1  0  0  0  0
 50 56  1  0  0  0  0
 51 56  1  0  0  0  0
 52 58  1  0  0  0  0
 53 60  1  0  0  0  0
 54 81  1  0  0  0  0
 55 60  1  0  0  0  0
 55 81  1  0  0  0  0
 57 65  1  0  0  0  0
 58 84  1  0  0  0  0
 59 80  1  0  0  0  0
 60 79  1  0  0  0  0
 66 75  1  0  0  0  0
 67 76  1  0  0  0  0
 68 76  1  0  0  0  0
 69 76  1  0  0  0  0
 70 87  1  0  0  0  0
 71 94  1  0  0  0  0
 72 73  1  0  0  0  0
 72 78  1  0  0  0  0
 73 86  1  0  0  0  0
 74 76  1  0  0  0  0
 74 85  1  0  0  0  0
 75 87  1  0  0  0  0
 77 79  1  0  0  0  0
M  CHG  1  87   1
M  ISO  4  42 100  71 101  86 100  94 101
M  END
> <Batch ID>
0161

> <Smiles>
CNC(C)C(=O)NC(C(=O)N1Cc2cc([101O:1][101CH2:1]c3c(C)c(C)c4c(c3C)Cc3c(C5CC5)c(C)n(CC[100NH:0][100C:0](=O)N5CCCC(n6nc(-c7ccc(Oc8ccc(F)cc8F)cc7)c(C(N)=O)c6N)C5)c3CC4C)ccc2CC1C(=O)NC1CCCc2ccccc21)C(C)(C)C

> <Shape>
0.204

> <Color>
0.069

> <Negative vol penalty>
0.000

$$$$

  -OEChem-04052322123D

 93102  0     1  0  0  0  0  0999 V2000
  -21.7613  -11.6083   19.5419 C   0  0  0  0  0  0  0  0  0  0  0  0
  -21.5148  -12.6119   20.4733 C   0  0  0  0  0  0  0  0  0  0  0  0
  -25.9902  -23.4965   26.5349 C   0  0  0  0  0  0  0  0  0  0  0  0
  -27.3522  -21.5205   26.2569 C   0  0  0  0  0  0  0  0  0  0  0  0
  -23.0732  -11.2840   19.1990 C   0  0  0  0  0  0  0  0  0  0  0  0
  -22.5803  -13.2910   21.0632 C   0  0  0  0  0  0  0  0  0  0  0  0
  -23.2142  -20.4406   20.4534 C   0  0  0  0  0  0  0  0  0  0  0  0
  -24.9455  -22.7086   27.0178 C   0  0  0  0  0  0  0  0  0  0  0  0
  -26.3075  -20.7325   26.7399 C   0  0  0  0  0  0  0  0  0  0  0  0
  -23.2910  -21.8295   20.5600 C   0  0  0  0  0  0  0  0  0  0  0  0
  -21.7931  -21.1761   27.9861 C   0  0  0  0  0  0  0  0  0  0  0  0
  -20.5103  -21.4282   27.4999 C   0  0  0  0  0  0  0  0  0  0  0  0
  -25.3725  -21.6318   21.7750 C   0  0  0  0  0  0  0  0  0  0  0  0
  -21.2654  -20.9441   25.2566 C   0  0  0  0  0  0  0  0  0  0  0  0
  -27.1936  -22.9025   26.1543 C   0  0  0  0  0  0  0  0  0  0  0  0
  -29.3006  -24.3185   26.4047 C   0  0  0  0  0  0  0  0  0  0  0  0
  -24.1551  -11.9661   19.7778 C   0  0  0  0  0  0  0  0  0  0  0  0
  -24.2253  -19.6417   20.9944 C   0  0  0  0  0  0  0  0  0  0  0  0
  -23.9080  -12.9746   20.7288 C   0  0  0  0  0  0  0  0  0  0  0  0
  -25.3073  -20.2406   21.6604 C   0  0  0  0  0  0  0  0  0  0  0  0
  -19.9921  -27.4583   21.9327 C   0  0  0  0  0  0  0  0  0  0  0  0
  -20.3595  -28.7140   21.4489 C   0  0  0  0  0  0  0  0  0  0  0  0
  -20.9690  -26.4953   22.1858 C   0  0  0  0  0  0  0  0  0  0  0  0
  -21.7036  -29.0066   21.2181 C   0  0  0  0  0  0  0  0  0  0  0  0
  -22.3132  -26.7879   21.9550 C   0  0  0  0  0  0  0  0  0  0  0  0
  -25.1041  -21.3265   27.1204 C   0  0  0  0  0  0  0  0  0  0  0  0
  -24.3673  -22.4235   21.2194 C   0  0  0  0  0  0  0  0  0  0  0  0
  -22.8121  -20.8081   27.1075 C   0  0  0  0  0  0  0  0  0  0  0  0
  -22.6805  -28.0435   21.4712 C   0  0  0  0  0  0  0  0  0  0  0  0
  -20.2464  -21.3122   26.1352 C   0  0  0  0  0  0  0  0  0  0  0  0
  -22.5482  -20.6921   25.7428 C   0  0  0  0  0  0  0  0  0  0  0  0
  -28.2729  -23.7159   25.6548 C   0  0  0  0  0  0  0  0  0  0  0  0
  -30.0657  -24.9759   25.4725 C   0  0  0  0  0  0  0  0  0  0  0  0
  -29.5422  -24.2868   27.8176 C   0  0  0  0  0  0  0  0  0  0  0  0
  -25.5509  -16.1779   21.5607 C   0  0  0  0  0  0  0  0  0  0  0  0
  -27.9554  -17.9483   20.8575 C   0  0  0  0  0  0  0  0  0  0  0  0
  -30.2685  -20.1393   19.6383 C   0  0  0  0  0  0  0  0  0  0  0  0
  -28.6276  -26.9841   20.0723 C   0  0  0  0  0  0  0  0  0  0  0  0
  -25.5569  -11.5480   19.4109 C   0  0  0  0  0  0  0  0  0  0  0  0
  -24.1527  -18.1394   20.9569 C   0  0  0  0  0  0  0  0  0  0  0  0
  -26.3542  -19.3402   22.2572 C   0  0  0  0  0  0  0  0  0  0  0  0
  -26.6199  -12.5711   19.8028 C   0  0  0  0  0  0  0  0  0  0  0  0
  -31.2886  -24.6792   20.9291 C   0  0  0  0  0  0  0  0  0  0  0  0
  -26.3951  -13.0536   21.2324 C   0  0  0  0  0  0  0  0  0  0  0  0
  -30.8994  -24.2290   22.3366 C   0  0  0  0  0  0  0  0  0  0  0  0
  -25.0333  -26.5916   19.9692 C   0  0  0  0  0  0  0  0  0  0  0  0
  -30.0639  -24.9205   20.0519 C   0  0  0  0  0  0  0  0  0  0  0  0
  -26.2854  -26.4527   20.8272 C   0  0  0  0  0  0  0  0  0  0  0  0
  -28.6917  -25.4194   22.0471 C   0  0  0  0  0  0  0  0  0  0  0  0
  -25.0365  -13.7508   21.3721 C   0  0  1  0  0  0  0  0  0  0  0  0
  -25.5312  -17.4723   20.8020 C   0  0  1  0  0  0  0  0  0  0  0  0
  -25.6421  -29.0184   19.5554 C   0  0  1  0  0  0  0  0  0  0  0  0
  -29.9018  -25.2143   22.9698 C   0  0  1  0  0  0  0  0  0  0  0  0
  -26.9320  -28.8241   20.4050 C   0  0  1  0  0  0  0  0  0  0  0  0
  -24.5006  -28.0362   19.9405 C   0  0  1  0  0  0  0  0  0  0  0  0
  -18.5501  -27.1443   22.1795 C   0  0  0  0  0  0  0  0  0  0  0  0
  -19.3120  -29.7474   21.1770 C   0  0  0  0  0  0  0  0  0  0  0  0
  -20.5756  -25.1485   22.7058 C   0  0  0  0  0  0  0  0  0  0  0  0
  -22.1041  -30.3512   20.6996 C   0  0  0  0  0  0  0  0  0  0  0  0
  -25.2087  -30.4907   19.5353 C   0  0  0  0  0  0  0  0  0  0  0  0
  -26.8823  -29.4006   21.8264 C   0  0  0  0  0  0  0  0  0  0  0  0
  -23.3173  -28.1086   18.9655 C   0  0  0  0  0  0  0  0  0  0  0  0
  -23.4169  -25.3638   23.7115 C   0  0  0  0  0  0  0  0  0  0  0  0
  -32.6997  -20.3062   19.0394 C   0  0  0  0  0  0  0  0  0  0  0  0
  -28.6693  -18.1176   23.8182 C   0  0  0  0  0  0  0  0  0  0  0  0
  -30.8287  -19.2019   23.1627 C   0  0  0  0  0  0  0  0  0  0  0  0
  -30.3255  -16.8760   22.4147 C   0  0  0  0  0  0  0  0  0  0  0  0
  -29.6491  -20.7476   16.8090 C   0  0  0  0  0  0  0  0  0  0  0  0
  -23.2031  -24.4941   21.3537 C   0  0  0  0  0  0  0  0  0  1  0  0
  -23.3657  -25.7595   22.2237 C   0  0  1  0  0  0  0  0  0  0  0  0
  -29.0823  -18.8115   21.3659 C   0  0  1  0  0  0  0  0  0  0  0  0
  -31.2985  -20.0046   18.5313 C   0  0  2  0  0  0  0  0  0  0  0  0
  -29.7016  -18.2630   22.6823 C   0  0  0  0  0  0  0  0  0  0  0  0
  -28.3729  -23.9682   24.3470 N   0  0  0  0  0  0  0  0  0  0  0  0
  -29.4726  -24.7367   24.2679 N   0  0  0  0  0  0  0  0  0  0  0  0
  -26.6694  -18.2482   21.3230 N   0  0  0  0  0  0  0  0  0  0  0  0
  -29.1091  -25.8217   20.6967 N   0  0  0  0  0  0  0  0  0  0  0  0
  -27.3292  -27.4028   20.4222 N   0  0  0  0  0  0  0  0  0  0  0  0
  -31.1811  -25.7296   25.5739 N   0  0  0  0  0  0  0  0  0  0  0  0
  -28.6584  -23.5641   28.6306 N   0  0  0  0  0  0  0  0  0  0  0  0
  -25.0995  -15.0928   20.8339 N   0  0  0  0  0  0  0  0  0  0  0  0
  -30.0314  -18.9340   20.2647 N   0  0  0  0  0  0  0  0  0  0  0  0
  -30.9892  -20.9466   17.4187 N   0  3  0  0  0  0  0  0  0  0  0  0
  -30.5038  -24.8952   28.3456 O   0  0  0  0  0  0  0  0  0  0  0  0
  -25.9478  -16.1631   22.7200 O   0  0  0  0  0  0  0  0  0  0  0  0
  -28.2065  -17.0288   20.0734 O   0  0  0  0  0  0  0  0  0  0  0  0
  -29.7311  -21.2076   19.9218 O   0  0  0  0  0  0  0  0  0  0  0  0
  -29.3159  -27.6073   19.2543 O   0  0  0  0  0  0  0  0  0  0  0  0
  -24.0850  -20.5574   27.5919 O   0  0  0  0  0  0  0  0  0  0  0  0
  -23.9978  -28.3309   21.2455 O   0  0  0  0  0  0  0  0  0  0  0  0
  -24.4388  -23.7891   21.3165 O   0  0  0  0  0  0  0  0  0  1  0  0
  -19.0141  -21.5528   25.6686 F   0  0  0  0  0  0  0  0  0  0  0  0
  -23.5228  -20.3377   24.8940 F   0  0  0  0  0  0  0  0  0  0  0  0
  1  2  1  0  0  0  0
  1  5  2  0  0  0  0
  2  6  2  0  0  0  0
  3  8  2  0  0  0  0
  3 15  1  0  0  0  0
  4  9  1  0  0  0  0
  4 15  2  0  0  0  0
  5 17  1  0  0  0  0
  6 19  1  0  0  0  0
  7 10  2  0  0  0  0
  7 18  1  0  0  0  0
  8 26  1  0  0  0  0
  9 26  2  0  0  0  0
 10 27  1  0  0  0  0
 11 12  2  0  0  0  0
 11 28  1  0  0  0  0
 12 30  1  0  0  0  0
 13 20  1  0  0  0  0
 13 27  2  0  0  0  0
 14 30  2  0  0  0  0
 14 31  1  0  0  0  0
 15 32  1  0  0  0  0
 16 32  1  0  0  0  0
 16 33  2  0  0  0  0
 16 34  1  0  0  0  0
 17 19  2  0  0  0  0
 17 39  1  0  0  0  0
 18 20  2  0  0  0  0
 18 40  1  0  0  0  0
 19 50  1  0  0  0  0
 20 41  1  0  0  0  0
 21 22  1  0  0  0  0
 21 23  2  0  0  0  0
 21 56  1  0  0  0  0
 22 24  2  0  0  0  0
 22 57  1  0  0  0  0
 23 25  1  0  0  0  0
 23 58  1  0  0  0  0
 24 29  1  0  0  0  0
 24 59  1  0  0  0  0
 25 29  2  0  0  0  0
 25 70  1  0  0  0  0
 26 89  1  0  0  0  0
 27 91  1  0  0  0  0
 28 31  2  0  0  0  0
 28 89  1  0  0  0  0
 29 90  1  0  0  0  0
 30 92  1  0  0  0  0
 31 93  1  0  0  0  0
 32 74  2  0  0  0  0
 33 75  1  0  0  0  0
 33 79  1  0  0  0  0
 34 80  1  0  0  0  0
 34 84  2  0  0  0  0
 35 51  1  0  0  0  0
 35 81  1  0  0  0  0
 35 85  2  0  0  0  0
 36 71  1  0  0  0  0
 36 76  1  0  0  0  0
 36 86  2  0  0  0  0
 37 72  1  0  0  0  0
 37 82  1  0  0  0  0
 37 87  2  0  0  0  0
 38 77  1  0  0  0  0
 38 78  1  0  0  0  0
 38 88  2  0  0  0  0
 39 42  1  0  0  0  0
 40 51  1  0  0  0  0
 41 76  1  0  0  0  0
 42 44  1  0  0  0  0
 43 45  1  0  0  0  0
 43 47  1  0  0  0  0
 44 50  1  0  0  0  0
 45 53  1  0  0  0  0
 46 48  1  0  0  0  0
 46 55  1  0  0  0  0
 47 77  1  0  0  0  0
 48 78  1  0  0  0  0
 49 53  1  0  0  0  0
 49 77  1  0  0  0  0
 50 81  1  0  0  0  0
 51 76  1  0  0  0  0
 52 54  1  0  0  0  0
 52 55  1  0  0  0  0
 52 60  1  0  0  0  0
 53 75  1  0  0  0  0
 54 61  1  0  0  0  0
 54 78  1  0  0  0  0
 55 62  1  0  0  0  0
 55 90  1  0  0  0  0
 63 70  1  0  0  0  0
 64 72  1  0  0  0  0
 65 73  1  0  0  0  0
 66 73  1  0  0  0  0
 67 73  1  0  0  0  0
 68 83  1  0  0  0  0
 69 70  1  0  0  0  0
 69 91  1  0  0  0  0
 71 73  1  0  0  0  0
 71 82  1  0  0  0  0
 72 83  1  0  0  0  0
 74 75  1  0  0  0  0
M  CHG  1  83   1
M  ISO  4  38 100  69 101  78 100  91 101
M  END
> <Batch ID>
0161

> <Smiles>
CNC(C)C(=O)NC(C(=O)N1Cc2cc([101O:1][101CH2:1]C(C)c3c(C)c(C)c(C)c(C)c3OC3(C)CC[100N:0]([100C:0](=O)N4CCCC(n5nc(-c6ccc(Oc7ccc(F)cc7F)cc6)c(C(N)=O)c5N)C4)C(C)C3C)ccc2CC1C(=O)NC1CCCc2ccccc21)C(C)(C)C

> <Shape>
0.188

> <Color>
0.058

> <Negative vol penalty>
0.000

$$$$

  -OEChem-04052322123D

 85 94  0     1  0  0  0  0  0999 V2000
  -20.5193  -13.4765   21.8321 C   0  0  0  0  0  0  0  0  0  0  0  0
  -20.3508  -14.7813   22.2842 C   0  0  0  0  0  0  0  0  0  0  0  0
  -30.6155  -18.0592   21.4561 C   0  0  0  0  0  0  0  0  0  0  0  0
  -29.3004  -17.7057   19.4604 C   0  0  0  0  0  0  0  0  0  0  0  0
  -21.5209  -13.1843   20.9072 C   0  0  0  0  0  0  0  0  0  0  0  0
  -21.1845  -15.7946   21.8125 C   0  0  0  0  0  0  0  0  0  0  0  0
  -21.1383  -22.7835   20.2411 C   0  0  0  0  0  0  0  0  0  0  0  0
  -31.1209  -16.7632   21.3526 C   0  0  0  0  0  0  0  0  0  0  0  0
  -29.8058  -16.4098   19.3569 C   0  0  0  0  0  0  0  0  0  0  0  0
  -21.8435  -23.9542   20.5170 C   0  0  0  0  0  0  0  0  0  0  0  0
  -29.2560  -13.3991   20.7937 C   0  0  0  0  0  0  0  0  0  0  0  0
  -28.3544  -12.3723   20.5139 C   0  0  0  0  0  0  0  0  0  0  0  0
  -25.5677  -29.3150   19.8585 C   0  0  0  0  0  0  0  0  0  0  0  0
  -26.6667  -26.8273   20.6266 C   0  0  0  0  0  0  0  0  0  0  0  0
  -23.4885  -23.3464   18.8605 C   0  0  0  0  0  0  0  0  0  0  0  0
  -29.5698  -11.8566   18.4905 C   0  0  0  0  0  0  0  0  0  0  0  0
  -29.7052  -18.5304   20.5100 C   0  0  0  0  0  0  0  0  0  0  0  0
  -28.4438  -20.4102   21.6860 C   0  0  0  0  0  0  0  0  0  0  0  0
  -22.3611  -14.1963   20.4166 C   0  0  0  0  0  0  0  0  0  0  0  0
  -21.6096  -21.8787   19.2790 C   0  0  0  0  0  0  0  0  0  0  0  0
  -22.1991  -15.5155   20.8812 C   0  0  0  0  0  0  0  0  0  0  0  0
  -26.6829  -29.2493   20.6780 C   0  0  0  0  0  0  0  0  0  0  0  0
  -27.2347  -28.0173   21.0589 C   0  0  0  0  0  0  0  0  0  0  0  0
  -22.7861  -22.1662   18.5726 C   0  0  0  0  0  0  0  0  0  0  0  0
  -24.9895  -28.1197   19.4285 C   0  0  0  0  0  0  0  0  0  0  0  0
  -25.5347  -26.8846   19.8102 C   0  0  0  0  0  0  0  0  0  0  0  0
  -30.7161  -15.9385   20.3030 C   0  0  0  0  0  0  0  0  0  0  0  0
  -23.0203  -24.2344   19.8287 C   0  0  0  0  0  0  0  0  0  0  0  0
  -30.3145  -13.6547   19.9219 C   0  0  0  0  0  0  0  0  0  0  0  0
  -28.5113  -11.6010   19.3623 C   0  0  0  0  0  0  0  0  0  0  0  0
  -30.4714  -12.8835   18.7703 C   0  0  0  0  0  0  0  0  0  0  0  0
  -29.1823  -19.8688   20.6167 C   0  0  0  0  0  0  0  0  0  0  0  0
  -28.1869  -21.7046   21.3052 C   0  0  0  0  0  0  0  0  0  0  0  0
  -28.0274  -19.7979   22.9138 C   0  0  0  0  0  0  0  0  0  0  0  0
  -22.5677  -18.8483   19.3290 C   0  0  0  0  0  0  0  0  0  0  0  0
  -22.6875  -19.2404   16.1112 C   0  0  0  0  0  0  0  0  0  0  0  0
  -22.9779  -21.3709   13.4609 C   0  0  0  0  0  0  0  0  0  0  0  0
  -29.8598  -26.5548   19.1093 C   0  0  0  0  0  0  0  0  0  0  0  0
  -23.4603  -13.8238   19.4534 C   0  0  0  0  0  0  0  0  0  0  0  0
  -20.8231  -20.6333   18.9742 C   0  0  0  0  0  0  0  0  0  0  0  0
  -27.4797  -30.3915   21.2240 C   0  0  0  0  0  0  0  0  0  0  0  0
  -23.3236  -21.2373   17.5158 C   0  0  0  0  0  0  0  0  0  0  0  0
  -24.0591  -15.0212   18.7200 C   0  0  0  0  0  0  0  0  0  0  0  0
  -28.2554  -29.6964   22.3533 C   0  0  0  0  0  0  0  0  0  0  0  0
  -28.8152  -24.0113   16.8475 C   0  0  0  0  0  0  0  0  0  0  0  0
  -24.3529  -16.1541   19.6983 C   0  0  0  0  0  0  0  0  0  0  0  0
  -28.7629  -22.7511   17.7131 C   0  0  0  0  0  0  0  0  0  0  0  0
  -29.9723  -24.9236   17.2484 C   0  0  0  0  0  0  0  0  0  0  0  0
  -29.9568  -24.0253   19.5433 C   0  0  0  0  0  0  0  0  0  0  0  0
  -23.0676  -16.6465   20.3743 C   0  0  1  0  0  0  0  0  0  0  0  0
  -21.6682  -19.5333   18.3393 C   0  0  1  0  0  0  0  0  0  0  0  0
  -28.7726  -23.1006   19.2134 C   0  0  2  0  0  0  0  0  0  0  0  0
  -28.4618  -28.2209   21.9173 C   0  0  1  0  0  0  0  0  0  0  0  0
  -23.7755  -28.1803   18.5588 C   0  0  0  0  0  0  0  0  0  0  0  0
  -29.7394  -27.5337   23.9493 C   0  0  0  0  0  0  0  0  0  0  0  0
  -23.0807  -21.3935   10.9537 C   0  0  0  0  0  0  0  0  0  0  0  0
  -25.5696  -18.2450   16.2228 C   0  0  0  0  0  0  0  0  0  0  0  0
  -25.9060  -19.1738   13.9223 C   0  0  0  0  0  0  0  0  0  0  0  0
  -24.2344  -17.3615   14.3015 C   0  0  0  0  0  0  0  0  0  0  0  0
  -20.5324  -23.0255   13.2599 C   0  0  0  0  0  0  0  0  0  0  0  0
  -24.9087  -25.5998   19.3537 C   0  0  0  0  0  0  0  0  0  1  0  0
  -28.5131  -27.2954   23.1355 C   0  0  0  0  0  0  0  0  0  0  0  0
  -29.7357  -28.0627   21.0766 C   0  0  0  0  0  0  0  0  0  0  0  0
  -23.7378  -19.6985   15.1283 C   0  0  1  0  0  0  0  0  0  0  0  0
  -22.1803  -21.4937   12.1752 C   0  0  2  0  0  0  0  0  0  0  0  0
  -24.8531  -18.6365   14.9149 C   0  0  0  0  0  0  0  0  0  0  0  0
  -29.3814  -20.7473   19.6306 N   0  0  0  0  0  0  0  0  0  0  0  0
  -28.7642  -21.8539   20.0786 N   0  0  0  0  0  0  0  0  0  0  0  0
  -22.5222  -20.0295   17.2583 N   0  0  0  0  0  0  0  0  0  0  0  0
  -29.9227  -25.2181   18.6826 N   0  0  0  0  0  0  0  0  0  0  0  0
  -27.5255  -22.7182   21.9032 N   0  0  0  0  0  0  0  0  0  0  0  0
  -26.7869  -19.1466   22.9485 N   0  0  0  0  0  0  0  0  0  0  0  0
  -22.3176  -17.4972   19.4753 N   0  0  0  0  0  0  0  0  0  0  0  0
  -23.0240  -20.0683   13.9109 N   0  0  0  0  0  0  0  0  0  0  0  0
  -29.8093  -26.7454   20.4848 N   0  0  0  0  0  0  0  0  0  0  0  0
  -21.4701  -22.8030   12.1293 N   0  3  0  0  0  0  0  0  0  0  0  0
  -28.7272  -19.8416   23.9539 O   0  0  0  0  0  0  0  0  0  0  0  0
  -23.4261  -19.4972   19.9152 O   0  0  0  0  0  0  0  0  0  0  0  0
  -22.0327  -18.2240   15.8665 O   0  0  0  0  0  0  0  0  0  0  0  0
  -23.5102  -22.3335   14.0092 O   0  0  0  0  0  0  0  0  0  0  0  0
  -29.8442  -27.5077   18.3227 O   0  0  0  0  0  0  0  0  0  0  0  0
  -31.2092  -14.6740   20.2015 O   0  0  0  0  0  0  0  0  0  0  0  0
  -23.7109  -25.3760   20.0964 O   0  0  0  0  0  0  0  0  0  1  0  0
  -27.6463  -10.6140   19.0945 F   0  0  0  0  0  0  0  0  0  0  0  0
  -31.4869  -13.1235   17.9296 F   0  0  0  0  0  0  0  0  0  0  0  0
  1  2  1  0  0  0  0
  1  5  2  0  0  0  0
  2  6  2  0  0  0  0
  3  8  2  0  0  0  0
  3 17  1  0  0  0  0
  4  9  1  0  0  0  0
  4 17  2  0  0  0  0
  5 19  1  0  0  0  0
  6 21  1  0  0  0  0
  7 10  2  0  0  0  0
  7 20  1  0  0  0  0
  8 27  1  0  0  0  0
  9 27  2  0  0  0  0
 10 28  1  0  0  0  0
 11 12  2  0  0  0  0
 11 29  1  0  0  0  0
 12 30  1  0  0  0  0
 13 22  1  0  0  0  0
 13 25  2  0  0  0  0
 14 23  1  0  0  0  0
 14 26  2  0  0  0  0
 15 24  1  0  0  0  0
 15 28  2  0  0  0  0
 16 30  2  0  0  0  0
 16 31  1  0  0  0  0
 17 32  1  0  0  0  0
 18 32  1  0  0  0  0
 18 33  2  0  0  0  0
 18 34  1  0  0  0  0
 19 21  2  0  0  0  0
 19 39  1  0  0  0  0
 20 24  2  0  0  0  0
 20 40  1  0  0  0  0
 21 50  1  0  0  0  0
 22 23  2  0  0  0  0
 22 41  1  0  0  0  0
 23 53  1  0  0  0  0
 24 42  1  0  0  0  0
 25 26  1  0  0  0  0
 25 54  1  0  0  0  0
 26 61  1  0  0  0  0
 27 82  1  0  0  0  0
 28 83  1  0  0  0  0
 29 31  2  0  0  0  0
 29 82  1  0  0  0  0
 30 84  1  0  0  0  0
 31 85  1  0  0  0  0
 32 67  2  0  0  0  0
 33 68  1  0  0  0  0
 33 71  1  0  0  0  0
 34 72  1  0  0  0  0
 34 77  2  0  0  0  0
 35 51  1  0  0  0  0
 35 73  1  0  0  0  0
 35 78  2  0  0  0  0
 36 64  1  0  0  0  0
 36 69  1  0  0  0  0
 36 79  2  0  0  0  0
 37 65  1  0  0  0  0
 37 74  1  0  0  0  0
 37 80  2  0  0  0  0
 38 70  1  0  0  0  0
 38 75  1  0  0  0  0
 38 81  2  0  0  0  0
 39 43  1  0  0  0  0
 40 51  1  0  0  0  0
 41 44  1  0  0  0  0
 42 69  1  0  0  0  0
 43 46  1  0  0  0  0
 44 53  1  0  0  0  0
 45 47  1  0  0  0  0
 45 48  1  0  0  0  0
 46 50  1  0  0  0  0
 47 52  1  0  0  0  0
 48 70  1  0  0  0  0
 49 52  1  0  0  0  0
 49 70  1  0  0  0  0
 50 73  1  0  0  0  0
 51 69  1  0  0  0  0
 52 68  1  0  0  0  0
 53 62  1  0  0  0  0
 53 63  1  0  0  0  0
 55 62  1  0  0  0  0
 56 65  1  0  0  0  0
 57 66  1  0  0  0  0
 58 66  1  0  0  0  0
 59 66  1  0  0  0  0
 60 76  1  0  0  0  0
 61 83  1  0  0  0  0
 63 75  1  0  0  0  0
 64 66  1  0  0  0  0
 64 74  1  0  0  0  0
 65 76  1  0  0  0  0
 67 68  1  0  0  0  0
M  CHG  1  76   1
M  ISO  4  38 100  61 101  75 100  83 101
M  END
> <Batch ID>
0161

> <Smiles>
CCC1(C[100NH:0][100C:0](=O)N2CCCC(n3nc(-c4ccc(Oc5ccc(F)cc5F)cc4)c(C(N)=O)c3N)C2)CCc2cc(C)c([101CH2:1][101O:1]c3ccc4c(c3)CN(C(=O)C(NC(=O)C(C)NC)C(C)(C)C)C(C(=O)NC3CCCc5ccccc53)C4)cc21

> <Shape>
0.222

> <Color>
0.063

> <Negative vol penalty>
0.000

$$$$

  -OEChem-04052322123D

 90100  0     1  0  0  0  0  0999 V2000
  -18.4549  -24.6378   23.4281 C   0  0  0  0  0  0  0  0  0  0  0  0
  -19.7146  -24.4768   22.8600 C   0  0  0  0  0  0  0  0  0  0  0  0
  -24.4588  -12.5766   21.6841 C   0  0  0  0  0  0  0  0  0  0  0  0
  -23.9772  -12.8609   19.3337 C   0  0  0  0  0  0  0  0  0  0  0  0
  -17.8636  -25.8999   23.4637 C   0  0  0  0  0  0  0  0  0  0  0  0
  -20.3833  -25.5779   22.3262 C   0  0  0  0  0  0  0  0  0  0  0  0
  -26.4224  -26.5941   22.3709 C   0  0  0  0  0  0  0  0  0  0  0  0
  -23.4577  -11.6093   21.7722 C   0  0  0  0  0  0  0  0  0  0  0  0
  -22.9761  -11.8936   19.4218 C   0  0  0  0  0  0  0  0  0  0  0  0
  -27.4139  -26.3966   21.4109 C   0  0  0  0  0  0  0  0  0  0  0  0
  -20.5366   -9.2401   18.9464 C   0  0  0  0  0  0  0  0  0  0  0  0
  -20.4783   -8.2728   17.9431 C   0  0  0  0  0  0  0  0  0  0  0  0
  -26.2753  -21.9797   16.7802 C   0  0  0  0  0  0  0  0  0  0  0  0
  -27.2142  -28.7047   20.7384 C   0  0  0  0  0  0  0  0  0  0  0  0
  -25.6499  -20.6966   14.3832 C   0  0  0  0  0  0  0  0  0  0  0  0
  -22.7140   -7.5520   18.5083 C   0  0  0  0  0  0  0  0  0  0  0  0
  -24.7185  -13.2025   20.4648 C   0  0  0  0  0  0  0  0  0  0  0  0
  -27.1110  -13.9946   20.0695 C   0  0  0  0  0  0  0  0  0  0  0  0
  -18.5295  -27.0187   22.9388 C   0  0  0  0  0  0  0  0  0  0  0  0
  -25.8106  -27.8477   22.5147 C   0  0  0  0  0  0  0  0  0  0  0  0
  -19.7998  -26.8560   22.3537 C   0  0  0  0  0  0  0  0  0  0  0  0
  -26.6634  -22.5441   15.5651 C   0  0  0  0  0  0  0  0  0  0  0  0
  -26.2170  -28.9162   21.7027 C   0  0  0  0  0  0  0  0  0  0  0  0
  -26.3507  -21.9026   14.3666 C   0  0  0  0  0  0  0  0  0  0  0  0
  -25.5746  -20.7737   16.7968 C   0  0  0  0  0  0  0  0  0  0  0  0
  -22.7164  -11.2678   20.6411 C   0  0  0  0  0  0  0  0  0  0  0  0
  -27.8079  -27.4512   20.5925 C   0  0  0  0  0  0  0  0  0  0  0  0
  -21.6836   -9.3634   19.7305 C   0  0  0  0  0  0  0  0  0  0  0  0
  -25.2619  -20.1322   15.5984 C   0  0  0  0  0  0  0  0  0  0  0  0
  -21.5670   -7.4287   17.7241 C   0  0  0  0  0  0  0  0  0  0  0  0
  -22.7723   -8.5193   19.5115 C   0  0  0  0  0  0  0  0  0  0  0  0
  -25.7521  -14.2021   20.3732 C   0  0  0  0  0  0  0  0  0  0  0  0
  -27.6667  -15.2501   20.1066 C   0  0  0  0  0  0  0  0  0  0  0  0
  -27.8085  -12.7760   19.7796 C   0  0  0  0  0  0  0  0  0  0  0  0
  -22.8438  -28.9449   22.2019 C   0  0  0  0  0  0  0  0  0  0  0  0
  -24.1517  -31.6833   23.3477 C   0  0  0  0  0  0  0  0  0  0  0  0
  -26.9414  -33.6000   23.7848 C   0  0  0  0  0  0  0  0  0  0  0  0
  -25.4252  -20.7317   19.3112 C   0  0  0  0  0  0  0  0  0  0  0  0
  -17.8300  -28.3548   22.9577 C   0  0  0  0  0  0  0  0  0  0  0  0
  -24.7614  -28.0514   23.5731 C   0  0  0  0  0  0  0  0  0  0  0  0
  -25.6058  -30.2867   21.8309 C   0  0  0  0  0  0  0  0  0  0  0  0
  -18.7649  -29.5353   22.7075 C   0  0  0  0  0  0  0  0  0  0  0  0
  -27.1255  -19.5246   22.1972 C   0  0  0  0  0  0  0  0  0  0  0  0
  -26.9369  -21.5749   11.8720 C   0  0  0  0  0  0  0  0  0  0  0  0
  -28.1331  -22.1999   12.5192 C   0  0  0  0  0  0  0  0  0  0  0  0
  -19.6780  -29.2507   21.5192 C   0  0  0  0  0  0  0  0  0  0  0  0
  -27.0953  -18.0040   22.0263 C   0  0  0  0  0  0  0  0  0  0  0  0
  -26.5603  -24.9422   16.2174 C   0  0  0  0  0  0  0  0  0  0  0  0
  -28.7440  -23.6748   16.3265 C   0  0  0  0  0  0  0  0  0  0  0  0
  -25.8375  -20.1771   21.6981 C   0  0  0  0  0  0  0  0  0  0  0  0
  -25.4230  -18.3020   20.1550 C   0  0  0  0  0  0  0  0  0  0  0  0
  -27.3280  -26.2542   16.3170 C   0  0  0  0  0  0  0  0  0  0  0  0
  -29.4950  -24.9965   16.4249 C   0  0  0  0  0  0  0  0  0  0  0  0
  -27.4134  -23.8370   15.5741 C   0  0  0  0  0  0  0  0  0  0  0  0
  -26.7560  -22.4886   13.0548 C   0  0  0  0  0  0  0  0  0  0  0  0
  -20.5674  -28.0305   21.7867 C   0  0  1  0  0  0  0  0  0  0  0  0
  -23.8440  -29.2357   23.2848 C   0  0  1  0  0  0  0  0  0  0  0  0
  -26.7252  -17.6063   20.5839 C   0  0  2  0  0  0  0  0  0  0  0  0
  -27.6899  -35.8044   24.7216 C   0  0  0  0  0  0  0  0  0  0  0  0
  -22.9864  -33.1100   20.9153 C   0  0  0  0  0  0  0  0  0  0  0  0
  -24.5243  -35.0277   21.3904 C   0  0  0  0  0  0  0  0  0  0  0  0
  -22.7902  -34.3783   23.0618 C   0  0  0  0  0  0  0  0  0  0  0  0
  -28.7341  -32.2909   25.7422 C   0  0  0  0  0  0  0  0  0  0  0  0
  -25.3508  -17.7561   15.6447 C   0  0  0  0  0  0  0  0  0  0  0  0
  -29.3471  -27.3188   17.3193 C   0  0  0  0  0  0  0  0  0  0  0  0
  -28.7004  -28.0589   18.4735 C   0  0  0  0  0  0  0  0  0  1  0  0
  -24.8097  -32.8937   22.7305 C   0  0  1  0  0  0  0  0  0  0  0  0
  -27.4854  -34.3240   25.0031 C   0  0  2  0  0  0  0  0  0  0  0  0
  -23.7880  -33.8262   22.0205 C   0  0  0  0  0  0  0  0  0  0  0  0
  -25.4623  -15.4882   20.5877 N   0  0  0  0  0  0  0  0  0  0  0  0
  -26.6468  -16.1002   20.4186 N   0  0  0  0  0  0  0  0  0  0  0  0
  -24.5795  -30.4341   22.8762 N   0  0  0  0  0  0  0  0  0  0  0  0
  -25.5529  -19.7578   20.3241 N   0  0  0  0  0  0  0  0  0  0  0  0
  -28.9235  -15.6988   19.9027 N   0  0  0  0  0  0  0  0  0  0  0  0
  -27.0856  -11.5753   19.7833 N   0  0  0  0  0  0  0  0  0  0  0  0
  -25.1872  -20.2127   18.0390 N   0  0  0  0  0  0  0  0  0  0  0  0
  -21.6654  -28.3870   22.6595 N   0  0  0  0  0  0  0  0  0  0  0  0
  -25.5640  -33.5382   23.8001 N   0  0  0  0  0  0  0  0  0  0  0  0
  -28.6199  -26.0459   17.0844 N   0  3  0  0  0  0  0  0  0  0  0  0
  -28.7931  -33.7383   25.4126 N   0  3  0  0  0  0  0  0  0  0  0  0
  -29.0397  -12.7505   19.5411 O   0  0  0  0  0  0  0  0  0  0  0  0
  -23.1202  -29.2087   21.0375 O   0  0  0  0  0  0  0  0  0  0  0  0
  -23.2950  -31.8402   24.2213 O   0  0  0  0  0  0  0  0  0  0  0  0
  -27.6657  -33.1389   22.9054 O   0  0  0  0  0  0  0  0  0  0  0  0
  -25.5469  -21.9360   19.5498 O   0  0  0  0  0  0  0  0  0  0  0  0
  -21.7396  -10.3238   20.7267 O   0  0  0  0  0  0  0  0  0  0  0  0
  -24.5778  -18.9531   15.5928 O   0  0  0  0  0  0  0  0  0  0  0  0
  -28.7751  -27.2609   19.6542 O   0  0  0  0  0  0  0  0  0  1  0  0
  -21.5103   -6.4988   16.7617 F   0  0  0  0  0  0  0  0  0  0  0  0
  -23.8764   -8.6323   20.2624 F   0  0  0  0  0  0  0  0  0  0  0  0
  1  2  1  0  0  0  0
  1  5  2  0  0  0  0
  2  6  2  0  0  0  0
  3  8  2  0  0  0  0
  3 17  1  0  0  0  0
  4  9  1  0  0  0  0
  4 17  2  0  0  0  0
  5 19  1  0  0  0  0
  6 21  1  0  0  0  0
  7 10  2  0  0  0  0
  7 20  1  0  0  0  0
  8 26  1  0  0  0  0
  9 26  2  0  0  0  0
 10 27  1  0  0  0  0
 11 12  2  0  0  0  0
 11 28  1  0  0  0  0
 12 30  1  0  0  0  0
 13 22  1  0  0  0  0
 13 25  2  0  0  0  0
 14 23  1  0  0  0  0
 14 27  2  0  0  0  0
 15 24  1  0  0  0  0
 15 29  2  0  0  0  0
 16 30  2  0  0  0  0
 16 31  1  0  0  0  0
 17 32  1  0  0  0  0
 18 32  1  0  0  0  0
 18 33  2  0  0  0  0
 18 34  1  0  0  0  0
 19 21  2  0  0  0  0
 19 39  1  0  0  0  0
 20 23  2  0  0  0  0
 20 40  1  0  0  0  0
 21 56  1  0  0  0  0
 22 24  2  0  0  0  0
 22 54  1  0  0  0  0
 23 41  1  0  0  0  0
 24 55  1  0  0  0  0
 25 29  1  0  0  0  0
 25 76  1  0  0  0  0
 26 86  1  0  0  0  0
 27 88  1  0  0  0  0
 28 31  2  0  0  0  0
 28 86  1  0  0  0  0
 29 87  1  0  0  0  0
 30 89  1  0  0  0  0
 31 90  1  0  0  0  0
 32 70  2  0  0  0  0
 33 71  1  0  0  0  0
 33 74  1  0  0  0  0
 34 75  1  0  0  0  0
 34 81  2  0  0  0  0
 35 57  1  0  0  0  0
 35 77  1  0  0  0  0
 35 82  2  0  0  0  0
 36 67  1  0  0  0  0
 36 72  1  0  0  0  0
 36 83  2  0  0  0  0
 37 68  1  0  0  0  0
 37 78  1  0  0  0  0
 37 84  2  0  0  0  0
 38 73  1  0  0  0  0
 38 76  1  0  0  0  0
 38 85  2  0  0  0  0
 39 42  1  0  0  0  0
 40 57  1  0  0  0  0
 41 72  1  0  0  0  0
 42 46  1  0  0  0  0
 43 47  1  0  0  0  0
 43 50  1  0  0  0  0
 44 45  1  0  0  0  0
 44 55  1  0  0  0  0
 45 55  1  0  0  0  0
 46 56  1  0  0  0  0
 47 58  1  0  0  0  0
 48 52  1  0  0  0  0
 48 54  1  0  0  0  0
 49 53  1  0  0  0  0
 49 54  1  0  0  0  0
 50 73  1  0  0  0  0
 51 58  1  0  0  0  0
 51 73  1  0  0  0  0
 52 79  1  0  0  0  0
 53 79  1  0  0  0  0
 56 77  1  0  0  0  0
 57 72  1  0  0  0  0
 58 71  1  0  0  0  0
 59 68  1  0  0  0  0
 60 69  1  0  0  0  0
 61 69  1  0  0  0  0
 62 69  1  0  0  0  0
 63 80  1  0  0  0  0
 64 87  1  0  0  0  0
 65 66  1  0  0  0  0
 65 79  1  0  0  0  0
 66 88  1  0  0  0  0
 67 69  1  0  0  0  0
 67 78  1  0  0  0  0
 68 80  1  0  0  0  0
 70 71  1  0  0  0  0
M  CHG  2  79   1  80   1
M  ISO  4  38 100  66 101  76 100  88 101
M  END
> <Batch ID>
0161

> <Smiles>
CNC(C)C(=O)NC(C(=O)N1Cc2cc([101O:1][101CH2:1]CN3CCC(c4cc([100NH:0][100C:0](=O)N5CCCC(n6nc(-c7ccc(Oc8ccc(F)cc8F)cc7)c(C(N)=O)c6N)C5)c(OC)cc4C4CC4)CC3)ccc2CC1C(=O)NC1CCCc2ccccc21)C(C)(C)C

> <Shape>
0.240

> <Color>
0.077

> <Negative vol penalty>
0.000

$$$$

  -OEChem-04052322123D

 94104  0     1  0  0  0  0  0999 V2000
  -31.1666  -33.9229   14.0724 C   0  0  0  0  0  0  0  0  0  0  0  0
  -30.9755  -32.8161   14.8933 C   0  0  0  0  0  0  0  0  0  0  0  0
  -23.4444  -10.3677   21.9758 C   0  0  0  0  0  0  0  0  0  0  0  0
  -24.1490   -8.5439   20.5566 C   0  0  0  0  0  0  0  0  0  0  0  0
  -31.2204  -35.2005   14.6281 C   0  0  0  0  0  0  0  0  0  0  0  0
  -30.8393  -32.9862   16.2706 C   0  0  0  0  0  0  0  0  0  0  0  0
  -27.0527  -30.2341   18.2027 C   0  0  0  0  0  0  0  0  0  0  0  0
  -22.1120  -10.0027   21.7833 C   0  0  0  0  0  0  0  0  0  0  0  0
  -22.8166   -8.1789   20.3641 C   0  0  0  0  0  0  0  0  0  0  0  0
  -27.2905  -28.8748   18.4014 C   0  0  0  0  0  0  0  0  0  0  0  0
  -18.5433   -9.3322   21.9562 C   0  0  0  0  0  0  0  0  0  0  0  0
  -17.7120   -9.2981   23.0757 C   0  0  0  0  0  0  0  0  0  0  0  0
  -28.2977  -21.1073   22.7626 C   0  0  0  0  0  0  0  0  0  0  0  0
  -29.2073  -20.6832   20.5650 C   0  0  0  0  0  0  0  0  0  0  0  0
  -27.6888  -29.2930   20.7435 C   0  0  0  0  0  0  0  0  0  0  0  0
  -19.1406   -7.6320   24.0857 C   0  0  0  0  0  0  0  0  0  0  0  0
  -24.4629   -9.6382   21.3624 C   0  0  0  0  0  0  0  0  0  0  0  0
  -26.7075   -9.5628   22.5723 C   0  0  0  0  0  0  0  0  0  0  0  0
  -31.0751  -35.3872   16.0118 C   0  0  0  0  0  0  0  0  0  0  0  0
  -27.1420  -31.1362   19.2726 C   0  0  0  0  0  0  0  0  0  0  0  0
  -30.8925  -34.2674   16.8454 C   0  0  0  0  0  0  0  0  0  0  0  0
  -28.7834  -20.2136   21.8081 C   0  0  0  0  0  0  0  0  0  0  0  0
  -27.4492  -30.6629   20.5563 C   0  0  0  0  0  0  0  0  0  0  0  0
  -28.6597  -22.9402   21.2308 C   0  0  0  0  0  0  0  0  0  0  0  0
  -21.7981   -8.9084   20.9774 C   0  0  0  0  0  0  0  0  0  0  0  0
  -27.6114  -28.4045   19.6713 C   0  0  0  0  0  0  0  0  0  0  0  0
  -19.6732   -8.5162   21.9014 C   0  0  0  0  0  0  0  0  0  0  0  0
  -28.2358  -22.4706   22.4739 C   0  0  0  0  0  0  0  0  0  0  0  0
  -29.1455  -22.0465   20.2763 C   0  0  0  0  0  0  0  0  0  0  0  0
  -18.0106   -8.4480   24.1405 C   0  0  0  0  0  0  0  0  0  0  0  0
  -19.9719   -7.6661   22.9661 C   0  0  0  0  0  0  0  0  0  0  0  0
  -25.8395  -10.0151   21.5605 C   0  0  0  0  0  0  0  0  0  0  0  0
  -27.8920  -10.2124   22.3242 C   0  0  0  0  0  0  0  0  0  0  0  0
  -26.4649   -8.6381   23.6408 C   0  0  0  0  0  0  0  0  0  0  0  0
  -28.9640  -33.6546   19.9371 C   0  0  0  0  0  0  0  0  0  0  0  0
  -26.9744  -33.9320   22.4840 C   0  0  0  0  0  0  0  0  0  0  0  0
  -24.8096  -32.4218   24.6473 C   0  0  0  0  0  0  0  0  0  0  0  0
  -30.0173  -15.1479   20.5012 C   0  0  0  0  0  0  0  0  0  0  0  0
  -31.1876  -36.7831   16.5717 C   0  0  0  0  0  0  0  0  0  0  0  0
  -26.8564  -32.5956   19.0470 C   0  0  0  0  0  0  0  0  0  0  0  0
  -27.5377  -31.5873   21.7421 C   0  0  0  0  0  0  0  0  0  0  0  0
  -30.6597  -36.9115   17.9982 C   0  0  0  0  0  0  0  0  0  0  0  0
  -29.9172  -12.4087   18.3953 C   0  0  0  0  0  0  0  0  0  0  0  0
  -31.1875  -35.7744   18.8672 C   0  0  0  0  0  0  0  0  0  0  0  0
  -28.9434  -11.4545   19.0863 C   0  0  0  0  0  0  0  0  0  0  0  0
  -27.9524  -17.9017   21.1867 C   0  0  0  0  0  0  0  0  0  0  0  0
  -30.2957  -18.2005   22.0973 C   0  0  0  0  0  0  0  0  0  0  0  0
  -29.4229  -13.8481   18.4793 C   0  0  0  0  0  0  0  0  0  0  0  0
  -28.0500  -16.4035   21.4880 C   0  0  0  0  0  0  0  0  0  0  0  0
  -30.3280  -16.7053   22.4003 C   0  0  0  0  0  0  0  0  0  0  0  0
  -28.2043  -13.3766   20.5795 C   0  0  0  0  0  0  0  0  0  0  0  0
  -28.7457  -26.6097   22.0537 C   0  0  0  0  0  0  0  0  0  0  0  0
  -28.8507  -18.7309   22.1221 C   0  0  0  0  0  0  0  0  0  0  0  0
  -30.7157  -34.4134   18.3413 C   0  0  1  0  0  0  0  0  0  0  0  0
  -28.5937  -24.4167   20.9179 C   0  0  1  0  0  0  0  0  0  0  0  0
  -27.4795  -33.4974   20.1080 C   0  0  1  0  0  0  0  0  0  0  0  0
  -27.2021  -25.0533   21.0764 C   0  0  1  0  0  0  0  0  0  0  0  0
  -28.6598  -11.9040   20.5305 C   0  0  1  0  0  0  0  0  0  0  0  0
  -27.5234  -26.5454   21.1520 C   0  0  2  0  0  0  0  0  0  1  0  0
  -26.2488  -24.6836   19.9458 C   0  0  0  0  0  0  0  0  0  0  0  0
  -31.6564  -26.2911   22.3220 C   0  0  0  0  0  0  0  0  0  0  0  0
  -23.3698  -32.8982   26.6467 C   0  0  0  0  0  0  0  0  0  0  0  0
  -29.4555  -33.9650   24.2598 C   0  0  0  0  0  0  0  0  0  0  0  0
  -27.9737  -33.4847   26.2198 C   0  0  0  0  0  0  0  0  0  0  0  0
  -27.6771  -35.5940   24.9217 C   0  0  0  0  0  0  0  0  0  0  0  0
  -22.3437  -31.6630   23.1974 C   0  0  0  0  0  0  0  0  0  0  0  0
  -27.3477  -22.7628   24.6606 C   0  0  0  0  0  0  0  0  0  0  0  0
  -30.0452  -21.5029   18.1430 C   0  0  0  0  0  0  0  0  0  0  0  0
  -30.8767  -25.4455   21.3389 C   0  0  0  0  0  0  0  0  0  0  0  0
  -26.9635  -33.3964   23.8954 C   0  0  1  0  0  0  0  0  0  0  0  0
  -23.4259  -32.8190   25.1290 C   0  0  2  0  0  0  0  0  0  0  0  0
  -28.0177  -34.0926   24.8017 C   0  0  0  0  0  0  0  0  0  0  0  0
  -26.4227  -10.8849   20.7315 N   0  0  0  0  0  0  0  0  0  0  0  0
  -27.6700  -10.9844   21.2220 N   0  0  0  0  0  0  0  0  0  0  0  0
  -27.2561  -33.0063   21.4693 N   0  0  0  0  0  0  0  0  0  0  0  0
  -29.1617  -14.2356   19.8655 N   0  0  0  0  0  0  0  0  0  0  0  0
  -29.4526  -15.9651   21.4920 N   0  0  0  0  0  0  0  0  0  0  0  0
  -29.0913  -10.1928   22.9435 N   0  0  0  0  0  0  0  0  0  0  0  0
  -25.1918   -8.0623   23.7500 N   0  0  0  0  0  0  0  0  0  0  0  0
  -29.3373  -34.1778   18.7138 N   0  0  0  0  0  0  0  0  0  0  0  0
  -25.5899  -33.5243   24.3699 N   0  0  0  0  0  0  0  0  0  0  0  0
  -29.4700  -25.2871   21.8311 N   0  3  1  0  0  0  0  0  0  0  0  0
  -22.4134  -31.8253   24.6725 N   0  3  0  0  0  0  0  0  0  0  0  0
  -27.3460   -8.3441   24.4839 O   0  0  0  0  0  0  0  0  0  0  0  0
  -29.7152  -33.3269   20.8482 O   0  0  0  0  0  0  0  0  0  0  0  0
  -26.7347  -35.1261   22.2885 O   0  0  0  0  0  0  0  0  0  0  0  0
  -25.1642  -31.2506   24.5324 O   0  0  0  0  0  0  0  0  0  0  0  0
  -31.2155  -15.2276   20.2024 O   0  0  0  0  0  0  0  0  0  0  0  0
  -20.4980   -8.5518   20.7895 O   0  0  0  0  0  0  0  0  0  0  0  0
  -27.8462  -27.0693   19.8693 O   0  0  0  0  0  0  0  0  0  1  0  0
  -27.7589  -23.3294   23.4182 O   0  0  0  0  0  0  0  0  0  0  0  0
  -29.5640  -22.4866   19.0565 O   0  0  0  0  0  0  0  0  0  0  0  0
  -17.2131   -8.4164   25.2162 F   0  0  0  0  0  0  0  0  0  0  0  0
  -21.0567   -6.8807   22.9198 F   0  0  0  0  0  0  0  0  0  0  0  0
  1  2  1  0  0  0  0
  1  5  2  0  0  0  0
  2  6  2  0  0  0  0
  3  8  2  0  0  0  0
  3 17  1  0  0  0  0
  4  9  1  0  0  0  0
  4 17  2  0  0  0  0
  5 19  1  0  0  0  0
  6 21  1  0  0  0  0
  7 10  2  0  0  0  0
  7 20  1  0  0  0  0
  8 25  1  0  0  0  0
  9 25  2  0  0  0  0
 10 26  1  0  0  0  0
 11 12  2  0  0  0  0
 11 27  1  0  0  0  0
 12 30  1  0  0  0  0
 13 22  1  0  0  0  0
 13 28  2  0  0  0  0
 14 22  2  0  0  0  0
 14 29  1  0  0  0  0
 15 23  1  0  0  0  0
 15 26  2  0  0  0  0
 16 30  2  0  0  0  0
 16 31  1  0  0  0  0
 17 32  1  0  0  0  0
 18 32  1  0  0  0  0
 18 33  2  0  0  0  0
 18 34  1  0  0  0  0
 19 21  2  0  0  0  0
 19 39  1  0  0  0  0
 20 23  2  0  0  0  0
 20 40  1  0  0  0  0
 21 54  1  0  0  0  0
 22 53  1  0  0  0  0
 23 41  1  0  0  0  0
 24 28  1  0  0  0  0
 24 29  2  0  0  0  0
 24 55  1  0  0  0  0
 25 89  1  0  0  0  0
 26 90  1  0  0  0  0
 27 31  2  0  0  0  0
 27 89  1  0  0  0  0
 28 91  1  0  0  0  0
 29 92  1  0  0  0  0
 30 93  1  0  0  0  0
 31 94  1  0  0  0  0
 32 73  2  0  0  0  0
 33 74  1  0  0  0  0
 33 78  1  0  0  0  0
 34 79  1  0  0  0  0
 34 84  2  0  0  0  0
 35 56  1  0  0  0  0
 35 80  1  0  0  0  0
 35 85  2  0  0  0  0
 36 70  1  0  0  0  0
 36 75  1  0  0  0  0
 36 86  2  0  0  0  0
 37 71  1  0  0  0  0
 37 81  1  0  0  0  0
 37 87  2  0  0  0  0
 38 76  1  0  0  0  0
 38 77  1  0  0  0  0
 38 88  2  0  0  0  0
 39 42  1  0  0  0  0
 40 56  1  0  0  0  0
 41 75  1  0  0  0  0
 42 44  1  0  0  0  0
 43 45  1  0  0  0  0
 43 48  1  0  0  0  0
 44 54  1  0  0  0  0
 45 58  1  0  0  0  0
 46 49  1  0  0  0  0
 46 53  1  0  0  0  0
 47 50  1  0  0  0  0
 47 53  1  0  0  0  0
 48 76  1  0  0  0  0
 49 77  1  0  0  0  0
 50 77  1  0  0  0  0
 51 58  1  0  0  0  0
 51 76  1  0  0  0  0
 52 59  1  0  0  0  0
 52 82  1  0  0  0  0
 54 80  1  0  0  0  0
 55 57  1  0  0  0  0
 55 82  1  0  0  0  0
 56 75  1  0  0  0  0
 57 59  1  0  0  0  0
 57 60  1  0  0  0  0
 58 74  1  0  0  0  0
 59 90  1  0  0  0  0
 61 69  1  0  0  0  0
 62 71  1  0  0  0  0
 63 72  1  0  0  0  0
 64 72  1  0  0  0  0
 65 72  1  0  0  0  0
 66 83  1  0  0  0  0
 67 91  1  0  0  0  0
 68 92  1  0  0  0  0
 69 82  1  0  0  0  0
 70 72  1  0  0  0  0
 70 81  1  0  0  0  0
 71 83  1  0  0  0  0
 73 74  1  0  0  0  0
M  CHG  2  82   1  83   1
M  ISO  4  38 100  59 101  77 100  90 101
M  END
> <Batch ID>
0161

> <Smiles>
CCN1C[101CH:1]([101O:1]c2ccc3c(c2)CN(C(=O)C(NC(=O)C(C)NC)C(C)(C)C)C(C(=O)NC2CCCc4ccccc42)C3)C(C)C1c1c(OC)cc(C2CC[100N:0]([100C:0](=O)N3CCCC(n4nc(-c5ccc(Oc6ccc(F)cc6F)cc5)c(C(N)=O)c4N)C3)CC2)cc1OC

> <Shape>
0.227

> <Color>
0.111

> <Negative vol penalty>
0.000

$$$$

  -OEChem-04052322123D

 89 98  0     1  0  0  0  0  0999 V2000
  -18.3938  -25.1874   24.0304 C   0  0  0  0  0  0  0  0  0  0  0  0
  -19.6583  -24.9581   23.4977 C   0  0  0  0  0  0  0  0  0  0  0  0
  -23.3591  -10.2517   21.9083 C   0  0  0  0  0  0  0  0  0  0  0  0
  -24.7863   -8.3662   21.4136 C   0  0  0  0  0  0  0  0  0  0  0  0
  -17.7935  -26.4373   23.8848 C   0  0  0  0  0  0  0  0  0  0  0  0
  -20.3228  -25.9783   22.8179 C   0  0  0  0  0  0  0  0  0  0  0  0
  -26.3543  -27.0381   22.7525 C   0  0  0  0  0  0  0  0  0  0  0  0
  -22.2445   -9.4134   21.8883 C   0  0  0  0  0  0  0  0  0  0  0  0
  -23.6717   -7.5278   21.3936 C   0  0  0  0  0  0  0  0  0  0  0  0
  -27.3535  -26.7152   21.8354 C   0  0  0  0  0  0  0  0  0  0  0  0
  -21.6703   -5.9937   23.6434 C   0  0  0  0  0  0  0  0  0  0  0  0
  -21.7674   -4.7731   24.3114 C   0  0  0  0  0  0  0  0  0  0  0  0
  -27.1420  -28.9040   20.8436 C   0  0  0  0  0  0  0  0  0  0  0  0
  -29.2604  -23.3681   18.0396 C   0  0  0  0  0  0  0  0  0  0  0  0
  -21.3416   -3.6055   22.2395 C   0  0  0  0  0  0  0  0  0  0  0  0
  -24.6300   -9.7282   21.6708 C   0  0  0  0  0  0  0  0  0  0  0  0
  -26.5870  -10.9118   22.8008 C   0  0  0  0  0  0  0  0  0  0  0  0
  -18.4550  -27.4763   23.2113 C   0  0  0  0  0  0  0  0  0  0  0  0
  -25.7328  -28.2946   22.7150 C   0  0  0  0  0  0  0  0  0  0  0  0
  -19.7302  -27.2429   22.6620 C   0  0  0  0  0  0  0  0  0  0  0  0
  -26.1370  -29.2413   21.7630 C   0  0  0  0  0  0  0  0  0  0  0  0
  -30.0475  -24.5082   17.9224 C   0  0  0  0  0  0  0  0  0  0  0  0
  -31.3829  -24.3895   17.5537 C   0  0  0  0  0  0  0  0  0  0  0  0
  -22.4008   -8.0514   21.6310 C   0  0  0  0  0  0  0  0  0  0  0  0
  -27.7455  -27.6472   20.8789 C   0  0  0  0  0  0  0  0  0  0  0  0
  -21.4088   -6.0203   22.2735 C   0  0  0  0  0  0  0  0  0  0  0  0
  -21.6031   -3.5790   23.6094 C   0  0  0  0  0  0  0  0  0  0  0  0
  -21.2445   -4.8262   21.5716 C   0  0  0  0  0  0  0  0  0  0  0  0
  -25.7817  -10.5938   21.6908 C   0  0  0  0  0  0  0  0  0  0  0  0
  -31.8793  -23.1181   17.3152 C   0  0  0  0  0  0  0  0  0  0  0  0
  -29.8517  -22.1424   17.7791 C   0  0  0  0  0  0  0  0  0  0  0  0
  -27.5408  -11.7640   22.3001 C   0  0  0  0  0  0  0  0  0  0  0  0
  -26.4823  -10.4759   24.1626 C   0  0  0  0  0  0  0  0  0  0  0  0
  -22.7605  -29.3135   22.2344 C   0  0  0  0  0  0  0  0  0  0  0  0
  -24.0416  -32.1961   22.9905 C   0  0  0  0  0  0  0  0  0  0  0  0
  -26.8148  -34.1771   23.1688 C   0  0  0  0  0  0  0  0  0  0  0  0
  -29.1283  -15.9553   19.3474 C   0  0  0  0  0  0  0  0  0  0  0  0
  -17.7461  -28.7962   23.0380 C   0  0  0  0  0  0  0  0  0  0  0  0
  -24.6753  -28.6370   23.7284 C   0  0  0  0  0  0  0  0  0  0  0  0
  -25.5154  -30.6114   21.6935 C   0  0  0  0  0  0  0  0  0  0  0  0
  -18.6743  -29.9371   22.6292 C   0  0  0  0  0  0  0  0  0  0  0  0
  -28.7196  -12.9733   17.5391 C   0  0  0  0  0  0  0  0  0  0  0  0
  -19.5972  -29.4952   21.4979 C   0  0  0  0  0  0  0  0  0  0  0  0
  -27.9768  -12.1032   18.5527 C   0  0  0  0  0  0  0  0  0  0  0  0
  -28.3458  -18.7532   17.3605 C   0  0  0  0  0  0  0  0  0  0  0  0
  -30.3208  -19.1738   18.8738 C   0  0  0  0  0  0  0  0  0  0  0  0
  -28.2189  -14.4188   17.5487 C   0  0  0  0  0  0  0  0  0  0  0  0
  -28.7854  -17.2927   17.2213 C   0  0  0  0  0  0  0  0  0  0  0  0
  -30.7356  -17.7176   18.6826 C   0  0  0  0  0  0  0  0  0  0  0  0
  -27.4918  -14.1803   19.9009 C   0  0  0  0  0  0  0  0  0  0  0  0
  -20.4933  -28.3318   21.9395 C   0  0  1  0  0  0  0  0  0  0  0  0
  -23.7514  -29.7617   23.2711 C   0  0  1  0  0  0  0  0  0  0  0  0
  -28.0131  -12.7359   19.9553 C   0  0  1  0  0  0  0  0  0  0  0  0
  -29.5329  -19.6717   17.6593 C   0  0  0  0  0  0  0  0  0  0  0  0
  -32.2516  -25.5955   17.4242 C   0  0  0  0  0  0  0  0  0  0  0  0
  -33.3064  -22.9286   16.9166 C   0  0  0  0  0  0  0  0  0  0  0  0
  -27.5418  -36.4972   23.7901 C   0  0  0  0  0  0  0  0  0  0  0  0
  -22.8824  -33.2571   20.3751 C   0  0  0  0  0  0  0  0  0  0  0  0
  -24.4037  -35.2345   20.5839 C   0  0  0  0  0  0  0  0  0  0  0  0
  -22.6632  -34.8132   22.3205 C   0  0  0  0  0  0  0  0  0  0  0  0
  -28.8193  -26.2648   15.8141 C   0  0  0  0  0  0  0  0  0  0  0  0
  -28.6038  -33.1707   25.3009 C   0  0  0  0  0  0  0  0  0  0  0  0
  -28.8428  -25.9622   19.6090 C   0  0  0  0  0  0  0  0  0  1  0  0
  -29.4390  -25.8436   18.1968 C   0  0  2  0  0  0  0  0  0  0  0  0
  -24.6952  -33.3127   22.2127 C   0  0  1  0  0  0  0  0  0  0  0  0
  -27.3457  -35.0695   24.2761 C   0  0  2  0  0  0  0  0  0  0  0  0
  -23.6717  -34.1280   21.3728 C   0  0  0  0  0  0  0  0  0  0  0  0
  -26.1883  -11.1951   20.5695 N   0  0  0  0  0  0  0  0  0  0  0  0
  -31.1455  -21.9874   17.4187 N   0  0  0  0  0  0  0  0  0  0  0  0
  -27.2595  -11.8996   20.9725 N   0  0  0  0  0  0  0  0  0  0  0  0
  -24.4812  -30.8964   22.7019 N   0  0  0  0  0  0  0  0  0  0  0  0
  -28.2340  -14.9657   18.9126 N   0  0  0  0  0  0  0  0  0  0  0  0
  -29.5771  -16.8740   18.3869 N   0  0  0  0  0  0  0  0  0  0  0  0
  -28.5841  -12.4032   22.8705 N   0  0  0  0  0  0  0  0  0  0  0  0
  -25.4432   -9.6003   24.5059 N   0  0  0  0  0  0  0  0  0  0  0  0
  -29.0572  -21.0162   17.9003 N   0  0  0  0  0  0  0  0  0  0  0  0
  -21.5830  -28.8162   22.7594 N   0  0  0  0  0  0  0  0  0  0  0  0
  -25.4379  -34.1073   23.1850 N   0  0  0  0  0  0  0  0  0  0  0  0
  -28.3546  -26.2054   17.2175 N   0  3  0  0  0  0  0  0  0  0  0  0
  -28.6548  -34.5577   24.7712 N   0  3  0  0  0  0  0  0  0  0  0  0
  -27.2767  -10.8646   25.0523 O   0  0  0  0  0  0  0  0  0  0  0  0
  -23.0427  -29.4129   21.0460 O   0  0  0  0  0  0  0  0  0  0  0  0
  -23.1781  -32.4677   23.8285 O   0  0  0  0  0  0  0  0  0  0  0  0
  -27.5482  -33.6025   22.3672 O   0  0  0  0  0  0  0  0  0  0  0  0
  -29.5038  -16.0149   20.5249 O   0  0  0  0  0  0  0  0  0  0  0  0
  -21.3134   -7.2330   21.6117 O   0  0  0  0  0  0  0  0  0  0  0  0
  -28.7265  -27.3323   19.9762 O   0  0  0  0  0  0  0  0  0  1  0  0
  -21.6979   -2.4068   24.2506 F   0  0  0  0  0  0  0  0  0  0  0  0
  -20.9942   -4.8454   20.2552 F   0  0  0  0  0  0  0  0  0  0  0  0
  1  2  1  0  0  0  0
  1  5  2  0  0  0  0
  2  6  2  0  0  0  0
  3  8  2  0  0  0  0
  3 16  1  0  0  0  0
  4  9  1  0  0  0  0
  4 16  2  0  0  0  0
  5 18  1  0  0  0  0
  6 20  1  0  0  0  0
  7 10  2  0  0  0  0
  7 19  1  0  0  0  0
  8 24  1  0  0  0  0
  9 24  2  0  0  0  0
 10 25  1  0  0  0  0
 11 12  2  0  0  0  0
 11 26  1  0  0  0  0
 12 27  1  0  0  0  0
 13 21  1  0  0  0  0
 13 25  2  0  0  0  0
 14 22  1  0  0  0  0
 14 31  2  0  0  0  0
 15 27  2  0  0  0  0
 15 28  1  0  0  0  0
 16 29  1  0  0  0  0
 17 29  1  0  0  0  0
 17 32  2  0  0  0  0
 17 33  1  0  0  0  0
 18 20  2  0  0  0  0
 18 38  1  0  0  0  0
 19 21  2  0  0  0  0
 19 39  1  0  0  0  0
 20 51  1  0  0  0  0
 21 40  1  0  0  0  0
 22 23  2  0  0  0  0
 22 64  1  0  0  0  0
 23 30  1  0  0  0  0
 23 55  1  0  0  0  0
 24 86  1  0  0  0  0
 25 87  1  0  0  0  0
 26 28  2  0  0  0  0
 26 86  1  0  0  0  0
 27 88  1  0  0  0  0
 28 89  1  0  0  0  0
 29 68  2  0  0  0  0
 30 56  1  0  0  0  0
 30 69  2  0  0  0  0
 31 69  1  0  0  0  0
 31 76  1  0  0  0  0
 32 70  1  0  0  0  0
 32 74  1  0  0  0  0
 33 75  1  0  0  0  0
 33 81  2  0  0  0  0
 34 52  1  0  0  0  0
 34 77  1  0  0  0  0
 34 82  2  0  0  0  0
 35 65  1  0  0  0  0
 35 71  1  0  0  0  0
 35 83  2  0  0  0  0
 36 66  1  0  0  0  0
 36 78  1  0  0  0  0
 36 84  2  0  0  0  0
 37 72  1  0  0  0  0
 37 73  1  0  0  0  0
 37 85  2  0  0  0  0
 38 41  1  0  0  0  0
 39 52  1  0  0  0  0
 40 71  1  0  0  0  0
 41 43  1  0  0  0  0
 42 44  1  0  0  0  0
 42 47  1  0  0  0  0
 43 51  1  0  0  0  0
 44 53  1  0  0  0  0
 45 48  1  0  0  0  0
 45 54  1  0  0  0  0
 46 49  1  0  0  0  0
 46 54  1  0  0  0  0
 47 72  1  0  0  0  0
 48 73  1  0  0  0  0
 49 73  1  0  0  0  0
 50 53  1  0  0  0  0
 50 72  1  0  0  0  0
 51 77  1  0  0  0  0
 52 71  1  0  0  0  0
 53 70  1  0  0  0  0
 54 76  1  0  0  0  0
 57 66  1  0  0  0  0
 58 67  1  0  0  0  0
 59 67  1  0  0  0  0
 60 67  1  0  0  0  0
 61 79  1  0  0  0  0
 62 80  1  0  0  0  0
 63 64  1  0  0  0  0
 63 87  1  0  0  0  0
 64 79  1  0  0  0  0
 65 67  1  0  0  0  0
 65 78  1  0  0  0  0
 66 80  1  0  0  0  0
 68 70  1  0  0  0  0
M  CHG  2  79   1  80   1
M  ISO  4  37 100  63 101  73 100  87 101
M  END
> <Batch ID>
0161

> <Smiles>
CNC(C)C(=O)NC(C(=O)N1Cc2cc([101O:1][101CH2:1]C(NC)c3cc(NC4CC[100N:0]([100C:0](=O)N5CCCC(n6nc(-c7ccc(Oc8ccc(F)cc8F)cc7)c(C(N)=O)c6N)C5)CC4)nc(C)c3C)ccc2CC1C(=O)NC1CCCc2ccccc21)C(C)(C)C

> <Shape>
0.329

> <Color>
0.112

> <Negative vol penalty>
0.000

$$$$

  -OEChem-04052322123D

 88 98  0     1  0  0  0  0  0999 V2000
  -28.1261  -33.7633   25.1279 C   0  0  0  0  0  0  0  0  0  0  0  0
  -28.2655  -32.4982   24.5661 C   0  0  0  0  0  0  0  0  0  0  0  0
  -28.5650  -10.9354   20.1680 C   0  0  0  0  0  0  0  0  0  0  0  0
  -26.8450  -12.6306   20.2383 C   0  0  0  0  0  0  0  0  0  0  0  0
  -26.8833  -34.1812   25.6019 C   0  0  0  0  0  0  0  0  0  0  0  0
  -27.1622  -31.6498   24.4791 C   0  0  0  0  0  0  0  0  0  0  0  0
  -25.3132  -19.7260   22.7735 C   0  0  0  0  0  0  0  0  0  0  0  0
  -26.8071  -29.3815   19.9654 C   0  0  0  0  0  0  0  0  0  0  0  0
  -24.2099  -20.0652   21.9912 C   0  0  0  0  0  0  0  0  0  0  0  0
  -27.5961   -9.9624   19.9230 C   0  0  0  0  0  0  0  0  0  0  0  0
  -25.8761  -11.6576   19.9932 C   0  0  0  0  0  0  0  0  0  0  0  0
  -27.6507  -28.2968   19.7297 C   0  0  0  0  0  0  0  0  0  0  0  0
  -24.2330   -9.2804   21.7483 C   0  0  0  0  0  0  0  0  0  0  0  0
  -23.0718   -9.3133   22.5205 C   0  0  0  0  0  0  0  0  0  0  0  0
  -25.8347  -26.7860   20.2185 C   0  0  0  0  0  0  0  0  0  0  0  0
  -25.4157  -21.9552   21.0429 C   0  0  0  0  0  0  0  0  0  0  0  0
  -21.7492   -9.6010   20.5193 C   0  0  0  0  0  0  0  0  0  0  0  0
  -28.1895  -12.2695   20.3257 C   0  0  0  0  0  0  0  0  0  0  0  0
  -30.2802  -13.6159   19.7566 C   0  0  0  0  0  0  0  0  0  0  0  0
  -25.7622  -33.3412   25.5118 C   0  0  0  0  0  0  0  0  0  0  0  0
  -25.4716  -29.1762   20.3406 C   0  0  0  0  0  0  0  0  0  0  0  0
  -25.9036  -32.0564   24.9536 C   0  0  0  0  0  0  0  0  0  0  0  0
  -26.4559  -20.5031   22.6661 C   0  0  0  0  0  0  0  0  0  0  0  0
  -24.9755  -27.8698   20.4558 C   0  0  0  0  0  0  0  0  0  0  0  0
  -24.2608  -21.1717   21.1316 C   0  0  0  0  0  0  0  0  0  0  0  0
  -26.5172  -21.6158   21.8143 C   0  0  0  0  0  0  0  0  0  0  0  0
  -26.2516  -10.3235   19.8356 C   0  0  0  0  0  0  0  0  0  0  0  0
  -27.1654  -26.9988   19.8591 C   0  0  0  0  0  0  0  0  0  0  0  0
  -24.1522   -9.4079   20.3616 C   0  0  0  0  0  0  0  0  0  0  0  0
  -21.8299   -9.4735   21.9060 C   0  0  0  0  0  0  0  0  0  0  0  0
  -22.9103   -9.5681   19.7471 C   0  0  0  0  0  0  0  0  0  0  0  0
  -29.1899  -13.2749   20.5793 C   0  0  0  0  0  0  0  0  0  0  0  0
  -30.9241  -14.6194   20.4384 C   0  0  0  0  0  0  0  0  0  0  0  0
  -30.6754  -13.0741   18.4894 C   0  0  0  0  0  0  0  0  0  0  0  0
  -23.7235  -29.8964   22.8957 C   0  0  0  0  0  0  0  0  0  0  0  0
  -21.3008  -28.7226   21.0861 C   0  0  0  0  0  0  0  0  0  0  0  0
  -20.7945  -25.9355   18.8515 C   0  0  0  0  0  0  0  0  0  0  0  0
  -29.0923  -18.6101   24.5091 C   0  0  0  0  0  0  0  0  0  0  0  0
  -24.4496  -33.8189   26.0808 C   0  0  0  0  0  0  0  0  0  0  0  0
  -24.5673  -30.3570   20.5651 C   0  0  0  0  0  0  0  0  0  0  0  0
  -23.5443  -27.5958   20.8363 C   0  0  0  0  0  0  0  0  0  0  0  0
  -23.2487  -33.0024   25.6104 C   0  0  0  0  0  0  0  0  0  0  0  0
  -31.7101  -16.2249   24.8764 C   0  0  0  0  0  0  0  0  0  0  0  0
  -23.5441  -31.5095   25.7149 C   0  0  0  0  0  0  0  0  0  0  0  0
  -31.4594  -15.2292   23.7425 C   0  0  0  0  0  0  0  0  0  0  0  0
  -29.0450  -22.5562   19.8407 C   0  0  0  0  0  0  0  0  0  0  0  0
  -29.8055  -23.7233   19.2139 C   0  0  0  0  0  0  0  0  0  0  0  0
  -29.2105  -24.1967   21.5503 C   0  0  0  0  0  0  0  0  0  0  0  0
  -30.4028  -16.7419   25.4728 C   0  0  0  0  0  0  0  0  0  0  0  0
  -28.6512  -21.3477   22.6052 C   0  0  0  0  0  0  0  0  0  0  0  0
  -29.2074  -16.3159   23.3601 C   0  0  0  0  0  0  0  0  0  0  0  0
  -24.7250  -31.1168   24.8189 C   0  0  1  0  0  0  0  0  0  0  0  0
  -27.7496  -20.3868   23.4139 C   0  0  2  0  0  0  0  0  0  0  0  0
  -23.3635  -30.0292   21.4430 C   0  0  1  0  0  0  0  0  0  0  0  0
  -30.4959  -15.8092   22.6897 C   0  0  2  0  0  0  0  0  0  0  0  0
  -28.2213  -23.2157   20.9335 C   0  0  2  0  0  0  0  0  0  0  0  0
  -29.9787  -24.7746   20.3392 C   0  0  1  0  0  0  0  0  0  0  0  0
  -23.0665  -21.5197   20.3066 C   0  0  0  0  0  0  0  0  0  0  0  0
  -31.4583  -24.9786   20.6837 C   0  0  0  0  0  0  0  0  0  0  0  0
  -19.2199  -25.6604   16.9171 C   0  0  0  0  0  0  0  0  0  0  0  0
  -19.4526  -27.4398   23.1473 C   0  0  0  0  0  0  0  0  0  0  0  0
  -18.7660  -25.7846   21.3988 C   0  0  0  0  0  0  0  0  0  0  0  0
  -18.3110  -28.2139   21.0612 C   0  0  0  0  0  0  0  0  0  0  0  0
  -23.0026  -25.2602   17.0002 C   0  0  0  0  0  0  0  0  0  0  0  0
  -29.3746  -26.1198   19.9086 C   0  0  0  0  0  0  0  0  0  1  0  0
  -20.6838  -27.3604   20.8793 C   0  0  1  0  0  0  0  0  0  0  0  0
  -20.6406  -25.9968   17.3426 C   0  0  2  0  0  0  0  0  0  0  0  0
  -19.3307  -27.2026   21.6288 C   0  0  0  0  0  0  0  0  0  0  0  0
  -29.1409  -14.0026   21.6983 N   0  0  0  0  0  0  0  0  0  0  0  0
  -30.2085  -14.8108   21.5836 N   0  0  0  0  0  0  0  0  0  0  0  0
  -27.7489  -22.2526   21.8938 N   0  0  1  0  0  0  0  0  0  0  0  0
  -22.7011  -28.7833   21.0516 N   0  0  0  0  0  0  0  0  0  0  0  0
  -29.5349  -17.2798   24.4224 N   0  0  0  0  0  0  0  0  0  0  0  0
  -32.0271  -15.3479   20.1641 N   0  0  0  0  0  0  0  0  0  0  0  0
  -29.9016  -12.0476   17.9310 N   0  0  0  0  0  0  0  0  0  0  0  0
  -24.3033  -31.0278   23.4373 N   0  0  0  0  0  0  0  0  0  0  0  0
  -20.5934  -27.1680   19.4360 N   0  0  0  0  0  0  0  0  0  0  0  0
  -28.2786  -19.0423   23.4690 N   0  0  0  0  0  0  0  0  0  0  0  0
  -21.5683  -25.0317   16.6876 N   0  3  0  0  0  0  0  0  0  0  0  0
  -31.6943  -13.4767   17.8783 O   0  0  0  0  0  0  0  0  0  0  0  0
  -23.4909  -28.8459   23.4823 O   0  0  0  0  0  0  0  0  0  0  0  0
  -20.5670  -29.6980   21.2642 O   0  0  0  0  0  0  0  0  0  0  0  0
  -21.0624  -24.8972   19.4521 O   0  0  0  0  0  0  0  0  0  0  0  0
  -29.4039  -19.3589   25.4413 O   0  0  0  0  0  0  0  0  0  0  0  0
  -25.3059   -9.3743   19.5963 O   0  0  0  0  0  0  0  0  0  0  0  0
  -27.9868  -25.9383   19.6303 O   0  0  0  0  0  0  0  0  0  1  0  0
  -20.7148   -9.5035   22.6475 F   0  0  0  0  0  0  0  0  0  0  0  0
  -22.8264   -9.6899   18.4152 F   0  0  0  0  0  0  0  0  0  0  0  0
  1  2  1  0  0  0  0
  1  5  2  0  0  0  0
  2  6  2  0  0  0  0
  3 10  2  0  0  0  0
  3 18  1  0  0  0  0
  4 11  1  0  0  0  0
  4 18  2  0  0  0  0
  5 20  1  0  0  0  0
  6 22  1  0  0  0  0
  7  9  2  0  0  0  0
  7 23  1  0  0  0  0
  8 12  2  0  0  0  0
  8 21  1  0  0  0  0
  9 25  1  0  0  0  0
 10 27  1  0  0  0  0
 11 27  2  0  0  0  0
 12 28  1  0  0  0  0
 13 14  2  0  0  0  0
 13 29  1  0  0  0  0
 14 30  1  0  0  0  0
 15 24  1  0  0  0  0
 15 28  2  0  0  0  0
 16 25  2  0  0  0  0
 16 26  1  0  0  0  0
 17 30  2  0  0  0  0
 17 31  1  0  0  0  0
 18 32  1  0  0  0  0
 19 32  1  0  0  0  0
 19 33  2  0  0  0  0
 19 34  1  0  0  0  0
 20 22  2  0  0  0  0
 20 39  1  0  0  0  0
 21 24  2  0  0  0  0
 21 40  1  0  0  0  0
 22 52  1  0  0  0  0
 23 26  2  0  0  0  0
 23 53  1  0  0  0  0
 24 41  1  0  0  0  0
 25 58  1  0  0  0  0
 26 71  1  0  0  0  0
 27 85  1  0  0  0  0
 28 86  1  0  0  0  0
 29 31  2  0  0  0  0
 29 85  1  0  0  0  0
 30 87  1  0  0  0  0
 31 88  1  0  0  0  0
 32 69  2  0  0  0  0
 33 70  1  0  0  0  0
 33 74  1  0  0  0  0
 34 75  1  0  0  0  0
 34 80  2  0  0  0  0
 35 54  1  0  0  0  0
 35 76  1  0  0  0  0
 35 81  2  0  0  0  0
 36 66  1  0  0  0  0
 36 72  1  0  0  0  0
 36 82  2  0  0  0  0
 37 67  1  0  0  0  0
 37 77  1  0  0  0  0
 37 83  2  0  0  0  0
 38 73  1  0  0  0  0
 38 78  1  0  0  0  0
 38 84  2  0  0  0  0
 39 42  1  0  0  0  0
 40 54  1  0  0  0  0
 41 72  1  0  0  0  0
 42 44  1  0  0  0  0
 43 45  1  0  0  0  0
 43 49  1  0  0  0  0
 44 52  1  0  0  0  0
 45 55  1  0  0  0  0
 46 47  1  0  0  0  0
 46 56  1  0  0  0  0
 47 57  1  0  0  0  0
 48 56  1  0  0  0  0
 48 57  1  0  0  0  0
 49 73  1  0  0  0  0
 50 53  1  0  0  0  0
 50 71  1  0  0  0  0
 51 55  1  0  0  0  0
 51 73  1  0  0  0  0
 52 76  1  0  0  0  0
 53 78  1  0  0  0  0
 54 72  1  0  0  0  0
 55 70  1  0  0  0  0
 56 71  1  0  0  0  0
 57 59  1  0  0  0  0
 57 65  1  0  0  0  0
 60 67  1  0  0  0  0
 61 68  1  0  0  0  0
 62 68  1  0  0  0  0
 63 68  1  0  0  0  0
 64 79  1  0  0  0  0
 65 86  1  0  0  0  0
 66 68  1  0  0  0  0
 66 77  1  0  0  0  0
 67 79  1  0  0  0  0
 69 70  1  0  0  0  0
M  CHG  1  79   1
M  ISO  4  38 100  65 101  78 100  86 101
M  END
> <Batch ID>
0161

> <Smiles>
CNC(C)C(=O)NC(C(=O)N1Cc2cc([101O:1][101CH2:1]C3(C)CCC(N4CC([100NH:0][100C:0](=O)N5CCCC(n6nc(-c7ccc(Oc8ccc(F)cc8F)cc7)c(C(N)=O)c6N)C5)c5ccc(C)cc54)C3)ccc2CC1C(=O)NC1CCCc2ccccc21)C(C)(C)C

> <Shape>
0.296

> <Color>
0.076

> <Negative vol penalty>
0.000

$$$$

  -OEChem-04052322123D

 87 96  0     1  0  0  0  0  0999 V2000
  -30.4845  -34.7944   22.5457 C   0  0  0  0  0  0  0  0  0  0  0  0
  -30.7706  -33.4356   22.4593 C   0  0  0  0  0  0  0  0  0  0  0  0
  -22.8330  -10.2592   20.5997 C   0  0  0  0  0  0  0  0  0  0  0  0
  -24.5410   -9.1000   21.8550 C   0  0  0  0  0  0  0  0  0  0  0  0
  -29.3643  -35.2260   23.2546 C   0  0  0  0  0  0  0  0  0  0  0  0
  -29.9371  -32.5078   23.0828 C   0  0  0  0  0  0  0  0  0  0  0  0
  -27.4428  -25.8374   22.3076 C   0  0  0  0  0  0  0  0  0  0  0  0
  -22.0360   -9.1148   20.6273 C   0  0  0  0  0  0  0  0  0  0  0  0
  -23.7440   -7.9555   21.8826 C   0  0  0  0  0  0  0  0  0  0  0  0
  -27.3310  -24.6405   23.0137 C   0  0  0  0  0  0  0  0  0  0  0  0
  -21.0723   -6.8242   23.6154 C   0  0  0  0  0  0  0  0  0  0  0  0
  -20.9557   -6.1466   24.8290 C   0  0  0  0  0  0  0  0  0  0  0  0
  -25.3797  -25.4968   24.1444 C   0  0  0  0  0  0  0  0  0  0  0  0
  -21.8910   -4.1645   23.8123 C   0  0  0  0  0  0  0  0  0  0  0  0
  -24.0855  -10.2517   21.2135 C   0  0  0  0  0  0  0  0  0  0  0  0
  -24.9281  -12.4799   22.1262 C   0  0  0  0  0  0  0  0  0  0  0  0
  -28.5113  -34.3024   23.8790 C   0  0  0  0  0  0  0  0  0  0  0  0
  -26.5287  -26.8789   22.5229 C   0  0  0  0  0  0  0  0  0  0  0  0
  -28.8051  -32.9276   23.8020 C   0  0  0  0  0  0  0  0  0  0  0  0
  -25.4806  -26.7050   23.4379 C   0  0  0  0  0  0  0  0  0  0  0  0
  -24.1325  -20.7817   22.6684 C   0  0  0  0  0  0  0  0  0  0  0  0
  -24.4358  -20.2103   21.4376 C   0  0  0  0  0  0  0  0  0  0  0  0
  -25.0788  -20.7678   23.6871 C   0  0  0  0  0  0  0  0  0  0  0  0
  -22.4915   -7.9630   21.2688 C   0  0  0  0  0  0  0  0  0  0  0  0
  -26.3010  -24.4711   23.9344 C   0  0  0  0  0  0  0  0  0  0  0  0
  -21.5981   -6.1719   22.5001 C   0  0  0  0  0  0  0  0  0  0  0  0
  -21.3651   -4.8168   24.9275 C   0  0  0  0  0  0  0  0  0  0  0  0
  -22.0075   -4.8421   22.5986 C   0  0  0  0  0  0  0  0  0  0  0  0
  -24.9095  -11.4334   21.1848 C   0  0  0  0  0  0  0  0  0  0  0  0
  -25.6895  -19.6424   21.2775 C   0  0  0  0  0  0  0  0  0  0  0  0
  -26.3036  -20.1748   23.4263 C   0  0  0  0  0  0  0  0  0  0  0  0
  -25.8736  -13.3544   21.6489 C   0  0  0  0  0  0  0  0  0  0  0  0
  -24.1595  -12.6465   23.3250 C   0  0  0  0  0  0  0  0  0  0  0  0
  -26.7435  -29.8694   23.5786 C   0  0  0  0  0  0  0  0  0  0  0  0
  -23.6051  -29.9695   22.7642 C   0  0  0  0  0  0  0  0  0  0  0  0
  -20.7017  -28.2659   22.2035 C   0  0  0  0  0  0  0  0  0  0  0  0
  -28.3141  -16.1523   17.6328 C   0  0  0  0  0  0  0  0  0  0  0  0
  -27.3385  -34.8195   24.6739 C   0  0  0  0  0  0  0  0  0  0  0  0
  -26.6473  -28.1538   21.7337 C   0  0  0  0  0  0  0  0  0  0  0  0
  -24.4614  -27.7847   23.6908 C   0  0  0  0  0  0  0  0  0  0  0  0
  -26.2977  -33.7487   24.9907 C   0  0  0  0  0  0  0  0  0  0  0  0
  -29.2810  -12.8488   17.9543 C   0  0  0  0  0  0  0  0  0  0  0  0
  -26.9745  -32.4815   25.5036 C   0  0  0  0  0  0  0  0  0  0  0  0
  -28.2371  -12.2570   18.9014 C   0  0  0  0  0  0  0  0  0  0  0  0
  -27.5813  -19.1581   19.6634 C   0  0  0  0  0  0  0  0  0  0  0  0
  -25.6633  -17.5238   19.8889 C   0  0  0  0  0  0  0  0  0  0  0  0
  -28.6330  -13.7933   16.9481 C   0  0  0  0  0  0  0  0  0  0  0  0
  -27.9658  -18.4895   18.3457 C   0  0  0  0  0  0  0  0  0  0  0  0
  -26.0895  -16.8937   18.5662 C   0  0  0  0  0  0  0  0  0  0  0  0
  -26.8041  -14.3233   18.5256 C   0  0  0  0  0  0  0  0  0  0  0  0
  -27.9112  -31.8889   24.4440 C   0  0  1  0  0  0  0  0  0  0  0  0
  -26.0791  -19.0039   19.9575 C   0  0  0  0  0  0  0  0  0  0  0  0
  -25.9644  -29.3397   22.4081 C   0  0  1  0  0  0  0  0  0  0  0  0
  -27.4087  -13.3666   19.5727 C   0  0  1  0  0  0  0  0  0  0  0  0
  -22.7932  -21.4065   22.8969 C   0  0  0  0  0  0  0  0  0  0  0  0
  -23.4417  -20.2107   20.3250 C   0  0  0  0  0  0  0  0  0  0  0  0
  -27.3596  -20.1270   24.4818 C   0  0  0  0  0  0  0  0  0  0  0  0
  -18.2949  -28.6236   21.5895 C   0  0  0  0  0  0  0  0  0  0  0  0
  -23.0298  -30.9446   25.5976 C   0  0  0  0  0  0  0  0  0  0  0  0
  -20.6196  -30.3759   25.2291 C   0  0  0  0  0  0  0  0  0  0  0  0
  -21.7223  -32.1052   23.8093 C   0  0  0  0  0  0  0  0  0  0  0  0
  -20.9710  -26.6540   19.7360 C   0  0  0  0  0  0  0  0  0  0  0  0
  -24.7838  -21.3725   25.0189 C   0  0  0  0  0  0  0  0  0  0  0  0
  -24.8784  -22.9011   25.0148 C   0  0  0  0  0  0  0  0  0  1  0  0
  -22.3066  -29.6685   23.4728 C   0  0  1  0  0  0  0  0  0  0  0  0
  -19.6950  -28.3370   21.0694 C   0  0  2  0  0  0  0  0  0  0  0  0
  -21.9398  -30.7538   24.5241 C   0  0  0  0  0  0  0  0  0  0  0  0
  -25.7744  -11.6239   20.1849 N   0  0  0  0  0  0  0  0  0  0  0  0
  -26.6345  -19.6098   22.2436 N   0  0  0  0  0  0  0  0  0  0  0  0
  -26.3452  -12.8003   20.4954 N   0  0  0  0  0  0  0  0  0  0  0  0
  -24.6235  -29.0154   22.8992 N   0  0  0  0  0  0  0  0  0  0  0  0
  -27.8509  -14.8279   17.6245 N   0  0  0  0  0  0  0  0  0  0  0  0
  -27.5208  -17.0971   18.3043 N   0  0  0  0  0  0  0  0  0  0  0  0
  -26.3391  -14.5356   22.1076 N   0  0  0  0  0  0  0  0  0  0  0  0
  -23.2323  -11.6530   23.6678 N   0  0  0  0  0  0  0  0  0  0  0  0
  -27.1508  -31.1820   23.4357 N   0  0  0  0  0  0  0  0  0  0  0  0
  -21.3046  -29.4854   22.4284 N   0  0  0  0  0  0  0  0  0  0  0  0
  -19.6642  -27.0477   20.3226 N   0  3  0  0  0  0  0  0  0  0  0  0
  -24.2793  -13.6548   24.0616 O   0  0  0  0  0  0  0  0  0  0  0  0
  -26.9578  -29.1415   24.5409 O   0  0  0  0  0  0  0  0  0  0  0  0
  -23.7095  -31.0094   22.1089 O   0  0  0  0  0  0  0  0  0  0  0  0
  -20.9277  -27.2328   22.8297 O   0  0  0  0  0  0  0  0  0  0  0  0
  -29.3737  -16.4728   17.0800 O   0  0  0  0  0  0  0  0  0  0  0  0
  -21.7139   -6.8462   21.2961 O   0  0  0  0  0  0  0  0  0  0  0  0
  -26.1892  -23.2958   24.6303 O   0  0  0  0  0  0  0  0  0  1  0  0
  -21.2545   -4.1668   26.0934 F   0  0  0  0  0  0  0  0  0  0  0  0
  -22.5145   -4.2106   21.5310 F   0  0  0  0  0  0  0  0  0  0  0  0
  1  2  1  0  0  0  0
  1  5  2  0  0  0  0
  2  6  2  0  0  0  0
  3  8  2  0  0  0  0
  3 15  1  0  0  0  0
  4  9  1  0  0  0  0
  4 15  2  0  0  0  0
  5 17  1  0  0  0  0
  6 19  1  0  0  0  0
  7 10  2  0  0  0  0
  7 18  1  0  0  0  0
  8 24  1  0  0  0  0
  9 24  2  0  0  0  0
 10 25  1  0  0  0  0
 11 12  2  0  0  0  0
 11 26  1  0  0  0  0
 12 27  1  0  0  0  0
 13 20  1  0  0  0  0
 13 25  2  0  0  0  0
 14 27  2  0  0  0  0
 14 28  1  0  0  0  0
 15 29  1  0  0  0  0
 16 29  1  0  0  0  0
 16 32  2  0  0  0  0
 16 33  1  0  0  0  0
 17 19  2  0  0  0  0
 17 38  1  0  0  0  0
 18 20  2  0  0  0  0
 18 39  1  0  0  0  0
 19 51  1  0  0  0  0
 20 40  1  0  0  0  0
 21 22  1  0  0  0  0
 21 23  2  0  0  0  0
 21 55  1  0  0  0  0
 22 30  2  0  0  0  0
 22 56  1  0  0  0  0
 23 31  1  0  0  0  0
 23 63  1  0  0  0  0
 24 84  1  0  0  0  0
 25 85  1  0  0  0  0
 26 28  2  0  0  0  0
 26 84  1  0  0  0  0
 27 86  1  0  0  0  0
 28 87  1  0  0  0  0
 29 68  2  0  0  0  0
 30 52  1  0  0  0  0
 30 69  1  0  0  0  0
 31 57  1  0  0  0  0
 31 69  2  0  0  0  0
 32 70  1  0  0  0  0
 32 74  1  0  0  0  0
 33 75  1  0  0  0  0
 33 79  2  0  0  0  0
 34 53  1  0  0  0  0
 34 76  1  0  0  0  0
 34 80  2  0  0  0  0
 35 65  1  0  0  0  0
 35 71  1  0  0  0  0
 35 81  2  0  0  0  0
 36 66  1  0  0  0  0
 36 77  1  0  0  0  0
 36 82  2  0  0  0  0
 37 72  1  0  0  0  0
 37 73  1  0  0  0  0
 37 83  2  0  0  0  0
 38 41  1  0  0  0  0
 39 53  1  0  0  0  0
 40 71  1  0  0  0  0
 41 43  1  0  0  0  0
 42 44  1  0  0  0  0
 42 47  1  0  0  0  0
 43 51  1  0  0  0  0
 44 54  1  0  0  0  0
 45 48  1  0  0  0  0
 45 52  1  0  0  0  0
 46 49  1  0  0  0  0
 46 52  1  0  0  0  0
 47 72  1  0  0  0  0
 48 73  1  0  0  0  0
 49 73  1  0  0  0  0
 50 54  1  0  0  0  0
 50 72  1  0  0  0  0
 51 76  1  0  0  0  0
 53 71  1  0  0  0  0
 54 70  1  0  0  0  0
 58 66  1  0  0  0  0
 59 67  1  0  0  0  0
 60 67  1  0  0  0  0
 61 67  1  0  0  0  0
 62 78  1  0  0  0  0
 63 64  1  0  0  0  0
 64 85  1  0  0  0  0
 65 67  1  0  0  0  0
 65 77  1  0  0  0  0
 66 78  1  0  0  0  0
 68 70  1  0  0  0  0
M  CHG  1  78   1
M  ISO  4  37 100  64 101  73 100  85 101
M  END
> <Batch ID>
0161

> <Smiles>
CNC(C)C(=O)NC(C(=O)N1Cc2cc([101O:1][101CH2:1]Cc3c(C)nc(C4CC[100N:0]([100C:0](=O)N5CCCC(n6nc(-c7ccc(Oc8ccc(F)cc8F)cc7)c(C(N)=O)c6N)C5)CC4)c(C)c3C)ccc2CC1C(=O)NC1CCCc2ccccc21)C(C)(C)C

> <Shape>
0.251

> <Color>
0.108

> <Negative vol penalty>
0.000

$$$$

  -OEChem-04052322123D

 91101  0     1  0  0  0  0  0999 V2000
  -21.9504  -12.8011   22.6916 C   0  0  0  0  0  0  0  0  0  0  0  0
  -22.3155  -14.1066   23.0044 C   0  0  0  0  0  0  0  0  0  0  0  0
  -29.6525  -28.7080   25.0605 C   0  0  0  0  0  0  0  0  0  0  0  0
  -27.9677  -27.2968   26.0641 C   0  0  0  0  0  0  0  0  0  0  0  0
  -22.8266  -11.9858   21.9765 C   0  0  0  0  0  0  0  0  0  0  0  0
  -23.5576  -14.5972   22.6032 C   0  0  0  0  0  0  0  0  0  0  0  0
  -23.2636  -19.2535   20.6342 C   0  0  0  0  0  0  0  0  0  0  0  0
  -30.2605  -28.8676   26.3056 C   0  0  0  0  0  0  0  0  0  0  0  0
  -28.5757  -27.4565   27.3093 C   0  0  0  0  0  0  0  0  0  0  0  0
  -23.1407  -20.3163   21.5282 C   0  0  0  0  0  0  0  0  0  0  0  0
  -32.3096  -27.0893   28.3235 C   0  0  0  0  0  0  0  0  0  0  0  0
  -33.6978  -26.9697   28.3871 C   0  0  0  0  0  0  0  0  0  0  0  0
  -25.4991  -20.7706   21.3029 C   0  0  0  0  0  0  0  0  0  0  0  0
  -33.8545  -29.2321   29.2201 C   0  0  0  0  0  0  0  0  0  0  0  0
  -28.5060  -27.9226   24.9397 C   0  0  0  0  0  0  0  0  0  0  0  0
  -28.1445  -26.7588   22.6986 C   0  0  0  0  0  0  0  0  0  0  0  0
  -24.0761  -12.4697   21.5580 C   0  0  0  0  0  0  0  0  0  0  0  0
  -24.5093  -18.9340   20.0753 C   0  0  0  0  0  0  0  0  0  0  0  0
  -24.4519  -13.7871   21.8830 C   0  0  0  0  0  0  0  0  0  0  0  0
  -25.6346  -19.7049   20.4001 C   0  0  0  0  0  0  0  0  0  0  0  0
  -17.7932  -27.2879   22.7397 C   0  0  0  0  0  0  0  0  0  0  0  0
  -19.3524  -29.1294   22.8613 C   0  0  0  0  0  0  0  0  0  0  0  0
  -18.0679  -28.6196   23.0505 C   0  0  0  0  0  0  0  0  0  0  0  0
  -18.8032  -26.4658   22.2399 C   0  0  0  0  0  0  0  0  0  0  0  0
  -20.0877  -26.9755   22.0506 C   0  0  0  0  0  0  0  0  0  0  0  0
  -20.3624  -28.3073   22.3614 C   0  0  0  0  0  0  0  0  0  0  0  0
  -29.7222  -28.2419   27.4300 C   0  0  0  0  0  0  0  0  0  0  0  0
  -24.2591  -21.0732   21.8649 C   0  0  0  0  0  0  0  0  0  0  0  0
  -31.6938  -28.2803   28.7081 C   0  0  0  0  0  0  0  0  0  0  0  0
  -34.4703  -28.0411   28.8354 C   0  0  0  0  0  0  0  0  0  0  0  0
  -32.4663  -29.3517   29.1565 C   0  0  0  0  0  0  0  0  0  0  0  0
  -27.8771  -27.7578   23.6539 C   0  0  0  0  0  0  0  0  0  0  0  0
  -27.2900  -27.0391   21.6604 C   0  0  0  0  0  0  0  0  0  0  0  0
  -29.0813  -25.6745   22.7456 C   0  0  0  0  0  0  0  0  0  0  0  0
  -26.4206  -16.3955   20.1587 C   0  0  0  0  0  0  0  0  0  0  0  0
  -28.1280  -18.0959   17.9871 C   0  0  0  0  0  0  0  0  0  0  0  0
  -28.9306  -21.1430   16.6763 C   0  0  0  0  0  0  0  0  0  0  0  0
  -22.0444  -29.8833   21.3448 C   0  0  0  0  0  0  0  0  0  0  0  0
  -25.0089  -11.5358   20.8282 C   0  0  0  0  0  0  0  0  0  0  0  0
  -24.6200  -17.8012   19.0919 C   0  0  0  0  0  0  0  0  0  0  0  0
  -26.9907  -19.4156   19.8120 C   0  0  0  0  0  0  0  0  0  0  0  0
  -26.1531  -12.2520   20.1155 C   0  0  0  0  0  0  0  0  0  0  0  0
  -25.0181  -30.6963   19.5634 C   0  0  0  0  0  0  0  0  0  0  0  0
  -15.7106  -26.0971   21.7812 C   0  0  0  0  0  0  0  0  0  0  0  0
  -15.2534  -27.4304   22.2848 C   0  0  0  0  0  0  0  0  0  0  0  0
  -20.7604  -30.8658   24.1559 C   0  0  0  0  0  0  0  0  0  0  0  0
  -19.3386  -31.0569   24.5826 C   0  0  0  0  0  0  0  0  0  0  0  0
  -26.7926  -13.2856   21.0373 C   0  0  0  0  0  0  0  0  0  0  0  0
  -26.1122  -29.9393   20.3196 C   0  0  0  0  0  0  0  0  0  0  0  0
  -23.9493  -31.2423   20.5086 C   0  0  0  0  0  0  0  0  0  0  0  0
  -24.4492  -29.4929   22.1696 C   0  0  0  0  0  0  0  0  0  0  0  0
  -16.4156  -26.7401   22.9434 C   0  0  0  0  0  0  0  0  0  0  0  0
  -19.6439  -30.5594   23.1974 C   0  0  0  0  0  0  0  0  0  0  0  0
  -25.7805  -14.3634   21.4438 C   0  0  1  0  0  0  0  0  0  0  0  0
  -26.0356  -17.2437   18.9796 C   0  0  1  0  0  0  0  0  0  0  0  0
  -25.5143  -28.8686   21.2533 C   0  0  2  0  0  0  0  0  0  0  0  0
  -16.9845  -29.5016   23.5881 C   0  0  0  0  0  0  0  0  0  0  0  0
  -18.5098  -25.0363   21.9071 C   0  0  0  0  0  0  0  0  0  0  0  0
  -21.6836  -26.5818   20.1448 C   0  0  0  0  0  0  0  0  0  0  0  0
  -30.3841  -22.2176   14.9357 C   0  0  0  0  0  0  0  0  0  0  0  0
  -30.5627  -17.7096   19.7851 C   0  0  0  0  0  0  0  0  0  0  0  0
  -31.6986  -19.5506   18.5247 C   0  0  0  0  0  0  0  0  0  0  0  0
  -31.0224  -17.4625   17.3393 C   0  0  0  0  0  0  0  0  0  0  0  0
  -26.5909  -22.2362   15.2309 C   0  0  0  0  0  0  0  0  0  0  0  0
  -24.3557  -24.4936   22.9800 C   0  0  0  0  0  0  0  0  0  0  0  0
  -22.3656  -25.9155   22.4739 C   0  0  0  0  0  0  0  0  0  0  0  0
  -25.0418  -23.2055   22.5697 C   0  0  0  0  0  0  0  0  0  1  0  0
  -21.1876  -26.0734   21.5037 C   0  0  1  0  0  0  0  0  0  0  0  0
  -29.2448  -19.1089   18.0614 C   0  0  1  0  0  0  0  0  0  0  0  0
  -29.0144  -21.6319   15.2416 C   0  0  2  0  0  0  0  0  0  0  0  0
  -30.6071  -18.4624   18.4404 C   0  0  0  0  0  0  0  0  0  0  0  0
  -26.9273  -28.6091   23.2577 N   0  0  0  0  0  0  0  0  0  0  0  0
  -26.5904  -28.1460   22.0419 N   0  0  0  0  0  0  0  0  0  0  0  0
  -27.0489  -18.2940   18.8602 N   0  0  0  0  0  0  0  0  0  0  0  0
  -23.4256  -30.1712   21.3590 N   0  0  0  0  0  0  0  0  0  0  0  0
  -27.0765  -26.4444   20.4675 N   0  0  0  0  0  0  0  0  0  0  0  0
  -29.8818  -25.5321   23.8872 N   0  0  0  0  0  0  0  0  0  0  0  0
  -21.6679  -28.8233   22.1690 N   0  0  0  0  0  0  0  0  0  0  0  0
  -25.5904  -15.3105   20.3662 N   0  0  0  0  0  0  0  0  0  0  0  0
  -29.2500  -19.8056   16.7796 N   0  0  0  0  0  0  0  0  0  0  0  0
  -27.9875  -22.6826   14.9917 N   0  3  0  0  0  0  0  0  0  0  0  0
  -23.1449  -24.6917   22.1439 N   0  3  0  0  0  0  0  0  0  0  0  0
  -29.2165  -24.8658   21.7962 O   0  0  0  0  0  0  0  0  0  0  0  0
  -27.3992  -16.7019   20.8295 O   0  0  0  0  0  0  0  0  0  0  0  0
  -28.2067  -17.1672   17.1790 O   0  0  0  0  0  0  0  0  0  0  0  0
  -28.6171  -21.8751   17.6124 O   0  0  0  0  0  0  0  0  0  0  0  0
  -21.2578  -30.5117   20.6319 O   0  0  0  0  0  0  0  0  0  0  0  0
  -30.3154  -28.3973   28.6452 O   0  0  0  0  0  0  0  0  0  0  0  0
  -24.1421  -22.1106   22.7378 O   0  0  0  0  0  0  0  0  0  1  0  0
  -35.8033  -27.9256   28.8979 F   0  0  0  0  0  0  0  0  0  0  0  0
  -31.8803  -30.4981   29.5285 F   0  0  0  0  0  0  0  0  0  0  0  0
  1  2  1  0  0  0  0
  1  5  2  0  0  0  0
  2  6  2  0  0  0  0
  3  8  2  0  0  0  0
  3 15  1  0  0  0  0
  4  9  1  0  0  0  0
  4 15  2  0  0  0  0
  5 17  1  0  0  0  0
  6 19  1  0  0  0  0
  7 10  2  0  0  0  0
  7 18  1  0  0  0  0
  8 27  1  0  0  0  0
  9 27  2  0  0  0  0
 10 28  1  0  0  0  0
 11 12  2  0  0  0  0
 11 29  1  0  0  0  0
 12 30  1  0  0  0  0
 13 20  1  0  0  0  0
 13 28  2  0  0  0  0
 14 30  2  0  0  0  0
 14 31  1  0  0  0  0
 15 32  1  0  0  0  0
 16 32  1  0  0  0  0
 16 33  2  0  0  0  0
 16 34  1  0  0  0  0
 17 19  2  0  0  0  0
 17 39  1  0  0  0  0
 18 20  2  0  0  0  0
 18 40  1  0  0  0  0
 19 54  1  0  0  0  0
 20 41  1  0  0  0  0
 21 23  1  0  0  0  0
 21 24  2  0  0  0  0
 21 52  1  0  0  0  0
 22 23  2  0  0  0  0
 22 26  1  0  0  0  0
 22 53  1  0  0  0  0
 23 57  1  0  0  0  0
 24 25  1  0  0  0  0
 24 58  1  0  0  0  0
 25 26  2  0  0  0  0
 25 68  1  0  0  0  0
 26 78  1  0  0  0  0
 27 88  1  0  0  0  0
 28 89  1  0  0  0  0
 29 31  2  0  0  0  0
 29 88  1  0  0  0  0
 30 90  1  0  0  0  0
 31 91  1  0  0  0  0
 32 72  2  0  0  0  0
 33 73  1  0  0  0  0
 33 76  1  0  0  0  0
 34 77  1  0  0  0  0
 34 83  2  0  0  0  0
 35 55  1  0  0  0  0
 35 79  1  0  0  0  0
 35 84  2  0  0  0  0
 36 69  1  0  0  0  0
 36 74  1  0  0  0  0
 36 85  2  0  0  0  0
 37 70  1  0  0  0  0
 37 80  1  0  0  0  0
 37 86  2  0  0  0  0
 38 75  1  0  0  0  0
 38 78  1  0  0  0  0
 38 87  2  0  0  0  0
 39 42  1  0  0  0  0
 40 55  1  0  0  0  0
 41 74  1  0  0  0  0
 42 48  1  0  0  0  0
 43 49  1  0  0  0  0
 43 50  1  0  0  0  0
 44 45  1  0  0  0  0
 44 52  1  0  0  0  0
 45 52  1  0  0  0  0
 46 47  1  0  0  0  0
 46 53  1  0  0  0  0
 47 53  1  0  0  0  0
 48 54  1  0  0  0  0
 49 56  1  0  0  0  0
 50 75  1  0  0  0  0
 51 56  1  0  0  0  0
 51 75  1  0  0  0  0
 54 79  1  0  0  0  0
 55 74  1  0  0  0  0
 56 73  1  0  0  0  0
 59 68  1  0  0  0  0
 60 70  1  0  0  0  0
 61 71  1  0  0  0  0
 62 71  1  0  0  0  0
 63 71  1  0  0  0  0
 64 81  1  0  0  0  0
 65 67  1  0  0  0  0
 65 82  1  0  0  0  0
 66 68  1  0  0  0  0
 66 82  1  0  0  0  0
 67 89  1  0  0  0  0
 69 71  1  0  0  0  0
 69 80  1  0  0  0  0
 70 81  1  0  0  0  0
 72 73  1  0  0  0  0
M  CHG  2  81   1  82   1
M  ISO  4  38 100  67 101  78 100  89 101
M  END
> <Batch ID>
0161

> <Smiles>
CNC(C)C(=O)NC(C(=O)N1Cc2cc([101O:1][101CH2:1]CNCC(C)c3c(C)c(C4CC4)c(C)c(C4CC4)c3[100NH:0][100C:0](=O)N3CCCC(n4nc(-c5ccc(Oc6ccc(F)cc6F)cc5)c(C(N)=O)c4N)C3)ccc2CC1C(=O)NC1CCCc2ccccc21)C(C)(C)C

> <Shape>
0.202

> <Color>
0.084

> <Negative vol penalty>
0.000

$$$$

  -OEChem-04052322123D

 88 97  0     1  0  0  0  0  0999 V2000
  -24.0094   -8.1672   21.0840 C   0  0  0  0  0  0  0  0  0  0  0  0
  -24.4975   -9.2984   20.4377 C   0  0  0  0  0  0  0  0  0  0  0  0
  -25.0183  -33.5520   23.9973 C   0  0  0  0  0  0  0  0  0  0  0  0
  -24.5077  -34.2840   21.7522 C   0  0  0  0  0  0  0  0  0  0  0  0
  -22.7804   -8.2167   21.7404 C   0  0  0  0  0  0  0  0  0  0  0  0
  -23.7563  -10.4794   20.4465 C   0  0  0  0  0  0  0  0  0  0  0  0
  -26.6007  -14.5510   21.4342 C   0  0  0  0  0  0  0  0  0  0  0  0
  -25.4630  -34.8354   24.3147 C   0  0  0  0  0  0  0  0  0  0  0  0
  -24.9524  -35.5675   22.0695 C   0  0  0  0  0  0  0  0  0  0  0  0
  -27.3764  -15.0542   20.3907 C   0  0  0  0  0  0  0  0  0  0  0  0
  -26.3959  -38.0092   25.8219 C   0  0  0  0  0  0  0  0  0  0  0  0
  -25.9817  -38.5574   27.0358 C   0  0  0  0  0  0  0  0  0  0  0  0
  -27.2556  -24.0607   21.0774 C   0  0  0  0  0  0  0  0  0  0  0  0
  -25.7222  -16.7644   19.9936 C   0  0  0  0  0  0  0  0  0  0  0  0
  -23.6773  -38.3683   26.3348 C   0  0  0  0  0  0  0  0  0  0  0  0
  -24.5407  -33.2763   22.7161 C   0  0  0  0  0  0  0  0  0  0  0  0
  -28.0427  -25.1966   21.2666 C   0  0  0  0  0  0  0  0  0  0  0  0
  -22.7740  -31.4465   22.5203 C   0  0  0  0  0  0  0  0  0  0  0  0
  -22.0282   -9.4017   21.7655 C   0  0  0  0  0  0  0  0  0  0  0  0
  -25.3727  -15.1452   21.7587 C   0  0  0  0  0  0  0  0  0  0  0  0
  -22.5154  -10.5444   21.1027 C   0  0  0  0  0  0  0  0  0  0  0  0
  -24.9340  -16.2685   21.0434 C   0  0  0  0  0  0  0  0  0  0  0  0
  -29.1479  -22.9101   20.1120 C   0  0  0  0  0  0  0  0  0  0  0  0
  -27.8082  -22.9174   20.5000 C   0  0  0  0  0  0  0  0  0  0  0  0
  -29.3825  -25.1892   20.8786 C   0  0  0  0  0  0  0  0  0  0  0  0
  -29.9351  -24.0459   20.3013 C   0  0  0  0  0  0  0  0  0  0  0  0
  -25.4301  -35.8432   23.3508 C   0  0  0  0  0  0  0  0  0  0  0  0
  -26.9358  -16.1593   19.6683 C   0  0  0  0  0  0  0  0  0  0  0  0
  -25.4509  -37.6406   24.8645 C   0  0  0  0  0  0  0  0  0  0  0  0
  -24.6224  -38.7370   27.2922 C   0  0  0  0  0  0  0  0  0  0  0  0
  -24.0916  -37.8201   25.1209 C   0  0  0  0  0  0  0  0  0  0  0  0
  -24.0817  -31.9506   22.3875 C   0  0  0  0  0  0  0  0  0  0  0  0
  -22.8594  -30.1493   22.0771 C   0  0  0  0  0  0  0  0  0  0  0  0
  -27.4329  -26.3846   21.8765 C   0  0  0  0  0  0  0  0  0  0  0  0
  -21.5881  -32.0931   23.0013 C   0  0  0  0  0  0  0  0  0  0  0  0
  -22.3464  -14.1730   21.7793 C   0  0  0  0  0  0  0  0  0  0  0  0
  -21.8300  -17.0785   23.1261 C   0  0  0  0  0  0  0  0  0  0  0  0
  -22.8856  -20.2927   23.5747 C   0  0  0  0  0  0  0  0  0  0  0  0
  -20.6831   -9.3934   22.4478 C   0  0  0  0  0  0  0  0  0  0  0  0
  -24.5604  -14.6068   22.9045 C   0  0  0  0  0  0  0  0  0  0  0  0
  -23.6327  -16.9551   21.3652 C   0  0  0  0  0  0  0  0  0  0  0  0
  -20.1342  -10.7898   22.7290 C   0  0  0  0  0  0  0  0  0  0  0  0
  -25.3362  -27.3642   19.0817 C   0  0  0  0  0  0  0  0  0  0  0  0
  -20.2782  -11.6780   21.4972 C   0  0  0  0  0  0  0  0  0  0  0  0
  -24.6677  -28.6252   19.6308 C   0  0  0  0  0  0  0  0  0  0  0  0
  -29.6655  -20.5050   20.4786 C   0  0  0  0  0  0  0  0  0  0  0  0
  -29.0060  -21.3415   18.1869 C   0  0  0  0  0  0  0  0  0  0  0  0
  -26.7768  -27.2418   19.5688 C   0  0  0  0  0  0  0  0  0  0  0  0
  -26.2547  -28.5411   21.6065 C   0  0  0  0  0  0  0  0  0  0  0  0
  -30.1842  -19.2184   19.8491 C   0  0  0  0  0  0  0  0  0  0  0  0
  -29.5301  -20.0486   17.5749 C   0  0  0  0  0  0  0  0  0  0  0  0
  -29.7382  -21.6836   19.4944 C   0  0  0  0  0  0  0  0  0  0  0  0
  -21.7521  -11.8511   21.1111 C   0  0  1  0  0  0  0  0  0  0  0  0
  -23.0828  -14.9754   22.8145 C   0  0  1  0  0  0  0  0  0  0  0  0
  -24.7894  -28.6975   21.1641 C   0  0  1  0  0  0  0  0  0  0  0  0
  -26.9440  -21.7139   20.3097 C   0  0  0  0  0  0  0  0  0  0  0  0
  -31.3723  -24.0381   19.8845 C   0  0  0  0  0  0  0  0  0  0  0  0
  -31.1607  -26.2686   22.2784 C   0  0  0  0  0  0  0  0  0  0  0  0
  -22.2342  -22.4418   24.6947 C   0  0  0  0  0  0  0  0  0  0  0  0
  -19.7445  -17.5750   20.9549 C   0  0  0  0  0  0  0  0  0  0  0  0
  -19.8276  -20.0104   21.5296 C   0  0  0  0  0  0  0  0  0  0  0  0
  -19.0800  -18.3526   23.2370 C   0  0  0  0  0  0  0  0  0  0  0  0
  -25.3296  -20.2986   25.2438 C   0  0  0  0  0  0  0  0  0  0  0  0
  -30.2278  -26.4072   21.0804 C   0  0  0  0  0  0  0  0  0  0  0  0
  -29.7975  -17.6048   17.9886 C   0  0  0  0  0  0  0  0  0  0  0  0
  -29.1051  -16.4936   18.7527 C   0  0  0  0  0  0  0  0  0  1  0  0
  -21.5247  -18.4608   22.6018 C   0  0  1  0  0  0  0  0  0  0  0  0
  -23.0172  -21.1445   24.8243 C   0  0  2  0  0  0  0  0  0  0  0  0
  -20.0679  -18.5858   22.0732 C   0  0  0  0  0  0  0  0  0  0  0  0
  -24.9353  -31.0473   21.8983 N   0  0  0  0  0  0  0  0  0  0  0  0
  -24.1623  -29.9625   21.7199 N   0  0  0  0  0  0  0  0  0  0  0  0
  -26.8382  -27.3265   21.0334 N   0  0  0  0  0  0  0  0  0  0  0  0
  -22.8712  -16.3875   22.4902 N   0  0  0  0  0  0  0  0  0  0  0  0
  -21.9463  -29.1617   21.9619 N   0  0  0  0  0  0  0  0  0  0  0  0
  -21.6771  -33.4285   23.4172 N   0  0  0  0  0  0  0  0  0  0  0  0
  -22.3949  -12.8076   21.9865 N   0  0  0  0  0  0  0  0  0  0  0  0
  -21.8507  -19.3876   23.6802 N   0  0  0  0  0  0  0  0  0  0  0  0
  -29.4172  -18.9143   18.5760 N   0  3  0  0  0  0  0  0  0  0  0  0
  -24.4474  -21.4816   25.0732 N   0  3  0  0  0  0  0  0  0  0  0  0
  -27.4862  -26.4523   23.1036 O   0  0  0  0  0  0  0  0  0  0  0  0
  -20.4858  -31.4990   23.0758 O   0  0  0  0  0  0  0  0  0  0  0  0
  -21.7753  -14.7500   20.8614 O   0  0  0  0  0  0  0  0  0  0  0  0
  -21.1737  -16.6311   24.0699 O   0  0  0  0  0  0  0  0  0  0  0  0
  -23.6244  -20.4201   22.6009 O   0  0  0  0  0  0  0  0  0  0  0  0
  -25.8637  -37.0957   23.6602 O   0  0  0  0  0  0  0  0  0  0  0  0
  -27.6907  -16.6520   18.6489 O   0  0  0  0  0  0  0  0  0  1  0  0
  -24.2246  -39.2620   28.4585 F   0  0  0  0  0  0  0  0  0  0  0  0
  -23.1790  -37.4667   24.2054 F   0  0  0  0  0  0  0  0  0  0  0  0
  1  2  1  0  0  0  0
  1  5  2  0  0  0  0
  2  6  2  0  0  0  0
  3  8  2  0  0  0  0
  3 16  1  0  0  0  0
  4  9  1  0  0  0  0
  4 16  2  0  0  0  0
  5 19  1  0  0  0  0
  6 21  1  0  0  0  0
  7 10  2  0  0  0  0
  7 20  1  0  0  0  0
  8 27  1  0  0  0  0
  9 27  2  0  0  0  0
 10 28  1  0  0  0  0
 11 12  2  0  0  0  0
 11 29  1  0  0  0  0
 12 30  1  0  0  0  0
 13 17  1  0  0  0  0
 13 24  2  0  0  0  0
 14 22  1  0  0  0  0
 14 28  2  0  0  0  0
 15 30  2  0  0  0  0
 15 31  1  0  0  0  0
 16 32  1  0  0  0  0
 17 25  2  0  0  0  0
 17 34  1  0  0  0  0
 18 32  1  0  0  0  0
 18 33  2  0  0  0  0
 18 35  1  0  0  0  0
 19 21  2  0  0  0  0
 19 39  1  0  0  0  0
 20 22  2  0  0  0  0
 20 40  1  0  0  0  0
 21 53  1  0  0  0  0
 22 41  1  0  0  0  0
 23 24  1  0  0  0  0
 23 26  2  0  0  0  0
 23 52  1  0  0  0  0
 24 56  1  0  0  0  0
 25 26  1  0  0  0  0
 25 64  1  0  0  0  0
 26 57  1  0  0  0  0
 27 85  1  0  0  0  0
 28 86  1  0  0  0  0
 29 31  2  0  0  0  0
 29 85  1  0  0  0  0
 30 87  1  0  0  0  0
 31 88  1  0  0  0  0
 32 70  2  0  0  0  0
 33 71  1  0  0  0  0
 33 74  1  0  0  0  0
 34 72  1  0  0  0  0
 34 80  2  0  0  0  0
 35 75  1  0  0  0  0
 35 81  2  0  0  0  0
 36 54  1  0  0  0  0
 36 76  1  0  0  0  0
 36 82  2  0  0  0  0
 37 67  1  0  0  0  0
 37 73  1  0  0  0  0
 37 83  2  0  0  0  0
 38 68  1  0  0  0  0
 38 77  1  0  0  0  0
 38 84  2  0  0  0  0
 39 42  1  0  0  0  0
 40 54  1  0  0  0  0
 41 73  1  0  0  0  0
 42 44  1  0  0  0  0
 43 45  1  0  0  0  0
 43 48  1  0  0  0  0
 44 53  1  0  0  0  0
 45 55  1  0  0  0  0
 46 50  1  0  0  0  0
 46 52  1  0  0  0  0
 47 51  1  0  0  0  0
 47 52  1  0  0  0  0
 48 72  1  0  0  0  0
 49 55  1  0  0  0  0
 49 72  1  0  0  0  0
 50 78  1  0  0  0  0
 51 78  1  0  0  0  0
 53 76  1  0  0  0  0
 54 73  1  0  0  0  0
 55 71  1  0  0  0  0
 58 64  1  0  0  0  0
 59 68  1  0  0  0  0
 60 69  1  0  0  0  0
 61 69  1  0  0  0  0
 62 69  1  0  0  0  0
 63 79  1  0  0  0  0
 65 66  1  0  0  0  0
 65 78  1  0  0  0  0
 66 86  1  0  0  0  0
 67 69  1  0  0  0  0
 67 77  1  0  0  0  0
 68 79  1  0  0  0  0
 70 71  1  0  0  0  0
M  CHG  2  78   1  79   1
M  ISO  4  17 100  34 100  66 101  86 101
M  END
> <Batch ID>
0161

> <Smiles>
CCc1c(C)c(C2CCN(C[101CH2:1][101O:1]c3ccc4c(c3)CN(C(=O)C(NC(=O)C(C)NC)C(C)(C)C)C(C(=O)NC3CCCc5ccccc53)C4)CC2)c(C)c[100c:0]1[100C:0](=O)N1CCCC(n2nc(-c3ccc(Oc4ccc(F)cc4F)cc3)c(C(N)=O)c2N)C1

> <Shape>
0.241

> <Color>
0.076

> <Negative vol penalty>
0.000

$$$$

  -OEChem-04052322123D

 97107  0     1  0  0  0  0  0999 V2000
  -18.8385  -24.2385   22.9342 C   0  0  0  0  0  0  0  0  0  0  0  0
  -20.1426  -24.3439   22.4613 C   0  0  0  0  0  0  0  0  0  0  0  0
  -25.2636  -13.9207   20.2426 C   0  0  0  0  0  0  0  0  0  0  0  0
  -23.5719  -14.5811   18.6491 C   0  0  0  0  0  0  0  0  0  0  0  0
  -18.0472  -25.3802   23.0542 C   0  0  0  0  0  0  0  0  0  0  0  0
  -20.6558  -25.5911   22.1070 C   0  0  0  0  0  0  0  0  0  0  0  0
  -25.3430  -26.3361   23.8734 C   0  0  0  0  0  0  0  0  0  0  0  0
  -24.3983  -12.9580   20.7623 C   0  0  0  0  0  0  0  0  0  0  0  0
  -22.7066  -13.6184   19.1688 C   0  0  0  0  0  0  0  0  0  0  0  0
  -26.3877  -25.7191   23.1868 C   0  0  0  0  0  0  0  0  0  0  0  0
  -23.3317   -9.8590   19.9309 C   0  0  0  0  0  0  0  0  0  0  0  0
  -23.8491   -8.5871   20.1763 C   0  0  0  0  0  0  0  0  0  0  0  0
  -26.8756  -27.8012   22.0704 C   0  0  0  0  0  0  0  0  0  0  0  0
  -23.2819   -8.8074   22.5144 C   0  0  0  0  0  0  0  0  0  0  0  0
  -24.8504  -14.7323   19.1861 C   0  0  0  0  0  0  0  0  0  0  0  0
  -26.6675  -15.5629   17.5999 C   0  0  0  0  0  0  0  0  0  0  0  0
  -18.5542  -26.6432   22.7103 C   0  0  0  0  0  0  0  0  0  0  0  0
  -25.0492  -27.6898   23.6553 C   0  0  0  0  0  0  0  0  0  0  0  0
  -19.8702  -26.7506   22.2211 C   0  0  0  0  0  0  0  0  0  0  0  0
  -25.8282  -28.4337   22.7575 C   0  0  0  0  0  0  0  0  0  0  0  0
  -30.5730  -23.9358   18.6550 C   0  0  0  0  0  0  0  0  0  0  0  0
  -32.2896  -25.3841   19.5454 C   0  0  0  0  0  0  0  0  0  0  0  0
  -29.5954  -24.7115   19.2780 C   0  0  0  0  0  0  0  0  0  0  0  0
  -31.3119  -26.1598   20.1684 C   0  0  0  0  0  0  0  0  0  0  0  0
  -31.9202  -24.2721   18.7887 C   0  0  0  0  0  0  0  0  0  0  0  0
  -29.9648  -25.8235   20.0347 C   0  0  0  0  0  0  0  0  0  0  0  0
  -23.1198  -12.8068   20.2253 C   0  0  0  0  0  0  0  0  0  0  0  0
  -27.1524  -26.4509   22.2830 C   0  0  0  0  0  0  0  0  0  0  0  0
  -22.7894  -10.6051   20.9773 C   0  0  0  0  0  0  0  0  0  0  0  0
  -23.8242   -8.0613   21.4680 C   0  0  0  0  0  0  0  0  0  0  0  0
  -22.7644  -10.0793   22.2690 C   0  0  0  0  0  0  0  0  0  0  0  0
  -25.7436  -15.7274   18.6492 C   0  0  0  0  0  0  0  0  0  0  0  0
  -27.2657  -16.7927   17.4732 C   0  0  0  0  0  0  0  0  0  0  0  0
  -32.9042  -18.9571   20.6878 C   0  0  0  0  0  0  0  0  0  0  0  0
  -31.7929  -18.0504   20.9725 C   0  0  0  0  0  0  0  0  0  0  0  0
  -32.9567  -20.2117   21.1643 C   0  0  0  0  0  0  0  0  0  0  0  0
  -30.6284  -18.5491   21.4592 C   0  0  0  0  0  0  0  0  0  0  0  0
  -26.9588  -14.4022   16.8102 C   0  0  0  0  0  0  0  0  0  0  0  0
  -22.5338  -29.2899   22.5525 C   0  0  0  0  0  0  0  0  0  0  0  0
  -24.2944  -31.8764   23.4084 C   0  0  0  0  0  0  0  0  0  0  0  0
  -27.3745  -33.2062   24.0342 C   0  0  0  0  0  0  0  0  0  0  0  0
  -28.2224  -18.1944   21.9833 C   0  0  0  0  0  0  0  0  0  0  0  0
  -17.6455  -27.8426   22.8122 C   0  0  0  0  0  0  0  0  0  0  0  0
  -23.9359  -28.3474   24.4238 C   0  0  0  0  0  0  0  0  0  0  0  0
  -25.5666  -29.8948   22.5026 C   0  0  0  0  0  0  0  0  0  0  0  0
  -32.0871  -16.6059   20.5915 C   0  0  0  0  0  0  0  0  0  0  0  0
  -31.8226  -20.7598   21.9826 C   0  0  0  0  0  0  0  0  0  0  0  0
  -30.4929  -20.0473   21.6994 C   0  0  0  0  0  0  0  0  0  0  0  0
  -18.3888  -29.1753   22.7699 C   0  0  0  0  0  0  0  0  0  0  0  0
  -25.4769  -19.8529   20.6364 C   0  0  0  0  0  0  0  0  0  0  0  0
  -19.4134  -29.1794   21.6399 C   0  0  0  0  0  0  0  0  0  0  0  0
  -25.7582  -19.8712   19.1340 C   0  0  0  0  0  0  0  0  0  0  0  0
  -30.1060  -15.3288   21.5844 C   0  0  0  0  0  0  0  0  0  0  0  0
  -26.7403  -20.1050   21.4478 C   0  0  0  0  0  0  0  0  0  0  0  0
  -29.9027  -16.4835   22.5551 C   0  0  0  0  0  0  0  0  0  0  0  0
  -28.1910  -19.2418   19.6506 C   0  0  0  0  0  0  0  0  0  0  0  0
  -20.4709  -28.0891   21.8501 C   0  0  1  0  0  0  0  0  0  0  0  0
  -23.3982  -29.6014   23.7413 C   0  0  1  0  0  0  0  0  0  0  0  0
  -30.8751  -15.6986   20.3108 C   0  0  2  0  0  0  0  0  0  0  0  0
  -26.9906  -19.0524   18.7009 C   0  0  1  0  0  0  0  0  0  0  0  0
  -30.1769  -22.7430   17.8430 C   0  0  0  0  0  0  0  0  0  0  0  0
  -33.7346  -25.7456   19.6890 C   0  0  0  0  0  0  0  0  0  0  0  0
  -28.1503  -24.3504   19.1343 C   0  0  0  0  0  0  0  0  0  0  0  0
  -31.7075  -27.3539   20.9790 C   0  0  0  0  0  0  0  0  0  0  0  0
  -31.3149  -14.4185   19.5927 C   0  0  0  0  0  0  0  0  0  0  0  0
  -28.4986  -35.3561   24.6758 C   0  0  0  0  0  0  0  0  0  0  0  0
  -23.9063  -32.9239   20.5690 C   0  0  0  0  0  0  0  0  0  0  0  0
  -25.7838  -34.5286   20.9789 C   0  0  0  0  0  0  0  0  0  0  0  0
  -23.7092  -34.6606   22.3577 C   0  0  0  0  0  0  0  0  0  0  0  0
  -28.4643  -32.0291   26.5213 C   0  0  0  0  0  0  0  0  0  0  0  0
  -32.9726  -23.4379   18.1175 C   0  0  0  0  0  0  0  0  0  0  0  0
  -28.9156  -26.6571   20.7003 C   0  0  0  0  0  0  0  0  0  1  0  0
  -34.1280  -21.1161   20.9317 C   0  0  0  0  0  0  0  0  0  0  0  0
  -33.2458  -22.1101   18.8168 C   0  0  0  0  0  0  0  0  0  0  0  0
  -25.3199  -32.7462   22.7222 C   0  0  1  0  0  0  0  0  0  0  0  0
  -27.8904  -34.0569   25.1807 C   0  0  2  0  0  0  0  0  0  0  0  0
  -24.6837  -33.6868   21.6601 C   0  0  0  0  0  0  0  0  0  0  0  0
  -25.7508  -16.9642   19.1534 N   0  0  0  0  0  0  0  0  0  0  0  0
  -26.6866  -17.5880   18.4178 N   0  0  0  0  0  0  0  0  0  0  0  0
  -29.5563  -17.7424   21.8787 N   0  0  0  0  0  0  0  0  0  0  0  0
  -24.4631  -30.4910   23.2736 N   0  0  0  0  0  0  0  0  0  0  0  0
  -27.8055  -19.1792   21.0672 N   0  0  0  0  0  0  0  0  0  0  0  0
  -28.2255  -17.2606   16.6472 N   0  0  0  0  0  0  0  0  0  0  0  0
  -26.2516  -13.2209   17.0725 N   0  0  0  0  0  0  0  0  0  0  0  0
  -21.4349  -28.5052   22.8461 N   0  0  0  0  0  0  0  0  0  0  0  0
  -26.0396  -33.4429   23.7829 N   0  0  0  0  0  0  0  0  0  0  0  0
  -28.9324  -33.3167   25.9470 N   0  3  0  0  0  0  0  0  0  0  0  0
  -33.7682  -22.3459   20.1923 N   0  3  0  0  0  0  0  0  0  0  0  0
  -27.8323  -14.4078   15.9099 O   0  0  0  0  0  0  0  0  0  0  0  0
  -22.8402  -29.7301   21.4507 O   0  0  0  0  0  0  0  0  0  0  0  0
  -23.3816  -32.4065   24.0467 O   0  0  0  0  0  0  0  0  0  0  0  0
  -28.0857  -32.4138   23.4203 O   0  0  0  0  0  0  0  0  0  0  0  0
  -27.4389  -17.7167   22.8138 O   0  0  0  0  0  0  0  0  0  0  0  0
  -22.2753  -11.8673   20.7320 O   0  0  0  0  0  0  0  0  0  0  0  0
  -28.1799  -25.8465   21.6059 O   0  0  0  0  0  0  0  0  0  1  0  0
  -24.3198   -6.8393   21.7032 F   0  0  0  0  0  0  0  0  0  0  0  0
  -22.2437  -10.7908   23.2781 F   0  0  0  0  0  0  0  0  0  0  0  0
  1  2  1  0  0  0  0
  1  5  2  0  0  0  0
  2  6  2  0  0  0  0
  3  8  2  0  0  0  0
  3 15  1  0  0  0  0
  4  9  1  0  0  0  0
  4 15  2  0  0  0  0
  5 17  1  0  0  0  0
  6 19  1  0  0  0  0
  7 10  2  0  0  0  0
  7 18  1  0  0  0  0
  8 27  1  0  0  0  0
  9 27  2  0  0  0  0
 10 28  1  0  0  0  0
 11 12  2  0  0  0  0
 11 29  1  0  0  0  0
 12 30  1  0  0  0  0
 13 20  1  0  0  0  0
 13 28  2  0  0  0  0
 14 30  2  0  0  0  0
 14 31  1  0  0  0  0
 15 32  1  0  0  0  0
 16 32  1  0  0  0  0
 16 33  2  0  0  0  0
 16 38  1  0  0  0  0
 17 19  2  0  0  0  0
 17 43  1  0  0  0  0
 18 20  2  0  0  0  0
 18 44  1  0  0  0  0
 19 57  1  0  0  0  0
 20 45  1  0  0  0  0
 21 23  2  0  0  0  0
 21 25  1  0  0  0  0
 21 61  1  0  0  0  0
 22 24  1  0  0  0  0
 22 25  2  0  0  0  0
 22 62  1  0  0  0  0
 23 26  1  0  0  0  0
 23 63  1  0  0  0  0
 24 26  2  0  0  0  0
 24 64  1  0  0  0  0
 25 71  1  0  0  0  0
 26 72  1  0  0  0  0
 27 94  1  0  0  0  0
 28 95  1  0  0  0  0
 29 31  2  0  0  0  0
 29 94  1  0  0  0  0
 30 96  1  0  0  0  0
 31 97  1  0  0  0  0
 32 78  2  0  0  0  0
 33 79  1  0  0  0  0
 33 83  1  0  0  0  0
 34 35  1  0  0  0  0
 34 36  2  0  0  0  0
 35 37  2  0  0  0  0
 35 46  1  0  0  0  0
 36 47  1  0  0  0  0
 36 73  1  0  0  0  0
 37 48  1  0  0  0  0
 37 80  1  0  0  0  0
 38 84  1  0  0  0  0
 38 89  2  0  0  0  0
 39 58  1  0  0  0  0
 39 85  1  0  0  0  0
 39 90  2  0  0  0  0
 40 75  1  0  0  0  0
 40 81  1  0  0  0  0
 40 91  2  0  0  0  0
 41 76  1  0  0  0  0
 41 86  1  0  0  0  0
 41 92  2  0  0  0  0
 42 80  1  0  0  0  0
 42 82  1  0  0  0  0
 42 93  2  0  0  0  0
 43 49  1  0  0  0  0
 44 58  1  0  0  0  0
 45 81  1  0  0  0  0
 46 59  1  0  0  0  0
 47 48  1  0  0  0  0
 49 51  1  0  0  0  0
 50 52  1  0  0  0  0
 50 54  1  0  0  0  0
 51 57  1  0  0  0  0
 52 60  1  0  0  0  0
 53 55  1  0  0  0  0
 53 59  1  0  0  0  0
 54 82  1  0  0  0  0
 55 80  1  0  0  0  0
 56 60  1  0  0  0  0
 56 82  1  0  0  0  0
 57 85  1  0  0  0  0
 58 81  1  0  0  0  0
 59 65  1  0  0  0  0
 60 79  1  0  0  0  0
 66 76  1  0  0  0  0
 67 77  1  0  0  0  0
 68 77  1  0  0  0  0
 69 77  1  0  0  0  0
 70 87  1  0  0  0  0
 71 74  1  0  0  0  0
 72 95  1  0  0  0  0
 73 88  1  0  0  0  0
 74 88  1  0  0  0  0
 75 77  1  0  0  0  0
 75 86  1  0  0  0  0
 76 87  1  0  0  0  0
 78 79  1  0  0  0  0
M  CHG  2  87   1  88   1
M  ISO  4  42 100  72 101  80 100  95 101
M  END
> <Batch ID>
0161

> <Smiles>
CNC(C)C(=O)NC(C(=O)N1Cc2cc([101O:1][101CH2:1]c3c(C)c(C)c(CCNCC4=CC5=C(CC4)[100N:0]([100C:0](=O)N4CCCC(n6nc(-c7ccc(Oc8ccc(F)cc8F)cc7)c(C(N)=O)c6N)C4)CCC(C)C5)c(C)c3C)ccc2CC1C(=O)NC1CCCc2ccccc21)C(C)(C)C

> <Shape>
0.287

> <Color>
0.068

> <Negative vol penalty>
0.000

$$$$

  -OEChem-04052322123D

 92101  0     1  0  0  0  0  0999 V2000
  -22.4644  -30.1360   27.0086 C   0  0  0  0  0  0  0  0  0  0  0  0
  -23.3275  -29.4001   26.2030 C   0  0  0  0  0  0  0  0  0  0  0  0
  -25.8333  -15.5981   23.6193 C   0  0  0  0  0  0  0  0  0  0  0  0
  -25.3571  -17.1018   21.7893 C   0  0  0  0  0  0  0  0  0  0  0  0
  -21.1323  -30.3017   26.6319 C   0  0  0  0  0  0  0  0  0  0  0  0
  -22.8586  -28.8285   25.0207 C   0  0  0  0  0  0  0  0  0  0  0  0
  -26.0304  -29.5246   21.1348 C   0  0  0  0  0  0  0  0  0  0  0  0
  -25.8066  -16.6722   24.5089 C   0  0  0  0  0  0  0  0  0  0  0  0
  -25.3303  -18.1759   22.6788 C   0  0  0  0  0  0  0  0  0  0  0  0
  -27.1559  -28.7039   21.0767 C   0  0  0  0  0  0  0  0  0  0  0  0
  -27.8676  -19.1821   25.4453 C   0  0  0  0  0  0  0  0  0  0  0  0
  -28.8843  -19.2598   26.3970 C   0  0  0  0  0  0  0  0  0  0  0  0
  -26.0502  -27.3132   19.4450 C   0  0  0  0  0  0  0  0  0  0  0  0
  -27.2396  -19.1478   28.1632 C   0  0  0  0  0  0  0  0  0  0  0  0
  -25.6086  -15.8129   22.2595 C   0  0  0  0  0  0  0  0  0  0  0  0
  -24.5534  -13.8918   20.9544 C   0  0  0  0  0  0  0  0  0  0  0  0
  -20.6492  -29.7399   25.4395 C   0  0  0  0  0  0  0  0  0  0  0  0
  -24.9003  -29.2391   20.3552 C   0  0  0  0  0  0  0  0  0  0  0  0
  -21.5184  -28.9856   24.6284 C   0  0  0  0  0  0  0  0  0  0  0  0
  -24.9126  -28.1333   19.4931 C   0  0  0  0  0  0  0  0  0  0  0  0
  -31.8293  -24.6565   18.8839 C   0  0  0  0  0  0  0  0  0  0  0  0
  -31.8531  -23.4429   19.5711 C   0  0  0  0  0  0  0  0  0  0  0  0
  -30.6422  -25.3833   18.7928 C   0  0  0  0  0  0  0  0  0  0  0  0
  -29.5026  -23.6828   20.0760 C   0  0  0  0  0  0  0  0  0  0  0  0
  -30.6897  -22.9560   20.1671 C   0  0  0  0  0  0  0  0  0  0  0  0
  -29.4788  -24.8964   19.3888 C   0  0  0  0  0  0  0  0  0  0  0  0
  -25.5551  -17.9611   24.0386 C   0  0  0  0  0  0  0  0  0  0  0  0
  -27.1649  -27.5964   20.2339 C   0  0  0  0  0  0  0  0  0  0  0  0
  -26.5369  -19.0873   25.8525 C   0  0  0  0  0  0  0  0  0  0  0  0
  -28.5703  -19.2427   27.7560 C   0  0  0  0  0  0  0  0  0  0  0  0
  -26.2228  -19.0701   27.2114 C   0  0  0  0  0  0  0  0  0  0  0  0
  -25.6367  -14.7039   21.3401 C   0  0  0  0  0  0  0  0  0  0  0  0
  -25.0969  -12.9908   20.0716 C   0  0  0  0  0  0  0  0  0  0  0  0
  -23.1787  -13.9469   21.3580 C   0  0  0  0  0  0  0  0  0  0  0  0
  -21.8680  -28.5187   20.9797 C   0  0  0  0  0  0  0  0  0  0  0  0
  -21.5586  -28.7416   17.7584 C   0  0  0  0  0  0  0  0  0  0  0  0
  -30.0932  -20.4952   20.1279 C   0  0  0  0  0  0  0  0  0  0  0  0
  -23.0419  -28.5954   14.6884 C   0  0  0  0  0  0  0  0  0  0  0  0
  -30.2365  -14.9935   19.8877 C   0  0  0  0  0  0  0  0  0  0  0  0
  -19.1896  -29.9063   25.0978 C   0  0  0  0  0  0  0  0  0  0  0  0
  -23.7041  -30.1494   20.4094 C   0  0  0  0  0  0  0  0  0  0  0  0
  -23.7325  -27.7949   18.6205 C   0  0  0  0  0  0  0  0  0  0  0  0
  -18.8644  -29.5835   23.6417 C   0  0  0  0  0  0  0  0  0  0  0  0
  -29.1494  -11.7278   20.8474 C   0  0  0  0  0  0  0  0  0  0  0  0
  -31.2318  -16.9303   16.9881 C   0  0  0  0  0  0  0  0  0  0  0  0
  -19.5263  -28.2741   23.2244 C   0  0  0  0  0  0  0  0  0  0  0  0
  -28.0489  -11.3745   19.8531 C   0  0  0  0  0  0  0  0  0  0  0  0
  -30.8243  -18.0721   17.9086 C   0  0  0  0  0  0  0  0  0  0  0  0
  -30.2420  -12.5411   20.1708 C   0  0  0  0  0  0  0  0  0  0  0  0
  -30.3557  -15.7850   17.4715 C   0  0  0  0  0  0  0  0  0  0  0  0
  -28.5949  -13.5354   18.5945 C   0  0  0  0  0  0  0  0  0  0  0  0
  -21.0533  -28.3710   23.3261 C   0  0  1  0  0  0  0  0  0  0  0  0
  -22.4157  -29.4709   19.9545 C   0  0  1  0  0  0  0  0  0  0  0  0
  -27.4810  -12.6112   19.1385 C   0  0  2  0  0  0  0  0  0  0  0  0
  -30.6112  -17.3779   19.2566 C   0  0  1  0  0  0  0  0  0  0  0  0
  -33.0776  -25.1800   18.2461 C   0  0  0  0  0  0  0  0  0  0  0  0
  -33.1272  -22.6645   19.6705 C   0  0  0  0  0  0  0  0  0  0  0  0
  -30.6167  -26.6858   18.0566 C   0  0  0  0  0  0  0  0  0  0  0  0
  -28.2549  -23.1600   20.7156 C   0  0  0  0  0  0  0  0  0  0  0  0
  -22.5247  -28.7816   12.2399 C   0  0  0  0  0  0  0  0  0  0  0  0
  -20.3245  -25.9515   17.8094 C   0  0  0  0  0  0  0  0  0  0  0  0
  -20.7086  -25.8123   15.3394 C   0  0  0  0  0  0  0  0  0  0  0  0
  -19.1945  -27.5640   16.2676 C   0  0  0  0  0  0  0  0  0  0  0  0
  -30.6845  -18.9940   22.0728 C   0  0  0  0  0  0  0  0  0  0  0  0
  -24.8542  -30.9125   14.3633 C   0  0  0  0  0  0  0  0  0  0  0  0
  -30.7156  -21.6426   20.9097 C   0  0  0  0  0  0  0  0  0  0  0  0
  -28.2054  -25.6763   19.2924 C   0  0  0  0  0  0  0  0  0  1  0  0
  -29.5445  -18.0734   20.0925 C   0  0  0  0  0  0  0  0  0  0  0  0
  -21.6911  -27.7796   16.6026 C   0  0  1  0  0  0  0  0  0  0  0  0
  -22.9703  -29.5243   13.4898 C   0  0  2  0  0  0  0  0  0  0  0  0
  -20.5013  -26.7818   16.5225 C   0  0  0  0  0  0  0  0  0  0  0  0
  -26.7819  -14.3501   20.7507 N   0  0  0  0  0  0  0  0  0  0  0  0
  -26.4212  -13.3056   19.9858 N   0  0  0  0  0  0  0  0  0  0  0  0
  -22.5843  -28.7117   18.7138 N   0  0  0  0  0  0  0  0  0  0  0  0
  -29.7109  -13.7435   19.5284 N   0  0  0  0  0  0  0  0  0  0  0  0
  -30.2495  -15.9966   18.9159 N   0  0  0  0  0  0  0  0  0  0  0  0
  -24.5665  -11.9679   19.3682 N   0  0  0  0  0  0  0  0  0  0  0  0
  -22.7900  -14.9354   22.2724 N   0  0  0  0  0  0  0  0  0  0  0  0
  -21.5893  -29.1048   22.1997 N   0  0  0  0  0  0  0  0  0  0  0  0
  -21.8657  -28.5985   15.4079 N   0  0  0  0  0  0  0  0  0  0  0  0
  -30.1007  -19.2170   20.7366 N   0  0  0  0  0  0  0  0  0  0  0  0
  -24.3052  -30.1318   13.2248 N   0  3  0  0  0  0  0  0  0  0  0  0
  -22.3238  -13.1331   20.9333 O   0  0  0  0  0  0  0  0  0  0  0  0
  -21.7086  -27.3399   20.6853 O   0  0  0  0  0  0  0  0  0  0  0  0
  -20.5845  -29.4968   17.8079 O   0  0  0  0  0  0  0  0  0  0  0  0
  -29.6057  -20.6861   19.0102 O   0  0  0  0  0  0  0  0  0  0  0  0
  -24.0400  -27.9306   14.9572 O   0  0  0  0  0  0  0  0  0  0  0  0
  -30.6838  -15.2016   21.0234 O   0  0  0  0  0  0  0  0  0  0  0  0
  -25.5287  -19.0094   24.9063 O   0  0  0  0  0  0  0  0  0  0  0  0
  -28.2701  -26.7873   20.1753 O   0  0  0  0  0  0  0  0  0  1  0  0
  -29.5469  -19.3158   28.6698 F   0  0  0  0  0  0  0  0  0  0  0  0
  -24.9463  -18.9780   27.6087 F   0  0  0  0  0  0  0  0  0  0  0  0
  1  2  1  0  0  0  0
  1  5  2  0  0  0  0
  2  6  2  0  0  0  0
  3  8  2  0  0  0  0
  3 15  1  0  0  0  0
  4  9  1  0  0  0  0
  4 15  2  0  0  0  0
  5 17  1  0  0  0  0
  6 19  1  0  0  0  0
  7 10  2  0  0  0  0
  7 18  1  0  0  0  0
  8 27  1  0  0  0  0
  9 27  2  0  0  0  0
 10 28  1  0  0  0  0
 11 12  2  0  0  0  0
 11 29  1  0  0  0  0
 12 30  1  0  0  0  0
 13 20  1  0  0  0  0
 13 28  2  0  0  0  0
 14 30  2  0  0  0  0
 14 31  1  0  0  0  0
 15 32  1  0  0  0  0
 16 32  1  0  0  0  0
 16 33  2  0  0  0  0
 16 34  1  0  0  0  0
 17 19  2  0  0  0  0
 17 40  1  0  0  0  0
 18 20  2  0  0  0  0
 18 41  1  0  0  0  0
 19 52  1  0  0  0  0
 20 42  1  0  0  0  0
 21 22  1  0  0  0  0
 21 23  2  0  0  0  0
 21 56  1  0  0  0  0
 22 25  2  0  0  0  0
 22 57  1  0  0  0  0
 23 26  1  0  0  0  0
 23 58  1  0  0  0  0
 24 25  1  0  0  0  0
 24 26  2  0  0  0  0
 24 59  1  0  0  0  0
 25 66  1  0  0  0  0
 26 67  1  0  0  0  0
 27 89  1  0  0  0  0
 28 90  1  0  0  0  0
 29 31  2  0  0  0  0
 29 89  1  0  0  0  0
 30 91  1  0  0  0  0
 31 92  1  0  0  0  0
 32 72  2  0  0  0  0
 33 73  1  0  0  0  0
 33 77  1  0  0  0  0
 34 78  1  0  0  0  0
 34 83  2  0  0  0  0
 35 53  1  0  0  0  0
 35 79  1  0  0  0  0
 35 84  2  0  0  0  0
 36 69  1  0  0  0  0
 36 74  1  0  0  0  0
 36 85  2  0  0  0  0
 37 66  1  0  0  0  0
 37 81  1  0  0  0  0
 37 86  2  0  0  0  0
 38 70  1  0  0  0  0
 38 80  1  0  0  0  0
 38 87  2  0  0  0  0
 39 75  1  0  0  0  0
 39 76  1  0  0  0  0
 39 88  2  0  0  0  0
 40 43  1  0  0  0  0
 41 53  1  0  0  0  0
 42 74  1  0  0  0  0
 43 46  1  0  0  0  0
 44 47  1  0  0  0  0
 44 49  1  0  0  0  0
 45 48  1  0  0  0  0
 45 50  1  0  0  0  0
 46 52  1  0  0  0  0
 47 54  1  0  0  0  0
 48 55  1  0  0  0  0
 49 75  1  0  0  0  0
 50 76  1  0  0  0  0
 51 54  1  0  0  0  0
 51 75  1  0  0  0  0
 52 79  1  0  0  0  0
 53 74  1  0  0  0  0
 54 73  1  0  0  0  0
 55 68  1  0  0  0  0
 55 76  1  0  0  0  0
 60 70  1  0  0  0  0
 61 71  1  0  0  0  0
 62 71  1  0  0  0  0
 63 71  1  0  0  0  0
 64 81  1  0  0  0  0
 65 82  1  0  0  0  0
 67 90  1  0  0  0  0
 68 81  1  0  0  0  0
 69 71  1  0  0  0  0
 69 80  1  0  0  0  0
 70 82  1  0  0  0  0
 72 73  1  0  0  0  0
M  CHG  1  82   1
M  ISO  4  39 100  67 101  76 100  90 101
M  END
> <Batch ID>
0161

> <Smiles>
CNC(C)C(=O)NC(C(=O)N1Cc2cc([101O:1][101CH2:1]c3c(C)c(C)c(C)c(CC(=O)N(C)CC4CCC[100N:0]4[100C:0](=O)N4CCCC(n5nc(-c6ccc(Oc7ccc(F)cc7F)cc6)c(C(N)=O)c5N)C4)c3C)ccc2CC1C(=O)NC1CCCc2ccccc21)C(C)(C)C

> <Shape>
0.250

> <Color>
0.092

> <Negative vol penalty>
0.000

$$$$

  -OEChem-04052322123D

 89 98  0     1  0  0  0  0  0999 V2000
  -19.8366   -9.9674   19.9549 C   0  0  0  0  0  0  0  0  0  0  0  0
  -20.1971  -11.2361   20.3974 C   0  0  0  0  0  0  0  0  0  0  0  0
  -25.3413  -28.0489   20.2799 C   0  0  0  0  0  0  0  0  0  0  0  0
  -26.8900  -28.6881   22.0206 C   0  0  0  0  0  0  0  0  0  0  0  0
  -20.7569   -8.9217   20.0154 C   0  0  0  0  0  0  0  0  0  0  0  0
  -21.4778  -11.4596   20.9018 C   0  0  0  0  0  0  0  0  0  0  0  0
  -23.5561  -15.7155   19.1094 C   0  0  0  0  0  0  0  0  0  0  0  0
  -24.2734  -28.2643   21.1509 C   0  0  0  0  0  0  0  0  0  0  0  0
  -25.8221  -28.9035   22.8917 C   0  0  0  0  0  0  0  0  0  0  0  0
  -23.1319  -16.9179   19.6735 C   0  0  0  0  0  0  0  0  0  0  0  0
  -22.7739  -26.6334   23.7036 C   0  0  0  0  0  0  0  0  0  0  0  0
  -21.7659  -25.6701   23.7426 C   0  0  0  0  0  0  0  0  0  0  0  0
  -23.1426  -21.5985   24.5514 C   0  0  0  0  0  0  0  0  0  0  0  0
  -25.1148  -16.9662   21.0465 C   0  0  0  0  0  0  0  0  0  0  0  0
  -20.1499  -27.3337   23.0659 C   0  0  0  0  0  0  0  0  0  0  0  0
  -26.6497  -28.2608   20.7147 C   0  0  0  0  0  0  0  0  0  0  0  0
  -23.5018  -21.3783   23.2218 C   0  0  0  0  0  0  0  0  0  0  0  0
  -28.3441  -28.9746   18.9464 C   0  0  0  0  0  0  0  0  0  0  0  0
  -22.0526   -9.1347   20.5117 C   0  0  0  0  0  0  0  0  0  0  0  0
  -24.7595  -15.1229   19.5182 C   0  0  0  0  0  0  0  0  0  0  0  0
  -22.4158  -10.4155   20.9702 C   0  0  0  0  0  0  0  0  0  0  0  0
  -25.5533  -15.7576   20.4842 C   0  0  0  0  0  0  0  0  0  0  0  0
  -21.7967  -21.7049   24.9019 C   0  0  0  0  0  0  0  0  0  0  0  0
  -22.5151  -21.2646   22.2424 C   0  0  0  0  0  0  0  0  0  0  0  0
  -20.8099  -21.5913   23.9225 C   0  0  0  0  0  0  0  0  0  0  0  0
  -21.1691  -21.3711   22.5928 C   0  0  0  0  0  0  0  0  0  0  0  0
  -24.5137  -28.6915   22.4568 C   0  0  0  0  0  0  0  0  0  0  0  0
  -23.9099  -17.5419   20.6443 C   0  0  0  0  0  0  0  0  0  0  0  0
  -22.4699  -27.9469   23.3459 C   0  0  0  0  0  0  0  0  0  0  0  0
  -20.4539  -26.0202   23.4237 C   0  0  0  0  0  0  0  0  0  0  0  0
  -21.1579  -28.2970   23.0270 C   0  0  0  0  0  0  0  0  0  0  0  0
  -27.7533  -28.0380   19.8156 C   0  0  0  0  0  0  0  0  0  0  0  0
  -29.3434  -28.2747   18.3154 C   0  0  0  0  0  0  0  0  0  0  0  0
  -24.9236  -21.2710   22.8843 C   0  0  0  0  0  0  0  0  0  0  0  0
  -28.0187  -30.3539   18.7288 C   0  0  0  0  0  0  0  0  0  0  0  0
  -25.5485  -12.3737   20.9047 C   0  0  0  0  0  0  0  0  0  0  0  0
  -28.5718  -13.4124   20.3540 C   0  0  0  0  0  0  0  0  0  0  0  0
  -30.6792  -16.0431   19.8200 C   0  0  0  0  0  0  0  0  0  0  0  0
  -29.1786  -23.3799   21.1159 C   0  0  0  0  0  0  0  0  0  0  0  0
  -22.9974   -7.9626   20.6015 C   0  0  0  0  0  0  0  0  0  0  0  0
  -25.2161  -13.8394   18.8806 C   0  0  0  0  0  0  0  0  0  0  0  0
  -26.8633  -15.1730   20.9429 C   0  0  0  0  0  0  0  0  0  0  0  0
  -24.4551   -8.3692   20.8014 C   0  0  0  0  0  0  0  0  0  0  0  0
  -28.5181  -24.1552   17.5142 C   0  0  0  0  0  0  0  0  0  0  0  0
  -24.5684   -9.4323   21.8894 C   0  0  0  0  0  0  0  0  0  0  0  0
  -29.6771  -25.1004   17.2042 C   0  0  0  0  0  0  0  0  0  0  0  0
  -27.2016  -21.9943   23.5683 C   0  0  0  0  0  0  0  0  0  0  0  0
  -25.7958  -23.4474   22.0240 C   0  0  0  0  0  0  0  0  0  0  0  0
  -28.8924  -23.1802   18.6218 C   0  0  0  0  0  0  0  0  0  0  0  0
  -28.0200  -21.5749   22.3501 C   0  0  0  0  0  0  0  0  0  0  0  0
  -26.6847  -23.0107   20.8553 C   0  0  0  0  0  0  0  0  0  0  0  0
  -30.4774  -24.8228   19.5905 C   0  0  0  0  0  0  0  0  0  0  0  0
  -23.8035  -10.7032   21.5008 C   0  0  1  0  0  0  0  0  0  0  0  0
  -25.7917  -22.4567   23.1911 C   0  0  0  0  0  0  0  0  0  0  0  0
  -26.2065  -13.0631   19.7431 C   0  0  1  0  0  0  0  0  0  0  0  0
  -30.1890  -25.8321   18.4609 C   0  0  2  0  0  0  0  0  0  0  0  0
  -21.4390  -21.9409   26.3328 C   0  0  0  0  0  0  0  0  0  0  0  0
  -19.3671  -21.7063   24.3009 C   0  0  0  0  0  0  0  0  0  0  0  0
  -20.1108  -21.2497   21.5420 C   0  0  0  0  0  0  0  0  0  0  0  0
  -33.1007  -16.5819   19.4418 C   0  0  0  0  0  0  0  0  0  0  0  0
  -29.1320  -12.9652   23.3198 C   0  0  0  0  0  0  0  0  0  0  0  0
  -31.1839  -14.3785   23.0739 C   0  0  0  0  0  0  0  0  0  0  0  0
  -30.9766  -12.2496   21.7902 C   0  0  0  0  0  0  0  0  0  0  0  0
  -30.1215  -17.2232   17.1638 C   0  0  0  0  0  0  0  0  0  0  0  0
  -22.9000  -21.0298   20.8154 C   0  0  0  0  0  0  0  0  0  0  0  0
  -22.7061  -19.5760   20.3808 C   0  0  0  0  0  0  0  0  0  1  0  0
  -29.5731  -14.2428   21.1200 C   0  0  1  0  0  0  0  0  0  0  0  0
  -31.7656  -16.2692   18.7842 C   0  0  2  0  0  0  0  0  0  0  0  0
  -30.1908  -13.4693   22.3189 C   0  0  0  0  0  0  0  0  0  0  0  0
  -28.3292  -26.8348   19.7457 N   0  0  0  0  0  0  0  0  0  0  0  0
  -29.2922  -27.0106   18.8250 N   0  0  0  0  0  0  0  0  0  0  0  0
  -27.2636  -13.9134   20.2943 N   0  0  0  0  0  0  0  0  0  0  0  0
  -29.3793  -23.8786   19.8171 N   0  0  0  0  0  0  0  0  0  0  0  0
  -28.0173  -22.6221   21.3313 N   0  0  0  0  0  0  0  0  0  0  0  0
  -30.2520  -28.6235   17.3799 N   0  0  0  0  0  0  0  0  0  0  0  0
  -26.9633  -30.9149   19.4607 N   0  0  0  0  0  0  0  0  0  0  0  0
  -24.5625  -11.4764   20.5413 N   0  0  0  0  0  0  0  0  0  0  0  0
  -30.5504  -14.7086   20.1420 N   0  0  0  0  0  0  0  0  0  0  0  0
  -31.4028  -17.4072   17.8929 N   0  3  0  0  0  0  0  0  0  0  0  0
  -25.4438  -20.2873   22.3684 O   0  0  0  0  0  0  0  0  0  0  0  0
  -28.6347  -31.0633   17.8976 O   0  0  0  0  0  0  0  0  0  0  0  0
  -25.9098  -12.6352   22.0461 O   0  0  0  0  0  0  0  0  0  0  0  0
  -28.9385  -12.3617   19.8219 O   0  0  0  0  0  0  0  0  0  0  0  0
  -30.0140  -16.9591   20.2985 O   0  0  0  0  0  0  0  0  0  0  0  0
  -29.9839  -23.6075   22.0273 O   0  0  0  0  0  0  0  0  0  0  0  0
  -23.4719  -28.9020   23.3070 O   0  0  0  0  0  0  0  0  0  0  0  0
  -23.4950  -18.7235   21.2009 O   0  0  0  0  0  0  0  0  0  1  0  0
  -19.4863  -25.0946   23.4596 F   0  0  0  0  0  0  0  0  0  0  0  0
  -20.8599  -29.5571   22.6814 F   0  0  0  0  0  0  0  0  0  0  0  0
  1  2  1  0  0  0  0
  1  5  2  0  0  0  0
  2  6  2  0  0  0  0
  3  8  2  0  0  0  0
  3 16  1  0  0  0  0
  4  9  1  0  0  0  0
  4 16  2  0  0  0  0
  5 19  1  0  0  0  0
  6 21  1  0  0  0  0
  7 10  2  0  0  0  0
  7 20  1  0  0  0  0
  8 27  1  0  0  0  0
  9 27  2  0  0  0  0
 10 28  1  0  0  0  0
 11 12  2  0  0  0  0
 11 29  1  0  0  0  0
 12 30  1  0  0  0  0
 13 17  2  0  0  0  0
 13 23  1  0  0  0  0
 14 22  1  0  0  0  0
 14 28  2  0  0  0  0
 15 30  2  0  0  0  0
 15 31  1  0  0  0  0
 16 32  1  0  0  0  0
 17 24  1  0  0  0  0
 17 34  1  0  0  0  0
 18 32  1  0  0  0  0
 18 33  2  0  0  0  0
 18 35  1  0  0  0  0
 19 21  2  0  0  0  0
 19 40  1  0  0  0  0
 20 22  2  0  0  0  0
 20 41  1  0  0  0  0
 21 53  1  0  0  0  0
 22 42  1  0  0  0  0
 23 25  2  0  0  0  0
 23 57  1  0  0  0  0
 24 26  2  0  0  0  0
 24 65  1  0  0  0  0
 25 26  1  0  0  0  0
 25 58  1  0  0  0  0
 26 59  1  0  0  0  0
 27 86  1  0  0  0  0
 28 87  1  0  0  0  0
 29 31  2  0  0  0  0
 29 86  1  0  0  0  0
 30 88  1  0  0  0  0
 31 89  1  0  0  0  0
 32 70  2  0  0  0  0
 33 71  1  0  0  0  0
 33 75  1  0  0  0  0
 34 54  1  0  0  0  0
 34 80  2  0  0  0  0
 35 76  1  0  0  0  0
 35 81  2  0  0  0  0
 36 55  1  0  0  0  0
 36 77  1  0  0  0  0
 36 82  2  0  0  0  0
 37 67  1  0  0  0  0
 37 72  1  0  0  0  0
 37 83  2  0  0  0  0
 38 68  1  0  0  0  0
 38 78  1  0  0  0  0
 38 84  2  0  0  0  0
 39 73  1  0  0  0  0
 39 74  1  0  0  0  0
 39 85  2  0  0  0  0
 40 43  1  0  0  0  0
 41 55  1  0  0  0  0
 42 72  1  0  0  0  0
 43 45  1  0  0  0  0
 44 46  1  0  0  0  0
 44 49  1  0  0  0  0
 45 53  1  0  0  0  0
 46 56  1  0  0  0  0
 47 50  1  0  0  0  0
 47 54  1  0  0  0  0
 48 51  1  0  0  0  0
 48 54  1  0  0  0  0
 49 73  1  0  0  0  0
 50 74  1  0  0  0  0
 51 74  1  0  0  0  0
 52 56  1  0  0  0  0
 52 73  1  0  0  0  0
 53 77  1  0  0  0  0
 55 72  1  0  0  0  0
 56 71  1  0  0  0  0
 60 68  1  0  0  0  0
 61 69  1  0  0  0  0
 62 69  1  0  0  0  0
 63 69  1  0  0  0  0
 64 79  1  0  0  0  0
 65 66  1  0  0  0  0
 66 87  1  0  0  0  0
 67 69  1  0  0  0  0
 67 78  1  0  0  0  0
 68 79  1  0  0  0  0
 70 71  1  0  0  0  0
M  CHG  1  79   1
M  ISO  4  39 100  66 101  74 100  87 101
M  END
> <Batch ID>
0161

> <Smiles>
CNC(C)C(=O)NC(C(=O)N1Cc2cc([101O:1][101CH2:1]Cc3c(C(=O)C4CC[100N:0]([100C:0](=O)N5CCCC(n6nc(-c7ccc(Oc8ccc(F)cc8F)cc7)c(C(N)=O)c6N)C5)CC4)cc(C)c(C)c3C)ccc2CC1C(=O)NC1CCCc2ccccc21)C(C)(C)C

> <Shape>
0.241

> <Color>
0.068

> <Negative vol penalty>
0.000

$$$$

  -OEChem-04052322123D

 89 98  0     1  0  0  0  0  0999 V2000
  -22.6507   -7.6237   20.6639 C   0  0  0  0  0  0  0  0  0  0  0  0
  -21.8156   -8.5878   20.1086 C   0  0  0  0  0  0  0  0  0  0  0  0
  -28.2329  -26.4905   19.9893 C   0  0  0  0  0  0  0  0  0  0  0  0
  -26.2643  -25.5586   18.9439 C   0  0  0  0  0  0  0  0  0  0  0  0
  -23.6558   -8.0022   21.5530 C   0  0  0  0  0  0  0  0  0  0  0  0
  -21.9844   -9.9310   20.4429 C   0  0  0  0  0  0  0  0  0  0  0  0
  -21.3412  -16.5003   17.6595 C   0  0  0  0  0  0  0  0  0  0  0  0
  -28.9005  -25.2787   19.8125 C   0  0  0  0  0  0  0  0  0  0  0  0
  -26.9319  -24.3467   18.7670 C   0  0  0  0  0  0  0  0  0  0  0  0
  -20.7461  -17.7315   17.9309 C   0  0  0  0  0  0  0  0  0  0  0  0
  -28.9956  -22.2470   21.3040 C   0  0  0  0  0  0  0  0  0  0  0  0
  -29.7307  -21.7499   22.3801 C   0  0  0  0  0  0  0  0  0  0  0  0
  -22.5667  -18.2772   19.4164 C   0  0  0  0  0  0  0  0  0  0  0  0
  -31.7396  -21.8188   21.0395 C   0  0  0  0  0  0  0  0  0  0  0  0
  -26.9148  -26.6305   19.5551 C   0  0  0  0  0  0  0  0  0  0  0  0
  -26.1840  -28.9690   18.8445 C   0  0  0  0  0  0  0  0  0  0  0  0
  -23.8433   -9.3518   21.8909 C   0  0  0  0  0  0  0  0  0  0  0  0
  -22.5501  -16.1432   18.2739 C   0  0  0  0  0  0  0  0  0  0  0  0
  -22.9921  -10.3278   21.3383 C   0  0  0  0  0  0  0  0  0  0  0  0
  -23.1764  -17.0419   19.1491 C   0  0  0  0  0  0  0  0  0  0  0  0
  -20.6351  -22.9087   19.1877 C   0  0  0  0  0  0  0  0  0  0  0  0
  -19.9382  -22.1242   21.3639 C   0  0  0  0  0  0  0  0  0  0  0  0
  -19.8918  -24.0748   19.3700 C   0  0  0  0  0  0  0  0  0  0  0  0
  -19.1949  -23.2903   21.5463 C   0  0  0  0  0  0  0  0  0  0  0  0
  -20.6583  -21.9333   20.1846 C   0  0  0  0  0  0  0  0  0  0  0  0
  -19.1717  -24.2656   20.5493 C   0  0  0  0  0  0  0  0  0  0  0  0
  -28.2500  -24.2068   19.2013 C   0  0  0  0  0  0  0  0  0  0  0  0
  -21.3574  -18.6190   18.8117 C   0  0  0  0  0  0  0  0  0  0  0  0
  -29.6324  -22.5299   20.0956 C   0  0  0  0  0  0  0  0  0  0  0  0
  -31.1027  -21.5358   22.2479 C   0  0  0  0  0  0  0  0  0  0  0  0
  -31.0043  -22.3158   19.9634 C   0  0  0  0  0  0  0  0  0  0  0  0
  -26.2244  -27.8819   19.7380 C   0  0  0  0  0  0  0  0  0  0  0  0
  -25.4036  -29.9052   19.4777 C   0  0  0  0  0  0  0  0  0  0  0  0
  -26.7971  -29.1192   17.5571 C   0  0  0  0  0  0  0  0  0  0  0  0
  -23.4633  -13.8275   20.2506 C   0  0  0  0  0  0  0  0  0  0  0  0
  -26.4093  -15.0849   19.7383 C   0  0  0  0  0  0  0  0  0  0  0  0
  -28.6971  -17.8387   19.2914 C   0  0  0  0  0  0  0  0  0  0  0  0
  -21.1354  -29.6639   23.4947 C   0  0  0  0  0  0  0  0  0  0  0  0
  -24.9128   -9.7075   22.8929 C   0  0  0  0  0  0  0  0  0  0  0  0
  -23.1927  -14.8224   17.9500 C   0  0  0  0  0  0  0  0  0  0  0  0
  -24.4851  -16.7147   19.8191 C   0  0  0  0  0  0  0  0  0  0  0  0
  -25.2660  -11.1925   22.9056 C   0  0  0  0  0  0  0  0  0  0  0  0
  -24.1115  -31.3909   23.8323 C   0  0  0  0  0  0  0  0  0  0  0  0
  -23.9993  -12.0424   22.9167 C   0  0  0  0  0  0  0  0  0  0  0  0
  -24.9986  -30.8030   22.7351 C   0  0  0  0  0  0  0  0  0  0  0  0
  -18.3816  -27.7977   21.8636 C   0  0  0  0  0  0  0  0  0  0  0  0
  -20.4029  -26.3014   22.0200 C   0  0  0  0  0  0  0  0  0  0  0  0
  -23.2982  -30.3001   24.5198 C   0  0  0  0  0  0  0  0  0  0  0  0
  -18.9430  -28.6440   23.0028 C   0  0  0  0  0  0  0  0  0  0  0  0
  -20.9231  -27.1720   23.1591 C   0  0  0  0  0  0  0  0  0  0  0  0
  -23.3298  -28.9006   22.4811 C   0  0  0  0  0  0  0  0  0  0  0  0
  -23.1597  -11.7976   21.6572 C   0  0  1  0  0  0  0  0  0  0  0  0
  -24.1633  -14.3498   19.0280 C   0  0  1  0  0  0  0  0  0  0  0  0
  -18.8709  -26.3457   21.9408 C   0  0  0  0  0  0  0  0  0  0  0  0
  -24.1708  -29.9635   21.7458 C   0  0  2  0  0  0  0  0  0  0  0  0
  -21.4078  -22.7039   17.9228 C   0  0  0  0  0  0  0  0  0  0  0  0
  -19.9630  -21.0783   22.4339 C   0  0  0  0  0  0  0  0  0  0  0  0
  -19.8671  -25.1209   18.3004 C   0  0  0  0  0  0  0  0  0  0  0  0
  -18.4235  -23.4964   22.8119 C   0  0  0  0  0  0  0  0  0  0  0  0
  -16.8692  -25.2349   20.8855 C   0  0  0  0  0  0  0  0  0  0  0  0
  -31.1592  -17.8521   18.8065 C   0  0  0  0  0  0  0  0  0  0  0  0
  -26.7104  -15.2919   22.7676 C   0  0  0  0  0  0  0  0  0  0  0  0
  -28.6273  -16.8599   22.4000 C   0  0  0  0  0  0  0  0  0  0  0  0
  -28.7608  -14.5126   21.5662 C   0  0  0  0  0  0  0  0  0  0  0  0
  -28.3330  -19.5313   16.8910 C   0  0  0  0  0  0  0  0  0  0  0  0
  -21.4564  -20.6827   19.9896 C   0  0  0  0  0  0  0  0  0  1  0  0
  -18.3649  -25.5369   20.7488 C   0  0  2  0  0  0  0  0  0  0  0  0
  -27.2419  -16.1596   20.3947 C   0  0  1  0  0  0  0  0  0  0  0  0
  -29.7621  -17.9703   18.2176 C   0  0  2  0  0  0  0  0  0  0  0  0
  -27.8095  -15.7117   21.7711 C   0  0  0  0  0  0  0  0  0  0  0  0
  -25.5254  -28.1055   20.8540 N   0  0  0  0  0  0  0  0  0  0  0  0
  -25.0385  -29.3439   20.6659 N   0  0  0  0  0  0  0  0  0  0  0  0
  -25.0707  -15.4085   19.4750 N   0  0  0  0  0  0  0  0  0  0  0  0
  -22.5304  -29.5231   23.5469 N   0  0  0  0  0  0  0  0  0  0  0  0
  -20.3998  -28.5422   23.0776 N   0  0  0  0  0  0  0  0  0  0  0  0
  -25.0010  -31.1455   19.1286 N   0  0  0  0  0  0  0  0  0  0  0  0
  -27.5658  -28.0600   17.0555 N   0  0  0  0  0  0  0  0  0  0  0  0
  -23.7282  -12.4996   20.5265 N   0  0  0  0  0  0  0  0  0  0  0  0
  -28.2616  -16.5370   19.4220 N   0  0  0  0  0  0  0  0  0  0  0  0
  -29.6497  -19.2906   17.5356 N   0  3  0  0  0  0  0  0  0  0  0  0
  -26.6807  -30.1681   16.8791 O   0  0  0  0  0  0  0  0  0  0  0  0
  -22.7378  -14.5744   20.8968 O   0  0  0  0  0  0  0  0  0  0  0  0
  -26.9293  -14.0008   19.4627 O   0  0  0  0  0  0  0  0  0  0  0  0
  -28.2945  -18.7944   19.9510 O   0  0  0  0  0  0  0  0  0  0  0  0
  -20.5787  -30.7267   23.7973 O   0  0  0  0  0  0  0  0  0  0  0  0
  -28.9013  -23.0242   19.0284 O   0  0  0  0  0  0  0  0  0  0  0  0
  -20.7740  -19.8301   19.0809 O   0  0  0  0  0  0  0  0  0  1  0  0
  -31.8089  -21.0599   23.2818 F   0  0  0  0  0  0  0  0  0  0  0  0
  -31.6219  -22.5869   18.8053 F   0  0  0  0  0  0  0  0  0  0  0  0
  1  2  1  0  0  0  0
  1  5  2  0  0  0  0
  2  6  2  0  0  0  0
  3  8  2  0  0  0  0
  3 15  1  0  0  0  0
  4  9  1  0  0  0  0
  4 15  2  0  0  0  0
  5 17  1  0  0  0  0
  6 19  1  0  0  0  0
  7 10  2  0  0  0  0
  7 18  1  0  0  0  0
  8 27  1  0  0  0  0
  9 27  2  0  0  0  0
 10 28  1  0  0  0  0
 11 12  2  0  0  0  0
 11 29  1  0  0  0  0
 12 30  1  0  0  0  0
 13 20  1  0  0  0  0
 13 28  2  0  0  0  0
 14 30  2  0  0  0  0
 14 31  1  0  0  0  0
 15 32  1  0  0  0  0
 16 32  1  0  0  0  0
 16 33  2  0  0  0  0
 16 34  1  0  0  0  0
 17 19  2  0  0  0  0
 17 39  1  0  0  0  0
 18 20  2  0  0  0  0
 18 40  1  0  0  0  0
 19 52  1  0  0  0  0
 20 41  1  0  0  0  0
 21 23  2  0  0  0  0
 21 25  1  0  0  0  0
 21 56  1  0  0  0  0
 22 24  1  0  0  0  0
 22 25  2  0  0  0  0
 22 57  1  0  0  0  0
 23 26  1  0  0  0  0
 23 58  1  0  0  0  0
 24 26  2  0  0  0  0
 24 59  1  0  0  0  0
 25 66  1  0  0  0  0
 26 67  1  0  0  0  0
 27 86  1  0  0  0  0
 28 87  1  0  0  0  0
 29 31  2  0  0  0  0
 29 86  1  0  0  0  0
 30 88  1  0  0  0  0
 31 89  1  0  0  0  0
 32 71  2  0  0  0  0
 33 72  1  0  0  0  0
 33 76  1  0  0  0  0
 34 77  1  0  0  0  0
 34 81  2  0  0  0  0
 35 53  1  0  0  0  0
 35 78  1  0  0  0  0
 35 82  2  0  0  0  0
 36 68  1  0  0  0  0
 36 73  1  0  0  0  0
 36 83  2  0  0  0  0
 37 69  1  0  0  0  0
 37 79  1  0  0  0  0
 37 84  2  0  0  0  0
 38 74  1  0  0  0  0
 38 75  1  0  0  0  0
 38 85  2  0  0  0  0
 39 42  1  0  0  0  0
 40 53  1  0  0  0  0
 41 73  1  0  0  0  0
 42 44  1  0  0  0  0
 43 45  1  0  0  0  0
 43 48  1  0  0  0  0
 44 52  1  0  0  0  0
 45 55  1  0  0  0  0
 46 49  1  0  0  0  0
 46 54  1  0  0  0  0
 47 50  1  0  0  0  0
 47 54  1  0  0  0  0
 48 74  1  0  0  0  0
 49 75  1  0  0  0  0
 50 75  1  0  0  0  0
 51 55  1  0  0  0  0
 51 74  1  0  0  0  0
 52 78  1  0  0  0  0
 53 73  1  0  0  0  0
 54 67  1  0  0  0  0
 55 72  1  0  0  0  0
 60 67  1  0  0  0  0
 61 69  1  0  0  0  0
 62 70  1  0  0  0  0
 63 70  1  0  0  0  0
 64 70  1  0  0  0  0
 65 80  1  0  0  0  0
 66 87  1  0  0  0  0
 68 70  1  0  0  0  0
 68 79  1  0  0  0  0
 69 80  1  0  0  0  0
 71 72  1  0  0  0  0
M  CHG  1  80   1
M  ISO  4  38 100  66 101  75 100  87 101
M  END
> <Batch ID>
0161

> <Smiles>
CNC(C)C(=O)NC(C(=O)N1Cc2cc([101O:1][101CH2:1]c3c(C)c(C)c(C(C)C4CC[100N:0]([100C:0](=O)N5CCCC(n6nc(-c7ccc(Oc8ccc(F)cc8F)cc7)c(C(N)=O)c6N)C5)CC4)c(C)c3C)ccc2CC1C(=O)NC1CCCc2ccccc21)C(C)(C)C

> <Shape>
0.263

> <Color>
0.082

> <Negative vol penalty>
0.000

$$$$

  -OEChem-04052322123D

 89 97  0     1  0  0  0  0  0999 V2000
  -30.5143  -24.4657   14.7951 C   0  0  0  0  0  0  0  0  0  0  0  0
  -29.4104  -23.9703   15.4799 C   0  0  0  0  0  0  0  0  0  0  0  0
  -27.0793  -22.7678   24.1316 C   0  0  0  0  0  0  0  0  0  0  0  0
  -29.3839  -23.4702   24.3128 C   0  0  0  0  0  0  0  0  0  0  0  0
  -31.0735  -25.6850   15.1713 C   0  0  0  0  0  0  0  0  0  0  0  0
  -28.8581  -24.6998   16.5334 C   0  0  0  0  0  0  0  0  0  0  0  0
  -24.6566  -23.0133   18.4586 C   0  0  0  0  0  0  0  0  0  0  0  0
  -26.7143  -23.7198   25.0834 C   0  0  0  0  0  0  0  0  0  0  0  0
  -29.0189  -24.4223   25.2646 C   0  0  0  0  0  0  0  0  0  0  0  0
  -24.5965  -21.8661   19.2485 C   0  0  0  0  0  0  0  0  0  0  0  0
  -26.8185  -24.0468   28.4459 C   0  0  0  0  0  0  0  0  0  0  0  0
  -25.9452  -23.6485   29.4580 C   0  0  0  0  0  0  0  0  0  0  0  0
  -24.4027  -23.2415   21.2208 C   0  0  0  0  0  0  0  0  0  0  0  0
  -24.3554  -25.3221   28.7446 C   0  0  0  0  0  0  0  0  0  0  0  0
  -28.4141  -22.6429   23.7463 C   0  0  0  0  0  0  0  0  0  0  0  0
  -28.8496  -21.8309   21.3675 C   0  0  0  0  0  0  0  0  0  0  0  0
  -30.5348  -26.4232   16.2380 C   0  0  0  0  0  0  0  0  0  0  0  0
  -24.6010  -24.2855   19.0459 C   0  0  0  0  0  0  0  0  0  0  0  0
  -29.3935  -25.9440   16.9127 C   0  0  0  0  0  0  0  0  0  0  0  0
  -24.4597  -24.4033   20.4360 C   0  0  0  0  0  0  0  0  0  0  0  0
  -24.2648  -12.5599   20.4456 C   0  0  0  0  0  0  0  0  0  0  0  0
  -25.5330  -12.1486   20.0357 C   0  0  0  0  0  0  0  0  0  0  0  0
  -24.1026  -13.7904   21.0822 C   0  0  0  0  0  0  0  0  0  0  0  0
  -26.6390  -12.9677   20.2624 C   0  0  0  0  0  0  0  0  0  0  0  0
  -25.2086  -14.6096   21.3089 C   0  0  0  0  0  0  0  0  0  0  0  0
  -26.4768  -14.1983   20.8990 C   0  0  0  0  0  0  0  0  0  0  0  0
  -27.6841  -24.5471   25.6499 C   0  0  0  0  0  0  0  0  0  0  0  0
  -24.4724  -21.9800   20.6301 C   0  0  0  0  0  0  0  0  0  0  0  0
  -26.4604  -25.0827   27.5832 C   0  0  0  0  0  0  0  0  0  0  0  0
  -24.7136  -24.2862   29.6073 C   0  0  0  0  0  0  0  0  0  0  0  0
  -25.2288  -25.7204   27.7326 C   0  0  0  0  0  0  0  0  0  0  0  0
  -28.7919  -21.6592   22.7636 C   0  0  0  0  0  0  0  0  0  0  0  0
  -29.2599  -20.6109   20.8882 C   0  0  0  0  0  0  0  0  0  0  0  0
  -28.5583  -22.9895   20.5748 C   0  0  0  0  0  0  0  0  0  0  0  0
  -26.5711  -26.7756   19.1942 C   0  0  0  0  0  0  0  0  0  0  0  0
  -24.0367  -28.1994   20.6337 C   0  0  0  0  0  0  0  0  0  0  0  0
  -21.1383  -27.8532   22.4017 C   0  0  0  0  0  0  0  0  0  0  0  0
  -28.3775  -14.9468   22.3211 C   0  0  0  0  0  0  0  0  0  0  0  0
  -31.1749  -27.7408   16.5980 C   0  0  0  0  0  0  0  0  0  0  0  0
  -24.6402  -25.5131   18.1775 C   0  0  0  0  0  0  0  0  0  0  0  0
  -24.3753  -25.7457   21.1136 C   0  0  0  0  0  0  0  0  0  0  0  0
  -30.8006  -28.2211   17.9964 C   0  0  0  0  0  0  0  0  0  0  0  0
  -31.5869  -16.7015   22.8016 C   0  0  0  0  0  0  0  0  0  0  0  0
  -29.2923  -28.1527   18.1831 C   0  0  0  0  0  0  0  0  0  0  0  0
  -31.1776  -18.1732   22.7752 C   0  0  0  0  0  0  0  0  0  0  0  0
  -30.4672  -15.8112   23.3324 C   0  0  0  0  0  0  0  0  0  0  0  0
  -28.7662  -17.4442   22.5773 C   0  0  0  0  0  0  0  0  0  0  0  0
  -28.7945  -26.7054   18.0814 C   0  0  1  0  0  0  0  0  0  0  0  0
  -25.0923  -26.7618   18.9282 C   0  0  1  0  0  0  0  0  0  0  0  0
  -29.8581  -18.3620   22.0069 C   0  0  1  0  0  0  0  0  0  0  0  0
  -23.0784  -11.6812   20.2022 C   0  0  0  0  0  0  0  0  0  0  0  0
  -25.7064  -10.8285   19.3525 C   0  0  0  0  0  0  0  0  0  0  0  0
  -27.9985  -12.5220   19.8205 C   0  0  0  0  0  0  0  0  0  0  0  0
  -22.1339  -13.2875   22.5739 C   0  0  0  0  0  0  0  0  0  0  0  0
  -21.7713  -14.3962   20.3391 C   0  0  0  0  0  0  0  0  0  0  0  0
  -19.3082  -29.1994   23.4675 C   0  0  0  0  0  0  0  0  0  0  0  0
  -23.0430  -18.5173   22.4845 C   0  0  0  0  0  0  0  0  0  0  0  0
  -25.9042  -28.9073   22.9405 C   0  0  0  0  0  0  0  0  0  0  0  0
  -23.8828  -29.3761   24.3413 C   0  0  0  0  0  0  0  0  0  0  0  0
  -24.3159  -30.7256   22.2886 C   0  0  0  0  0  0  0  0  0  0  0  0
  -28.1396  -15.8462   20.0180 C   0  0  0  0  0  0  0  0  0  0  0  0
  -19.0726  -26.6319   20.6696 C   0  0  0  0  0  0  0  0  0  0  0  0
  -25.0283  -15.9397   21.9968 C   0  0  0  0  0  0  0  0  0  0  0  0
  -24.5126  -17.0538   21.0754 C   0  0  0  0  0  0  0  0  0  0  0  0
  -24.4859  -19.6041   20.7332 C   0  0  0  0  0  0  0  0  0  1  0  0
  -22.7416  -14.2310   21.5215 C   0  0  0  0  0  0  0  0  0  0  0  0
  -23.5487  -28.3278   22.0565 C   0  0  1  0  0  0  0  0  0  0  0  0
  -19.7638  -28.4696   22.2135 C   0  0  2  0  0  0  0  0  0  0  0  0
  -24.3786  -18.4450   21.7333 C   0  0  1  0  0  0  0  0  0  0  0  0
  -24.4164  -29.3088   22.8944 C   0  0  0  0  0  0  0  0  0  0  0  0
  -29.1378  -20.4272   23.1463 N   0  0  0  0  0  0  0  0  0  0  0  0
  -29.4167  -19.8136   21.9836 N   0  0  0  0  0  0  0  0  0  0  0  0
  -24.4243  -26.9163   20.2221 N   0  0  0  0  0  0  0  0  0  0  0  0
  -29.2128  -16.0432   22.6152 N   0  0  0  0  0  0  0  0  0  0  0  0
  -29.4983  -20.1531   19.6408 N   0  0  0  0  0  0  0  0  0  0  0  0
  -28.1493  -24.1603   21.2279 N   0  0  0  0  0  0  0  0  0  0  0  0
  -27.3485  -26.7043   18.0540 N   0  0  0  0  0  0  0  0  0  0  0  0
  -22.1400  -28.6981   21.9729 N   0  0  0  0  0  0  0  0  0  0  0  0
  -27.6217  -15.0464   21.1329 N   0  0  0  0  0  0  0  0  0  0  0  0
  -18.7619  -27.4137   21.8940 N   0  3  0  0  0  0  0  0  0  0  0  0
  -28.6419  -22.9819   19.3232 O   0  0  0  0  0  0  0  0  0  0  0  0
  -26.9768  -26.8472   20.3483 O   0  0  0  0  0  0  0  0  0  0  0  0
  -24.0660  -29.1992   19.9119 O   0  0  0  0  0  0  0  0  0  0  0  0
  -21.3066  -26.7356   22.8845 O   0  0  0  0  0  0  0  0  0  0  0  0
  -28.3338  -13.9466   23.0473 O   0  0  0  0  0  0  0  0  0  0  0  0
  -27.3282  -25.4764   26.5785 O   0  0  0  0  0  0  0  0  0  0  0  0
  -24.4142  -20.8618   21.4035 O   0  0  0  0  0  0  0  0  0  1  0  0
  -23.8744  -23.9026   30.5783 F   0  0  0  0  0  0  0  0  0  0  0  0
  -24.8787  -26.7155   26.9061 F   0  0  0  0  0  0  0  0  0  0  0  0
  1  2  1  0  0  0  0
  1  5  2  0  0  0  0
  2  6  2  0  0  0  0
  3  8  2  0  0  0  0
  3 15  1  0  0  0  0
  4  9  1  0  0  0  0
  4 15  2  0  0  0  0
  5 17  1  0  0  0  0
  6 19  1  0  0  0  0
  7 10  2  0  0  0  0
  7 18  1  0  0  0  0
  8 27  1  0  0  0  0
  9 27  2  0  0  0  0
 10 28  1  0  0  0  0
 11 12  2  0  0  0  0
 11 29  1  0  0  0  0
 12 30  1  0  0  0  0
 13 20  1  0  0  0  0
 13 28  2  0  0  0  0
 14 30  2  0  0  0  0
 14 31  1  0  0  0  0
 15 32  1  0  0  0  0
 16 32  1  0  0  0  0
 16 33  2  0  0  0  0
 16 34  1  0  0  0  0
 17 19  2  0  0  0  0
 17 39  1  0  0  0  0
 18 20  2  0  0  0  0
 18 40  1  0  0  0  0
 19 48  1  0  0  0  0
 20 41  1  0  0  0  0
 21 22  1  0  0  0  0
 21 23  2  0  0  0  0
 21 51  1  0  0  0  0
 22 24  2  0  0  0  0
 22 52  1  0  0  0  0
 23 25  1  0  0  0  0
 23 66  1  0  0  0  0
 24 26  1  0  0  0  0
 24 53  1  0  0  0  0
 25 26  2  0  0  0  0
 25 63  1  0  0  0  0
 26 79  1  0  0  0  0
 27 86  1  0  0  0  0
 28 87  1  0  0  0  0
 29 31  2  0  0  0  0
 29 86  1  0  0  0  0
 30 88  1  0  0  0  0
 31 89  1  0  0  0  0
 32 71  2  0  0  0  0
 33 72  1  0  0  0  0
 33 75  1  0  0  0  0
 34 76  1  0  0  0  0
 34 81  2  0  0  0  0
 35 49  1  0  0  0  0
 35 77  1  0  0  0  0
 35 82  2  0  0  0  0
 36 67  1  0  0  0  0
 36 73  1  0  0  0  0
 36 83  2  0  0  0  0
 37 68  1  0  0  0  0
 37 78  1  0  0  0  0
 37 84  2  0  0  0  0
 38 74  1  0  0  0  0
 38 79  1  0  0  0  0
 38 85  2  0  0  0  0
 39 42  1  0  0  0  0
 40 49  1  0  0  0  0
 41 73  1  0  0  0  0
 42 44  1  0  0  0  0
 43 45  1  0  0  0  0
 43 46  1  0  0  0  0
 44 48  1  0  0  0  0
 45 50  1  0  0  0  0
 46 74  1  0  0  0  0
 47 50  1  0  0  0  0
 47 74  1  0  0  0  0
 48 77  1  0  0  0  0
 49 73  1  0  0  0  0
 50 72  1  0  0  0  0
 54 66  1  0  0  0  0
 55 66  1  0  0  0  0
 56 68  1  0  0  0  0
 57 69  1  0  0  0  0
 58 70  1  0  0  0  0
 59 70  1  0  0  0  0
 60 70  1  0  0  0  0
 61 79  1  0  0  0  0
 62 80  1  0  0  0  0
 63 64  1  0  0  0  0
 64 69  1  0  0  0  0
 65 69  1  0  0  0  0
 65 87  1  0  0  0  0
 67 70  1  0  0  0  0
 67 78  1  0  0  0  0
 68 80  1  0  0  0  0
 71 72  1  0  0  0  0
M  CHG  1  80   1
M  ISO  4  38 100  65 101  79 100  87 101
M  END
> <Batch ID>
0161

> <Smiles>
CNC(C)C(=O)NC(C(=O)N1Cc2cc([101O:1][101CH2:1]C(C)CCc3c(C(C)C)c(C)c(C)c(C)c3[100N:0](C)[100C:0](=O)N3CCCC(n4nc(-c5ccc(Oc6ccc(F)cc6F)cc5)c(C(N)=O)c4N)C3)ccc2CC1C(=O)NC1CCCc2ccccc21)C(C)(C)C

> <Shape>
0.220

> <Color>
0.049

> <Negative vol penalty>
0.000

$$$$

  -OEChem-04052322123D

 86 95  0     1  0  0  0  0  0999 V2000
  -30.2445  -12.1462   20.2056 C   0  0  0  0  0  0  0  0  0  0  0  0
  -30.0397  -13.3050   20.9475 C   0  0  0  0  0  0  0  0  0  0  0  0
  -28.1957  -26.4093   18.6568 C   0  0  0  0  0  0  0  0  0  0  0  0
  -26.7362  -25.2057   20.1596 C   0  0  0  0  0  0  0  0  0  0  0  0
  -29.3803  -11.8283   19.1586 C   0  0  0  0  0  0  0  0  0  0  0  0
  -28.9712  -14.1473   20.6422 C   0  0  0  0  0  0  0  0  0  0  0  0
  -25.6312  -17.4344   24.5850 C   0  0  0  0  0  0  0  0  0  0  0  0
  -28.7279  -25.2013   18.2062 C   0  0  0  0  0  0  0  0  0  0  0  0
  -27.2683  -23.9977   19.7089 C   0  0  0  0  0  0  0  0  0  0  0  0
  -25.6815  -18.7741   24.9676 C   0  0  0  0  0  0  0  0  0  0  0  0
  -28.4953  -20.6124   19.2146 C   0  0  0  0  0  0  0  0  0  0  0  0
  -28.8242  -19.6519   20.1710 C   0  0  0  0  0  0  0  0  0  0  0  0
  -26.1378  -25.1227   25.4259 C   0  0  0  0  0  0  0  0  0  0  0  0
  -23.9599  -19.2918   23.3590 C   0  0  0  0  0  0  0  0  0  0  0  0
  -30.3849  -21.1939   21.1828 C   0  0  0  0  0  0  0  0  0  0  0  0
  -27.1999  -26.4115   19.6336 C   0  0  0  0  0  0  0  0  0  0  0  0
  -25.5408  -28.3484   19.5748 C   0  0  0  0  0  0  0  0  0  0  0  0
  -28.2950  -12.6621   18.8465 C   0  0  0  0  0  0  0  0  0  0  0  0
  -24.7512  -17.0145   23.5772 C   0  0  0  0  0  0  0  0  0  0  0  0
  -28.0925  -13.8410   19.5892 C   0  0  0  0  0  0  0  0  0  0  0  0
  -25.4966  -25.5559   26.5864 C   0  0  0  0  0  0  0  0  0  0  0  0
  -23.8986  -17.9457   22.9673 C   0  0  0  0  0  0  0  0  0  0  0  0
  -26.2428  -23.7584   25.1549 C   0  0  0  0  0  0  0  0  0  0  0  0
  -25.7066  -22.8273   26.0444 C   0  0  0  0  0  0  0  0  0  0  0  0
  -25.0654  -23.2605   27.2049 C   0  0  0  0  0  0  0  0  0  0  0  0
  -28.2641  -23.9955   18.7322 C   0  0  0  0  0  0  0  0  0  0  0  0
  -24.8478  -19.7035   24.3526 C   0  0  0  0  0  0  0  0  0  0  0  0
  -29.1112  -21.8637   19.2422 C   0  0  0  0  0  0  0  0  0  0  0  0
  -29.7690  -19.9426   21.1552 C   0  0  0  0  0  0  0  0  0  0  0  0
  -30.0560  -22.1544   20.2263 C   0  0  0  0  0  0  0  0  0  0  0  0
  -24.9604  -24.6248   27.4759 C   0  0  0  0  0  0  0  0  0  0  0  0
  -26.6502  -27.6591   20.1000 C   0  0  0  0  0  0  0  0  0  0  0  0
  -25.4276  -29.4677   20.3627 C   0  0  0  0  0  0  0  0  0  0  0  0
  -24.6887  -28.0073   18.4734 C   0  0  0  0  0  0  0  0  0  0  0  0
  -25.0942  -15.6873   20.7094 C   0  0  0  0  0  0  0  0  0  0  0  0
  -21.8572  -15.5170   20.8313 C   0  0  0  0  0  0  0  0  0  0  0  0
  -18.9389  -16.7265   22.1227 C   0  0  0  0  0  0  0  0  0  0  0  0
  -26.2290  -31.1371   25.7696 C   0  0  0  0  0  0  0  0  0  0  0  0
  -27.4156  -12.3013   17.6755 C   0  0  0  0  0  0  0  0  0  0  0  0
  -24.6901  -15.5611   23.1947 C   0  0  0  0  0  0  0  0  0  0  0  0
  -22.9216  -17.5425   21.8943 C   0  0  0  0  0  0  0  0  0  0  0  0
  -26.0875  -13.0537   17.6566 C   0  0  0  0  0  0  0  0  0  0  0  0
  -27.4321  -32.7419   22.9538 C   0  0  0  0  0  0  0  0  0  0  0  0
  -26.3118  -14.5394   17.9197 C   0  0  0  0  0  0  0  0  0  0  0  0
  -27.1418  -31.7548   21.8232 C   0  0  0  0  0  0  0  0  0  0  0  0
  -26.7966  -27.6916   26.9951 C   0  0  0  0  0  0  0  0  0  0  0  0
  -24.5964  -27.7707   25.7487 C   0  0  0  0  0  0  0  0  0  0  0  0
  -26.2690  -32.8036   23.9375 C   0  0  0  0  0  0  0  0  0  0  0  0
  -26.6949  -29.1978   27.2237 C   0  0  0  0  0  0  0  0  0  0  0  0
  -24.5433  -29.2737   26.0068 C   0  0  0  0  0  0  0  0  0  0  0  0
  -25.6079  -30.4820   23.4015 C   0  0  0  0  0  0  0  0  0  0  0  0
  -25.4075  -27.0492   26.8395 C   0  0  0  0  0  0  0  0  0  0  0  0
  -26.9301  -14.7672   19.3044 C   0  0  1  0  0  0  0  0  0  0  0  0
  -24.1204  -15.3343   21.7978 C   0  0  1  0  0  0  0  0  0  0  0  0
  -26.7589  -30.3728   22.3816 C   0  0  1  0  0  0  0  0  0  0  0  0
  -26.9338  -23.3211   23.9052 C   0  0  0  0  0  0  0  0  0  0  0  0
  -24.4958  -22.2454   28.1473 C   0  0  0  0  0  0  0  0  0  0  0  0
  -16.4522  -16.4112   22.0043 C   0  0  0  0  0  0  0  0  0  0  0  0
  -21.8051  -16.9572   18.1418 C   0  0  0  0  0  0  0  0  0  0  0  0
  -19.3820  -17.4516   18.5322 C   0  0  0  0  0  0  0  0  0  0  0  0
  -20.1581  -15.0875   18.3560 C   0  0  0  0  0  0  0  0  0  0  0  0
  -18.7739  -16.0299   24.9943 C   0  0  0  0  0  0  0  0  0  0  0  0
  -25.8209  -21.3651   25.7484 C   0  0  0  0  0  0  0  0  0  1  0  0
  -20.7228  -16.4264   20.4249 C   0  0  1  0  0  0  0  0  0  0  0  0
  -17.7350  -16.0231   22.7229 C   0  0  2  0  0  0  0  0  0  0  0  0
  -20.5367  -16.4889   18.8826 C   0  0  0  0  0  0  0  0  0  0  0  0
  -27.2025  -28.2880   21.1409 N   0  0  0  0  0  0  0  0  0  0  0  0
  -26.4371  -29.3843   21.2761 N   0  0  0  0  0  0  0  0  0  0  0  0
  -22.9039  -16.1110   21.5506 N   0  0  0  0  0  0  0  0  0  0  0  0
  -25.9322  -31.4716   24.4396 N   0  0  0  0  0  0  0  0  0  0  0  0
  -25.8864  -29.8410   26.1887 N   0  0  0  0  0  0  0  0  0  0  0  0
  -24.5642  -30.5054   20.3563 N   0  0  0  0  0  0  0  0  0  0  0  0
  -24.9457  -26.8214   17.7720 N   0  0  0  0  0  0  0  0  0  0  0  0
  -25.9211  -14.6455   20.3347 N   0  0  0  0  0  0  0  0  0  0  0  0
  -19.5460  -15.9602   21.1504 N   0  0  0  0  0  0  0  0  0  0  0  0
  -17.5927  -16.3779   24.1633 N   0  3  0  0  0  0  0  0  0  0  0  0
  -23.7378  -28.7410   18.1112 O   0  0  0  0  0  0  0  0  0  0  0  0
  -25.0944  -16.8205   20.2429 O   0  0  0  0  0  0  0  0  0  0  0  0
  -21.8128  -14.3222   20.5279 O   0  0  0  0  0  0  0  0  0  0  0  0
  -19.3022  -17.8456   22.4781 O   0  0  0  0  0  0  0  0  0  0  0  0
  -26.7717  -31.9427   26.5359 O   0  0  0  0  0  0  0  0  0  0  0  0
  -28.7830  -22.8165   18.2924 O   0  0  0  0  0  0  0  0  0  0  0  0
  -24.8956  -21.0217   24.7264 O   0  0  0  0  0  0  0  0  0  1  0  0
  -30.0837  -19.0207   22.0745 F   0  0  0  0  0  0  0  0  0  0  0  0
  -30.6502  -23.3551   20.2587 F   0  0  0  0  0  0  0  0  0  0  0  0
  -24.1643  -25.1665   28.9161 Cl  0  0  0  0  0  0  0  0  0  0  0  0
  1  2  1  0  0  0  0
  1  5  2  0  0  0  0
  2  6  2  0  0  0  0
  3  8  2  0  0  0  0
  3 16  1  0  0  0  0
  4  9  1  0  0  0  0
  4 16  2  0  0  0  0
  5 18  1  0  0  0  0
  6 20  1  0  0  0  0
  7 10  2  0  0  0  0
  7 19  1  0  0  0  0
  8 26  1  0  0  0  0
  9 26  2  0  0  0  0
 10 27  1  0  0  0  0
 11 12  2  0  0  0  0
 11 28  1  0  0  0  0
 12 29  1  0  0  0  0
 13 21  1  0  0  0  0
 13 23  2  0  0  0  0
 14 22  1  0  0  0  0
 14 27  2  0  0  0  0
 15 29  2  0  0  0  0
 15 30  1  0  0  0  0
 16 32  1  0  0  0  0
 17 32  1  0  0  0  0
 17 33  2  0  0  0  0
 17 34  1  0  0  0  0
 18 20  2  0  0  0  0
 18 39  1  0  0  0  0
 19 22  2  0  0  0  0
 19 40  1  0  0  0  0
 20 53  1  0  0  0  0
 21 31  2  0  0  0  0
 21 52  1  0  0  0  0
 22 41  1  0  0  0  0
 23 24  1  0  0  0  0
 23 56  1  0  0  0  0
 24 25  2  0  0  0  0
 24 63  1  0  0  0  0
 25 31  1  0  0  0  0
 25 57  1  0  0  0  0
 26 82  1  0  0  0  0
 27 83  1  0  0  0  0
 28 30  2  0  0  0  0
 28 82  1  0  0  0  0
 29 84  1  0  0  0  0
 30 85  1  0  0  0  0
 31 86  1  0  0  0  0
 32 67  2  0  0  0  0
 33 68  1  0  0  0  0
 33 72  1  0  0  0  0
 34 73  1  0  0  0  0
 34 77  2  0  0  0  0
 35 54  1  0  0  0  0
 35 74  1  0  0  0  0
 35 78  2  0  0  0  0
 36 64  1  0  0  0  0
 36 69  1  0  0  0  0
 36 79  2  0  0  0  0
 37 65  1  0  0  0  0
 37 75  1  0  0  0  0
 37 80  2  0  0  0  0
 38 70  1  0  0  0  0
 38 71  1  0  0  0  0
 38 81  2  0  0  0  0
 39 42  1  0  0  0  0
 40 54  1  0  0  0  0
 41 69  1  0  0  0  0
 42 44  1  0  0  0  0
 43 45  1  0  0  0  0
 43 48  1  0  0  0  0
 44 53  1  0  0  0  0
 45 55  1  0  0  0  0
 46 49  1  0  0  0  0
 46 52  1  0  0  0  0
 47 50  1  0  0  0  0
 47 52  1  0  0  0  0
 48 70  1  0  0  0  0
 49 71  1  0  0  0  0
 50 71  1  0  0  0  0
 51 55  1  0  0  0  0
 51 70  1  0  0  0  0
 53 74  1  0  0  0  0
 54 69  1  0  0  0  0
 55 68  1  0  0  0  0
 58 65  1  0  0  0  0
 59 66  1  0  0  0  0
 60 66  1  0  0  0  0
 61 66  1  0  0  0  0
 62 76  1  0  0  0  0
 63 83  1  0  0  0  0
 64 66  1  0  0  0  0
 64 75  1  0  0  0  0
 65 76  1  0  0  0  0
 67 68  1  0  0  0  0
M  CHG  1  76   1
M  ISO  4  38 100  63 101  71 100  83 101
M  END
> <Batch ID>
0161

> <Smiles>
CNC(C)C(=O)NC(C(=O)N1Cc2cc([101O:1][101CH2:1]c3c(C)cc(C4CC[100N:0]([100C:0](=O)N5CCCC(n6nc(-c7ccc(Oc8ccc(F)cc8F)cc7)c(C(N)=O)c6N)C5)CC4)c(Cl)c3C)ccc2CC1C(=O)NC1CCCc2ccccc21)C(C)(C)C

> <Shape>
0.215

> <Color>
0.071

> <Negative vol penalty>
0.000

$$$$

  -OEChem-04052322123D

 87 96  0     1  0  0  0  0  0999 V2000
  -20.4058  -21.0057   17.7075 C   0  0  0  0  0  0  0  0  0  0  0  0
  -20.9901  -19.7485   17.5910 C   0  0  0  0  0  0  0  0  0  0  0  0
  -25.1303  -26.8392   18.8399 C   0  0  0  0  0  0  0  0  0  0  0  0
  -25.3501  -26.7725   21.2450 C   0  0  0  0  0  0  0  0  0  0  0  0
  -20.7559  -21.8403   18.7680 C   0  0  0  0  0  0  0  0  0  0  0  0
  -21.9258  -19.3257   18.5344 C   0  0  0  0  0  0  0  0  0  0  0  0
  -22.7545  -13.6187   20.5959 C   0  0  0  0  0  0  0  0  0  0  0  0
  -23.8660  -27.4134   18.9714 C   0  0  0  0  0  0  0  0  0  0  0  0
  -24.0858  -27.3468   21.3765 C   0  0  0  0  0  0  0  0  0  0  0  0
  -23.6695  -12.6228   20.2574 C   0  0  0  0  0  0  0  0  0  0  0  0
  -20.8625  -26.3429   21.1940 C   0  0  0  0  0  0  0  0  0  0  0  0
  -19.9937  -25.7889   22.1342 C   0  0  0  0  0  0  0  0  0  0  0  0
  -25.0755  -13.2974   22.0979 C   0  0  0  0  0  0  0  0  0  0  0  0
  -28.5802  -12.7019   18.2284 C   0  0  0  0  0  0  0  0  0  0  0  0
  -19.8960  -27.9072   23.2921 C   0  0  0  0  0  0  0  0  0  0  0  0
  -28.8688  -11.9070   20.4513 C   0  0  0  0  0  0  0  0  0  0  0  0
  -25.8724  -26.5187   19.9768 C   0  0  0  0  0  0  0  0  0  0  0  0
  -28.4119  -26.5968   19.7477 C   0  0  0  0  0  0  0  0  0  0  0  0
  -21.6892  -21.4236   19.7303 C   0  0  0  0  0  0  0  0  0  0  0  0
  -22.9988  -14.4700   21.6832 C   0  0  0  0  0  0  0  0  0  0  0  0
  -22.2898  -20.1560   19.6081 C   0  0  0  0  0  0  0  0  0  0  0  0
  -24.1608  -14.3017   22.4497 C   0  0  0  0  0  0  0  0  0  0  0  0
  -28.2460  -11.7858   19.2195 C   0  0  0  0  0  0  0  0  0  0  0  0
  -29.5137  -13.6972   18.4956 C   0  0  0  0  0  0  0  0  0  0  0  0
  -23.3437  -27.6672   20.2396 C   0  0  0  0  0  0  0  0  0  0  0  0
  -24.8316  -12.4638   21.0067 C   0  0  0  0  0  0  0  0  0  0  0  0
  -21.2481  -27.6790   21.3029 C   0  0  0  0  0  0  0  0  0  0  0  0
  -19.5104  -26.5710   23.1832 C   0  0  0  0  0  0  0  0  0  0  0  0
  -20.7648  -28.4611   22.3519 C   0  0  0  0  0  0  0  0  0  0  0  0
  -27.1783  -25.9250   19.8416 C   0  0  0  0  0  0  0  0  0  0  0  0
  -30.0795  -13.7329   19.7598 C   0  0  0  0  0  0  0  0  0  0  0  0
  -29.3421  -25.5924   19.6357 C   0  0  0  0  0  0  0  0  0  0  0  0
  -28.6920  -28.0028   19.7607 C   0  0  0  0  0  0  0  0  0  0  0  0
  -23.4133  -17.6023   22.0307 C   0  0  0  0  0  0  0  0  0  0  0  0
  -23.3975  -16.8600   25.1884 C   0  0  0  0  0  0  0  0  0  0  0  0
  -23.8892  -14.5112   27.6149 C   0  0  0  0  0  0  0  0  0  0  0  0
  -29.5333  -20.0878   21.3968 C   0  0  0  0  0  0  0  0  0  0  0  0
  -22.0712  -22.3794   20.8326 C   0  0  0  0  0  0  0  0  0  0  0  0
  -21.9890  -15.5221   22.0516 C   0  0  0  0  0  0  0  0  0  0  0  0
  -24.4601  -15.1764   23.6387 C   0  0  0  0  0  0  0  0  0  0  0  0
  -22.7922  -21.7078   21.9986 C   0  0  0  0  0  0  0  0  0  0  0  0
  -29.8562  -21.1130   18.0530 C   0  0  0  0  0  0  0  0  0  0  0  0
  -23.8839  -20.7745   21.4848 C   0  0  0  0  0  0  0  0  0  0  0  0
  -29.3206  -22.5428   18.1201 C   0  0  0  0  0  0  0  0  0  0  0  0
  -31.5228  -16.9591   21.3264 C   0  0  0  0  0  0  0  0  0  0  0  0
  -29.2572  -16.5165   20.2912 C   0  0  0  0  0  0  0  0  0  0  0  0
  -29.0339  -20.1526   18.9138 C   0  0  0  0  0  0  0  0  0  0  0  0
  -30.9289  -18.1638   22.0551 C   0  0  0  0  0  0  0  0  0  0  0  0
  -28.7119  -17.7293   21.0424 C   0  0  0  0  0  0  0  0  0  0  0  0
  -28.3492  -22.0165   20.3889 C   0  0  0  0  0  0  0  0  0  0  0  0
  -23.2904  -19.6518   20.6252 C   0  0  1  0  0  0  0  0  0  0  0  0
  -22.5871  -16.6653   22.8657 C   0  0  1  0  0  0  0  0  0  0  0  0
  -29.1898  -23.0157   19.5788 C   0  0  2  0  0  0  0  0  0  0  0  0
  -30.4806  -15.8849   20.9763 C   0  0  0  0  0  0  0  0  0  0  0  0
  -29.8776  -14.6808   17.4376 C   0  0  0  0  0  0  0  0  0  0  0  0
  -23.8367  -14.2114   30.1059 C   0  0  0  0  0  0  0  0  0  0  0  0
  -26.0622  -18.3284   25.4188 C   0  0  0  0  0  0  0  0  0  0  0  0
  -26.4108  -17.2047   27.6288 C   0  0  0  0  0  0  0  0  0  0  0  0
  -24.4751  -18.7447   27.3062 C   0  0  0  0  0  0  0  0  0  0  0  0
  -21.7631  -12.4599   27.4397 C   0  0  0  0  0  0  0  0  0  0  0  0
  -27.2508  -10.7101   18.9660 C   0  0  0  0  0  0  0  0  0  0  0  0
  -31.0928  -14.7858   20.1056 C   0  0  0  0  0  0  0  0  0  0  0  0
  -25.8142  -11.1278   19.3021 C   0  0  0  0  0  0  0  0  0  1  0  0
  -24.4479  -16.4712   26.2005 C   0  0  1  0  0  0  0  0  0  0  0  0
  -23.0462  -14.1067   28.8109 C   0  0  2  0  0  0  0  0  0  0  0  0
  -25.3446  -17.6718   26.6151 C   0  0  0  0  0  0  0  0  0  0  0  0
  -29.7802  -12.8603   20.7481 N   0  0  0  0  0  0  0  0  0  0  0  0
  -27.3095  -24.5967   19.7933 N   0  0  0  0  0  0  0  0  0  0  0  0
  -28.6366  -24.4256   19.6677 N   0  0  0  0  0  0  0  0  0  0  0  0
  -23.4452  -16.1949   23.9551 N   0  0  0  0  0  0  0  0  0  0  0  0
  -28.9020  -20.6646   20.2845 N   0  0  0  0  0  0  0  0  0  0  0  0
  -29.7695  -18.7033   21.3453 N   0  0  0  0  0  0  0  0  0  0  0  0
  -30.6865  -25.6023   19.5138 N   0  0  0  0  0  0  0  0  0  0  0  0
  -27.6193  -28.8966   19.8827 N   0  0  0  0  0  0  0  0  0  0  0  0
  -22.6918  -18.6356   21.4640 N   0  0  0  0  0  0  0  0  0  0  0  0
  -23.7348  -15.8470   27.3097 N   0  0  0  0  0  0  0  0  0  0  0  0
  -30.0287  -15.2297   22.2492 N   0  3  0  0  0  0  0  0  0  0  0  0
  -22.5745  -12.7011   28.6605 N   0  3  0  0  0  0  0  0  0  0  0  0
  -29.8573  -28.4538   19.6503 O   0  0  0  0  0  0  0  0  0  0  0  0
  -24.6165  -17.4033   21.9107 O   0  0  0  0  0  0  0  0  0  0  0  0
  -22.5609  -17.7171   25.4839 O   0  0  0  0  0  0  0  0  0  0  0  0
  -24.6150  -13.7221   27.0141 O   0  0  0  0  0  0  0  0  0  0  0  0
  -29.8701  -20.7659   22.3754 O   0  0  0  0  0  0  0  0  0  0  0  0
  -22.1101  -28.2277   20.3683 O   0  0  0  0  0  0  0  0  0  0  0  0
  -25.7330  -11.4861   20.6757 O   0  0  0  0  0  0  0  0  0  1  0  0
  -18.6749  -26.0393   24.0850 F   0  0  0  0  0  0  0  0  0  0  0  0
  -21.1308  -29.7456   22.4610 F   0  0  0  0  0  0  0  0  0  0  0  0
  1  2  1  0  0  0  0
  1  5  2  0  0  0  0
  2  6  2  0  0  0  0
  3  8  2  0  0  0  0
  3 17  1  0  0  0  0
  4  9  1  0  0  0  0
  4 17  2  0  0  0  0
  5 19  1  0  0  0  0
  6 21  1  0  0  0  0
  7 10  2  0  0  0  0
  7 20  1  0  0  0  0
  8 25  1  0  0  0  0
  9 25  2  0  0  0  0
 10 26  1  0  0  0  0
 11 12  2  0  0  0  0
 11 27  1  0  0  0  0
 12 28  1  0  0  0  0
 13 22  1  0  0  0  0
 13 26  2  0  0  0  0
 14 23  2  0  0  0  0
 14 24  1  0  0  0  0
 15 28  2  0  0  0  0
 15 29  1  0  0  0  0
 16 23  1  0  0  0  0
 16 67  2  0  0  0  0
 17 30  1  0  0  0  0
 18 30  1  0  0  0  0
 18 32  2  0  0  0  0
 18 33  1  0  0  0  0
 19 21  2  0  0  0  0
 19 38  1  0  0  0  0
 20 22  2  0  0  0  0
 20 39  1  0  0  0  0
 21 51  1  0  0  0  0
 22 40  1  0  0  0  0
 23 61  1  0  0  0  0
 24 31  2  0  0  0  0
 24 55  1  0  0  0  0
 25 84  1  0  0  0  0
 26 85  1  0  0  0  0
 27 29  2  0  0  0  0
 27 84  1  0  0  0  0
 28 86  1  0  0  0  0
 29 87  1  0  0  0  0
 30 68  2  0  0  0  0
 31 62  1  0  0  0  0
 31 67  1  0  0  0  0
 32 69  1  0  0  0  0
 32 73  1  0  0  0  0
 33 74  1  0  0  0  0
 33 79  2  0  0  0  0
 34 52  1  0  0  0  0
 34 75  1  0  0  0  0
 34 80  2  0  0  0  0
 35 64  1  0  0  0  0
 35 70  1  0  0  0  0
 35 81  2  0  0  0  0
 36 65  1  0  0  0  0
 36 76  1  0  0  0  0
 36 82  2  0  0  0  0
 37 71  1  0  0  0  0
 37 72  1  0  0  0  0
 37 83  2  0  0  0  0
 38 41  1  0  0  0  0
 39 52  1  0  0  0  0
 40 70  1  0  0  0  0
 41 43  1  0  0  0  0
 42 44  1  0  0  0  0
 42 47  1  0  0  0  0
 43 51  1  0  0  0  0
 44 53  1  0  0  0  0
 45 48  1  0  0  0  0
 45 54  1  0  0  0  0
 46 49  1  0  0  0  0
 46 54  1  0  0  0  0
 47 71  1  0  0  0  0
 48 72  1  0  0  0  0
 49 72  1  0  0  0  0
 50 53  1  0  0  0  0
 50 71  1  0  0  0  0
 51 75  1  0  0  0  0
 52 70  1  0  0  0  0
 53 69  1  0  0  0  0
 54 62  1  0  0  0  0
 54 77  1  0  0  0  0
 56 65  1  0  0  0  0
 57 66  1  0  0  0  0
 58 66  1  0  0  0  0
 59 66  1  0  0  0  0
 60 78  1  0  0  0  0
 61 63  1  0  0  0  0
 63 85  1  0  0  0  0
 64 66  1  0  0  0  0
 64 76  1  0  0  0  0
 65 78  1  0  0  0  0
 68 69  1  0  0  0  0
M  CHG  2  77   1  78   1
M  ISO  4  37 100  63 101  72 100  85 101
M  END
> <Batch ID>
0161

> <Smiles>
CNC(C)C(=O)NC(C(=O)N1Cc2cc([101O:1][101CH2:1]Cc3cnc(CC4(N)CC[100N:0]([100C:0](=O)N5CCCC(n6nc(-c7ccc(Oc8ccc(F)cc8F)cc7)c(C(N)=O)c6N)C5)CC4)c(C)c3)ccc2CC1C(=O)NC1CCCc2ccccc21)C(C)(C)C

> <Shape>
0.243

> <Color>
0.058

> <Negative vol penalty>
0.000

$$$$

  -OEChem-04052322123D

 89 99  0     1  0  0  0  0  0999 V2000
  -22.3278  -35.4927   16.1335 C   0  0  0  0  0  0  0  0  0  0  0  0
  -23.1579  -34.3784   16.0653 C   0  0  0  0  0  0  0  0  0  0  0  0
  -23.7553  -10.1763   22.2671 C   0  0  0  0  0  0  0  0  0  0  0  0
  -25.0372   -8.1446   22.0097 C   0  0  0  0  0  0  0  0  0  0  0  0
  -22.2498  -36.2312   17.3135 C   0  0  0  0  0  0  0  0  0  0  0  0
  -23.9114  -34.0026   17.1768 C   0  0  0  0  0  0  0  0  0  0  0  0
  -25.3374  -28.3019   18.9014 C   0  0  0  0  0  0  0  0  0  0  0  0
  -22.5739   -9.4498   22.1177 C   0  0  0  0  0  0  0  0  0  0  0  0
  -23.8558   -7.4181   21.8604 C   0  0  0  0  0  0  0  0  0  0  0  0
  -26.4831  -27.5274   18.7248 C   0  0  0  0  0  0  0  0  0  0  0  0
  -21.1651   -4.9747   21.7714 C   0  0  0  0  0  0  0  0  0  0  0  0
  -21.0486   -3.7736   22.4708 C   0  0  0  0  0  0  0  0  0  0  0  0
  -29.9371  -20.7167   19.4593 C   0  0  0  0  0  0  0  0  0  0  0  0
  -27.2597  -28.1884   20.9109 C   0  0  0  0  0  0  0  0  0  0  0  0
  -21.3158   -4.9626   24.5570 C   0  0  0  0  0  0  0  0  0  0  0  0
  -24.9869   -9.5236   22.2130 C   0  0  0  0  0  0  0  0  0  0  0  0
  -26.8893  -10.5514   23.5667 C   0  0  0  0  0  0  0  0  0  0  0  0
  -22.9953  -35.8587   18.4431 C   0  0  0  0  0  0  0  0  0  0  0  0
  -25.1490  -29.0353   20.0817 C   0  0  0  0  0  0  0  0  0  0  0  0
  -23.8443  -34.7377   18.3726 C   0  0  0  0  0  0  0  0  0  0  0  0
  -29.6243  -20.4978   20.8009 C   0  0  0  0  0  0  0  0  0  0  0  0
  -26.1095  -28.9694   21.1011 C   0  0  0  0  0  0  0  0  0  0  0  0
  -29.6141  -23.0906   19.7713 C   0  0  0  0  0  0  0  0  0  0  0  0
  -29.9321  -22.0131   18.9445 C   0  0  0  0  0  0  0  0  0  0  0  0
  -29.3012  -22.8717   21.1129 C   0  0  0  0  0  0  0  0  0  0  0  0
  -22.6242   -8.0708   21.9144 C   0  0  0  0  0  0  0  0  0  0  0  0
  -27.4459  -27.4728   19.7284 C   0  0  0  0  0  0  0  0  0  0  0  0
  -21.3570   -6.1698   22.4647 C   0  0  0  0  0  0  0  0  0  0  0  0
  -29.3063  -21.5753   21.6277 C   0  0  0  0  0  0  0  0  0  0  0  0
  -21.1240   -3.7675   23.8637 C   0  0  0  0  0  0  0  0  0  0  0  0
  -21.4323   -6.1638   23.8575 C   0  0  0  0  0  0  0  0  0  0  0  0
  -26.2076  -10.2736   22.3667 C   0  0  0  0  0  0  0  0  0  0  0  0
  -27.9812  -11.2886   23.1785 C   0  0  0  0  0  0  0  0  0  0  0  0
  -26.5645  -10.1766   24.9120 C   0  0  0  0  0  0  0  0  0  0  0  0
  -24.8485  -32.1215   20.7810 C   0  0  0  0  0  0  0  0  0  0  0  0
  -24.2409  -30.9877   23.7588 C   0  0  0  0  0  0  0  0  0  0  0  0
  -24.6024  -28.4642   26.0277 C   0  0  0  0  0  0  0  0  0  0  0  0
  -30.3926  -15.2110   20.2085 C   0  0  0  0  0  0  0  0  0  0  0  0
  -22.9141  -36.7157   19.6814 C   0  0  0  0  0  0  0  0  0  0  0  0
  -23.8950  -29.8448   20.2678 C   0  0  0  0  0  0  0  0  0  0  0  0
  -25.9451  -29.7220   22.3954 C   0  0  0  0  0  0  0  0  0  0  0  0
  -23.4598  -36.0318   20.9323 C   0  0  0  0  0  0  0  0  0  0  0  0
  -29.8905  -12.1974   18.5916 C   0  0  0  0  0  0  0  0  0  0  0  0
  -24.8025  -35.3710   20.6368 C   0  0  0  0  0  0  0  0  0  0  0  0
  -28.9436  -11.4393   19.5216 C   0  0  0  0  0  0  0  0  0  0  0  0
  -28.5893  -18.1899   20.6464 C   0  0  0  0  0  0  0  0  0  0  0  0
  -31.0336  -18.4413   21.2563 C   0  0  0  0  0  0  0  0  0  0  0  0
  -28.7669  -24.7786   18.0081 C   0  0  0  0  0  0  0  0  0  0  0  0
  -29.4976  -13.6668   18.4923 C   0  0  0  0  0  0  0  0  0  0  0  0
  -28.6283  -16.7526   21.1735 C   0  0  0  0  0  0  0  0  0  0  0  0
  -31.0082  -17.0123   21.7911 C   0  0  0  0  0  0  0  0  0  0  0  0
  -28.4949  -13.6195   20.7530 C   0  0  0  0  0  0  0  0  0  0  0  0
  -29.6355  -19.0802   21.3409 C   0  0  0  0  0  0  0  0  0  0  0  0
  -29.6100  -24.4804   19.2175 C   0  0  1  0  0  0  0  0  0  0  0  0
  -24.6583  -34.2839   19.5649 C   0  0  1  0  0  0  0  0  0  0  0  0
  -24.0503  -30.9586   21.2987 C   0  0  1  0  0  0  0  0  0  0  0  0
  -28.8512  -12.1258   20.8959 C   0  0  1  0  0  0  0  0  0  0  0  0
  -28.3597  -25.3104   19.3482 C   0  0  1  0  0  0  0  0  0  1  0  0
  -30.2706  -22.2189   17.5041 C   0  0  0  0  0  0  0  0  0  0  0  0
  -28.9594  -24.0220   22.0066 C   0  0  0  0  0  0  0  0  0  0  0  0
  -24.0289  -27.8422   28.3903 C   0  0  0  0  0  0  0  0  0  0  0  0
  -26.4369  -32.8446   24.7782 C   0  0  0  0  0  0  0  0  0  0  0  0
  -26.4726  -31.5217   26.9034 C   0  0  0  0  0  0  0  0  0  0  0  0
  -24.4027  -32.7397   26.2291 C   0  0  0  0  0  0  0  0  0  0  0  0
  -23.0207  -26.1218   25.1499 C   0  0  0  0  0  0  0  0  0  0  0  0
  -27.6297  -21.1300   23.2545 C   0  0  0  0  0  0  0  0  0  0  0  0
  -25.0809  -30.6558   24.9684 C   0  0  1  0  0  0  0  0  0  0  0  0
  -23.5993  -27.7723   26.9331 C   0  0  2  0  0  0  0  0  0  0  0  0
  -25.6026  -31.9277   25.6947 C   0  0  0  0  0  0  0  0  0  0  0  0
  -26.8155  -10.7921   21.2964 N   0  0  0  0  0  0  0  0  0  0  0  0
  -27.8906  -11.4033   21.8225 N   0  0  0  0  0  0  0  0  0  0  0  0
  -24.7050  -30.5044   22.5272 N   0  0  0  0  0  0  0  0  0  0  0  0
  -29.4171  -14.2815   19.8172 N   0  0  0  0  0  0  0  0  0  0  0  0
  -29.9931  -16.2120   21.1067 N   0  0  0  0  0  0  0  0  0  0  0  0
  -29.0005  -11.8434   23.8683 N   0  0  0  0  0  0  0  0  0  0  0  0
  -25.4064   -9.4188   25.1333 N   0  0  0  0  0  0  0  0  0  0  0  0
  -24.0913  -33.0817   20.1374 N   0  0  0  0  0  0  0  0  0  0  0  0
  -24.2649  -29.7824   25.8049 N   0  0  0  0  0  0  0  0  0  0  0  0
  -23.4608  -26.3382   26.5522 N   0  3  0  0  0  0  0  0  0  0  0  0
  -27.2712  -10.5180   25.8905 O   0  0  0  0  0  0  0  0  0  0  0  0
  -26.0614  -32.1465   20.9539 O   0  0  0  0  0  0  0  0  0  0  0  0
  -23.2072  -31.6453   23.9024 O   0  0  0  0  0  0  0  0  0  0  0  0
  -25.5887  -27.8934   25.5674 O   0  0  0  0  0  0  0  0  0  0  0  0
  -31.5524  -15.1502   19.7815 O   0  0  0  0  0  0  0  0  0  0  0  0
  -21.4716   -7.3616   21.7688 O   0  0  0  0  0  0  0  0  0  0  0  0
  -28.5678  -26.7166   19.5579 O   0  0  0  0  0  0  0  0  0  1  0  0
  -29.0008  -21.3592   22.9394 O   0  0  0  0  0  0  0  0  0  0  0  0
  -21.0106   -2.6142   24.5353 F   0  0  0  0  0  0  0  0  0  0  0  0
  -21.6154   -7.3089   24.5291 F   0  0  0  0  0  0  0  0  0  0  0  0
  1  2  1  0  0  0  0
  1  5  2  0  0  0  0
  2  6  2  0  0  0  0
  3  8  2  0  0  0  0
  3 16  1  0  0  0  0
  4  9  1  0  0  0  0
  4 16  2  0  0  0  0
  5 18  1  0  0  0  0
  6 20  1  0  0  0  0
  7 10  2  0  0  0  0
  7 19  1  0  0  0  0
  8 26  1  0  0  0  0
  9 26  2  0  0  0  0
 10 27  1  0  0  0  0
 11 12  2  0  0  0  0
 11 28  1  0  0  0  0
 12 30  1  0  0  0  0
 13 21  1  0  0  0  0
 13 24  2  0  0  0  0
 14 22  1  0  0  0  0
 14 27  2  0  0  0  0
 15 30  2  0  0  0  0
 15 31  1  0  0  0  0
 16 32  1  0  0  0  0
 17 32  1  0  0  0  0
 17 33  2  0  0  0  0
 17 34  1  0  0  0  0
 18 20  2  0  0  0  0
 18 39  1  0  0  0  0
 19 22  2  0  0  0  0
 19 40  1  0  0  0  0
 20 55  1  0  0  0  0
 21 29  2  0  0  0  0
 21 53  1  0  0  0  0
 22 41  1  0  0  0  0
 23 24  1  0  0  0  0
 23 25  2  0  0  0  0
 23 54  1  0  0  0  0
 24 59  1  0  0  0  0
 25 29  1  0  0  0  0
 25 60  1  0  0  0  0
 26 85  1  0  0  0  0
 27 86  1  0  0  0  0
 28 31  2  0  0  0  0
 28 85  1  0  0  0  0
 29 87  1  0  0  0  0
 30 88  1  0  0  0  0
 31 89  1  0  0  0  0
 32 70  2  0  0  0  0
 33 71  1  0  0  0  0
 33 75  1  0  0  0  0
 34 76  1  0  0  0  0
 34 80  2  0  0  0  0
 35 56  1  0  0  0  0
 35 77  1  0  0  0  0
 35 81  2  0  0  0  0
 36 67  1  0  0  0  0
 36 72  1  0  0  0  0
 36 82  2  0  0  0  0
 37 68  1  0  0  0  0
 37 78  1  0  0  0  0
 37 83  2  0  0  0  0
 38 73  1  0  0  0  0
 38 74  1  0  0  0  0
 38 84  2  0  0  0  0
 39 42  1  0  0  0  0
 40 56  1  0  0  0  0
 41 72  1  0  0  0  0
 42 44  1  0  0  0  0
 43 45  1  0  0  0  0
 43 49  1  0  0  0  0
 44 55  1  0  0  0  0
 45 57  1  0  0  0  0
 46 50  1  0  0  0  0
 46 53  1  0  0  0  0
 47 51  1  0  0  0  0
 47 53  1  0  0  0  0
 48 54  1  0  0  0  0
 48 58  1  0  0  0  0
 49 73  1  0  0  0  0
 50 74  1  0  0  0  0
 51 74  1  0  0  0  0
 52 57  1  0  0  0  0
 52 73  1  0  0  0  0
 54 58  1  0  0  0  0
 55 77  1  0  0  0  0
 56 72  1  0  0  0  0
 57 71  1  0  0  0  0
 58 86  1  0  0  0  0
 61 68  1  0  0  0  0
 62 69  1  0  0  0  0
 63 69  1  0  0  0  0
 64 69  1  0  0  0  0
 65 79  1  0  0  0  0
 66 87  1  0  0  0  0
 67 69  1  0  0  0  0
 67 78  1  0  0  0  0
 68 79  1  0  0  0  0
 70 71  1  0  0  0  0
M  CHG  1  79   1
M  ISO  4  38 100  58 101  74 100  86 101
M  END
> <Batch ID>
0161

> <Smiles>
CNC(C)C(=O)NC(C(=O)N1Cc2cc([101O:1][101CH:1]3CC3c3c(C)cc(C4CC[100N:0]([100C:0](=O)N5CCCC(n6nc(-c7ccc(Oc8ccc(F)cc8F)cc7)c(C(N)=O)c6N)C5)CC4)c(OC)c3C)ccc2CC1C(=O)NC1CCCc2ccccc21)C(C)(C)C

> <Shape>
0.313

> <Color>
0.141

> <Negative vol penalty>
0.000

$$$$

  -OEChem-04052322123D

 87 96  0     1  0  0  0  0  0999 V2000
  -22.3864   -8.2724   20.5409 C   0  0  0  0  0  0  0  0  0  0  0  0
  -22.2627   -9.4443   19.8014 C   0  0  0  0  0  0  0  0  0  0  0  0
  -26.7313  -31.7358   23.9848 C   0  0  0  0  0  0  0  0  0  0  0  0
  -25.7343  -31.4723   21.8000 C   0  0  0  0  0  0  0  0  0  0  0  0
  -23.1343   -8.2678   21.7177 C   0  0  0  0  0  0  0  0  0  0  0  0
  -22.8859  -10.6125   20.2388 C   0  0  0  0  0  0  0  0  0  0  0  0
  -25.3490  -15.0000   16.7476 C   0  0  0  0  0  0  0  0  0  0  0  0
  -26.8500  -33.1081   23.7652 C   0  0  0  0  0  0  0  0  0  0  0  0
  -25.8529  -32.8446   21.5803 C   0  0  0  0  0  0  0  0  0  0  0  0
  -24.8694  -16.2367   16.3180 C   0  0  0  0  0  0  0  0  0  0  0  0
  -27.0850  -36.7322   23.9245 C   0  0  0  0  0  0  0  0  0  0  0  0
  -26.7101  -37.5894   24.9590 C   0  0  0  0  0  0  0  0  0  0  0  0
  -26.0098  -17.3095   18.1532 C   0  0  0  0  0  0  0  0  0  0  0  0
  -24.4698  -36.6871   24.8947 C   0  0  0  0  0  0  0  0  0  0  0  0
  -26.1735  -30.9178   23.0022 C   0  0  0  0  0  0  0  0  0  0  0  0
  -24.9614  -28.8225   23.8070 C   0  0  0  0  0  0  0  0  0  0  0  0
  -23.7749   -9.4342   22.1646 C   0  0  0  0  0  0  0  0  0  0  0  0
  -26.1549  -14.9074   17.8914 C   0  0  0  0  0  0  0  0  0  0  0  0
  -23.6419  -10.6238   21.4233 C   0  0  0  0  0  0  0  0  0  0  0  0
  -26.5004  -16.0708   18.5937 C   0  0  0  0  0  0  0  0  0  0  0  0
  -23.0436  -21.1731   19.7959 C   0  0  0  0  0  0  0  0  0  0  0  0
  -22.0140  -20.4740   20.4258 C   0  0  0  0  0  0  0  0  0  0  0  0
  -23.2777  -20.9920   18.4328 C   0  0  0  0  0  0  0  0  0  0  0  0
  -21.2185  -19.5936   19.6925 C   0  0  0  0  0  0  0  0  0  0  0  0
  -21.4525  -19.4124   18.3293 C   0  0  0  0  0  0  0  0  0  0  0  0
  -22.4821  -20.1116   17.6995 C   0  0  0  0  0  0  0  0  0  0  0  0
  -26.4108  -33.6625   22.5630 C   0  0  0  0  0  0  0  0  0  0  0  0
  -25.1975  -17.3913   17.0225 C   0  0  0  0  0  0  0  0  0  0  0  0
  -26.1523  -35.8525   23.3749 C   0  0  0  0  0  0  0  0  0  0  0  0
  -25.4025  -37.5668   25.4442 C   0  0  0  0  0  0  0  0  0  0  0  0
  -24.8447  -35.8300   23.8601 C   0  0  0  0  0  0  0  0  0  0  0  0
  -26.0511  -29.5001   23.2282 C   0  0  0  0  0  0  0  0  0  0  0  0
  -25.3338  -27.5005   23.7956 C   0  0  0  0  0  0  0  0  0  0  0  0
  -23.7231  -29.3416   24.3100 C   0  0  0  0  0  0  0  0  0  0  0  0
  -25.8857  -13.4727   20.7150 C   0  0  0  0  0  0  0  0  0  0  0  0
  -28.9358  -14.5093   21.0955 C   0  0  0  0  0  0  0  0  0  0  0  0
  -31.3668  -16.7414   20.2267 C   0  0  0  0  0  0  0  0  0  0  0  0
  -27.4864  -23.2322   20.8491 C   0  0  0  0  0  0  0  0  0  0  0  0
  -24.5334   -9.3920   23.4675 C   0  0  0  0  0  0  0  0  0  0  0  0
  -26.6862  -13.5691   18.3263 C   0  0  0  0  0  0  0  0  0  0  0  0
  -27.3791  -16.0277   19.8161 C   0  0  0  0  0  0  0  0  0  0  0  0
  -25.4719  -10.5796   23.6647 C   0  0  0  0  0  0  0  0  0  0  0  0
  -29.7913  -25.3173   22.8075 C   0  0  0  0  0  0  0  0  0  0  0  0
  -24.7607  -11.8848   23.3217 C   0  0  0  0  0  0  0  0  0  0  0  0
  -28.9440  -26.5592   23.0965 C   0  0  0  0  0  0  0  0  0  0  0  0
  -23.9438  -23.5883   20.1194 C   0  0  0  0  0  0  0  0  0  0  0  0
  -29.4048  -24.6523   21.4877 C   0  0  0  0  0  0  0  0  0  0  0  0
  -25.1790  -24.1477   20.8070 C   0  0  0  0  0  0  0  0  0  0  0  0
  -25.4020  -21.7682   20.6127 C   0  0  0  0  0  0  0  0  0  0  0  0
  -27.1364  -25.6024   21.6259 C   0  0  0  0  0  0  0  0  0  0  0  0
  -23.9069  -22.1280   20.5913 C   0  0  2  0  0  0  0  0  0  0  0  0
  -24.3235  -11.9051   21.8520 C   0  0  1  0  0  0  0  0  0  0  0  0
  -27.0765  -13.5316   19.8006 C   0  0  1  0  0  0  0  0  0  0  0  0
  -27.4390  -26.2461   22.9854 C   0  0  2  0  0  0  0  0  0  0  0  0
  -21.7632  -20.6686   21.8881 C   0  0  0  0  0  0  0  0  0  0  0  0
  -24.3828  -21.7412   17.7572 C   0  0  0  0  0  0  0  0  0  0  0  0
  -20.1159  -18.8415   20.3691 C   0  0  0  0  0  0  0  0  0  0  0  0
  -20.5997  -18.4666   17.5436 C   0  0  0  0  0  0  0  0  0  0  0  0
  -33.7450  -17.3608   20.7344 C   0  0  0  0  0  0  0  0  0  0  0  0
  -28.0392  -15.7967   23.7125 C   0  0  0  0  0  0  0  0  0  0  0  0
  -30.1399  -17.1585   23.6813 C   0  0  0  0  0  0  0  0  0  0  0  0
  -30.2701  -14.6709   23.8143 C   0  0  0  0  0  0  0  0  0  0  0  0
  -32.2173  -16.2297   17.4385 C   0  0  0  0  0  0  0  0  0  0  0  0
  -22.7330  -19.9166   16.2372 C   0  0  0  0  0  0  0  0  0  0  0  0
  -23.4736  -18.6135   15.9314 C   0  0  0  0  0  0  0  0  0  1  0  0
  -29.5792  -15.7615   21.6405 C   0  0  1  0  0  0  0  0  0  0  0  0
  -32.8221  -16.5465   19.8412 C   0  0  2  0  0  0  0  0  0  0  0  0
  -29.4890  -15.8478   23.1903 C   0  0  0  0  0  0  0  0  0  0  0  0
  -27.0416  -28.6766   22.8750 N   0  0  0  0  0  0  0  0  0  0  0  0
  -26.5757  -27.4679   23.2328 N   0  0  0  0  0  0  0  0  0  0  0  0
  -27.8685  -14.6948   20.2053 N   0  0  0  0  0  0  0  0  0  0  0  0
  -27.9648  -24.4090   21.4332 N   0  0  0  0  0  0  0  0  0  0  0  0
  -26.1049  -23.0258   20.8808 N   0  0  0  0  0  0  0  0  0  0  0  0
  -24.7168  -26.3743   24.2121 N   0  0  0  0  0  0  0  0  0  0  0  0
  -23.5026  -30.7242   24.2447 N   0  0  0  0  0  0  0  0  0  0  0  0
  -25.4526  -12.1902   20.9928 N   0  0  0  0  0  0  0  0  0  0  0  0
  -30.9418  -15.7803   21.1193 N   0  0  0  0  0  0  0  0  0  0  0  0
  -33.0444  -16.9663   18.4286 N   0  3  0  0  0  0  0  0  0  0  0  0
  -22.8453  -28.6032   24.8177 O   0  0  0  0  0  0  0  0  0  0  0  0
  -25.3970  -14.5136   21.1385 O   0  0  0  0  0  0  0  0  0  0  0  0
  -29.3689  -13.4072   21.4411 O   0  0  0  0  0  0  0  0  0  0  0  0
  -30.6771  -17.6571   19.7834 O   0  0  0  0  0  0  0  0  0  0  0  0
  -28.2591  -22.3897   20.3758 O   0  0  0  0  0  0  0  0  0  0  0  0
  -26.5263  -35.0016   22.3484 O   0  0  0  0  0  0  0  0  0  0  0  0
  -24.7269  -18.6081   16.6028 O   0  0  0  0  0  0  0  0  0  1  0  0
  -25.0430  -38.3889   26.4387 F   0  0  0  0  0  0  0  0  0  0  0  0
  -23.9446  -34.9862   23.3370 F   0  0  0  0  0  0  0  0  0  0  0  0
  1  2  1  0  0  0  0
  1  5  2  0  0  0  0
  2  6  2  0  0  0  0
  3  8  2  0  0  0  0
  3 15  1  0  0  0  0
  4  9  1  0  0  0  0
  4 15  2  0  0  0  0
  5 17  1  0  0  0  0
  6 19  1  0  0  0  0
  7 10  2  0  0  0  0
  7 18  1  0  0  0  0
  8 27  1  0  0  0  0
  9 27  2  0  0  0  0
 10 28  1  0  0  0  0
 11 12  2  0  0  0  0
 11 29  1  0  0  0  0
 12 30  1  0  0  0  0
 13 20  1  0  0  0  0
 13 28  2  0  0  0  0
 14 30  2  0  0  0  0
 14 31  1  0  0  0  0
 15 32  1  0  0  0  0
 16 32  1  0  0  0  0
 16 33  2  0  0  0  0
 16 34  1  0  0  0  0
 17 19  2  0  0  0  0
 17 39  1  0  0  0  0
 18 20  2  0  0  0  0
 18 40  1  0  0  0  0
 19 52  1  0  0  0  0
 20 41  1  0  0  0  0
 21 22  2  0  0  0  0
 21 23  1  0  0  0  0
 21 51  1  0  0  0  0
 22 24  1  0  0  0  0
 22 55  1  0  0  0  0
 23 26  2  0  0  0  0
 23 56  1  0  0  0  0
 24 25  2  0  0  0  0
 24 57  1  0  0  0  0
 25 26  1  0  0  0  0
 25 58  1  0  0  0  0
 26 64  1  0  0  0  0
 27 84  1  0  0  0  0
 28 85  1  0  0  0  0
 29 31  2  0  0  0  0
 29 84  1  0  0  0  0
 30 86  1  0  0  0  0
 31 87  1  0  0  0  0
 32 69  2  0  0  0  0
 33 70  1  0  0  0  0
 33 74  1  0  0  0  0
 34 75  1  0  0  0  0
 34 79  2  0  0  0  0
 35 53  1  0  0  0  0
 35 76  1  0  0  0  0
 35 80  2  0  0  0  0
 36 66  1  0  0  0  0
 36 71  1  0  0  0  0
 36 81  2  0  0  0  0
 37 67  1  0  0  0  0
 37 77  1  0  0  0  0
 37 82  2  0  0  0  0
 38 72  1  0  0  0  0
 38 73  1  0  0  0  0
 38 83  2  0  0  0  0
 39 42  1  0  0  0  0
 40 53  1  0  0  0  0
 41 71  1  0  0  0  0
 42 44  1  0  0  0  0
 43 45  1  0  0  0  0
 43 47  1  0  0  0  0
 44 52  1  0  0  0  0
 45 54  1  0  0  0  0
 46 48  1  0  0  0  0
 46 51  1  0  0  0  0
 47 72  1  0  0  0  0
 48 73  1  0  0  0  0
 49 51  1  0  0  0  0
 49 73  1  0  0  0  0
 50 54  1  0  0  0  0
 50 72  1  0  0  0  0
 52 76  1  0  0  0  0
 53 71  1  0  0  0  0
 54 70  1  0  0  0  0
 59 67  1  0  0  0  0
 60 68  1  0  0  0  0
 61 68  1  0  0  0  0
 62 68  1  0  0  0  0
 63 78  1  0  0  0  0
 64 65  1  0  0  0  0
 65 85  1  0  0  0  0
 66 68  1  0  0  0  0
 66 77  1  0  0  0  0
 67 78  1  0  0  0  0
 69 70  1  0  0  0  0
M  CHG  1  78   1
M  ISO  4  38 100  65 101  73 100  85 101
M  END
> <Batch ID>
0161

> <Smiles>
CNC(C)C(=O)NC(C(=O)N1Cc2cc([101O:1][101CH2:1]Cc3c(C)c(C)c(C)c(C4CC[100N:0]([100C:0](=O)N5CCCC(n6nc(-c7ccc(Oc8ccc(F)cc8F)cc7)c(C(N)=O)c6N)C5)C4)c3C)ccc2CC1C(=O)NC1CCCc2ccccc21)C(C)(C)C

> <Shape>
0.205

> <Color>
0.064

> <Negative vol penalty>
0.000

$$$$

  -OEChem-04052322123D

 87 96  0     1  0  0  0  0  0999 V2000
  -21.1528  -33.3761   26.7801 C   0  0  0  0  0  0  0  0  0  0  0  0
  -21.5236  -34.2733   25.7848 C   0  0  0  0  0  0  0  0  0  0  0  0
  -24.5071   -9.1237   22.0917 C   0  0  0  0  0  0  0  0  0  0  0  0
  -23.5301   -9.6341   19.9418 C   0  0  0  0  0  0  0  0  0  0  0  0
  -22.1191  -32.5785   27.3894 C   0  0  0  0  0  0  0  0  0  0  0  0
  -22.8588  -34.3646   25.3902 C   0  0  0  0  0  0  0  0  0  0  0  0
  -28.0513  -30.6094   21.1249 C   0  0  0  0  0  0  0  0  0  0  0  0
  -23.4383   -8.2737   22.3757 C   0  0  0  0  0  0  0  0  0  0  0  0
  -22.4612   -8.7840   20.2258 C   0  0  0  0  0  0  0  0  0  0  0  0
  -28.1786  -29.2379   20.9097 C   0  0  0  0  0  0  0  0  0  0  0  0
  -22.4677   -5.1369   21.5686 C   0  0  0  0  0  0  0  0  0  0  0  0
  -22.7604   -3.8891   22.1191 C   0  0  0  0  0  0  0  0  0  0  0  0
  -25.7873  -29.0637   20.6444 C   0  0  0  0  0  0  0  0  0  0  0  0
  -21.4425   -4.4398   24.0677 C   0  0  0  0  0  0  0  0  0  0  0  0
  -24.5530   -9.8039   20.8748 C   0  0  0  0  0  0  0  0  0  0  0  0
  -26.8683  -10.3437   19.9497 C   0  0  0  0  0  0  0  0  0  0  0  0
  -23.4685  -32.6697   27.0101 C   0  0  0  0  0  0  0  0  0  0  0  0
  -26.7879  -31.2177   21.1123 C   0  0  0  0  0  0  0  0  0  0  0  0
  -23.8452  -33.5510   25.9764 C   0  0  0  0  0  0  0  0  0  0  0  0
  -25.6469  -30.4436   20.8572 C   0  0  0  0  0  0  0  0  0  0  0  0
  -28.8223  -24.6222   18.9706 C   0  0  0  0  0  0  0  0  0  0  0  0
  -27.9630  -24.2274   21.1937 C   0  0  0  0  0  0  0  0  0  0  0  0
  -28.4213  -25.1089   20.2147 C   0  0  0  0  0  0  0  0  0  0  0  0
  -28.7650  -23.2540   18.7054 C   0  0  0  0  0  0  0  0  0  0  0  0
  -27.9057  -22.8591   20.9286 C   0  0  0  0  0  0  0  0  0  0  0  0
  -28.3067  -22.3724   19.6844 C   0  0  0  0  0  0  0  0  0  0  0  0
  -22.4154   -8.1038   21.4427 C   0  0  0  0  0  0  0  0  0  0  0  0
  -27.0462  -28.4643   20.6723 C   0  0  0  0  0  0  0  0  0  0  0  0
  -21.6626   -6.0362   22.2677 C   0  0  0  0  0  0  0  0  0  0  0  0
  -22.2477   -3.5406   23.3686 C   0  0  0  0  0  0  0  0  0  0  0  0
  -21.1500   -5.6876   23.5172 C   0  0  0  0  0  0  0  0  0  0  0  0
  -25.6566  -10.6826   20.5811 C   0  0  0  0  0  0  0  0  0  0  0  0
  -27.5744  -11.5210   19.9073 C   0  0  0  0  0  0  0  0  0  0  0  0
  -27.3156   -9.0778   19.4464 C   0  0  0  0  0  0  0  0  0  0  0  0
  -25.0412  -32.8052   23.2413 C   0  0  0  0  0  0  0  0  0  0  0  0
  -23.0773  -33.2723   20.7022 C   0  0  0  0  0  0  0  0  0  0  0  0
  -21.9998  -32.2180   17.6404 C   0  0  0  0  0  0  0  0  0  0  0  0
  -28.0235  -16.7962   19.0047 C   0  0  0  0  0  0  0  0  0  0  0  0
  -24.4718  -31.7771   27.6973 C   0  0  0  0  0  0  0  0  0  0  0  0
  -26.6700  -32.7028   21.3197 C   0  0  0  0  0  0  0  0  0  0  0  0
  -24.2696  -31.0516   20.8132 C   0  0  0  0  0  0  0  0  0  0  0  0
  -25.9093  -32.2578   27.5278 C   0  0  0  0  0  0  0  0  0  0  0  0
  -26.7313  -15.9613   22.1627 C   0  0  0  0  0  0  0  0  0  0  0  0
  -26.1897  -32.5516   26.0617 C   0  0  0  0  0  0  0  0  0  0  0  0
  -26.4291  -14.4738   21.9837 C   0  0  0  0  0  0  0  0  0  0  0  0
  -26.3646  -16.7741   20.9199 C   0  0  0  0  0  0  0  0  0  0  0  0
  -29.4142  -20.1588   19.7194 C   0  0  0  0  0  0  0  0  0  0  0  0
  -26.9340  -20.3464   19.4747 C   0  0  0  0  0  0  0  0  0  0  0  0
  -29.3759  -18.8572   18.9230 C   0  0  0  0  0  0  0  0  0  0  0  0
  -26.9414  -19.0498   18.6726 C   0  0  0  0  0  0  0  0  0  0  0  0
  -26.6701  -14.7788   19.4904 C   0  0  0  0  0  0  0  0  0  0  0  0
  -25.2962  -33.6895   25.5521 C   0  0  1  0  0  0  0  0  0  0  0  0
  -25.2853  -33.1317   21.7951 C   0  0  1  0  0  0  0  0  0  0  0  0
  -27.0825  -13.9278   20.7016 C   0  0  2  0  0  0  0  0  0  0  0  0
  -29.3147  -25.5681   17.9206 C   0  0  0  0  0  0  0  0  0  0  0  0
  -27.5318  -24.7501   22.5278 C   0  0  0  0  0  0  0  0  0  0  0  0
  -29.1966  -22.7354   17.3692 C   0  0  0  0  0  0  0  0  0  0  0  0
  -27.4126  -21.9159   21.9817 C   0  0  0  0  0  0  0  0  0  0  0  0
  -20.3581  -32.7821   15.8282 C   0  0  0  0  0  0  0  0  0  0  0  0
  -20.8125  -32.1403   22.4049 C   0  0  0  0  0  0  0  0  0  0  0  0
  -19.4781  -31.8425   20.3076 C   0  0  0  0  0  0  0  0  0  0  0  0
  -20.1846  -34.1262   21.0205 C   0  0  0  0  0  0  0  0  0  0  0  0
  -24.1551  -32.6157   15.6516 C   0  0  0  0  0  0  0  0  0  0  0  0
  -28.4826  -26.5768   20.4990 C   0  0  0  0  0  0  0  0  0  1  0  0
  -21.9116  -32.5252   20.1006 C   0  0  1  0  0  0  0  0  0  0  0  0
  -21.7791  -32.9657   16.3378 C   0  0  2  0  0  0  0  0  0  0  0  0
  -20.6223  -32.6464   20.9611 C   0  0  0  0  0  0  0  0  0  0  0  0
  -25.5932  -11.9740   20.9159 N   0  0  0  0  0  0  0  0  0  0  0  0
  -26.7740  -12.4570   20.4934 N   0  0  0  0  0  0  0  0  0  0  0  0
  -28.2496  -20.9984   19.4183 N   0  0  0  0  0  0  0  0  0  0  0  0
  -24.2057  -32.5067   21.0282 N   0  0  0  0  0  0  0  0  0  0  0  0
  -26.9771  -16.1925   19.7180 N   0  0  0  0  0  0  0  0  0  0  0  0
  -28.0793  -18.1986   19.0260 N   0  0  0  0  0  0  0  0  0  0  0  0
  -28.7957  -11.8365   19.4264 N   0  0  0  0  0  0  0  0  0  0  0  0
  -26.4649   -7.9709   19.5710 N   0  0  0  0  0  0  0  0  0  0  0  0
  -25.4406  -33.7967   24.1170 N   0  0  0  0  0  0  0  0  0  0  0  0
  -21.7685  -33.0221   18.7364 N   0  0  0  0  0  0  0  0  0  0  0  0
  -22.7205  -32.4740   15.2924 N   0  3  0  0  0  0  0  0  0  0  0  0
  -28.4430   -8.9291   18.9170 O   0  0  0  0  0  0  0  0  0  0  0  0
  -24.5271  -31.7338   23.5404 O   0  0  0  0  0  0  0  0  0  0  0  0
  -22.9926  -34.4914   20.8698 O   0  0  0  0  0  0  0  0  0  0  0  0
  -22.3395  -31.0376   17.6816 O   0  0  0  0  0  0  0  0  0  0  0  0
  -28.8601  -16.1248   18.3881 O   0  0  0  0  0  0  0  0  0  0  0  0
  -21.3724   -7.2742   21.7194 O   0  0  0  0  0  0  0  0  0  0  0  0
  -27.1685  -27.1152   20.4610 O   0  0  0  0  0  0  0  0  0  1  0  0
  -22.5276   -2.3417   23.8965 F   0  0  0  0  0  0  0  0  0  0  0  0
  -20.3749   -6.5469   24.1930 F   0  0  0  0  0  0  0  0  0  0  0  0
  1  2  1  0  0  0  0
  1  5  2  0  0  0  0
  2  6  2  0  0  0  0
  3  8  2  0  0  0  0
  3 15  1  0  0  0  0
  4  9  1  0  0  0  0
  4 15  2  0  0  0  0
  5 17  1  0  0  0  0
  6 19  1  0  0  0  0
  7 10  2  0  0  0  0
  7 18  1  0  0  0  0
  8 27  1  0  0  0  0
  9 27  2  0  0  0  0
 10 28  1  0  0  0  0
 11 12  2  0  0  0  0
 11 29  1  0  0  0  0
 12 30  1  0  0  0  0
 13 20  1  0  0  0  0
 13 28  2  0  0  0  0
 14 30  2  0  0  0  0
 14 31  1  0  0  0  0
 15 32  1  0  0  0  0
 16 32  1  0  0  0  0
 16 33  2  0  0  0  0
 16 34  1  0  0  0  0
 17 19  2  0  0  0  0
 17 39  1  0  0  0  0
 18 20  2  0  0  0  0
 18 40  1  0  0  0  0
 19 52  1  0  0  0  0
 20 41  1  0  0  0  0
 21 23  1  0  0  0  0
 21 24  2  0  0  0  0
 21 55  1  0  0  0  0
 22 23  2  0  0  0  0
 22 25  1  0  0  0  0
 22 56  1  0  0  0  0
 23 64  1  0  0  0  0
 24 26  1  0  0  0  0
 24 57  1  0  0  0  0
 25 26  2  0  0  0  0
 25 58  1  0  0  0  0
 26 70  1  0  0  0  0
 27 84  1  0  0  0  0
 28 85  1  0  0  0  0
 29 31  2  0  0  0  0
 29 84  1  0  0  0  0
 30 86  1  0  0  0  0
 31 87  1  0  0  0  0
 32 68  2  0  0  0  0
 33 69  1  0  0  0  0
 33 74  1  0  0  0  0
 34 75  1  0  0  0  0
 34 79  2  0  0  0  0
 35 53  1  0  0  0  0
 35 76  1  0  0  0  0
 35 80  2  0  0  0  0
 36 65  1  0  0  0  0
 36 71  1  0  0  0  0
 36 81  2  0  0  0  0
 37 66  1  0  0  0  0
 37 77  1  0  0  0  0
 37 82  2  0  0  0  0
 38 72  1  0  0  0  0
 38 73  1  0  0  0  0
 38 83  2  0  0  0  0
 39 42  1  0  0  0  0
 40 53  1  0  0  0  0
 41 71  1  0  0  0  0
 42 44  1  0  0  0  0
 43 45  1  0  0  0  0
 43 46  1  0  0  0  0
 44 52  1  0  0  0  0
 45 54  1  0  0  0  0
 46 72  1  0  0  0  0
 47 49  1  0  0  0  0
 47 70  1  0  0  0  0
 48 50  1  0  0  0  0
 48 70  1  0  0  0  0
 49 73  1  0  0  0  0
 50 73  1  0  0  0  0
 51 54  1  0  0  0  0
 51 72  1  0  0  0  0
 52 76  1  0  0  0  0
 53 71  1  0  0  0  0
 54 69  1  0  0  0  0
 59 66  1  0  0  0  0
 60 67  1  0  0  0  0
 61 67  1  0  0  0  0
 62 67  1  0  0  0  0
 63 78  1  0  0  0  0
 64 85  1  0  0  0  0
 65 67  1  0  0  0  0
 65 77  1  0  0  0  0
 66 78  1  0  0  0  0
 68 69  1  0  0  0  0
M  CHG  1  78   1
M  ISO  4  38 100  64 101  73 100  85 101
M  END
> <Batch ID>
0161

> <Smiles>
CNC(C)C(=O)NC(C(=O)N1Cc2cc([101O:1][101CH2:1]c3c(C)c(C)c(N4CC[100N:0]([100C:0](=O)N5CCCC(n6nc(-c7ccc(Oc8ccc(F)cc8F)cc7)c(C(N)=O)c6N)C5)CC4)c(C)c3C)ccc2CC1C(=O)NC1CCCc2ccccc21)C(C)(C)C

> <Shape>
0.280

> <Color>
0.085

> <Negative vol penalty>
0.000

$$$$

  -OEChem-04052322123D

 87 96  0     1  0  0  0  0  0999 V2000
  -29.3479  -32.6959   22.9719 C   0  0  0  0  0  0  0  0  0  0  0  0
  -29.1019  -31.3394   22.7849 C   0  0  0  0  0  0  0  0  0  0  0  0
  -23.1328  -12.8566   22.0634 C   0  0  0  0  0  0  0  0  0  0  0  0
  -22.8103  -11.3611   20.1935 C   0  0  0  0  0  0  0  0  0  0  0  0
  -28.3251  -33.5343   23.4133 C   0  0  0  0  0  0  0  0  0  0  0  0
  -27.8330  -30.8204   23.0402 C   0  0  0  0  0  0  0  0  0  0  0  0
  -26.2615  -27.6576   19.4109 C   0  0  0  0  0  0  0  0  0  0  0  0
  -21.8082  -13.2795   21.9536 C   0  0  0  0  0  0  0  0  0  0  0  0
  -21.4856  -11.7840   20.0837 C   0  0  0  0  0  0  0  0  0  0  0  0
  -26.7844  -26.3653   19.4222 C   0  0  0  0  0  0  0  0  0  0  0  0
  -18.7474  -12.1330   22.8196 C   0  0  0  0  0  0  0  0  0  0  0  0
  -18.0003  -12.2353   23.9930 C   0  0  0  0  0  0  0  0  0  0  0  0
  -24.7686  -25.5652   20.4783 C   0  0  0  0  0  0  0  0  0  0  0  0
  -28.2054  -21.6642   18.3203 C   0  0  0  0  0  0  0  0  0  0  0  0
  -17.6592  -14.5895   23.5705 C   0  0  0  0  0  0  0  0  0  0  0  0
  -23.6339  -11.8974   21.1833 C   0  0  0  0  0  0  0  0  0  0  0  0
  -25.4922  -10.3898   22.0674 C   0  0  0  0  0  0  0  0  0  0  0  0
  -27.0405  -33.0271   23.6649 C   0  0  0  0  0  0  0  0  0  0  0  0
  -24.9904  -27.9158   19.9440 C   0  0  0  0  0  0  0  0  0  0  0  0
  -26.7924  -31.6526   23.4866 C   0  0  0  0  0  0  0  0  0  0  0  0
  -24.2307  -26.8613   20.4702 C   0  0  0  0  0  0  0  0  0  0  0  0
  -28.2270  -22.4358   19.4768 C   0  0  0  0  0  0  0  0  0  0  0  0
  -28.5568  -20.3203   18.3811 C   0  0  0  0  0  0  0  0  0  0  0  0
  -20.9846  -12.7432   20.9638 C   0  0  0  0  0  0  0  0  0  0  0  0
  -26.0392  -25.3194   19.9586 C   0  0  0  0  0  0  0  0  0  0  0  0
  -18.9505  -13.2589   22.0217 C   0  0  0  0  0  0  0  0  0  0  0  0
  -17.4562  -13.4635   24.3685 C   0  0  0  0  0  0  0  0  0  0  0  0
  -18.4064  -14.4872   22.3971 C   0  0  0  0  0  0  0  0  0  0  0  0
  -25.0023  -11.4605   21.2958 C   0  0  0  0  0  0  0  0  0  0  0  0
  -28.6044  -21.8208   20.6597 C   0  0  0  0  0  0  0  0  0  0  0  0
  -28.9196  -19.8001   19.6130 C   0  0  0  0  0  0  0  0  0  0  0  0
  -26.8456  -10.3890   21.8335 C   0  0  0  0  0  0  0  0  0  0  0  0
  -24.7868   -9.4774   22.9193 C   0  0  0  0  0  0  0  0  0  0  0  0
  -23.8781  -29.6981   22.3294 C   0  0  0  0  0  0  0  0  0  0  0  0
  -20.9972  -28.7881   21.1485 C   0  0  0  0  0  0  0  0  0  0  0  0
  -19.1871  -26.5172   19.3560 C   0  0  0  0  0  0  0  0  0  0  0  0
  -30.6600  -14.6642   20.1081 C   0  0  0  0  0  0  0  0  0  0  0  0
  -25.9794  -33.9636   24.1860 C   0  0  0  0  0  0  0  0  0  0  0  0
  -24.4295  -29.3107   19.9000 C   0  0  0  0  0  0  0  0  0  0  0  0
  -22.8526  -27.0822   21.0364 C   0  0  0  0  0  0  0  0  0  0  0  0
  -24.5640  -33.4028   24.0748 C   0  0  0  0  0  0  0  0  0  0  0  0
  -30.0898  -11.5529   18.5388 C   0  0  0  0  0  0  0  0  0  0  0  0
  -24.5197  -31.9624   24.5751 C   0  0  0  0  0  0  0  0  0  0  0  0
  -28.7541  -11.0824   19.1077 C   0  0  0  0  0  0  0  0  0  0  0  0
  -30.2238  -17.8951   21.8631 C   0  0  0  0  0  0  0  0  0  0  0  0
  -30.0836  -13.0599   18.3212 C   0  0  0  0  0  0  0  0  0  0  0  0
  -31.0986  -16.7668   21.3359 C   0  0  0  0  0  0  0  0  0  0  0  0
  -28.4675  -13.3793   20.1747 C   0  0  0  0  0  0  0  0  0  0  0  0
  -28.8155  -16.3437   20.7160 C   0  0  0  0  0  0  0  0  0  0  0  0
  -25.4227  -31.0566   23.7291 C   0  0  1  0  0  0  0  0  0  0  0  0
  -23.3354  -29.5478   20.9363 C   0  0  1  0  0  0  0  0  0  0  0  0
  -28.4103  -11.8530   20.3920 C   0  0  1  0  0  0  0  0  0  0  0  0
  -29.0013  -17.8375   20.9536 C   0  0  2  0  0  0  0  0  0  0  0  0
  -28.6441  -22.6006   21.9330 C   0  0  0  0  0  0  0  0  0  0  0  0
  -29.5360  -19.9811   16.0833 C   0  0  0  0  0  0  0  0  0  0  0  0
  -27.1311  -19.3721   16.5312 C   0  0  0  0  0  0  0  0  0  0  0  0
  -16.8476  -26.0223   18.5949 C   0  0  0  0  0  0  0  0  0  0  0  0
  -20.2884  -27.8311   23.9578 C   0  0  0  0  0  0  0  0  0  0  0  0
  -18.4000  -26.5242   22.9607 C   0  0  0  0  0  0  0  0  0  0  0  0
  -18.4370  -29.0103   22.7593 C   0  0  0  0  0  0  0  0  0  0  0  0
  -19.9563  -26.6820   16.5029 C   0  0  0  0  0  0  0  0  0  0  0  0
  -27.8507  -23.8761   19.4189 C   0  0  0  0  0  0  0  0  0  1  0  0
  -28.5388  -19.4846   17.1484 C   0  0  0  0  0  0  0  0  0  0  0  0
  -20.0580  -27.6319   21.3939 C   0  0  1  0  0  0  0  0  0  0  0  0
  -18.1670  -26.6930   18.2456 C   0  0  2  0  0  0  0  0  0  0  0  0
  -19.3226  -27.7452   22.7591 C   0  0  0  0  0  0  0  0  0  0  0  0
  -25.9662  -12.0941   20.6223 N   0  0  0  0  0  0  0  0  0  0  0  0
  -28.9525  -20.5182   20.7579 N   0  0  0  0  0  0  0  0  0  0  0  0
  -27.0753  -11.4194   20.9700 N   0  0  0  0  0  0  0  0  0  0  0  0
  -22.3506  -28.4649   20.9763 N   0  0  0  0  0  0  0  0  0  0  0  0
  -29.7303  -13.7840   19.5437 N   0  0  0  0  0  0  0  0  0  0  0  0
  -30.1733  -15.7904   20.7714 N   0  0  0  0  0  0  0  0  0  0  0  0
  -27.8497   -9.6075   22.2844 N   0  0  0  0  0  0  0  0  0  0  0  0
  -23.3983   -9.6194   23.0461 N   0  0  0  0  0  0  0  0  0  0  0  0
  -24.7808  -30.7344   22.4727 N   0  0  0  0  0  0  0  0  0  0  0  0
  -19.1686  -27.5762   20.2388 N   0  0  0  0  0  0  0  0  0  0  0  0
  -18.6748  -26.0987   16.9768 N   0  3  0  0  0  0  0  0  0  0  0  0
  -25.3728   -8.5736   23.5621 O   0  0  0  0  0  0  0  0  0  0  0  0
  -23.5044  -28.9315   23.2094 O   0  0  0  0  0  0  0  0  0  0  0  0
  -20.5455  -29.9351   21.1040 O   0  0  0  0  0  0  0  0  0  0  0  0
  -19.9238  -25.5366   19.4345 O   0  0  0  0  0  0  0  0  0  0  0  0
  -31.8782  -14.4757   19.9883 O   0  0  0  0  0  0  0  0  0  0  0  0
  -19.6919  -13.1555   20.8566 O   0  0  0  0  0  0  0  0  0  0  0  0
  -26.5510  -24.0487   19.9715 O   0  0  0  0  0  0  0  0  0  1  0  0
  -29.2717  -18.4797   19.7140 O   0  0  0  0  0  0  0  0  0  0  0  0
  -16.7374  -13.5613   25.4945 F   0  0  0  0  0  0  0  0  0  0  0  0
  -18.5972  -15.5721   21.6340 F   0  0  0  0  0  0  0  0  0  0  0  0
  1  2  1  0  0  0  0
  1  5  2  0  0  0  0
  2  6  2  0  0  0  0
  3  8  2  0  0  0  0
  3 16  1  0  0  0  0
  4  9  1  0  0  0  0
  4 16  2  0  0  0  0
  5 18  1  0  0  0  0
  6 20  1  0  0  0  0
  7 10  2  0  0  0  0
  7 19  1  0  0  0  0
  8 24  1  0  0  0  0
  9 24  2  0  0  0  0
 10 25  1  0  0  0  0
 11 12  2  0  0  0  0
 11 26  1  0  0  0  0
 12 27  1  0  0  0  0
 13 21  1  0  0  0  0
 13 25  2  0  0  0  0
 14 22  1  0  0  0  0
 14 23  2  0  0  0  0
 15 27  2  0  0  0  0
 15 28  1  0  0  0  0
 16 29  1  0  0  0  0
 17 29  1  0  0  0  0
 17 32  2  0  0  0  0
 17 33  1  0  0  0  0
 18 20  2  0  0  0  0
 18 38  1  0  0  0  0
 19 21  2  0  0  0  0
 19 39  1  0  0  0  0
 20 50  1  0  0  0  0
 21 40  1  0  0  0  0
 22 30  2  0  0  0  0
 22 62  1  0  0  0  0
 23 31  1  0  0  0  0
 23 63  1  0  0  0  0
 24 83  1  0  0  0  0
 25 84  1  0  0  0  0
 26 28  2  0  0  0  0
 26 83  1  0  0  0  0
 27 86  1  0  0  0  0
 28 87  1  0  0  0  0
 29 67  2  0  0  0  0
 30 54  1  0  0  0  0
 30 68  1  0  0  0  0
 31 68  2  0  0  0  0
 31 85  1  0  0  0  0
 32 69  1  0  0  0  0
 32 73  1  0  0  0  0
 33 74  1  0  0  0  0
 33 78  2  0  0  0  0
 34 51  1  0  0  0  0
 34 75  1  0  0  0  0
 34 79  2  0  0  0  0
 35 64  1  0  0  0  0
 35 70  1  0  0  0  0
 35 80  2  0  0  0  0
 36 65  1  0  0  0  0
 36 76  1  0  0  0  0
 36 81  2  0  0  0  0
 37 71  1  0  0  0  0
 37 72  1  0  0  0  0
 37 82  2  0  0  0  0
 38 41  1  0  0  0  0
 39 51  1  0  0  0  0
 40 70  1  0  0  0  0
 41 43  1  0  0  0  0
 42 44  1  0  0  0  0
 42 46  1  0  0  0  0
 43 50  1  0  0  0  0
 44 52  1  0  0  0  0
 45 47  1  0  0  0  0
 45 53  1  0  0  0  0
 46 71  1  0  0  0  0
 47 72  1  0  0  0  0
 48 52  1  0  0  0  0
 48 71  1  0  0  0  0
 49 53  1  0  0  0  0
 49 72  1  0  0  0  0
 50 75  1  0  0  0  0
 51 70  1  0  0  0  0
 52 69  1  0  0  0  0
 53 85  1  0  0  0  0
 55 63  1  0  0  0  0
 56 63  1  0  0  0  0
 57 65  1  0  0  0  0
 58 66  1  0  0  0  0
 59 66  1  0  0  0  0
 60 66  1  0  0  0  0
 61 77  1  0  0  0  0
 62 84  1  0  0  0  0
 64 66  1  0  0  0  0
 64 76  1  0  0  0  0
 65 77  1  0  0  0  0
 67 69  1  0  0  0  0
M  CHG  1  77   1
M  ISO  4  37 100  62 101  72 100  84 101
M  END
> <Batch ID>
0161

> <Smiles>
CNC(C)C(=O)NC(C(=O)N1Cc2cc([101O:1][101CH2:1]c3cc(C(C)C)c(OC4CC[100N:0]([100C:0](=O)N5CCCC(n6nc(-c7ccc(Oc8ccc(F)cc8F)cc7)c(C(N)=O)c6N)C5)C4)nc3C)ccc2CC1C(=O)NC1CCCc2ccccc21)C(C)(C)C

> <Shape>
0.318

> <Color>
0.081

> <Negative vol penalty>
0.000

$$$$

  -OEChem-04052322123D

 87 96  0     1  0  0  0  0  0999 V2000
  -41.9275  -19.2011   15.5401 C   0  0  0  0  0  0  0  0  0  0  0  0
  -41.2868  -19.3889   16.7606 C   0  0  0  0  0  0  0  0  0  0  0  0
  -23.1034   -9.8426   19.9131 C   0  0  0  0  0  0  0  0  0  0  0  0
  -23.7945   -9.8509   22.2281 C   0  0  0  0  0  0  0  0  0  0  0  0
  -41.4646  -19.8607   14.4023 C   0  0  0  0  0  0  0  0  0  0  0  0
  -40.1834  -20.2374   16.8443 C   0  0  0  0  0  0  0  0  0  0  0  0
  -36.3986  -18.2412   19.5527 C   0  0  0  0  0  0  0  0  0  0  0  0
  -22.3490   -8.6920   20.1424 C   0  0  0  0  0  0  0  0  0  0  0  0
  -23.0400   -8.7003   22.4574 C   0  0  0  0  0  0  0  0  0  0  0  0
  -36.5216  -18.2762   20.9410 C   0  0  0  0  0  0  0  0  0  0  0  0
  -19.7930   -7.9128   22.9645 C   0  0  0  0  0  0  0  0  0  0  0  0
  -19.0013   -7.8769   24.1123 C   0  0  0  0  0  0  0  0  0  0  0  0
  -33.2774  -17.5031   24.5722 C   0  0  0  0  0  0  0  0  0  0  0  0
  -35.0675  -20.1996   21.0153 C   0  0  0  0  0  0  0  0  0  0  0  0
  -32.2872  -19.8169   25.7758 C   0  0  0  0  0  0  0  0  0  0  0  0
  -20.2144   -5.9370   24.8883 C   0  0  0  0  0  0  0  0  0  0  0  0
  -23.8262  -10.4220   20.9559 C   0  0  0  0  0  0  0  0  0  0  0  0
  -24.1790  -12.9459   20.8425 C   0  0  0  0  0  0  0  0  0  0  0  0
  -40.3490  -20.7101   14.4701 C   0  0  0  0  0  0  0  0  0  0  0  0
  -35.6164  -19.1933   18.8832 C   0  0  0  0  0  0  0  0  0  0  0  0
  -39.7059  -20.9100   15.7066 C   0  0  0  0  0  0  0  0  0  0  0  0
  -31.9043  -17.7475   24.5891 C   0  0  0  0  0  0  0  0  0  0  0  0
  -34.9340  -20.1729   19.6187 C   0  0  0  0  0  0  0  0  0  0  0  0
  -34.1555  -18.4156   25.1571 C   0  0  0  0  0  0  0  0  0  0  0  0
  -33.6604  -19.5724   25.7589 C   0  0  0  0  0  0  0  0  0  0  0  0
  -22.3173   -8.1208   21.4145 C   0  0  0  0  0  0  0  0  0  0  0  0
  -35.8584  -19.2573   21.6723 C   0  0  0  0  0  0  0  0  0  0  0  0
  -20.7954   -6.9608   22.7785 C   0  0  0  0  0  0  0  0  0  0  0  0
  -31.4091  -18.9044   25.1908 C   0  0  0  0  0  0  0  0  0  0  0  0
  -19.2120   -6.8890   25.0742 C   0  0  0  0  0  0  0  0  0  0  0  0
  -21.0061   -5.9729   23.7404 C   0  0  0  0  0  0  0  0  0  0  0  0
  -24.6062  -11.6102   20.7195 C   0  0  0  0  0  0  0  0  0  0  0  0
  -25.2837  -13.6917   20.5109 C   0  0  0  0  0  0  0  0  0  0  0  0
  -22.8981  -13.4661   21.2225 C   0  0  0  0  0  0  0  0  0  0  0  0
  -36.1924  -21.4468   16.7166 C   0  0  0  0  0  0  0  0  0  0  0  0
  -32.9633  -21.7539   16.7473 C   0  0  0  0  0  0  0  0  0  0  0  0
  -30.0284  -21.3272   18.4356 C   0  0  0  0  0  0  0  0  0  0  0  0
  -30.7644  -14.6508   20.8842 C   0  0  0  0  0  0  0  0  0  0  0  0
  -39.9142  -21.4383   13.2229 C   0  0  0  0  0  0  0  0  0  0  0  0
  -35.4724  -19.1257   17.3875 C   0  0  0  0  0  0  0  0  0  0  0  0
  -34.0657  -21.2056   18.9494 C   0  0  0  0  0  0  0  0  0  0  0  0
  -38.5098  -22.0284   13.3205 C   0  0  0  0  0  0  0  0  0  0  0  0
  -29.6752  -12.3543   18.4302 C   0  0  0  0  0  0  0  0  0  0  0  0
  -38.3296  -22.7612   14.6462 C   0  0  0  0  0  0  0  0  0  0  0  0
  -28.2369  -12.0333   18.8272 C   0  0  0  0  0  0  0  0  0  0  0  0
  -31.0178  -15.3077   24.4840 C   0  0  0  0  0  0  0  0  0  0  0  0
  -30.5539  -12.5140   19.6635 C   0  0  0  0  0  0  0  0  0  0  0  0
  -30.3011  -14.5134   23.4003 C   0  0  0  0  0  0  0  0  0  0  0  0
  -31.2079  -16.5174   22.4497 C   0  0  0  0  0  0  0  0  0  0  0  0
  -28.6214  -13.2888   21.0108 C   0  0  0  0  0  0  0  0  0  0  0  0
  -30.9671  -16.7477   23.9483 C   0  0  2  0  0  0  0  0  0  0  0  0
  -38.4908  -21.8031   15.8326 C   0  0  1  0  0  0  0  0  0  0  0  0
  -35.0628  -20.4572   16.7658 C   0  0  1  0  0  0  0  0  0  0  0  0
  -27.6922  -13.0954   19.7947 C   0  0  2  0  0  0  0  0  0  0  0  0
  -34.5815  -20.5622   26.3930 C   0  0  0  0  0  0  0  0  0  0  0  0
  -35.9750  -16.8435   25.8985 C   0  0  0  0  0  0  0  0  0  0  0  0
  -27.5574  -21.7075   18.2182 C   0  0  0  0  0  0  0  0  0  0  0  0
  -33.3767  -24.7293   17.2823 C   0  0  0  0  0  0  0  0  0  0  0  0
  -30.9785  -24.8643   17.9885 C   0  0  0  0  0  0  0  0  0  0  0  0
  -31.5537  -24.2058   15.6522 C   0  0  0  0  0  0  0  0  0  0  0  0
  -29.4450  -18.4355   18.6734 C   0  0  0  0  0  0  0  0  0  0  0  0
  -29.5297  -19.8950   24.1222 C   0  0  0  0  0  0  0  0  0  0  0  0
  -36.1908  -18.0505   23.6945 C   0  0  0  0  0  0  0  0  0  1  0  0
  -35.6214  -18.1309   25.1286 C   0  0  1  0  0  0  0  0  0  0  0  0
  -31.9751  -22.5762   17.5386 C   0  0  1  0  0  0  0  0  0  0  0  0
  -28.7005  -20.7260   18.0115 C   0  0  2  0  0  0  0  0  0  0  0  0
  -31.9888  -24.0758   17.1281 C   0  0  0  0  0  0  0  0  0  0  0  0
  -25.8827  -11.5100   20.3393 N   0  0  0  0  0  0  0  0  0  0  0  0
  -26.2670  -12.7923   20.2205 N   0  0  0  0  0  0  0  0  0  0  0  0
  -33.9617  -21.1016   17.4846 N   0  0  0  0  0  0  0  0  0  0  0  0
  -30.0122  -13.5076   20.5924 N   0  0  0  0  0  0  0  0  0  0  0  0
  -30.6429  -15.2037   22.1584 N   0  0  0  0  0  0  0  0  0  0  0  0
  -25.5001  -15.0224   20.4423 N   0  0  0  0  0  0  0  0  0  0  0  0
  -21.8739  -12.5604   21.5308 N   0  0  0  0  0  0  0  0  0  0  0  0
  -37.2938  -21.0084   16.0066 N   0  0  0  0  0  0  0  0  0  0  0  0
  -30.6799  -21.9243   17.3773 N   0  0  0  0  0  0  0  0  0  0  0  0
  -28.4127  -19.4960   18.8023 N   0  3  0  0  0  0  0  0  0  0  0  0
  -22.6639  -14.6975   21.2710 O   0  0  0  0  0  0  0  0  0  0  0  0
  -36.0730  -22.5285   17.2798 O   0  0  0  0  0  0  0  0  0  0  0  0
  -32.8493  -21.6869   15.5208 O   0  0  0  0  0  0  0  0  0  0  0  0
  -30.4441  -21.2758   19.5911 O   0  0  0  0  0  0  0  0  0  0  0  0
  -31.5455  -15.1354   20.0543 O   0  0  0  0  0  0  0  0  0  0  0  0
  -21.5810   -6.9982   21.6387 O   0  0  0  0  0  0  0  0  0  0  0  0
  -30.0707  -19.1579   25.2166 O   0  0  0  0  0  0  0  0  0  0  0  0
  -35.9781  -19.2944   23.0363 O   0  0  0  0  0  0  0  0  0  1  0  0
  -18.4527   -6.8556   26.1772 F   0  0  0  0  0  0  0  0  0  0  0  0
  -21.9683   -5.0563   23.5678 F   0  0  0  0  0  0  0  0  0  0  0  0
  1  2  1  0  0  0  0
  1  5  2  0  0  0  0
  2  6  2  0  0  0  0
  3  8  2  0  0  0  0
  3 17  1  0  0  0  0
  4  9  1  0  0  0  0
  4 17  2  0  0  0  0
  5 19  1  0  0  0  0
  6 21  1  0  0  0  0
  7 10  2  0  0  0  0
  7 20  1  0  0  0  0
  8 26  1  0  0  0  0
  9 26  2  0  0  0  0
 10 27  1  0  0  0  0
 11 12  2  0  0  0  0
 11 28  1  0  0  0  0
 12 30  1  0  0  0  0
 13 22  2  0  0  0  0
 13 24  1  0  0  0  0
 14 23  1  0  0  0  0
 14 27  2  0  0  0  0
 15 25  1  0  0  0  0
 15 29  2  0  0  0  0
 16 30  2  0  0  0  0
 16 31  1  0  0  0  0
 17 32  1  0  0  0  0
 18 32  1  0  0  0  0
 18 33  2  0  0  0  0
 18 34  1  0  0  0  0
 19 21  2  0  0  0  0
 19 39  1  0  0  0  0
 20 23  2  0  0  0  0
 20 40  1  0  0  0  0
 21 52  1  0  0  0  0
 22 29  1  0  0  0  0
 22 51  1  0  0  0  0
 23 41  1  0  0  0  0
 24 25  2  0  0  0  0
 24 64  1  0  0  0  0
 25 55  1  0  0  0  0
 26 83  1  0  0  0  0
 27 85  1  0  0  0  0
 28 31  2  0  0  0  0
 28 83  1  0  0  0  0
 29 84  1  0  0  0  0
 30 86  1  0  0  0  0
 31 87  1  0  0  0  0
 32 68  2  0  0  0  0
 33 69  1  0  0  0  0
 33 73  1  0  0  0  0
 34 74  1  0  0  0  0
 34 78  2  0  0  0  0
 35 53  1  0  0  0  0
 35 75  1  0  0  0  0
 35 79  2  0  0  0  0
 36 65  1  0  0  0  0
 36 70  1  0  0  0  0
 36 80  2  0  0  0  0
 37 66  1  0  0  0  0
 37 76  1  0  0  0  0
 37 81  2  0  0  0  0
 38 71  1  0  0  0  0
 38 72  1  0  0  0  0
 38 82  2  0  0  0  0
 39 42  1  0  0  0  0
 40 53  1  0  0  0  0
 41 70  1  0  0  0  0
 42 44  1  0  0  0  0
 43 45  1  0  0  0  0
 43 47  1  0  0  0  0
 44 52  1  0  0  0  0
 45 54  1  0  0  0  0
 46 48  1  0  0  0  0
 46 51  1  0  0  0  0
 47 71  1  0  0  0  0
 48 72  1  0  0  0  0
 49 51  1  0  0  0  0
 49 72  1  0  0  0  0
 50 54  1  0  0  0  0
 50 71  1  0  0  0  0
 52 75  1  0  0  0  0
 53 70  1  0  0  0  0
 54 69  1  0  0  0  0
 56 64  1  0  0  0  0
 57 66  1  0  0  0  0
 58 67  1  0  0  0  0
 59 67  1  0  0  0  0
 60 67  1  0  0  0  0
 61 77  1  0  0  0  0
 62 84  1  0  0  0  0
 63 64  1  0  0  0  0
 63 85  1  0  0  0  0
 65 67  1  0  0  0  0
 65 76  1  0  0  0  0
 66 77  1  0  0  0  0
 68 69  1  0  0  0  0
M  CHG  1  77   1
M  ISO  4  38 100  63 101  72 100  85 101
M  END
> <Batch ID>
0161

> <Smiles>
CNC(C)C(=O)NC(C(=O)N1Cc2cc([101O:1][101CH2:1]C(C)c3cc(C4CC[100N:0]([100C:0](=O)N5CCCC(n6nc(-c7ccc(Oc8ccc(F)cc8F)cc7)c(C(N)=O)c6N)C5)C4)c(OC)cc3C)ccc2CC1C(=O)NC1CCCc2ccccc21)C(C)(C)C

> <Shape>
0.193

> <Color>
0.191

> <Negative vol penalty>
0.000

$$$$

  -OEChem-04052322123D

 89 98  0     1  0  0  0  0  0999 V2000
  -20.9816   -8.0996   18.3654 C   0  0  0  0  0  0  0  0  0  0  0  0
  -20.7752   -9.4739   18.3031 C   0  0  0  0  0  0  0  0  0  0  0  0
  -28.2109  -26.1938   21.4699 C   0  0  0  0  0  0  0  0  0  0  0  0
  -29.2347  -27.5114   19.7228 C   0  0  0  0  0  0  0  0  0  0  0  0
  -21.8424   -7.5679   19.3247 C   0  0  0  0  0  0  0  0  0  0  0  0
  -21.4286  -10.3174   19.2009 C   0  0  0  0  0  0  0  0  0  0  0  0
  -23.4959  -15.9757   18.0983 C   0  0  0  0  0  0  0  0  0  0  0  0
  -28.8194  -25.0464   20.9613 C   0  0  0  0  0  0  0  0  0  0  0  0
  -29.8433  -26.3640   19.2141 C   0  0  0  0  0  0  0  0  0  0  0  0
  -22.9656  -17.2369   18.3664 C   0  0  0  0  0  0  0  0  0  0  0  0
  -29.8161  -21.7114   19.9084 C   0  0  0  0  0  0  0  0  0  0  0  0
  -29.0375  -20.5600   19.7916 C   0  0  0  0  0  0  0  0  0  0  0  0
  -24.2731  -17.3497   20.3906 C   0  0  0  0  0  0  0  0  0  0  0  0
  -27.5376  -21.7258   18.2988 C   0  0  0  0  0  0  0  0  0  0  0  0
  -28.4185  -27.4263   20.8507 C   0  0  0  0  0  0  0  0  0  0  0  0
  -21.3028  -26.9023   22.8835 C   0  0  0  0  0  0  0  0  0  0  0  0
  -28.3091  -29.4921   22.3433 C   0  0  0  0  0  0  0  0  0  0  0  0
  -22.5142   -8.4061   20.2284 C   0  0  0  0  0  0  0  0  0  0  0  0
  -24.4121  -15.3864   18.9814 C   0  0  0  0  0  0  0  0  0  0  0  0
  -22.2982   -9.7963   20.1740 C   0  0  0  0  0  0  0  0  0  0  0  0
  -24.8155  -16.0820   20.1300 C   0  0  0  0  0  0  0  0  0  0  0  0
  -21.0226  -25.7989   22.0848 C   0  0  0  0  0  0  0  0  0  0  0  0
  -21.5570  -26.8053   24.2390 C   0  0  0  0  0  0  0  0  0  0  0  0
  -20.9901  -24.5334   22.6477 C   0  0  0  0  0  0  0  0  0  0  0  0
  -21.5247  -25.5315   24.8067 C   0  0  0  0  0  0  0  0  0  0  0  0
  -21.2433  -24.4035   24.0174 C   0  0  0  0  0  0  0  0  0  0  0  0
  -29.6357  -25.1315   19.8334 C   0  0  0  0  0  0  0  0  0  0  0  0
  -23.3520  -17.9229   19.5142 C   0  0  0  0  0  0  0  0  0  0  0  0
  -29.4554  -22.8701   19.2205 C   0  0  0  0  0  0  0  0  0  0  0  0
  -27.8983  -20.5672   18.9867 C   0  0  0  0  0  0  0  0  0  0  0  0
  -28.3162  -22.8772   18.4156 C   0  0  0  0  0  0  0  0  0  0  0  0
  -27.7897  -28.6118   21.3753 C   0  0  0  0  0  0  0  0  0  0  0  0
  -27.3360  -30.4496   22.4941 C   0  0  0  0  0  0  0  0  0  0  0  0
  -21.2691  -28.0774   22.0389 C   0  0  0  0  0  0  0  0  0  0  0  0
  -29.5594  -29.4483   23.0436 C   0  0  0  0  0  0  0  0  0  0  0  0
  -24.4363  -12.7523   20.7603 C   0  0  0  0  0  0  0  0  0  0  0  0
  -27.5001  -13.6435   21.3444 C   0  0  0  0  0  0  0  0  0  0  0  0
  -29.8138  -16.1488   21.4754 C   0  0  0  0  0  0  0  0  0  0  0  0
  -21.4090  -30.2969   21.4808 C   0  0  0  0  0  0  0  0  0  0  0  0
  -23.3984   -7.7811   21.2784 C   0  0  0  0  0  0  0  0  0  0  0  0
  -24.9952  -14.0367   18.6641 C   0  0  0  0  0  0  0  0  0  0  0  0
  -20.7835  -26.1616   20.6528 C   0  0  0  0  0  0  0  0  0  0  0  0
  -25.8114  -15.5019   21.0996 C   0  0  0  0  0  0  0  0  0  0  0  0
  -20.9483  -27.6903   20.6196 C   0  0  0  0  0  0  0  0  0  0  0  0
  -24.3417   -8.7754   21.9507 C   0  0  0  0  0  0  0  0  0  0  0  0
  -23.8103  -32.6265   20.1190 C   0  0  0  0  0  0  0  0  0  0  0  0
  -23.5888  -10.0416   22.3465 C   0  0  0  0  0  0  0  0  0  0  0  0
  -25.1466  -31.9199   20.3443 C   0  0  0  0  0  0  0  0  0  0  0  0
  -22.6959  -31.6311   19.8120 C   0  0  0  0  0  0  0  0  0  0  0  0
  -23.8753  -29.8542   21.0786 C   0  0  0  0  0  0  0  0  0  0  0  0
  -23.0080  -10.7460   21.1145 C   0  0  1  0  0  0  0  0  0  0  0  0
  -25.5301  -13.3124   19.8957 C   0  0  1  0  0  0  0  0  0  0  0  0
  -25.0186  -30.8257   21.4189 C   0  0  1  0  0  0  0  0  0  0  0  0
  -21.8553  -28.0040   25.0730 C   0  0  0  0  0  0  0  0  0  0  0  0
  -21.7932  -25.3637   26.2702 C   0  0  0  0  0  0  0  0  0  0  0  0
  -21.2156  -23.0454   24.6477 C   0  0  0  0  0  0  0  0  0  0  0  0
  -19.2689  -23.3966   21.2058 C   0  0  0  0  0  0  0  0  0  0  0  0
  -32.2253  -16.5765   22.0225 C   0  0  0  0  0  0  0  0  0  0  0  0
  -26.8564  -13.4519   24.3208 C   0  0  0  0  0  0  0  0  0  0  0  0
  -28.9319  -14.7734   24.7836 C   0  0  0  0  0  0  0  0  0  0  0  0
  -29.0959  -12.5436   23.6773 C   0  0  0  0  0  0  0  0  0  0  0  0
  -30.3881  -17.0981   18.7317 C   0  0  0  0  0  0  0  0  0  0  0  0
  -22.5751  -21.4251   19.0330 C   0  0  0  0  0  0  0  0  0  0  0  0
  -21.7090  -23.1106   20.6602 C   0  0  0  0  0  0  0  0  0  0  0  0
  -22.4715  -19.9597   18.6586 C   0  0  0  0  0  0  0  0  0  1  0  0
  -20.6860  -23.3141   21.7853 C   0  0  1  0  0  0  0  0  0  0  0  0
  -28.1837  -14.5093   22.3750 C   0  0  1  0  0  0  0  0  0  0  0  0
  -31.2253  -16.2461   20.9253 C   0  0  2  0  0  0  0  0  0  0  0  0
  -28.2467  -13.8300   23.7721 C   0  0  0  0  0  0  0  0  0  0  0  0
  -26.5804  -28.9775   20.9418 N   0  0  0  0  0  0  0  0  0  0  0  0
  -21.4808  -29.2888   22.4239 N   0  0  0  0  0  0  0  0  0  0  0  0
  -26.3318  -30.0981   21.6407 N   0  0  0  0  0  0  0  0  0  0  0  0
  -26.3483  -14.1767   20.7487 N   0  0  0  0  0  0  0  0  0  0  0  0
  -22.6252  -30.5861   20.8345 N   0  0  0  0  0  0  0  0  0  0  0  0
  -27.2498  -31.5495   23.2721 N   0  0  0  0  0  0  0  0  0  0  0  0
  -30.4428  -28.3956   22.7684 N   0  0  0  0  0  0  0  0  0  0  0  0
  -24.0438  -11.4737   20.4131 N   0  0  0  0  0  0  0  0  0  0  0  0
  -29.4876  -14.8538   21.8187 N   0  0  0  0  0  0  0  0  0  0  0  0
  -31.3030  -17.3085   19.8831 N   0  3  0  0  0  0  0  0  0  0  0  0
  -21.6735  -21.7029   20.1794 N   0  3  0  0  0  0  0  0  0  0  0  0
  -29.8767  -30.3079   23.9004 O   0  0  0  0  0  0  0  0  0  0  0  0
  -23.9831  -13.4294   21.6756 O   0  0  0  0  0  0  0  0  0  0  0  0
  -27.9748  -12.5379   21.0727 O   0  0  0  0  0  0  0  0  0  0  0  0
  -29.0758  -17.1246   21.5926 O   0  0  0  0  0  0  0  0  0  0  0  0
  -20.3739  -30.9098   21.2079 O   0  0  0  0  0  0  0  0  0  0  0  0
  -30.2298  -24.0121   19.3369 O   0  0  0  0  0  0  0  0  0  0  0  0
  -22.8354  -19.1538   19.7786 O   0  0  0  0  0  0  0  0  0  1  0  0
  -27.1515  -19.4610   18.8734 F   0  0  0  0  0  0  0  0  0  0  0  0
  -27.9653  -23.9869   17.7514 F   0  0  0  0  0  0  0  0  0  0  0  0
  1  2  1  0  0  0  0
  1  5  2  0  0  0  0
  2  6  2  0  0  0  0
  3  8  2  0  0  0  0
  3 15  1  0  0  0  0
  4  9  1  0  0  0  0
  4 15  2  0  0  0  0
  5 18  1  0  0  0  0
  6 20  1  0  0  0  0
  7 10  2  0  0  0  0
  7 19  1  0  0  0  0
  8 27  1  0  0  0  0
  9 27  2  0  0  0  0
 10 28  1  0  0  0  0
 11 12  2  0  0  0  0
 11 29  1  0  0  0  0
 12 30  1  0  0  0  0
 13 21  1  0  0  0  0
 13 28  2  0  0  0  0
 14 30  2  0  0  0  0
 14 31  1  0  0  0  0
 15 32  1  0  0  0  0
 16 22  1  0  0  0  0
 16 23  2  0  0  0  0
 16 34  1  0  0  0  0
 17 32  1  0  0  0  0
 17 33  2  0  0  0  0
 17 35  1  0  0  0  0
 18 20  2  0  0  0  0
 18 40  1  0  0  0  0
 19 21  2  0  0  0  0
 19 41  1  0  0  0  0
 20 51  1  0  0  0  0
 21 43  1  0  0  0  0
 22 24  2  0  0  0  0
 22 42  1  0  0  0  0
 23 25  1  0  0  0  0
 23 54  1  0  0  0  0
 24 26  1  0  0  0  0
 24 66  1  0  0  0  0
 25 26  2  0  0  0  0
 25 55  1  0  0  0  0
 26 56  1  0  0  0  0
 27 86  1  0  0  0  0
 28 87  1  0  0  0  0
 29 31  2  0  0  0  0
 29 86  1  0  0  0  0
 30 88  1  0  0  0  0
 31 89  1  0  0  0  0
 32 70  2  0  0  0  0
 33 72  1  0  0  0  0
 33 75  1  0  0  0  0
 34 44  1  0  0  0  0
 34 71  2  0  0  0  0
 35 76  1  0  0  0  0
 35 81  2  0  0  0  0
 36 52  1  0  0  0  0
 36 77  1  0  0  0  0
 36 82  2  0  0  0  0
 37 67  1  0  0  0  0
 37 73  1  0  0  0  0
 37 83  2  0  0  0  0
 38 68  1  0  0  0  0
 38 78  1  0  0  0  0
 38 84  2  0  0  0  0
 39 71  1  0  0  0  0
 39 74  1  0  0  0  0
 39 85  2  0  0  0  0
 40 45  1  0  0  0  0
 41 52  1  0  0  0  0
 42 44  1  0  0  0  0
 43 73  1  0  0  0  0
 45 47  1  0  0  0  0
 46 48  1  0  0  0  0
 46 49  1  0  0  0  0
 47 51  1  0  0  0  0
 48 53  1  0  0  0  0
 49 74  1  0  0  0  0
 50 53  1  0  0  0  0
 50 74  1  0  0  0  0
 51 77  1  0  0  0  0
 52 73  1  0  0  0  0
 53 72  1  0  0  0  0
 57 66  1  0  0  0  0
 58 68  1  0  0  0  0
 59 69  1  0  0  0  0
 60 69  1  0  0  0  0
 61 69  1  0  0  0  0
 62 79  1  0  0  0  0
 63 65  1  0  0  0  0
 63 80  1  0  0  0  0
 64 66  1  0  0  0  0
 64 80  1  0  0  0  0
 65 87  1  0  0  0  0
 67 69  1  0  0  0  0
 67 78  1  0  0  0  0
 68 79  1  0  0  0  0
 70 72  1  0  0  0  0
M  CHG  2  79   1  80   1
M  ISO  4  39 100  65 101  71 100  87 101
M  END
> <Batch ID>
0161

> <Smiles>
CNC(C)C(=O)NC(C(=O)N1Cc2cc([101O:1][101CH2:1]CNCC(C)c3c(C)c(C)c(C)c4c3CC=C4[100NH:0][100C:0](=O)N3CCCC(n4nc(-c5ccc(Oc6ccc(F)cc6F)cc5)c(C(N)=O)c4N)C3)ccc2CC1C(=O)NC1CCCc2ccccc21)C(C)(C)C

> <Shape>
0.289

> <Color>
0.042

> <Negative vol penalty>
0.000

$$$$

  -OEChem-04052322123D

 84 93  0     1  0  0  0  0  0999 V2000
  -16.5222  -29.0445   23.9311 C   0  0  0  0  0  0  0  0  0  0  0  0
  -17.4291  -27.9915   23.9954 C   0  0  0  0  0  0  0  0  0  0  0  0
  -22.6505  -10.9680   21.6731 C   0  0  0  0  0  0  0  0  0  0  0  0
  -23.7203   -9.1602   20.4795 C   0  0  0  0  0  0  0  0  0  0  0  0
  -16.8895  -30.2430   23.3206 C   0  0  0  0  0  0  0  0  0  0  0  0
  -18.7035  -28.1360   23.4482 C   0  0  0  0  0  0  0  0  0  0  0  0
  -23.9137  -25.7071   25.5601 C   0  0  0  0  0  0  0  0  0  0  0  0
  -21.8000  -10.0541   22.2951 C   0  0  0  0  0  0  0  0  0  0  0  0
  -22.8698   -8.2462   21.1016 C   0  0  0  0  0  0  0  0  0  0  0  0
  -24.6363  -24.5728   25.1928 C   0  0  0  0  0  0  0  0  0  0  0  0
  -22.6286   -6.7162   24.1052 C   0  0  0  0  0  0  0  0  0  0  0  0
  -23.1961   -5.5484   24.6149 C   0  0  0  0  0  0  0  0  0  0  0  0
  -26.0518  -25.9352   23.7929 C   0  0  0  0  0  0  0  0  0  0  0  0
  -27.6178  -20.2628   20.4830 C   0  0  0  0  0  0  0  0  0  0  0  0
  -21.7903   -4.2296   23.1583 C   0  0  0  0  0  0  0  0  0  0  0  0
  -29.2206  -18.6269   21.9581 C   0  0  0  0  0  0  0  0  0  0  0  0
  -23.6106  -10.5211   20.7652 C   0  0  0  0  0  0  0  0  0  0  0  0
  -24.1200  -12.5419   19.2940 C   0  0  0  0  0  0  0  0  0  0  0  0
  -18.1723  -30.4057   22.7743 C   0  0  0  0  0  0  0  0  0  0  0  0
  -24.2484  -26.9645   25.0372 C   0  0  0  0  0  0  0  0  0  0  0  0
  -19.0878  -29.3374   22.8287 C   0  0  0  0  0  0  0  0  0  0  0  0
  -25.3334  -27.0843   24.1571 C   0  0  0  0  0  0  0  0  0  0  0  0
  -28.4180  -19.3277   19.8193 C   0  0  0  0  0  0  0  0  0  0  0  0
  -29.2543  -18.4888   20.5709 C   0  0  0  0  0  0  0  0  0  0  0  0
  -21.9097   -8.6932   22.0094 C   0  0  0  0  0  0  0  0  0  0  0  0
  -25.7037  -24.6862   24.3068 C   0  0  0  0  0  0  0  0  0  0  0  0
  -21.6420   -6.6407   23.1220 C   0  0  0  0  0  0  0  0  0  0  0  0
  -22.7769   -4.3051   24.1414 C   0  0  0  0  0  0  0  0  0  0  0  0
  -21.2228   -5.3974   22.6486 C   0  0  0  0  0  0  0  0  0  0  0  0
  -24.4891  -11.4648   20.1219 C   0  0  0  0  0  0  0  0  0  0  0  0
  -27.6678  -20.3131   21.8665 C   0  0  0  0  0  0  0  0  0  0  0  0
  -25.3113  -13.1266   18.9398 C   0  0  0  0  0  0  0  0  0  0  0  0
  -22.8169  -12.9754   18.8822 C   0  0  0  0  0  0  0  0  0  0  0  0
  -22.7536  -29.1151   23.2361 C   0  0  0  0  0  0  0  0  0  0  0  0
  -25.3915  -30.8969   23.8595 C   0  0  0  0  0  0  0  0  0  0  0  0
  -28.6909  -30.9830   24.7273 C   0  0  0  0  0  0  0  0  0  0  0  0
  -30.3974  -15.0010   20.2677 C   0  0  0  0  0  0  0  0  0  0  0  0
  -18.5076  -31.7033   22.0826 C   0  0  0  0  0  0  0  0  0  0  0  0
  -23.4759  -28.1824   25.4641 C   0  0  0  0  0  0  0  0  0  0  0  0
  -28.4103  -19.2921   18.3121 C   0  0  0  0  0  0  0  0  0  0  0  0
  -25.7460  -28.4143   23.5834 C   0  0  0  0  0  0  0  0  0  0  0  0
  -20.0041  -31.9055   21.8593 C   0  0  0  0  0  0  0  0  0  0  0  0
  -29.0288  -18.0218   17.7313 C   0  0  0  0  0  0  0  0  0  0  0  0
  -30.0720  -11.5292   19.5484 C   0  0  0  0  0  0  0  0  0  0  0  0
  -20.6354  -30.6378   21.2926 C   0  0  0  0  0  0  0  0  0  0  0  0
  -30.3460  -17.7001   18.4304 C   0  0  0  0  0  0  0  0  0  0  0  0
  -28.5612  -11.2909   19.5714 C   0  0  0  0  0  0  0  0  0  0  0  0
  -30.4987  -12.5486   20.6023 C   0  0  0  0  0  0  0  0  0  0  0  0
  -28.2684  -13.5966   20.5698 C   0  0  0  0  0  0  0  0  0  0  0  0
  -20.4880  -29.4643   22.2686 C   0  0  1  0  0  0  0  0  0  0  0  0
  -30.1331  -17.4451   19.9278 C   0  0  2  0  0  0  0  0  0  0  0  0
  -23.5811  -29.3353   24.4707 C   0  0  1  0  0  0  0  0  0  0  0  0
  -27.7829  -12.6177   19.4870 C   0  0  2  0  0  0  0  0  0  0  0  0
  -30.5833  -32.5835   25.1206 C   0  0  0  0  0  0  0  0  0  0  0  0
  -25.6952  -31.2744   20.8470 C   0  0  0  0  0  0  0  0  0  0  0  0
  -28.0467  -32.0337   21.2495 C   0  0  0  0  0  0  0  0  0  0  0  0
  -26.1396  -33.3266   22.2056 C   0  0  0  0  0  0  0  0  0  0  0  0
  -28.9874  -30.1216   27.5431 C   0  0  0  0  0  0  0  0  0  0  0  0
  -26.0380  -22.2941   24.4935 C   0  0  0  0  0  0  0  0  0  1  0  0
  -26.9738  -21.2336   23.9466 C   0  0  0  0  0  0  0  0  0  0  0  0
  -26.7375  -31.0808   23.2012 C   0  0  1  0  0  0  0  0  0  0  0  0
  -29.4403  -31.8085   25.7576 C   0  0  2  0  0  0  0  0  0  0  0  0
  -26.6460  -31.9034   21.8850 C   0  0  0  0  0  0  0  0  0  0  0  0
  -28.4500  -19.5162   22.6233 N   0  0  0  0  0  0  0  0  0  0  0  0
  -25.8114  -11.3684   20.2838 N   0  0  0  0  0  0  0  0  0  0  0  0
  -26.2837  -12.3924   19.5527 N   0  0  0  0  0  0  0  0  0  0  0  0
  -24.9557  -29.5748   24.0263 N   0  0  0  0  0  0  0  0  0  0  0  0
  -29.7240  -13.7844   20.4665 N   0  0  0  0  0  0  0  0  0  0  0  0
  -25.6115  -14.1918   18.1667 N   0  0  0  0  0  0  0  0  0  0  0  0
  -22.2768  -12.4423   17.7039 N   0  0  0  0  0  0  0  0  0  0  0  0
  -21.4543  -29.5738   23.3404 N   0  0  0  0  0  0  0  0  0  0  0  0
  -27.6100  -31.6672   24.2128 N   0  0  0  0  0  0  0  0  0  0  0  0
  -29.5878  -16.1233   20.1426 N   0  0  0  0  0  0  0  0  0  0  0  0
  -30.0043  -30.9258   26.8177 N   0  3  0  0  0  0  0  0  0  0  0  0
  -22.1579  -13.8230   19.5310 O   0  0  0  0  0  0  0  0  0  0  0  0
  -23.2570  -28.5706   22.2605 O   0  0  0  0  0  0  0  0  0  0  0  0
  -24.7535  -31.8895   24.2192 O   0  0  0  0  0  0  0  0  0  0  0  0
  -29.0326  -29.8464   24.4079 O   0  0  0  0  0  0  0  0  0  0  0  0
  -31.6288  -15.0803   20.2008 O   0  0  0  0  0  0  0  0  0  0  0  0
  -21.0801   -7.8010   22.6165 O   0  0  0  0  0  0  0  0  0  0  0  0
  -26.4103  -23.5806   23.9461 O   0  0  0  0  0  0  0  0  0  1  0  0
  -26.8851  -21.2232   22.5269 O   0  0  0  0  0  0  0  0  0  0  0  0
  -23.3231   -3.1838   24.6299 F   0  0  0  0  0  0  0  0  0  0  0  0
  -20.2762   -5.3186   21.7034 F   0  0  0  0  0  0  0  0  0  0  0  0
  1  2  1  0  0  0  0
  1  5  2  0  0  0  0
  2  6  2  0  0  0  0
  3  8  2  0  0  0  0
  3 17  1  0  0  0  0
  4  9  1  0  0  0  0
  4 17  2  0  0  0  0
  5 19  1  0  0  0  0
  6 21  1  0  0  0  0
  7 10  2  0  0  0  0
  7 20  1  0  0  0  0
  8 25  1  0  0  0  0
  9 25  2  0  0  0  0
 10 26  1  0  0  0  0
 11 12  2  0  0  0  0
 11 27  1  0  0  0  0
 12 28  1  0  0  0  0
 13 22  1  0  0  0  0
 13 26  2  0  0  0  0
 14 23  2  0  0  0  0
 14 31  1  0  0  0  0
 15 28  2  0  0  0  0
 15 29  1  0  0  0  0
 16 24  2  0  0  0  0
 16 64  1  0  0  0  0
 17 30  1  0  0  0  0
 18 30  1  0  0  0  0
 18 32  2  0  0  0  0
 18 33  1  0  0  0  0
 19 21  2  0  0  0  0
 19 38  1  0  0  0  0
 20 22  2  0  0  0  0
 20 39  1  0  0  0  0
 21 50  1  0  0  0  0
 22 41  1  0  0  0  0
 23 24  1  0  0  0  0
 23 40  1  0  0  0  0
 24 51  1  0  0  0  0
 25 80  1  0  0  0  0
 26 81  1  0  0  0  0
 27 29  2  0  0  0  0
 27 80  1  0  0  0  0
 28 83  1  0  0  0  0
 29 84  1  0  0  0  0
 30 65  2  0  0  0  0
 31 64  2  0  0  0  0
 31 82  1  0  0  0  0
 32 66  1  0  0  0  0
 32 69  1  0  0  0  0
 33 70  1  0  0  0  0
 33 75  2  0  0  0  0
 34 52  1  0  0  0  0
 34 71  1  0  0  0  0
 34 76  2  0  0  0  0
 35 61  1  0  0  0  0
 35 67  1  0  0  0  0
 35 77  2  0  0  0  0
 36 62  1  0  0  0  0
 36 72  1  0  0  0  0
 36 78  2  0  0  0  0
 37 68  1  0  0  0  0
 37 73  1  0  0  0  0
 37 79  2  0  0  0  0
 38 42  1  0  0  0  0
 39 52  1  0  0  0  0
 40 43  1  0  0  0  0
 41 67  1  0  0  0  0
 42 45  1  0  0  0  0
 43 46  1  0  0  0  0
 44 47  1  0  0  0  0
 44 48  1  0  0  0  0
 45 50  1  0  0  0  0
 46 51  1  0  0  0  0
 47 53  1  0  0  0  0
 48 68  1  0  0  0  0
 49 53  1  0  0  0  0
 49 68  1  0  0  0  0
 50 71  1  0  0  0  0
 51 73  1  0  0  0  0
 52 67  1  0  0  0  0
 53 66  1  0  0  0  0
 54 62  1  0  0  0  0
 55 63  1  0  0  0  0
 56 63  1  0  0  0  0
 57 63  1  0  0  0  0
 58 74  1  0  0  0  0
 59 60  1  0  0  0  0
 59 81  1  0  0  0  0
 60 82  1  0  0  0  0
 61 63  1  0  0  0  0
 61 72  1  0  0  0  0
 62 74  1  0  0  0  0
 65 66  1  0  0  0  0
M  CHG  1  74   1
M  ISO  4  37 100  59 101  73 100  81 101
M  END
> <Batch ID>
0161

> <Smiles>
CNC(C)C(=O)NC(C(=O)N1Cc2cc([101O:1][101CH2:1]COc3cc4c(cn3)C([100NH:0][100C:0](=O)N3CCCC(n5nc(-c6ccc(Oc7ccc(F)cc7F)cc6)c(C(N)=O)c5N)C3)CCC4)ccc2CC1C(=O)NC1CCCc2ccccc21)C(C)(C)C

> <Shape>
0.289

> <Color>
0.120

> <Negative vol penalty>
0.000

$$$$

  -OEChem-04052322123D

 88 98  0     1  0  0  0  0  0999 V2000
  -29.2315  -11.0475   19.4062 C   0  0  0  0  0  0  0  0  0  0  0  0
  -29.6711  -11.8099   20.4825 C   0  0  0  0  0  0  0  0  0  0  0  0
  -20.6704  -28.0873   22.3232 C   0  0  0  0  0  0  0  0  0  0  0  0
  -22.5765  -26.6041   22.2594 C   0  0  0  0  0  0  0  0  0  0  0  0
  -28.8303  -11.6762   18.2293 C   0  0  0  0  0  0  0  0  0  0  0  0
  -29.6984  -13.2017   20.3865 C   0  0  0  0  0  0  0  0  0  0  0  0
  -29.4546  -21.4300   21.6659 C   0  0  0  0  0  0  0  0  0  0  0  0
  -20.0802  -27.3737   21.2802 C   0  0  0  0  0  0  0  0  0  0  0  0
  -21.9862  -25.8904   21.2164 C   0  0  0  0  0  0  0  0  0  0  0  0
  -28.9840  -22.5221   20.9382 C   0  0  0  0  0  0  0  0  0  0  0  0
  -21.5779  -26.2375   17.8782 C   0  0  0  0  0  0  0  0  0  0  0  0
  -22.3814  -25.8963   16.7903 C   0  0  0  0  0  0  0  0  0  0  0  0
  -27.0602  -21.2340   20.2608 C   0  0  0  0  0  0  0  0  0  0  0  0
  -26.8221  -26.7271   16.6132 C   0  0  0  0  0  0  0  0  0  0  0  0
  -21.9495  -23.5557   17.2057 C   0  0  0  0  0  0  0  0  0  0  0  0
  -21.9186  -27.7025   22.8128 C   0  0  0  0  0  0  0  0  0  0  0  0
  -22.3894  -28.2004   25.2700 C   0  0  0  0  0  0  0  0  0  0  0  0
  -28.8648  -13.0758   18.1154 C   0  0  0  0  0  0  0  0  0  0  0  0
  -28.7359  -20.2261   21.6877 C   0  0  0  0  0  0  0  0  0  0  0  0
  -29.2749  -13.8560   19.2156 C   0  0  0  0  0  0  0  0  0  0  0  0
  -27.5226  -20.1289   20.9916 C   0  0  0  0  0  0  0  0  0  0  0  0
  -26.8000  -26.7925   19.3804 C   0  0  0  0  0  0  0  0  0  0  0  0
  -26.1782  -27.8135   18.6471 C   0  0  0  0  0  0  0  0  0  0  0  0
  -26.1865  -27.7897   17.2597 C   0  0  0  0  0  0  0  0  0  0  0  0
  -27.4464  -25.7107   17.3514 C   0  0  0  0  0  0  0  0  0  0  0  0
  -27.4434  -25.7417   18.7468 C   0  0  0  0  0  0  0  0  0  0  0  0
  -20.7380  -26.2752   20.7268 C   0  0  0  0  0  0  0  0  0  0  0  0
  -27.7881  -22.4233   20.2332 C   0  0  0  0  0  0  0  0  0  0  0  0
  -20.9602  -25.2379   18.6299 C   0  0  0  0  0  0  0  0  0  0  0  0
  -22.5672  -24.5554   16.4540 C   0  0  0  0  0  0  0  0  0  0  0  0
  -21.1461  -23.8970   18.2936 C   0  0  0  0  0  0  0  0  0  0  0  0
  -22.5292  -28.4397   23.8898 C   0  0  0  0  0  0  0  0  0  0  0  0
  -23.1624  -29.1668   25.8660 C   0  0  0  0  0  0  0  0  0  0  0  0
  -21.6290  -27.1946   25.9524 C   0  0  0  0  0  0  0  0  0  0  0  0
  -29.3261  -17.2442   20.7583 C   0  0  0  0  0  0  0  0  0  0  0  0
  -26.4734  -16.6494   22.1834 C   0  0  0  0  0  0  0  0  0  0  0  0
  -23.2415  -18.2418   22.3726 C   0  0  0  0  0  0  0  0  0  0  0  0
  -25.2764  -31.4718   21.3187 C   0  0  0  0  0  0  0  0  0  0  0  0
  -28.4119  -13.7044   16.8212 C   0  0  0  0  0  0  0  0  0  0  0  0
  -29.2436  -19.0659   22.4992 C   0  0  0  0  0  0  0  0  0  0  0  0
  -26.7021  -27.0457   20.8515 C   0  0  0  0  0  0  0  0  0  0  0  0
  -26.7030  -18.8653   20.9992 C   0  0  0  0  0  0  0  0  0  0  0  0
  -28.8932  -15.1425   16.6585 C   0  0  0  0  0  0  0  0  0  0  0  0
  -25.5451  -28.0550   20.9004 C   0  0  0  0  0  0  0  0  0  0  0  0
  -23.3262  -33.0008   23.8928 C   0  0  0  0  0  0  0  0  0  0  0  0
  -28.7012  -30.6900   20.4193 C   0  0  0  0  0  0  0  0  0  0  0  0
  -28.5849  -15.9394   17.9172 C   0  0  0  0  0  0  0  0  0  0  0  0
  -23.8518  -32.3984   25.1911 C   0  0  0  0  0  0  0  0  0  0  0  0
  -27.9874  -29.6570   19.5588 C   0  0  0  0  0  0  0  0  0  0  0  0
  -24.4566  -33.1878   22.8927 C   0  0  0  0  0  0  0  0  0  0  0  0
  -27.7376  -30.8779   21.5809 C   0  0  0  0  0  0  0  0  0  0  0  0
  -25.6718  -31.2278   23.8242 C   0  0  0  0  0  0  0  0  0  0  0  0
  -29.3421  -15.3697   19.1234 C   0  0  1  0  0  0  0  0  0  0  0  0
  -28.6903  -17.7229   22.0328 C   0  0  1  0  0  0  0  0  0  0  0  0
  -24.6334  -31.0949   24.9620 C   0  0  2  0  0  0  0  0  0  0  0  0
  -26.5144  -30.0575   19.6782 C   0  0  1  0  0  0  0  0  0  0  0  0
  -25.5868  -28.8540   19.5701 C   0  0  1  0  0  0  0  0  0  0  0  0
  -25.5736  -28.8635   16.4292 C   0  0  0  0  0  0  0  0  0  0  0  0
  -28.1202  -24.5989   16.6141 C   0  0  0  0  0  0  0  0  0  0  0  0
  -24.1820  -29.3035   19.1606 C   0  0  0  0  0  0  0  0  0  0  0  0
  -21.4735  -18.1387   24.1505 C   0  0  0  0  0  0  0  0  0  0  0  0
  -25.2988  -14.4085   20.4779 C   0  0  0  0  0  0  0  0  0  0  0  0
  -23.0173  -15.2815   21.0263 C   0  0  0  0  0  0  0  0  0  0  0  0
  -24.5012  -14.4433   22.8479 C   0  0  0  0  0  0  0  0  0  0  0  0
  -23.1930  -21.1872   22.6585 C   0  0  0  0  0  0  0  0  0  0  0  0
  -28.1179  -24.6745   19.5408 C   0  0  0  0  0  0  0  0  0  1  0  0
  -25.0326  -16.6491   21.7327 C   0  0  1  0  0  0  0  0  0  0  0  0
  -22.6387  -18.9336   23.5820 C   0  0  2  0  0  0  0  0  0  0  0  0
  -24.4819  -15.2125   21.5090 C   0  0  0  0  0  0  0  0  0  0  0  0
  -23.3280  -29.4768   23.6245 N   0  0  0  0  0  0  0  0  0  0  0  0
  -23.6971  -29.8978   24.8462 N   0  0  0  0  0  0  0  0  0  0  0  0
  -27.2446  -17.7566   21.8023 N   0  0  0  0  0  0  0  0  0  0  0  0
  -25.1739  -31.9385   22.6376 N   0  0  0  0  0  0  0  0  0  0  0  0
  -26.4120  -30.7341   20.9769 N   0  0  0  0  0  0  0  0  0  0  0  0
  -23.4301  -29.4540   27.1576 N   0  0  0  0  0  0  0  0  0  0  0  0
  -20.8914  -26.2808   25.1873 N   0  0  0  0  0  0  0  0  0  0  0  0
  -28.8659  -16.0146   20.3273 N   0  0  0  0  0  0  0  0  0  0  0  0
  -24.2947  -17.4243   22.7242 N   0  0  0  0  0  0  0  0  0  0  0  0
  -22.1455  -20.2900   23.2105 N   0  3  0  0  0  0  0  0  0  0  0  0
  -21.5912  -27.1188   27.2039 O   0  0  0  0  0  0  0  0  0  0  0  0
  -30.1705  -17.9397   20.2060 O   0  0  0  0  0  0  0  0  0  0  0  0
  -26.8971  -15.7054   22.8551 O   0  0  0  0  0  0  0  0  0  0  0  0
  -22.8179  -18.4071   21.2308 O   0  0  0  0  0  0  0  0  0  0  0  0
  -24.3973  -31.7120   20.4805 O   0  0  0  0  0  0  0  0  0  0  0  0
  -20.1622  -25.5784   19.7092 O   0  0  0  0  0  0  0  0  0  0  0  0
  -27.3236  -23.4949   19.5167 O   0  0  0  0  0  0  0  0  0  1  0  0
  -23.3376  -24.2278   15.4084 F   0  0  0  0  0  0  0  0  0  0  0  0
  -20.5544  -22.9323   19.0113 F   0  0  0  0  0  0  0  0  0  0  0  0
  1  2  1  0  0  0  0
  1  5  2  0  0  0  0
  2  6  2  0  0  0  0
  3  8  2  0  0  0  0
  3 16  1  0  0  0  0
  4  9  1  0  0  0  0
  4 16  2  0  0  0  0
  5 18  1  0  0  0  0
  6 20  1  0  0  0  0
  7 10  2  0  0  0  0
  7 19  1  0  0  0  0
  8 27  1  0  0  0  0
  9 27  2  0  0  0  0
 10 28  1  0  0  0  0
 11 12  2  0  0  0  0
 11 29  1  0  0  0  0
 12 30  1  0  0  0  0
 13 21  1  0  0  0  0
 13 28  2  0  0  0  0
 14 24  1  0  0  0  0
 14 25  2  0  0  0  0
 15 30  2  0  0  0  0
 15 31  1  0  0  0  0
 16 32  1  0  0  0  0
 17 32  1  0  0  0  0
 17 33  2  0  0  0  0
 17 34  1  0  0  0  0
 18 20  2  0  0  0  0
 18 39  1  0  0  0  0
 19 21  2  0  0  0  0
 19 40  1  0  0  0  0
 20 53  1  0  0  0  0
 21 42  1  0  0  0  0
 22 23  1  0  0  0  0
 22 26  2  0  0  0  0
 22 41  1  0  0  0  0
 23 24  2  0  0  0  0
 23 57  1  0  0  0  0
 24 58  1  0  0  0  0
 25 26  1  0  0  0  0
 25 59  1  0  0  0  0
 26 66  1  0  0  0  0
 27 85  1  0  0  0  0
 28 86  1  0  0  0  0
 29 31  2  0  0  0  0
 29 85  1  0  0  0  0
 30 87  1  0  0  0  0
 31 88  1  0  0  0  0
 32 70  2  0  0  0  0
 33 71  1  0  0  0  0
 33 75  1  0  0  0  0
 34 76  1  0  0  0  0
 34 80  2  0  0  0  0
 35 54  1  0  0  0  0
 35 77  1  0  0  0  0
 35 81  2  0  0  0  0
 36 67  1  0  0  0  0
 36 72  1  0  0  0  0
 36 82  2  0  0  0  0
 37 68  1  0  0  0  0
 37 78  1  0  0  0  0
 37 83  2  0  0  0  0
 38 73  1  0  0  0  0
 38 74  1  0  0  0  0
 38 84  2  0  0  0  0
 39 43  1  0  0  0  0
 40 54  1  0  0  0  0
 41 44  1  0  0  0  0
 42 72  1  0  0  0  0
 43 47  1  0  0  0  0
 44 57  1  0  0  0  0
 45 48  1  0  0  0  0
 45 50  1  0  0  0  0
 46 49  1  0  0  0  0
 46 51  1  0  0  0  0
 47 53  1  0  0  0  0
 48 55  1  0  0  0  0
 49 56  1  0  0  0  0
 50 73  1  0  0  0  0
 51 74  1  0  0  0  0
 52 55  1  0  0  0  0
 52 73  1  0  0  0  0
 53 77  1  0  0  0  0
 54 72  1  0  0  0  0
 55 71  1  0  0  0  0
 56 57  1  0  0  0  0
 56 74  1  0  0  0  0
 57 60  1  0  0  0  0
 61 68  1  0  0  0  0
 62 69  1  0  0  0  0
 63 69  1  0  0  0  0
 64 69  1  0  0  0  0
 65 79  1  0  0  0  0
 66 86  1  0  0  0  0
 67 69  1  0  0  0  0
 67 78  1  0  0  0  0
 68 79  1  0  0  0  0
 70 71  1  0  0  0  0
M  CHG  1  79   1
M  ISO  4  38 100  66 101  74 100  86 101
M  END
> <Batch ID>
0161

> <Smiles>
CNC(C)C(=O)NC(C(=O)N1Cc2cc([101O:1][101CH2:1]c3c(C)cc(C)c4c3CCC4(C)C3CCC[100N:0]3[100C:0](=O)N3CCCC(n4nc(-c5ccc(Oc6ccc(F)cc6F)cc5)c(C(N)=O)c4N)C3)ccc2CC1C(=O)NC1CCCc2ccccc21)C(C)(C)C

> <Shape>
0.226

> <Color>
0.057

> <Negative vol penalty>
0.000

$$$$

  -OEChem-04052322123D

 87 96  0     1  0  0  0  0  0999 V2000
  -16.4960  -30.0178   24.1212 C   0  0  0  0  0  0  0  0  0  0  0  0
  -16.7057  -28.6530   23.9512 C   0  0  0  0  0  0  0  0  0  0  0  0
  -23.0110  -10.4606   20.6486 C   0  0  0  0  0  0  0  0  0  0  0  0
  -24.3468   -9.1400   22.1680 C   0  0  0  0  0  0  0  0  0  0  0  0
  -17.3951  -30.9333   23.5759 C   0  0  0  0  0  0  0  0  0  0  0  0
  -17.8141  -28.2030   23.2347 C   0  0  0  0  0  0  0  0  0  0  0  0
  -21.0816  -23.1356   24.3073 C   0  0  0  0  0  0  0  0  0  0  0  0
  -22.0797   -9.4253   20.5675 C   0  0  0  0  0  0  0  0  0  0  0  0
  -23.4155   -8.1048   22.0871 C   0  0  0  0  0  0  0  0  0  0  0  0
  -21.0588  -21.8656   23.7325 C   0  0  0  0  0  0  0  0  0  0  0  0
  -22.6224   -5.6308   19.9234 C   0  0  0  0  0  0  0  0  0  0  0  0
  -23.1080   -4.3340   19.7562 C   0  0  0  0  0  0  0  0  0  0  0  0
  -22.8667  -22.5025   22.2679 C   0  0  0  0  0  0  0  0  0  0  0  0
  -23.5221  -18.6052   20.6064 C   0  0  0  0  0  0  0  0  0  0  0  0
  -22.0592   -3.6739   21.8302 C   0  0  0  0  0  0  0  0  0  0  0  0
  -24.1446  -10.3179   21.4488 C   0  0  0  0  0  0  0  0  0  0  0  0
  -25.1159  -12.4530   22.4516 C   0  0  0  0  0  0  0  0  0  0  0  0
  -18.5203  -30.4941   22.8606 C   0  0  0  0  0  0  0  0  0  0  0  0
  -21.9914  -24.1037   23.8585 C   0  0  0  0  0  0  0  0  0  0  0  0
  -18.7284  -29.1136   22.6781 C   0  0  0  0  0  0  0  0  0  0  0  0
  -22.9008  -23.7832   22.8404 C   0  0  0  0  0  0  0  0  0  0  0  0
  -24.8901  -18.3917   18.6266 C   0  0  0  0  0  0  0  0  0  0  0  0
  -24.5749  -17.9937   19.9258 C   0  0  0  0  0  0  0  0  0  0  0  0
  -22.7845  -19.6147   19.9878 C   0  0  0  0  0  0  0  0  0  0  0  0
  -24.1525  -19.4011   18.0080 C   0  0  0  0  0  0  0  0  0  0  0  0
  -23.0997  -20.0126   18.6886 C   0  0  0  0  0  0  0  0  0  0  0  0
  -22.2820   -8.2474   21.2868 C   0  0  0  0  0  0  0  0  0  0  0  0
  -21.9495  -21.5498   22.7107 C   0  0  0  0  0  0  0  0  0  0  0  0
  -21.8553   -5.9493   21.0440 C   0  0  0  0  0  0  0  0  0  0  0  0
  -22.8264   -3.3555   20.7095 C   0  0  0  0  0  0  0  0  0  0  0  0
  -21.5737   -4.9708   21.9974 C   0  0  0  0  0  0  0  0  0  0  0  0
  -25.1072  -11.3868   21.5324 C   0  0  0  0  0  0  0  0  0  0  0  0
  -26.2266  -13.1875   22.1149 C   0  0  0  0  0  0  0  0  0  0  0  0
  -24.2019  -12.7525   23.5149 C   0  0  0  0  0  0  0  0  0  0  0  0
  -21.7331  -26.9698   22.5085 C   0  0  0  0  0  0  0  0  0  0  0  0
  -24.9540  -27.0097   22.8909 C   0  0  0  0  0  0  0  0  0  0  0  0
  -27.8501  -25.2420   23.2579 C   0  0  0  0  0  0  0  0  0  0  0  0
  -29.2908  -14.9159   17.6741 C   0  0  0  0  0  0  0  0  0  0  0  0
  -19.4387  -31.5224   22.2492 C   0  0  0  0  0  0  0  0  0  0  0  0
  -22.0213  -25.4605   24.5072 C   0  0  0  0  0  0  0  0  0  0  0  0
  -23.9109  -24.7803   22.3365 C   0  0  0  0  0  0  0  0  0  0  0  0
  -20.7905  -30.9553   21.8236 C   0  0  0  0  0  0  0  0  0  0  0  0
  -30.3957  -12.2871   19.6286 C   0  0  0  0  0  0  0  0  0  0  0  0
  -20.6041  -29.6516   21.0539 C   0  0  0  0  0  0  0  0  0  0  0  0
  -29.1535  -11.8780   20.4202 C   0  0  0  0  0  0  0  0  0  0  0  0
  -27.3851  -17.9529   18.5911 C   0  0  0  0  0  0  0  0  0  0  0  0
  -25.7846  -16.2217   17.6734 C   0  0  0  0  0  0  0  0  0  0  0  0
  -30.0398  -12.6101   18.1817 C   0  0  0  0  0  0  0  0  0  0  0  0
  -28.5258  -17.2558   17.8534 C   0  0  0  0  0  0  0  0  0  0  0  0
  -26.9601  -15.5651   16.9554 C   0  0  0  0  0  0  0  0  0  0  0  0
  -27.7454  -13.2701   18.8254 C   0  0  0  0  0  0  0  0  0  0  0  0
  -26.0357  -17.7247   17.8884 C   0  0  0  0  0  0  0  0  0  0  0  0
  -19.9324  -28.5859   21.9284 C   0  0  1  0  0  0  0  0  0  0  0  0
  -22.6451  -26.5334   23.6199 C   0  0  1  0  0  0  0  0  0  0  0  0
  -28.0479  -12.9418   20.3011 C   0  0  1  0  0  0  0  0  0  0  0  0
  -25.3493  -16.9158   20.6111 C   0  0  0  0  0  0  0  0  0  0  0  0
  -24.4903  -19.8275   16.6141 C   0  0  0  0  0  0  0  0  0  0  0  0
  -22.3073  -21.0960   18.0280 C   0  0  0  0  0  0  0  0  0  0  0  0
  -20.3294  -19.5253   20.5428 C   0  0  0  0  0  0  0  0  0  0  0  0
  -30.3279  -25.5504   23.5089 C   0  0  0  0  0  0  0  0  0  0  0  0
  -25.1740  -27.6457   19.9148 C   0  0  0  0  0  0  0  0  0  0  0  0
  -27.5922  -27.0074   20.0283 C   0  0  0  0  0  0  0  0  0  0  0  0
  -26.7469  -28.9296   21.3749 C   0  0  0  0  0  0  0  0  0  0  0  0
  -27.8635  -23.9198   25.9056 C   0  0  0  0  0  0  0  0  0  0  0  0
  -21.6615  -20.2526   20.7383 C   0  0  1  0  0  0  0  0  0  1  0  0
  -26.1350  -26.5734   22.0578 C   0  0  1  0  0  0  0  0  0  0  0  0
  -29.0020  -25.3875   24.2358 C   0  0  2  0  0  0  0  0  0  0  0  0
  -26.3918  -27.5207   20.8519 C   0  0  0  0  0  0  0  0  0  0  0  0
  -26.1310  -11.4360   20.6760 N   0  0  0  0  0  0  0  0  0  0  0  0
  -26.7933  -12.5420   21.0555 N   0  0  0  0  0  0  0  0  0  0  0  0
  -23.8965  -26.0954   22.9983 N   0  0  0  0  0  0  0  0  0  0  0  0
  -28.9828  -13.6188   18.1117 N   0  0  0  0  0  0  0  0  0  0  0  0
  -28.2333  -15.8396   17.6354 N   0  0  0  0  0  0  0  0  0  0  0  0
  -26.7639  -14.3162   22.6246 N   0  0  0  0  0  0  0  0  0  0  0  0
  -23.1144  -11.8932   23.7230 N   0  0  0  0  0  0  0  0  0  0  0  0
  -20.8897  -28.0103   22.8485 N   0  0  0  0  0  0  0  0  0  0  0  0
  -27.2621  -26.4571   22.9769 N   0  0  0  0  0  0  0  0  0  0  0  0
  -29.0915  -24.1863   25.1132 N   0  3  0  0  0  0  0  0  0  0  0  0
  -24.3361  -13.7616   24.2479 O   0  0  0  0  0  0  0  0  0  0  0  0
  -21.7913  -26.4054   21.4223 O   0  0  0  0  0  0  0  0  0  0  0  0
  -24.9723  -28.1179   23.4324 O   0  0  0  0  0  0  0  0  0  0  0  0
  -27.5087  -24.1592   22.7872 O   0  0  0  0  0  0  0  0  0  0  0  0
  -30.4399  -15.2336   17.3432 O   0  0  0  0  0  0  0  0  0  0  0  0
  -21.3733   -7.2371   21.2082 O   0  0  0  0  0  0  0  0  0  0  0  0
  -21.9288  -20.3072   22.1457 O   0  0  0  0  0  0  0  0  0  1  0  0
  -23.2915   -2.1098   20.5481 F   0  0  0  0  0  0  0  0  0  0  0  0
  -20.8363   -5.2705   23.0755 F   0  0  0  0  0  0  0  0  0  0  0  0
  1  2  1  0  0  0  0
  1  5  2  0  0  0  0
  2  6  2  0  0  0  0
  3  8  2  0  0  0  0
  3 16  1  0  0  0  0
  4  9  1  0  0  0  0
  4 16  2  0  0  0  0
  5 18  1  0  0  0  0
  6 20  1  0  0  0  0
  7 10  2  0  0  0  0
  7 19  1  0  0  0  0
  8 27  1  0  0  0  0
  9 27  2  0  0  0  0
 10 28  1  0  0  0  0
 11 12  2  0  0  0  0
 11 29  1  0  0  0  0
 12 30  1  0  0  0  0
 13 21  1  0  0  0  0
 13 28  2  0  0  0  0
 14 23  2  0  0  0  0
 14 24  1  0  0  0  0
 15 30  2  0  0  0  0
 15 31  1  0  0  0  0
 16 32  1  0  0  0  0
 17 32  1  0  0  0  0
 17 33  2  0  0  0  0
 17 34  1  0  0  0  0
 18 20  2  0  0  0  0
 18 39  1  0  0  0  0
 19 21  2  0  0  0  0
 19 40  1  0  0  0  0
 20 53  1  0  0  0  0
 21 41  1  0  0  0  0
 22 23  1  0  0  0  0
 22 25  2  0  0  0  0
 22 52  1  0  0  0  0
 23 56  1  0  0  0  0
 24 26  2  0  0  0  0
 24 65  1  0  0  0  0
 25 26  1  0  0  0  0
 25 57  1  0  0  0  0
 26 58  1  0  0  0  0
 27 84  1  0  0  0  0
 28 85  1  0  0  0  0
 29 31  2  0  0  0  0
 29 84  1  0  0  0  0
 30 86  1  0  0  0  0
 31 87  1  0  0  0  0
 32 69  2  0  0  0  0
 33 70  1  0  0  0  0
 33 74  1  0  0  0  0
 34 75  1  0  0  0  0
 34 79  2  0  0  0  0
 35 54  1  0  0  0  0
 35 76  1  0  0  0  0
 35 80  2  0  0  0  0
 36 66  1  0  0  0  0
 36 71  1  0  0  0  0
 36 81  2  0  0  0  0
 37 67  1  0  0  0  0
 37 77  1  0  0  0  0
 37 82  2  0  0  0  0
 38 72  1  0  0  0  0
 38 73  1  0  0  0  0
 38 83  2  0  0  0  0
 39 42  1  0  0  0  0
 40 54  1  0  0  0  0
 41 71  1  0  0  0  0
 42 44  1  0  0  0  0
 43 45  1  0  0  0  0
 43 48  1  0  0  0  0
 44 53  1  0  0  0  0
 45 55  1  0  0  0  0
 46 49  1  0  0  0  0
 46 52  1  0  0  0  0
 47 50  1  0  0  0  0
 47 52  1  0  0  0  0
 48 72  1  0  0  0  0
 49 73  1  0  0  0  0
 50 73  1  0  0  0  0
 51 55  1  0  0  0  0
 51 72  1  0  0  0  0
 53 76  1  0  0  0  0
 54 71  1  0  0  0  0
 55 70  1  0  0  0  0
 59 65  1  0  0  0  0
 60 67  1  0  0  0  0
 61 68  1  0  0  0  0
 62 68  1  0  0  0  0
 63 68  1  0  0  0  0
 64 78  1  0  0  0  0
 65 85  1  0  0  0  0
 66 68  1  0  0  0  0
 66 77  1  0  0  0  0
 67 78  1  0  0  0  0
 69 70  1  0  0  0  0
M  CHG  1  78   1
M  ISO  4  38 100  65 101  73 100  85 101
M  END
> <Batch ID>
0161

> <Smiles>
CNC(C)C(=O)NC(C(=O)N1Cc2cc([101O:1][101CH:1](C)c3cc(C)c(C4CC[100N:0]([100C:0](=O)N5CCCC(n6nc(-c7ccc(Oc8ccc(F)cc8F)cc7)c(C(N)=O)c6N)C5)CC4)c(C)c3C)ccc2CC1C(=O)NC1CCCc2ccccc21)C(C)(C)C

> <Shape>
0.202

> <Color>
0.099

> <Negative vol penalty>
0.000

$$$$

  -OEChem-04052322123D

 89 98  0     1  0  0  0  0  0999 V2000
  -27.0851  -36.8670   24.9235 C   0  0  0  0  0  0  0  0  0  0  0  0
  -27.7145  -35.7879   24.3114 C   0  0  0  0  0  0  0  0  0  0  0  0
  -26.0141  -12.7058   21.6961 C   0  0  0  0  0  0  0  0  0  0  0  0
  -25.3462  -13.6208   19.5622 C   0  0  0  0  0  0  0  0  0  0  0  0
  -25.8452  -36.6931   25.5369 C   0  0  0  0  0  0  0  0  0  0  0  0
  -27.1048  -34.5338   24.3133 C   0  0  0  0  0  0  0  0  0  0  0  0
  -27.3474  -30.3155   19.8801 C   0  0  0  0  0  0  0  0  0  0  0  0
  -24.9033  -11.8623   21.6821 C   0  0  0  0  0  0  0  0  0  0  0  0
  -24.2354  -12.7773   19.5481 C   0  0  0  0  0  0  0  0  0  0  0  0
  -28.1277  -29.1720   19.7152 C   0  0  0  0  0  0  0  0  0  0  0  0
  -24.0019   -8.9547   20.2101 C   0  0  0  0  0  0  0  0  0  0  0  0
  -24.1973   -7.6196   20.5635 C   0  0  0  0  0  0  0  0  0  0  0  0
  -26.3491  -27.8320   20.6426 C   0  0  0  0  0  0  0  0  0  0  0  0
  -22.6360   -7.8745   22.3896 C   0  0  0  0  0  0  0  0  0  0  0  0
  -26.2356  -13.5851   20.6362 C   0  0  0  0  0  0  0  0  0  0  0  0
  -28.6633  -14.1856   20.1328 C   0  0  0  0  0  0  0  0  0  0  0  0
  -25.2155  -35.4385   25.5379 C   0  0  0  0  0  0  0  0  0  0  0  0
  -26.0642  -30.2272   20.4386 C   0  0  0  0  0  0  0  0  0  0  0  0
  -25.8559  -34.3427   24.9284 C   0  0  0  0  0  0  0  0  0  0  0  0
  -25.5536  -28.9755   20.8112 C   0  0  0  0  0  0  0  0  0  0  0  0
  -26.0633  -21.9358   18.0903 C   0  0  0  0  0  0  0  0  0  0  0  0
  -26.1897  -22.3658   16.7550 C   0  0  0  0  0  0  0  0  0  0  0  0
  -24.8200  -21.4440   18.5285 C   0  0  0  0  0  0  0  0  0  0  0  0
  -25.0891  -22.2624   15.8864 C   0  0  0  0  0  0  0  0  0  0  0  0
  -23.7370  -21.3442   17.6548 C   0  0  0  0  0  0  0  0  0  0  0  0
  -23.8725  -21.7506   16.3327 C   0  0  0  0  0  0  0  0  0  0  0  0
  -24.0140  -11.8980   20.6081 C   0  0  0  0  0  0  0  0  0  0  0  0
  -27.6297  -27.9303   20.0991 C   0  0  0  0  0  0  0  0  0  0  0  0
  -23.1236   -9.7498   20.9465 C   0  0  0  0  0  0  0  0  0  0  0  0
  -23.5143   -7.0795   21.6532 C   0  0  0  0  0  0  0  0  0  0  0  0
  -22.4406   -9.2096   22.0362 C   0  0  0  0  0  0  0  0  0  0  0  0
  -27.3825  -14.4571   20.6503 C   0  0  0  0  0  0  0  0  0  0  0  0
  -29.3871  -15.3235   20.3933 C   0  0  0  0  0  0  0  0  0  0  0  0
  -29.1547  -13.0100   19.4754 C   0  0  0  0  0  0  0  0  0  0  0  0
  -24.6656  -31.3966   23.0425 C   0  0  0  0  0  0  0  0  0  0  0  0
  -22.0082  -30.0727   21.7358 C   0  0  0  0  0  0  0  0  0  0  0  0
  -20.6654  -27.7380   19.6398 C   0  0  0  0  0  0  0  0  0  0  0  0
  -27.8294  -21.0427   21.2386 C   0  0  0  0  0  0  0  0  0  0  0  0
  -23.8971  -35.2886   26.2548 C   0  0  0  0  0  0  0  0  0  0  0  0
  -25.2247  -31.4666   20.5851 C   0  0  0  0  0  0  0  0  0  0  0  0
  -24.1742  -28.8242   21.3969 C   0  0  0  0  0  0  0  0  0  0  0  0
  -23.1453  -34.0120   25.8867 C   0  0  0  0  0  0  0  0  0  0  0  0
  -29.6536  -18.9666   23.4832 C   0  0  0  0  0  0  0  0  0  0  0  0
  -24.0863  -32.8118   25.9137 C   0  0  0  0  0  0  0  0  0  0  0  0
  -29.3940  -17.5509   22.9650 C   0  0  0  0  0  0  0  0  0  0  0  0
  -28.4228  -19.8577   23.3315 C   0  0  0  0  0  0  0  0  0  0  0  0
  -27.6000  -18.4935   21.4511 C   0  0  0  0  0  0  0  0  0  0  0  0
  -28.5673  -22.3221   18.4156 C   0  0  0  0  0  0  0  0  0  0  0  0
  -25.2149  -32.9724   24.8880 C   0  0  1  0  0  0  0  0  0  0  0  0
  -27.2086  -22.0841   19.0731 C   0  0  2  0  0  0  0  0  0  0  0  0
  -27.4874  -22.9394   16.2297 C   0  0  2  0  0  0  0  0  0  0  0  0
  -24.1314  -31.3265   21.6399 C   0  0  1  0  0  0  0  0  0  0  0  0
  -28.8300  -17.5732   21.5316 C   0  0  2  0  0  0  0  0  0  0  0  0
  -24.5874  -21.0645   19.9612 C   0  0  0  0  0  0  0  0  0  0  0  0
  -25.1798  -22.7369   14.4669 C   0  0  0  0  0  0  0  0  0  0  0  0
  -22.4233  -20.8145   18.1391 C   0  0  0  0  0  0  0  0  0  0  0  0
  -22.7086  -21.6505   15.3972 C   0  0  0  0  0  0  0  0  0  0  0  0
  -28.2201  -21.9489   15.3096 C   0  0  0  0  0  0  0  0  0  0  0  0
  -18.4616  -26.8724   18.8084 C   0  0  0  0  0  0  0  0  0  0  0  0
  -21.5841  -28.6163   24.3833 C   0  0  0  0  0  0  0  0  0  0  0  0
  -19.9843  -27.0908   23.2079 C   0  0  0  0  0  0  0  0  0  0  0  0
  -19.4987  -29.5334   23.3514 C   0  0  0  0  0  0  0  0  0  0  0  0
  -21.3121  -28.4458   16.8399 C   0  0  0  0  0  0  0  0  0  0  0  0
  -29.4918  -25.3776   18.3596 C   0  0  0  0  0  0  0  0  0  0  0  0
  -28.2056  -24.7495   17.8446 C   0  0  0  0  0  0  0  0  0  0  0  0
  -29.3192  -26.8071   18.8582 C   0  0  0  0  0  0  0  0  0  1  0  0
  -21.3363  -28.7232   21.8156 C   0  0  1  0  0  0  0  0  0  0  0  0
  -19.6037  -27.8455   18.5602 C   0  0  2  0  0  0  0  0  0  0  0  0
  -20.6276  -28.4937   23.1803 C   0  0  0  0  0  0  0  0  0  0  0  0
  -27.2947  -15.6721   21.1983 N   0  0  0  0  0  0  0  0  0  0  0  0
  -28.5294  -16.1741   21.0266 N   0  0  0  0  0  0  0  0  0  0  0  0
  -23.3945  -30.0663   21.5261 N   0  0  0  0  0  0  0  0  0  0  0  0
  -27.9388  -19.8359   21.9490 N   0  0  0  0  0  0  0  0  0  0  0  0
  -30.6672  -15.6694   20.1401 N   0  0  0  0  0  0  0  0  0  0  0  0
  -28.2776  -11.9329   19.2889 N   0  0  0  0  0  0  0  0  0  0  0  0
  -24.7327  -32.6778   23.5556 N   0  0  0  0  0  0  0  0  0  0  0  0
  -20.4493  -28.6398   20.6602 N   0  0  0  0  0  0  0  0  0  0  0  0
  -27.3687  -20.9322   19.9324 N   0  0  0  0  0  0  0  0  0  0  0  0
  -28.4652  -23.3575   17.3246 N   0  3  1  0  0  0  0  0  0  0  0  0
  -20.1921  -27.5484   17.2236 N   0  3  0  0  0  0  0  0  0  0  0  0
  -30.3411  -12.9113   19.0802 O   0  0  0  0  0  0  0  0  0  0  0  0
  -24.9915  -30.3645   23.6172 O   0  0  0  0  0  0  0  0  0  0  0  0
  -21.3270  -31.0949   21.8481 O   0  0  0  0  0  0  0  0  0  0  0  0
  -21.5916  -26.9319   19.5854 O   0  0  0  0  0  0  0  0  0  0  0  0
  -28.1257  -22.1370   21.7302 O   0  0  0  0  0  0  0  0  0  0  0  0
  -22.9301  -11.0749   20.5939 O   0  0  0  0  0  0  0  0  0  0  0  0
  -28.3948  -26.8048   19.9387 O   0  0  0  0  0  0  0  0  0  1  0  0
  -23.7009   -5.7969   21.9915 F   0  0  0  0  0  0  0  0  0  0  0  0
  -21.5946   -9.9681   22.7467 F   0  0  0  0  0  0  0  0  0  0  0  0
  1  2  1  0  0  0  0
  1  5  2  0  0  0  0
  2  6  2  0  0  0  0
  3  8  2  0  0  0  0
  3 15  1  0  0  0  0
  4  9  1  0  0  0  0
  4 15  2  0  0  0  0
  5 17  1  0  0  0  0
  6 19  1  0  0  0  0
  7 10  2  0  0  0  0
  7 18  1  0  0  0  0
  8 27  1  0  0  0  0
  9 27  2  0  0  0  0
 10 28  1  0  0  0  0
 11 12  2  0  0  0  0
 11 29  1  0  0  0  0
 12 30  1  0  0  0  0
 13 20  1  0  0  0  0
 13 28  2  0  0  0  0
 14 30  2  0  0  0  0
 14 31  1  0  0  0  0
 15 32  1  0  0  0  0
 16 32  1  0  0  0  0
 16 33  2  0  0  0  0
 16 34  1  0  0  0  0
 17 19  2  0  0  0  0
 17 39  1  0  0  0  0
 18 20  2  0  0  0  0
 18 40  1  0  0  0  0
 19 49  1  0  0  0  0
 20 41  1  0  0  0  0
 21 22  2  0  0  0  0
 21 23  1  0  0  0  0
 21 50  1  0  0  0  0
 22 24  1  0  0  0  0
 22 51  1  0  0  0  0
 23 25  2  0  0  0  0
 23 54  1  0  0  0  0
 24 26  2  0  0  0  0
 24 55  1  0  0  0  0
 25 26  1  0  0  0  0
 25 56  1  0  0  0  0
 26 57  1  0  0  0  0
 27 86  1  0  0  0  0
 28 87  1  0  0  0  0
 29 31  2  0  0  0  0
 29 86  1  0  0  0  0
 30 88  1  0  0  0  0
 31 89  1  0  0  0  0
 32 70  2  0  0  0  0
 33 71  1  0  0  0  0
 33 74  1  0  0  0  0
 34 75  1  0  0  0  0
 34 81  2  0  0  0  0
 35 52  1  0  0  0  0
 35 76  1  0  0  0  0
 35 82  2  0  0  0  0
 36 67  1  0  0  0  0
 36 72  1  0  0  0  0
 36 83  2  0  0  0  0
 37 68  1  0  0  0  0
 37 77  1  0  0  0  0
 37 84  2  0  0  0  0
 38 73  1  0  0  0  0
 38 78  1  0  0  0  0
 38 85  2  0  0  0  0
 39 42  1  0  0  0  0
 40 52  1  0  0  0  0
 41 72  1  0  0  0  0
 42 44  1  0  0  0  0
 43 45  1  0  0  0  0
 43 46  1  0  0  0  0
 44 49  1  0  0  0  0
 45 53  1  0  0  0  0
 46 73  1  0  0  0  0
 47 53  1  0  0  0  0
 47 73  1  0  0  0  0
 48 50  1  0  0  0  0
 48 79  1  0  0  0  0
 49 76  1  0  0  0  0
 50 78  1  0  0  0  0
 51 58  1  0  0  0  0
 51 79  1  0  0  0  0
 52 72  1  0  0  0  0
 53 71  1  0  0  0  0
 59 68  1  0  0  0  0
 60 69  1  0  0  0  0
 61 69  1  0  0  0  0
 62 69  1  0  0  0  0
 63 80  1  0  0  0  0
 64 65  1  0  0  0  0
 64 66  1  0  0  0  0
 65 79  1  0  0  0  0
 66 87  1  0  0  0  0
 67 69  1  0  0  0  0
 67 77  1  0  0  0  0
 68 80  1  0  0  0  0
 70 71  1  0  0  0  0
M  CHG  2  79   1  80   1
M  ISO  4  38 100  66 101  78 100  87 101
M  END
> <Batch ID>
0161

> <Smiles>
CNC(C)C(=O)NC(C(=O)N1Cc2cc([101O:1][101CH2:1]CCN3CC([100NH:0][100C:0](=O)N4CCCC(n5nc(-c6ccc(Oc7ccc(F)cc7F)cc6)c(C(N)=O)c5N)C4)c4c(C)c(C)c(C)c(C)c4C3C)ccc2CC1C(=O)NC1CCCc2ccccc21)C(C)(C)C

> <Shape>
0.312

> <Color>
0.075

> <Negative vol penalty>
0.000

$$$$

  -OEChem-04052322123D

 93102  0     1  0  0  0  0  0999 V2000
  -27.7463  -33.7270   25.9827 C   0  0  0  0  0  0  0  0  0  0  0  0
  -27.9596  -32.5163   25.3315 C   0  0  0  0  0  0  0  0  0  0  0  0
  -23.8527  -14.4653   22.3013 C   0  0  0  0  0  0  0  0  0  0  0  0
  -25.0196  -15.2401   20.3328 C   0  0  0  0  0  0  0  0  0  0  0  0
  -26.4545  -34.1016   26.3499 C   0  0  0  0  0  0  0  0  0  0  0  0
  -26.8812  -31.6788   25.0483 C   0  0  0  0  0  0  0  0  0  0  0  0
  -27.0516  -29.8164   20.3422 C   0  0  0  0  0  0  0  0  0  0  0  0
  -29.7054  -19.1532   17.5325 C   0  0  0  0  0  0  0  0  0  0  0  0
  -24.3115  -13.1697   22.0633 C   0  0  0  0  0  0  0  0  0  0  0  0
  -25.4784  -13.9445   20.0948 C   0  0  0  0  0  0  0  0  0  0  0  0
  -27.9267  -28.7566   20.1081 C   0  0  0  0  0  0  0  0  0  0  0  0
  -29.3749  -18.6299   18.7818 C   0  0  0  0  0  0  0  0  0  0  0  0
  -23.5274  -10.5840   20.0327 C   0  0  0  0  0  0  0  0  0  0  0  0
  -22.6091   -9.5405   20.1490 C   0  0  0  0  0  0  0  0  0  0  0  0
  -26.0826  -27.2087   20.2575 C   0  0  0  0  0  0  0  0  0  0  0  0
  -23.9598   -8.5457   21.8877 C   0  0  0  0  0  0  0  0  0  0  0  0
  -24.2068  -15.5005   21.4360 C   0  0  0  0  0  0  0  0  0  0  0  0
  -23.9703  -17.6295   22.8213 C   0  0  0  0  0  0  0  0  0  0  0  0
  -25.3586  -33.2728   26.0624 C   0  0  0  0  0  0  0  0  0  0  0  0
  -25.6848  -29.5789   20.5468 C   0  0  0  0  0  0  0  0  0  0  0  0
  -29.0720  -20.3086   17.0475 C   0  0  0  0  0  0  0  0  0  0  0  0
  -25.5737  -32.0421   25.4133 C   0  0  0  0  0  0  0  0  0  0  0  0
  -25.1918  -28.2674   20.4914 C   0  0  0  0  0  0  0  0  0  0  0  0
  -28.1061  -20.9519   17.8440 C   0  0  0  0  0  0  0  0  0  0  0  0
  -27.7817  -20.4117   19.0998 C   0  0  0  0  0  0  0  0  0  0  0  0
  -25.1243  -12.9094   20.9601 C   0  0  0  0  0  0  0  0  0  0  0  0
  -27.4428  -27.4523   20.0686 C   0  0  0  0  0  0  0  0  0  0  0  0
  -28.4128  -19.2588   19.5652 C   0  0  0  0  0  0  0  0  0  0  0  0
  -24.6620  -10.6083   20.8438 C   0  0  0  0  0  0  0  0  0  0  0  0
  -22.8253   -8.5214   21.0766 C   0  0  0  0  0  0  0  0  0  0  0  0
  -24.8782   -9.5891   21.7713 C   0  0  0  0  0  0  0  0  0  0  0  0
  -23.7327  -16.8389   21.6810 C   0  0  0  0  0  0  0  0  0  0  0  0
  -23.3095  -18.8064   22.5669 C   0  0  0  0  0  0  0  0  0  0  0  0
  -24.7213  -17.3271   24.0046 C   0  0  0  0  0  0  0  0  0  0  0  0
  -23.6568  -30.0715   22.9444 C   0  0  0  0  0  0  0  0  0  0  0  0
  -21.4616  -29.0613   20.7804 C   0  0  0  0  0  0  0  0  0  0  0  0
  -20.7924  -27.2772   17.9492 C   0  0  0  0  0  0  0  0  0  0  0  0
  -21.6834  -21.5576   17.5035 C   0  0  0  0  0  0  0  0  0  0  0  0
  -23.9864  -33.6985   26.5212 C   0  0  0  0  0  0  0  0  0  0  0  0
  -29.5014  -20.8598   15.7107 C   0  0  0  0  0  0  0  0  0  0  0  0
  -24.7496  -30.7353   20.7716 C   0  0  0  0  0  0  0  0  0  0  0  0
  -23.7299  -27.9608   20.6847 C   0  0  0  0  0  0  0  0  0  0  0  0
  -22.8532  -32.9266   25.8503 C   0  0  0  0  0  0  0  0  0  0  0  0
  -28.5514  -21.9143   15.1403 C   0  0  0  0  0  0  0  0  0  0  0  0
  -19.5523  -20.5489   20.1714 C   0  0  0  0  0  0  0  0  0  0  0  0
  -23.1498  -31.4303   25.8562 C   0  0  0  0  0  0  0  0  0  0  0  0
  -20.4035  -19.5550   20.9637 C   0  0  0  0  0  0  0  0  0  0  0  0
  -19.8064  -20.4380   18.6697 C   0  0  0  0  0  0  0  0  0  0  0  0
  -22.0733  -19.5549   19.0636 C   0  0  0  0  0  0  0  0  0  0  0  0
  -24.4266  -31.1179   25.0665 C   0  0  1  0  0  0  0  0  0  0  0  0
  -27.3733  -22.1864   17.3633 C   0  0  1  0  0  0  0  0  0  0  0  0
  -23.4590  -30.3315   21.4778 C   0  0  1  0  0  0  0  0  0  0  0  0
  -21.8930  -19.6675   20.5872 C   0  0  2  0  0  0  0  0  0  0  0  0
  -28.0860  -22.9136   16.2052 C   0  0  1  0  0  0  0  0  0  0  0  0
  -26.7567  -21.0596   19.9805 C   0  0  0  0  0  0  0  0  0  0  0  0
  -18.8989  -26.6047   16.4460 C   0  0  0  0  0  0  0  0  0  0  0  0
  -23.6697  -22.0887   14.9741 C   0  0  0  0  0  0  0  0  0  0  0  0
  -20.5537  -27.0080   22.8468 C   0  0  0  0  0  0  0  0  0  0  0  0
  -19.3707  -25.7856   21.0098 C   0  0  0  0  0  0  0  0  0  0  0  0
  -18.6962  -28.1158   21.5910 C   0  0  0  0  0  0  0  0  0  0  0  0
  -30.1449  -24.0176   15.6302 C   0  0  0  0  0  0  0  0  0  0  0  0
  -22.0032  -28.6434   15.6197 C   0  0  0  0  0  0  0  0  0  0  0  0
  -28.8012  -17.5519   21.1749 C   0  0  0  0  0  0  0  0  0  0  0  0
  -29.8798  -25.4126   18.3194 C   0  0  0  0  0  0  0  0  0  0  0  0
  -28.7785  -24.8780   17.4095 C   0  0  0  0  0  0  0  0  0  0  0  0
  -25.0501  -22.9852   16.9251 C   0  0  0  0  0  0  0  0  0  0  0  0
  -29.4430  -26.6838   19.0369 C   0  0  0  0  0  0  0  0  0  1  0  0
  -20.8848  -27.7225   20.3879 C   0  0  1  0  0  0  0  0  0  0  0  0
  -19.9968  -27.6249   16.7040 C   0  0  2  0  0  0  0  0  0  0  0  0
  -23.6660  -22.5820   16.4178 C   0  0  2  0  0  0  0  0  0  0  0  0
  -19.9043  -27.1632   21.4571 C   0  0  0  0  0  0  0  0  0  0  0  0
  -22.9796  -17.4610   20.7700 N   0  0  0  0  0  0  0  0  0  0  0  0
  -22.7382  -18.6550   21.3378 N   0  0  0  0  0  0  0  0  0  0  0  0
  -22.8564  -29.1248   20.9077 N   0  0  0  0  0  0  0  0  0  0  0  0
  -21.2376  -20.5543   18.3798 N   0  0  0  0  0  0  0  0  0  0  0  0
  -23.1670  -19.9456   23.2771 N   0  0  0  0  0  0  0  0  0  0  0  0
  -26.0867  -17.6425   24.0282 N   0  0  0  0  0  0  0  0  0  0  0  0
  -24.1618  -31.1508   23.6441 N   0  0  0  0  0  0  0  0  0  0  0  0
  -20.2894  -27.9055   19.0687 N   0  0  0  0  0  0  0  0  0  0  0  0
  -23.0554  -21.6022   17.2884 N   0  0  0  0  0  0  0  0  0  0  0  0
  -29.2305  -23.6748   16.7209 N   0  0  1  0  0  0  0  0  0  0  0  0
  -25.9848  -21.8383   16.9074 N   0  3  0  0  0  0  0  0  0  0  0  0
  -20.8909  -27.6646   15.5123 N   0  3  0  0  0  0  0  0  0  0  0  0
  -24.2007  -16.7782   25.0052 O   0  0  0  0  0  0  0  0  0  0  0  0
  -23.3709  -28.9734   23.4073 O   0  0  0  0  0  0  0  0  0  0  0  0
  -20.7031  -30.0173   20.9603 O   0  0  0  0  0  0  0  0  0  0  0  0
  -21.7609  -26.5207   17.9312 O   0  0  0  0  0  0  0  0  0  0  0  0
  -20.9161  -22.3578   16.9578 O   0  0  0  0  0  0  0  0  0  0  0  0
  -25.5723  -11.6453   20.7277 O   0  0  0  0  0  0  0  0  0  0  0  0
  -28.1040  -18.7327   20.7838 O   0  0  0  0  0  0  0  0  0  0  0  0
  -28.2949  -26.4160   19.8410 O   0  0  0  0  0  0  0  0  0  1  0  0
  -21.9426   -7.5202   21.1892 F   0  0  0  0  0  0  0  0  0  0  0  0
  -25.9657   -9.6077   22.5542 F   0  0  0  0  0  0  0  0  0  0  0  0
  1  2  1  0  0  0  0
  1  5  2  0  0  0  0
  2  6  2  0  0  0  0
  3  9  2  0  0  0  0
  3 17  1  0  0  0  0
  4 10  1  0  0  0  0
  4 17  2  0  0  0  0
  5 19  1  0  0  0  0
  6 22  1  0  0  0  0
  7 11  2  0  0  0  0
  7 20  1  0  0  0  0
  8 12  2  0  0  0  0
  8 21  1  0  0  0  0
  9 26  1  0  0  0  0
 10 26  2  0  0  0  0
 11 27  1  0  0  0  0
 12 28  1  0  0  0  0
 13 14  2  0  0  0  0
 13 29  1  0  0  0  0
 14 30  1  0  0  0  0
 15 23  1  0  0  0  0
 15 27  2  0  0  0  0
 16 30  2  0  0  0  0
 16 31  1  0  0  0  0
 17 32  1  0  0  0  0
 18 32  1  0  0  0  0
 18 33  2  0  0  0  0
 18 34  1  0  0  0  0
 19 22  2  0  0  0  0
 19 39  1  0  0  0  0
 20 23  2  0  0  0  0
 20 41  1  0  0  0  0
 21 24  2  0  0  0  0
 21 40  1  0  0  0  0
 22 50  1  0  0  0  0
 23 42  1  0  0  0  0
 24 25  1  0  0  0  0
 24 51  1  0  0  0  0
 25 28  2  0  0  0  0
 25 55  1  0  0  0  0
 26 89  1  0  0  0  0
 27 91  1  0  0  0  0
 28 90  1  0  0  0  0
 29 31  2  0  0  0  0
 29 89  1  0  0  0  0
 30 92  1  0  0  0  0
 31 93  1  0  0  0  0
 32 72  2  0  0  0  0
 33 73  1  0  0  0  0
 33 76  1  0  0  0  0
 34 77  1  0  0  0  0
 34 84  2  0  0  0  0
 35 52  1  0  0  0  0
 35 78  1  0  0  0  0
 35 85  2  0  0  0  0
 36 68  1  0  0  0  0
 36 74  1  0  0  0  0
 36 86  2  0  0  0  0
 37 69  1  0  0  0  0
 37 79  1  0  0  0  0
 37 87  2  0  0  0  0
 38 75  1  0  0  0  0
 38 80  1  0  0  0  0
 38 88  2  0  0  0  0
 39 43  1  0  0  0  0
 40 44  1  0  0  0  0
 41 52  1  0  0  0  0
 42 74  1  0  0  0  0
 43 46  1  0  0  0  0
 44 54  1  0  0  0  0
 45 47  1  0  0  0  0
 45 48  1  0  0  0  0
 46 50  1  0  0  0  0
 47 53  1  0  0  0  0
 48 75  1  0  0  0  0
 49 53  1  0  0  0  0
 49 75  1  0  0  0  0
 50 78  1  0  0  0  0
 51 54  1  0  0  0  0
 51 82  1  0  0  0  0
 52 74  1  0  0  0  0
 53 73  1  0  0  0  0
 54 81  1  0  0  0  0
 56 69  1  0  0  0  0
 57 70  1  0  0  0  0
 58 71  1  0  0  0  0
 59 71  1  0  0  0  0
 60 71  1  0  0  0  0
 61 81  1  0  0  0  0
 62 83  1  0  0  0  0
 63 90  1  0  0  0  0
 64 65  1  0  0  0  0
 64 67  1  0  0  0  0
 65 81  1  0  0  0  0
 66 70  1  0  0  0  0
 66 82  1  0  0  0  0
 67 91  1  0  0  0  0
 68 71  1  0  0  0  0
 68 79  1  0  0  0  0
 69 83  1  0  0  0  0
 70 80  1  0  0  0  0
 72 73  1  0  0  0  0
M  CHG  2  82   1  83   1
M  ISO  4  38 100  67 101  80 100  91 101
M  END
> <Batch ID>
0161

> <Smiles>
CNC(C)C(=O)NC(C(=O)N1Cc2cc([101O:1][101CH2:1]CCN(C)C3CCc4ccc(OC)c(C)c4C3NCC(C)[100NH:0][100C:0](=O)N3CCCC(n4nc(-c5ccc(Oc6ccc(F)cc6F)cc5)c(C(N)=O)c4N)C3)ccc2CC1C(=O)NC1CCCc2ccccc21)C(C)(C)C

> <Shape>
0.269

> <Color>
0.082

> <Negative vol penalty>
0.000

$$$$

  -OEChem-04052322123D

 89 98  0     1  0  0  0  0  0999 V2000
  -25.2317  -38.6947   19.3278 C   0  0  0  0  0  0  0  0  0  0  0  0
  -25.5991  -37.5582   18.6145 C   0  0  0  0  0  0  0  0  0  0  0  0
  -25.2530   -7.9518   22.4054 C   0  0  0  0  0  0  0  0  0  0  0  0
  -26.9630   -6.2813   22.0553 C   0  0  0  0  0  0  0  0  0  0  0  0
  -25.3038  -38.6959   20.7202 C   0  0  0  0  0  0  0  0  0  0  0  0
  -26.0399  -36.4226   19.2931 C   0  0  0  0  0  0  0  0  0  0  0  0
  -25.9684  -29.2733   18.8477 C   0  0  0  0  0  0  0  0  0  0  0  0
  -24.2688   -6.9729   22.2692 C   0  0  0  0  0  0  0  0  0  0  0  0
  -25.9787   -5.3023   21.9191 C   0  0  0  0  0  0  0  0  0  0  0  0
  -26.8370  -28.1833   18.8821 C   0  0  0  0  0  0  0  0  0  0  0  0
  -22.9048   -4.5306   24.1687 C   0  0  0  0  0  0  0  0  0  0  0  0
  -21.8603   -4.5286   25.0931 C   0  0  0  0  0  0  0  0  0  0  0  0
  -26.8454  -28.2737   21.2927 C   0  0  0  0  0  0  0  0  0  0  0  0
  -29.2296  -19.9292   20.0017 C   0  0  0  0  0  0  0  0  0  0  0  0
  -20.2728   -4.8482   23.3001 C   0  0  0  0  0  0  0  0  0  0  0  0
  -26.6001   -7.6060   22.2984 C   0  0  0  0  0  0  0  0  0  0  0  0
  -27.8847  -21.9333   20.1095 C   0  0  0  0  0  0  0  0  0  0  0  0
  -28.2560   -9.0214   23.6260 C   0  0  0  0  0  0  0  0  0  0  0  0
  -25.7366  -37.5565   21.4167 C   0  0  0  0  0  0  0  0  0  0  0  0
  -25.5397  -29.8796   20.0372 C   0  0  0  0  0  0  0  0  0  0  0  0
  -26.1192  -36.4091   20.6960 C   0  0  0  0  0  0  0  0  0  0  0  0
  -25.9693  -29.3697   21.2707 C   0  0  0  0  0  0  0  0  0  0  0  0
  -28.5058  -19.3863   21.0633 C   0  0  0  0  0  0  0  0  0  0  0  0
  -27.1609  -21.3905   21.1711 C   0  0  0  0  0  0  0  0  0  0  0  0
  -27.4714  -20.1169   21.6480 C   0  0  0  0  0  0  0  0  0  0  0  0
  -24.6316   -5.6482   22.0261 C   0  0  0  0  0  0  0  0  0  0  0  0
  -27.2779  -27.6851   20.1046 C   0  0  0  0  0  0  0  0  0  0  0  0
  -22.6334   -4.6916   22.8100 C   0  0  0  0  0  0  0  0  0  0  0  0
  -28.9191  -21.2027   19.5249 C   0  0  0  0  0  0  0  0  0  0  0  0
  -20.5443   -4.6873   24.6588 C   0  0  0  0  0  0  0  0  0  0  0  0
  -21.3174   -4.8503   22.3757 C   0  0  0  0  0  0  0  0  0  0  0  0
  -27.6173   -8.6169   22.4385 C   0  0  0  0  0  0  0  0  0  0  0  0
  -29.1326  -10.0009   23.2279 C   0  0  0  0  0  0  0  0  0  0  0  0
  -27.5677  -23.2660   19.6048 C   0  0  0  0  0  0  0  0  0  0  0  0
  -28.4059  -24.3235   19.5949 C   0  0  0  0  0  0  0  0  0  0  0  0
  -28.0732   -8.5535   24.9689 C   0  0  0  0  0  0  0  0  0  0  0  0
  -25.8346  -32.7768   21.3111 C   0  0  0  0  0  0  0  0  0  0  0  0
  -23.8313  -31.5671   23.5574 C   0  0  0  0  0  0  0  0  0  0  0  0
  -22.5830  -28.8172   25.1470 C   0  0  0  0  0  0  0  0  0  0  0  0
  -30.4627  -14.4383   20.3018 C   0  0  0  0  0  0  0  0  0  0  0  0
  -25.8429  -37.6214   22.9198 C   0  0  0  0  0  0  0  0  0  0  0  0
  -24.5815  -31.0378   19.9838 C   0  0  0  0  0  0  0  0  0  0  0  0
  -25.5224  -29.9720   22.5768 C   0  0  0  0  0  0  0  0  0  0  0  0
  -25.9641  -36.2510   23.5815 C   0  0  0  0  0  0  0  0  0  0  0  0
  -30.6210  -11.4247   18.6161 C   0  0  0  0  0  0  0  0  0  0  0  0
  -26.9955  -35.3956   22.8526 C   0  0  0  0  0  0  0  0  0  0  0  0
  -29.9086  -10.4475   19.5510 C   0  0  0  0  0  0  0  0  0  0  0  0
  -28.0317  -16.9042   20.8737 C   0  0  0  0  0  0  0  0  0  0  0  0
  -30.3696  -17.7066   21.4210 C   0  0  0  0  0  0  0  0  0  0  0  0
  -29.8937  -12.7635   18.5691 C   0  0  0  0  0  0  0  0  0  0  0  0
  -28.4219  -15.5052   21.3590 C   0  0  0  0  0  0  0  0  0  0  0  0
  -30.6956  -16.3006   21.9162 C   0  0  0  0  0  0  0  0  0  0  0  0
  -29.0070  -12.4369   20.8550 C   0  0  0  0  0  0  0  0  0  0  0  0
  -28.8650  -17.9996   21.5630 C   0  0  0  0  0  0  0  0  0  0  0  0
  -26.5789  -35.1494   21.3975 C   0  0  1  0  0  0  0  0  0  0  0  0
  -24.6161  -31.9004   21.2417 C   0  0  1  0  0  0  0  0  0  0  0  0
  -29.7058  -11.0650   20.9459 C   0  0  1  0  0  0  0  0  0  0  0  0
  -26.0472  -22.1646   21.8071 C   0  0  0  0  0  0  0  0  0  0  0  0
  -26.6983  -19.5311   22.7871 C   0  0  0  0  0  0  0  0  0  0  0  0
  -20.9880  -28.1474   26.9649 C   0  0  0  0  0  0  0  0  0  0  0  0
  -25.8673  -32.4321   25.6590 C   0  0  0  0  0  0  0  0  0  0  0  0
  -24.7121  -30.9301   27.2954 C   0  0  0  0  0  0  0  0  0  0  0  0
  -23.4819  -32.8497   26.2833 C   0  0  0  0  0  0  0  0  0  0  0  0
  -20.9016  -27.2739   23.2628 C   0  0  0  0  0  0  0  0  0  0  0  0
  -29.1632  -21.4359   17.1707 C   0  0  0  0  0  0  0  0  0  0  0  0
  -28.0305  -25.6757   19.0790 C   0  0  0  0  0  0  0  0  0  1  0  0
  -24.0090  -30.8270   24.8611 C   0  0  1  0  0  0  0  0  0  0  0  0
  -21.1600  -28.4031   25.4757 C   0  0  2  0  0  0  0  0  0  0  0  0
  -24.5277  -31.7494   26.0002 C   0  0  0  0  0  0  0  0  0  0  0  0
  -28.0512   -9.2849   21.3663 N   0  0  0  0  0  0  0  0  0  0  0  0
  -28.9717  -10.1192   21.8787 N   0  0  0  0  0  0  0  0  0  0  0  0
  -24.5903  -31.1068   22.4720 N   0  0  0  0  0  0  0  0  0  0  0  0
  -29.7176  -13.3150   19.9124 N   0  0  0  0  0  0  0  0  0  0  0  0
  -29.8720  -15.2997   21.2386 N   0  0  0  0  0  0  0  0  0  0  0  0
  -30.0176  -10.7641   23.9038 N   0  0  0  0  0  0  0  0  0  0  0  0
  -27.1315   -7.5419   25.2016 N   0  0  0  0  0  0  0  0  0  0  0  0
  -25.5541  -34.1297   21.3308 N   0  0  0  0  0  0  0  0  0  0  0  0
  -22.7285  -30.1884   25.1457 N   0  0  0  0  0  0  0  0  0  0  0  0
  -20.7999  -27.1579   24.7403 N   0  3  0  0  0  0  0  0  0  0  0  0
  -28.7139   -9.0302   25.9363 O   0  0  0  0  0  0  0  0  0  0  0  0
  -26.9468  -32.2636   21.3459 O   0  0  0  0  0  0  0  0  0  0  0  0
  -23.0427  -32.5140   23.5021 O   0  0  0  0  0  0  0  0  0  0  0  0
  -23.4769  -28.0054   24.9181 O   0  0  0  0  0  0  0  0  0  0  0  0
  -31.5896  -14.6588   19.8407 O   0  0  0  0  0  0  0  0  0  0  0  0
  -23.6714   -4.6926   21.8934 O   0  0  0  0  0  0  0  0  0  0  0  0
  -29.6439  -21.7065   18.4852 O   0  0  0  0  0  0  0  0  0  0  0  0
  -28.1325  -26.6138   20.1413 O   0  0  0  0  0  0  0  0  0  1  0  0
  -19.5412   -4.6838   25.5465 F   0  0  0  0  0  0  0  0  0  0  0  0
  -21.0503   -5.0042   21.0715 F   0  0  0  0  0  0  0  0  0  0  0  0
  1  2  1  0  0  0  0
  1  5  2  0  0  0  0
  2  6  2  0  0  0  0
  3  8  2  0  0  0  0
  3 16  1  0  0  0  0
  4  9  1  0  0  0  0
  4 16  2  0  0  0  0
  5 19  1  0  0  0  0
  6 21  1  0  0  0  0
  7 10  2  0  0  0  0
  7 20  1  0  0  0  0
  8 26  1  0  0  0  0
  9 26  2  0  0  0  0
 10 27  1  0  0  0  0
 11 12  2  0  0  0  0
 11 28  1  0  0  0  0
 12 30  1  0  0  0  0
 13 22  1  0  0  0  0
 13 27  2  0  0  0  0
 14 23  1  0  0  0  0
 14 29  2  0  0  0  0
 15 30  2  0  0  0  0
 15 31  1  0  0  0  0
 16 32  1  0  0  0  0
 17 24  2  0  0  0  0
 17 29  1  0  0  0  0
 17 34  1  0  0  0  0
 18 32  1  0  0  0  0
 18 33  2  0  0  0  0
 18 36  1  0  0  0  0
 19 21  2  0  0  0  0
 19 41  1  0  0  0  0
 20 22  2  0  0  0  0
 20 42  1  0  0  0  0
 21 55  1  0  0  0  0
 22 43  1  0  0  0  0
 23 25  2  0  0  0  0
 23 54  1  0  0  0  0
 24 25  1  0  0  0  0
 24 58  1  0  0  0  0
 25 59  1  0  0  0  0
 26 85  1  0  0  0  0
 27 87  1  0  0  0  0
 28 31  2  0  0  0  0
 28 85  1  0  0  0  0
 29 86  1  0  0  0  0
 30 88  1  0  0  0  0
 31 89  1  0  0  0  0
 32 70  2  0  0  0  0
 33 71  1  0  0  0  0
 33 75  1  0  0  0  0
 34 35  2  0  0  0  0
 35 66  1  0  0  0  0
 36 76  1  0  0  0  0
 36 80  2  0  0  0  0
 37 56  1  0  0  0  0
 37 77  1  0  0  0  0
 37 81  2  0  0  0  0
 38 67  1  0  0  0  0
 38 72  1  0  0  0  0
 38 82  2  0  0  0  0
 39 68  1  0  0  0  0
 39 78  1  0  0  0  0
 39 83  2  0  0  0  0
 40 73  1  0  0  0  0
 40 74  1  0  0  0  0
 40 84  2  0  0  0  0
 41 44  1  0  0  0  0
 42 56  1  0  0  0  0
 43 72  1  0  0  0  0
 44 46  1  0  0  0  0
 45 47  1  0  0  0  0
 45 50  1  0  0  0  0
 46 55  1  0  0  0  0
 47 57  1  0  0  0  0
 48 51  1  0  0  0  0
 48 54  1  0  0  0  0
 49 52  1  0  0  0  0
 49 54  1  0  0  0  0
 50 73  1  0  0  0  0
 51 74  1  0  0  0  0
 52 74  1  0  0  0  0
 53 57  1  0  0  0  0
 53 73  1  0  0  0  0
 55 77  1  0  0  0  0
 56 72  1  0  0  0  0
 57 71  1  0  0  0  0
 60 68  1  0  0  0  0
 61 69  1  0  0  0  0
 62 69  1  0  0  0  0
 63 69  1  0  0  0  0
 64 79  1  0  0  0  0
 65 86  1  0  0  0  0
 66 87  1  0  0  0  0
 67 69  1  0  0  0  0
 67 78  1  0  0  0  0
 68 79  1  0  0  0  0
 70 71  1  0  0  0  0
M  CHG  1  79   1
M  ISO  4  40 100  66 101  74 100  87 101
M  END
> <Batch ID>
0161

> <Smiles>
CNC(C)C(=O)NC(C(=O)N1Cc2cc([101O:1][101CH2:1]C=Cc3c(OC)cc(C4CC[100N:0]([100C:0](=O)N5CCCC(n6nc(-c7ccc(Oc8ccc(F)cc8F)cc7)c(C(N)=O)c6N)C5)CC4)c(C)c3C)ccc2CC1C(=O)NC1CCCc2ccccc21)C(C)(C)C

> <Shape>
0.263

> <Color>
0.099

> <Negative vol penalty>
0.000

$$$$

  -OEChem-04052322123D

 90 99  0     1  0  0  0  0  0999 V2000
  -28.8173  -34.5494   26.2218 C   0  0  0  0  0  0  0  0  0  0  0  0
  -29.0896  -33.5060   25.3429 C   0  0  0  0  0  0  0  0  0  0  0  0
  -23.7228  -10.1954   22.2484 C   0  0  0  0  0  0  0  0  0  0  0  0
  -23.8675   -8.8854   20.2236 C   0  0  0  0  0  0  0  0  0  0  0  0
  -27.5817  -34.6136   26.8646 C   0  0  0  0  0  0  0  0  0  0  0  0
  -28.1267  -32.5254   25.1071 C   0  0  0  0  0  0  0  0  0  0  0  0
  -27.0843  -29.5809   19.8393 C   0  0  0  0  0  0  0  0  0  0  0  0
  -22.3331  -10.0791   22.2244 C   0  0  0  0  0  0  0  0  0  0  0  0
  -22.4777   -8.7690   20.1996 C   0  0  0  0  0  0  0  0  0  0  0  0
  -27.4794  -28.3287   19.3706 C   0  0  0  0  0  0  0  0  0  0  0  0
  -18.9899   -7.8222   19.8034 C   0  0  0  0  0  0  0  0  0  0  0  0
  -18.4481   -6.5651   19.5355 C   0  0  0  0  0  0  0  0  0  0  0  0
  -25.3745  -27.3997   20.0958 C   0  0  0  0  0  0  0  0  0  0  0  0
  -28.7526  -21.6380   19.9515 C   0  0  0  0  0  0  0  0  0  0  0  0
  -19.5623   -5.6698   21.4833 C   0  0  0  0  0  0  0  0  0  0  0  0
  -24.4901   -9.5986   21.2480 C   0  0  0  0  0  0  0  0  0  0  0  0
  -26.8411   -8.8518   21.8980 C   0  0  0  0  0  0  0  0  0  0  0  0
  -26.5996  -33.6386   26.6291 C   0  0  0  0  0  0  0  0  0  0  0  0
  -25.8336  -29.7499   20.4507 C   0  0  0  0  0  0  0  0  0  0  0  0
  -26.8772  -32.5758   25.7483 C   0  0  0  0  0  0  0  0  0  0  0  0
  -24.9649  -28.6556   20.5691 C   0  0  0  0  0  0  0  0  0  0  0  0
  -28.2798  -19.8053   21.4529 C   0  0  0  0  0  0  0  0  0  0  0  0
  -28.8532  -20.2851   20.2753 C   0  0  0  0  0  0  0  0  0  0  0  0
  -27.6059  -20.6786   22.3067 C   0  0  0  0  0  0  0  0  0  0  0  0
  -27.5054  -22.0316   21.9829 C   0  0  0  0  0  0  0  0  0  0  0  0
  -21.7105   -9.3659   21.2000 C   0  0  0  0  0  0  0  0  0  0  0  0
  -26.6257  -27.2373   19.5014 C   0  0  0  0  0  0  0  0  0  0  0  0
  -19.8179   -8.0031   20.9113 C   0  0  0  0  0  0  0  0  0  0  0  0
  -28.0788  -22.5114   20.8053 C   0  0  0  0  0  0  0  0  0  0  0  0
  -18.7343   -5.4889   20.3754 C   0  0  0  0  0  0  0  0  0  0  0  0
  -20.1041   -6.9269   21.7513 C   0  0  0  0  0  0  0  0  0  0  0  0
  -25.9257   -9.7189   21.2719 C   0  0  0  0  0  0  0  0  0  0  0  0
  -28.0716   -9.4001   21.6302 C   0  0  0  0  0  0  0  0  0  0  0  0
  -26.6006   -7.6576   22.6540 C   0  0  0  0  0  0  0  0  0  0  0  0
  -24.8509  -30.6409   23.3393 C   0  0  0  0  0  0  0  0  0  0  0  0
  -21.9200  -30.5088   21.9558 C   0  0  0  0  0  0  0  0  0  0  0  0
  -19.9353  -29.2343   19.4893 C   0  0  0  0  0  0  0  0  0  0  0  0
  -29.9980  -14.8143   20.4381 C   0  0  0  0  0  0  0  0  0  0  0  0
  -25.2963  -33.7241   27.3832 C   0  0  0  0  0  0  0  0  0  0  0  0
  -25.4114  -31.1127   20.9270 C   0  0  0  0  0  0  0  0  0  0  0  0
  -23.6035  -28.7885   21.1995 C   0  0  0  0  0  0  0  0  0  0  0  0
  -24.1923  -32.8511   26.7923 C   0  0  0  0  0  0  0  0  0  0  0  0
  -30.3749  -12.0529   18.3934 C   0  0  0  0  0  0  0  0  0  0  0  0
  -24.7227  -31.4539   26.4865 C   0  0  0  0  0  0  0  0  0  0  0  0
  -29.3701  -11.0463   18.9533 C   0  0  0  0  0  0  0  0  0  0  0  0
  -27.6912  -17.4394   20.7617 C   0  0  0  0  0  0  0  0  0  0  0  0
  -29.8529  -17.8946   21.9984 C   0  0  0  0  0  0  0  0  0  0  0  0
  -29.7870  -13.4591   18.3766 C   0  0  0  0  0  0  0  0  0  0  0  0
  -27.8344  -15.9535   21.1029 C   0  0  0  0  0  0  0  0  0  0  0  0
  -29.9313  -16.4075   22.3317 C   0  0  0  0  0  0  0  0  0  0  0  0
  -28.3043  -12.9332   20.2853 C   0  0  0  0  0  0  0  0  0  0  0  0
  -28.3903  -18.3330   21.8019 C   0  0  0  0  0  0  0  0  0  0  0  0
  -25.8493  -31.5067   25.4475 C   0  0  1  0  0  0  0  0  0  0  0  0
  -24.3246  -31.0617   21.9964 C   0  0  1  0  0  0  0  0  0  0  0  0
  -28.8507  -11.4918   20.3318 C   0  0  1  0  0  0  0  0  0  0  0  0
  -29.5812  -19.3717   19.3442 C   0  0  0  0  0  0  0  0  0  0  0  0
  -26.9905  -20.1646   23.5699 C   0  0  0  0  0  0  0  0  0  0  0  0
  -25.5582  -23.6146   22.2197 C   0  0  0  0  0  0  0  0  0  0  0  0
  -27.7095  -24.0693   23.4526 C   0  0  0  0  0  0  0  0  0  0  0  0
  -17.5748  -29.2810   18.6389 C   0  0  0  0  0  0  0  0  0  0  0  0
  -21.0651  -28.6688   24.2348 C   0  0  0  0  0  0  0  0  0  0  0  0
  -19.0797  -28.0053   22.8614 C   0  0  0  0  0  0  0  0  0  0  0  0
  -19.3612  -30.3779   23.5787 C   0  0  0  0  0  0  0  0  0  0  0  0
  -20.7745  -30.3505   16.8799 C   0  0  0  0  0  0  0  0  0  0  0  0
  -28.4058  -25.7228   19.0616 C   0  0  0  0  0  0  0  0  0  1  0  0
  -28.6060  -24.2315   19.2500 C   0  0  0  0  0  0  0  0  0  0  0  0
  -26.7844  -22.9741   22.8935 C   0  0  0  0  0  0  0  0  0  0  0  0
  -20.8686  -29.4400   21.7786 C   0  0  1  0  0  0  0  0  0  0  0  0
  -18.9597  -29.9008   18.5361 C   0  0  2  0  0  0  0  0  0  0  0  0
  -20.1200  -29.1198   23.1032 C   0  0  0  0  0  0  0  0  0  0  0  0
  -26.5236  -10.7404   20.6531 N   0  0  0  0  0  0  0  0  0  0  0  0
  -27.8279  -10.5188   20.8891 N   0  0  0  0  0  0  0  0  0  0  0  0
  -23.2389  -30.1401   21.6554 N   0  0  0  0  0  0  0  0  0  0  0  0
  -29.3021  -13.8435   19.7021 N   0  0  0  0  0  0  0  0  0  0  0  0
  -29.2453  -15.6043   21.3200 N   0  0  0  0  0  0  0  0  0  0  0  0
  -29.3275   -9.0296   21.9588 N   0  0  0  0  0  0  0  0  0  0  0  0
  -25.2762   -7.2356   22.8333 N   0  0  0  0  0  0  0  0  0  0  0  0
  -25.3038  -31.6878   24.1193 N   0  0  0  0  0  0  0  0  0  0  0  0
  -20.0015  -29.8956   20.6974 N   0  0  0  0  0  0  0  0  0  0  0  0
  -19.4333  -29.7627   17.1299 N   0  3  0  0  0  0  0  0  0  0  0  0
  -27.5316   -6.9936   23.1696 O   0  0  0  0  0  0  0  0  0  0  0  0
  -24.8452  -29.4544   23.6458 O   0  0  0  0  0  0  0  0  0  0  0  0
  -21.5824  -31.6315   22.3394 O   0  0  0  0  0  0  0  0  0  0  0  0
  -20.5719  -28.2255   19.1932 O   0  0  0  0  0  0  0  0  0  0  0  0
  -31.2199  -14.9663   20.3158 O   0  0  0  0  0  0  0  0  0  0  0  0
  -20.3544   -9.2519   21.1764 O   0  0  0  0  0  0  0  0  0  0  0  0
  -27.0117  -26.0055   19.0422 O   0  0  0  0  0  0  0  0  0  1  0  0
  -27.9908  -23.8296   20.4722 O   0  0  0  0  0  0  0  0  0  0  0  0
  -18.2127   -4.2821   20.1189 F   0  0  0  0  0  0  0  0  0  0  0  0
  -20.8979   -7.0948   22.8178 F   0  0  0  0  0  0  0  0  0  0  0  0
  1  2  1  0  0  0  0
  1  5  2  0  0  0  0
  2  6  2  0  0  0  0
  3  8  2  0  0  0  0
  3 16  1  0  0  0  0
  4  9  1  0  0  0  0
  4 16  2  0  0  0  0
  5 18  1  0  0  0  0
  6 20  1  0  0  0  0
  7 10  2  0  0  0  0
  7 19  1  0  0  0  0
  8 26  1  0  0  0  0
  9 26  2  0  0  0  0
 10 27  1  0  0  0  0
 11 12  2  0  0  0  0
 11 28  1  0  0  0  0
 12 30  1  0  0  0  0
 13 21  1  0  0  0  0
 13 27  2  0  0  0  0
 14 23  2  0  0  0  0
 14 29  1  0  0  0  0
 15 30  2  0  0  0  0
 15 31  1  0  0  0  0
 16 32  1  0  0  0  0
 17 32  1  0  0  0  0
 17 33  2  0  0  0  0
 17 34  1  0  0  0  0
 18 20  2  0  0  0  0
 18 39  1  0  0  0  0
 19 21  2  0  0  0  0
 19 40  1  0  0  0  0
 20 53  1  0  0  0  0
 21 41  1  0  0  0  0
 22 23  1  0  0  0  0
 22 24  2  0  0  0  0
 22 52  1  0  0  0  0
 23 56  1  0  0  0  0
 24 25  1  0  0  0  0
 24 57  1  0  0  0  0
 25 29  2  0  0  0  0
 25 67  1  0  0  0  0
 26 86  1  0  0  0  0
 27 87  1  0  0  0  0
 28 31  2  0  0  0  0
 28 86  1  0  0  0  0
 29 88  1  0  0  0  0
 30 89  1  0  0  0  0
 31 90  1  0  0  0  0
 32 71  2  0  0  0  0
 33 72  1  0  0  0  0
 33 76  1  0  0  0  0
 34 77  1  0  0  0  0
 34 81  2  0  0  0  0
 35 54  1  0  0  0  0
 35 78  1  0  0  0  0
 35 82  2  0  0  0  0
 36 68  1  0  0  0  0
 36 73  1  0  0  0  0
 36 83  2  0  0  0  0
 37 69  1  0  0  0  0
 37 79  1  0  0  0  0
 37 84  2  0  0  0  0
 38 74  1  0  0  0  0
 38 75  1  0  0  0  0
 38 85  2  0  0  0  0
 39 42  1  0  0  0  0
 40 54  1  0  0  0  0
 41 73  1  0  0  0  0
 42 44  1  0  0  0  0
 43 45  1  0  0  0  0
 43 48  1  0  0  0  0
 44 53  1  0  0  0  0
 45 55  1  0  0  0  0
 46 49  1  0  0  0  0
 46 52  1  0  0  0  0
 47 50  1  0  0  0  0
 47 52  1  0  0  0  0
 48 74  1  0  0  0  0
 49 75  1  0  0  0  0
 50 75  1  0  0  0  0
 51 55  1  0  0  0  0
 51 74  1  0  0  0  0
 53 78  1  0  0  0  0
 54 73  1  0  0  0  0
 55 72  1  0  0  0  0
 58 67  1  0  0  0  0
 59 67  1  0  0  0  0
 60 69  1  0  0  0  0
 61 70  1  0  0  0  0
 62 70  1  0  0  0  0
 63 70  1  0  0  0  0
 64 80  1  0  0  0  0
 65 66  1  0  0  0  0
 65 87  1  0  0  0  0
 66 88  1  0  0  0  0
 68 70  1  0  0  0  0
 68 79  1  0  0  0  0
 69 80  1  0  0  0  0
 71 72  1  0  0  0  0
M  CHG  1  80   1
M  ISO  4  38 100  65 101  75 100  87 101
M  END
> <Batch ID>
0161

> <Smiles>
CNC(C)C(=O)NC(C(=O)N1Cc2cc([101O:1][101CH2:1]COc3cc(C)c(C4CC[100N:0]([100C:0](=O)N5CCCC(n6nc(-c7ccc(Oc8ccc(F)cc8F)cc7)c(C(N)=O)c6N)C5)CC4)c(C)c3C(C)C)ccc2CC1C(=O)NC1CCCc2ccccc21)C(C)(C)C

> <Shape>
0.306

> <Color>
0.089

> <Negative vol penalty>
0.000

$$$$

  -OEChem-04052322123D

 88 97  0     1  0  0  0  0  0999 V2000
  -24.0554  -33.6178   24.7376 C   0  0  0  0  0  0  0  0  0  0  0  0
  -24.3061  -32.3527   25.2593 C   0  0  0  0  0  0  0  0  0  0  0  0
  -23.0144   -9.8908   19.9684 C   0  0  0  0  0  0  0  0  0  0  0  0
  -23.6705   -9.9554   22.2927 C   0  0  0  0  0  0  0  0  0  0  0  0
  -24.6192  -33.9922   23.5187 C   0  0  0  0  0  0  0  0  0  0  0  0
  -25.1200  -31.4609   24.5618 C   0  0  0  0  0  0  0  0  0  0  0  0
  -28.9744  -27.3485   26.9573 C   0  0  0  0  0  0  0  0  0  0  0  0
  -22.2306   -8.7649   20.2209 C   0  0  0  0  0  0  0  0  0  0  0  0
  -22.8867   -8.8296   22.5453 C   0  0  0  0  0  0  0  0  0  0  0  0
  -28.8563  -25.9800   27.1959 C   0  0  0  0  0  0  0  0  0  0  0  0
  -23.1167   -5.4848   22.1086 C   0  0  0  0  0  0  0  0  0  0  0  0
  -23.6727   -4.4693   22.8864 C   0  0  0  0  0  0  0  0  0  0  0  0
  -29.9614  -25.5254   25.1004 C   0  0  0  0  0  0  0  0  0  0  0  0
  -29.0102  -18.7865   26.6217 C   0  0  0  0  0  0  0  0  0  0  0  0
  -28.5026  -20.7170   25.2608 C   0  0  0  0  0  0  0  0  0  0  0  0
  -21.9014   -4.7407   24.5069 C   0  0  0  0  0  0  0  0  0  0  0  0
  -23.7344  -10.4860   21.0043 C   0  0  0  0  0  0  0  0  0  0  0  0
  -24.1462  -12.9967   20.8191 C   0  0  0  0  0  0  0  0  0  0  0  0
  -25.4482  -33.1080   22.8105 C   0  0  0  0  0  0  0  0  0  0  0  0
  -29.5781  -27.8165   25.7813 C   0  0  0  0  0  0  0  0  0  0  0  0
  -25.6944  -31.8233   23.3315 C   0  0  0  0  0  0  0  0  0  0  0  0
  -30.0882  -26.9004   24.8504 C   0  0  0  0  0  0  0  0  0  0  0  0
  -28.2530  -19.3923   25.6191 C   0  0  0  0  0  0  0  0  0  0  0  0
  -30.0169  -19.5054   27.2661 C   0  0  0  0  0  0  0  0  0  0  0  0
  -29.5093  -21.4360   25.9052 C   0  0  0  0  0  0  0  0  0  0  0  0
  -30.2665  -20.8302   26.9078 C   0  0  0  0  0  0  0  0  0  0  0  0
  -22.1667   -8.2344   21.5093 C   0  0  0  0  0  0  0  0  0  0  0  0
  -29.3473  -25.0682   26.2661 C   0  0  0  0  0  0  0  0  0  0  0  0
  -21.9531   -6.1284   22.5299 C   0  0  0  0  0  0  0  0  0  0  0  0
  -23.0651   -4.0972   24.0855 C   0  0  0  0  0  0  0  0  0  0  0  0
  -21.3454   -5.7563   23.7291 C   0  0  0  0  0  0  0  0  0  0  0  0
  -24.5447  -11.6486   20.7439 C   0  0  0  0  0  0  0  0  0  0  0  0
  -25.2725  -13.7070   20.4823 C   0  0  0  0  0  0  0  0  0  0  0  0
  -22.8719  -13.5568   21.1628 C   0  0  0  0  0  0  0  0  0  0  0  0
  -28.6119  -29.5561   23.3026 C   0  0  0  0  0  0  0  0  0  0  0  0
  -31.7414  -29.3915   22.4650 C   0  0  0  0  0  0  0  0  0  0  0  0
  -34.7172  -27.7358   22.6887 C   0  0  0  0  0  0  0  0  0  0  0  0
  -30.6556  -14.6759   20.7164 C   0  0  0  0  0  0  0  0  0  0  0  0
  -25.9969  -33.5404   21.4739 C   0  0  0  0  0  0  0  0  0  0  0  0
  -29.7217  -29.2960   25.5513 C   0  0  0  0  0  0  0  0  0  0  0  0
  -30.7632  -27.3515   23.5818 C   0  0  0  0  0  0  0  0  0  0  0  0
  -27.1510  -32.6722   20.9794 C   0  0  0  0  0  0  0  0  0  0  0  0
  -29.6747  -12.1891   18.5238 C   0  0  0  0  0  0  0  0  0  0  0  0
  -26.8141  -31.1934   21.1417 C   0  0  0  0  0  0  0  0  0  0  0  0
  -28.2165  -11.9276   18.9007 C   0  0  0  0  0  0  0  0  0  0  0  0
  -29.0547  -17.8990   21.5969 C   0  0  0  0  0  0  0  0  0  0  0  0
  -28.4665  -16.1881   23.3506 C   0  0  0  0  0  0  0  0  0  0  0  0
  -30.5321  -12.3915   19.7679 C   0  0  0  0  0  0  0  0  0  0  0  0
  -30.2723  -17.0619   21.2152 C   0  0  0  0  0  0  0  0  0  0  0  0
  -29.6973  -15.3866   22.9399 C   0  0  0  0  0  0  0  0  0  0  0  0
  -28.5928  -13.2400   21.0465 C   0  0  0  0  0  0  0  0  0  0  0  0
  -26.5920  -30.8368   22.6166 C   0  0  1  0  0  0  0  0  0  0  0  0
  -29.8941  -29.6579   24.0794 C   0  0  1  0  0  0  0  0  0  0  0  0
  -28.6546  -17.6836   23.0622 C   0  0  0  0  0  0  0  0  0  0  0  0
  -27.6770  -13.0352   19.8230 C   0  0  2  0  0  0  0  0  0  0  0  0
  -30.8142  -18.8331   28.3358 C   0  0  0  0  0  0  0  0  0  0  0  0
  -31.3463  -21.6007   27.5986 C   0  0  0  0  0  0  0  0  0  0  0  0
  -25.7868  -19.2454   25.1867 C   0  0  0  0  0  0  0  0  0  0  0  0
  -37.0855  -27.8206   21.8634 C   0  0  0  0  0  0  0  0  0  0  0  0
  -30.8300  -28.3406   19.7493 C   0  0  0  0  0  0  0  0  0  0  0  0
  -33.1746  -27.5629   19.3415 C   0  0  0  0  0  0  0  0  0  0  0  0
  -32.7048  -29.9929   19.6529 C   0  0  0  0  0  0  0  0  0  0  0  0
  -35.7869  -28.0076   25.4348 C   0  0  0  0  0  0  0  0  0  0  0  0
  -29.7568  -22.8533   25.5029 C   0  0  0  0  0  0  0  0  0  1  0  0
  -27.3878  -18.4657   23.4009 C   0  0  0  0  0  0  0  0  0  0  0  0
  -27.1562  -18.6095   24.9178 C   0  0  1  0  0  0  0  0  0  0  0  0
  -32.5800  -28.4411   21.6450 C   0  0  1  0  0  0  0  0  0  0  0  0
  -36.1253  -28.2284   22.9699 C   0  0  2  0  0  0  0  0  0  0  0  0
  -32.3080  -28.5755   20.1201 C   0  0  0  0  0  0  0  0  0  0  0  0
  -25.8242  -11.5083   20.3872 N   0  0  0  0  0  0  0  0  0  0  0  0
  -26.2394  -12.7774   20.2351 N   0  0  0  0  0  0  0  0  0  0  0  0
  -30.8738  -28.8082   23.3994 N   0  0  0  0  0  0  0  0  0  0  0  0
  -29.9845  -13.4476   20.6192 N   0  0  0  0  0  0  0  0  0  0  0  0
  -30.0768  -15.6510   21.5456 N   0  0  0  0  0  0  0  0  0  0  0  0
  -25.5202  -15.0298   20.3764 N   0  0  0  0  0  0  0  0  0  0  0  0
  -21.8228  -12.6842   21.4824 N   0  0  0  0  0  0  0  0  0  0  0  0
  -27.8599  -30.7154   23.3036 N   0  0  0  0  0  0  0  0  0  0  0  0
  -33.9663  -28.6852   22.0284 N   0  0  0  0  0  0  0  0  0  0  0  0
  -36.6240  -27.6649   24.2563 N   0  3  0  0  0  0  0  0  0  0  0  0
  -22.6651  -14.7941   21.1698 O   0  0  0  0  0  0  0  0  0  0  0  0
  -28.3266  -28.5041   22.7426 O   0  0  0  0  0  0  0  0  0  0  0  0
  -31.8571  -30.6068   22.2883 O   0  0  0  0  0  0  0  0  0  0  0  0
  -34.3239  -26.6190   23.0183 O   0  0  0  0  0  0  0  0  0  0  0  0
  -31.7051  -14.8926   20.0980 O   0  0  0  0  0  0  0  0  0  0  0  0
  -21.4018   -7.1359   21.7562 O   0  0  0  0  0  0  0  0  0  0  0  0
  -29.2319  -23.7223   26.4978 O   0  0  0  0  0  0  0  0  0  1  0  0
  -23.5983   -3.1209   24.8316 F   0  0  0  0  0  0  0  0  0  0  0  0
  -20.2267   -6.3701   24.1385 F   0  0  0  0  0  0  0  0  0  0  0  0
  1  2  1  0  0  0  0
  1  5  2  0  0  0  0
  2  6  2  0  0  0  0
  3  8  2  0  0  0  0
  3 17  1  0  0  0  0
  4  9  1  0  0  0  0
  4 17  2  0  0  0  0
  5 19  1  0  0  0  0
  6 21  1  0  0  0  0
  7 10  2  0  0  0  0
  7 20  1  0  0  0  0
  8 27  1  0  0  0  0
  9 27  2  0  0  0  0
 10 28  1  0  0  0  0
 11 12  2  0  0  0  0
 11 29  1  0  0  0  0
 12 30  1  0  0  0  0
 13 22  1  0  0  0  0
 13 28  2  0  0  0  0
 14 23  1  0  0  0  0
 14 24  2  0  0  0  0
 15 23  2  0  0  0  0
 15 25  1  0  0  0  0
 16 30  2  0  0  0  0
 16 31  1  0  0  0  0
 17 32  1  0  0  0  0
 18 32  1  0  0  0  0
 18 33  2  0  0  0  0
 18 34  1  0  0  0  0
 19 21  2  0  0  0  0
 19 39  1  0  0  0  0
 20 22  2  0  0  0  0
 20 40  1  0  0  0  0
 21 52  1  0  0  0  0
 22 41  1  0  0  0  0
 23 66  1  0  0  0  0
 24 26  1  0  0  0  0
 24 56  1  0  0  0  0
 25 26  2  0  0  0  0
 25 64  1  0  0  0  0
 26 57  1  0  0  0  0
 27 85  1  0  0  0  0
 28 86  1  0  0  0  0
 29 31  2  0  0  0  0
 29 85  1  0  0  0  0
 30 87  1  0  0  0  0
 31 88  1  0  0  0  0
 32 70  2  0  0  0  0
 33 71  1  0  0  0  0
 33 75  1  0  0  0  0
 34 76  1  0  0  0  0
 34 80  2  0  0  0  0
 35 53  1  0  0  0  0
 35 77  1  0  0  0  0
 35 81  2  0  0  0  0
 36 67  1  0  0  0  0
 36 72  1  0  0  0  0
 36 82  2  0  0  0  0
 37 68  1  0  0  0  0
 37 78  1  0  0  0  0
 37 83  2  0  0  0  0
 38 73  1  0  0  0  0
 38 74  1  0  0  0  0
 38 84  2  0  0  0  0
 39 42  1  0  0  0  0
 40 53  1  0  0  0  0
 41 72  1  0  0  0  0
 42 44  1  0  0  0  0
 43 45  1  0  0  0  0
 43 48  1  0  0  0  0
 44 52  1  0  0  0  0
 45 55  1  0  0  0  0
 46 49  1  0  0  0  0
 46 54  1  0  0  0  0
 47 50  1  0  0  0  0
 47 54  1  0  0  0  0
 48 73  1  0  0  0  0
 49 74  1  0  0  0  0
 50 74  1  0  0  0  0
 51 55  1  0  0  0  0
 51 73  1  0  0  0  0
 52 77  1  0  0  0  0
 53 72  1  0  0  0  0
 54 65  1  0  0  0  0
 55 71  1  0  0  0  0
 58 66  1  0  0  0  0
 59 68  1  0  0  0  0
 60 69  1  0  0  0  0
 61 69  1  0  0  0  0
 62 69  1  0  0  0  0
 63 79  1  0  0  0  0
 64 86  1  0  0  0  0
 65 66  1  0  0  0  0
 67 69  1  0  0  0  0
 67 78  1  0  0  0  0
 68 79  1  0  0  0  0
 70 71  1  0  0  0  0
M  CHG  1  79   1
M  ISO  4  38 100  64 101  74 100  86 101
M  END
> <Batch ID>
0161

> <Smiles>
CNC(C)C(=O)NC(C(=O)N1Cc2cc([101O:1][101CH2:1]c3cc(C(C)CC4CC[100N:0]([100C:0](=O)N5CCCC(n6nc(-c7ccc(Oc8ccc(F)cc8F)cc7)c(C(N)=O)c6N)C5)CC4)cc(C)c3C)ccc2CC1C(=O)NC1CCCc2ccccc21)C(C)(C)C

> <Shape>
0.240

> <Color>
0.203

> <Negative vol penalty>
0.000

$$$$

  -OEChem-04052322123D

 86 95  0     1  0  0  0  0  0999 V2000
  -15.7482  -27.2730   25.1145 C   0  0  0  0  0  0  0  0  0  0  0  0
  -16.9671  -26.6027   25.0911 C   0  0  0  0  0  0  0  0  0  0  0  0
  -23.4900   -9.8619   22.1702 C   0  0  0  0  0  0  0  0  0  0  0  0
  -23.4765   -9.3561   19.8078 C   0  0  0  0  0  0  0  0  0  0  0  0
  -15.6252  -28.5155   24.4940 C   0  0  0  0  0  0  0  0  0  0  0  0
  -18.0634  -27.1742   24.4462 C   0  0  0  0  0  0  0  0  0  0  0  0
  -22.3182  -26.8260   27.1704 C   0  0  0  0  0  0  0  0  0  0  0  0
  -22.6582   -8.7681   22.4092 C   0  0  0  0  0  0  0  0  0  0  0  0
  -22.6447   -8.2622   20.0468 C   0  0  0  0  0  0  0  0  0  0  0  0
  -22.9720  -25.5947   27.1754 C   0  0  0  0  0  0  0  0  0  0  0  0
  -22.9701   -5.4112   22.6680 C   0  0  0  0  0  0  0  0  0  0  0  0
  -23.2907   -4.5744   23.7369 C   0  0  0  0  0  0  0  0  0  0  0  0
  -24.5310  -26.4226   25.5312 C   0  0  0  0  0  0  0  0  0  0  0  0
  -21.1535   -5.0564   24.7552 C   0  0  0  0  0  0  0  0  0  0  0  0
  -23.8991  -10.1560   20.8695 C   0  0  0  0  0  0  0  0  0  0  0  0
  -26.1655  -11.2981   20.6112 C   0  0  0  0  0  0  0  0  0  0  0  0
  -16.7232  -29.1068   23.8495 C   0  0  0  0  0  0  0  0  0  0  0  0
  -22.7599  -27.8631   26.3363 C   0  0  0  0  0  0  0  0  0  0  0  0
  -17.9547  -28.4251   23.8154 C   0  0  0  0  0  0  0  0  0  0  0  0
  -23.8826  -27.6670   25.5194 C   0  0  0  0  0  0  0  0  0  0  0  0
  -22.2356   -7.9682   21.3475 C   0  0  0  0  0  0  0  0  0  0  0  0
  -24.0769  -25.3919   26.3536 C   0  0  0  0  0  0  0  0  0  0  0  0
  -21.7413   -6.0707   22.6427 C   0  0  0  0  0  0  0  0  0  0  0  0
  -22.3824   -4.3969   24.7805 C   0  0  0  0  0  0  0  0  0  0  0  0
  -20.8329   -5.8932   23.6863 C   0  0  0  0  0  0  0  0  0  0  0  0
  -24.7579  -11.2862   20.6220 C   0  0  0  0  0  0  0  0  0  0  0  0
  -26.4958  -12.6011   20.3294 C   0  0  0  0  0  0  0  0  0  0  0  0
  -27.0918  -10.2269   20.8357 C   0  0  0  0  0  0  0  0  0  0  0  0
  -21.4884  -29.4991   23.9258 C   0  0  0  0  0  0  0  0  0  0  0  0
  -27.5244  -18.9642   24.0354 C   0  0  0  0  0  0  0  0  0  0  0  0
  -24.2205  -31.2304   24.1716 C   0  0  0  0  0  0  0  0  0  0  0  0
  -27.4834  -31.3690   25.1622 C   0  0  0  0  0  0  0  0  0  0  0  0
  -25.7240  -18.0739   21.2476 C   0  0  0  0  0  0  0  0  0  0  0  0
  -16.5293  -30.4299   23.1520 C   0  0  0  0  0  0  0  0  0  0  0  0
  -22.0600  -29.1942   26.3623 C   0  0  0  0  0  0  0  0  0  0  0  0
  -24.4090  -28.7548   24.6205 C   0  0  0  0  0  0  0  0  0  0  0  0
  -17.8388  -31.1374   22.8130 C   0  0  0  0  0  0  0  0  0  0  0  0
  -23.6344  -16.4725   18.7807 C   0  0  0  0  0  0  0  0  0  0  0  0
  -18.8247  -30.1609   22.1796 C   0  0  0  0  0  0  0  0  0  0  0  0
  -23.8378  -14.9814   19.0550 C   0  0  0  0  0  0  0  0  0  0  0  0
  -28.9277  -17.7125   22.1775 C   0  0  0  0  0  0  0  0  0  0  0  0
  -23.6991  -17.3029   20.0617 C   0  0  0  0  0  0  0  0  0  0  0  0
  -27.8364  -16.6755   21.9015 C   0  0  0  0  0  0  0  0  0  0  0  0
  -25.0994  -15.5984   21.1503 C   0  0  0  0  0  0  0  0  0  0  0  0
  -19.1735  -29.0236   23.1473 C   0  0  1  0  0  0  0  0  0  0  0  0
  -22.2831  -30.0115   25.0936 C   0  0  1  0  0  0  0  0  0  0  0  0
  -27.8245  -18.7113   22.5556 C   0  0  1  0  0  0  0  0  0  0  0  0
  -25.1113  -21.3458   25.6063 C   0  0  2  0  0  0  0  0  0  0  0  0
  -25.1153  -14.7357   19.8797 C   0  0  1  0  0  0  0  0  0  0  0  0
  -26.4102  -20.5411   25.5886 C   0  0  2  0  0  0  0  0  0  0  0  0
  -25.1102  -21.9057   27.0315 C   0  0  2  0  0  0  0  0  0  0  0  0
  -27.4262  -21.4560   26.2809 C   0  0  1  0  0  0  0  0  0  0  0  0
  -23.8780  -20.5057   25.2991 C   0  0  0  0  0  0  0  0  0  0  0  0
  -28.1555  -22.4450   25.3757 C   0  0  0  0  0  0  0  0  0  0  0  0
  -29.4681  -32.9043   25.1968 C   0  0  0  0  0  0  0  0  0  0  0  0
  -24.6616  -30.7233   21.1953 C   0  0  0  0  0  0  0  0  0  0  0  0
  -27.0443  -31.4294   21.4993 C   0  0  0  0  0  0  0  0  0  0  0  0
  -25.1990  -33.0467   21.9486 C   0  0  0  0  0  0  0  0  0  0  0  0
  -27.0073  -22.0875   28.7006 C   0  0  0  0  0  0  0  0  0  0  0  0
  -27.6138  -31.3227   28.1186 C   0  0  0  0  0  0  0  0  0  0  0  0
  -24.2438  -23.1425   27.2086 C   0  0  0  0  0  0  0  0  0  1  0  0
  -25.5996  -31.1434   23.5638 C   0  0  1  0  0  0  0  0  0  0  0  0
  -28.2505  -32.4075   25.9606 C   0  0  2  0  0  0  0  0  0  0  0  0
  -25.6153  -31.5644   22.0672 C   0  0  0  0  0  0  0  0  0  0  0  0
  -24.2302  -12.4866   20.3675 N   0  0  0  0  0  0  0  0  0  0  0  0
  -25.3120  -13.2648   20.1942 N   0  0  0  0  0  0  0  0  0  0  0  0
  -23.6866  -30.0364   24.6769 N   0  0  0  0  0  0  0  0  0  0  0  0
  -24.9281  -17.0144   20.8055 N   0  0  0  0  0  0  0  0  0  0  0  0
  -26.8919  -17.7797   21.9136 N   0  0  0  0  0  0  0  0  0  0  0  0
  -27.6805  -13.2325   20.1868 N   0  0  0  0  0  0  0  0  0  0  0  0
  -26.5830   -8.9507   21.1126 N   0  0  0  0  0  0  0  0  0  0  0  0
  -20.1234  -29.4781   24.1401 N   0  0  0  0  0  0  0  0  0  0  0  0
  -26.8003  -20.1168   24.2737 N   0  0  0  0  0  0  0  0  0  0  0  0
  -26.4732  -31.9407   24.4180 N   0  0  0  0  0  0  0  0  0  0  0  0
  -26.5755  -22.2619   27.2747 N   0  3  2  0  0  0  0  0  0  0  0  0
  -28.7110  -31.8296   27.2548 N   0  3  0  0  0  0  0  0  0  0  0  0
  -28.3339  -10.3999   20.8082 O   0  0  0  0  0  0  0  0  0  0  0  0
  -22.0704  -29.1502   22.9055 O   0  0  0  0  0  0  0  0  0  0  0  0
  -27.9232  -18.1682   24.8775 O   0  0  0  0  0  0  0  0  0  0  0  0
  -23.6413  -32.3190   24.2036 O   0  0  0  0  0  0  0  0  0  0  0  0
  -27.7557  -30.1708   25.1927 O   0  0  0  0  0  0  0  0  0  0  0  0
  -25.4188  -19.2538   21.0278 O   0  0  0  0  0  0  0  0  0  0  0  0
  -21.4242   -6.9005   21.5804 O   0  0  0  0  0  0  0  0  0  0  0  0
  -24.7301  -24.1653   26.3561 O   0  0  0  0  0  0  0  0  0  1  0  0
  -22.6897   -3.5921   25.8061 F   0  0  0  0  0  0  0  0  0  0  0  0
  -19.6503   -6.5232   23.6669 F   0  0  0  0  0  0  0  0  0  0  0  0
  1  2  1  0  0  0  0
  1  5  2  0  0  0  0
  2  6  2  0  0  0  0
  3  8  2  0  0  0  0
  3 15  1  0  0  0  0
  4  9  1  0  0  0  0
  4 15  2  0  0  0  0
  5 17  1  0  0  0  0
  6 19  1  0  0  0  0
  7 10  2  0  0  0  0
  7 18  1  0  0  0  0
  8 21  1  0  0  0  0
  9 21  2  0  0  0  0
 10 22  1  0  0  0  0
 11 12  2  0  0  0  0
 11 23  1  0  0  0  0
 12 24  1  0  0  0  0
 13 20  1  0  0  0  0
 13 22  2  0  0  0  0
 14 24  2  0  0  0  0
 14 25  1  0  0  0  0
 15 26  1  0  0  0  0
 16 26  1  0  0  0  0
 16 27  2  0  0  0  0
 16 28  1  0  0  0  0
 17 19  2  0  0  0  0
 17 34  1  0  0  0  0
 18 20  2  0  0  0  0
 18 35  1  0  0  0  0
 19 45  1  0  0  0  0
 20 36  1  0  0  0  0
 21 83  1  0  0  0  0
 22 84  1  0  0  0  0
 23 25  2  0  0  0  0
 23 83  1  0  0  0  0
 24 85  1  0  0  0  0
 25 86  1  0  0  0  0
 26 65  2  0  0  0  0
 27 66  1  0  0  0  0
 27 70  1  0  0  0  0
 28 71  1  0  0  0  0
 28 77  2  0  0  0  0
 29 46  1  0  0  0  0
 29 72  1  0  0  0  0
 29 78  2  0  0  0  0
 30 47  1  0  0  0  0
 30 73  1  0  0  0  0
 30 79  2  0  0  0  0
 31 62  1  0  0  0  0
 31 67  1  0  0  0  0
 31 80  2  0  0  0  0
 32 63  1  0  0  0  0
 32 74  1  0  0  0  0
 32 81  2  0  0  0  0
 33 68  1  0  0  0  0
 33 69  1  0  0  0  0
 33 82  2  0  0  0  0
 34 37  1  0  0  0  0
 35 46  1  0  0  0  0
 36 67  1  0  0  0  0
 37 39  1  0  0  0  0
 38 40  1  0  0  0  0
 38 42  1  0  0  0  0
 39 45  1  0  0  0  0
 40 49  1  0  0  0  0
 41 43  1  0  0  0  0
 41 47  1  0  0  0  0
 42 68  1  0  0  0  0
 43 69  1  0  0  0  0
 44 49  1  0  0  0  0
 44 68  1  0  0  0  0
 45 72  1  0  0  0  0
 46 67  1  0  0  0  0
 47 69  1  0  0  0  0
 48 50  1  0  0  0  0
 48 51  1  0  0  0  0
 48 53  1  0  0  0  0
 49 66  1  0  0  0  0
 50 52  1  0  0  0  0
 50 73  1  0  0  0  0
 51 61  1  0  0  0  0
 51 75  1  0  0  0  0
 52 54  1  0  0  0  0
 52 75  1  0  0  0  0
 55 63  1  0  0  0  0
 56 64  1  0  0  0  0
 57 64  1  0  0  0  0
 58 64  1  0  0  0  0
 59 75  1  0  0  0  0
 60 76  1  0  0  0  0
 61 84  1  0  0  0  0
 62 64  1  0  0  0  0
 62 74  1  0  0  0  0
 63 76  1  0  0  0  0
 65 66  1  0  0  0  0
M  CHG  2  75   1  76   1
M  ISO  4  33 100  61 101  69 100  84 101
M  END
> <Batch ID>
0161

> <Smiles>
CNC(C)C(=O)NC(C(=O)N1Cc2cc([101O:1][101CH2:1]C3C(C)C(NC(=O)C4CC[100N:0]4[100C:0](=O)N4CCCC(n5nc(-c6ccc(Oc7ccc(F)cc7F)cc6)c(C(N)=O)c5N)C4)C(C)N3C)ccc2CC1C(=O)NC1CCCc2ccccc21)C(C)(C)C

> <Shape>
0.233

> <Color>
0.100

> <Negative vol penalty>
0.000

$$$$

  -OEChem-04052322123D

 88 97  0     1  0  0  0  0  0999 V2000
  -27.0135  -38.2842   20.8781 C   0  0  0  0  0  0  0  0  0  0  0  0
  -27.5530  -37.1701   20.2432 C   0  0  0  0  0  0  0  0  0  0  0  0
  -26.9024  -11.9501   17.7240 C   0  0  0  0  0  0  0  0  0  0  0  0
  -28.2839  -11.4492   19.6417 C   0  0  0  0  0  0  0  0  0  0  0  0
  -26.3253  -38.1343   22.0813 C   0  0  0  0  0  0  0  0  0  0  0  0
  -27.4055  -35.9054   20.8119 C   0  0  0  0  0  0  0  0  0  0  0  0
  -26.6420  -29.0196   18.9900 C   0  0  0  0  0  0  0  0  0  0  0  0
  -27.9601  -11.6217   16.8762 C   0  0  0  0  0  0  0  0  0  0  0  0
  -29.3417  -11.1207   18.7938 C   0  0  0  0  0  0  0  0  0  0  0  0
  -27.2030  -27.7692   19.2459 C   0  0  0  0  0  0  0  0  0  0  0  0
  -30.4119  -11.2595   14.2151 C   0  0  0  0  0  0  0  0  0  0  0  0
  -30.6782  -12.1153   13.1464 C   0  0  0  0  0  0  0  0  0  0  0  0
  -25.9260  -27.6207   21.2871 C   0  0  0  0  0  0  0  0  0  0  0  0
  -31.0729  -13.9268   14.6955 C   0  0  0  0  0  0  0  0  0  0  0  0
  -27.0642  -11.8639   19.1068 C   0  0  0  0  0  0  0  0  0  0  0  0
  -24.9762  -11.3387   20.4750 C   0  0  0  0  0  0  0  0  0  0  0  0
  -26.1609  -36.8660   22.6601 C   0  0  0  0  0  0  0  0  0  0  0  0
  -25.7254  -29.5857   19.8877 C   0  0  0  0  0  0  0  0  0  0  0  0
  -26.7155  -35.7386   22.0247 C   0  0  0  0  0  0  0  0  0  0  0  0
  -25.3528  -28.8773   21.0390 C   0  0  0  0  0  0  0  0  0  0  0  0
  -28.0214  -21.5895   21.2867 C   0  0  0  0  0  0  0  0  0  0  0  0
  -27.3429  -22.8028   21.1720 C   0  0  0  0  0  0  0  0  0  0  0  0
  -28.7617  -23.7577   22.8786 C   0  0  0  0  0  0  0  0  0  0  0  0
  -27.7130  -23.8869   21.9679 C   0  0  0  0  0  0  0  0  0  0  0  0
  -29.4402  -22.5443   22.9933 C   0  0  0  0  0  0  0  0  0  0  0  0
  -29.1798  -11.2069   17.4111 C   0  0  0  0  0  0  0  0  0  0  0  0
  -26.8472  -27.0708   20.3960 C   0  0  0  0  0  0  0  0  0  0  0  0
  -30.4760  -11.7373   15.5240 C   0  0  0  0  0  0  0  0  0  0  0  0
  -29.0701  -21.4603   22.1974 C   0  0  0  0  0  0  0  0  0  0  0  0
  -31.0087  -13.4490   13.3866 C   0  0  0  0  0  0  0  0  0  0  0  0
  -30.8065  -13.0709   15.7642 C   0  0  0  0  0  0  0  0  0  0  0  0
  -25.9721  -12.2036   19.9832 C   0  0  0  0  0  0  0  0  0  0  0  0
  -24.1816  -12.1400   21.2578 C   0  0  0  0  0  0  0  0  0  0  0  0
  -24.7864   -9.9363   20.2448 C   0  0  0  0  0  0  0  0  0  0  0  0
  -25.6685  -32.2121   21.6773 C   0  0  0  0  0  0  0  0  0  0  0  0
  -22.6329  -31.2526   22.2993 C   0  0  0  0  0  0  0  0  0  0  0  0
  -20.3759  -28.6974   22.4516 C   0  0  0  0  0  0  0  0  0  0  0  0
  -26.4732  -16.9852   20.1106 C   0  0  0  0  0  0  0  0  0  0  0  0
  -25.4499  -36.7596   23.9859 C   0  0  0  0  0  0  0  0  0  0  0  0
  -25.1090  -30.9237   19.5838 C   0  0  0  0  0  0  0  0  0  0  0  0
  -24.3579  -29.4321   22.0243 C   0  0  0  0  0  0  0  0  0  0  0  0
  -25.0143  -35.3379   24.3312 C   0  0  0  0  0  0  0  0  0  0  0  0
  -26.1596  -15.3283   23.3937 C   0  0  0  0  0  0  0  0  0  0  0  0
  -26.1523  -34.3544   24.0771 C   0  0  0  0  0  0  0  0  0  0  0  0
  -24.7454  -14.7679   23.3206 C   0  0  0  0  0  0  0  0  0  0  0  0
  -28.7409  -19.8660   19.5316 C   0  0  0  0  0  0  0  0  0  0  0  0
  -26.2976  -16.6412   22.6278 C   0  0  0  0  0  0  0  0  0  0  0  0
  -27.1996  -19.1663   21.2102 C   0  0  0  0  0  0  0  0  0  0  0  0
  -24.4571  -15.9542   21.0951 C   0  0  0  0  0  0  0  0  0  0  0  0
  -27.6260  -20.4135   20.4297 C   0  0  1  0  0  0  0  0  0  0  0  0
  -26.5551  -34.3471   22.5975 C   0  0  1  0  0  0  0  0  0  0  0  0
  -24.5754  -31.6316   20.8253 C   0  0  1  0  0  0  0  0  0  0  0  0
  -24.2305  -14.6500   21.8790 C   0  0  1  0  0  0  0  0  0  0  0  0
  -28.2144  -18.4816   19.1350 C   0  0  1  0  0  0  0  0  0  0  0  0
  -26.2169  -22.9404   20.1962 C   0  0  0  0  0  0  0  0  0  0  0  0
  -29.1591  -24.9197   23.7329 C   0  0  0  0  0  0  0  0  0  0  0  0
  -30.5653  -22.3991   23.9684 C   0  0  0  0  0  0  0  0  0  0  0  0
  -29.3464  -17.4923   18.8892 C   0  0  0  0  0  0  0  0  0  0  0  0
  -17.9819  -28.2155   23.0295 C   0  0  0  0  0  0  0  0  0  0  0  0
  -23.3129  -31.4471   25.2674 C   0  0  0  0  0  0  0  0  0  0  0  0
  -21.2729  -30.0793   25.7530 C   0  0  0  0  0  0  0  0  0  0  0  0
  -21.0457  -32.3090   24.6579 C   0  0  0  0  0  0  0  0  0  0  0  0
  -19.7849  -27.7460   19.7122 C   0  0  0  0  0  0  0  0  0  0  0  0
  -29.7100  -19.6378   23.5849 C   0  0  0  0  0  0  0  0  0  0  0  0
  -26.9865  -25.1890   21.8435 C   0  0  0  0  0  0  0  0  0  1  0  0
  -21.9824  -30.3684   23.3356 C   0  0  1  0  0  0  0  0  0  0  0  0
  -18.9594  -28.5715   21.9203 C   0  0  2  0  0  0  0  0  0  0  0  0
  -21.9237  -31.0411   24.7361 C   0  0  0  0  0  0  0  0  0  0  0  0
  -25.8256  -13.4583   20.4171 N   0  0  0  0  0  0  0  0  0  0  0  0
  -24.7283  -13.3877   21.1897 N   0  0  0  0  0  0  0  0  0  0  0  0
  -23.7878  -30.7466   21.6859 N   0  0  0  0  0  0  0  0  0  0  0  0
  -25.7884  -16.5477   21.2554 N   0  0  0  0  0  0  0  0  0  0  0  0
  -27.3383  -18.0745   20.2420 N   0  0  0  0  0  0  0  0  0  0  0  0
  -23.0754  -11.8921   21.9909 N   0  0  0  0  0  0  0  0  0  0  0  0
  -25.6952   -9.2665   19.4142 N   0  0  0  0  0  0  0  0  0  0  0  0
  -25.6029  -33.5852   21.8182 N   0  0  0  0  0  0  0  0  0  0  0  0
  -20.6787  -29.9978   22.7956 N   0  0  0  0  0  0  0  0  0  0  0  0
  -18.8905  -27.5116   20.8750 N   0  3  0  0  0  0  0  0  0  0  0  0
  -23.8295   -9.2995   20.7473 O   0  0  0  0  0  0  0  0  0  0  0  0
  -26.5084  -31.4691   22.1715 O   0  0  0  0  0  0  0  0  0  0  0  0
  -22.1308  -32.3487   22.0384 O   0  0  0  0  0  0  0  0  0  0  0  0
  -21.1363  -27.7373   22.5549 O   0  0  0  0  0  0  0  0  0  0  0  0
  -26.3076  -16.4369   19.0125 O   0  0  0  0  0  0  0  0  0  0  0  0
  -30.2121  -10.8861   16.5840 O   0  0  0  0  0  0  0  0  0  0  0  0
  -29.7344  -20.2738   22.3096 O   0  0  0  0  0  0  0  0  0  0  0  0
  -27.3979  -25.8414   20.6504 O   0  0  0  0  0  0  0  0  0  1  0  0
  -31.2660  -14.2704   12.3603 F   0  0  0  0  0  0  0  0  0  0  0  0
  -30.8708  -13.5354   17.0196 F   0  0  0  0  0  0  0  0  0  0  0  0
  1  2  1  0  0  0  0
  1  5  2  0  0  0  0
  2  6  2  0  0  0  0
  3  8  2  0  0  0  0
  3 15  1  0  0  0  0
  4  9  1  0  0  0  0
  4 15  2  0  0  0  0
  5 17  1  0  0  0  0
  6 19  1  0  0  0  0
  7 10  2  0  0  0  0
  7 18  1  0  0  0  0
  8 26  1  0  0  0  0
  9 26  2  0  0  0  0
 10 27  1  0  0  0  0
 11 12  2  0  0  0  0
 11 28  1  0  0  0  0
 12 30  1  0  0  0  0
 13 20  1  0  0  0  0
 13 27  2  0  0  0  0
 14 30  2  0  0  0  0
 14 31  1  0  0  0  0
 15 32  1  0  0  0  0
 16 32  1  0  0  0  0
 16 33  2  0  0  0  0
 16 34  1  0  0  0  0
 17 19  2  0  0  0  0
 17 39  1  0  0  0  0
 18 20  2  0  0  0  0
 18 40  1  0  0  0  0
 19 51  1  0  0  0  0
 20 41  1  0  0  0  0
 21 22  1  0  0  0  0
 21 29  2  0  0  0  0
 21 50  1  0  0  0  0
 22 24  2  0  0  0  0
 22 55  1  0  0  0  0
 23 24  1  0  0  0  0
 23 25  2  0  0  0  0
 23 56  1  0  0  0  0
 24 65  1  0  0  0  0
 25 29  1  0  0  0  0
 25 57  1  0  0  0  0
 26 84  1  0  0  0  0
 27 86  1  0  0  0  0
 28 31  2  0  0  0  0
 28 84  1  0  0  0  0
 29 85  1  0  0  0  0
 30 87  1  0  0  0  0
 31 88  1  0  0  0  0
 32 69  2  0  0  0  0
 33 70  1  0  0  0  0
 33 74  1  0  0  0  0
 34 75  1  0  0  0  0
 34 79  2  0  0  0  0
 35 52  1  0  0  0  0
 35 76  1  0  0  0  0
 35 80  2  0  0  0  0
 36 66  1  0  0  0  0
 36 71  1  0  0  0  0
 36 81  2  0  0  0  0
 37 67  1  0  0  0  0
 37 77  1  0  0  0  0
 37 82  2  0  0  0  0
 38 72  1  0  0  0  0
 38 73  1  0  0  0  0
 38 83  2  0  0  0  0
 39 42  1  0  0  0  0
 40 52  1  0  0  0  0
 41 71  1  0  0  0  0
 42 44  1  0  0  0  0
 43 45  1  0  0  0  0
 43 47  1  0  0  0  0
 44 51  1  0  0  0  0
 45 53  1  0  0  0  0
 46 50  1  0  0  0  0
 46 54  1  0  0  0  0
 47 72  1  0  0  0  0
 48 50  1  0  0  0  0
 48 73  1  0  0  0  0
 49 53  1  0  0  0  0
 49 72  1  0  0  0  0
 51 76  1  0  0  0  0
 52 71  1  0  0  0  0
 53 70  1  0  0  0  0
 54 58  1  0  0  0  0
 54 73  1  0  0  0  0
 59 67  1  0  0  0  0
 60 68  1  0  0  0  0
 61 68  1  0  0  0  0
 62 68  1  0  0  0  0
 63 78  1  0  0  0  0
 64 85  1  0  0  0  0
 65 86  1  0  0  0  0
 66 68  1  0  0  0  0
 66 77  1  0  0  0  0
 67 78  1  0  0  0  0
 69 70  1  0  0  0  0
M  CHG  1  78   1
M  ISO  4  38 100  65 101  73 100  86 101
M  END
> <Batch ID>
0161

> <Smiles>
CNC(C)C(=O)NC(C(=O)N1Cc2cc([101O:1][101CH2:1]c3c(C)c(C)c(OC)c(C4CC(C)[100N:0]([100C:0](=O)N5CCCC(n6nc(-c7ccc(Oc8ccc(F)cc8F)cc7)c(C(N)=O)c6N)C5)C4)c3C)ccc2CC1C(=O)NC1CCCc2ccccc21)C(C)(C)C

> <Shape>
0.269

> <Color>
0.070

> <Negative vol penalty>
0.000

$$$$

  -OEChem-04052322123D

 89 98  0     1  0  0  0  0  0999 V2000
  -27.9818  -24.4475   17.0043 C   0  0  0  0  0  0  0  0  0  0  0  0
  -26.7858  -24.7111   17.6642 C   0  0  0  0  0  0  0  0  0  0  0  0
  -29.5942  -14.5165   20.6627 C   0  0  0  0  0  0  0  0  0  0  0  0
  -27.6833  -14.7720   19.2066 C   0  0  0  0  0  0  0  0  0  0  0  0
  -29.1852  -24.9140   17.5318 C   0  0  0  0  0  0  0  0  0  0  0  0
  -26.7925  -25.4404   18.8526 C   0  0  0  0  0  0  0  0  0  0  0  0
  -23.1663  -28.9728   18.9849 C   0  0  0  0  0  0  0  0  0  0  0  0
  -29.5586  -13.1359   20.4671 C   0  0  0  0  0  0  0  0  0  0  0  0
  -27.6477  -13.3913   19.0110 C   0  0  0  0  0  0  0  0  0  0  0  0
  -21.8694  -28.5438   19.2640 C   0  0  0  0  0  0  0  0  0  0  0  0
  -26.8303   -9.9007   18.4132 C   0  0  0  0  0  0  0  0  0  0  0  0
  -25.5890   -9.2682   18.4800 C   0  0  0  0  0  0  0  0  0  0  0  0
  -19.0085  -25.3883   24.6170 C   0  0  0  0  0  0  0  0  0  0  0  0
  -22.1328  -29.2566   21.5535 C   0  0  0  0  0  0  0  0  0  0  0  0
  -20.4496  -25.2950   22.2462 C   0  0  0  0  0  0  0  0  0  0  0  0
  -25.3233  -10.0305   20.7572 C   0  0  0  0  0  0  0  0  0  0  0  0
  -28.6565  -15.3345   20.0324 C   0  0  0  0  0  0  0  0  0  0  0  0
  -29.3997  -17.7097   19.4724 C   0  0  0  0  0  0  0  0  0  0  0  0
  -29.2057  -25.6576   18.7223 C   0  0  0  0  0  0  0  0  0  0  0  0
  -23.9613  -29.5379   19.9924 C   0  0  0  0  0  0  0  0  0  0  0  0
  -27.9974  -25.9161   19.3973 C   0  0  0  0  0  0  0  0  0  0  0  0
  -18.4204  -25.8930   23.4407 C   0  0  0  0  0  0  0  0  0  0  0  0
  -23.4385  -29.6943   21.2840 C   0  0  0  0  0  0  0  0  0  0  0  0
  -19.1639  -25.8681   22.2389 C   0  0  0  0  0  0  0  0  0  0  0  0
  -20.2909  -24.8432   24.6067 C   0  0  0  0  0  0  0  0  0  0  0  0
  -28.5854  -12.5733   19.6413 C   0  0  0  0  0  0  0  0  0  0  0  0
  -21.3535  -28.6831   20.5491 C   0  0  0  0  0  0  0  0  0  0  0  0
  -27.3183  -10.5981   19.5183 C   0  0  0  0  0  0  0  0  0  0  0  0
  -21.0086  -24.7905   23.4198 C   0  0  0  0  0  0  0  0  0  0  0  0
  -24.8354   -9.3331   19.6520 C   0  0  0  0  0  0  0  0  0  0  0  0
  -26.5647  -10.6630   20.6903 C   0  0  0  0  0  0  0  0  0  0  0  0
  -28.6924  -16.7607   20.2345 C   0  0  0  0  0  0  0  0  0  0  0  0
  -29.1075  -18.9134   20.0658 C   0  0  0  0  0  0  0  0  0  0  0  0
  -30.2453  -17.5202   18.3301 C   0  0  0  0  0  0  0  0  0  0  0  0
  -26.7181  -28.7645   21.3729 C   0  0  0  0  0  0  0  0  0  0  0  0
  -26.3465  -31.6383   22.8309 C   0  0  0  0  0  0  0  0  0  0  0  0
  -24.2337  -34.1109   23.8646 C   0  0  0  0  0  0  0  0  0  0  0  0
  -25.4720  -22.4210   22.1699 C   0  0  0  0  0  0  0  0  0  0  0  0
  -30.5357  -26.1003   19.2788 C   0  0  0  0  0  0  0  0  0  0  0  0
  -25.3488  -30.0201   19.6687 C   0  0  0  0  0  0  0  0  0  0  0  0
  -24.2440  -30.3132   22.3960 C   0  0  0  0  0  0  0  0  0  0  0  0
  -30.4188  -27.1865   20.3450 C   0  0  0  0  0  0  0  0  0  0  0  0
  -26.8121  -19.9529   24.4524 C   0  0  0  0  0  0  0  0  0  0  0  0
  -29.3325  -26.8288   21.3544 C   0  0  0  0  0  0  0  0  0  0  0  0
  -27.4829  -18.9762   23.4847 C   0  0  0  0  0  0  0  0  0  0  0  0
  -25.5109  -20.4995   23.8726 C   0  0  0  0  0  0  0  0  0  0  0  0
  -26.3253  -20.1729   21.5696 C   0  0  0  0  0  0  0  0  0  0  0  0
  -17.4426  -27.4183   21.3187 C   0  0  0  0  0  0  0  0  0  0  0  0
  -27.9613  -26.7251   20.6757 C   0  0  1  0  0  0  0  0  0  0  0  0
  -26.2513  -30.1105   20.8953 C   0  0  1  0  0  0  0  0  0  0  0  0
  -27.6576  -19.6021   22.0883 C   0  0  2  0  0  0  0  0  0  0  0  0
  -18.5554  -26.4209   20.9514 C   0  0  2  0  0  0  0  0  0  0  0  0
  -17.0042  -26.4670   23.4789 C   0  0  0  0  0  0  0  0  0  0  0  0
  -20.8721  -24.3161   25.8766 C   0  0  0  0  0  0  0  0  0  0  0  0
  -17.9682  -25.2463   20.1442 C   0  0  0  0  0  0  0  0  0  0  0  0
  -16.9422  -27.7291   24.3560 C   0  0  0  0  0  0  0  0  0  0  0  0
  -16.0074  -25.4282   24.0216 C   0  0  0  0  0  0  0  0  0  0  0  0
  -24.2186  -36.3165   25.0614 C   0  0  0  0  0  0  0  0  0  0  0  0
  -26.7054  -30.1929   25.4940 C   0  0  0  0  0  0  0  0  0  0  0  0
  -25.7528  -32.2070   26.6360 C   0  0  0  0  0  0  0  0  0  0  0  0
  -27.8745  -32.3982   25.3381 C   0  0  0  0  0  0  0  0  0  0  0  0
  -23.1390  -35.5171   21.5017 C   0  0  0  0  0  0  0  0  0  0  0  0
  -19.5764  -27.1751   20.0759 C   0  0  0  0  0  0  0  0  0  1  0  0
  -24.5877  -24.6162   22.9156 C   0  0  0  0  0  0  0  0  0  0  0  0
  -23.1635  -24.7746   22.4139 C   0  0  0  0  0  0  0  0  0  0  0  0
  -25.6870  -32.1146   24.1026 C   0  0  1  0  0  0  0  0  0  0  0  0
  -24.2979  -35.6199   23.7119 C   0  0  2  0  0  0  0  0  0  0  0  0
  -26.4902  -31.7147   25.3724 C   0  0  0  0  0  0  0  0  0  0  0  0
  -28.0028  -17.3139   21.2358 N   0  0  0  0  0  0  0  0  0  0  0  0
  -28.2755  -18.6235   21.1069 N   0  0  0  0  0  0  0  0  0  0  0  0
  -25.5975  -30.7634   22.0313 N   0  0  0  0  0  0  0  0  0  0  0  0
  -25.7497  -21.0979   22.5516 N   0  0  0  0  0  0  0  0  0  0  0  0
  -29.4836  -20.1810   19.7934 N   0  0  0  0  0  0  0  0  0  0  0  0
  -30.4378  -16.2175   17.8502 N   0  0  0  0  0  0  0  0  0  0  0  0
  -27.4200  -28.0438   20.4257 N   0  0  0  0  0  0  0  0  0  0  0  0
  -25.4914  -33.5519   23.9473 N   0  0  0  0  0  0  0  0  0  0  0  0
  -24.9217  -23.2301   23.1565 N   0  0  0  0  0  0  0  0  0  0  0  0
  -23.1701  -36.1035   22.8663 N   0  3  0  0  0  0  0  0  0  0  0  0
  -30.8265  -18.4758   17.7622 O   0  0  0  0  0  0  0  0  0  0  0  0
  -26.4617  -28.4069   22.5166 O   0  0  0  0  0  0  0  0  0  0  0  0
  -27.4816  -32.0336   22.5536 O   0  0  0  0  0  0  0  0  0  0  0  0
  -23.1737  -33.4906   23.9099 O   0  0  0  0  0  0  0  0  0  0  0  0
  -25.7025  -22.8515   21.0347 O   0  0  0  0  0  0  0  0  0  0  0  0
  -16.4935  -26.7954   22.1743 O   0  0  0  0  0  0  0  0  0  0  0  0
  -28.5505  -11.2262   19.4501 O   0  0  0  0  0  0  0  0  0  0  0  0
  -20.0746  -28.2601   20.8274 O   0  0  0  0  0  0  0  0  0  1  0  0
  -22.2586  -24.2499   23.3834 O   0  0  0  0  0  0  0  0  0  0  0  0
  -23.6426   -8.7270   19.7156 F   0  0  0  0  0  0  0  0  0  0  0  0
  -27.0277  -11.3324   21.7549 F   0  0  0  0  0  0  0  0  0  0  0  0
  1  2  1  0  0  0  0
  1  5  2  0  0  0  0
  2  6  2  0  0  0  0
  3  8  2  0  0  0  0
  3 17  1  0  0  0  0
  4  9  1  0  0  0  0
  4 17  2  0  0  0  0
  5 19  1  0  0  0  0
  6 21  1  0  0  0  0
  7 10  2  0  0  0  0
  7 20  1  0  0  0  0
  8 26  1  0  0  0  0
  9 26  2  0  0  0  0
 10 27  1  0  0  0  0
 11 12  2  0  0  0  0
 11 28  1  0  0  0  0
 12 30  1  0  0  0  0
 13 22  1  0  0  0  0
 13 25  2  0  0  0  0
 14 23  1  0  0  0  0
 14 27  2  0  0  0  0
 15 24  1  0  0  0  0
 15 29  2  0  0  0  0
 16 30  2  0  0  0  0
 16 31  1  0  0  0  0
 17 32  1  0  0  0  0
 18 32  1  0  0  0  0
 18 33  2  0  0  0  0
 18 34  1  0  0  0  0
 19 21  2  0  0  0  0
 19 39  1  0  0  0  0
 20 23  2  0  0  0  0
 20 40  1  0  0  0  0
 21 49  1  0  0  0  0
 22 24  2  0  0  0  0
 22 53  1  0  0  0  0
 23 41  1  0  0  0  0
 24 52  1  0  0  0  0
 25 29  1  0  0  0  0
 25 54  1  0  0  0  0
 26 85  1  0  0  0  0
 27 86  1  0  0  0  0
 28 31  2  0  0  0  0
 28 85  1  0  0  0  0
 29 87  1  0  0  0  0
 30 88  1  0  0  0  0
 31 89  1  0  0  0  0
 32 69  2  0  0  0  0
 33 70  1  0  0  0  0
 33 73  1  0  0  0  0
 34 74  1  0  0  0  0
 34 79  2  0  0  0  0
 35 50  1  0  0  0  0
 35 75  1  0  0  0  0
 35 80  2  0  0  0  0
 36 66  1  0  0  0  0
 36 71  1  0  0  0  0
 36 81  2  0  0  0  0
 37 67  1  0  0  0  0
 37 76  1  0  0  0  0
 37 82  2  0  0  0  0
 38 72  1  0  0  0  0
 38 77  1  0  0  0  0
 38 83  2  0  0  0  0
 39 42  1  0  0  0  0
 40 50  1  0  0  0  0
 41 71  1  0  0  0  0
 42 44  1  0  0  0  0
 43 45  1  0  0  0  0
 43 46  1  0  0  0  0
 44 49  1  0  0  0  0
 45 51  1  0  0  0  0
 46 72  1  0  0  0  0
 47 51  1  0  0  0  0
 47 72  1  0  0  0  0
 48 52  1  0  0  0  0
 48 84  1  0  0  0  0
 49 75  1  0  0  0  0
 50 71  1  0  0  0  0
 51 70  1  0  0  0  0
 52 55  1  0  0  0  0
 52 63  1  0  0  0  0
 53 56  1  0  0  0  0
 53 57  1  0  0  0  0
 53 84  1  0  0  0  0
 58 67  1  0  0  0  0
 59 68  1  0  0  0  0
 60 68  1  0  0  0  0
 61 68  1  0  0  0  0
 62 78  1  0  0  0  0
 63 86  1  0  0  0  0
 64 65  1  0  0  0  0
 64 77  1  0  0  0  0
 65 87  1  0  0  0  0
 66 68  1  0  0  0  0
 66 76  1  0  0  0  0
 67 78  1  0  0  0  0
 69 70  1  0  0  0  0
M  CHG  1  78   1
M  ISO  4  38 100  63 101  77 100  86 101
M  END
> <Batch ID>
0161

> <Smiles>
CNC(C)C(=O)NC(C(=O)N1Cc2cc([101O:1][101CH2:1]C3(C)COC(C)(C)c4cc(C)c(OCC[100NH:0][100C:0](=O)N5CCCC(n6nc(-c7ccc(Oc8ccc(F)cc8F)cc7)c(C(N)=O)c6N)C5)cc43)ccc2CC1C(=O)NC1CCCc2ccccc21)C(C)(C)C

> <Shape>
0.315

> <Color>
0.073

> <Negative vol penalty>
0.000

$$$$

  -OEChem-04052322123D

 86 95  0     1  0  0  0  0  0999 V2000
  -16.7389  -30.0873   24.2833 C   0  0  0  0  0  0  0  0  0  0  0  0
  -18.0868  -30.4097   24.4041 C   0  0  0  0  0  0  0  0  0  0  0  0
  -27.4420  -14.6018   19.3318 C   0  0  0  0  0  0  0  0  0  0  0  0
  -25.2418  -15.2151   20.1191 C   0  0  0  0  0  0  0  0  0  0  0  0
  -16.3552  -28.9600   23.5582 C   0  0  0  0  0  0  0  0  0  0  0  0
  -19.0520  -29.6042   23.8008 C   0  0  0  0  0  0  0  0  0  0  0  0
  -24.3415  -31.4321   21.3136 C   0  0  0  0  0  0  0  0  0  0  0  0
  -27.2270  -13.2896   19.7530 C   0  0  0  0  0  0  0  0  0  0  0  0
  -25.0267  -13.9028   20.5403 C   0  0  0  0  0  0  0  0  0  0  0  0
  -25.6492  -31.4478   21.7967 C   0  0  0  0  0  0  0  0  0  0  0  0
  -24.1897  -10.9441   19.1382 C   0  0  0  0  0  0  0  0  0  0  0  0
  -22.9596  -10.3609   18.8345 C   0  0  0  0  0  0  0  0  0  0  0  0
  -31.1283  -27.4082   20.0342 C   0  0  0  0  0  0  0  0  0  0  0  0
  -32.5582  -26.7517   22.3337 C   0  0  0  0  0  0  0  0  0  0  0  0
  -26.0725  -29.3403   20.7021 C   0  0  0  0  0  0  0  0  0  0  0  0
  -22.5256  -10.0492   21.1907 C   0  0  0  0  0  0  0  0  0  0  0  0
  -26.4494  -15.5646   19.5149 C   0  0  0  0  0  0  0  0  0  0  0  0
  -26.3722  -17.4685   17.8188 C   0  0  0  0  0  0  0  0  0  0  0  0
  -17.3156  -28.1457   22.9375 C   0  0  0  0  0  0  0  0  0  0  0  0
  -23.8854  -30.3632   20.5288 C   0  0  0  0  0  0  0  0  0  0  0  0
  -18.6809  -28.4641   23.0678 C   0  0  0  0  0  0  0  0  0  0  0  0
  -31.3956  -26.0612   20.3188 C   0  0  0  0  0  0  0  0  0  0  0  0
  -32.1319  -25.7321   21.4706 C   0  0  0  0  0  0  0  0  0  0  0  0
  -24.7593  -29.3146   20.2081 C   0  0  0  0  0  0  0  0  0  0  0  0
  -31.5669  -28.4151   20.8938 C   0  0  0  0  0  0  0  0  0  0  0  0
  -26.0194  -12.9401   20.3572 C   0  0  0  0  0  0  0  0  0  0  0  0
  -26.5141  -30.4004   21.4934 C   0  0  0  0  0  0  0  0  0  0  0  0
  -24.5879  -11.0797   20.4682 C   0  0  0  0  0  0  0  0  0  0  0  0
  -32.2791  -28.0868   22.0441 C   0  0  0  0  0  0  0  0  0  0  0  0
  -22.1275   -9.9135   19.8607 C   0  0  0  0  0  0  0  0  0  0  0  0
  -23.7558  -10.6323   21.4944 C   0  0  0  0  0  0  0  0  0  0  0  0
  -26.6711  -16.9204   19.0806 C   0  0  0  0  0  0  0  0  0  0  0  0
  -26.7698  -18.7799   17.9112 C   0  0  0  0  0  0  0  0  0  0  0  0
  -25.7872  -16.8477   16.6663 C   0  0  0  0  0  0  0  0  0  0  0  0
  -21.6121  -28.1632   20.8383 C   0  0  0  0  0  0  0  0  0  0  0  0
  -22.4782  -27.4026   17.8062 C   0  0  0  0  0  0  0  0  0  0  0  0
  -24.8785  -27.4493   15.3807 C   0  0  0  0  0  0  0  0  0  0  0  0
  -30.2545  -22.6299   19.2963 C   0  0  0  0  0  0  0  0  0  0  0  0
  -16.8555  -26.9109   22.2038 C   0  0  0  0  0  0  0  0  0  0  0  0
  -22.4799  -30.3742   19.9932 C   0  0  0  0  0  0  0  0  0  0  0  0
  -32.4221  -24.2948   21.8190 C   0  0  0  0  0  0  0  0  0  0  0  0
  -30.9216  -25.0001   19.3598 C   0  0  0  0  0  0  0  0  0  0  0  0
  -24.3248  -28.1536   19.3526 C   0  0  0  0  0  0  0  0  0  0  0  0
  -17.9178  -26.3196   21.2807 C   0  0  0  0  0  0  0  0  0  0  0  0
  -28.1648  -21.5354   21.9067 C   0  0  0  0  0  0  0  0  0  0  0  0
  -19.2616  -26.2362   21.9978 C   0  0  0  0  0  0  0  0  0  0  0  0
  -27.5621  -20.2679   21.3022 C   0  0  0  0  0  0  0  0  0  0  0  0
  -32.2779  -23.3641   20.6195 C   0  0  0  0  0  0  0  0  0  0  0  0
  -29.6488  -21.6835   21.5669 C   0  0  0  0  0  0  0  0  0  0  0  0
  -29.3403  -20.3386   19.5140 C   0  0  0  0  0  0  0  0  0  0  0  0
  -19.7560  -27.6290   22.4069 C   0  0  1  0  0  0  0  0  0  0  0  0
  -21.9677  -28.9836   19.6308 C   0  0  1  0  0  0  0  0  0  0  0  0
  -27.8356  -20.1947   19.7896 C   0  0  1  0  0  0  0  0  0  0  0  0
  -34.4784  -30.5914   23.4024 C   0  0  0  0  0  0  0  0  0  0  0  0
  -25.3067  -26.7177   13.0187 C   0  0  0  0  0  0  0  0  0  0  0  0
  -22.8452  -24.5293   18.7652 C   0  0  0  0  0  0  0  0  0  0  0  0
  -24.1496  -24.0728   16.6775 C   0  0  0  0  0  0  0  0  0  0  0  0
  -21.7536  -24.7504   16.5260 C   0  0  0  0  0  0  0  0  0  0  0  0
  -25.3007  -30.2340   14.4719 C   0  0  0  0  0  0  0  0  0  0  0  0
  -31.2631  -29.8394   20.5644 C   0  0  0  0  0  0  0  0  0  0  0  0
  -30.1256  -30.4504   21.3968 C   0  0  0  0  0  0  0  0  0  0  0  0
  -34.1177  -29.1497   23.1145 C   0  0  0  0  0  0  0  0  0  0  0  0
  -28.7830  -29.7651   21.1707 C   0  0  0  0  0  0  0  0  0  1  0  0
  -23.4880  -26.4676   17.1855 C   0  0  1  0  0  0  0  0  0  0  0  0
  -24.8233  -27.8461   13.9165 C   0  0  2  0  0  0  0  0  0  0  0  0
  -23.0670  -24.9758   17.3063 C   0  0  0  0  0  0  0  0  0  0  0  0
  -27.2167  -17.8108   19.9133 N   0  0  0  0  0  0  0  0  0  0  0  0
  -27.2638  -18.9316   19.1733 N   0  0  0  0  0  0  0  0  0  0  0  0
  -22.9392  -28.2070   18.8580 N   0  0  0  0  0  0  0  0  0  0  0  0
  -31.0398  -23.6378   19.8817 N   0  0  0  0  0  0  0  0  0  0  0  0
  -29.8680  -21.5630   20.1200 N   0  0  0  0  0  0  0  0  0  0  0  0
  -26.7416  -19.8066   17.0350 N   0  0  0  0  0  0  0  0  0  0  0  0
  -25.4376  -15.4926   16.7425 N   0  0  0  0  0  0  0  0  0  0  0  0
  -20.3076  -28.3253   21.2643 N   0  0  0  0  0  0  0  0  0  0  0  0
  -23.6787  -26.9255   15.8135 N   0  0  0  0  0  0  0  0  0  0  0  0
  -25.6790  -29.0413   13.6711 N   0  3  0  0  0  0  0  0  0  0  0  0
  -25.5958  -17.4718   15.5952 O   0  0  0  0  0  0  0  0  0  0  0  0
  -22.4581  -27.4358   21.3451 O   0  0  0  0  0  0  0  0  0  0  0  0
  -21.3249  -27.4236   17.3692 O   0  0  0  0  0  0  0  0  0  0  0  0
  -25.8864  -27.5865   16.0705 O   0  0  0  0  0  0  0  0  0  0  0  0
  -29.9213  -22.6825   18.1055 O   0  0  0  0  0  0  0  0  0  0  0  0
  -25.8091  -11.6596   20.7681 O   0  0  0  0  0  0  0  0  0  0  0  0
  -27.7998  -30.4131   21.9675 O   0  0  0  0  0  0  0  0  0  1  0  0
  -32.7113  -29.0571   22.8974 O   0  0  0  0  0  0  0  0  0  0  0  0
  -20.9456   -9.3549   19.5690 F   0  0  0  0  0  0  0  0  0  0  0  0
  -24.1324  -10.7610   22.7740 F   0  0  0  0  0  0  0  0  0  0  0  0
  1  2  1  0  0  0  0
  1  5  2  0  0  0  0
  2  6  2  0  0  0  0
  3  8  2  0  0  0  0
  3 17  1  0  0  0  0
  4  9  1  0  0  0  0
  4 17  2  0  0  0  0
  5 19  1  0  0  0  0
  6 21  1  0  0  0  0
  7 10  2  0  0  0  0
  7 20  1  0  0  0  0
  8 26  1  0  0  0  0
  9 26  2  0  0  0  0
 10 27  1  0  0  0  0
 11 12  2  0  0  0  0
 11 28  1  0  0  0  0
 12 30  1  0  0  0  0
 13 22  2  0  0  0  0
 13 25  1  0  0  0  0
 14 23  2  0  0  0  0
 14 29  1  0  0  0  0
 15 24  1  0  0  0  0
 15 27  2  0  0  0  0
 16 30  2  0  0  0  0
 16 31  1  0  0  0  0
 17 32  1  0  0  0  0
 18 32  1  0  0  0  0
 18 33  2  0  0  0  0
 18 34  1  0  0  0  0
 19 21  2  0  0  0  0
 19 39  1  0  0  0  0
 20 24  2  0  0  0  0
 20 40  1  0  0  0  0
 21 51  1  0  0  0  0
 22 23  1  0  0  0  0
 22 42  1  0  0  0  0
 23 41  1  0  0  0  0
 24 43  1  0  0  0  0
 25 29  2  0  0  0  0
 25 60  1  0  0  0  0
 26 82  1  0  0  0  0
 27 83  1  0  0  0  0
 28 31  2  0  0  0  0
 28 82  1  0  0  0  0
 29 84  1  0  0  0  0
 30 85  1  0  0  0  0
 31 86  1  0  0  0  0
 32 67  2  0  0  0  0
 33 68  1  0  0  0  0
 33 72  1  0  0  0  0
 34 73  1  0  0  0  0
 34 77  2  0  0  0  0
 35 52  1  0  0  0  0
 35 74  1  0  0  0  0
 35 78  2  0  0  0  0
 36 64  1  0  0  0  0
 36 69  1  0  0  0  0
 36 79  2  0  0  0  0
 37 65  1  0  0  0  0
 37 75  1  0  0  0  0
 37 80  2  0  0  0  0
 38 70  1  0  0  0  0
 38 71  1  0  0  0  0
 38 81  2  0  0  0  0
 39 44  1  0  0  0  0
 40 52  1  0  0  0  0
 41 48  1  0  0  0  0
 42 70  1  0  0  0  0
 43 69  1  0  0  0  0
 44 46  1  0  0  0  0
 45 47  1  0  0  0  0
 45 49  1  0  0  0  0
 46 51  1  0  0  0  0
 47 53  1  0  0  0  0
 48 70  1  0  0  0  0
 49 71  1  0  0  0  0
 50 53  1  0  0  0  0
 50 71  1  0  0  0  0
 51 74  1  0  0  0  0
 52 69  1  0  0  0  0
 53 68  1  0  0  0  0
 54 62  1  0  0  0  0
 55 65  1  0  0  0  0
 56 66  1  0  0  0  0
 57 66  1  0  0  0  0
 58 66  1  0  0  0  0
 59 76  1  0  0  0  0
 60 61  1  0  0  0  0
 61 63  1  0  0  0  0
 62 84  1  0  0  0  0
 63 83  1  0  0  0  0
 64 66  1  0  0  0  0
 64 75  1  0  0  0  0
 65 76  1  0  0  0  0
 67 68  1  0  0  0  0
M  CHG  1  76   1
M  ISO  4  38 100  63 101  70 100  83 101
M  END
> <Batch ID>
0161

> <Smiles>
CCOc1cc2c(cc1CC[101CH2:1][101O:1]c1ccc3c(c1)CN(C(=O)C(NC(=O)C(C)NC)C(C)(C)C)C(C(=O)NC1CCCc4ccccc41)C3)C[100N:0]([100C:0](=O)N1CCCC(n3nc(-c4ccc(Oc5ccc(F)cc5F)cc4)c(C(N)=O)c3N)C1)CC2

> <Shape>
0.269

> <Color>
0.063

> <Negative vol penalty>
0.000

$$$$

  -OEChem-04052322123D

 90 99  0     1  0  0  0  0  0999 V2000
  -32.4934  -13.5425   19.6580 C   0  0  0  0  0  0  0  0  0  0  0  0
  -31.9515  -14.8217   19.7319 C   0  0  0  0  0  0  0  0  0  0  0  0
  -29.9442  -28.0068   21.1716 C   0  0  0  0  0  0  0  0  0  0  0  0
  -28.0134  -26.7659   20.4170 C   0  0  0  0  0  0  0  0  0  0  0  0
  -31.6517  -12.4330   19.5909 C   0  0  0  0  0  0  0  0  0  0  0  0
  -30.5676  -14.9922   19.7378 C   0  0  0  0  0  0  0  0  0  0  0  0
  -27.3985  -19.2745   22.7584 C   0  0  0  0  0  0  0  0  0  0  0  0
  -30.7826  -27.0605   20.5823 C   0  0  0  0  0  0  0  0  0  0  0  0
  -28.8518  -25.8196   19.8277 C   0  0  0  0  0  0  0  0  0  0  0  0
  -26.8549  -20.4949   22.3597 C   0  0  0  0  0  0  0  0  0  0  0  0
  -30.7181  -23.1816   20.8221 C   0  0  0  0  0  0  0  0  0  0  0  0
  -30.4152  -21.8346   21.0201 C   0  0  0  0  0  0  0  0  0  0  0  0
  -24.7223  -19.4235   22.0085 C   0  0  0  0  0  0  0  0  0  0  0  0
  -30.1812  -21.5365   18.6340 C   0  0  0  0  0  0  0  0  0  0  0  0
  -28.5595  -27.8594   21.0890 C   0  0  0  0  0  0  0  0  0  0  0  0
  -27.6248  -30.2117   21.4060 C   0  0  0  0  0  0  0  0  0  0  0  0
  -30.2567  -12.5894   19.6057 C   0  0  0  0  0  0  0  0  0  0  0  0
  -26.6095  -18.1153   22.7747 C   0  0  0  0  0  0  0  0  0  0  0  0
  -29.7065  -13.8838   19.6695 C   0  0  0  0  0  0  0  0  0  0  0  0
  -25.2576  -18.1901   22.4103 C   0  0  0  0  0  0  0  0  0  0  0  0
  -19.9229  -26.6412   22.4039 C   0  0  0  0  0  0  0  0  0  0  0  0
  -18.6287  -26.4610   21.9160 C   0  0  0  0  0  0  0  0  0  0  0  0
  -17.6610  -27.4433   22.1264 C   0  0  0  0  0  0  0  0  0  0  0  0
  -17.9875  -28.6058   22.8249 C   0  0  0  0  0  0  0  0  0  0  0  0
  -19.2817  -28.7859   23.3129 C   0  0  0  0  0  0  0  0  0  0  0  0
  -20.2494  -27.8036   23.1025 C   0  0  0  0  0  0  0  0  0  0  0  0
  -30.2365  -25.9670   19.9104 C   0  0  0  0  0  0  0  0  0  0  0  0
  -25.5174  -20.5690   21.9819 C   0  0  0  0  0  0  0  0  0  0  0  0
  -30.7526  -23.7062   19.5300 C   0  0  0  0  0  0  0  0  0  0  0  0
  -30.1467  -21.0120   19.9260 C   0  0  0  0  0  0  0  0  0  0  0  0
  -30.4842  -22.8836   18.4360 C   0  0  0  0  0  0  0  0  0  0  0  0
  -27.6929  -28.8362   21.6980 C   0  0  0  0  0  0  0  0  0  0  0  0
  -26.6533  -30.6939   22.2488 C   0  0  0  0  0  0  0  0  0  0  0  0
  -28.3727  -30.9845   20.4578 C   0  0  0  0  0  0  0  0  0  0  0  0
  -26.6987  -15.3198   21.2646 C   0  0  0  0  0  0  0  0  0  0  0  0
  -24.2500  -14.6014   23.2670 C   0  0  0  0  0  0  0  0  0  0  0  0
  -21.3112  -16.2658   24.5362 C   0  0  0  0  0  0  0  0  0  0  0  0
  -21.9490  -28.1634   24.9268 C   0  0  0  0  0  0  0  0  0  0  0  0
  -29.3875  -11.3630   19.4837 C   0  0  0  0  0  0  0  0  0  0  0  0
  -27.2039  -16.8118   23.2329 C   0  0  0  0  0  0  0  0  0  0  0  0
  -24.3628  -16.9787   22.4299 C   0  0  0  0  0  0  0  0  0  0  0  0
  -27.9317  -11.6070   19.8729 C   0  0  0  0  0  0  0  0  0  0  0  0
  -24.6465  -29.8589   26.5161 C   0  0  0  0  0  0  0  0  0  0  0  0
  -27.4137  -12.8877   19.2260 C   0  0  0  0  0  0  0  0  0  0  0  0
  -25.7254  -29.9197   25.4324 C   0  0  0  0  0  0  0  0  0  0  0  0
  -22.1353  -26.0876   21.3014 C   0  0  0  0  0  0  0  0  0  0  0  0
  -21.4904  -24.9568   23.4796 C   0  0  0  0  0  0  0  0  0  0  0  0
  -23.8633  -28.5484   26.4639 C   0  0  0  0  0  0  0  0  0  0  0  0
  -24.3708  -28.2792   24.0682 C   0  0  0  0  0  0  0  0  0  0  0  0
  -23.4922  -25.5246   21.7077 C   0  0  0  0  0  0  0  0  0  0  0  0
  -20.9732  -25.5708   22.1708 C   0  0  1  0  0  0  0  0  0  0  0  0
  -28.2102  -14.1080   19.7032 C   0  0  1  0  0  0  0  0  0  0  0  0
  -26.4417  -15.5942   22.7193 C   0  0  1  0  0  0  0  0  0  0  0  0
  -25.1433  -29.6081   24.0397 C   0  0  2  0  0  0  0  0  0  0  0  0
  -22.4249  -23.7683   23.2129 C   0  0  2  0  0  0  0  0  0  0  0  0
  -18.2787  -25.2153   21.1646 C   0  0  0  0  0  0  0  0  0  0  0  0
  -16.2723  -27.2499   21.6038 C   0  0  0  0  0  0  0  0  0  0  0  0
  -16.9492  -29.6594   23.0502 C   0  0  0  0  0  0  0  0  0  0  0  0
  -19.6276  -30.0354   24.0614 C   0  0  0  0  0  0  0  0  0  0  0  0
  -23.2265  -23.3942   24.4555 C   0  0  0  0  0  0  0  0  0  0  0  0
  -20.0379  -15.9259   26.6718 C   0  0  0  0  0  0  0  0  0  0  0  0
  -22.5053  -12.7416   21.5916 C   0  0  0  0  0  0  0  0  0  0  0  0
  -20.5128  -13.5971   22.8431 C   0  0  0  0  0  0  0  0  0  0  0  0
  -22.3271  -12.3948   24.0619 C   0  0  0  0  0  0  0  0  0  0  0  0
  -21.5819  -19.1157   25.2871 C   0  0  0  0  0  0  0  0  0  0  0  0
  -23.1783  -23.1751   20.8745 C   0  0  0  0  0  0  0  0  0  0  0  0
  -23.6074  -21.7622   21.2178 C   0  0  0  0  0  0  0  0  0  1  0  0
  -22.7476  -14.7380   23.2107 C   0  0  1  0  0  0  0  0  0  0  0  0
  -21.0877  -16.7599   25.9541 C   0  0  2  0  0  0  0  0  0  0  0  0
  -22.0403  -13.3858   22.9128 C   0  0  0  0  0  0  0  0  0  0  0  0
  -26.8333  -28.4684   22.6518 N   0  0  0  0  0  0  0  0  0  0  0  0
  -26.2159  -29.6198   22.9666 N   0  0  0  0  0  0  0  0  0  0  0  0
  -24.9921  -15.7260   22.8794 N   0  0  0  0  0  0  0  0  0  0  0  0
  -23.3383  -28.3217   25.1155 N   0  0  0  0  0  0  0  0  0  0  0  0
  -26.1392  -31.9276   22.4386 N   0  0  0  0  0  0  0  0  0  0  0  0
  -27.8656  -31.1202   19.1582 N   0  0  0  0  0  0  0  0  0  0  0  0
  -21.5642  -27.9865   23.5982 N   0  0  0  0  0  0  0  0  0  0  0  0
  -27.7866  -14.5007   21.0302 N   0  0  0  0  0  0  0  0  0  0  0  0
  -22.3465  -15.3576   24.4691 N   0  0  0  0  0  0  0  0  0  0  0  0
  -23.3952  -24.0657   22.0716 N   0  3  1  0  0  0  0  0  0  0  0  0
  -20.6330  -18.1791   25.9424 N   0  3  0  0  0  0  0  0  0  0  0  0
  -29.4666  -31.5246   20.7495 O   0  0  0  0  0  0  0  0  0  0  0  0
  -25.9635  -15.8134   20.4175 O   0  0  0  0  0  0  0  0  0  0  0  0
  -24.7467  -13.5385   23.6480 O   0  0  0  0  0  0  0  0  0  0  0  0
  -20.6326  -16.6446   23.5841 O   0  0  0  0  0  0  0  0  0  0  0  0
  -21.1563  -28.2104   25.8709 O   0  0  0  0  0  0  0  0  0  0  0  0
  -31.0543  -25.0436   19.3350 O   0  0  0  0  0  0  0  0  0  0  0  0
  -24.9845  -21.7588   21.5917 O   0  0  0  0  0  0  0  0  0  1  0  0
  -29.8573  -19.7180   20.1162 F   0  0  0  0  0  0  0  0  0  0  0  0
  -30.5169  -23.3815   17.1923 F   0  0  0  0  0  0  0  0  0  0  0  0
  1  2  1  0  0  0  0
  1  5  2  0  0  0  0
  2  6  2  0  0  0  0
  3  8  2  0  0  0  0
  3 15  1  0  0  0  0
  4  9  1  0  0  0  0
  4 15  2  0  0  0  0
  5 17  1  0  0  0  0
  6 19  1  0  0  0  0
  7 10  2  0  0  0  0
  7 18  1  0  0  0  0
  8 27  1  0  0  0  0
  9 27  2  0  0  0  0
 10 28  1  0  0  0  0
 11 12  2  0  0  0  0
 11 29  1  0  0  0  0
 12 30  1  0  0  0  0
 13 20  1  0  0  0  0
 13 28  2  0  0  0  0
 14 30  2  0  0  0  0
 14 31  1  0  0  0  0
 15 32  1  0  0  0  0
 16 32  1  0  0  0  0
 16 33  2  0  0  0  0
 16 34  1  0  0  0  0
 17 19  2  0  0  0  0
 17 39  1  0  0  0  0
 18 20  2  0  0  0  0
 18 40  1  0  0  0  0
 19 52  1  0  0  0  0
 20 41  1  0  0  0  0
 21 22  1  0  0  0  0
 21 26  2  0  0  0  0
 21 51  1  0  0  0  0
 22 23  2  0  0  0  0
 22 56  1  0  0  0  0
 23 24  1  0  0  0  0
 23 57  1  0  0  0  0
 24 25  2  0  0  0  0
 24 58  1  0  0  0  0
 25 26  1  0  0  0  0
 25 59  1  0  0  0  0
 26 77  1  0  0  0  0
 27 87  1  0  0  0  0
 28 88  1  0  0  0  0
 29 31  2  0  0  0  0
 29 87  1  0  0  0  0
 30 89  1  0  0  0  0
 31 90  1  0  0  0  0
 32 71  2  0  0  0  0
 33 72  1  0  0  0  0
 33 75  1  0  0  0  0
 34 76  1  0  0  0  0
 34 82  2  0  0  0  0
 35 53  1  0  0  0  0
 35 78  1  0  0  0  0
 35 83  2  0  0  0  0
 36 68  1  0  0  0  0
 36 73  1  0  0  0  0
 36 84  2  0  0  0  0
 37 69  1  0  0  0  0
 37 79  1  0  0  0  0
 37 85  2  0  0  0  0
 38 74  1  0  0  0  0
 38 77  1  0  0  0  0
 38 86  2  0  0  0  0
 39 42  1  0  0  0  0
 40 53  1  0  0  0  0
 41 73  1  0  0  0  0
 42 44  1  0  0  0  0
 43 45  1  0  0  0  0
 43 48  1  0  0  0  0
 44 52  1  0  0  0  0
 45 54  1  0  0  0  0
 46 50  1  0  0  0  0
 46 51  1  0  0  0  0
 47 51  1  0  0  0  0
 47 55  1  0  0  0  0
 48 74  1  0  0  0  0
 49 54  1  0  0  0  0
 49 74  1  0  0  0  0
 50 80  1  0  0  0  0
 52 78  1  0  0  0  0
 53 73  1  0  0  0  0
 54 72  1  0  0  0  0
 55 60  1  0  0  0  0
 55 80  1  0  0  0  0
 61 69  1  0  0  0  0
 62 70  1  0  0  0  0
 63 70  1  0  0  0  0
 64 70  1  0  0  0  0
 65 81  1  0  0  0  0
 66 67  1  0  0  0  0
 66 80  1  0  0  0  0
 67 88  1  0  0  0  0
 68 70  1  0  0  0  0
 68 79  1  0  0  0  0
 69 81  1  0  0  0  0
 71 72  1  0  0  0  0
M  CHG  2  80   1  81   1
M  ISO  4  38 100  67 101  77 100  88 101
M  END
> <Batch ID>
0161

> <Smiles>
CNC(C)C(=O)NC(C(=O)N1Cc2cc([101O:1][101CH2:1]CN3CCC(c4c(C)c(C)c(C)c(C)c4[100NH:0][100C:0](=O)N4CCCC(n5nc(-c6ccc(Oc7ccc(F)cc7F)cc6)c(C(N)=O)c5N)C4)CC3C)ccc2CC1C(=O)NC1CCCc2ccccc21)C(C)(C)C

> <Shape>
0.256

> <Color>
0.059

> <Negative vol penalty>
0.000

$$$$

  -OEChem-04052322123D

 87 96  0     1  0  0  0  0  0999 V2000
  -27.4646  -37.6088   24.4980 C   0  0  0  0  0  0  0  0  0  0  0  0
  -28.1223  -36.5824   23.8276 C   0  0  0  0  0  0  0  0  0  0  0  0
  -24.3465  -10.1931   22.9624 C   0  0  0  0  0  0  0  0  0  0  0  0
  -24.2881   -8.6110   21.1374 C   0  0  0  0  0  0  0  0  0  0  0  0
  -26.2895  -37.3412   25.1991 C   0  0  0  0  0  0  0  0  0  0  0  0
  -27.6058  -35.2875   23.8588 C   0  0  0  0  0  0  0  0  0  0  0  0
  -27.0878  -29.3851   19.8328 C   0  0  0  0  0  0  0  0  0  0  0  0
  -23.2427   -9.5666   23.5409 C   0  0  0  0  0  0  0  0  0  0  0  0
  -23.1843   -7.9844   21.7160 C   0  0  0  0  0  0  0  0  0  0  0  0
  -27.3417  -28.0155   19.8916 C   0  0  0  0  0  0  0  0  0  0  0  0
  -22.5949   -5.7957   24.2225 C   0  0  0  0  0  0  0  0  0  0  0  0
  -22.5965   -4.4018   24.2748 C   0  0  0  0  0  0  0  0  0  0  0  0
  -26.5119  -21.5110   20.0435 C   0  0  0  0  0  0  0  0  0  0  0  0
  -25.2621  -27.6865   21.0690 C   0  0  0  0  0  0  0  0  0  0  0  0
  -20.5771   -4.3499   22.9494 C   0  0  0  0  0  0  0  0  0  0  0  0
  -24.8692   -9.7153   21.7606 C   0  0  0  0  0  0  0  0  0  0  0  0
  -27.3674  -10.0626   21.3785 C   0  0  0  0  0  0  0  0  0  0  0  0
  -25.7531  -36.0444   25.2309 C   0  0  0  0  0  0  0  0  0  0  0  0
  -25.9223  -29.9180   20.4022 C   0  0  0  0  0  0  0  0  0  0  0  0
  -26.4231  -35.0021   24.5621 C   0  0  0  0  0  0  0  0  0  0  0  0
  -27.0047  -20.9334   21.2136 C   0  0  0  0  0  0  0  0  0  0  0  0
  -24.9945  -29.0629   21.0138 C   0  0  0  0  0  0  0  0  0  0  0  0
  -26.0881  -22.8400   20.0467 C   0  0  0  0  0  0  0  0  0  0  0  0
  -26.1571  -23.5912   21.2200 C   0  0  0  0  0  0  0  0  0  0  0  0
  -26.6498  -23.0135   22.3901 C   0  0  0  0  0  0  0  0  0  0  0  0
  -22.6616   -8.4623   22.9177 C   0  0  0  0  0  0  0  0  0  0  0  0
  -26.4303  -27.1663   20.5123 C   0  0  0  0  0  0  0  0  0  0  0  0
  -21.5844   -6.4667   23.5337 C   0  0  0  0  0  0  0  0  0  0  0  0
  -27.0736  -21.6846   22.3869 C   0  0  0  0  0  0  0  0  0  0  0  0
  -21.5876   -3.6789   23.6382 C   0  0  0  0  0  0  0  0  0  0  0  0
  -20.5755   -5.7438   22.8972 C   0  0  0  0  0  0  0  0  0  0  0  0
  -26.0091  -10.3624   21.1622 C   0  0  0  0  0  0  0  0  0  0  0  0
  -28.0465  -10.9532   20.5834 C   0  0  0  0  0  0  0  0  0  0  0  0
  -27.9622   -9.0678   22.2225 C   0  0  0  0  0  0  0  0  0  0  0  0
  -25.3097  -31.9912   22.7324 C   0  0  0  0  0  0  0  0  0  0  0  0
  -22.2495  -31.6314   21.7185 C   0  0  0  0  0  0  0  0  0  0  0  0
  -19.9345  -29.6967   20.1233 C   0  0  0  0  0  0  0  0  0  0  0  0
  -27.8880  -16.2883   18.6571 C   0  0  0  0  0  0  0  0  0  0  0  0
  -24.5060  -35.7943   26.0412 C   0  0  0  0  0  0  0  0  0  0  0  0
  -25.6501  -31.3942   20.3068 C   0  0  0  0  0  0  0  0  0  0  0  0
  -23.7185  -29.5824   21.6225 C   0  0  0  0  0  0  0  0  0  0  0  0
  -23.8222  -34.4693   25.7137 C   0  0  0  0  0  0  0  0  0  0  0  0
  -26.9134  -13.6701   16.6215 C   0  0  0  0  0  0  0  0  0  0  0  0
  -24.8462  -33.3401   25.6561 C   0  0  0  0  0  0  0  0  0  0  0  0
  -26.7122  -12.5087   17.5947 C   0  0  0  0  0  0  0  0  0  0  0  0
  -26.3063  -18.5245   20.8515 C   0  0  0  0  0  0  0  0  0  0  0  0
  -28.6455  -19.2694   20.2329 C   0  0  0  0  0  0  0  0  0  0  0  0
  -26.3750  -14.9710   17.2057 C   0  0  0  0  0  0  0  0  0  0  0  0
  -26.7792  -17.0689   20.7977 C   0  0  0  0  0  0  0  0  0  0  0  0
  -29.0682  -17.8032   20.2194 C   0  0  0  0  0  0  0  0  0  0  0  0
  -26.7749  -14.1771   19.5139 C   0  0  0  0  0  0  0  0  0  0  0  0
  -27.4594  -19.4862   21.1901 C   0  0  0  0  0  0  0  0  0  0  0  0
  -25.8807  -33.5894   24.5519 C   0  0  1  0  0  0  0  0  0  0  0  0
  -24.6788  -31.8927   21.3723 C   0  0  1  0  0  0  0  0  0  0  0  0
  -27.3091  -12.8343   18.9753 C   0  0  1  0  0  0  0  0  0  0  0  0
  -25.5661  -23.4352   18.7799 C   0  0  0  0  0  0  0  0  0  0  0  0
  -26.7268  -23.8139   23.6513 C   0  0  0  0  0  0  0  0  0  0  0  0
  -17.5081  -29.6520   19.4844 C   0  0  0  0  0  0  0  0  0  0  0  0
  -21.5054  -30.9616   24.6008 C   0  0  0  0  0  0  0  0  0  0  0  0
  -19.3463  -30.0209   23.7513 C   0  0  0  0  0  0  0  0  0  0  0  0
  -19.8694  -32.4369   23.4169 C   0  0  0  0  0  0  0  0  0  0  0  0
  -20.5772  -29.5773   17.2368 C   0  0  0  0  0  0  0  0  0  0  0  0
  -26.6096  -20.4745   24.3809 C   0  0  0  0  0  0  0  0  0  0  0  0
  -25.7020  -25.0163   21.2213 C   0  0  0  0  0  0  0  0  0  1  0  0
  -21.1117  -30.7007   22.0625 C   0  0  1  0  0  0  0  0  0  0  0  0
  -18.9158  -30.0262   19.0471 C   0  0  2  0  0  0  0  0  0  0  0  0
  -20.4831  -31.0202   23.4482 C   0  0  0  0  0  0  0  0  0  0  0  0
  -25.8337  -11.3653   20.2976 N   0  0  0  0  0  0  0  0  0  0  0  0
  -27.0908  -11.7035   19.9637 N   0  0  0  0  0  0  0  0  0  0  0  0
  -23.5006  -31.0340   21.5093 N   0  0  0  0  0  0  0  0  0  0  0  0
  -26.9628  -15.2429   18.5174 N   0  0  0  0  0  0  0  0  0  0  0  0
  -27.9367  -16.9320   19.9028 N   0  0  0  0  0  0  0  0  0  0  0  0
  -29.3618  -11.1601   20.3611 N   0  0  0  0  0  0  0  0  0  0  0  0
  -27.1187   -8.2361   22.9716 N   0  0  0  0  0  0  0  0  0  0  0  0
  -25.3229  -33.2703   23.2552 N   0  0  0  0  0  0  0  0  0  0  0  0
  -20.1724  -30.7753   20.9487 N   0  0  0  0  0  0  0  0  0  0  0  0
  -19.2304  -29.2864   17.7922 N   0  3  0  0  0  0  0  0  0  0  0  0
  -29.2052   -8.9317   22.3223 O   0  0  0  0  0  0  0  0  0  0  0  0
  -25.7506  -30.9813   23.2685 O   0  0  0  0  0  0  0  0  0  0  0  0
  -22.0346  -32.8429   21.6313 O   0  0  0  0  0  0  0  0  0  0  0  0
  -20.4633  -28.5919   20.2241 O   0  0  0  0  0  0  0  0  0  0  0  0
  -28.6277  -16.6268   17.7246 O   0  0  0  0  0  0  0  0  0  0  0  0
  -21.5847   -7.8505   23.4821 O   0  0  0  0  0  0  0  0  0  0  0  0
  -27.5554  -21.1177   23.5304 O   0  0  0  0  0  0  0  0  0  0  0  0
  -26.6779  -25.8193   20.5721 O   0  0  0  0  0  0  0  0  0  1  0  0
  -21.5901   -2.3404   23.6872 F   0  0  0  0  0  0  0  0  0  0  0  0
  -19.6027   -6.3828   22.2330 F   0  0  0  0  0  0  0  0  0  0  0  0
  1  2  1  0  0  0  0
  1  5  2  0  0  0  0
  2  6  2  0  0  0  0
  3  8  2  0  0  0  0
  3 16  1  0  0  0  0
  4  9  1  0  0  0  0
  4 16  2  0  0  0  0
  5 18  1  0  0  0  0
  6 20  1  0  0  0  0
  7 10  2  0  0  0  0
  7 19  1  0  0  0  0
  8 26  1  0  0  0  0
  9 26  2  0  0  0  0
 10 27  1  0  0  0  0
 11 12  2  0  0  0  0
 11 28  1  0  0  0  0
 12 30  1  0  0  0  0
 13 21  1  0  0  0  0
 13 23  2  0  0  0  0
 14 22  1  0  0  0  0
 14 27  2  0  0  0  0
 15 30  2  0  0  0  0
 15 31  1  0  0  0  0
 16 32  1  0  0  0  0
 17 32  1  0  0  0  0
 17 33  2  0  0  0  0
 17 34  1  0  0  0  0
 18 20  2  0  0  0  0
 18 39  1  0  0  0  0
 19 22  2  0  0  0  0
 19 40  1  0  0  0  0
 20 53  1  0  0  0  0
 21 29  2  0  0  0  0
 21 52  1  0  0  0  0
 22 41  1  0  0  0  0
 23 24  1  0  0  0  0
 23 56  1  0  0  0  0
 24 25  2  0  0  0  0
 24 64  1  0  0  0  0
 25 29  1  0  0  0  0
 25 57  1  0  0  0  0
 26 83  1  0  0  0  0
 27 85  1  0  0  0  0
 28 31  2  0  0  0  0
 28 83  1  0  0  0  0
 29 84  1  0  0  0  0
 30 86  1  0  0  0  0
 31 87  1  0  0  0  0
 32 68  2  0  0  0  0
 33 69  1  0  0  0  0
 33 73  1  0  0  0  0
 34 74  1  0  0  0  0
 34 78  2  0  0  0  0
 35 54  1  0  0  0  0
 35 75  1  0  0  0  0
 35 79  2  0  0  0  0
 36 65  1  0  0  0  0
 36 70  1  0  0  0  0
 36 80  2  0  0  0  0
 37 66  1  0  0  0  0
 37 76  1  0  0  0  0
 37 81  2  0  0  0  0
 38 71  1  0  0  0  0
 38 72  1  0  0  0  0
 38 82  2  0  0  0  0
 39 42  1  0  0  0  0
 40 54  1  0  0  0  0
 41 70  1  0  0  0  0
 42 44  1  0  0  0  0
 43 45  1  0  0  0  0
 43 48  1  0  0  0  0
 44 53  1  0  0  0  0
 45 55  1  0  0  0  0
 46 49  1  0  0  0  0
 46 52  1  0  0  0  0
 47 50  1  0  0  0  0
 47 52  1  0  0  0  0
 48 71  1  0  0  0  0
 49 72  1  0  0  0  0
 50 72  1  0  0  0  0
 51 55  1  0  0  0  0
 51 71  1  0  0  0  0
 53 75  1  0  0  0  0
 54 70  1  0  0  0  0
 55 69  1  0  0  0  0
 58 66  1  0  0  0  0
 59 67  1  0  0  0  0
 60 67  1  0  0  0  0
 61 67  1  0  0  0  0
 62 77  1  0  0  0  0
 63 84  1  0  0  0  0
 64 85  1  0  0  0  0
 65 67  1  0  0  0  0
 65 76  1  0  0  0  0
 66 77  1  0  0  0  0
 68 69  1  0  0  0  0
M  CHG  1  77   1
M  ISO  4  38 100  64 101  72 100  85 101
M  END
> <Batch ID>
0161

> <Smiles>
CNC(C)C(=O)NC(C(=O)N1Cc2cc([101O:1][101CH2:1]c3c(C)cc(C4CC[100N:0]([100C:0](=O)N5CCCC(n6nc(-c7ccc(Oc8ccc(F)cc8F)cc7)c(C(N)=O)c6N)C5)CC4)c(OC)c3C)ccc2CC1C(=O)NC1CCCc2ccccc21)C(C)(C)C

> <Shape>
0.260

> <Color>
0.078

> <Negative vol penalty>
0.000

$$$$

  -OEChem-04052322123D

 89 98  0     1  0  0  0  0  0999 V2000
  -21.7435  -12.3556   19.5229 C   0  0  0  0  0  0  0  0  0  0  0  0
  -21.6801  -13.5902   20.1610 C   0  0  0  0  0  0  0  0  0  0  0  0
  -23.2469  -24.9676   16.7870 C   0  0  0  0  0  0  0  0  0  0  0  0
  -25.5520  -25.4426   16.2414 C   0  0  0  0  0  0  0  0  0  0  0  0
  -22.9565  -11.6724   19.4479 C   0  0  0  0  0  0  0  0  0  0  0  0
  -22.8297  -14.1418   20.7255 C   0  0  0  0  0  0  0  0  0  0  0  0
  -23.3533  -19.0626   19.6498 C   0  0  0  0  0  0  0  0  0  0  0  0
  -23.0225  -24.5495   15.4753 C   0  0  0  0  0  0  0  0  0  0  0  0
  -25.3277  -25.0245   14.9297 C   0  0  0  0  0  0  0  0  0  0  0  0
  -22.5737  -19.9600   20.3782 C   0  0  0  0  0  0  0  0  0  0  0  0
  -25.4544  -23.7422   11.5300 C   0  0  0  0  0  0  0  0  0  0  0  0
  -26.4040  -22.9052   10.9440 C   0  0  0  0  0  0  0  0  0  0  0  0
  -24.4663  -20.4469   21.7924 C   0  0  0  0  0  0  0  0  0  0  0  0
  -26.0195  -21.2599   12.6709 C   0  0  0  0  0  0  0  0  0  0  0  0
  -24.5116  -25.4142   17.1700 C   0  0  0  0  0  0  0  0  0  0  0  0
  -21.2514  -30.3137   21.7800 C   0  0  0  0  0  0  0  0  0  0  0  0
  -25.1641  -25.0545   19.6098 C   0  0  0  0  0  0  0  0  0  0  0  0
  -24.1235  -12.2204   20.0034 C   0  0  0  0  0  0  0  0  0  0  0  0
  -24.6945  -18.8421   19.9946 C   0  0  0  0  0  0  0  0  0  0  0  0
  -24.0592  -13.4647   20.6591 C   0  0  0  0  0  0  0  0  0  0  0  0
  -25.2615  -19.5481   21.0652 C   0  0  0  0  0  0  0  0  0  0  0  0
  -21.0135  -29.3860   22.7808 C   0  0  0  0  0  0  0  0  0  0  0  0
  -19.8429  -28.6230   22.7923 C   0  0  0  0  0  0  0  0  0  0  0  0
  -20.2962  -30.4616   20.7722 C   0  0  0  0  0  0  0  0  0  0  0  0
  -18.8844  -28.7707   21.8032 C   0  0  0  0  0  0  0  0  0  0  0  0
  -19.1206  -29.6952   20.7838 C   0  0  0  0  0  0  0  0  0  0  0  0
  -24.0629  -24.5779   14.5467 C   0  0  0  0  0  0  0  0  0  0  0  0
  -23.1293  -20.6502   21.4515 C   0  0  0  0  0  0  0  0  0  0  0  0
  -24.7875  -23.3380   12.6866 C   0  0  0  0  0  0  0  0  0  0  0  0
  -26.6865  -21.6641   11.5144 C   0  0  0  0  0  0  0  0  0  0  0  0
  -25.0700  -22.0969   13.2570 C   0  0  0  0  0  0  0  0  0  0  0  0
  -24.7438  -25.8468   18.5246 C   0  0  0  0  0  0  0  0  0  0  0  0
  -25.2349  -25.9292   20.6664 C   0  0  0  0  0  0  0  0  0  0  0  0
  -22.4789  -31.1199   21.7902 C   0  0  0  0  0  0  0  0  0  0  0  0
  -25.4639  -23.6533   19.6583 C   0  0  0  0  0  0  0  0  0  0  0  0
  -26.3756  -16.3266   20.9694 C   0  0  0  0  0  0  0  0  0  0  0  0
  -28.8769  -18.3684   20.6585 C   0  0  0  0  0  0  0  0  0  0  0  0
  -29.9926  -21.5928   20.5816 C   0  0  0  0  0  0  0  0  0  0  0  0
  -25.4019  -11.4228   19.9388 C   0  0  0  0  0  0  0  0  0  0  0  0
  -25.5295  -17.8906   19.1823 C   0  0  0  0  0  0  0  0  0  0  0  0
  -21.8701  -29.0808   23.9701 C   0  0  0  0  0  0  0  0  0  0  0  0
  -19.7929  -27.7269   23.9906 C   0  0  0  0  0  0  0  0  0  0  0  0
  -26.7021  -19.3624   21.4634 C   0  0  0  0  0  0  0  0  0  0  0  0
  -26.6509  -12.2491   20.2347 C   0  0  0  0  0  0  0  0  0  0  0  0
  -25.9999  -30.5450   21.6744 C   0  0  0  0  0  0  0  0  0  0  0  0
  -26.4381  -13.1135   21.4734 C   0  0  0  0  0  0  0  0  0  0  0  0
  -26.1198  -29.2096   20.9378 C   0  0  0  0  0  0  0  0  0  0  0  0
  -24.8467  -31.3859   21.1326 C   0  0  0  0  0  0  0  0  0  0  0  0
  -23.6573  -29.3565   20.3763 C   0  0  0  0  0  0  0  0  0  0  0  0
  -25.2895  -14.1072   21.2620 C   0  0  1  0  0  0  0  0  0  0  0  0
  -26.7414  -17.3605   19.9423 C   0  0  1  0  0  0  0  0  0  0  0  0
  -24.7762  -28.4565   20.9260 C   0  0  1  0  0  0  0  0  0  0  0  0
  -21.2718  -27.7358   24.4718 C   0  0  2  0  0  0  0  0  0  0  0  0
  -20.5242  -31.4508   19.6710 C   0  0  0  0  0  0  0  0  0  0  0  0
  -17.6320  -27.9612   21.8357 C   0  0  0  0  0  0  0  0  0  0  0  0
  -18.1067  -29.8734   19.6965 C   0  0  0  0  0  0  0  0  0  0  0  0
  -21.3502  -27.6392   25.9986 C   0  0  0  0  0  0  0  0  0  0  0  0
  -32.0937  -22.9452   20.3505 C   0  0  0  0  0  0  0  0  0  0  0  0
  -22.6154  -20.3522   24.2557 C   0  0  0  0  0  0  0  0  0  0  0  0
  -29.6292  -17.6870   23.5360 C   0  0  0  0  0  0  0  0  0  0  0  0
  -31.0984  -19.7140   23.5584 C   0  0  0  0  0  0  0  0  0  0  0  0
  -31.5662  -17.8543   21.9630 C   0  0  0  0  0  0  0  0  0  0  0  0
  -29.0108  -22.9120   18.1209 C   0  0  0  0  0  0  0  0  0  0  0  0
  -22.0283  -26.5654   23.8648 C   0  0  0  0  0  0  0  0  0  0  0  0
  -21.4356  -25.2376   24.3089 C   0  0  0  0  0  0  0  0  0  0  0  0
  -21.7931  -22.7716   24.1367 C   0  0  0  0  0  0  0  0  0  0  0  0
  -29.5707  -19.3552   21.5663 C   0  0  1  0  0  0  0  0  0  0  0  0
  -30.9180  -22.3157   19.6196 C   0  0  2  0  0  0  0  0  0  0  0  0
  -22.6970  -21.6959   23.5433 C   0  0  2  0  0  0  0  0  0  1  0  0
  -30.4384  -18.6549   22.6499 C   0  0  0  0  0  0  0  0  0  0  0  0
  -24.5603  -27.1263   18.8610 N   0  0  0  0  0  0  0  0  0  0  0  0
  -24.8666  -27.1448   20.1694 N   0  0  0  0  0  0  0  0  0  0  0  0
  -23.6026  -30.6173   21.1298 N   0  0  0  0  0  0  0  0  0  0  0  0
  -27.4758  -18.4165   20.6422 N   0  0  0  0  0  0  0  0  0  0  0  0
  -25.5754  -25.7694   21.9629 N   0  0  0  0  0  0  0  0  0  0  0  0
  -25.3393  -22.9023   18.4815 N   0  0  0  0  0  0  0  0  0  0  0  0
  -25.7285  -15.2218   20.4498 N   0  0  0  0  0  0  0  0  0  0  0  0
  -30.3161  -20.2572   20.6950 N   0  0  0  0  0  0  0  0  0  0  0  0
  -30.1797  -23.3929   18.9016 N   0  3  0  0  0  0  0  0  0  0  0  0
  -22.2367  -24.1271   23.7263 N   0  3  0  0  0  0  0  0  0  0  0  0
  -22.4233  -32.1868   22.3999 O   0  0  0  0  0  0  0  0  0  0  0  0
  -25.8155  -23.0808   20.7176 O   0  0  0  0  0  0  0  0  0  0  0  0
  -26.6607  -16.5165   22.1460 O   0  0  0  0  0  0  0  0  0  0  0  0
  -29.5535  -17.5887   19.9833 O   0  0  0  0  0  0  0  0  0  0  0  0
  -29.0769  -22.1572   21.1760 O   0  0  0  0  0  0  0  0  0  0  0  0
  -23.8445  -24.1698   13.2667 O   0  0  0  0  0  0  0  0  0  0  0  0
  -22.3704  -21.5263   22.1645 O   0  0  0  0  0  0  0  0  0  1  0  0
  -27.5973  -20.8598   10.9506 F   0  0  0  0  0  0  0  0  0  0  0  0
  -24.4316  -21.7027   14.3673 F   0  0  0  0  0  0  0  0  0  0  0  0
  1  2  1  0  0  0  0
  1  5  2  0  0  0  0
  2  6  2  0  0  0  0
  3  8  2  0  0  0  0
  3 15  1  0  0  0  0
  4  9  1  0  0  0  0
  4 15  2  0  0  0  0
  5 18  1  0  0  0  0
  6 20  1  0  0  0  0
  7 10  2  0  0  0  0
  7 19  1  0  0  0  0
  8 27  1  0  0  0  0
  9 27  2  0  0  0  0
 10 28  1  0  0  0  0
 11 12  2  0  0  0  0
 11 29  1  0  0  0  0
 12 30  1  0  0  0  0
 13 21  1  0  0  0  0
 13 28  2  0  0  0  0
 14 30  2  0  0  0  0
 14 31  1  0  0  0  0
 15 32  1  0  0  0  0
 16 22  1  0  0  0  0
 16 24  2  0  0  0  0
 16 34  1  0  0  0  0
 17 32  1  0  0  0  0
 17 33  2  0  0  0  0
 17 35  1  0  0  0  0
 18 20  2  0  0  0  0
 18 39  1  0  0  0  0
 19 21  2  0  0  0  0
 19 40  1  0  0  0  0
 20 50  1  0  0  0  0
 21 43  1  0  0  0  0
 22 23  2  0  0  0  0
 22 41  1  0  0  0  0
 23 25  1  0  0  0  0
 23 42  1  0  0  0  0
 24 26  1  0  0  0  0
 24 54  1  0  0  0  0
 25 26  2  0  0  0  0
 25 55  1  0  0  0  0
 26 56  1  0  0  0  0
 27 86  1  0  0  0  0
 28 87  1  0  0  0  0
 29 31  2  0  0  0  0
 29 86  1  0  0  0  0
 30 88  1  0  0  0  0
 31 89  1  0  0  0  0
 32 71  2  0  0  0  0
 33 72  1  0  0  0  0
 33 75  1  0  0  0  0
 34 73  1  0  0  0  0
 34 81  2  0  0  0  0
 35 76  1  0  0  0  0
 35 82  2  0  0  0  0
 36 51  1  0  0  0  0
 36 77  1  0  0  0  0
 36 83  2  0  0  0  0
 37 67  1  0  0  0  0
 37 74  1  0  0  0  0
 37 84  2  0  0  0  0
 38 68  1  0  0  0  0
 38 78  1  0  0  0  0
 38 85  2  0  0  0  0
 39 44  1  0  0  0  0
 40 51  1  0  0  0  0
 41 53  1  0  0  0  0
 42 53  1  0  0  0  0
 43 74  1  0  0  0  0
 44 46  1  0  0  0  0
 45 47  1  0  0  0  0
 45 48  1  0  0  0  0
 46 50  1  0  0  0  0
 47 52  1  0  0  0  0
 48 73  1  0  0  0  0
 49 52  1  0  0  0  0
 49 73  1  0  0  0  0
 50 77  1  0  0  0  0
 51 74  1  0  0  0  0
 52 72  1  0  0  0  0
 53 57  1  0  0  0  0
 53 64  1  0  0  0  0
 58 68  1  0  0  0  0
 59 69  1  0  0  0  0
 60 70  1  0  0  0  0
 61 70  1  0  0  0  0
 62 70  1  0  0  0  0
 63 79  1  0  0  0  0
 64 65  1  0  0  0  0
 65 80  1  0  0  0  0
 66 69  1  0  0  0  0
 66 80  1  0  0  0  0
 67 70  1  0  0  0  0
 67 78  1  0  0  0  0
 68 79  1  0  0  0  0
 69 87  1  0  0  0  0
 71 72  1  0  0  0  0
M  CHG  2  79   1  80   1
M  ISO  4  16 100  34 100  69 101  87 101
M  END
> <Batch ID>
0161

> <Smiles>
CNC(C)C(=O)NC(C(=O)N1Cc2cc([101O:1][101CH:1](C)CNCCC3(C)Cc4c(C)c(C)c(C)[100c:0]([100C:0](=O)N5CCCC(n6nc(-c7ccc(Oc8ccc(F)cc8F)cc7)c(C(N)=O)c6N)C5)c4C3)ccc2CC1C(=O)NC1CCCc2ccccc21)C(C)(C)C

> <Shape>
0.202

> <Color>
0.066

> <Negative vol penalty>
0.000

$$$$

  -OEChem-04052322123D

 89 98  0     1  0  0  0  0  0999 V2000
  -15.3228  -27.4395   23.2120 C   0  0  0  0  0  0  0  0  0  0  0  0
  -16.4221  -26.7942   22.6546 C   0  0  0  0  0  0  0  0  0  0  0  0
  -22.7194  -11.1760   19.3039 C   0  0  0  0  0  0  0  0  0  0  0  0
  -23.3650   -9.7883   21.1733 C   0  0  0  0  0  0  0  0  0  0  0  0
  -15.3252  -28.8272   23.3470 C   0  0  0  0  0  0  0  0  0  0  0  0
  -17.5239  -27.5364   22.2310 C   0  0  0  0  0  0  0  0  0  0  0  0
  -21.9216  -25.4817   23.6745 C   0  0  0  0  0  0  0  0  0  0  0  0
  -21.7258  -10.2574   18.9652 C   0  0  0  0  0  0  0  0  0  0  0  0
  -22.3714   -8.8698   20.8346 C   0  0  0  0  0  0  0  0  0  0  0  0
  -22.3849  -24.3895   22.9423 C   0  0  0  0  0  0  0  0  0  0  0  0
  -21.9321   -6.3960   18.5722 C   0  0  0  0  0  0  0  0  0  0  0  0
  -22.2711   -5.0431   18.5779 C   0  0  0  0  0  0  0  0  0  0  0  0
  -23.8845  -25.8428   21.7347 C   0  0  0  0  0  0  0  0  0  0  0  0
  -24.5433  -20.5977   18.2031 C   0  0  0  0  0  0  0  0  0  0  0  0
  -26.4795  -22.0241   19.6170 C   0  0  0  0  0  0  0  0  0  0  0  0
  -20.5824   -4.6270   20.2549 C   0  0  0  0  0  0  0  0  0  0  0  0
  -23.5390  -10.9414   20.4079 C   0  0  0  0  0  0  0  0  0  0  0  0
  -24.4438  -12.9951   21.6210 C   0  0  0  0  0  0  0  0  0  0  0  0
  -16.4316  -29.5859   22.9336 C   0  0  0  0  0  0  0  0  0  0  0  0
  -22.4294  -26.7666   23.4344 C   0  0  0  0  0  0  0  0  0  0  0  0
  -17.5405  -28.9356   22.3593 C   0  0  0  0  0  0  0  0  0  0  0  0
  -23.4279  -26.9492   22.4670 C   0  0  0  0  0  0  0  0  0  0  0  0
  -25.8558  -20.1286   18.2549 C   0  0  0  0  0  0  0  0  0  0  0  0
  -24.1988  -21.7801   18.8582 C   0  0  0  0  0  0  0  0  0  0  0  0
  -26.8239  -20.8418   18.9618 C   0  0  0  0  0  0  0  0  0  0  0  0
  -25.1669  -22.4932   19.5652 C   0  0  0  0  0  0  0  0  0  0  0  0
  -21.5518   -9.1044   19.7305 C   0  0  0  0  0  0  0  0  0  0  0  0
  -23.3644  -24.5704   21.9702 C   0  0  0  0  0  0  0  0  0  0  0  0
  -20.9182   -6.8646   19.4079 C   0  0  0  0  0  0  0  0  0  0  0  0
  -21.5963   -4.1585   19.4192 C   0  0  0  0  0  0  0  0  0  0  0  0
  -20.2434   -5.9800   20.2492 C   0  0  0  0  0  0  0  0  0  0  0  0
  -24.5659  -11.8896   20.7580 C   0  0  0  0  0  0  0  0  0  0  0  0
  -25.6905  -13.5714   21.6193 C   0  0  0  0  0  0  0  0  0  0  0  0
  -23.3052  -13.4594   22.3584 C   0  0  0  0  0  0  0  0  0  0  0  0
  -21.1879  -29.5203   22.4446 C   0  0  0  0  0  0  0  0  0  0  0  0
  -24.1557  -30.6488   23.1088 C   0  0  0  0  0  0  0  0  0  0  0  0
  -27.4830  -29.9973   23.4982 C   0  0  0  0  0  0  0  0  0  0  0  0
  -30.0677  -15.3665   18.5503 C   0  0  0  0  0  0  0  0  0  0  0  0
  -16.3686  -31.0878   23.0563 C   0  0  0  0  0  0  0  0  0  0  0  0
  -21.9383  -27.9302   24.2513 C   0  0  0  0  0  0  0  0  0  0  0  0
  -24.0202  -28.3050   22.1849 C   0  0  0  0  0  0  0  0  0  0  0  0
  -17.7294  -31.7671   22.9267 C   0  0  0  0  0  0  0  0  0  0  0  0
  -30.1016  -11.9110   19.7853 C   0  0  0  0  0  0  0  0  0  0  0  0
  -18.4962  -31.2033   21.7346 C   0  0  0  0  0  0  0  0  0  0  0  0
  -28.6408  -11.6773   20.1739 C   0  0  0  0  0  0  0  0  0  0  0  0
  -30.2356  -12.9050   18.6338 C   0  0  0  0  0  0  0  0  0  0  0  0
  -29.4913  -16.4638   20.7936 C   0  0  0  0  0  0  0  0  0  0  0  0
  -28.0859  -13.9495   19.2336 C   0  0  0  0  0  0  0  0  0  0  0  0
  -30.1541  -17.8160   18.9157 C   0  0  0  0  0  0  0  0  0  0  0  0
  -18.7647  -29.7038   21.9106 C   0  0  1  0  0  0  0  0  0  0  0  0
  -22.1571  -29.2757   23.5665 C   0  0  1  0  0  0  0  0  0  0  0  0
  -30.0071  -17.8139   21.2990 C   0  0  1  0  0  0  0  0  0  0  0  0
  -27.9151  -13.0106   20.4356 C   0  0  1  0  0  0  0  0  0  0  0  0
  -29.8215  -18.7333   20.0851 C   0  0  2  0  0  0  0  0  0  0  0  0
  -26.2010  -18.8600   17.5463 C   0  0  0  0  0  0  0  0  0  0  0  0
  -22.7874  -22.2632   18.7880 C   0  0  0  0  0  0  0  0  0  0  0  0
  -29.6659  -31.1280   24.0020 C   0  0  0  0  0  0  0  0  0  0  0  0
  -29.5551  -17.2332   23.6997 C   0  0  0  0  0  0  0  0  0  0  0  0
  -29.8708  -19.6311   23.0261 C   0  0  0  0  0  0  0  0  0  0  0  0
  -24.2314  -31.7627   20.2691 C   0  0  0  0  0  0  0  0  0  0  0  0
  -26.7100  -32.0201   20.5108 C   0  0  0  0  0  0  0  0  0  0  0  0
  -25.1739  -33.2872   22.0132 C   0  0  0  0  0  0  0  0  0  0  0  0
  -27.8867  -28.3837   25.9461 C   0  0  0  0  0  0  0  0  0  0  0  0
  -28.2419  -20.3564   19.0321 C   0  0  0  0  0  0  0  0  0  0  0  0
  -24.8218  -23.7618   20.2736 C   0  0  0  0  0  0  0  0  0  1  0  0
  -25.4427  -30.7938   22.3331 C   0  0  1  0  0  0  0  0  0  0  0  0
  -28.4670  -30.3950   24.5835 C   0  0  2  0  0  0  0  0  0  0  0  0
  -29.3418  -18.2640   22.5901 C   0  0  0  0  0  0  0  0  0  0  0  0
  -25.3772  -31.9406   21.2853 C   0  0  0  0  0  0  0  0  0  0  0  0
  -25.7933  -11.7689   20.2452 N   0  0  0  0  0  0  0  0  0  0  0  0
  -26.4538  -12.8061   20.7875 N   0  0  0  0  0  0  0  0  0  0  0  0
  -23.5028  -29.4123   23.0056 N   0  0  0  0  0  0  0  0  0  0  0  0
  -29.5062  -14.1400   18.9212 N   0  0  0  0  0  0  0  0  0  0  0  0
  -29.7988  -16.4699   19.3601 N   0  0  0  0  0  0  0  0  0  0  0  0
  -26.1973  -14.6531   22.2481 N   0  0  0  0  0  0  0  0  0  0  0  0
  -22.1018  -12.7497   22.2462 N   0  0  0  0  0  0  0  0  0  0  0  0
  -19.8615  -29.4914   22.8307 N   0  0  0  0  0  0  0  0  0  0  0  0
  -26.5015  -30.9501   23.3246 N   0  0  0  0  0  0  0  0  0  0  0  0
  -28.4170  -19.1993   19.9501 N   0  3  0  0  0  0  0  0  0  0  0  0
  -28.9590  -29.1871   25.3045 N   0  3  0  0  0  0  0  0  0  0  0  0
  -23.3491  -14.4831   23.0820 O   0  0  0  0  0  0  0  0  0  0  0  0
  -21.6123  -29.7219   21.3128 O   0  0  0  0  0  0  0  0  0  0  0  0
  -23.7485  -31.5953   23.7871 O   0  0  0  0  0  0  0  0  0  0  0  0
  -27.5779  -28.9483   22.8649 O   0  0  0  0  0  0  0  0  0  0  0  0
  -30.8149  -15.4624   17.5677 O   0  0  0  0  0  0  0  0  0  0  0  0
  -20.5823   -8.2080   19.4004 O   0  0  0  0  0  0  0  0  0  0  0  0
  -23.8211  -23.4985   21.2485 O   0  0  0  0  0  0  0  0  0  1  0  0
  -21.9209   -2.8590   19.4235 F   0  0  0  0  0  0  0  0  0  0  0  0
  -19.2677   -6.4240   21.0534 F   0  0  0  0  0  0  0  0  0  0  0  0
  1  2  1  0  0  0  0
  1  5  2  0  0  0  0
  2  6  2  0  0  0  0
  3  8  2  0  0  0  0
  3 17  1  0  0  0  0
  4  9  1  0  0  0  0
  4 17  2  0  0  0  0
  5 19  1  0  0  0  0
  6 21  1  0  0  0  0
  7 10  2  0  0  0  0
  7 20  1  0  0  0  0
  8 27  1  0  0  0  0
  9 27  2  0  0  0  0
 10 28  1  0  0  0  0
 11 12  2  0  0  0  0
 11 29  1  0  0  0  0
 12 30  1  0  0  0  0
 13 22  1  0  0  0  0
 13 28  2  0  0  0  0
 14 23  2  0  0  0  0
 14 24  1  0  0  0  0
 15 25  2  0  0  0  0
 15 26  1  0  0  0  0
 16 30  2  0  0  0  0
 16 31  1  0  0  0  0
 17 32  1  0  0  0  0
 18 32  1  0  0  0  0
 18 33  2  0  0  0  0
 18 34  1  0  0  0  0
 19 21  2  0  0  0  0
 19 39  1  0  0  0  0
 20 22  2  0  0  0  0
 20 40  1  0  0  0  0
 21 50  1  0  0  0  0
 22 41  1  0  0  0  0
 23 25  1  0  0  0  0
 23 55  1  0  0  0  0
 24 26  2  0  0  0  0
 24 56  1  0  0  0  0
 25 64  1  0  0  0  0
 26 65  1  0  0  0  0
 27 86  1  0  0  0  0
 28 87  1  0  0  0  0
 29 31  2  0  0  0  0
 29 86  1  0  0  0  0
 30 88  1  0  0  0  0
 31 89  1  0  0  0  0
 32 70  2  0  0  0  0
 33 71  1  0  0  0  0
 33 75  1  0  0  0  0
 34 76  1  0  0  0  0
 34 81  2  0  0  0  0
 35 51  1  0  0  0  0
 35 77  1  0  0  0  0
 35 82  2  0  0  0  0
 36 66  1  0  0  0  0
 36 72  1  0  0  0  0
 36 83  2  0  0  0  0
 37 67  1  0  0  0  0
 37 78  1  0  0  0  0
 37 84  2  0  0  0  0
 38 73  1  0  0  0  0
 38 74  1  0  0  0  0
 38 85  2  0  0  0  0
 39 42  1  0  0  0  0
 40 51  1  0  0  0  0
 41 72  1  0  0  0  0
 42 44  1  0  0  0  0
 43 45  1  0  0  0  0
 43 46  1  0  0  0  0
 44 50  1  0  0  0  0
 45 53  1  0  0  0  0
 46 73  1  0  0  0  0
 47 52  1  0  0  0  0
 47 74  1  0  0  0  0
 48 53  1  0  0  0  0
 48 73  1  0  0  0  0
 49 54  1  0  0  0  0
 49 74  1  0  0  0  0
 50 77  1  0  0  0  0
 51 72  1  0  0  0  0
 52 54  1  0  0  0  0
 52 68  1  0  0  0  0
 53 71  1  0  0  0  0
 54 79  1  0  0  0  0
 57 67  1  0  0  0  0
 58 68  1  0  0  0  0
 59 68  1  0  0  0  0
 60 69  1  0  0  0  0
 61 69  1  0  0  0  0
 62 69  1  0  0  0  0
 63 80  1  0  0  0  0
 64 79  1  0  0  0  0
 65 87  1  0  0  0  0
 66 69  1  0  0  0  0
 66 78  1  0  0  0  0
 67 80  1  0  0  0  0
 70 71  1  0  0  0  0
M  CHG  2  79   1  80   1
M  ISO  4  38 100  65 101  74 100  87 101
M  END
> <Batch ID>
0161

> <Smiles>
CNC(C)C(=O)NC(C(=O)N1Cc2cc([101O:1][101CH2:1]c3cc(CNC4C[100N:0]([100C:0](=O)N5CCCC(n6nc(-c7ccc(Oc8ccc(F)cc8F)cc7)c(C(N)=O)c6N)C5)CC4C(C)C)c(C)cc3C)ccc2CC1C(=O)NC1CCCc2ccccc21)C(C)(C)C

> <Shape>
0.277

> <Color>
0.090

> <Negative vol penalty>
0.000

$$$$

  -OEChem-04052322123D

 91101  0     1  0  0  0  0  0999 V2000
  -23.9095  -38.3431   21.8850 C   0  0  0  0  0  0  0  0  0  0  0  0
  -24.7581  -37.5640   21.1052 C   0  0  0  0  0  0  0  0  0  0  0  0
  -24.2199   -6.4306   23.0873 C   0  0  0  0  0  0  0  0  0  0  0  0
  -21.8602   -6.1931   22.6264 C   0  0  0  0  0  0  0  0  0  0  0  0
  -23.3934  -37.8323   23.0753 C   0  0  0  0  0  0  0  0  0  0  0  0
  -25.0920  -36.2739   21.5157 C   0  0  0  0  0  0  0  0  0  0  0  0
  -26.6333  -29.7971   18.8713 C   0  0  0  0  0  0  0  0  0  0  0  0
  -24.2034   -5.2271   23.7922 C   0  0  0  0  0  0  0  0  0  0  0  0
  -21.8437   -4.9895   23.3313 C   0  0  0  0  0  0  0  0  0  0  0  0
  -27.6059  -28.8020   18.9577 C   0  0  0  0  0  0  0  0  0  0  0  0
  -21.1007   -2.0357   25.3144 C   0  0  0  0  0  0  0  0  0  0  0  0
  -20.0519   -1.8226   26.2089 C   0  0  0  0  0  0  0  0  0  0  0  0
  -27.4479  -22.5266   22.4704 C   0  0  0  0  0  0  0  0  0  0  0  0
  -26.5915  -27.9956   20.9924 C   0  0  0  0  0  0  0  0  0  0  0  0
  -20.7184   -3.7810   27.4569 C   0  0  0  0  0  0  0  0  0  0  0  0
  -23.0483   -6.9136   22.5044 C   0  0  0  0  0  0  0  0  0  0  0  0
  -23.3149   -8.3346   20.4027 C   0  0  0  0  0  0  0  0  0  0  0  0
  -23.7134  -36.5318   23.4957 C   0  0  0  0  0  0  0  0  0  0  0  0
  -25.6371  -29.9059   19.8523 C   0  0  0  0  0  0  0  0  0  0  0  0
  -24.5808  -35.7457   22.7134 C   0  0  0  0  0  0  0  0  0  0  0  0
  -28.3979  -22.7134   21.4664 C   0  0  0  0  0  0  0  0  0  0  0  0
  -25.6058  -28.9914   20.9147 C   0  0  0  0  0  0  0  0  0  0  0  0
  -27.1033  -21.2364   22.8734 C   0  0  0  0  0  0  0  0  0  0  0  0
  -29.0033  -21.6099   20.8651 C   0  0  0  0  0  0  0  0  0  0  0  0
  -28.6588  -20.3197   21.2680 C   0  0  0  0  0  0  0  0  0  0  0  0
  -27.7088  -20.1329   22.2721 C   0  0  0  0  0  0  0  0  0  0  0  0
  -23.0153   -4.5066   23.9142 C   0  0  0  0  0  0  0  0  0  0  0  0
  -27.5868  -27.9029   20.0199 C   0  0  0  0  0  0  0  0  0  0  0  0
  -21.9585   -3.1214   25.4912 C   0  0  0  0  0  0  0  0  0  0  0  0
  -19.8607   -2.6952   27.2801 C   0  0  0  0  0  0  0  0  0  0  0  0
  -21.7673   -3.9940   26.5624 C   0  0  0  0  0  0  0  0  0  0  0  0
  -23.0646   -8.1570   21.7766 C   0  0  0  0  0  0  0  0  0  0  0  0
  -23.2156   -9.6906   20.2081 C   0  0  0  0  0  0  0  0  0  0  0  0
  -23.6107   -7.3609   19.3927 C   0  0  0  0  0  0  0  0  0  0  0  0
  -24.7932  -32.1357   21.9545 C   0  0  0  0  0  0  0  0  0  0  0  0
  -22.3205  -30.1136   22.5195 C   0  0  0  0  0  0  0  0  0  0  0  0
  -21.0968  -26.9299   22.4035 C   0  0  0  0  0  0  0  0  0  0  0  0
  -24.2126  -14.7948   21.5344 C   0  0  0  0  0  0  0  0  0  0  0  0
  -23.1689  -36.0402   24.8135 C   0  0  0  0  0  0  0  0  0  0  0  0
  -24.5794  -30.9683   19.7303 C   0  0  0  0  0  0  0  0  0  0  0  0
  -24.5458  -29.0528   21.9829 C   0  0  0  0  0  0  0  0  0  0  0  0
  -23.2729  -34.5274   24.9893 C   0  0  0  0  0  0  0  0  0  0  0  0
  -21.5092  -13.3485   23.2457 C   0  0  0  0  0  0  0  0  0  0  0  0
  -30.2472  -24.4660   21.1991 C   0  0  0  0  0  0  0  0  0  0  0  0
  -24.6613  -34.0378   24.5902 C   0  0  0  0  0  0  0  0  0  0  0  0
  -21.6910  -11.8696   22.9055 C   0  0  0  0  0  0  0  0  0  0  0  0
  -30.3344  -25.9838   21.3988 C   0  0  0  0  0  0  0  0  0  0  0  0
  -25.8730  -17.1483   23.5574 C   0  0  0  0  0  0  0  0  0  0  0  0
  -25.7280  -17.8868   21.1488 C   0  0  0  0  0  0  0  0  0  0  0  0
  -28.0723  -25.2726   21.8076 C   0  0  0  0  0  0  0  0  0  0  0  0
  -22.8441  -14.0397   23.5294 C   0  0  0  0  0  0  0  0  0  0  0  0
  -24.5072  -16.4704   23.4138 C   0  0  0  0  0  0  0  0  0  0  0  0
  -24.3575  -17.2210   21.0615 C   0  0  0  0  0  0  0  0  0  0  0  0
  -24.0287  -12.3935   22.1134 C   0  0  0  0  0  0  0  0  0  0  0  0
  -28.7536  -24.1243   21.0475 C   0  0  2  0  0  0  0  0  0  0  0  0
  -24.9466  -34.3325   23.1126 C   0  0  1  0  0  0  0  0  0  0  0  0
  -23.9150  -31.3057   21.0615 C   0  0  1  0  0  0  0  0  0  0  0  0
  -22.7096  -11.6860   21.7664 C   0  0  1  0  0  0  0  0  0  0  0  0
  -26.0231  -18.3219   22.5865 C   0  0  0  0  0  0  0  0  0  0  0  0
  -28.8975  -26.4907   21.4162 C   0  0  2  0  0  0  0  0  0  1  0  0
  -26.0825  -21.0680   23.9516 C   0  0  0  0  0  0  0  0  0  0  0  0
  -30.0217  -21.8138   19.7883 C   0  0  0  0  0  0  0  0  0  0  0  0
  -29.3106  -19.1381   20.6200 C   0  0  0  0  0  0  0  0  0  0  0  0
  -19.0576  -25.5814   22.9698 C   0  0  0  0  0  0  0  0  0  0  0  0
  -23.0799  -30.2102   25.4732 C   0  0  0  0  0  0  0  0  0  0  0  0
  -21.6716  -28.1712   25.8302 C   0  0  0  0  0  0  0  0  0  0  0  0
  -20.6206  -30.2855   25.0253 C   0  0  0  0  0  0  0  0  0  0  0  0
  -20.6960  -26.1353   19.5809 C   0  0  0  0  0  0  0  0  0  0  0  0
  -22.0820  -28.9508   23.4522 C   0  0  1  0  0  0  0  0  0  0  0  0
  -19.7796  -26.3751   21.8921 C   0  0  2  0  0  0  0  0  0  0  0  0
  -21.8848  -29.4042   24.9263 C   0  0  0  0  0  0  0  0  0  0  0  0
  -22.8245   -9.3082   22.4100 N   0  0  0  0  0  0  0  0  0  0  0  0
  -22.9235  -10.2222   21.4297 N   0  0  0  0  0  0  0  0  0  0  0  0
  -23.5372  -30.1133   21.8228 N   0  0  0  0  0  0  0  0  0  0  0  0
  -23.7955  -13.8031   22.4348 N   0  0  0  0  0  0  0  0  0  0  0  0
  -24.2480  -16.1135   22.0116 N   0  0  0  0  0  0  0  0  0  0  0  0
  -23.3505  -10.4683   19.1129 N   0  0  0  0  0  0  0  0  0  0  0  0
  -23.6747   -6.0111   19.7643 N   0  0  0  0  0  0  0  0  0  0  0  0
  -27.3653  -18.8539   22.6728 N   0  0  0  0  0  0  0  0  0  0  0  0
  -24.2676  -33.3751   22.2660 N   0  0  0  0  0  0  0  0  0  0  0  0
  -20.9542  -28.2086   22.8993 N   0  0  0  0  0  0  0  0  0  0  0  0
  -20.0135  -25.4781   20.7251 N   0  3  0  0  0  0  0  0  0  0  0  0
  -23.8284   -7.6801   18.1993 O   0  0  0  0  0  0  0  0  0  0  0  0
  -25.8674  -31.6844   22.3342 O   0  0  0  0  0  0  0  0  0  0  0  0
  -21.4558  -30.9863   22.4077 O   0  0  0  0  0  0  0  0  0  0  0  0
  -22.1463  -26.2913   22.3702 O   0  0  0  0  0  0  0  0  0  0  0  0
  -24.5349  -14.5184   20.3721 O   0  0  0  0  0  0  0  0  0  0  0  0
  -22.9988   -3.3320   24.6018 O   0  0  0  0  0  0  0  0  0  0  0  0
  -28.5420  -26.9243   20.1076 O   0  0  0  0  0  0  0  0  0  1  0  0
  -18.8525   -2.4914   28.1381 F   0  0  0  0  0  0  0  0  0  0  0  0
  -22.5873   -5.0395   26.7367 F   0  0  0  0  0  0  0  0  0  0  0  0
  1  2  1  0  0  0  0
  1  5  2  0  0  0  0
  2  6  2  0  0  0  0
  3  8  2  0  0  0  0
  3 16  1  0  0  0  0
  4  9  1  0  0  0  0
  4 16  2  0  0  0  0
  5 18  1  0  0  0  0
  6 20  1  0  0  0  0
  7 10  2  0  0  0  0
  7 19  1  0  0  0  0
  8 27  1  0  0  0  0
  9 27  2  0  0  0  0
 10 28  1  0  0  0  0
 11 12  2  0  0  0  0
 11 29  1  0  0  0  0
 12 30  1  0  0  0  0
 13 21  1  0  0  0  0
 13 23  2  0  0  0  0
 14 22  1  0  0  0  0
 14 28  2  0  0  0  0
 15 30  2  0  0  0  0
 15 31  1  0  0  0  0
 16 32  1  0  0  0  0
 17 32  1  0  0  0  0
 17 33  2  0  0  0  0
 17 34  1  0  0  0  0
 18 20  2  0  0  0  0
 18 39  1  0  0  0  0
 19 22  2  0  0  0  0
 19 40  1  0  0  0  0
 20 56  1  0  0  0  0
 21 24  2  0  0  0  0
 21 55  1  0  0  0  0
 22 41  1  0  0  0  0
 23 26  1  0  0  0  0
 23 61  1  0  0  0  0
 24 25  1  0  0  0  0
 24 62  1  0  0  0  0
 25 26  2  0  0  0  0
 25 63  1  0  0  0  0
 26 79  1  0  0  0  0
 27 88  1  0  0  0  0
 28 89  1  0  0  0  0
 29 31  2  0  0  0  0
 29 88  1  0  0  0  0
 30 90  1  0  0  0  0
 31 91  1  0  0  0  0
 32 72  2  0  0  0  0
 33 73  1  0  0  0  0
 33 77  1  0  0  0  0
 34 78  1  0  0  0  0
 34 83  2  0  0  0  0
 35 57  1  0  0  0  0
 35 80  1  0  0  0  0
 35 84  2  0  0  0  0
 36 69  1  0  0  0  0
 36 74  1  0  0  0  0
 36 85  2  0  0  0  0
 37 70  1  0  0  0  0
 37 81  1  0  0  0  0
 37 86  2  0  0  0  0
 38 75  1  0  0  0  0
 38 76  1  0  0  0  0
 38 87  2  0  0  0  0
 39 42  1  0  0  0  0
 40 57  1  0  0  0  0
 41 74  1  0  0  0  0
 42 45  1  0  0  0  0
 43 46  1  0  0  0  0
 43 51  1  0  0  0  0
 44 47  1  0  0  0  0
 44 55  1  0  0  0  0
 45 56  1  0  0  0  0
 46 58  1  0  0  0  0
 47 60  1  0  0  0  0
 48 52  1  0  0  0  0
 48 59  1  0  0  0  0
 49 53  1  0  0  0  0
 49 59  1  0  0  0  0
 50 55  1  0  0  0  0
 50 60  1  0  0  0  0
 51 75  1  0  0  0  0
 52 76  1  0  0  0  0
 53 76  1  0  0  0  0
 54 58  1  0  0  0  0
 54 75  1  0  0  0  0
 56 80  1  0  0  0  0
 57 74  1  0  0  0  0
 58 73  1  0  0  0  0
 59 79  1  0  0  0  0
 60 89  1  0  0  0  0
 64 70  1  0  0  0  0
 65 71  1  0  0  0  0
 66 71  1  0  0  0  0
 67 71  1  0  0  0  0
 68 82  1  0  0  0  0
 69 71  1  0  0  0  0
 69 81  1  0  0  0  0
 70 82  1  0  0  0  0
 72 73  1  0  0  0  0
M  CHG  1  82   1
M  ISO  4  38 100  60 101  76 100  89 101
M  END
> <Batch ID>
0161

> <Smiles>
CNC(C)C(=O)NC(C(=O)N1Cc2cc([101O:1][101CH:1]3CCC(c4cc(C)c(NC5CC[100N:0]([100C:0](=O)N6CCCC(n7nc(-c8ccc(Oc9ccc(F)cc9F)cc8)c(C(N)=O)c7N)C6)CC5)c(C)c4C)C3)ccc2CC1C(=O)NC1CCCc2ccccc21)C(C)(C)C

> <Shape>
0.282

> <Color>
0.075

> <Negative vol penalty>
0.000

$$$$

  -OEChem-04052322123D

 86 95  0     1  0  0  0  0  0999 V2000
  -14.1175  -30.5586   15.7938 C   0  0  0  0  0  0  0  0  0  0  0  0
  -14.5264  -29.2923   15.3879 C   0  0  0  0  0  0  0  0  0  0  0  0
  -23.1949   -9.8161   19.9281 C   0  0  0  0  0  0  0  0  0  0  0  0
  -23.5433  -10.0025   22.3115 C   0  0  0  0  0  0  0  0  0  0  0  0
  -14.9001  -31.2897   16.6866 C   0  0  0  0  0  0  0  0  0  0  0  0
  -15.7188  -28.7569   15.8736 C   0  0  0  0  0  0  0  0  0  0  0  0
  -18.7049  -22.4983   17.6707 C   0  0  0  0  0  0  0  0  0  0  0  0
  -22.4232   -8.6719   20.1304 C   0  0  0  0  0  0  0  0  0  0  0  0
  -22.7716   -8.8583   22.5138 C   0  0  0  0  0  0  0  0  0  0  0  0
  -19.8449  -21.7367   17.4174 C   0  0  0  0  0  0  0  0  0  0  0  0
  -23.1679   -5.5099   22.2646 C   0  0  0  0  0  0  0  0  0  0  0  0
  -23.6527   -4.5500   23.1529 C   0  0  0  0  0  0  0  0  0  0  0  0
  -24.7040  -17.5719   17.2562 C   0  0  0  0  0  0  0  0  0  0  0  0
  -21.0757  -23.0582   19.0167 C   0  0  0  0  0  0  0  0  0  0  0  0
  -21.6792   -4.8188   24.5204 C   0  0  0  0  0  0  0  0  0  0  0  0
  -23.7550  -10.4814   21.0187 C   0  0  0  0  0  0  0  0  0  0  0  0
  -24.1029  -12.9965   20.7719 C   0  0  0  0  0  0  0  0  0  0  0  0
  -16.0978  -30.7590   17.1910 C   0  0  0  0  0  0  0  0  0  0  0  0
  -18.7447  -23.5543   18.5924 C   0  0  0  0  0  0  0  0  0  0  0  0
  -16.5188  -29.4821   16.7729 C   0  0  0  0  0  0  0  0  0  0  0  0
  -25.7703  -18.1560   16.5725 C   0  0  0  0  0  0  0  0  0  0  0  0
  -19.9342  -23.8300   19.2818 C   0  0  0  0  0  0  0  0  0  0  0  0
  -23.4872  -18.2463   17.3576 C   0  0  0  0  0  0  0  0  0  0  0  0
  -25.6198  -19.4145   15.9903 C   0  0  0  0  0  0  0  0  0  0  0  0
  -24.4031  -20.0890   16.0917 C   0  0  0  0  0  0  0  0  0  0  0  0
  -23.3367  -19.5048   16.7753 C   0  0  0  0  0  0  0  0  0  0  0  0
  -22.2115   -8.1930   21.4232 C   0  0  0  0  0  0  0  0  0  0  0  0
  -21.0313  -22.0184   18.0883 C   0  0  0  0  0  0  0  0  0  0  0  0
  -21.9387   -6.1244   22.5043 C   0  0  0  0  0  0  0  0  0  0  0  0
  -22.9084   -4.2044   24.2808 C   0  0  0  0  0  0  0  0  0  0  0  0
  -21.1944   -5.7788   23.6322 C   0  0  0  0  0  0  0  0  0  0  0  0
  -24.5527  -11.6631   20.8103 C   0  0  0  0  0  0  0  0  0  0  0  0
  -25.2388  -13.7357   20.5489 C   0  0  0  0  0  0  0  0  0  0  0  0
  -22.7769  -13.5201   20.9244 C   0  0  0  0  0  0  0  0  0  0  0  0
  -18.2998  -26.6971   18.4236 C   0  0  0  0  0  0  0  0  0  0  0  0
  -18.5960  -26.5197   21.6490 C   0  0  0  0  0  0  0  0  0  0  0  0
  -19.7937  -24.8271   24.3596 C   0  0  0  0  0  0  0  0  0  0  0  0
  -30.0140  -14.6689   18.0508 C   0  0  0  0  0  0  0  0  0  0  0  0
  -16.9339  -31.6061   18.1172 C   0  0  0  0  0  0  0  0  0  0  0  0
  -17.4993  -24.3493   18.8741 C   0  0  0  0  0  0  0  0  0  0  0  0
  -20.0240  -24.9399   20.2959 C   0  0  0  0  0  0  0  0  0  0  0  0
  -17.9955  -30.8135   18.8756 C   0  0  0  0  0  0  0  0  0  0  0  0
  -30.1159  -12.4267   20.6801 C   0  0  0  0  0  0  0  0  0  0  0  0
  -18.7440  -29.8814   17.9282 C   0  0  0  0  0  0  0  0  0  0  0  0
  -28.6426  -12.1274   20.9575 C   0  0  0  0  0  0  0  0  0  0  0  0
  -28.0459  -17.7729   17.6184 C   0  0  0  0  0  0  0  0  0  0  0  0
  -26.8690  -15.8781   16.4245 C   0  0  0  0  0  0  0  0  0  0  0  0
  -30.3866  -12.4968   19.1814 C   0  0  0  0  0  0  0  0  0  0  0  0
  -29.3525  -16.9884   17.5267 C   0  0  0  0  0  0  0  0  0  0  0  0
  -28.2015  -15.1377   16.3581 C   0  0  0  0  0  0  0  0  0  0  0  0
  -28.0607  -13.2034   18.7286 C   0  0  0  0  0  0  0  0  0  0  0  0
  -27.0830  -17.4012   16.4776 C   0  0  0  0  0  0  0  0  0  0  0  0
  -17.7935  -28.8570   17.2969 C   0  0  1  0  0  0  0  0  0  0  0  0
  -17.7902  -25.7299   19.4543 C   0  0  1  0  0  0  0  0  0  0  0  0
  -27.7293  -13.1318   20.2327 C   0  0  1  0  0  0  0  0  0  0  0  0
  -22.3609  -17.5982   18.0943 C   0  0  0  0  0  0  0  0  0  0  0  0
  -26.7650  -20.0387   15.2574 C   0  0  0  0  0  0  0  0  0  0  0  0
  -24.2415  -21.4388   15.4666 C   0  0  0  0  0  0  0  0  0  0  0  0
  -19.9109  -24.9479   26.8634 C   0  0  0  0  0  0  0  0  0  0  0  0
  -20.7648  -28.6559   21.4419 C   0  0  0  0  0  0  0  0  0  0  0  0
  -21.4829  -28.0527   23.7633 C   0  0  0  0  0  0  0  0  0  0  0  0
  -19.1903  -28.9505   23.3625 C   0  0  0  0  0  0  0  0  0  0  0  0
  -18.3039  -22.2885   24.6677 C   0  0  0  0  0  0  0  0  0  0  0  0
  -22.0309  -20.2262   16.8863 C   0  0  0  0  0  0  0  0  0  1  0  0
  -19.7469  -26.5978   22.6228 C   0  0  1  0  0  0  0  0  0  0  0  0
  -19.1349  -24.4220   25.6659 C   0  0  2  0  0  0  0  0  0  0  0  0
  -20.2954  -28.0445   22.7771 C   0  0  0  0  0  0  0  0  0  0  0  0
  -25.8714  -11.5582   20.6262 N   0  0  0  0  0  0  0  0  0  0  0  0
  -26.2601  -12.8352   20.4699 N   0  0  0  0  0  0  0  0  0  0  0  0
  -18.7810  -25.6928   20.5319 N   0  0  0  0  0  0  0  0  0  0  0  0
  -29.4955  -13.4560   18.5292 N   0  0  0  0  0  0  0  0  0  0  0  0
  -29.1059  -15.5496   17.4403 N   0  0  0  0  0  0  0  0  0  0  0  0
  -25.4536  -15.0617   20.4145 N   0  0  0  0  0  0  0  0  0  0  0  0
  -21.7251  -12.6210   21.1477 N   0  0  0  0  0  0  0  0  0  0  0  0
  -17.4898  -27.8014   18.2392 N   0  0  0  0  0  0  0  0  0  0  0  0
  -19.2700  -26.0037   23.8669 N   0  0  0  0  0  0  0  0  0  0  0  0
  -19.0601  -22.9372   25.7697 N   0  3  0  0  0  0  0  0  0  0  0  0
  -22.5296  -14.7475   20.8480 O   0  0  0  0  0  0  0  0  0  0  0  0
  -19.3508  -26.4599   17.8399 O   0  0  0  0  0  0  0  0  0  0  0  0
  -17.5679  -27.1628   21.8749 O   0  0  0  0  0  0  0  0  0  0  0  0
  -20.6863  -24.1679   23.8312 O   0  0  0  0  0  0  0  0  0  0  0  0
  -31.2128  -14.9526   18.1656 O   0  0  0  0  0  0  0  0  0  0  0  0
  -21.4584   -7.0767   21.6210 O   0  0  0  0  0  0  0  0  0  0  0  0
  -22.1539  -21.2715   17.8407 O   0  0  0  0  0  0  0  0  0  1  0  0
  -23.3733   -3.2814   25.1329 F   0  0  0  0  0  0  0  0  0  0  0  0
  -20.0123   -6.3647   23.8671 F   0  0  0  0  0  0  0  0  0  0  0  0
  1  2  1  0  0  0  0
  1  5  2  0  0  0  0
  2  6  2  0  0  0  0
  3  8  2  0  0  0  0
  3 16  1  0  0  0  0
  4  9  1  0  0  0  0
  4 16  2  0  0  0  0
  5 18  1  0  0  0  0
  6 20  1  0  0  0  0
  7 10  2  0  0  0  0
  7 19  1  0  0  0  0
  8 27  1  0  0  0  0
  9 27  2  0  0  0  0
 10 28  1  0  0  0  0
 11 12  2  0  0  0  0
 11 29  1  0  0  0  0
 12 30  1  0  0  0  0
 13 21  1  0  0  0  0
 13 23  2  0  0  0  0
 14 22  1  0  0  0  0
 14 28  2  0  0  0  0
 15 30  2  0  0  0  0
 15 31  1  0  0  0  0
 16 32  1  0  0  0  0
 17 32  1  0  0  0  0
 17 33  2  0  0  0  0
 17 34  1  0  0  0  0
 18 20  2  0  0  0  0
 18 39  1  0  0  0  0
 19 22  2  0  0  0  0
 19 40  1  0  0  0  0
 20 53  1  0  0  0  0
 21 24  2  0  0  0  0
 21 52  1  0  0  0  0
 22 41  1  0  0  0  0
 23 26  1  0  0  0  0
 23 56  1  0  0  0  0
 24 25  1  0  0  0  0
 24 57  1  0  0  0  0
 25 26  2  0  0  0  0
 25 58  1  0  0  0  0
 26 64  1  0  0  0  0
 27 83  1  0  0  0  0
 28 84  1  0  0  0  0
 29 31  2  0  0  0  0
 29 83  1  0  0  0  0
 30 85  1  0  0  0  0
 31 86  1  0  0  0  0
 32 68  2  0  0  0  0
 33 69  1  0  0  0  0
 33 73  1  0  0  0  0
 34 74  1  0  0  0  0
 34 78  2  0  0  0  0
 35 54  1  0  0  0  0
 35 75  1  0  0  0  0
 35 79  2  0  0  0  0
 36 65  1  0  0  0  0
 36 70  1  0  0  0  0
 36 80  2  0  0  0  0
 37 66  1  0  0  0  0
 37 76  1  0  0  0  0
 37 81  2  0  0  0  0
 38 71  1  0  0  0  0
 38 72  1  0  0  0  0
 38 82  2  0  0  0  0
 39 42  1  0  0  0  0
 40 54  1  0  0  0  0
 41 70  1  0  0  0  0
 42 44  1  0  0  0  0
 43 45  1  0  0  0  0
 43 48  1  0  0  0  0
 44 53  1  0  0  0  0
 45 55  1  0  0  0  0
 46 49  1  0  0  0  0
 46 52  1  0  0  0  0
 47 50  1  0  0  0  0
 47 52  1  0  0  0  0
 48 71  1  0  0  0  0
 49 72  1  0  0  0  0
 50 72  1  0  0  0  0
 51 55  1  0  0  0  0
 51 71  1  0  0  0  0
 53 75  1  0  0  0  0
 54 70  1  0  0  0  0
 55 69  1  0  0  0  0
 59 66  1  0  0  0  0
 60 67  1  0  0  0  0
 61 67  1  0  0  0  0
 62 67  1  0  0  0  0
 63 77  1  0  0  0  0
 64 84  1  0  0  0  0
 65 67  1  0  0  0  0
 65 76  1  0  0  0  0
 66 77  1  0  0  0  0
 68 69  1  0  0  0  0
M  CHG  1  77   1
M  ISO  4  38 100  64 101  72 100  84 101
M  END
> <Batch ID>
0161

> <Smiles>
CNC(C)C(=O)NC(C(=O)N1Cc2cc([101O:1][101CH2:1]c3c(C)cc(C4CC[100N:0]([100C:0](=O)N5CCCC(n6nc(-c7ccc(Oc8ccc(F)cc8F)cc7)c(C(N)=O)c6N)C5)CC4)c(C)c3C)ccc2CC1C(=O)NC1CCCc2ccccc21)C(C)(C)C

> <Shape>
0.199

> <Color>
0.190

> <Negative vol penalty>
0.000

$$$$

  -OEChem-04052322123D

 87 96  0     1  0  0  0  0  0999 V2000
  -29.3566  -35.1761   22.9756 C   0  0  0  0  0  0  0  0  0  0  0  0
  -29.1121  -33.9214   22.4267 C   0  0  0  0  0  0  0  0  0  0  0  0
  -26.8239  -12.6636   21.7932 C   0  0  0  0  0  0  0  0  0  0  0  0
  -26.1659  -14.2261   20.0720 C   0  0  0  0  0  0  0  0  0  0  0  0
  -28.7700  -35.5310   24.1897 C   0  0  0  0  0  0  0  0  0  0  0  0
  -28.2818  -33.0203   23.0922 C   0  0  0  0  0  0  0  0  0  0  0  0
  -24.9887  -30.7532   19.9840 C   0  0  0  0  0  0  0  0  0  0  0  0
  -25.5175  -12.1782   21.8520 C   0  0  0  0  0  0  0  0  0  0  0  0
  -24.8596  -13.7407   20.1307 C   0  0  0  0  0  0  0  0  0  0  0  0
  -25.4727  -29.7120   19.1932 C   0  0  0  0  0  0  0  0  0  0  0  0
  -22.4366  -10.2803   22.1998 C   0  0  0  0  0  0  0  0  0  0  0  0
  -22.2599   -8.8972   22.2391 C   0  0  0  0  0  0  0  0  0  0  0  0
  -24.5453  -28.1123   20.7423 C   0  0  0  0  0  0  0  0  0  0  0  0
  -23.3804   -8.6935   20.1084 C   0  0  0  0  0  0  0  0  0  0  0  0
  -27.1481  -13.6876   20.9033 C   0  0  0  0  0  0  0  0  0  0  0  0
  -29.5413  -13.7246   20.0208 C   0  0  0  0  0  0  0  0  0  0  0  0
  -27.9243  -34.6373   24.8656 C   0  0  0  0  0  0  0  0  0  0  0  0
  -24.2875  -30.4813   21.1676 C   0  0  0  0  0  0  0  0  0  0  0  0
  -27.6844  -33.3630   24.3171 C   0  0  0  0  0  0  0  0  0  0  0  0
  -24.0511  -29.1518   21.5451 C   0  0  0  0  0  0  0  0  0  0  0  0
  -28.5938  -23.9076   20.6721 C   0  0  0  0  0  0  0  0  0  0  0  0
  -28.2284  -24.3853   19.4185 C   0  0  0  0  0  0  0  0  0  0  0  0
  -28.8350  -24.8032   21.7080 C   0  0  0  0  0  0  0  0  0  0  0  0
  -24.5354  -12.7167   21.0207 C   0  0  0  0  0  0  0  0  0  0  0  0
  -25.2536  -28.3913   19.5738 C   0  0  0  0  0  0  0  0  0  0  0  0
  -23.0852  -10.8700   21.1147 C   0  0  0  0  0  0  0  0  0  0  0  0
  -22.7318   -8.1038   21.1934 C   0  0  0  0  0  0  0  0  0  0  0  0
  -23.5571  -10.0765   20.0691 C   0  0  0  0  0  0  0  0  0  0  0  0
  -28.4972  -14.1898   20.8425 C   0  0  0  0  0  0  0  0  0  0  0  0
  -28.1188  -25.7566   19.2537 C   0  0  0  0  0  0  0  0  0  0  0  0
  -28.6985  -26.1558   21.4406 C   0  0  0  0  0  0  0  0  0  0  0  0
  -30.6109  -14.5258   20.3381 C   0  0  0  0  0  0  0  0  0  0  0  0
  -29.5441  -12.6632   19.0569 C   0  0  0  0  0  0  0  0  0  0  0  0
  -24.7596  -31.1059   24.2483 C   0  0  0  0  0  0  0  0  0  0  0  0
  -21.7977  -29.8211   24.5621 C   0  0  0  0  0  0  0  0  0  0  0  0
  -19.3825  -27.7664   23.3006 C   0  0  0  0  0  0  0  0  0  0  0  0
  -31.0029  -20.0381   22.6314 C   0  0  0  0  0  0  0  0  0  0  0  0
  -27.3507  -35.0480   26.1986 C   0  0  0  0  0  0  0  0  0  0  0  0
  -23.7487  -31.6155   21.9957 C   0  0  0  0  0  0  0  0  0  0  0  0
  -23.2866  -28.8065   22.7960 C   0  0  0  0  0  0  0  0  0  0  0  0
  -26.1843  -34.1753   26.6548 C   0  0  0  0  0  0  0  0  0  0  0  0
  -32.4611  -17.0845   23.9090 C   0  0  0  0  0  0  0  0  0  0  0  0
  -26.5196  -32.6984   26.4729 C   0  0  0  0  0  0  0  0  0  0  0  0
  -31.6921  -15.9583   23.2238 C   0  0  0  0  0  0  0  0  0  0  0  0
  -27.8511  -21.8092   22.0118 C   0  0  0  0  0  0  0  0  0  0  0  0
  -31.5349  -18.2456   24.2450 C   0  0  0  0  0  0  0  0  0  0  0  0
  -28.5027  -20.4549   22.2576 C   0  0  0  0  0  0  0  0  0  0  0  0
  -30.1254  -21.9651   21.3474 C   0  0  0  0  0  0  0  0  0  0  0  0
  -30.0583  -17.6972   22.3294 C   0  0  0  0  0  0  0  0  0  0  0  0
  -28.7270  -22.4189   20.9052 C   0  0  2  0  0  0  0  0  0  0  0  0
  -26.7697  -32.3672   24.9967 C   0  0  1  0  0  0  0  0  0  0  0  0
  -23.4934  -31.2260   23.4484 C   0  0  1  0  0  0  0  0  0  0  0  0
  -30.9485  -16.4848   21.9865 C   0  0  2  0  0  0  0  0  0  0  0  0
  -27.9615  -23.4501   18.2869 C   0  0  0  0  0  0  0  0  0  0  0  0
  -28.9445  -27.1687   22.5116 C   0  0  0  0  0  0  0  0  0  0  0  0
  -17.0852  -26.8884   23.7997 C   0  0  0  0  0  0  0  0  0  0  0  0
  -22.9766  -27.9263   26.6430 C   0  0  0  0  0  0  0  0  0  0  0  0
  -20.9341  -26.4993   26.3991 C   0  0  0  0  0  0  0  0  0  0  0  0
  -20.7240  -28.8437   27.2249 C   0  0  0  0  0  0  0  0  0  0  0  0
  -30.4437  -24.7124   23.6131 C   0  0  0  0  0  0  0  0  0  0  0  0
  -18.2626  -28.9657   20.8375 C   0  0  0  0  0  0  0  0  0  0  0  0
  -27.7274  -26.3289   17.9304 C   0  0  0  0  0  0  0  0  0  0  0  0
  -26.9151  -27.6202   18.0570 C   0  0  0  0  0  0  0  0  0  1  0  0
  -21.2538  -28.4310   24.7875 C   0  0  1  0  0  0  0  0  0  0  0  0
  -17.8918  -27.9699   23.0980 C   0  0  2  0  0  0  0  0  0  0  0  0
  -21.4883  -27.9313   26.2410 C   0  0  0  0  0  0  0  0  0  0  0  0
  -28.8698  -15.2075   21.6232 N   0  0  0  0  0  0  0  0  0  0  0  0
  -28.3452  -26.6574   20.2359 N   0  0  0  0  0  0  0  0  0  0  0  0
  -30.1601  -15.3883   21.2935 N   0  0  0  0  0  0  0  0  0  0  0  0
  -22.7855  -29.9505   23.5755 N   0  0  0  0  0  0  0  0  0  0  0  0
  -30.8100  -18.7220   23.0656 N   0  0  0  0  0  0  0  0  0  0  0  0
  -29.9270  -20.6912   22.0312 N   0  0  0  0  0  0  0  0  0  0  0  0
  -31.8836  -14.5694   19.8902 N   0  0  0  0  0  0  0  0  0  0  0  0
  -28.3600  -11.9410   18.8549 N   0  0  0  0  0  0  0  0  0  0  0  0
  -29.2088  -24.3487   22.9877 N   0  0  0  0  0  0  0  0  0  0  0  0
  -25.5152  -32.2624   24.2827 N   0  0  0  0  0  0  0  0  0  0  0  0
  -19.8511  -28.4719   24.3886 N   0  0  0  0  0  0  0  0  0  0  0  0
  -17.5573  -27.9382   21.6461 N   0  3  0  0  0  0  0  0  0  0  0  0
  -30.5707  -12.3534   18.4061 O   0  0  0  0  0  0  0  0  0  0  0  0
  -25.0304  -30.0432   24.7951 O   0  0  0  0  0  0  0  0  0  0  0  0
  -21.3572  -30.7587   25.2317 O   0  0  0  0  0  0  0  0  0  0  0  0
  -20.0624  -27.0500   22.5691 O   0  0  0  0  0  0  0  0  0  0  0  0
  -32.0803  -20.6224   22.8094 O   0  0  0  0  0  0  0  0  0  0  0  0
  -23.2606  -12.2431   21.0775 O   0  0  0  0  0  0  0  0  0  0  0  0
  -25.7288  -27.3660   18.7987 O   0  0  0  0  0  0  0  0  0  1  0  0
  -22.5633   -6.7756   21.2320 F   0  0  0  0  0  0  0  0  0  0  0  0
  -24.1820  -10.6372   19.0246 F   0  0  0  0  0  0  0  0  0  0  0  0
  1  2  1  0  0  0  0
  1  5  2  0  0  0  0
  2  6  2  0  0  0  0
  3  8  2  0  0  0  0
  3 15  1  0  0  0  0
  4  9  1  0  0  0  0
  4 15  2  0  0  0  0
  5 17  1  0  0  0  0
  6 19  1  0  0  0  0
  7 10  2  0  0  0  0
  7 18  1  0  0  0  0
  8 24  1  0  0  0  0
  9 24  2  0  0  0  0
 10 25  1  0  0  0  0
 11 12  2  0  0  0  0
 11 26  1  0  0  0  0
 12 27  1  0  0  0  0
 13 20  1  0  0  0  0
 13 25  2  0  0  0  0
 14 27  2  0  0  0  0
 14 28  1  0  0  0  0
 15 29  1  0  0  0  0
 16 29  1  0  0  0  0
 16 32  2  0  0  0  0
 16 33  1  0  0  0  0
 17 19  2  0  0  0  0
 17 38  1  0  0  0  0
 18 20  2  0  0  0  0
 18 39  1  0  0  0  0
 19 51  1  0  0  0  0
 20 40  1  0  0  0  0
 21 22  1  0  0  0  0
 21 23  2  0  0  0  0
 21 50  1  0  0  0  0
 22 30  2  0  0  0  0
 22 54  1  0  0  0  0
 23 31  1  0  0  0  0
 23 75  1  0  0  0  0
 24 84  1  0  0  0  0
 25 85  1  0  0  0  0
 26 28  2  0  0  0  0
 26 84  1  0  0  0  0
 27 86  1  0  0  0  0
 28 87  1  0  0  0  0
 29 67  2  0  0  0  0
 30 62  1  0  0  0  0
 30 68  1  0  0  0  0
 31 55  1  0  0  0  0
 31 68  2  0  0  0  0
 32 69  1  0  0  0  0
 32 73  1  0  0  0  0
 33 74  1  0  0  0  0
 33 79  2  0  0  0  0
 34 52  1  0  0  0  0
 34 76  1  0  0  0  0
 34 80  2  0  0  0  0
 35 64  1  0  0  0  0
 35 70  1  0  0  0  0
 35 81  2  0  0  0  0
 36 65  1  0  0  0  0
 36 77  1  0  0  0  0
 36 82  2  0  0  0  0
 37 71  1  0  0  0  0
 37 72  1  0  0  0  0
 37 83  2  0  0  0  0
 38 41  1  0  0  0  0
 39 52  1  0  0  0  0
 40 70  1  0  0  0  0
 41 43  1  0  0  0  0
 42 44  1  0  0  0  0
 42 46  1  0  0  0  0
 43 51  1  0  0  0  0
 44 53  1  0  0  0  0
 45 47  1  0  0  0  0
 45 50  1  0  0  0  0
 46 71  1  0  0  0  0
 47 72  1  0  0  0  0
 48 50  1  0  0  0  0
 48 72  1  0  0  0  0
 49 53  1  0  0  0  0
 49 71  1  0  0  0  0
 51 76  1  0  0  0  0
 52 70  1  0  0  0  0
 53 69  1  0  0  0  0
 56 65  1  0  0  0  0
 57 66  1  0  0  0  0
 58 66  1  0  0  0  0
 59 66  1  0  0  0  0
 60 75  1  0  0  0  0
 61 78  1  0  0  0  0
 62 63  1  0  0  0  0
 63 85  1  0  0  0  0
 64 66  1  0  0  0  0
 64 77  1  0  0  0  0
 65 78  1  0  0  0  0
 67 69  1  0  0  0  0
M  CHG  1  78   1
M  ISO  4  37 100  63 101  72 100  85 101
M  END
> <Batch ID>
0161

> <Smiles>
CNc1c(C)nc(C[101CH2:1][101O:1]c2ccc3c(c2)CN(C(=O)C(NC(=O)C(C)NC)C(C)(C)C)C(C(=O)NC2CCCc4ccccc42)C3)c(C)c1C1CC[100N:0]([100C:0](=O)N2CCCC(n3nc(-c4ccc(Oc5ccc(F)cc5F)cc4)c(C(N)=O)c3N)C2)C1

> <Shape>
0.328

> <Color>
0.073

> <Negative vol penalty>
0.000

$$$$

  -OEChem-04052322123D

 86 95  0     1  0  0  0  0  0999 V2000
  -27.1027  -34.1100   26.4611 C   0  0  0  0  0  0  0  0  0  0  0  0
  -27.5630  -32.9666   25.8160 C   0  0  0  0  0  0  0  0  0  0  0  0
  -23.1364  -10.0095   19.9129 C   0  0  0  0  0  0  0  0  0  0  0  0
  -24.3392   -9.5575   21.9589 C   0  0  0  0  0  0  0  0  0  0  0  0
  -25.7333  -34.3086   26.6328 C   0  0  0  0  0  0  0  0  0  0  0  0
  -26.6543  -32.0206   25.3431 C   0  0  0  0  0  0  0  0  0  0  0  0
  -27.1950  -28.5999   20.2921 C   0  0  0  0  0  0  0  0  0  0  0  0
  -22.5651   -8.7383   19.9678 C   0  0  0  0  0  0  0  0  0  0  0  0
  -23.7678   -8.2862   22.0138 C   0  0  0  0  0  0  0  0  0  0  0  0
  -27.6143  -27.2857   20.0897 C   0  0  0  0  0  0  0  0  0  0  0  0
  -20.8126   -6.9225   22.9236 C   0  0  0  0  0  0  0  0  0  0  0  0
  -20.3139   -6.4904   24.1524 C   0  0  0  0  0  0  0  0  0  0  0  0
  -25.3157  -26.5542   20.1195 C   0  0  0  0  0  0  0  0  0  0  0  0
  -30.6189  -19.3621   20.8732 C   0  0  0  0  0  0  0  0  0  0  0  0
  -28.6269  -19.0540   22.2050 C   0  0  0  0  0  0  0  0  0  0  0  0
  -21.8476   -4.6239   24.1184 C   0  0  0  0  0  0  0  0  0  0  0  0
  -24.0235  -10.4191   20.9084 C   0  0  0  0  0  0  0  0  0  0  0  0
  -24.1054  -12.9183   21.4135 C   0  0  0  0  0  0  0  0  0  0  0  0
  -24.8070  -33.3692   26.1531 C   0  0  0  0  0  0  0  0  0  0  0  0
  -25.8313  -28.9001   20.4208 C   0  0  0  0  0  0  0  0  0  0  0  0
  -25.2714  -32.2062   25.5096 C   0  0  0  0  0  0  0  0  0  0  0  0
  -24.8816  -27.8733   20.3209 C   0  0  0  0  0  0  0  0  0  0  0  0
  -28.8378  -20.9916   20.7774 C   0  0  0  0  0  0  0  0  0  0  0  0
  -29.8847  -18.6135   21.7930 C   0  0  0  0  0  0  0  0  0  0  0  0
  -30.0955  -20.5512   20.3654 C   0  0  0  0  0  0  0  0  0  0  0  0
  -22.8808   -7.8766   21.0183 C   0  0  0  0  0  0  0  0  0  0  0  0
  -26.6748  -26.2622   20.0062 C   0  0  0  0  0  0  0  0  0  0  0  0
  -21.8287   -6.2053   22.2920 C   0  0  0  0  0  0  0  0  0  0  0  0
  -20.8314   -5.3411   24.7499 C   0  0  0  0  0  0  0  0  0  0  0  0
  -22.3462   -5.0560   22.8895 C   0  0  0  0  0  0  0  0  0  0  0  0
  -28.1035  -20.2431   21.6972 C   0  0  0  0  0  0  0  0  0  0  0  0
  -24.6145  -11.7320   20.8519 C   0  0  0  0  0  0  0  0  0  0  0  0
  -25.0299  -13.8789   21.0832 C   0  0  0  0  0  0  0  0  0  0  0  0
  -22.9043  -13.1328   22.1665 C   0  0  0  0  0  0  0  0  0  0  0  0
  -24.0146  -30.1420   22.7145 C   0  0  0  0  0  0  0  0  0  0  0  0
  -21.7213  -30.0251   20.4234 C   0  0  0  0  0  0  0  0  0  0  0  0
  -20.5804  -28.6084   17.5358 C   0  0  0  0  0  0  0  0  0  0  0  0
  -30.3246  -15.5744   20.5965 C   0  0  0  0  0  0  0  0  0  0  0  0
  -23.3385  -33.6044   26.4040 C   0  0  0  0  0  0  0  0  0  0  0  0
  -25.3937  -30.3264   20.6121 C   0  0  0  0  0  0  0  0  0  0  0  0
  -23.4045  -28.1457   20.4322 C   0  0  0  0  0  0  0  0  0  0  0  0
  -22.4265  -32.7355   25.5418 C   0  0  0  0  0  0  0  0  0  0  0  0
  -28.9486  -13.7164   17.8888 C   0  0  0  0  0  0  0  0  0  0  0  0
  -26.9631  -22.0373   19.4714 C   0  0  0  0  0  0  0  0  0  0  0  0
  -22.9050  -31.2872   25.5499 C   0  0  0  0  0  0  0  0  0  0  0  0
  -27.6603  -13.1277   18.4665 C   0  0  0  0  0  0  0  0  0  0  0  0
  -25.9204  -22.9097   20.1717 C   0  0  0  0  0  0  0  0  0  0  0  0
  -30.0653  -13.7604   18.9296 C   0  0  0  0  0  0  0  0  0  0  0  0
  -28.4242  -13.8550   20.7657 C   0  0  0  0  0  0  0  0  0  0  0  0
  -28.2926  -22.2663   20.2249 C   0  0  1  0  0  0  0  0  0  0  0  0
  -24.3158  -31.1690   24.9607 C   0  0  1  0  0  0  0  0  0  0  0  0
  -24.0101  -30.4474   21.2433 C   0  0  1  0  0  0  0  0  0  0  0  0
  -27.9581  -23.2782   21.3490 C   0  0  2  0  0  0  0  0  0  0  0  0
  -27.2524  -13.8417   19.7692 C   0  0  2  0  0  0  0  0  0  0  0  0
  -26.7335  -24.0259   20.8133 C   0  0  1  0  0  0  0  0  0  1  0  0
  -30.9047  -21.3331   19.3826 C   0  0  0  0  0  0  0  0  0  0  0  0
  -29.1397  -24.1708   21.7070 C   0  0  0  0  0  0  0  0  0  0  0  0
  -18.6579  -28.6941   15.9252 C   0  0  0  0  0  0  0  0  0  0  0  0
  -19.9919  -28.4842   22.4096 C   0  0  0  0  0  0  0  0  0  0  0  0
  -18.5353  -27.7892   20.4955 C   0  0  0  0  0  0  0  0  0  0  0  0
  -18.7643  -30.2051   21.0731 C   0  0  0  0  0  0  0  0  0  0  0  0
  -22.3433  -29.3968   15.2931 C   0  0  0  0  0  0  0  0  0  0  0  0
  -30.4445  -17.3417   22.3347 C   0  0  0  0  0  0  0  0  0  0  0  0
  -20.7022  -29.0025   19.9820 C   0  0  1  0  0  0  0  0  0  0  0  0
  -20.0449  -29.2232   16.2552 C   0  0  2  0  0  0  0  0  0  0  0  0
  -19.5263  -28.8645   20.9899 C   0  0  0  0  0  0  0  0  0  0  0  0
  -25.7724  -11.9194   20.2131 N   0  0  0  0  0  0  0  0  0  0  0  0
  -25.9986  -13.2347   20.3713 N   0  0  0  0  0  0  0  0  0  0  0  0
  -23.0269  -29.5556   20.6251 N   0  0  0  0  0  0  0  0  0  0  0  0
  -29.6143  -14.4520   20.1396 N   0  0  0  0  0  0  0  0  0  0  0  0
  -25.1005  -15.2032   21.3351 N   0  0  0  0  0  0  0  0  0  0  0  0
  -22.0672  -12.0366   22.4155 N   0  0  0  0  0  0  0  0  0  0  0  0
  -24.2677  -31.2389   23.5160 N   0  0  0  0  0  0  0  0  0  0  0  0
  -20.2932  -29.3885   18.6359 N   0  0  0  0  0  0  0  0  0  0  0  0
  -29.8263  -16.1744   21.7465 N   0  0  0  0  0  0  0  0  0  0  0  0
  -20.9505  -28.9124   15.1132 N   0  3  0  0  0  0  0  0  0  0  0  0
  -22.5746  -14.2660   22.5914 O   0  0  0  0  0  0  0  0  0  0  0  0
  -23.8026  -28.9964   23.0944 O   0  0  0  0  0  0  0  0  0  0  0  0
  -21.3733  -31.1986   20.5764 O   0  0  0  0  0  0  0  0  0  0  0  0
  -21.1891  -27.5410   17.5583 O   0  0  0  0  0  0  0  0  0  0  0  0
  -31.3253  -16.0128   20.0191 O   0  0  0  0  0  0  0  0  0  0  0  0
  -22.3233   -6.6361   21.0724 O   0  0  0  0  0  0  0  0  0  0  0  0
  -27.0814  -24.9786   19.8094 O   0  0  0  0  0  0  0  0  0  1  0  0
  -20.3535   -4.9271   25.9307 F   0  0  0  0  0  0  0  0  0  0  0  0
  -23.3233   -4.3635   22.2881 F   0  0  0  0  0  0  0  0  0  0  0  0
  -26.5426  -20.7534   22.2307 Cl  0  0  0  0  0  0  0  0  0  0  0  0
  1  2  1  0  0  0  0
  1  5  2  0  0  0  0
  2  6  2  0  0  0  0
  3  8  2  0  0  0  0
  3 17  1  0  0  0  0
  4  9  1  0  0  0  0
  4 17  2  0  0  0  0
  5 19  1  0  0  0  0
  6 21  1  0  0  0  0
  7 10  2  0  0  0  0
  7 20  1  0  0  0  0
  8 26  1  0  0  0  0
  9 26  2  0  0  0  0
 10 27  1  0  0  0  0
 11 12  2  0  0  0  0
 11 28  1  0  0  0  0
 12 29  1  0  0  0  0
 13 22  1  0  0  0  0
 13 27  2  0  0  0  0
 14 24  1  0  0  0  0
 14 25  2  0  0  0  0
 15 24  2  0  0  0  0
 15 31  1  0  0  0  0
 16 29  2  0  0  0  0
 16 30  1  0  0  0  0
 17 32  1  0  0  0  0
 18 32  1  0  0  0  0
 18 33  2  0  0  0  0
 18 34  1  0  0  0  0
 19 21  2  0  0  0  0
 19 39  1  0  0  0  0
 20 22  2  0  0  0  0
 20 40  1  0  0  0  0
 21 51  1  0  0  0  0
 22 41  1  0  0  0  0
 23 25  1  0  0  0  0
 23 31  2  0  0  0  0
 23 50  1  0  0  0  0
 24 63  1  0  0  0  0
 25 56  1  0  0  0  0
 26 82  1  0  0  0  0
 27 83  1  0  0  0  0
 28 30  2  0  0  0  0
 28 82  1  0  0  0  0
 29 84  1  0  0  0  0
 30 85  1  0  0  0  0
 31 86  1  0  0  0  0
 32 67  2  0  0  0  0
 33 68  1  0  0  0  0
 33 71  1  0  0  0  0
 34 72  1  0  0  0  0
 34 77  2  0  0  0  0
 35 52  1  0  0  0  0
 35 73  1  0  0  0  0
 35 78  2  0  0  0  0
 36 64  1  0  0  0  0
 36 69  1  0  0  0  0
 36 79  2  0  0  0  0
 37 65  1  0  0  0  0
 37 74  1  0  0  0  0
 37 80  2  0  0  0  0
 38 70  1  0  0  0  0
 38 75  1  0  0  0  0
 38 81  2  0  0  0  0
 39 42  1  0  0  0  0
 40 52  1  0  0  0  0
 41 69  1  0  0  0  0
 42 45  1  0  0  0  0
 43 46  1  0  0  0  0
 43 48  1  0  0  0  0
 44 47  1  0  0  0  0
 44 50  1  0  0  0  0
 45 51  1  0  0  0  0
 46 54  1  0  0  0  0
 47 55  1  0  0  0  0
 48 70  1  0  0  0  0
 49 54  1  0  0  0  0
 49 70  1  0  0  0  0
 50 53  1  0  0  0  0
 51 73  1  0  0  0  0
 52 69  1  0  0  0  0
 53 55  1  0  0  0  0
 53 57  1  0  0  0  0
 54 68  1  0  0  0  0
 55 83  1  0  0  0  0
 58 65  1  0  0  0  0
 59 66  1  0  0  0  0
 60 66  1  0  0  0  0
 61 66  1  0  0  0  0
 62 76  1  0  0  0  0
 63 75  1  0  0  0  0
 64 66  1  0  0  0  0
 64 74  1  0  0  0  0
 65 76  1  0  0  0  0
 67 68  1  0  0  0  0
M  CHG  1  76   1
M  ISO  4  38 100  55 101  75 100  83 101
M  END
> <Batch ID>
0161

> <Smiles>
CNC(C)C(=O)NC(C(=O)N1Cc2cc([101O:1][101CH:1]3CCC(c4c(C)cc(C[100NH:0][100C:0](=O)N5CCCC(n6nc(-c7ccc(Oc8ccc(F)cc8F)cc7)c(C(N)=O)c6N)C5)cc4Cl)C3C)ccc2CC1C(=O)NC1CCCc2ccccc21)C(C)(C)C

> <Shape>
0.355

> <Color>
0.153

> <Negative vol penalty>
0.000

$$$$

  -OEChem-04052322123D

 91101  0     1  0  0  0  0  0999 V2000
  -28.6693  -11.1775   21.3272 C   0  0  0  0  0  0  0  0  0  0  0  0
  -28.9894  -12.4387   20.8349 C   0  0  0  0  0  0  0  0  0  0  0  0
  -20.0419  -28.3136   21.6516 C   0  0  0  0  0  0  0  0  0  0  0  0
  -19.5621  -28.3050   24.0194 C   0  0  0  0  0  0  0  0  0  0  0  0
  -27.3417  -10.7518   21.3400 C   0  0  0  0  0  0  0  0  0  0  0  0
  -27.9821  -13.2746   20.3541 C   0  0  0  0  0  0  0  0  0  0  0  0
  -28.4629  -18.0404   21.9975 C   0  0  0  0  0  0  0  0  0  0  0  0
  -18.8821  -27.5760   21.4139 C   0  0  0  0  0  0  0  0  0  0  0  0
  -18.4023  -27.5674   23.7817 C   0  0  0  0  0  0  0  0  0  0  0  0
  -29.4163  -18.8383   21.3665 C   0  0  0  0  0  0  0  0  0  0  0  0
  -17.5827  -24.3492   23.1478 C   0  0  0  0  0  0  0  0  0  0  0  0
  -17.3245  -23.2611   23.9814 C   0  0  0  0  0  0  0  0  0  0  0  0
  -30.8969  -23.8687   20.1924 C   0  0  0  0  0  0  0  0  0  0  0  0
  -27.6766  -19.8611   20.0449 C   0  0  0  0  0  0  0  0  0  0  0  0
  -15.2467  -24.2828   24.6714 C   0  0  0  0  0  0  0  0  0  0  0  0
  -20.3819  -28.6781   22.9544 C   0  0  0  0  0  0  0  0  0  0  0  0
  -21.7051  -30.8414   23.2312 C   0  0  0  0  0  0  0  0  0  0  0  0
  -26.3165  -11.5866   20.8681 C   0  0  0  0  0  0  0  0  0  0  0  0
  -27.1083  -18.1392   21.6486 C   0  0  0  0  0  0  0  0  0  0  0  0
  -26.6397  -12.8591   20.3594 C   0  0  0  0  0  0  0  0  0  0  0  0
  -31.4373  -22.9836   19.2666 C   0  0  0  0  0  0  0  0  0  0  0  0
  -31.7533  -24.5241   21.0785 C   0  0  0  0  0  0  0  0  0  0  0  0
  -26.7077  -19.0651   20.6748 C   0  0  0  0  0  0  0  0  0  0  0  0
  -32.8206  -22.7580   19.2179 C   0  0  0  0  0  0  0  0  0  0  0  0
  -33.1345  -24.2990   21.0298 C   0  0  0  0  0  0  0  0  0  0  0  0
  -33.6759  -23.4156   20.0946 C   0  0  0  0  0  0  0  0  0  0  0  0
  -18.0623  -27.2029   22.4789 C   0  0  0  0  0  0  0  0  0  0  0  0
  -29.0235  -19.7468   20.3880 C   0  0  0  0  0  0  0  0  0  0  0  0
  -16.6730  -25.4042   23.0760 C   0  0  0  0  0  0  0  0  0  0  0  0
  -16.1565  -23.2278   24.7432 C   0  0  0  0  0  0  0  0  0  0  0  0
  -15.5050  -25.3709   23.8378 C   0  0  0  0  0  0  0  0  0  0  0  0
  -21.5801  -29.4396   23.2006 C   0  0  0  0  0  0  0  0  0  0  0  0
  -23.0335  -31.0618   23.5020 C   0  0  0  0  0  0  0  0  0  0  0  0
  -20.7096  -31.8539   23.0327 C   0  0  0  0  0  0  0  0  0  0  0  0
  -24.9590  -16.1492   20.4142 C   0  0  0  0  0  0  0  0  0  0  0  0
  -22.9239  -18.6078   20.9939 C   0  0  0  0  0  0  0  0  0  0  0  0
  -22.4888  -21.9607   21.4581 C   0  0  0  0  0  0  0  0  0  0  0  0
  -27.9751  -28.0167   22.6339 C   0  0  0  0  0  0  0  0  0  0  0  0
  -24.9017  -11.0643   20.8583 C   0  0  0  0  0  0  0  0  0  0  0  0
  -26.0890  -17.2903   22.3576 C   0  0  0  0  0  0  0  0  0  0  0  0
  -25.2634  -19.2242   20.2784 C   0  0  0  0  0  0  0  0  0  0  0  0
  -23.8505  -12.1563   20.6775 C   0  0  0  0  0  0  0  0  0  0  0  0
  -26.7931  -29.0960   25.6976 C   0  0  0  0  0  0  0  0  0  0  0  0
  -24.2471  -13.0967   19.5439 C   0  0  0  0  0  0  0  0  0  0  0  0
  -25.3321  -29.4489   25.4196 C   0  0  0  0  0  0  0  0  0  0  0  0
  -31.1368  -26.9340   21.5620 C   0  0  0  0  0  0  0  0  0  0  0  0
  -29.7519  -25.0540   22.5403 C   0  0  0  0  0  0  0  0  0  0  0  0
  -31.8028  -21.1915   17.7601 C   0  0  0  0  0  0  0  0  0  0  0  0
  -27.1922  -27.8150   24.9742 C   0  0  0  0  0  0  0  0  0  0  0  0
  -30.5054  -27.8957   22.5728 C   0  0  0  0  0  0  0  0  0  0  0  0
  -29.1749  -26.0506   23.5414 C   0  0  0  0  0  0  0  0  0  0  0  0
  -25.5118  -28.2132   23.2034 C   0  0  0  0  0  0  0  0  0  0  0  0
  -31.1581  -25.4876   22.0880 C   0  0  0  0  0  0  0  0  0  0  0  0
  -25.5722  -13.8043   19.8522 C   0  0  1  0  0  0  0  0  0  0  0  0
  -24.8019  -17.1099   21.5587 C   0  0  1  0  0  0  0  0  0  0  0  0
  -25.0556  -29.5077   23.9068 C   0  0  1  0  0  0  0  0  0  0  0  0
  -30.7025  -22.1924   18.2121 C   0  0  2  0  0  0  0  0  0  0  0  0
  -33.1923  -21.7860   18.1250 C   0  0  0  0  0  0  0  0  0  0  0  0
  -34.0331  -25.0209   21.9853 C   0  0  0  0  0  0  0  0  0  0  0  0
  -35.1554  -23.2247   20.0420 C   0  0  0  0  0  0  0  0  0  0  0  0
  -30.2403  -23.0994   17.0649 C   0  0  0  0  0  0  0  0  0  0  0  0
  -33.8290  -22.5061   16.9279 C   0  0  0  0  0  0  0  0  0  0  0  0
  -34.1125  -20.6420   18.5815 C   0  0  0  0  0  0  0  0  0  0  0  0
  -21.2921  -24.1024   21.9860 C   0  0  0  0  0  0  0  0  0  0  0  0
  -22.0764  -18.4318   18.0681 C   0  0  0  0  0  0  0  0  0  0  0  0
  -21.0519  -20.7044   18.3005 C   0  0  0  0  0  0  0  0  0  0  0  0
  -20.1990  -18.8070   19.6772 C   0  0  0  0  0  0  0  0  0  0  0  0
  -23.0387  -21.6898   24.3535 C   0  0  0  0  0  0  0  0  0  0  0  0
  -29.4946  -21.4348   18.7803 C   0  0  0  0  0  0  0  0  0  1  0  0
  -22.4548  -19.8136   20.2160 C   0  0  1  0  0  0  0  0  0  0  0  0
  -21.7211  -22.7407   22.5101 C   0  0  2  0  0  0  0  0  0  0  0  0
  -21.4731  -19.4351   19.0713 C   0  0  0  0  0  0  0  0  0  0  0  0
  -22.7368  -28.8135   23.4332 N   0  0  0  0  0  0  0  0  0  0  0  0
  -23.6013  -29.8267   23.6125 N   0  0  0  0  0  0  0  0  0  0  0  0
  -24.3052  -18.3672   20.9958 N   0  0  0  0  0  0  0  0  0  0  0  0
  -26.9109  -27.9090   23.5418 N   0  0  0  0  0  0  0  0  0  0  0  0
  -29.1858  -27.4086   22.9983 N   0  0  0  0  0  0  0  0  0  0  0  0
  -23.7596  -32.1897   23.6540 N   0  0  0  0  0  0  0  0  0  0  0  0
  -19.3936  -31.4534   22.7639 N   0  0  0  0  0  0  0  0  0  0  0  0
  -25.3620  -14.8831   20.7936 N   0  0  0  0  0  0  0  0  0  0  0  0
  -21.9007  -20.7414   21.1960 N   0  0  0  0  0  0  0  0  0  0  0  0
  -22.5656  -22.9477   23.7204 N   0  3  0  0  0  0  0  0  0  0  0  0
  -20.9822  -33.0776   23.0757 O   0  0  0  0  0  0  0  0  0  0  0  0
  -24.7300  -16.5282   19.2715 O   0  0  0  0  0  0  0  0  0  0  0  0
  -22.0960  -17.9095   21.5843 O   0  0  0  0  0  0  0  0  0  0  0  0
  -23.5061  -22.3917   20.9198 O   0  0  0  0  0  0  0  0  0  0  0  0
  -27.8514  -28.6197   21.5605 O   0  0  0  0  0  0  0  0  0  0  0  0
  -16.9304  -26.4834   22.2473 O   0  0  0  0  0  0  0  0  0  0  0  0
  -29.9614  -20.5343   19.7639 O   0  0  0  0  0  0  0  0  0  1  0  0
  -15.9079  -22.1821   25.5425 F   0  0  0  0  0  0  0  0  0  0  0  0
  -14.6267  -26.3809   23.7722 F   0  0  0  0  0  0  0  0  0  0  0  0
  1  2  1  0  0  0  0
  1  5  2  0  0  0  0
  2  6  2  0  0  0  0
  3  8  2  0  0  0  0
  3 16  1  0  0  0  0
  4  9  1  0  0  0  0
  4 16  2  0  0  0  0
  5 18  1  0  0  0  0
  6 20  1  0  0  0  0
  7 10  2  0  0  0  0
  7 19  1  0  0  0  0
  8 27  1  0  0  0  0
  9 27  2  0  0  0  0
 10 28  1  0  0  0  0
 11 12  2  0  0  0  0
 11 29  1  0  0  0  0
 12 30  1  0  0  0  0
 13 21  2  0  0  0  0
 13 22  1  0  0  0  0
 14 23  1  0  0  0  0
 14 28  2  0  0  0  0
 15 30  2  0  0  0  0
 15 31  1  0  0  0  0
 16 32  1  0  0  0  0
 17 32  1  0  0  0  0
 17 33  2  0  0  0  0
 17 34  1  0  0  0  0
 18 20  2  0  0  0  0
 18 39  1  0  0  0  0
 19 23  2  0  0  0  0
 19 40  1  0  0  0  0
 20 54  1  0  0  0  0
 21 24  1  0  0  0  0
 21 57  1  0  0  0  0
 22 25  2  0  0  0  0
 22 53  1  0  0  0  0
 23 41  1  0  0  0  0
 24 26  2  0  0  0  0
 24 58  1  0  0  0  0
 25 26  1  0  0  0  0
 25 59  1  0  0  0  0
 26 60  1  0  0  0  0
 27 88  1  0  0  0  0
 28 89  1  0  0  0  0
 29 31  2  0  0  0  0
 29 88  1  0  0  0  0
 30 90  1  0  0  0  0
 31 91  1  0  0  0  0
 32 73  2  0  0  0  0
 33 74  1  0  0  0  0
 33 78  1  0  0  0  0
 34 79  1  0  0  0  0
 34 83  2  0  0  0  0
 35 55  1  0  0  0  0
 35 80  1  0  0  0  0
 35 84  2  0  0  0  0
 36 70  1  0  0  0  0
 36 75  1  0  0  0  0
 36 85  2  0  0  0  0
 37 71  1  0  0  0  0
 37 81  1  0  0  0  0
 37 86  2  0  0  0  0
 38 76  1  0  0  0  0
 38 77  1  0  0  0  0
 38 87  2  0  0  0  0
 39 42  1  0  0  0  0
 40 55  1  0  0  0  0
 41 75  1  0  0  0  0
 42 44  1  0  0  0  0
 43 45  1  0  0  0  0
 43 49  1  0  0  0  0
 44 54  1  0  0  0  0
 45 56  1  0  0  0  0
 46 50  1  0  0  0  0
 46 53  1  0  0  0  0
 47 51  1  0  0  0  0
 47 53  1  0  0  0  0
 48 57  1  0  0  0  0
 48 58  1  0  0  0  0
 49 76  1  0  0  0  0
 50 77  1  0  0  0  0
 51 77  1  0  0  0  0
 52 56  1  0  0  0  0
 52 76  1  0  0  0  0
 54 80  1  0  0  0  0
 55 75  1  0  0  0  0
 56 74  1  0  0  0  0
 57 61  1  0  0  0  0
 57 69  1  0  0  0  0
 58 62  1  0  0  0  0
 58 63  1  0  0  0  0
 64 71  1  0  0  0  0
 65 72  1  0  0  0  0
 66 72  1  0  0  0  0
 67 72  1  0  0  0  0
 68 82  1  0  0  0  0
 69 89  1  0  0  0  0
 70 72  1  0  0  0  0
 70 81  1  0  0  0  0
 71 82  1  0  0  0  0
 73 74  1  0  0  0  0
M  CHG  1  82   1
M  ISO  4  38 100  69 101  77 100  89 101
M  END
> <Batch ID>
0161

> <Smiles>
CNC(C)C(=O)NC(C(=O)N1Cc2cc([101O:1][101CH2:1]C3(C)CC(C)(C)c4c3cc(C3CC[100N:0]([100C:0](=O)N5CCCC(n6nc(-c7ccc(Oc8ccc(F)cc8F)cc7)c(C(N)=O)c6N)C5)CC3)c(C)c4C)ccc2CC1C(=O)NC1CCCc2ccccc21)C(C)(C)C

> <Shape>
0.188

> <Color>
0.094

> <Negative vol penalty>
0.000

$$$$

  -OEChem-04052322123D

 93102  0     1  0  0  0  0  0999 V2000
  -14.6380  -28.7203   22.6439 C   0  0  0  0  0  0  0  0  0  0  0  0
  -15.6173  -27.7383   22.7530 C   0  0  0  0  0  0  0  0  0  0  0  0
  -23.0171   -9.8704   20.0554 C   0  0  0  0  0  0  0  0  0  0  0  0
  -23.5671  -10.1435   22.3920 C   0  0  0  0  0  0  0  0  0  0  0  0
  -14.9831  -30.0035   22.2217 C   0  0  0  0  0  0  0  0  0  0  0  0
  -16.9423  -28.0387   22.4390 C   0  0  0  0  0  0  0  0  0  0  0  0
  -20.2086  -26.2222   25.8562 C   0  0  0  0  0  0  0  0  0  0  0  0
  -22.2165   -8.7730   20.3720 C   0  0  0  0  0  0  0  0  0  0  0  0
  -22.7663   -9.0461   22.7087 C   0  0  0  0  0  0  0  0  0  0  0  0
  -20.5087  -24.8624   25.7900 C   0  0  0  0  0  0  0  0  0  0  0  0
  -22.9975   -5.6753   22.5859 C   0  0  0  0  0  0  0  0  0  0  0  0
  -23.5120   -4.7333   23.4767 C   0  0  0  0  0  0  0  0  0  0  0  0
  -22.5671  -25.3786   24.6430 C   0  0  0  0  0  0  0  0  0  0  0  0
  -23.1237  -20.5732   23.2705 C   0  0  0  0  0  0  0  0  0  0  0  0
  -23.8012  -19.1743   25.5871 C   0  0  0  0  0  0  0  0  0  0  0  0
  -21.6703   -5.1522   24.9833 C   0  0  0  0  0  0  0  0  0  0  0  0
  -23.6925  -10.5556   21.0654 C   0  0  0  0  0  0  0  0  0  0  0  0
  -24.1261  -13.0388   20.6740 C   0  0  0  0  0  0  0  0  0  0  0  0
  -16.3146  -30.3224   21.9115 C   0  0  0  0  0  0  0  0  0  0  0  0
  -21.0817  -27.1715   25.3056 C   0  0  0  0  0  0  0  0  0  0  0  0
  -17.3054  -29.3269   22.0109 C   0  0  0  0  0  0  0  0  0  0  0  0
  -22.2770  -26.7501   24.7057 C   0  0  0  0  0  0  0  0  0  0  0  0
  -23.3413  -21.2629   24.4632 C   0  0  0  0  0  0  0  0  0  0  0  0
  -23.2448  -19.1839   23.2361 C   0  0  0  0  0  0  0  0  0  0  0  0
  -23.6800  -20.5635   25.6215 C   0  0  0  0  0  0  0  0  0  0  0  0
  -22.0910   -8.3609   21.6987 C   0  0  0  0  0  0  0  0  0  0  0  0
  -21.6867  -24.4402   25.1808 C   0  0  0  0  0  0  0  0  0  0  0  0
  -21.8195   -6.3559   22.8938 C   0  0  0  0  0  0  0  0  0  0  0  0
  -23.5835  -18.4845   24.3944 C   0  0  0  0  0  0  0  0  0  0  0  0
  -22.8483   -4.4717   24.6754 C   0  0  0  0  0  0  0  0  0  0  0  0
  -21.1559   -6.0943   24.0925 C   0  0  0  0  0  0  0  0  0  0  0  0
  -24.5202  -11.6889   20.7388 C   0  0  0  0  0  0  0  0  0  0  0  0
  -25.2705  -13.7143   20.3266 C   0  0  0  0  0  0  0  0  0  0  0  0
  -22.8406  -13.6294   20.9071 C   0  0  0  0  0  0  0  0  0  0  0  0
  -20.8682  -29.3387   22.9902 C   0  0  0  0  0  0  0  0  0  0  0  0
  -23.8138  -30.1903   24.0487 C   0  0  0  0  0  0  0  0  0  0  0  0
  -26.6789  -29.2966   25.6733 C   0  0  0  0  0  0  0  0  0  0  0  0
  -30.6450  -14.6917   20.7280 C   0  0  0  0  0  0  0  0  0  0  0  0
  -16.6317  -31.7104   21.4140 C   0  0  0  0  0  0  0  0  0  0  0  0
  -20.7563  -28.6363   25.4089 C   0  0  0  0  0  0  0  0  0  0  0  0
  -23.2576  -27.7304   24.1175 C   0  0  0  0  0  0  0  0  0  0  0  0
  -18.1195  -32.0488   21.4599 C   0  0  0  0  0  0  0  0  0  0  0  0
  -29.7491  -12.0212   18.7169 C   0  0  0  0  0  0  0  0  0  0  0  0
  -18.9456  -30.9032   20.8836 C   0  0  0  0  0  0  0  0  0  0  0  0
  -28.2742  -11.7955   19.0487 C   0  0  0  0  0  0  0  0  0  0  0  0
  -29.6856  -18.1801   21.5052 C   0  0  0  0  0  0  0  0  0  0  0  0
  -30.5503  -12.3340   19.9755 C   0  0  0  0  0  0  0  0  0  0  0  0
  -30.6980  -17.0404   21.4882 C   0  0  0  0  0  0  0  0  0  0  0  0
  -28.5586  -13.2958   21.0823 C   0  0  0  0  0  0  0  0  0  0  0  0
  -29.0369  -15.5094   22.4969 C   0  0  0  0  0  0  0  0  0  0  0  0
  -18.7576  -29.6208   21.7031 C   0  0  1  0  0  0  0  0  0  0  0  0
  -21.4703  -29.4824   24.3593 C   0  0  1  0  0  0  0  0  0  0  0  0
  -27.6988  -12.9825   19.8414 C   0  0  2  0  0  0  0  0  0  0  0  0
  -27.9945  -16.6219   22.5147 C   0  0  2  0  0  0  0  0  0  0  0  0
  -28.6429  -18.0040   22.6115 C   0  0  2  0  0  0  0  0  0  0  0  0
  -23.0092  -18.4619   21.9506 C   0  0  0  0  0  0  0  0  0  0  0  0
  -23.9179  -21.2798   26.9101 C   0  0  0  0  0  0  0  0  0  0  0  0
  -28.9228  -30.1948   26.3482 C   0  0  0  0  0  0  0  0  0  0  0  0
  -24.0325  -14.2235   24.5035 C   0  0  0  0  0  0  0  0  0  0  0  0
  -24.7966  -29.8868   21.1761 C   0  0  0  0  0  0  0  0  0  0  0  0
  -27.1406  -29.8539   22.0553 C   0  0  0  0  0  0  0  0  0  0  0  0
  -25.7138  -31.8728   22.3881 C   0  0  0  0  0  0  0  0  0  0  0  0
  -26.0968  -28.9127   28.5495 C   0  0  0  0  0  0  0  0  0  0  0  0
  -28.0702  -20.2489   23.0040 C   0  0  0  0  0  0  0  0  0  0  0  0
  -23.2045  -22.7500   24.4767 C   0  0  0  0  0  0  0  0  0  1  0  0
  -26.0193  -15.4353   23.4768 C   0  0  0  0  0  0  0  0  0  0  0  0
  -24.6293  -16.5486   25.2969 C   0  0  0  0  0  0  0  0  0  0  0  0
  -25.2285  -29.7789   23.7193 C   0  0  1  0  0  0  0  0  0  0  0  0
  -27.4751  -29.9878   26.7654 C   0  0  2  0  0  0  0  0  0  0  0  0
  -25.1677  -15.2271   24.7345 C   0  0  1  0  0  0  0  0  0  0  0  0
  -25.7007  -30.3293   22.3440 C   0  0  0  0  0  0  0  0  0  0  0  0
  -25.8138  -11.5152   20.4552 N   0  0  0  0  0  0  0  0  0  0  0  0
  -26.2425  -12.7648   20.2087 N   0  0  0  0  0  0  0  0  0  0  0  0
  -22.8915  -29.1513   24.2376 N   0  0  0  0  0  0  0  0  0  0  0  0
  -29.9698  -13.4621   20.7037 N   0  0  0  0  0  0  0  0  0  0  0  0
  -30.0338  -15.7373   21.4393 N   0  0  0  0  0  0  0  0  0  0  0  0
  -25.5300  -15.0218   20.1135 N   0  0  0  0  0  0  0  0  0  0  0  0
  -21.7732  -12.7906   21.2555 N   0  0  0  0  0  0  0  0  0  0  0  0
  -19.5317  -29.6834   22.9243 N   0  0  0  0  0  0  0  0  0  0  0  0
  -26.0504  -30.2042   24.8472 N   0  0  0  0  0  0  0  0  0  0  0  0
  -27.1085  -16.4209   23.6962 N   0  3  0  0  0  0  0  0  0  0  0  0
  -27.4575  -29.1737   28.0135 N   0  3  0  0  0  0  0  0  0  0  0  0
  -22.6405  -14.8625   20.7932 O   0  0  0  0  0  0  0  0  0  0  0  0
  -21.5651  -28.9456   22.0619 O   0  0  0  0  0  0  0  0  0  0  0  0
  -23.5389  -31.3892   24.1422 O   0  0  0  0  0  0  0  0  0  0  0  0
  -26.6234  -28.0739   25.5617 O   0  0  0  0  0  0  0  0  0  0  0  0
  -31.7256  -14.8501   20.1466 O   0  0  0  0  0  0  0  0  0  0  0  0
  -21.3096   -7.2903   22.0081 O   0  0  0  0  0  0  0  0  0  0  0  0
  -21.9839  -23.1039   25.1138 O   0  0  0  0  0  0  0  0  0  1  0  0
  -23.7052  -17.1201   24.3784 O   0  0  0  0  0  0  0  0  0  0  0  0
  -27.6409  -19.0060   22.4682 O   0  0  0  0  0  0  0  0  0  0  0  0
  -23.3416   -3.5659   25.5300 F   0  0  0  0  0  0  0  0  0  0  0  0
  -20.0231   -6.7440   24.3933 F   0  0  0  0  0  0  0  0  0  0  0  0
  1  2  1  0  0  0  0
  1  5  2  0  0  0  0
  2  6  2  0  0  0  0
  3  8  2  0  0  0  0
  3 17  1  0  0  0  0
  4  9  1  0  0  0  0
  4 17  2  0  0  0  0
  5 19  1  0  0  0  0
  6 21  1  0  0  0  0
  7 10  2  0  0  0  0
  7 20  1  0  0  0  0
  8 26  1  0  0  0  0
  9 26  2  0  0  0  0
 10 27  1  0  0  0  0
 11 12  2  0  0  0  0
 11 28  1  0  0  0  0
 12 30  1  0  0  0  0
 13 22  1  0  0  0  0
 13 27  2  0  0  0  0
 14 23  1  0  0  0  0
 14 24  2  0  0  0  0
 15 25  1  0  0  0  0
 15 29  2  0  0  0  0
 16 30  2  0  0  0  0
 16 31  1  0  0  0  0
 17 32  1  0  0  0  0
 18 32  1  0  0  0  0
 18 33  2  0  0  0  0
 18 34  1  0  0  0  0
 19 21  2  0  0  0  0
 19 39  1  0  0  0  0
 20 22  2  0  0  0  0
 20 40  1  0  0  0  0
 21 51  1  0  0  0  0
 22 41  1  0  0  0  0
 23 25  2  0  0  0  0
 23 65  1  0  0  0  0
 24 29  1  0  0  0  0
 24 56  1  0  0  0  0
 25 57  1  0  0  0  0
 26 88  1  0  0  0  0
 27 89  1  0  0  0  0
 28 31  2  0  0  0  0
 28 88  1  0  0  0  0
 29 90  1  0  0  0  0
 30 92  1  0  0  0  0
 31 93  1  0  0  0  0
 32 72  2  0  0  0  0
 33 73  1  0  0  0  0
 33 77  1  0  0  0  0
 34 78  1  0  0  0  0
 34 83  2  0  0  0  0
 35 52  1  0  0  0  0
 35 79  1  0  0  0  0
 35 84  2  0  0  0  0
 36 68  1  0  0  0  0
 36 74  1  0  0  0  0
 36 85  2  0  0  0  0
 37 69  1  0  0  0  0
 37 80  1  0  0  0  0
 37 86  2  0  0  0  0
 38 75  1  0  0  0  0
 38 76  1  0  0  0  0
 38 87  2  0  0  0  0
 39 42  1  0  0  0  0
 40 52  1  0  0  0  0
 41 74  1  0  0  0  0
 42 44  1  0  0  0  0
 43 45  1  0  0  0  0
 43 47  1  0  0  0  0
 44 51  1  0  0  0  0
 45 53  1  0  0  0  0
 46 48  1  0  0  0  0
 46 55  1  0  0  0  0
 47 75  1  0  0  0  0
 48 76  1  0  0  0  0
 49 53  1  0  0  0  0
 49 75  1  0  0  0  0
 50 54  1  0  0  0  0
 50 76  1  0  0  0  0
 51 79  1  0  0  0  0
 52 74  1  0  0  0  0
 53 73  1  0  0  0  0
 54 55  1  0  0  0  0
 54 81  1  0  0  0  0
 55 91  1  0  0  0  0
 58 69  1  0  0  0  0
 59 70  1  0  0  0  0
 60 71  1  0  0  0  0
 61 71  1  0  0  0  0
 62 71  1  0  0  0  0
 63 82  1  0  0  0  0
 64 91  1  0  0  0  0
 65 89  1  0  0  0  0
 66 70  1  0  0  0  0
 66 81  1  0  0  0  0
 67 70  1  0  0  0  0
 67 90  1  0  0  0  0
 68 71  1  0  0  0  0
 68 80  1  0  0  0  0
 69 82  1  0  0  0  0
 72 73  1  0  0  0  0
M  CHG  2  81   1  82   1
M  ISO  4  38 100  65 101  76 100  89 101
M  END
> <Batch ID>
0161

> <Smiles>
CNC(C)C(=O)NC(C(=O)N1Cc2cc([101O:1][101CH2:1]c3cc(C)c(OCC(C)CNC4C[100N:0]([100C:0](=O)N5CCCC(n6nc(-c7ccc(Oc8ccc(F)cc8F)cc7)c(C(N)=O)c6N)C5)CCC4OC)cc3C)ccc2CC1C(=O)NC1CCCc2ccccc21)C(C)(C)C

> <Shape>
0.280

> <Color>
0.189

> <Negative vol penalty>
0.000

$$$$

  -OEChem-04052322123D

 87 96  0     1  0  0  0  0  0999 V2000
  -28.3549  -25.7048   15.8193 C   0  0  0  0  0  0  0  0  0  0  0  0
  -27.1908  -25.7172   16.5810 C   0  0  0  0  0  0  0  0  0  0  0  0
  -24.7400  -14.3080   19.6513 C   0  0  0  0  0  0  0  0  0  0  0  0
  -25.7914  -14.4082   21.8242 C   0  0  0  0  0  0  0  0  0  0  0  0
  -29.5292  -26.2527   16.3339 C   0  0  0  0  0  0  0  0  0  0  0  0
  -27.2007  -26.2765   17.8583 C   0  0  0  0  0  0  0  0  0  0  0  0
  -23.1885  -29.2469   18.7094 C   0  0  0  0  0  0  0  0  0  0  0  0
  -24.9857  -12.9362   19.5956 C   0  0  0  0  0  0  0  0  0  0  0  0
  -26.0370  -13.0362   21.7686 C   0  0  0  0  0  0  0  0  0  0  0  0
  -21.9802  -28.6162   19.0027 C   0  0  0  0  0  0  0  0  0  0  0  0
  -27.2623   -9.6254   22.0419 C   0  0  0  0  0  0  0  0  0  0  0  0
  -28.5270   -9.1772   22.4232 C   0  0  0  0  0  0  0  0  0  0  0  0
  -23.9607  -23.9972   26.0352 C   0  0  0  0  0  0  0  0  0  0  0  0
  -23.7748  -24.4338   23.2486 C   0  0  0  0  0  0  0  0  0  0  0  0
  -22.3321  -29.0471   21.3500 C   0  0  0  0  0  0  0  0  0  0  0  0
  -29.5270  -10.5120   20.6752 C   0  0  0  0  0  0  0  0  0  0  0  0
  -25.1429  -15.0441   20.7656 C   0  0  0  0  0  0  0  0  0  0  0  0
  -23.7498  -17.1008   21.3458 C   0  0  0  0  0  0  0  0  0  0  0  0
  -29.5511  -26.8277   17.6143 C   0  0  0  0  0  0  0  0  0  0  0  0
  -23.9842  -29.7736   19.7368 C   0  0  0  0  0  0  0  0  0  0  0  0
  -28.3767  -26.8314   18.3910 C   0  0  0  0  0  0  0  0  0  0  0  0
  -25.0947  -24.0272   25.2403 C   0  0  0  0  0  0  0  0  0  0  0  0
  -25.0037  -24.2388   23.8596 C   0  0  0  0  0  0  0  0  0  0  0  0
  -23.5488  -29.6862   21.0668 C   0  0  0  0  0  0  0  0  0  0  0  0
  -22.7197  -24.1993   25.4278 C   0  0  0  0  0  0  0  0  0  0  0  0
  -22.6274  -24.4167   24.0443 C   0  0  0  0  0  0  0  0  0  0  0  0
  -25.6342  -12.3002   20.6542 C   0  0  0  0  0  0  0  0  0  0  0  0
  -21.5532  -28.5137   20.3234 C   0  0  0  0  0  0  0  0  0  0  0  0
  -27.1300  -10.5168   20.9772 C   0  0  0  0  0  0  0  0  0  0  0  0
  -29.6593   -9.6205   21.7398 C   0  0  0  0  0  0  0  0  0  0  0  0
  -28.2623  -10.9601   20.2939 C   0  0  0  0  0  0  0  0  0  0  0  0
  -24.8900  -16.4614   20.8234 C   0  0  0  0  0  0  0  0  0  0  0  0
  -23.9948  -18.4403   21.1665 C   0  0  0  0  0  0  0  0  0  0  0  0
  -22.5743  -16.5346   21.9402 C   0  0  0  0  0  0  0  0  0  0  0  0
  -26.9148  -29.1966   20.8244 C   0  0  0  0  0  0  0  0  0  0  0  0
  -26.3073  -31.7762   22.6950 C   0  0  0  0  0  0  0  0  0  0  0  0
  -23.9934  -33.7869   24.1948 C   0  0  0  0  0  0  0  0  0  0  0  0
  -27.4200  -22.8387   21.4263 C   0  0  0  0  0  0  0  0  0  0  0  0
  -30.8559  -27.3652   18.1465 C   0  0  0  0  0  0  0  0  0  0  0  0
  -25.2721  -30.4745   19.4015 C   0  0  0  0  0  0  0  0  0  0  0  0
  -26.5155  -23.8057   25.6620 C   0  0  0  0  0  0  0  0  0  0  0  0
  -24.3565  -30.2534   22.2046 C   0  0  0  0  0  0  0  0  0  0  0  0
  -30.6898  -28.2748   19.3612 C   0  0  0  0  0  0  0  0  0  0  0  0
  -27.5946  -20.8020   18.5112 C   0  0  0  0  0  0  0  0  0  0  0  0
  -29.7382  -27.6451   20.3735 C   0  0  0  0  0  0  0  0  0  0  0  0
  -26.8182  -19.5421   18.8982 C   0  0  0  0  0  0  0  0  0  0  0  0
  -28.3882  -21.3604   19.6903 C   0  0  0  0  0  0  0  0  0  0  0  0
  -26.8193  -20.3449   21.2970 C   0  0  0  0  0  0  0  0  0  0  0  0
  -28.3413  -27.4513   19.7711 C   0  0  1  0  0  0  0  0  0  0  0  0
  -26.3575  -24.1939   23.2134 C   0  0  1  0  0  0  0  0  0  0  0  0
  -26.2498  -30.5202   20.5717 C   0  0  1  0  0  0  0  0  0  0  0  0
  -25.9591  -19.7768   20.1552 C   0  0  2  0  0  0  0  0  0  0  0  0
  -27.2849  -24.3353   24.4391 C   0  0  1  0  0  0  0  0  0  0  0  0
  -21.4908  -24.1751   26.2780 C   0  0  0  0  0  0  0  0  0  0  0  0
  -23.8005  -35.7923   25.6911 C   0  0  0  0  0  0  0  0  0  0  0  0
  -19.1116  -26.3895   19.2195 C   0  0  0  0  0  0  0  0  0  0  0  0
  -27.0488  -30.0504   25.0995 C   0  0  0  0  0  0  0  0  0  0  0  0
  -25.9476  -31.7504   26.5712 C   0  0  0  0  0  0  0  0  0  0  0  0
  -27.9215  -32.3924   25.1876 C   0  0  0  0  0  0  0  0  0  0  0  0
  -22.5523  -35.3367   22.1259 C   0  0  0  0  0  0  0  0  0  0  0  0
  -21.2935  -24.6303   23.3917 C   0  0  0  0  0  0  0  0  0  0  0  0
  -20.0729  -25.6780   21.4808 C   0  0  0  0  0  0  0  0  0  0  0  0
  -25.6957  -31.9875   24.0589 C   0  0  1  0  0  0  0  0  0  0  0  0
  -23.8591  -35.2979   24.2541 C   0  0  2  0  0  0  0  0  0  0  0  0
  -20.2447  -26.5301   20.2275 C   0  0  2  0  0  0  0  0  0  1  0  0
  -26.6389  -31.5327   25.2083 C   0  0  0  0  0  0  0  0  0  0  0  0
  -25.7922  -17.3238   20.3477 N   0  0  0  0  0  0  0  0  0  0  0  0
  -25.2191  -18.5187   20.5704 N   0  0  0  0  0  0  0  0  0  0  0  0
  -25.6114  -30.9237   21.8262 N   0  0  0  0  0  0  0  0  0  0  0  0
  -27.5152  -21.5616   20.8493 N   0  0  0  0  0  0  0  0  0  0  0  0
  -23.2804  -19.5469   21.4620 N   0  0  0  0  0  0  0  0  0  0  0  0
  -22.4851  -15.1399   22.0468 N   0  0  0  0  0  0  0  0  0  0  0  0
  -27.6239  -28.7079   19.7438 N   0  0  0  0  0  0  0  0  0  0  0  0
  -25.3130  -33.3939   24.1213 N   0  0  0  0  0  0  0  0  0  0  0  0
  -26.5656  -22.9439   22.5170 N   0  0  0  0  0  0  0  0  0  0  0  0
  -22.6176  -35.7354   23.5555 N   0  3  0  0  0  0  0  0  0  0  0  0
  -21.3672  -25.4968   22.1841 N   0  3  0  0  0  0  0  0  0  0  0  0
  -21.6238  -17.2436   22.3493 O   0  0  0  0  0  0  0  0  0  0  0  0
  -26.7946  -28.6594   21.9192 O   0  0  0  0  0  0  0  0  0  0  0  0
  -27.3598  -32.3521   22.4084 O   0  0  0  0  0  0  0  0  0  0  0  0
  -23.0247  -33.0308   24.2157 O   0  0  0  0  0  0  0  0  0  0  0  0
  -28.0458  -23.8142   20.9976 O   0  0  0  0  0  0  0  0  0  0  0  0
  -27.5782  -25.7192   24.6526 O   0  0  0  0  0  0  0  0  0  0  0  0
  -25.8738  -10.9615   20.6004 O   0  0  0  0  0  0  0  0  0  0  0  0
  -20.3745  -27.8981   20.6125 O   0  0  0  0  0  0  0  0  0  1  0  0
  -30.8738   -9.1912   22.1071 F   0  0  0  0  0  0  0  0  0  0  0  0
  -28.1416  -11.8174   19.2710 F   0  0  0  0  0  0  0  0  0  0  0  0
  1  2  1  0  0  0  0
  1  5  2  0  0  0  0
  2  6  2  0  0  0  0
  3  8  2  0  0  0  0
  3 17  1  0  0  0  0
  4  9  1  0  0  0  0
  4 17  2  0  0  0  0
  5 19  1  0  0  0  0
  6 21  1  0  0  0  0
  7 10  2  0  0  0  0
  7 20  1  0  0  0  0
  8 27  1  0  0  0  0
  9 27  2  0  0  0  0
 10 28  1  0  0  0  0
 11 12  2  0  0  0  0
 11 29  1  0  0  0  0
 12 30  1  0  0  0  0
 13 22  2  0  0  0  0
 13 25  1  0  0  0  0
 14 23  2  0  0  0  0
 14 26  1  0  0  0  0
 15 24  1  0  0  0  0
 15 28  2  0  0  0  0
 16 30  2  0  0  0  0
 16 31  1  0  0  0  0
 17 32  1  0  0  0  0
 18 32  1  0  0  0  0
 18 33  2  0  0  0  0
 18 34  1  0  0  0  0
 19 21  2  0  0  0  0
 19 39  1  0  0  0  0
 20 24  2  0  0  0  0
 20 40  1  0  0  0  0
 21 49  1  0  0  0  0
 22 23  1  0  0  0  0
 22 41  1  0  0  0  0
 23 50  1  0  0  0  0
 24 42  1  0  0  0  0
 25 26  2  0  0  0  0
 25 54  1  0  0  0  0
 26 61  1  0  0  0  0
 27 84  1  0  0  0  0
 28 85  1  0  0  0  0
 29 31  2  0  0  0  0
 29 84  1  0  0  0  0
 30 86  1  0  0  0  0
 31 87  1  0  0  0  0
 32 67  2  0  0  0  0
 33 68  1  0  0  0  0
 33 71  1  0  0  0  0
 34 72  1  0  0  0  0
 34 78  2  0  0  0  0
 35 51  1  0  0  0  0
 35 73  1  0  0  0  0
 35 79  2  0  0  0  0
 36 63  1  0  0  0  0
 36 69  1  0  0  0  0
 36 80  2  0  0  0  0
 37 64  1  0  0  0  0
 37 74  1  0  0  0  0
 37 81  2  0  0  0  0
 38 70  1  0  0  0  0
 38 75  1  0  0  0  0
 38 82  2  0  0  0  0
 39 43  1  0  0  0  0
 40 51  1  0  0  0  0
 41 53  1  0  0  0  0
 42 69  1  0  0  0  0
 43 45  1  0  0  0  0
 44 46  1  0  0  0  0
 44 47  1  0  0  0  0
 45 49  1  0  0  0  0
 46 52  1  0  0  0  0
 47 70  1  0  0  0  0
 48 52  1  0  0  0  0
 48 70  1  0  0  0  0
 49 73  1  0  0  0  0
 50 53  1  0  0  0  0
 50 75  1  0  0  0  0
 51 69  1  0  0  0  0
 52 68  1  0  0  0  0
 53 83  1  0  0  0  0
 55 64  1  0  0  0  0
 56 65  1  0  0  0  0
 57 66  1  0  0  0  0
 58 66  1  0  0  0  0
 59 66  1  0  0  0  0
 60 76  1  0  0  0  0
 61 77  1  0  0  0  0
 62 65  1  0  0  0  0
 62 77  1  0  0  0  0
 63 66  1  0  0  0  0
 63 74  1  0  0  0  0
 64 76  1  0  0  0  0
 65 85  1  0  0  0  0
 67 68  1  0  0  0  0
M  CHG  2  76   1  77   1
M  ISO  4  38 100  65 101  75 100  85 101
M  END
> <Batch ID>
0161

> <Smiles>
CNC(C)C(=O)NC(C(=O)N1Cc2cc([101O:1][101CH:1](C)CNCc3cc4c(cc3C)CC(O)C4[100NH:0][100C:0](=O)N3CCCC(n4nc(-c5ccc(Oc6ccc(F)cc6F)cc5)c(C(N)=O)c4N)C3)ccc2CC1C(=O)NC1CCCc2ccccc21)C(C)(C)C

> <Shape>
0.236

> <Color>
0.069

> <Negative vol penalty>
0.000

$$$$

  -OEChem-04052322123D

 92101  0     1  0  0  0  0  0999 V2000
  -32.0849  -32.2362   13.9885 C   0  0  0  0  0  0  0  0  0  0  0  0
  -31.9430  -31.3520   15.0532 C   0  0  0  0  0  0  0  0  0  0  0  0
  -23.0883   -9.7676   19.9756 C   0  0  0  0  0  0  0  0  0  0  0  0
  -23.8239   -9.8590   22.2750 C   0  0  0  0  0  0  0  0  0  0  0  0
  -31.6066  -33.5411   14.0992 C   0  0  0  0  0  0  0  0  0  0  0  0
  -31.3236  -31.7726   16.2296 C   0  0  0  0  0  0  0  0  0  0  0  0
  -28.0075  -28.3793   17.9999 C   0  0  0  0  0  0  0  0  0  0  0  0
  -22.3660   -8.6070   20.2527 C   0  0  0  0  0  0  0  0  0  0  0  0
  -23.1015   -8.6984   22.5522 C   0  0  0  0  0  0  0  0  0  0  0  0
  -28.5256  -27.2755   18.6758 C   0  0  0  0  0  0  0  0  0  0  0  0
  -23.4672   -5.3681   22.0979 C   0  0  0  0  0  0  0  0  0  0  0  0
  -24.0964   -4.3779   22.8523 C   0  0  0  0  0  0  0  0  0  0  0  0
  -28.0082  -28.3304   20.7826 C   0  0  0  0  0  0  0  0  0  0  0  0
  -22.3740   -4.5665   24.5361 C   0  0  0  0  0  0  0  0  0  0  0  0
  -23.8173  -10.3936   20.9867 C   0  0  0  0  0  0  0  0  0  0  0  0
  -24.1078  -12.9207   20.7942 C   0  0  0  0  0  0  0  0  0  0  0  0
  -30.9724  -33.9751   15.2740 C   0  0  0  0  0  0  0  0  0  0  0  0
  -27.4950  -29.4735   18.7115 C   0  0  0  0  0  0  0  0  0  0  0  0
  -30.8376  -33.0850   16.3565 C   0  0  0  0  0  0  0  0  0  0  0  0
  -27.4819  -29.4458   20.1133 C   0  0  0  0  0  0  0  0  0  0  0  0
  -29.1380  -23.3939   21.7225 C   0  0  0  0  0  0  0  0  0  0  0  0
  -31.3619  -23.6107   20.8036 C   0  0  0  0  0  0  0  0  0  0  0  0
  -29.5854  -22.3763   22.5651 C   0  0  0  0  0  0  0  0  0  0  0  0
  -31.8093  -22.5932   21.6463 C   0  0  0  0  0  0  0  0  0  0  0  0
  -30.0263  -24.0111   20.8417 C   0  0  0  0  0  0  0  0  0  0  0  0
  -30.9210  -21.9760   22.5270 C   0  0  0  0  0  0  0  0  0  0  0  0
  -22.3726   -8.0724   21.5411 C   0  0  0  0  0  0  0  0  0  0  0  0
  -28.5286  -27.2521   20.0674 C   0  0  0  0  0  0  0  0  0  0  0  0
  -22.2915   -5.9576   22.5625 C   0  0  0  0  0  0  0  0  0  0  0  0
  -23.5498   -3.9770   24.0714 C   0  0  0  0  0  0  0  0  0  0  0  0
  -21.7449   -5.5567   23.7816 C   0  0  0  0  0  0  0  0  0  0  0  0
  -24.5641  -11.5922   20.7008 C   0  0  0  0  0  0  0  0  0  0  0  0
  -25.1879  -13.6819   20.4193 C   0  0  0  0  0  0  0  0  0  0  0  0
  -22.8226  -13.4219   21.1850 C   0  0  0  0  0  0  0  0  0  0  0  0
  -28.2469  -32.5537   18.9370 C   0  0  0  0  0  0  0  0  0  0  0  0
  -25.5381  -32.6840   20.7168 C   0  0  0  0  0  0  0  0  0  0  0  0
  -23.2793  -31.0431   22.6795 C   0  0  0  0  0  0  0  0  0  0  0  0
  -30.6470  -14.8215   20.6307 C   0  0  0  0  0  0  0  0  0  0  0  0
  -30.5139  -35.4091   15.3642 C   0  0  0  0  0  0  0  0  0  0  0  0
  -26.9154  -30.6451   17.9673 C   0  0  0  0  0  0  0  0  0  0  0  0
  -26.9247  -30.5864   20.9239 C   0  0  0  0  0  0  0  0  0  0  0  0
  -29.5351  -35.6648   16.5073 C   0  0  0  0  0  0  0  0  0  0  0  0
  -29.5841  -12.3434   18.3056 C   0  0  0  0  0  0  0  0  0  0  0  0
  -30.0368  -35.0181   17.7945 C   0  0  0  0  0  0  0  0  0  0  0  0
  -28.1487  -12.0324   18.7331 C   0  0  0  0  0  0  0  0  0  0  0  0
  -30.8967  -17.0606   23.3127 C   0  0  0  0  0  0  0  0  0  0  0  0
  -31.5320  -18.3918   23.6956 C   0  0  0  0  0  0  0  0  0  0  0  0
  -30.4839  -12.6192   19.5083 C   0  0  0  0  0  0  0  0  0  0  0  0
  -28.5530  -13.3511   20.8535 C   0  0  0  0  0  0  0  0  0  0  0  0
  -30.1494  -33.4966   17.6399 C   0  0  1  0  0  0  0  0  0  0  0  0
  -26.8892  -31.9257   18.7961 C   0  0  1  0  0  0  0  0  0  0  0  0
  -27.5950  -13.1209   19.6722 C   0  0  2  0  0  0  0  0  0  0  0  0
  -30.6540  -17.0065   21.8023 C   0  0  2  0  0  0  0  0  0  0  0  0
  -30.7047  -19.5587   23.1610 C   0  0  1  0  0  0  0  0  0  0  0  0
  -29.8800  -18.2475   21.2912 C   0  0  0  0  0  0  0  0  0  0  0  0
  -27.7053  -23.8236   21.7633 C   0  0  0  0  0  0  0  0  0  0  0  0
  -32.3154  -24.2727   19.8592 C   0  0  0  0  0  0  0  0  0  0  0  0
  -28.6322  -21.7144   23.5098 C   0  0  0  0  0  0  0  0  0  0  0  0
  -33.2425  -22.1644   21.6071 C   0  0  0  0  0  0  0  0  0  0  0  0
  -29.9466  -18.3152   19.7559 C   0  0  0  0  0  0  0  0  0  0  0  0
  -28.3984  -18.2616   21.7058 C   0  0  0  0  0  0  0  0  0  0  0  0
  -31.2621  -21.2592   24.9195 C   0  0  0  0  0  0  0  0  0  0  0  0
  -21.1934  -31.4231   24.0219 C   0  0  0  0  0  0  0  0  0  0  0  0
  -27.1959  -33.9959   22.9168 C   0  0  0  0  0  0  0  0  0  0  0  0
  -25.3436  -33.4842   24.5216 C   0  0  0  0  0  0  0  0  0  0  0  0
  -24.9286  -34.9967   22.5818 C   0  0  0  0  0  0  0  0  0  0  0  0
  -21.7249  -29.1525   21.0156 C   0  0  0  0  0  0  0  0  0  0  0  0
  -29.5455  -25.1063   19.9358 C   0  0  0  0  0  0  0  0  0  1  0  0
  -31.4013  -20.8864   23.4333 C   0  0  2  0  0  0  0  0  0  0  0  0
  -25.2120  -32.5165   22.1812 C   0  0  1  0  0  0  0  0  0  0  0  0
  -21.7614  -31.0246   22.6686 C   0  0  2  0  0  0  0  0  0  0  0  0
  -25.6824  -33.7275   23.0354 C   0  0  0  0  0  0  0  0  0  0  0  0
  -25.8350  -11.5106   20.2980 N   0  0  0  0  0  0  0  0  0  0  0  0
  -26.1864  -12.7975   20.1349 N   0  0  0  0  0  0  0  0  0  0  0  0
  -26.3750  -31.7120   20.1504 N   0  0  0  0  0  0  0  0  0  0  0  0
  -29.9029  -13.6619   20.3575 N   0  0  0  0  0  0  0  0  0  0  0  0
  -25.3713  -15.0147   20.3084 N   0  0  0  0  0  0  0  0  0  0  0  0
  -21.8263  -12.5020   21.5395 N   0  0  0  0  0  0  0  0  0  0  0  0
  -28.8430  -32.8810   17.7341 N   0  0  0  0  0  0  0  0  0  0  0  0
  -23.7784  -32.2556   22.2529 N   0  0  0  0  0  0  0  0  0  0  0  0
  -30.0199  -15.7622   21.4385 N   0  0  0  0  0  0  0  0  0  0  0  0
  -21.2624  -29.6612   22.3325 N   0  3  0  0  0  0  0  0  0  0  0  0
  -22.5602  -14.6484   21.2030 O   0  0  0  0  0  0  0  0  0  0  0  0
  -28.7182  -32.7298   20.0544 O   0  0  0  0  0  0  0  0  0  0  0  0
  -25.0619  -33.6380   20.0965 O   0  0  0  0  0  0  0  0  0  0  0  0
  -23.9547  -30.0796   23.0346 O   0  0  0  0  0  0  0  0  0  0  0  0
  -31.7837  -15.0073   20.1832 O   0  0  0  0  0  0  0  0  0  0  0  0
  -30.5309  -19.4485   21.7466 O   0  0  0  0  0  0  0  0  0  0  0  0
  -21.6676   -6.9400   21.8120 O   0  0  0  0  0  0  0  0  0  0  0  0
  -29.0343  -26.1762   20.7297 O   0  0  0  0  0  0  0  0  0  1  0  0
  -24.1532   -3.0250   24.7950 F   0  0  0  0  0  0  0  0  0  0  0  0
  -20.6149   -6.1185   24.2326 F   0  0  0  0  0  0  0  0  0  0  0  0
  1  2  1  0  0  0  0
  1  5  2  0  0  0  0
  2  6  2  0  0  0  0
  3  8  2  0  0  0  0
  3 15  1  0  0  0  0
  4  9  1  0  0  0  0
  4 15  2  0  0  0  0
  5 17  1  0  0  0  0
  6 19  1  0  0  0  0
  7 10  2  0  0  0  0
  7 18  1  0  0  0  0
  8 27  1  0  0  0  0
  9 27  2  0  0  0  0
 10 28  1  0  0  0  0
 11 12  2  0  0  0  0
 11 29  1  0  0  0  0
 12 30  1  0  0  0  0
 13 20  1  0  0  0  0
 13 28  2  0  0  0  0
 14 30  2  0  0  0  0
 14 31  1  0  0  0  0
 15 32  1  0  0  0  0
 16 32  1  0  0  0  0
 16 33  2  0  0  0  0
 16 34  1  0  0  0  0
 17 19  2  0  0  0  0
 17 39  1  0  0  0  0
 18 20  2  0  0  0  0
 18 40  1  0  0  0  0
 19 50  1  0  0  0  0
 20 41  1  0  0  0  0
 21 23  2  0  0  0  0
 21 25  1  0  0  0  0
 21 56  1  0  0  0  0
 22 24  1  0  0  0  0
 22 25  2  0  0  0  0
 22 57  1  0  0  0  0
 23 26  1  0  0  0  0
 23 58  1  0  0  0  0
 24 26  2  0  0  0  0
 24 59  1  0  0  0  0
 25 68  1  0  0  0  0
 26 69  1  0  0  0  0
 27 89  1  0  0  0  0
 28 90  1  0  0  0  0
 29 31  2  0  0  0  0
 29 89  1  0  0  0  0
 30 91  1  0  0  0  0
 31 92  1  0  0  0  0
 32 73  2  0  0  0  0
 33 74  1  0  0  0  0
 33 77  1  0  0  0  0
 34 78  1  0  0  0  0
 34 83  2  0  0  0  0
 35 51  1  0  0  0  0
 35 79  1  0  0  0  0
 35 84  2  0  0  0  0
 36 70  1  0  0  0  0
 36 75  1  0  0  0  0
 36 85  2  0  0  0  0
 37 71  1  0  0  0  0
 37 80  1  0  0  0  0
 37 86  2  0  0  0  0
 38 76  1  0  0  0  0
 38 81  1  0  0  0  0
 38 87  2  0  0  0  0
 39 42  1  0  0  0  0
 40 51  1  0  0  0  0
 41 75  1  0  0  0  0
 42 44  1  0  0  0  0
 43 45  1  0  0  0  0
 43 48  1  0  0  0  0
 44 50  1  0  0  0  0
 45 52  1  0  0  0  0
 46 47  1  0  0  0  0
 46 53  1  0  0  0  0
 47 54  1  0  0  0  0
 48 76  1  0  0  0  0
 49 52  1  0  0  0  0
 49 76  1  0  0  0  0
 50 79  1  0  0  0  0
 51 75  1  0  0  0  0
 52 74  1  0  0  0  0
 53 55  1  0  0  0  0
 53 81  1  0  0  0  0
 54 69  1  0  0  0  0
 54 88  1  0  0  0  0
 55 60  1  0  0  0  0
 55 61  1  0  0  0  0
 55 88  1  0  0  0  0
 62 69  1  0  0  0  0
 63 71  1  0  0  0  0
 64 72  1  0  0  0  0
 65 72  1  0  0  0  0
 66 72  1  0  0  0  0
 67 82  1  0  0  0  0
 68 90  1  0  0  0  0
 70 72  1  0  0  0  0
 70 80  1  0  0  0  0
 71 82  1  0  0  0  0
 73 74  1  0  0  0  0
M  CHG  1  82   1
M  ISO  4  38 100  68 101  81 100  90 101
M  END
> <Batch ID>
0161

> <Smiles>
CNC(C)C(=O)NC(C(=O)N1Cc2cc([101O:1][101CH2:1]c3c(C)c(C)c(C(C)C4CCC([100NH:0][100C:0](=O)N5CCCC(n6nc(-c7ccc(Oc8ccc(F)cc8F)cc7)c(C(N)=O)c6N)C5)C(C)(C)O4)c(C)c3C)ccc2CC1C(=O)NC1CCCc2ccccc21)C(C)(C)C

> <Shape>
0.309

> <Color>
0.219

> <Negative vol penalty>
0.000

$$$$

  -OEChem-04052322123D

 82 91  0     1  0  0  0  0  0999 V2000
  -16.7007  -30.2749   24.0537 C   0  0  0  0  0  0  0  0  0  0  0  0
  -17.8873  -30.8103   24.5444 C   0  0  0  0  0  0  0  0  0  0  0  0
  -27.2067  -21.2227   20.3278 C   0  0  0  0  0  0  0  0  0  0  0  0
  -29.0265  -19.7783   19.6650 C   0  0  0  0  0  0  0  0  0  0  0  0
  -16.7289  -29.1207   23.2721 C   0  0  0  0  0  0  0  0  0  0  0  0
  -19.1027  -30.1912   24.2547 C   0  0  0  0  0  0  0  0  0  0  0  0
  -26.0005  -31.7146   23.0647 C   0  0  0  0  0  0  0  0  0  0  0  0
  -26.3623  -20.1164   20.4204 C   0  0  0  0  0  0  0  0  0  0  0  0
  -28.1821  -18.6719   19.7577 C   0  0  0  0  0  0  0  0  0  0  0  0
  -27.2741  -31.3544   23.5027 C   0  0  0  0  0  0  0  0  0  0  0  0
  -26.9164  -16.7040   22.1960 C   0  0  0  0  0  0  0  0  0  0  0  0
  -27.4078  -15.5676   22.8385 C   0  0  0  0  0  0  0  0  0  0  0  0
  -27.2081  -29.4099   22.0766 C   0  0  0  0  0  0  0  0  0  0  0  0
  -27.0931  -14.2871   20.8140 C   0  0  0  0  0  0  0  0  0  0  0  0
  -28.5388  -21.0537   19.9500 C   0  0  0  0  0  0  0  0  0  0  0  0
  -30.2151  -22.7405   20.8731 C   0  0  0  0  0  0  0  0  0  0  0  0
  -17.9460  -28.4925   22.9646 C   0  0  0  0  0  0  0  0  0  0  0  0
  -25.3154  -30.9179   22.1360 C   0  0  0  0  0  0  0  0  0  0  0  0
  -19.1470  -29.0267   23.4694 C   0  0  0  0  0  0  0  0  0  0  0  0
  -25.9269  -29.7635   21.6265 C   0  0  0  0  0  0  0  0  0  0  0  0
  -26.8500  -18.8410   20.1354 C   0  0  0  0  0  0  0  0  0  0  0  0
  -27.8769  -30.2004   23.0109 C   0  0  0  0  0  0  0  0  0  0  0  0
  -26.5132  -16.6319   20.8626 C   0  0  0  0  0  0  0  0  0  0  0  0
  -27.4962  -14.3591   22.1475 C   0  0  0  0  0  0  0  0  0  0  0  0
  -26.6016  -15.4235   20.1716 C   0  0  0  0  0  0  0  0  0  0  0  0
  -29.4114  -22.1962   19.8535 C   0  0  0  0  0  0  0  0  0  0  0  0
  -30.8465  -23.8066   20.2804 C   0  0  0  0  0  0  0  0  0  0  0  0
  -31.4912  -30.5972   20.8891 C   0  0  0  0  0  0  0  0  0  0  0  0
  -30.3766  -22.3201   22.2343 C   0  0  0  0  0  0  0  0  0  0  0  0
  -22.5958  -29.2728   22.1664 C   0  0  0  0  0  0  0  0  0  0  0  0
  -23.2809  -28.8325   19.0264 C   0  0  0  0  0  0  0  0  0  0  0  0
  -25.6412  -28.7209   16.5640 C   0  0  0  0  0  0  0  0  0  0  0  0
  -30.3280  -28.4016   17.0516 C   0  0  0  0  0  0  0  0  0  0  0  0
  -17.9221  -27.2200   22.1554 C   0  0  0  0  0  0  0  0  0  0  0  0
  -23.9531  -31.3345   21.6535 C   0  0  0  0  0  0  0  0  0  0  0  0
  -25.2420  -28.8850   20.6128 C   0  0  0  0  0  0  0  0  0  0  0  0
  -19.2841  -26.8370   21.5823 C   0  0  0  0  0  0  0  0  0  0  0  0
  -31.1336  -25.2053   15.4284 C   0  0  0  0  0  0  0  0  0  0  0  0
  -20.3655  -26.9549   22.6516 C   0  0  0  0  0  0  0  0  0  0  0  0
  -30.7743  -24.1815   16.5067 C   0  0  0  0  0  0  0  0  0  0  0  0
  -30.2735  -26.4635   15.5242 C   0  0  0  0  0  0  0  0  0  0  0  0
  -31.1337  -30.3381   18.3703 C   0  0  0  0  0  0  0  0  0  0  0  0
  -33.2833  -29.0461   21.0163 C   0  0  0  0  0  0  0  0  0  0  0  0
  -31.9212  -28.1638   19.0418 C   0  0  0  0  0  0  0  0  0  0  0  0
  -29.8961  -26.0696   17.9270 C   0  0  0  0  0  0  0  0  0  0  0  0
  -20.4874  -28.3979   23.1562 C   0  0  1  0  0  0  0  0  0  0  0  0
  -32.1184  -30.5156   19.5094 C   0  0  2  0  0  0  0  0  0  0  0  0
  -23.1371  -30.1739   21.0927 C   0  0  1  0  0  0  0  0  0  0  0  0
  -32.9163  -29.2088   19.5523 C   0  0  1  0  0  0  0  0  0  0  0  0
  -30.7888  -24.8216   17.9075 C   0  0  1  0  0  0  0  0  0  0  0  0
  -25.9030  -28.3006   14.1039 C   0  0  0  0  0  0  0  0  0  0  0  0
  -22.9726  -25.8354   19.5082 C   0  0  0  0  0  0  0  0  0  0  0  0
  -24.1489  -25.4357   17.3345 C   0  0  0  0  0  0  0  0  0  0  0  0
  -21.9735  -26.6561   17.3675 C   0  0  0  0  0  0  0  0  0  0  0  0
  -26.6969  -31.4454   16.0929 C   0  0  0  0  0  0  0  0  0  0  0  0
  -31.0736  -28.4458   23.4705 C   0  0  0  0  0  0  0  0  0  0  0  0
  -32.0271  -29.5856   23.1383 C   0  0  0  0  0  0  0  0  0  0  0  0
  -29.6786  -28.6524   22.8931 C   0  0  0  0  0  0  0  0  0  1  0  0
  -24.0523  -27.8046   18.2344 C   0  0  1  0  0  0  0  0  0  0  0  0
  -25.6868  -29.3500   15.1832 C   0  0  2  0  0  0  0  0  0  0  0  0
  -23.2992  -26.4482   18.1317 C   0  0  0  0  0  0  0  0  0  0  0  0
  -29.5203  -22.8616   18.7005 N   0  0  0  0  0  0  0  0  0  0  0  0
  -30.3998  -23.8351   18.9920 N   0  0  0  0  0  0  0  0  0  0  0  0
  -32.2226  -29.7422   21.7133 N   0  0  0  0  0  0  0  0  0  0  0  0
  -23.9085  -29.3312   20.1768 N   0  0  0  0  0  0  0  0  0  0  0  0
  -30.2990  -27.0134   16.8792 N   0  0  0  0  0  0  0  0  0  0  0  0
  -31.0161  -28.8986   18.1593 N   0  0  0  0  0  0  0  0  0  0  0  0
  -31.7346  -24.7131   20.7407 N   0  0  0  0  0  0  0  0  0  0  0  0
  -29.6530  -21.2054   22.6796 N   0  0  0  0  0  0  0  0  0  0  0  0
  -21.2160  -29.2069   22.2028 N   0  0  0  0  0  0  0  0  0  0  0  0
  -24.3507  -28.4214   16.9464 N   0  0  0  0  0  0  0  0  0  0  0  0
  -26.7955  -30.3425   15.1025 N   0  3  0  0  0  0  0  0  0  0  0  0
  -30.5516  -31.3167   21.1932 O   0  0  0  0  0  0  0  0  0  0  0  0
  -31.1274  -22.9251   23.0366 O   0  0  0  0  0  0  0  0  0  0  0  0
  -23.3725  -28.6800   22.9060 O   0  0  0  0  0  0  0  0  0  0  0  0
  -22.1657  -29.1855   18.6348 O   0  0  0  0  0  0  0  0  0  0  0  0
  -26.6498  -28.5124   17.2346 O   0  0  0  0  0  0  0  0  0  0  0  0
  -29.8050  -29.1635   16.2279 O   0  0  0  0  0  0  0  0  0  0  0  0
  -26.0263  -17.7612   20.2260 O   0  0  0  0  0  0  0  0  0  0  0  0
  -29.1287  -29.8436   23.4402 O   0  0  0  0  0  0  0  0  0  1  0  0
  -27.9695  -13.2683   22.7641 F   0  0  0  0  0  0  0  0  0  0  0  0
  -26.2170  -15.3484   18.8901 F   0  0  0  0  0  0  0  0  0  0  0  0
  1  2  1  0  0  0  0
  1  5  2  0  0  0  0
  2  6  2  0  0  0  0
  3  8  2  0  0  0  0
  3 15  1  0  0  0  0
  4  9  1  0  0  0  0
  4 15  2  0  0  0  0
  5 17  1  0  0  0  0
  6 19  1  0  0  0  0
  7 10  2  0  0  0  0
  7 18  1  0  0  0  0
  8 21  1  0  0  0  0
  9 21  2  0  0  0  0
 10 22  1  0  0  0  0
 11 12  2  0  0  0  0
 11 23  1  0  0  0  0
 12 24  1  0  0  0  0
 13 20  1  0  0  0  0
 13 22  2  0  0  0  0
 14 24  2  0  0  0  0
 14 25  1  0  0  0  0
 15 26  1  0  0  0  0
 16 26  1  0  0  0  0
 16 27  2  0  0  0  0
 16 29  1  0  0  0  0
 17 19  2  0  0  0  0
 17 34  1  0  0  0  0
 18 20  2  0  0  0  0
 18 35  1  0  0  0  0
 19 46  1  0  0  0  0
 20 36  1  0  0  0  0
 21 79  1  0  0  0  0
 22 80  1  0  0  0  0
 23 25  2  0  0  0  0
 23 79  1  0  0  0  0
 24 81  1  0  0  0  0
 25 82  1  0  0  0  0
 26 62  2  0  0  0  0
 27 63  1  0  0  0  0
 27 68  1  0  0  0  0
 28 47  1  0  0  0  0
 28 64  1  0  0  0  0
 28 73  2  0  0  0  0
 29 69  1  0  0  0  0
 29 74  2  0  0  0  0
 30 48  1  0  0  0  0
 30 70  1  0  0  0  0
 30 75  2  0  0  0  0
 31 59  1  0  0  0  0
 31 65  1  0  0  0  0
 31 76  2  0  0  0  0
 32 60  1  0  0  0  0
 32 71  1  0  0  0  0
 32 77  2  0  0  0  0
 33 66  1  0  0  0  0
 33 67  1  0  0  0  0
 33 78  2  0  0  0  0
 34 37  1  0  0  0  0
 35 48  1  0  0  0  0
 36 65  1  0  0  0  0
 37 39  1  0  0  0  0
 38 40  1  0  0  0  0
 38 41  1  0  0  0  0
 39 46  1  0  0  0  0
 40 50  1  0  0  0  0
 41 66  1  0  0  0  0
 42 47  1  0  0  0  0
 42 67  1  0  0  0  0
 43 49  1  0  0  0  0
 43 64  1  0  0  0  0
 44 49  1  0  0  0  0
 44 67  1  0  0  0  0
 45 50  1  0  0  0  0
 45 66  1  0  0  0  0
 46 70  1  0  0  0  0
 47 49  1  0  0  0  0
 48 65  1  0  0  0  0
 50 63  1  0  0  0  0
 51 60  1  0  0  0  0
 52 61  1  0  0  0  0
 53 61  1  0  0  0  0
 54 61  1  0  0  0  0
 55 72  1  0  0  0  0
 56 57  1  0  0  0  0
 56 58  1  0  0  0  0
 57 64  1  0  0  0  0
 58 80  1  0  0  0  0
 59 61  1  0  0  0  0
 59 71  1  0  0  0  0
 60 72  1  0  0  0  0
 62 63  1  0  0  0  0
M  CHG  1  72   1
M  ISO  4  33 100  58 101  67 100  80 101
M  END
> <Batch ID>
0161

> <Smiles>
CNC(C)C(=O)NC(C(=O)N1Cc2cc([101O:1][101CH2:1]CCN3CC4C[100N:0]([100C:0](=O)N5CCCC(n6nc(-c7ccc(Oc8ccc(F)cc8F)cc7)c(C(N)=O)c6N)C5)CC4C3=O)ccc2CC1C(=O)NC1CCCc2ccccc21)C(C)(C)C

> <Shape>
0.249

> <Color>
0.105

> <Negative vol penalty>
0.000

$$$$

  -OEChem-04052322123D

 94104  0     1  0  0  0  0  0999 V2000
  -30.0399  -30.7412   26.1627 C   0  0  0  0  0  0  0  0  0  0  0  0
  -29.5915  -29.7633   25.2805 C   0  0  0  0  0  0  0  0  0  0  0  0
  -25.6843  -12.7923   19.0993 C   0  0  0  0  0  0  0  0  0  0  0  0
  -26.0672  -12.1787   21.4045 C   0  0  0  0  0  0  0  0  0  0  0  0
  -29.1225  -31.5652   26.8131 C   0  0  0  0  0  0  0  0  0  0  0  0
  -28.2252  -29.6083   25.0491 C   0  0  0  0  0  0  0  0  0  0  0  0
  -27.1366  -29.0652   20.1333 C   0  0  0  0  0  0  0  0  0  0  0  0
  -24.3171  -12.5731   19.2681 C   0  0  0  0  0  0  0  0  0  0  0  0
  -24.7000  -11.9596   21.5733 C   0  0  0  0  0  0  0  0  0  0  0  0
  -27.3677  -27.8135   19.5645 C   0  0  0  0  0  0  0  0  0  0  0  0
  -21.9225  -13.8213   22.0631 C   0  0  0  0  0  0  0  0  0  0  0  0
  -21.3230  -14.3326   23.2141 C   0  0  0  0  0  0  0  0  0  0  0  0
  -25.1593  -19.0540   18.4666 C   0  0  0  0  0  0  0  0  0  0  0  0
  -25.0196  -27.2971   19.7620 C   0  0  0  0  0  0  0  0  0  0  0  0
  -24.3069  -18.0381   16.0122 C   0  0  0  0  0  0  0  0  0  0  0  0
  -20.6678  -12.1000   23.8647 C   0  0  0  0  0  0  0  0  0  0  0  0
  -26.5593  -12.5950   20.1675 C   0  0  0  0  0  0  0  0  0  0  0  0
  -28.8319  -12.1687   19.0898 C   0  0  0  0  0  0  0  0  0  0  0  0
  -27.7448  -31.4266   26.5822 C   0  0  0  0  0  0  0  0  0  0  0  0
  -25.8449  -29.4387   20.5314 C   0  0  0  0  0  0  0  0  0  0  0  0
  -27.2884  -30.4304   25.6981 C   0  0  0  0  0  0  0  0  0  0  0  0
  -25.2924  -19.8219   17.3099 C   0  0  0  0  0  0  0  0  0  0  0  0
  -24.7744  -28.5551   20.3333 C   0  0  0  0  0  0  0  0  0  0  0  0
  -24.6000  -17.7780   18.3962 C   0  0  0  0  0  0  0  0  0  0  0  0
  -24.8662  -19.3140   16.0827 C   0  0  0  0  0  0  0  0  0  0  0  0
  -24.1738  -17.2701   17.1690 C   0  0  0  0  0  0  0  0  0  0  0  0
  -23.8250  -12.1568   20.5051 C   0  0  0  0  0  0  0  0  0  0  0  0
  -26.3096  -26.9281   19.3814 C   0  0  0  0  0  0  0  0  0  0  0  0
  -21.8946  -12.4493   21.8129 C   0  0  0  0  0  0  0  0  0  0  0  0
  -20.6957  -13.4720   24.1149 C   0  0  0  0  0  0  0  0  0  0  0  0
  -21.2673  -11.5887   22.7137 C   0  0  0  0  0  0  0  0  0  0  0  0
  -27.9718  -12.8207   19.9937 C   0  0  0  0  0  0  0  0  0  0  0  0
  -30.0616  -12.7377   19.3148 C   0  0  0  0  0  0  0  0  0  0  0  0
  -28.5449  -11.1407   18.1324 C   0  0  0  0  0  0  0  0  0  0  0  0
  -24.4867  -30.2137   23.2988 C   0  0  0  0  0  0  0  0  0  0  0  0
  -21.9307  -30.8735   21.4136 C   0  0  0  0  0  0  0  0  0  0  0  0
  -20.2812  -30.3321   18.4755 C   0  0  0  0  0  0  0  0  0  0  0  0
  -31.8806  -17.9185   21.3794 C   0  0  0  0  0  0  0  0  0  0  0  0
  -26.7885  -32.3093   27.3445 C   0  0  0  0  0  0  0  0  0  0  0  0
  -25.6079  -30.8029   21.1189 C   0  0  0  0  0  0  0  0  0  0  0  0
  -23.3655  -28.9158   20.7250 C   0  0  0  0  0  0  0  0  0  0  0  0
  -25.3788  -32.3284   26.7591 C   0  0  0  0  0  0  0  0  0  0  0  0
  -32.6594  -14.8345   22.7345 C   0  0  0  0  0  0  0  0  0  0  0  0
  -24.9107  -30.9104   26.4479 C   0  0  0  0  0  0  0  0  0  0  0  0
  -31.6356  -13.8915   22.1025 C   0  0  0  0  0  0  0  0  0  0  0  0
  -30.6613  -20.4144   18.9278 C   0  0  0  0  0  0  0  0  0  0  0  0
  -28.6819  -19.2307   19.9426 C   0  0  0  0  0  0  0  0  0  0  0  0
  -32.0148  -16.1613   23.1193 C   0  0  0  0  0  0  0  0  0  0  0  0
  -31.4970  -20.0185   20.1419 C   0  0  0  0  0  0  0  0  0  0  0  0
  -29.5527  -18.8622   21.1393 C   0  0  0  0  0  0  0  0  0  0  0  0
  -30.3139  -15.9261   21.3397 C   0  0  0  0  0  0  0  0  0  0  0  0
  -27.0385  -22.8350   18.8682 C   0  0  0  0  0  0  0  0  0  0  0  0
  -25.8156  -30.2478   25.4021 C   0  0  1  0  0  0  0  0  0  0  0  0
  -25.9017  -21.2041   17.4113 C   0  0  1  0  0  0  0  0  0  0  0  0
  -24.3372  -30.8788   21.9598 C   0  0  1  0  0  0  0  0  0  0  0  0
  -29.1711  -20.5234   19.2757 C   0  0  0  0  0  0  0  0  0  0  0  0
  -25.9783  -23.5079   17.9991 C   0  0  1  0  0  0  0  0  0  0  0  0
  -30.9150  -14.5686   20.9232 C   0  0  2  0  0  0  0  0  0  0  0  0
  -24.9416  -22.3907   17.7159 C   0  0  0  0  0  0  0  0  0  0  0  0
  -24.4684  -16.9739   19.6478 C   0  0  0  0  0  0  0  0  0  0  0  0
  -24.9981  -20.1181   14.8311 C   0  0  0  0  0  0  0  0  0  0  0  0
  -23.5729  -15.9065   17.0690 C   0  0  0  0  0  0  0  0  0  0  0  0
  -24.0078  -22.1366   18.9156 C   0  0  0  0  0  0  0  0  0  0  0  0
  -24.0782  -22.7391   16.4932 C   0  0  0  0  0  0  0  0  0  0  0  0
  -18.1987  -30.9842   17.2364 C   0  0  0  0  0  0  0  0  0  0  0  0
  -20.2881  -29.0358   23.2121 C   0  0  0  0  0  0  0  0  0  0  0  0
  -18.5339  -28.9719   21.4269 C   0  0  0  0  0  0  0  0  0  0  0  0
  -19.1194  -31.1360   22.5208 C   0  0  0  0  0  0  0  0  0  0  0  0
  -21.8353  -31.5061   16.2472 C   0  0  0  0  0  0  0  0  0  0  0  0
  -28.3438  -20.8397   18.0320 C   0  0  0  0  0  0  0  0  0  0  0  0
  -25.4525  -24.7887   18.6347 C   0  0  0  0  0  0  0  0  0  1  0  0
  -20.7501  -30.0858   20.8991 C   0  0  1  0  0  0  0  0  0  0  0  0
  -19.6690  -31.2928   17.4721 C   0  0  2  0  0  0  0  0  0  0  0  0
  -19.6996  -29.7995   22.0090 C   0  0  0  0  0  0  0  0  0  0  0  0
  -28.6017  -13.7338   20.7376 N   0  0  0  0  0  0  0  0  0  0  0  0
  -29.8707  -13.6597   20.3016 N   0  0  0  0  0  0  0  0  0  0  0  0
  -23.1858  -30.2586   21.3012 N   0  0  0  0  0  0  0  0  0  0  0  0
  -31.3375  -16.7698   21.9744 N   0  0  0  0  0  0  0  0  0  0  0  0
  -30.9760  -18.8100   20.7793 N   0  0  0  0  0  0  0  0  0  0  0  0
  -31.2766  -12.5341   18.7630 N   0  0  0  0  0  0  0  0  0  0  0  0
  -28.6530   -9.8029   18.5359 N   0  0  0  0  0  0  0  0  0  0  0  0
  -25.5005  -30.7384   24.0776 N   0  0  0  0  0  0  0  0  0  0  0  0
  -20.2272  -30.8317   19.7595 N   0  0  0  0  0  0  0  0  0  0  0  0
  -27.0103  -21.3711   18.4636 N   0  3  1  0  0  0  0  0  0  0  0  0
  -20.3831  -31.2033   16.1671 N   0  3  0  0  0  0  0  0  0  0  0  0
  -28.2187  -11.4007   16.9494 O   0  0  0  0  0  0  0  0  0  0  0  0
  -23.7369  -29.2936   23.6035 O   0  0  0  0  0  0  0  0  0  0  0  0
  -21.7471  -31.9960   21.8910 O   0  0  0  0  0  0  0  0  0  0  0  0
  -20.7561  -29.2453   18.1530 O   0  0  0  0  0  0  0  0  0  0  0  0
  -33.0989  -18.1347   21.3787 O   0  0  0  0  0  0  0  0  0  0  0  0
  -22.4910  -11.9431   20.6702 O   0  0  0  0  0  0  0  0  0  0  0  0
  -26.5366  -25.6823   18.8166 O   0  0  0  0  0  0  0  0  0  1  0  0
  -20.1213  -13.9630   25.2209 F   0  0  0  0  0  0  0  0  0  0  0  0
  -21.2383  -10.2696   22.4793 F   0  0  0  0  0  0  0  0  0  0  0  0
  1  2  1  0  0  0  0
  1  5  2  0  0  0  0
  2  6  2  0  0  0  0
  3  8  2  0  0  0  0
  3 17  1  0  0  0  0
  4  9  1  0  0  0  0
  4 17  2  0  0  0  0
  5 19  1  0  0  0  0
  6 21  1  0  0  0  0
  7 10  2  0  0  0  0
  7 20  1  0  0  0  0
  8 27  1  0  0  0  0
  9 27  2  0  0  0  0
 10 28  1  0  0  0  0
 11 12  2  0  0  0  0
 11 29  1  0  0  0  0
 12 30  1  0  0  0  0
 13 22  1  0  0  0  0
 13 24  2  0  0  0  0
 14 23  1  0  0  0  0
 14 28  2  0  0  0  0
 15 25  1  0  0  0  0
 15 26  2  0  0  0  0
 16 30  2  0  0  0  0
 16 31  1  0  0  0  0
 17 32  1  0  0  0  0
 18 32  1  0  0  0  0
 18 33  2  0  0  0  0
 18 34  1  0  0  0  0
 19 21  2  0  0  0  0
 19 39  1  0  0  0  0
 20 23  2  0  0  0  0
 20 40  1  0  0  0  0
 21 53  1  0  0  0  0
 22 25  2  0  0  0  0
 22 54  1  0  0  0  0
 23 41  1  0  0  0  0
 24 26  1  0  0  0  0
 24 60  1  0  0  0  0
 25 61  1  0  0  0  0
 26 62  1  0  0  0  0
 27 91  1  0  0  0  0
 28 92  1  0  0  0  0
 29 31  2  0  0  0  0
 29 91  1  0  0  0  0
 30 93  1  0  0  0  0
 31 94  1  0  0  0  0
 32 75  2  0  0  0  0
 33 76  1  0  0  0  0
 33 80  1  0  0  0  0
 34 81  1  0  0  0  0
 34 86  2  0  0  0  0
 35 55  1  0  0  0  0
 35 82  1  0  0  0  0
 35 87  2  0  0  0  0
 36 72  1  0  0  0  0
 36 77  1  0  0  0  0
 36 88  2  0  0  0  0
 37 73  1  0  0  0  0
 37 83  1  0  0  0  0
 37 89  2  0  0  0  0
 38 78  1  0  0  0  0
 38 79  1  0  0  0  0
 38 90  2  0  0  0  0
 39 42  1  0  0  0  0
 40 55  1  0  0  0  0
 41 77  1  0  0  0  0
 42 44  1  0  0  0  0
 43 45  1  0  0  0  0
 43 48  1  0  0  0  0
 44 53  1  0  0  0  0
 45 58  1  0  0  0  0
 46 49  1  0  0  0  0
 46 56  1  0  0  0  0
 47 50  1  0  0  0  0
 47 56  1  0  0  0  0
 48 78  1  0  0  0  0
 49 79  1  0  0  0  0
 50 79  1  0  0  0  0
 51 58  1  0  0  0  0
 51 78  1  0  0  0  0
 52 57  1  0  0  0  0
 52 84  1  0  0  0  0
 53 82  1  0  0  0  0
 54 59  1  0  0  0  0
 54 84  1  0  0  0  0
 55 77  1  0  0  0  0
 56 70  1  0  0  0  0
 57 59  1  0  0  0  0
 57 71  1  0  0  0  0
 58 76  1  0  0  0  0
 59 63  1  0  0  0  0
 59 64  1  0  0  0  0
 65 73  1  0  0  0  0
 66 74  1  0  0  0  0
 67 74  1  0  0  0  0
 68 74  1  0  0  0  0
 69 85  1  0  0  0  0
 70 84  1  0  0  0  0
 71 92  1  0  0  0  0
 72 74  1  0  0  0  0
 72 83  1  0  0  0  0
 73 85  1  0  0  0  0
 75 76  1  0  0  0  0
M  CHG  2  84   1  85   1
M  ISO  4  38 100  71 101  79 100  92 101
M  END
> <Batch ID>
0161

> <Smiles>
CNC(C)C(=O)NC(C(=O)N1Cc2cc([101O:1][101CH2:1]C3CN(CC4CC[100N:0]([100C:0](=O)N5CCCC(n6nc(-c7ccc(Oc8ccc(F)cc8F)cc7)c(C(N)=O)c6N)C5)CC4)C(c4cc(C)c(C)cc4C)C3(C)C)ccc2CC1C(=O)NC1CCCc2ccccc21)C(C)(C)C

> <Shape>
0.282

> <Color>
0.078

> <Negative vol penalty>
0.000

$$$$

  -OEChem-04052322123D

 87 95  0     1  0  0  0  0  0999 V2000
  -20.7379  -27.1228   19.9183 C   0  0  0  0  0  0  0  0  0  0  0  0
  -21.6613  -26.3087   20.5664 C   0  0  0  0  0  0  0  0  0  0  0  0
  -26.8635  -28.5332   18.9236 C   0  0  0  0  0  0  0  0  0  0  0  0
  -26.6036  -27.4796   21.0821 C   0  0  0  0  0  0  0  0  0  0  0  0
  -19.5107  -27.3990   20.5197 C   0  0  0  0  0  0  0  0  0  0  0  0
  -21.3584  -25.7710   21.8169 C   0  0  0  0  0  0  0  0  0  0  0  0
  -22.5873  -20.8714   22.1744 C   0  0  0  0  0  0  0  0  0  0  0  0
  -25.7041  -29.2759   19.1464 C   0  0  0  0  0  0  0  0  0  0  0  0
  -25.4442  -28.2224   21.3051 C   0  0  0  0  0  0  0  0  0  0  0  0
  -23.9324  -20.5654   22.3767 C   0  0  0  0  0  0  0  0  0  0  0  0
  -24.6459  -31.3685   22.2457 C   0  0  0  0  0  0  0  0  0  0  0  0
  -24.4915  -31.9665   23.4964 C   0  0  0  0  0  0  0  0  0  0  0  0
  -23.5002  -20.2478   24.7286 C   0  0  0  0  0  0  0  0  0  0  0  0
  -22.4617  -30.7045   23.8492 C   0  0  0  0  0  0  0  0  0  0  0  0
  -27.3133  -27.6350   19.8914 C   0  0  0  0  0  0  0  0  0  0  0  0
  -29.8294  -27.2279   19.9967 C   0  0  0  0  0  0  0  0  0  0  0  0
  -19.1887  -26.8566   21.7739 C   0  0  0  0  0  0  0  0  0  0  0  0
  -21.6892  -20.8785   23.2513 C   0  0  0  0  0  0  0  0  0  0  0  0
  -20.1262  -26.0413   22.4362 C   0  0  0  0  0  0  0  0  0  0  0  0
  -22.1437  -20.5517   24.5369 C   0  0  0  0  0  0  0  0  0  0  0  0
  -29.0523  -13.6138   19.5876 C   0  0  0  0  0  0  0  0  0  0  0  0
  -28.5448  -13.5118   20.8828 C   0  0  0  0  0  0  0  0  0  0  0  0
  -29.0052  -14.8345   18.9142 C   0  0  0  0  0  0  0  0  0  0  0  0
  -27.9900  -14.6304   21.5046 C   0  0  0  0  0  0  0  0  0  0  0  0
  -28.4504  -15.9531   19.5360 C   0  0  0  0  0  0  0  0  0  0  0  0
  -24.9944  -29.1205   20.3372 C   0  0  0  0  0  0  0  0  0  0  0  0
  -24.3896  -20.2564   23.6544 C   0  0  0  0  0  0  0  0  0  0  0  0
  -23.7081  -30.4386   21.7967 C   0  0  0  0  0  0  0  0  0  0  0  0
  -27.9428  -15.8511   20.8312 C   0  0  0  0  0  0  0  0  0  0  0  0
  -23.3995  -31.6345   24.2982 C   0  0  0  0  0  0  0  0  0  0  0  0
  -22.6160  -30.1066   22.5985 C   0  0  0  0  0  0  0  0  0  0  0  0
  -28.5106  -26.8671   19.6615 C   0  0  0  0  0  0  0  0  0  0  0  0
  -30.5936  -26.1684   19.5725 C   0  0  0  0  0  0  0  0  0  0  0  0
  -30.3198  -28.4147   20.6345 C   0  0  0  0  0  0  0  0  0  0  0  0
  -19.8578  -23.0803   24.6302 C   0  0  0  0  0  0  0  0  0  0  0  0
  -18.7688  -20.5455   26.3364 C   0  0  0  0  0  0  0  0  0  0  0  0
  -19.3363  -17.4010   27.5352 C   0  0  0  0  0  0  0  0  0  0  0  0
  -29.3157  -20.4563   18.8017 C   0  0  0  0  0  0  0  0  0  0  0  0
  -17.8687  -27.2218   22.4054 C   0  0  0  0  0  0  0  0  0  0  0  0
  -20.2361  -21.1845   23.0120 C   0  0  0  0  0  0  0  0  0  0  0  0
  -21.2160  -20.5255   25.7231 C   0  0  0  0  0  0  0  0  0  0  0  0
  -17.4745  -26.3090   23.5638 C   0  0  0  0  0  0  0  0  0  0  0  0
  -30.6722  -22.6837   16.2925 C   0  0  0  0  0  0  0  0  0  0  0  0
  -18.6564  -26.1008   24.5054 C   0  0  0  0  0  0  0  0  0  0  0  0
  -30.3911  -24.0519   16.9164 C   0  0  0  0  0  0  0  0  0  0  0  0
  -29.5342  -21.7056   16.5692 C   0  0  0  0  0  0  0  0  0  0  0  0
  -28.9267  -22.8985   18.6384 C   0  0  0  0  0  0  0  0  0  0  0  0
  -19.8244  -25.4193   23.7824 C   0  0  1  0  0  0  0  0  0  0  0  0
  -19.5121  -21.6641   24.2662 C   0  0  1  0  0  0  0  0  0  0  0  0
  -30.0509  -23.9259   18.4133 C   0  0  2  0  0  0  0  0  0  0  0  0
  -29.6468  -12.4136   18.9203 C   0  0  0  0  0  0  0  0  0  0  0  0
  -28.5948  -12.2025   21.6057 C   0  0  0  0  0  0  0  0  0  0  0  0
  -29.5505  -14.9448   17.5251 C   0  0  0  0  0  0  0  0  0  0  0  0
  -27.4443  -14.5276   22.8934 C   0  0  0  0  0  0  0  0  0  0  0  0
  -18.2771  -15.6036   28.9297 C   0  0  0  0  0  0  0  0  0  0  0  0
  -19.4161  -22.1280   28.8636 C   0  0  0  0  0  0  0  0  0  0  0  0
  -19.2485  -19.9927   30.1599 C   0  0  0  0  0  0  0  0  0  0  0  0
  -17.2553  -20.8715   28.9444 C   0  0  0  0  0  0  0  0  0  0  0  0
  -19.3551  -15.4812   25.2829 C   0  0  0  0  0  0  0  0  0  0  0  0
  -28.3962  -17.2650   18.8192 C   0  0  0  0  0  0  0  0  0  0  0  0
  -27.5165  -18.4627   23.3128 C   0  0  0  0  0  0  0  0  0  0  0  0
  -29.7341  -18.0105   18.8100 C   0  0  0  0  0  0  0  0  0  0  0  0
  -26.4011  -19.3440   22.7728 C   0  0  0  0  0  0  0  0  0  1  0  0
  -28.2822  -17.7673   22.1982 C   0  0  0  0  0  0  0  0  0  0  0  0
  -19.1697  -19.8745   27.6280 C   0  0  1  0  0  0  0  0  0  0  0  0
  -18.4782  -16.1488   27.5243 C   0  0  2  0  0  0  0  0  0  0  0  0
  -18.7905  -20.7190   28.8772 C   0  0  0  0  0  0  0  0  0  0  0  0
  -28.4375  -25.6718   19.0699 N   0  0  0  0  0  0  0  0  0  0  0  0
  -29.7201  -25.2724   19.0299 N   0  0  0  0  0  0  0  0  0  0  0  0
  -19.8056  -20.8380   25.4391 N   0  0  0  0  0  0  0  0  0  0  0  0
  -29.2732  -21.6179   18.0129 N   0  0  0  0  0  0  0  0  0  0  0  0
  -31.9208  -25.9251   19.6143 N   0  0  0  0  0  0  0  0  0  0  0  0
  -29.3983  -29.4034   21.0053 N   0  0  0  0  0  0  0  0  0  0  0  0
  -19.5727  -24.0013   23.6403 N   0  0  0  0  0  0  0  0  0  0  0  0
  -18.5694  -18.5451   27.6007 N   0  0  0  0  0  0  0  0  0  0  0  0
  -29.6448  -19.2844   18.1316 N   0  0  0  0  0  0  0  0  0  0  0  0
  -19.1194  -15.0887   26.6962 N   0  3  0  0  0  0  0  0  0  0  0  0
  -31.5408  -28.6002   20.8538 O   0  0  0  0  0  0  0  0  0  0  0  0
  -20.3457  -23.3200   25.7285 O   0  0  0  0  0  0  0  0  0  0  0  0
  -17.5787  -20.7943   26.1283 O   0  0  0  0  0  0  0  0  0  0  0  0
  -20.5642  -17.3675   27.4937 O   0  0  0  0  0  0  0  0  0  0  0  0
  -29.0828  -20.4636   20.0153 O   0  0  0  0  0  0  0  0  0  0  0  0
  -23.8632  -29.8453   20.5551 O   0  0  0  0  0  0  0  0  0  0  0  0
  -25.7021  -19.9581   23.8548 O   0  0  0  0  0  0  0  0  0  1  0  0
  -27.3982  -16.9502   21.4427 O   0  0  0  0  0  0  0  0  0  0  0  0
  -23.2522  -32.2076   25.4998 F   0  0  0  0  0  0  0  0  0  0  0  0
  -21.7125  -29.2131   22.1730 F   0  0  0  0  0  0  0  0  0  0  0  0
  1  2  1  0  0  0  0
  1  5  2  0  0  0  0
  2  6  2  0  0  0  0
  3  8  2  0  0  0  0
  3 15  1  0  0  0  0
  4  9  1  0  0  0  0
  4 15  2  0  0  0  0
  5 17  1  0  0  0  0
  6 19  1  0  0  0  0
  7 10  2  0  0  0  0
  7 18  1  0  0  0  0
  8 26  1  0  0  0  0
  9 26  2  0  0  0  0
 10 27  1  0  0  0  0
 11 12  2  0  0  0  0
 11 28  1  0  0  0  0
 12 30  1  0  0  0  0
 13 20  1  0  0  0  0
 13 27  2  0  0  0  0
 14 30  2  0  0  0  0
 14 31  1  0  0  0  0
 15 32  1  0  0  0  0
 16 32  1  0  0  0  0
 16 33  2  0  0  0  0
 16 34  1  0  0  0  0
 17 19  2  0  0  0  0
 17 39  1  0  0  0  0
 18 20  2  0  0  0  0
 18 40  1  0  0  0  0
 19 48  1  0  0  0  0
 20 41  1  0  0  0  0
 21 22  1  0  0  0  0
 21 23  2  0  0  0  0
 21 51  1  0  0  0  0
 22 24  2  0  0  0  0
 22 52  1  0  0  0  0
 23 25  1  0  0  0  0
 23 53  1  0  0  0  0
 24 29  1  0  0  0  0
 24 54  1  0  0  0  0
 25 29  2  0  0  0  0
 25 60  1  0  0  0  0
 26 83  1  0  0  0  0
 27 84  1  0  0  0  0
 28 31  2  0  0  0  0
 28 83  1  0  0  0  0
 29 85  1  0  0  0  0
 30 86  1  0  0  0  0
 31 87  1  0  0  0  0
 32 68  2  0  0  0  0
 33 69  1  0  0  0  0
 33 72  1  0  0  0  0
 34 73  1  0  0  0  0
 34 78  2  0  0  0  0
 35 49  1  0  0  0  0
 35 74  1  0  0  0  0
 35 79  2  0  0  0  0
 36 65  1  0  0  0  0
 36 70  1  0  0  0  0
 36 80  2  0  0  0  0
 37 66  1  0  0  0  0
 37 75  1  0  0  0  0
 37 81  2  0  0  0  0
 38 71  1  0  0  0  0
 38 76  1  0  0  0  0
 38 82  2  0  0  0  0
 39 42  1  0  0  0  0
 40 49  1  0  0  0  0
 41 70  1  0  0  0  0
 42 44  1  0  0  0  0
 43 45  1  0  0  0  0
 43 46  1  0  0  0  0
 44 48  1  0  0  0  0
 45 50  1  0  0  0  0
 46 71  1  0  0  0  0
 47 50  1  0  0  0  0
 47 71  1  0  0  0  0
 48 74  1  0  0  0  0
 49 70  1  0  0  0  0
 50 69  1  0  0  0  0
 55 66  1  0  0  0  0
 56 67  1  0  0  0  0
 57 67  1  0  0  0  0
 58 67  1  0  0  0  0
 59 77  1  0  0  0  0
 60 62  1  0  0  0  0
 61 63  1  0  0  0  0
 61 64  1  0  0  0  0
 62 76  1  0  0  0  0
 63 84  1  0  0  0  0
 64 85  1  0  0  0  0
 65 67  1  0  0  0  0
 65 75  1  0  0  0  0
 66 77  1  0  0  0  0
 68 69  1  0  0  0  0
M  CHG  1  77   1
M  ISO  4  38 100  63 101  76 100  84 101
M  END
> <Batch ID>
0161

> <Smiles>
CNC(C)C(=O)NC(C(=O)N1Cc2cc([101O:1][101CH2:1]CCOc3c(C)c(C)c(C)c(C)c3CC[100NH:0][100C:0](=O)N3CCCC(n4nc(-c5ccc(Oc6ccc(F)cc6F)cc5)c(C(N)=O)c4N)C3)ccc2CC1C(=O)NC1CCCc2ccccc21)C(C)(C)C

> <Shape>
0.231

> <Color>
0.045

> <Negative vol penalty>
0.000

$$$$

  -OEChem-04052322123D

 89 98  0     1  0  0  0  0  0999 V2000
  -17.6606  -26.1467   22.1057 C   0  0  0  0  0  0  0  0  0  0  0  0
  -18.9878  -25.7297   22.1035 C   0  0  0  0  0  0  0  0  0  0  0  0
  -22.1466  -14.2938   21.8091 C   0  0  0  0  0  0  0  0  0  0  0  0
  -23.4024  -16.3510   21.9775 C   0  0  0  0  0  0  0  0  0  0  0  0
  -17.3444  -27.4640   21.7761 C   0  0  0  0  0  0  0  0  0  0  0  0
  -19.9996  -26.6296   21.7705 C   0  0  0  0  0  0  0  0  0  0  0  0
  -25.6579  -26.8359   24.1043 C   0  0  0  0  0  0  0  0  0  0  0  0
  -32.9519  -18.4656   17.8004 C   0  0  0  0  0  0  0  0  0  0  0  0
  -32.5405  -19.7740   18.0542 C   0  0  0  0  0  0  0  0  0  0  0  0
  -21.2625  -14.7536   22.7851 C   0  0  0  0  0  0  0  0  0  0  0  0
  -22.5183  -16.8108   22.9535 C   0  0  0  0  0  0  0  0  0  0  0  0
  -26.8815  -26.3535   23.6418 C   0  0  0  0  0  0  0  0  0  0  0  0
  -21.2001  -15.0406   26.1523 C   0  0  0  0  0  0  0  0  0  0  0  0
  -20.8370  -14.1541   27.1661 C   0  0  0  0  0  0  0  0  0  0  0  0
  -27.3804  -28.5244   22.7157 C   0  0  0  0  0  0  0  0  0  0  0  0
  -18.5207  -14.3496   26.5074 C   0  0  0  0  0  0  0  0  0  0  0  0
  -23.2166  -15.0925   21.4053 C   0  0  0  0  0  0  0  0  0  0  0  0
  -23.8218  -14.2561   19.0725 C   0  0  0  0  0  0  0  0  0  0  0  0
  -18.3536  -28.3830   21.4483 C   0  0  0  0  0  0  0  0  0  0  0  0
  -25.2810  -28.1654   23.8661 C   0  0  0  0  0  0  0  0  0  0  0  0
  -19.6965  -27.9601   21.4348 C   0  0  0  0  0  0  0  0  0  0  0  0
  -26.1526  -29.0219   23.1785 C   0  0  0  0  0  0  0  0  0  0  0  0
  -32.1874  -17.3927   18.2588 C   0  0  0  0  0  0  0  0  0  0  0  0
  -30.5999  -18.9367   19.2249 C   0  0  0  0  0  0  0  0  0  0  0  0
  -31.3645  -20.0096   18.7665 C   0  0  0  0  0  0  0  0  0  0  0  0
  -31.0114  -17.6283   18.9710 C   0  0  0  0  0  0  0  0  0  0  0  0
  -21.4483  -16.0121   23.3573 C   0  0  0  0  0  0  0  0  0  0  0  0
  -27.7417  -27.1970   22.9448 C   0  0  0  0  0  0  0  0  0  0  0  0
  -20.2235  -15.5817   25.3161 C   0  0  0  0  0  0  0  0  0  0  0  0
  -19.4973  -13.8086   27.3437 C   0  0  0  0  0  0  0  0  0  0  0  0
  -18.8839  -15.2362   25.4937 C   0  0  0  0  0  0  0  0  0  0  0  0
  -24.1305  -14.6179   20.3975 C   0  0  0  0  0  0  0  0  0  0  0  0
  -25.0257  -13.8774   18.5306 C   0  0  0  0  0  0  0  0  0  0  0  0
  -22.5596  -14.2620   18.3924 C   0  0  0  0  0  0  0  0  0  0  0  0
  -22.9066  -29.5763   22.2928 C   0  0  0  0  0  0  0  0  0  0  0  0
  -24.1742  -32.2704   23.5802 C   0  0  0  0  0  0  0  0  0  0  0  0
  -27.4727  -33.6161   24.1514 C   0  0  0  0  0  0  0  0  0  0  0  0
  -30.6948  -15.2720   19.8040 C   0  0  0  0  0  0  0  0  0  0  0  0
  -17.9592  -29.7840   21.0529 C   0  0  0  0  0  0  0  0  0  0  0  0
  -23.9694  -28.6777   24.3949 C   0  0  0  0  0  0  0  0  0  0  0  0
  -25.8038  -30.4631   22.9144 C   0  0  0  0  0  0  0  0  0  0  0  0
  -19.1214  -30.7735   21.0762 C   0  0  0  0  0  0  0  0  0  0  0  0
  -29.2629  -12.0124   19.7563 C   0  0  0  0  0  0  0  0  0  0  0  0
  -20.3430  -30.1785   20.3830 C   0  0  0  0  0  0  0  0  0  0  0  0
  -27.7560  -12.2779   19.7886 C   0  0  0  0  0  0  0  0  0  0  0  0
  -31.1337  -23.3109   20.4644 C   0  0  0  0  0  0  0  0  0  0  0  0
  -30.0341  -13.0165   20.6112 C   0  0  0  0  0  0  0  0  0  0  0  0
  -31.8914  -22.1770   19.7789 C   0  0  0  0  0  0  0  0  0  0  0  0
  -30.0931  -22.0096   18.0497 C   0  0  0  0  0  0  0  0  0  0  0  0
  -28.2483  -14.6930   20.3473 C   0  0  0  0  0  0  0  0  0  0  0  0
  -20.8243  -28.9132   21.1033 C   0  0  1  0  0  0  0  0  0  0  0  0
  -23.4637  -29.9081   23.6482 C   0  0  1  0  0  0  0  0  0  0  0  0
  -29.3162  -23.1563   18.7240 C   0  0  1  0  0  0  0  0  0  0  0  0
  -27.4351  -13.7466   19.4490 C   0  0  2  0  0  0  0  0  0  0  0  0
  -30.2856  -24.0901   19.4635 C   0  0  1  0  0  0  0  0  0  0  0  0
  -32.6543  -16.0026   17.9711 C   0  0  0  0  0  0  0  0  0  0  0  0
  -29.3384  -19.1929   19.9905 C   0  0  0  0  0  0  0  0  0  0  0  0
  -28.4759  -23.8909   17.6752 C   0  0  0  0  0  0  0  0  0  0  0  0
  -28.2962  -35.2376   25.8805 C   0  0  0  0  0  0  0  0  0  0  0  0
  -23.6583  -34.3756   21.4327 C   0  0  0  0  0  0  0  0  0  0  0  0
  -25.7368  -35.5515   22.1848 C   0  0  0  0  0  0  0  0  0  0  0  0
  -23.8218  -35.2773   23.7596 C   0  0  0  0  0  0  0  0  0  0  0  0
  -29.5628  -31.7395   25.0835 C   0  0  0  0  0  0  0  0  0  0  0  0
  -30.3411  -26.3235   20.5824 C   0  0  0  0  0  0  0  0  0  0  0  0
  -29.4588  -27.3229   21.3042 C   0  0  0  0  0  0  0  0  0  1  0  0
  -25.2278  -33.2647   23.1557 C   0  0  1  0  0  0  0  0  0  0  0  0
  -28.1708  -33.7732   25.4902 C   0  0  2  0  0  0  0  0  0  0  0  0
  -24.6121  -34.5901   22.6249 C   0  0  0  0  0  0  0  0  0  0  0  0
  -25.4287  -14.4811   20.6802 N   0  0  0  0  0  0  0  0  0  0  0  0
  -25.9464  -14.0290   19.5254 N   0  0  0  0  0  0  0  0  0  0  0  0
  -30.9692  -21.3308   19.0118 N   0  0  1  0  0  0  0  0  0  0  0  0
  -24.5074  -30.9151   23.4460 N   0  0  0  0  0  0  0  0  0  0  0  0
  -29.6825  -14.3863   20.2303 N   0  0  0  0  0  0  0  0  0  0  0  0
  -25.3759  -13.4326   17.3051 N   0  0  0  0  0  0  0  0  0  0  0  0
  -21.4227  -14.6803   19.0972 N   0  0  0  0  0  0  0  0  0  0  0  0
  -30.2369  -16.5368   19.4364 N   0  0  0  0  0  0  0  0  0  0  0  0
  -21.5611  -29.2616   22.2991 N   0  0  0  0  0  0  0  0  0  0  0  0
  -26.1141  -33.4346   24.3020 N   0  0  0  0  0  0  0  0  0  0  0  0
  -29.5321  -25.1361   20.2084 N   0  3  0  0  0  0  0  0  0  0  0  0
  -29.5381  -33.1830   25.4338 N   0  3  0  0  0  0  0  0  0  0  0  0
  -22.4407  -13.8912   17.1999 O   0  0  0  0  0  0  0  0  0  0  0  0
  -23.6427  -29.6050   21.3134 O   0  0  0  0  0  0  0  0  0  0  0  0
  -23.0979  -32.6810   24.0215 O   0  0  0  0  0  0  0  0  0  0  0  0
  -28.0720  -33.6546   23.0791 O   0  0  0  0  0  0  0  0  0  0  0  0
  -31.8769  -14.9248   19.7418 O   0  0  0  0  0  0  0  0  0  0  0  0
  -20.5857  -16.4611   24.3096 O   0  0  0  0  0  0  0  0  0  0  0  0
  -28.9363  -26.7285   22.4917 O   0  0  0  0  0  0  0  0  0  1  0  0
  -19.1489  -12.9560   28.3163 F   0  0  0  0  0  0  0  0  0  0  0  0
  -17.9413  -15.7518   24.6927 F   0  0  0  0  0  0  0  0  0  0  0  0
  1  2  1  0  0  0  0
  1  5  2  0  0  0  0
  2  6  2  0  0  0  0
  3 10  2  0  0  0  0
  3 17  1  0  0  0  0
  4 11  1  0  0  0  0
  4 17  2  0  0  0  0
  5 19  1  0  0  0  0
  6 21  1  0  0  0  0
  7 12  2  0  0  0  0
  7 20  1  0  0  0  0
  8  9  2  0  0  0  0
  8 23  1  0  0  0  0
  9 25  1  0  0  0  0
 10 27  1  0  0  0  0
 11 27  2  0  0  0  0
 12 28  1  0  0  0  0
 13 14  2  0  0  0  0
 13 29  1  0  0  0  0
 14 30  1  0  0  0  0
 15 22  1  0  0  0  0
 15 28  2  0  0  0  0
 16 30  2  0  0  0  0
 16 31  1  0  0  0  0
 17 32  1  0  0  0  0
 18 32  1  0  0  0  0
 18 33  2  0  0  0  0
 18 34  1  0  0  0  0
 19 21  2  0  0  0  0
 19 39  1  0  0  0  0
 20 22  2  0  0  0  0
 20 40  1  0  0  0  0
 21 51  1  0  0  0  0
 22 41  1  0  0  0  0
 23 26  2  0  0  0  0
 23 56  1  0  0  0  0
 24 25  2  0  0  0  0
 24 26  1  0  0  0  0
 24 57  1  0  0  0  0
 25 71  1  0  0  0  0
 26 76  1  0  0  0  0
 27 86  1  0  0  0  0
 28 87  1  0  0  0  0
 29 31  2  0  0  0  0
 29 86  1  0  0  0  0
 30 88  1  0  0  0  0
 31 89  1  0  0  0  0
 32 69  2  0  0  0  0
 33 70  1  0  0  0  0
 33 74  1  0  0  0  0
 34 75  1  0  0  0  0
 34 81  2  0  0  0  0
 35 52  1  0  0  0  0
 35 77  1  0  0  0  0
 35 82  2  0  0  0  0
 36 66  1  0  0  0  0
 36 72  1  0  0  0  0
 36 83  2  0  0  0  0
 37 67  1  0  0  0  0
 37 78  1  0  0  0  0
 37 84  2  0  0  0  0
 38 73  1  0  0  0  0
 38 76  1  0  0  0  0
 38 85  2  0  0  0  0
 39 42  1  0  0  0  0
 40 52  1  0  0  0  0
 41 72  1  0  0  0  0
 42 44  1  0  0  0  0
 43 45  1  0  0  0  0
 43 47  1  0  0  0  0
 44 51  1  0  0  0  0
 45 54  1  0  0  0  0
 46 48  1  0  0  0  0
 46 55  1  0  0  0  0
 47 73  1  0  0  0  0
 48 71  1  0  0  0  0
 49 53  1  0  0  0  0
 49 71  1  0  0  0  0
 50 54  1  0  0  0  0
 50 73  1  0  0  0  0
 51 77  1  0  0  0  0
 52 72  1  0  0  0  0
 53 55  1  0  0  0  0
 53 58  1  0  0  0  0
 54 70  1  0  0  0  0
 55 79  1  0  0  0  0
 59 67  1  0  0  0  0
 60 68  1  0  0  0  0
 61 68  1  0  0  0  0
 62 68  1  0  0  0  0
 63 80  1  0  0  0  0
 64 65  1  0  0  0  0
 64 79  1  0  0  0  0
 65 87  1  0  0  0  0
 66 68  1  0  0  0  0
 66 78  1  0  0  0  0
 67 80  1  0  0  0  0
 69 70  1  0  0  0  0
M  CHG  2  79   1  80   1
M  ISO  4  38 100  65 101  76 100  87 101
M  END
> <Batch ID>
0161

> <Smiles>
CNC(C)C(=O)NC(C(=O)N1Cc2cc([101O:1][101CH2:1]CNC3CCN(c4ccc(C)c([100NH:0][100C:0](=O)N5CCCC(n6nc(-c7ccc(Oc8ccc(F)cc8F)cc7)c(C(N)=O)c6N)C5)c4C)CC3C)ccc2CC1C(=O)NC1CCCc2ccccc21)C(C)(C)C

> <Shape>
0.248

> <Color>
0.083

> <Negative vol penalty>
0.000

$$$$

  -OEChem-04052322123D

 85 94  0     1  0  0  0  0  0999 V2000
  -27.0776  -29.2607   19.7199 C   0  0  0  0  0  0  0  0  0  0  0  0
  -27.4219  -28.0331   20.2766 C   0  0  0  0  0  0  0  0  0  0  0  0
  -23.8425   -9.8677   22.1134 C   0  0  0  0  0  0  0  0  0  0  0  0
  -24.3869  -11.2922   23.9873 C   0  0  0  0  0  0  0  0  0  0  0  0
  -25.7409  -29.6549   19.6767 C   0  0  0  0  0  0  0  0  0  0  0  0
  -26.4298  -27.1995   20.7914 C   0  0  0  0  0  0  0  0  0  0  0  0
  -27.0306  -22.3701   19.3908 C   0  0  0  0  0  0  0  0  0  0  0  0
  -23.3352   -8.9085   22.9899 C   0  0  0  0  0  0  0  0  0  0  0  0
  -23.8796  -10.3330   24.8638 C   0  0  0  0  0  0  0  0  0  0  0  0
  -27.9965  -21.6264   20.0674 C   0  0  0  0  0  0  0  0  0  0  0  0
  -22.3988   -8.4139   27.5735 C   0  0  0  0  0  0  0  0  0  0  0  0
  -21.5714   -8.8521   28.6074 C   0  0  0  0  0  0  0  0  0  0  0  0
  -26.2696  -20.6311   21.4263 C   0  0  0  0  0  0  0  0  0  0  0  0
  -20.0191   -9.7460   26.9861 C   0  0  0  0  0  0  0  0  0  0  0  0
  -24.3684  -11.0596   22.6121 C   0  0  0  0  0  0  0  0  0  0  0  0
  -24.1885  -13.1108   21.1062 C   0  0  0  0  0  0  0  0  0  0  0  0
  -24.7309  -28.8214   20.1825 C   0  0  0  0  0  0  0  0  0  0  0  0
  -25.6758  -22.2579   19.7348 C   0  0  0  0  0  0  0  0  0  0  0  0
  -25.0785  -27.5835   20.7562 C   0  0  0  0  0  0  0  0  0  0  0  0
  -25.2882  -21.3726   20.7508 C   0  0  0  0  0  0  0  0  0  0  0  0
  -31.5054  -17.2257   24.5576 C   0  0  0  0  0  0  0  0  0  0  0  0
  -31.0285  -16.7835   23.3069 C   0  0  0  0  0  0  0  0  0  0  0  0
  -30.8381  -18.2630   25.2295 C   0  0  0  0  0  0  0  0  0  0  0  0
  -29.9236  -17.4401   22.7354 C   0  0  0  0  0  0  0  0  0  0  0  0
  -29.7306  -18.8852   24.6573 C   0  0  0  0  0  0  0  0  0  0  0  0
  -29.2772  -18.4778   23.4078 C   0  0  0  0  0  0  0  0  0  0  0  0
  -23.3538   -9.1412   24.3651 C   0  0  0  0  0  0  0  0  0  0  0  0
  -27.6164  -20.7589   21.0872 C   0  0  0  0  0  0  0  0  0  0  0  0
  -22.0365   -8.6419   26.2459 C   0  0  0  0  0  0  0  0  0  0  0  0
  -20.3815   -9.5182   28.3137 C   0  0  0  0  0  0  0  0  0  0  0  0
  -20.8466   -9.3079   25.9523 C   0  0  0  0  0  0  0  0  0  0  0  0
  -24.8931  -12.0505   21.7072 C   0  0  0  0  0  0  0  0  0  0  0  0
  -25.1284  -13.7582   20.3421 C   0  0  0  0  0  0  0  0  0  0  0  0
  -22.8078  -13.4778   21.2279 C   0  0  0  0  0  0  0  0  0  0  0  0
  -23.4725  -24.2572   20.8538 C   0  0  0  0  0  0  0  0  0  0  0  0
  -21.4978  -21.7271   20.3832 C   0  0  0  0  0  0  0  0  0  0  0  0
  -21.1417  -18.3462   20.0836 C   0  0  0  0  0  0  0  0  0  0  0  0
  -31.0924  -14.1596   20.6895 C   0  0  0  0  0  0  0  0  0  0  0  0
  -23.3047  -29.3112   20.1565 C   0  0  0  0  0  0  0  0  0  0  0  0
  -24.6434  -23.0471   18.9774 C   0  0  0  0  0  0  0  0  0  0  0  0
  -32.6944  -16.5821   25.2265 C   0  0  0  0  0  0  0  0  0  0  0  0
  -23.8447  -21.2005   21.1447 C   0  0  0  0  0  0  0  0  0  0  0  0
  -22.2768  -28.2058   20.3842 C   0  0  0  0  0  0  0  0  0  0  0  0
  -33.5721  -15.7991   24.2553 C   0  0  0  0  0  0  0  0  0  0  0  0
  -29.1841  -12.9671   17.9303 C   0  0  0  0  0  0  0  0  0  0  0  0
  -22.6854  -27.3321   21.5660 C   0  0  0  0  0  0  0  0  0  0  0  0
  -32.7123  -14.8711   23.4082 C   0  0  0  0  0  0  0  0  0  0  0  0
  -27.8044  -12.6927   18.5312 C   0  0  0  0  0  0  0  0  0  0  0  0
  -30.3045  -12.6264   18.9105 C   0  0  0  0  0  0  0  0  0  0  0  0
  -28.8078  -12.9950   20.8335 C   0  0  0  0  0  0  0  0  0  0  0  0
  -24.0284  -26.6405   21.3025 C   0  0  1  0  0  0  0  0  0  0  0  0
  -31.7360  -15.6786   22.5435 C   0  0  1  0  0  0  0  0  0  0  0  0
  -23.3462  -23.2375   19.7574 C   0  0  1  0  0  0  0  0  0  0  0  0
  -27.6440  -13.3760   19.9025 C   0  0  2  0  0  0  0  0  0  0  0  0
  -31.3005  -18.7160   26.5818 C   0  0  0  0  0  0  0  0  0  0  0  0
  -29.4305  -17.0906   21.3624 C   0  0  0  0  0  0  0  0  0  0  0  0
  -29.0324  -19.9926   25.3823 C   0  0  0  0  0  0  0  0  0  0  0  0
  -19.4009  -16.5713   19.7419 C   0  0  0  0  0  0  0  0  0  0  0  0
  -20.6231  -22.0287   23.2907 C   0  0  0  0  0  0  0  0  0  0  0  0
  -19.6517  -19.7247   23.1647 C   0  0  0  0  0  0  0  0  0  0  0  0
  -18.7676  -21.5314   21.6894 C   0  0  0  0  0  0  0  0  0  0  0  0
  -22.3863  -17.4492   17.5527 C   0  0  0  0  0  0  0  0  0  0  0  0
  -28.0973  -19.1630   22.7836 C   0  0  0  0  0  0  0  0  0  1  0  0
  -21.0496  -20.5511   21.2169 C   0  0  1  0  0  0  0  0  0  0  0  0
  -20.4002  -17.4976   19.0665 C   0  0  2  0  0  0  0  0  0  0  0  0
  -20.0505  -20.9634   22.3346 C   0  0  0  0  0  0  0  0  0  0  0  0
  -26.1812  -12.0223   21.3551 N   0  0  0  0  0  0  0  0  0  0  0  0
  -26.2934  -13.0728   20.5245 N   0  0  0  0  0  0  0  0  0  0  0  0
  -22.8733  -21.9988   20.3788 N   0  0  0  0  0  0  0  0  0  0  0  0
  -30.0937  -13.3074   20.1902 N   0  0  0  0  0  0  0  0  0  0  0  0
  -25.0638  -14.8411   19.5387 N   0  0  0  0  0  0  0  0  0  0  0  0
  -21.9814  -12.7047   22.0547 N   0  0  0  0  0  0  0  0  0  0  0  0
  -23.8500  -25.5117   20.4145 N   0  0  0  0  0  0  0  0  0  0  0  0
  -20.5244  -19.5633   20.2805 N   0  0  0  0  0  0  0  0  0  0  0  0
  -30.8097  -14.7701   21.9052 N   0  0  0  0  0  0  0  0  0  0  0  0
  -21.3603  -16.6655   18.2876 N   0  3  0  0  0  0  0  0  0  0  0  0
  -22.3177  -14.4523   20.6085 O   0  0  0  0  0  0  0  0  0  0  0  0
  -23.2429  -23.9303   22.0123 O   0  0  0  0  0  0  0  0  0  0  0  0
  -20.6592  -22.3762   19.7531 O   0  0  0  0  0  0  0  0  0  0  0  0
  -22.1641  -17.9658   20.6497 O   0  0  0  0  0  0  0  0  0  0  0  0
  -32.1550  -14.3655   20.0932 O   0  0  0  0  0  0  0  0  0  0  0  0
  -22.8587   -8.2055   25.2206 O   0  0  0  0  0  0  0  0  0  0  0  0
  -28.5572  -20.0323   21.7496 O   0  0  0  0  0  0  0  0  0  1  0  0
  -19.5862   -9.9375   29.3066 F   0  0  0  0  0  0  0  0  0  0  0  0
  -20.4926   -9.5287   24.6788 F   0  0  0  0  0  0  0  0  0  0  0  0
  1  2  1  0  0  0  0
  1  5  2  0  0  0  0
  2  6  2  0  0  0  0
  3  8  2  0  0  0  0
  3 15  1  0  0  0  0
  4  9  1  0  0  0  0
  4 15  2  0  0  0  0
  5 17  1  0  0  0  0
  6 19  1  0  0  0  0
  7 10  2  0  0  0  0
  7 18  1  0  0  0  0
  8 27  1  0  0  0  0
  9 27  2  0  0  0  0
 10 28  1  0  0  0  0
 11 12  2  0  0  0  0
 11 29  1  0  0  0  0
 12 30  1  0  0  0  0
 13 20  1  0  0  0  0
 13 28  2  0  0  0  0
 14 30  2  0  0  0  0
 14 31  1  0  0  0  0
 15 32  1  0  0  0  0
 16 32  1  0  0  0  0
 16 33  2  0  0  0  0
 16 34  1  0  0  0  0
 17 19  2  0  0  0  0
 17 39  1  0  0  0  0
 18 20  2  0  0  0  0
 18 40  1  0  0  0  0
 19 51  1  0  0  0  0
 20 42  1  0  0  0  0
 21 22  2  0  0  0  0
 21 23  1  0  0  0  0
 21 41  1  0  0  0  0
 22 24  1  0  0  0  0
 22 52  1  0  0  0  0
 23 25  2  0  0  0  0
 23 55  1  0  0  0  0
 24 26  2  0  0  0  0
 24 56  1  0  0  0  0
 25 26  1  0  0  0  0
 25 57  1  0  0  0  0
 26 63  1  0  0  0  0
 27 82  1  0  0  0  0
 28 83  1  0  0  0  0
 29 31  2  0  0  0  0
 29 82  1  0  0  0  0
 30 84  1  0  0  0  0
 31 85  1  0  0  0  0
 32 67  2  0  0  0  0
 33 68  1  0  0  0  0
 33 71  1  0  0  0  0
 34 72  1  0  0  0  0
 34 77  2  0  0  0  0
 35 53  1  0  0  0  0
 35 73  1  0  0  0  0
 35 78  2  0  0  0  0
 36 64  1  0  0  0  0
 36 69  1  0  0  0  0
 36 79  2  0  0  0  0
 37 65  1  0  0  0  0
 37 74  1  0  0  0  0
 37 80  2  0  0  0  0
 38 70  1  0  0  0  0
 38 75  1  0  0  0  0
 38 81  2  0  0  0  0
 39 43  1  0  0  0  0
 40 53  1  0  0  0  0
 41 44  1  0  0  0  0
 42 69  1  0  0  0  0
 43 46  1  0  0  0  0
 44 47  1  0  0  0  0
 45 48  1  0  0  0  0
 45 49  1  0  0  0  0
 46 51  1  0  0  0  0
 47 52  1  0  0  0  0
 48 54  1  0  0  0  0
 49 70  1  0  0  0  0
 50 54  1  0  0  0  0
 50 70  1  0  0  0  0
 51 73  1  0  0  0  0
 52 75  1  0  0  0  0
 53 69  1  0  0  0  0
 54 68  1  0  0  0  0
 58 65  1  0  0  0  0
 59 66  1  0  0  0  0
 60 66  1  0  0  0  0
 61 66  1  0  0  0  0
 62 76  1  0  0  0  0
 63 83  1  0  0  0  0
 64 66  1  0  0  0  0
 64 74  1  0  0  0  0
 65 76  1  0  0  0  0
 67 68  1  0  0  0  0
M  CHG  1  76   1
M  ISO  4  38 100  63 101  75 100  83 101
M  END
> <Batch ID>
0161

> <Smiles>
CNC(C)C(=O)NC(C(=O)N1Cc2cc([101O:1][101CH2:1]c3c(C)c(C)c4c(c3C)C([100NH:0][100C:0](=O)N3CCCC(n5nc(-c6ccc(Oc7ccc(F)cc7F)cc6)c(C(N)=O)c5N)C3)CCC4)ccc2CC1C(=O)NC1CCCc2ccccc21)C(C)(C)C

> <Shape>
0.181

> <Color>
0.139

> <Negative vol penalty>
0.000

$$$$

  -OEChem-04052322123D

 89 98  0     1  0  0  0  0  0999 V2000
  -18.5092  -26.1625   19.3364 C   0  0  0  0  0  0  0  0  0  0  0  0
  -19.5802  -26.9919   19.0194 C   0  0  0  0  0  0  0  0  0  0  0  0
  -26.5846  -18.2544   19.0864 C   0  0  0  0  0  0  0  0  0  0  0  0
  -27.5692  -17.2538   21.0527 C   0  0  0  0  0  0  0  0  0  0  0  0
  -18.1912  -25.9161   20.6714 C   0  0  0  0  0  0  0  0  0  0  0  0
  -20.3332  -27.5763   20.0372 C   0  0  0  0  0  0  0  0  0  0  0  0
  -25.3161  -27.2737   19.1860 C   0  0  0  0  0  0  0  0  0  0  0  0
  -26.3071  -16.9850   18.5794 C   0  0  0  0  0  0  0  0  0  0  0  0
  -27.2916  -15.9843   20.5457 C   0  0  0  0  0  0  0  0  0  0  0  0
  -25.8621  -28.1758   18.2739 C   0  0  0  0  0  0  0  0  0  0  0  0
  -24.6166  -13.9345   20.2943 C   0  0  0  0  0  0  0  0  0  0  0  0
  -24.0644  -12.9965   21.1665 C   0  0  0  0  0  0  0  0  0  0  0  0
  -26.6322  -29.5486   20.1020 C   0  0  0  0  0  0  0  0  0  0  0  0
  -25.9635  -11.5463   20.8093 C   0  0  0  0  0  0  0  0  0  0  0  0
  -27.2157  -18.3888   20.3231 C   0  0  0  0  0  0  0  0  0  0  0  0
  -26.6727  -20.4893   21.6651 C   0  0  0  0  0  0  0  0  0  0  0  0
  -18.9467  -26.4901   21.7061 C   0  0  0  0  0  0  0  0  0  0  0  0
  -25.4146  -27.5083   20.5650 C   0  0  0  0  0  0  0  0  0  0  0  0
  -20.0242  -27.3384   21.3872 C   0  0  0  0  0  0  0  0  0  0  0  0
  -26.0888  -28.6467   21.0295 C   0  0  0  0  0  0  0  0  0  0  0  0
  -31.4520  -34.0188   18.0190 C   0  0  0  0  0  0  0  0  0  0  0  0
  -32.6672  -33.3433   18.1310 C   0  0  0  0  0  0  0  0  0  0  0  0
  -30.2954  -33.3207   17.6715 C   0  0  0  0  0  0  0  0  0  0  0  0
  -32.7259  -31.9697   17.8954 C   0  0  0  0  0  0  0  0  0  0  0  0
  -30.3541  -31.9471   17.4359 C   0  0  0  0  0  0  0  0  0  0  0  0
  -31.5693  -31.2716   17.5478 C   0  0  0  0  0  0  0  0  0  0  0  0
  -26.6605  -15.8500   19.3090 C   0  0  0  0  0  0  0  0  0  0  0  0
  -26.5178  -29.3149   18.7318 C   0  0  0  0  0  0  0  0  0  0  0  0
  -25.8423  -13.6785   19.6796 C   0  0  0  0  0  0  0  0  0  0  0  0
  -24.7378  -11.8024   21.4240 C   0  0  0  0  0  0  0  0  0  0  0  0
  -26.5157  -12.4844   19.9371 C   0  0  0  0  0  0  0  0  0  0  0  0
  -27.5032  -19.6998   20.8472 C   0  0  0  0  0  0  0  0  0  0  0  0
  -27.3975  -21.6349   21.8862 C   0  0  0  0  0  0  0  0  0  0  0  0
  -25.3633  -20.2119   22.1790 C   0  0  0  0  0  0  0  0  0  0  0  0
  -23.3268  -27.9798   22.9150 C   0  0  0  0  0  0  0  0  0  0  0  0
  -25.9837  -27.8683   24.7727 C   0  0  0  0  0  0  0  0  0  0  0  0
  -29.3664  -28.2486   25.0165 C   0  0  0  0  0  0  0  0  0  0  0  0
  -30.4983  -25.7123   20.2845 C   0  0  0  0  0  0  0  0  0  0  0  0
  -18.5356  -26.2323   23.1341 C   0  0  0  0  0  0  0  0  0  0  0  0
  -24.8436  -26.5119   21.5364 C   0  0  0  0  0  0  0  0  0  0  0  0
  -26.2395  -28.9341   22.5002 C   0  0  0  0  0  0  0  0  0  0  0  0
  -19.6148  -26.5904   24.1527 C   0  0  0  0  0  0  0  0  0  0  0  0
  -32.2332  -22.7251   20.9134 C   0  0  0  0  0  0  0  0  0  0  0  0
  -20.2087  -27.9606   23.8417 C   0  0  0  0  0  0  0  0  0  0  0  0
  -31.0838  -21.7232   21.0192 C   0  0  0  0  0  0  0  0  0  0  0  0
  -32.0306  -27.5406   17.6965 C   0  0  0  0  0  0  0  0  0  0  0  0
  -31.1622  -29.0302   19.5389 C   0  0  0  0  0  0  0  0  0  0  0  0
  -32.0087  -23.7383   19.7894 C   0  0  0  0  0  0  0  0  0  0  0  0
  -32.3610  -26.4703   18.7411 C   0  0  0  0  0  0  0  0  0  0  0  0
  -31.5345  -27.9459   20.5463 C   0  0  0  0  0  0  0  0  0  0  0  0
  -29.5599  -23.4411   19.9736 C   0  0  0  0  0  0  0  0  0  0  0  0
  -20.8801  -27.9709   22.4631 C   0  0  1  0  0  0  0  0  0  0  0  0
  -24.5542  -27.1132   22.9083 C   0  0  1  0  0  0  0  0  0  0  0  0
  -29.7297  -22.4460   21.1320 C   0  0  1  0  0  0  0  0  0  0  0  0
  -32.0606  -28.9458   18.3023 C   0  0  0  0  0  0  0  0  0  0  0  0
  -31.3890  -35.4922   18.2718 C   0  0  0  0  0  0  0  0  0  0  0  0
  -33.9077  -34.0925   18.5037 C   0  0  0  0  0  0  0  0  0  0  0  0
  -28.9919  -34.0456   17.5519 C   0  0  0  0  0  0  0  0  0  0  0  0
  -34.0320  -31.2481   18.0164 C   0  0  0  0  0  0  0  0  0  0  0  0
  -31.6477  -28.1832   26.0601 C   0  0  0  0  0  0  0  0  0  0  0  0
  -25.1306  -30.5567   25.9365 C   0  0  0  0  0  0  0  0  0  0  0  0
  -27.4518  -30.8254   26.8354 C   0  0  0  0  0  0  0  0  0  0  0  0
  -26.0267  -28.9314   27.6128 C   0  0  0  0  0  0  0  0  0  0  0  0
  -29.8005  -25.4461   24.1700 C   0  0  0  0  0  0  0  0  0  0  0  0
  -29.1107  -31.2012   17.0632 C   0  0  0  0  0  0  0  0  0  0  0  0
  -28.2031  -30.9262   18.2632 C   0  0  0  0  0  0  0  0  0  1  0  0
  -26.9821  -28.8843   25.2725 C   0  0  1  0  0  0  0  0  0  0  0  0
  -30.4372  -27.3672   25.6338 C   0  0  2  0  0  0  0  0  0  0  0  0
  -26.3935  -29.7953   26.3865 C   0  0  0  0  0  0  0  0  0  0  0  0
  -28.6665  -20.2937   20.5676 N   0  0  0  0  0  0  0  0  0  0  0  0
  -28.5721  -21.4686   21.2133 N   0  0  0  0  0  0  0  0  0  0  0  0
  -25.6587  -27.9332   23.4103 N   0  0  0  0  0  0  0  0  0  0  0  0
  -30.6889  -24.3721   19.9162 N   0  0  0  0  0  0  0  0  0  0  0  0
  -31.5067  -26.6200   19.9279 N   0  0  0  0  0  0  0  0  0  0  0  0
  -27.1382  -22.7582   22.5886 N   0  0  0  0  0  0  0  0  0  0  0  0
  -24.7640  -18.9871   21.8549 N   0  0  0  0  0  0  0  0  0  0  0  0
  -31.6276  -29.9091   17.3141 N   0  0  0  0  0  0  0  0  0  0  0  0
  -22.1737  -27.3251   22.5261 N   0  0  0  0  0  0  0  0  0  0  0  0
  -28.1630  -28.1303   25.6792 N   0  0  0  0  0  0  0  0  0  0  0  0
  -30.8863  -26.3359   24.6562 N   0  3  0  0  0  0  0  0  0  0  0  0
  -24.7364  -21.0328   22.8907 O   0  0  0  0  0  0  0  0  0  0  0  0
  -23.4188  -29.1551   23.2497 O   0  0  0  0  0  0  0  0  0  0  0  0
  -25.5150  -27.0428   25.5604 O   0  0  0  0  0  0  0  0  0  0  0  0
  -29.5774  -28.9726   24.0460 O   0  0  0  0  0  0  0  0  0  0  0  0
  -29.4862  -26.0769   20.8960 O   0  0  0  0  0  0  0  0  0  0  0  0
  -26.3896  -14.6111   18.8146 O   0  0  0  0  0  0  0  0  0  0  0  0
  -27.0549  -30.2035   17.8375 O   0  0  0  0  0  0  0  0  0  1  0  0
  -24.2081  -10.9024   22.2628 F   0  0  0  0  0  0  0  0  0  0  0  0
  -27.6941  -12.2333   19.3505 F   0  0  0  0  0  0  0  0  0  0  0  0
  1  2  1  0  0  0  0
  1  5  2  0  0  0  0
  2  6  2  0  0  0  0
  3  8  2  0  0  0  0
  3 15  1  0  0  0  0
  4  9  1  0  0  0  0
  4 15  2  0  0  0  0
  5 17  1  0  0  0  0
  6 19  1  0  0  0  0
  7 10  2  0  0  0  0
  7 18  1  0  0  0  0
  8 27  1  0  0  0  0
  9 27  2  0  0  0  0
 10 28  1  0  0  0  0
 11 12  2  0  0  0  0
 11 29  1  0  0  0  0
 12 30  1  0  0  0  0
 13 20  1  0  0  0  0
 13 28  2  0  0  0  0
 14 30  2  0  0  0  0
 14 31  1  0  0  0  0
 15 32  1  0  0  0  0
 16 32  1  0  0  0  0
 16 33  2  0  0  0  0
 16 34  1  0  0  0  0
 17 19  2  0  0  0  0
 17 39  1  0  0  0  0
 18 20  2  0  0  0  0
 18 40  1  0  0  0  0
 19 52  1  0  0  0  0
 20 41  1  0  0  0  0
 21 22  1  0  0  0  0
 21 23  2  0  0  0  0
 21 56  1  0  0  0  0
 22 24  2  0  0  0  0
 22 57  1  0  0  0  0
 23 25  1  0  0  0  0
 23 58  1  0  0  0  0
 24 26  1  0  0  0  0
 24 59  1  0  0  0  0
 25 26  2  0  0  0  0
 25 65  1  0  0  0  0
 26 77  1  0  0  0  0
 27 86  1  0  0  0  0
 28 87  1  0  0  0  0
 29 31  2  0  0  0  0
 29 86  1  0  0  0  0
 30 88  1  0  0  0  0
 31 89  1  0  0  0  0
 32 70  2  0  0  0  0
 33 71  1  0  0  0  0
 33 75  1  0  0  0  0
 34 76  1  0  0  0  0
 34 81  2  0  0  0  0
 35 53  1  0  0  0  0
 35 78  1  0  0  0  0
 35 82  2  0  0  0  0
 36 67  1  0  0  0  0
 36 72  1  0  0  0  0
 36 83  2  0  0  0  0
 37 68  1  0  0  0  0
 37 79  1  0  0  0  0
 37 84  2  0  0  0  0
 38 73  1  0  0  0  0
 38 74  1  0  0  0  0
 38 85  2  0  0  0  0
 39 42  1  0  0  0  0
 40 53  1  0  0  0  0
 41 72  1  0  0  0  0
 42 44  1  0  0  0  0
 43 45  1  0  0  0  0
 43 48  1  0  0  0  0
 44 52  1  0  0  0  0
 45 54  1  0  0  0  0
 46 49  1  0  0  0  0
 46 55  1  0  0  0  0
 47 50  1  0  0  0  0
 47 55  1  0  0  0  0
 48 73  1  0  0  0  0
 49 74  1  0  0  0  0
 50 74  1  0  0  0  0
 51 54  1  0  0  0  0
 51 73  1  0  0  0  0
 52 78  1  0  0  0  0
 53 72  1  0  0  0  0
 54 71  1  0  0  0  0
 55 77  1  0  0  0  0
 60 68  1  0  0  0  0
 61 69  1  0  0  0  0
 62 69  1  0  0  0  0
 63 69  1  0  0  0  0
 64 80  1  0  0  0  0
 65 66  1  0  0  0  0
 66 87  1  0  0  0  0
 67 69  1  0  0  0  0
 67 79  1  0  0  0  0
 68 80  1  0  0  0  0
 70 71  1  0  0  0  0
M  CHG  1  80   1
M  ISO  4  38 100  66 101  74 100  87 101
M  END
> <Batch ID>
0161

> <Smiles>
CNC(C)C(=O)NC(C(=O)N1Cc2cc([101O:1][101CH2:1]Cc3c(C)c(C)c(C)c(C)c3NC3CC[100N:0]([100C:0](=O)N4CCCC(n5nc(-c6ccc(Oc7ccc(F)cc7F)cc6)c(C(N)=O)c5N)C4)CC3)ccc2CC1C(=O)NC1CCCc2ccccc21)C(C)(C)C

> <Shape>
0.211

> <Color>
0.076

> <Negative vol penalty>
0.000

$$$$

  -OEChem-04052322123D

 89 99  0     1  0  0  0  0  0999 V2000
  -26.9411  -32.2143   27.3183 C   0  0  0  0  0  0  0  0  0  0  0  0
  -26.8861  -31.0613   26.5418 C   0  0  0  0  0  0  0  0  0  0  0  0
  -25.5415   -7.7072   21.8398 C   0  0  0  0  0  0  0  0  0  0  0  0
  -24.2513   -9.5558   20.9710 C   0  0  0  0  0  0  0  0  0  0  0  0
  -25.9222  -33.1619   27.2302 C   0  0  0  0  0  0  0  0  0  0  0  0
  -25.8115  -30.8548   25.6775 C   0  0  0  0  0  0  0  0  0  0  0  0
  -27.2750  -29.2118   21.1163 C   0  0  0  0  0  0  0  0  0  0  0  0
  -24.4730   -7.3474   22.6611 C   0  0  0  0  0  0  0  0  0  0  0  0
  -23.1828   -9.1961   21.7923 C   0  0  0  0  0  0  0  0  0  0  0  0
  -27.6151  -27.8644   21.0038 C   0  0  0  0  0  0  0  0  0  0  0  0
  -21.5234   -5.7252   22.3437 C   0  0  0  0  0  0  0  0  0  0  0  0
  -21.1794   -4.3748   22.4056 C   0  0  0  0  0  0  0  0  0  0  0  0
  -27.9489  -19.4658   21.6758 C   0  0  0  0  0  0  0  0  0  0  0  0
  -25.4421  -27.4006   20.0646 C   0  0  0  0  0  0  0  0  0  0  0  0
  -28.2550  -20.8629   19.2860 C   0  0  0  0  0  0  0  0  0  0  0  0
  -21.6090   -4.3744   24.7831 C   0  0  0  0  0  0  0  0  0  0  0  0
  -25.4306   -8.8114   20.9947 C   0  0  0  0  0  0  0  0  0  0  0  0
  -26.7843   -8.7416   18.8336 C   0  0  0  0  0  0  0  0  0  0  0  0
  -24.8395  -32.9715   26.3572 C   0  0  0  0  0  0  0  0  0  0  0  0
  -26.0098  -29.6626   20.7132 C   0  0  0  0  0  0  0  0  0  0  0  0
  -24.7765  -31.8001   25.5786 C   0  0  0  0  0  0  0  0  0  0  0  0
  -28.1019  -18.7707   20.4758 C   0  0  0  0  0  0  0  0  0  0  0  0
  -27.9425  -20.8694   21.6953 C   0  0  0  0  0  0  0  0  0  0  0  0
  -25.0893  -28.7546   20.1707 C   0  0  0  0  0  0  0  0  0  0  0  0
  -28.2562  -19.4694   19.2814 C   0  0  0  0  0  0  0  0  0  0  0  0
  -28.0890  -21.5618   20.4855 C   0  0  0  0  0  0  0  0  0  0  0  0
  -23.2937   -8.0919   22.6373 C   0  0  0  0  0  0  0  0  0  0  0  0
  -26.6975  -26.9581   20.4806 C   0  0  0  0  0  0  0  0  0  0  0  0
  -21.9103   -6.4002   23.5015 C   0  0  0  0  0  0  0  0  0  0  0  0
  -21.2222   -3.6995   23.6253 C   0  0  0  0  0  0  0  0  0  0  0  0
  -21.9531   -5.7248   24.7212 C   0  0  0  0  0  0  0  0  0  0  0  0
  -26.5342   -9.1839   20.1465 C   0  0  0  0  0  0  0  0  0  0  0  0
  -27.9441   -9.3817   18.4707 C   0  0  0  0  0  0  0  0  0  0  0  0
  -26.0351   -7.8335   18.0152 C   0  0  0  0  0  0  0  0  0  0  0  0
  -23.5478  -31.0401   22.1777 C   0  0  0  0  0  0  0  0  0  0  0  0
  -22.3727  -31.2507   19.1616 C   0  0  0  0  0  0  0  0  0  0  0  0
  -22.3653  -30.0551   15.9651 C   0  0  0  0  0  0  0  0  0  0  0  0
  -30.5289  -14.4458   20.3341 C   0  0  0  0  0  0  0  0  0  0  0  0
  -23.7381  -34.0015   26.3313 C   0  0  0  0  0  0  0  0  0  0  0  0
  -25.6681  -31.1238   20.8163 C   0  0  0  0  0  0  0  0  0  0  0  0
  -23.7253  -29.1913   19.7046 C   0  0  0  0  0  0  0  0  0  0  0  0
  -22.8233  -33.8845   25.1148 C   0  0  0  0  0  0  0  0  0  0  0  0
  -31.9526  -11.2126   20.2877 C   0  0  0  0  0  0  0  0  0  0  0  0
  -22.4155  -32.4317   24.8913 C   0  0  0  0  0  0  0  0  0  0  0  0
  -30.7547  -10.2758   20.1587 C   0  0  0  0  0  0  0  0  0  0  0  0
  -27.9778  -16.5846   21.8740 C   0  0  0  0  0  0  0  0  0  0  0  0
  -31.6183  -12.3981   21.1830 C   0  0  0  0  0  0  0  0  0  0  0  0
  -28.4136  -15.1524   21.5953 C   0  0  0  0  0  0  0  0  0  0  0  0
  -29.3883  -16.6123   19.9641 C   0  0  0  0  0  0  0  0  0  0  0  0
  -29.2237  -12.2748   20.5495 C   0  0  0  0  0  0  0  0  0  0  0  0
  -28.1017  -17.2581   20.4977 C   0  0  2  0  0  0  0  0  0  0  0  0
  -27.7911  -21.6056   23.0083 C   0  0  1  0  0  0  0  0  0  0  0  0
  -23.6398  -31.5519   24.6109 C   0  0  1  0  0  0  0  0  0  0  0  0
  -24.1654  -31.3849   20.8521 C   0  0  1  0  0  0  0  0  0  0  0  0
  -28.2142  -23.0858   22.8540 C   0  0  2  0  0  0  0  0  0  0  0  0
  -29.5173  -11.0432   19.6681 C   0  0  2  0  0  0  0  0  0  0  0  0
  -27.6345  -23.6347   21.5351 C   0  0  1  0  0  0  0  0  0  0  0  0
  -28.4298  -18.7488   17.9849 C   0  0  0  0  0  0  0  0  0  0  0  0
  -26.3480  -21.4884   23.5197 C   0  0  0  0  0  0  0  0  0  0  0  0
  -29.7440  -23.2178   22.9367 C   0  0  0  0  0  0  0  0  0  0  0  0
  -21.2724  -30.4054   13.7335 C   0  0  0  0  0  0  0  0  0  0  0  0
  -19.8533  -29.8634   20.1804 C   0  0  0  0  0  0  0  0  0  0  0  0
  -19.2337  -29.3935   17.8006 C   0  0  0  0  0  0  0  0  0  0  0  0
  -19.4358  -31.7502   18.5929 C   0  0  0  0  0  0  0  0  0  0  0  0
  -24.9481  -30.6985   14.6712 C   0  0  0  0  0  0  0  0  0  0  0  0
  -27.9434  -25.1141   21.3194 C   0  0  0  0  0  0  0  0  0  1  0  0
  -21.5270  -30.3643   18.2794 C   0  0  1  0  0  0  0  0  0  0  0  0
  -22.4517  -30.7627   14.6249 C   0  0  2  0  0  0  0  0  0  0  0  0
  -20.0374  -30.3340   18.7238 C   0  0  0  0  0  0  0  0  0  0  0  0
  -27.4608  -10.0387   20.5879 N   0  0  0  0  0  0  0  0  0  0  0  0
  -28.3044  -10.1386   19.5466 N   0  0  0  0  0  0  0  0  0  0  0  0
  -23.4360  -30.6292   19.8318 N   0  0  0  0  0  0  0  0  0  0  0  0
  -30.4219  -13.1062   20.7237 N   0  0  0  0  0  0  0  0  0  0  0  0
  -29.4333  -15.2791   20.5561 N   0  0  0  0  0  0  0  0  0  0  0  0
  -28.6807   -9.3651   17.3396 N   0  0  0  0  0  0  0  0  0  0  0  0
  -24.8675   -7.2659   18.5433 N   0  0  0  0  0  0  0  0  0  0  0  0
  -24.0881  -31.7297   23.2464 N   0  0  0  0  0  0  0  0  0  0  0  0
  -21.7335  -30.8320   16.9130 N   0  0  0  0  0  0  0  0  0  0  0  0
  -23.7073  -30.3822   13.9181 N   0  3  0  0  0  0  0  0  0  0  0  0
  -26.3993   -7.5217   16.8561 O   0  0  0  0  0  0  0  0  0  0  0  0
  -22.6468  -30.2110   22.2272 O   0  0  0  0  0  0  0  0  0  0  0  0
  -22.1043  -32.4516   19.2472 O   0  0  0  0  0  0  0  0  0  0  0  0
  -22.8103  -28.9247   16.1515 O   0  0  0  0  0  0  0  0  0  0  0  0
  -31.5759  -14.8913   19.8450 O   0  0  0  0  0  0  0  0  0  0  0  0
  -28.1312  -22.9284   20.3902 O   0  0  0  0  0  0  0  0  0  0  0  0
  -22.2508   -7.7410   23.4385 O   0  0  0  0  0  0  0  0  0  0  0  0
  -27.0297  -25.6302   20.3694 O   0  0  0  0  0  0  0  0  0  1  0  0
  -20.8903   -2.4031   23.6849 F   0  0  0  0  0  0  0  0  0  0  0  0
  -22.3228   -6.3682   25.8370 F   0  0  0  0  0  0  0  0  0  0  0  0
  1  2  1  0  0  0  0
  1  5  2  0  0  0  0
  2  6  2  0  0  0  0
  3  8  2  0  0  0  0
  3 17  1  0  0  0  0
  4  9  1  0  0  0  0
  4 17  2  0  0  0  0
  5 19  1  0  0  0  0
  6 21  1  0  0  0  0
  7 10  2  0  0  0  0
  7 20  1  0  0  0  0
  8 27  1  0  0  0  0
  9 27  2  0  0  0  0
 10 28  1  0  0  0  0
 11 12  2  0  0  0  0
 11 29  1  0  0  0  0
 12 30  1  0  0  0  0
 13 22  2  0  0  0  0
 13 23  1  0  0  0  0
 14 24  1  0  0  0  0
 14 28  2  0  0  0  0
 15 25  2  0  0  0  0
 15 26  1  0  0  0  0
 16 30  2  0  0  0  0
 16 31  1  0  0  0  0
 17 32  1  0  0  0  0
 18 32  1  0  0  0  0
 18 33  2  0  0  0  0
 18 34  1  0  0  0  0
 19 21  2  0  0  0  0
 19 39  1  0  0  0  0
 20 24  2  0  0  0  0
 20 40  1  0  0  0  0
 21 53  1  0  0  0  0
 22 25  1  0  0  0  0
 22 51  1  0  0  0  0
 23 26  2  0  0  0  0
 23 52  1  0  0  0  0
 24 41  1  0  0  0  0
 25 58  1  0  0  0  0
 26 85  1  0  0  0  0
 27 86  1  0  0  0  0
 28 87  1  0  0  0  0
 29 31  2  0  0  0  0
 29 86  1  0  0  0  0
 30 88  1  0  0  0  0
 31 89  1  0  0  0  0
 32 70  2  0  0  0  0
 33 71  1  0  0  0  0
 33 75  1  0  0  0  0
 34 76  1  0  0  0  0
 34 80  2  0  0  0  0
 35 54  1  0  0  0  0
 35 77  1  0  0  0  0
 35 81  2  0  0  0  0
 36 67  1  0  0  0  0
 36 72  1  0  0  0  0
 36 82  2  0  0  0  0
 37 68  1  0  0  0  0
 37 78  1  0  0  0  0
 37 83  2  0  0  0  0
 38 73  1  0  0  0  0
 38 74  1  0  0  0  0
 38 84  2  0  0  0  0
 39 42  1  0  0  0  0
 40 54  1  0  0  0  0
 41 72  1  0  0  0  0
 42 44  1  0  0  0  0
 43 45  1  0  0  0  0
 43 47  1  0  0  0  0
 44 53  1  0  0  0  0
 45 56  1  0  0  0  0
 46 48  1  0  0  0  0
 46 51  1  0  0  0  0
 47 73  1  0  0  0  0
 48 74  1  0  0  0  0
 49 51  1  0  0  0  0
 49 74  1  0  0  0  0
 50 56  1  0  0  0  0
 50 73  1  0  0  0  0
 52 55  1  0  0  0  0
 52 59  1  0  0  0  0
 53 77  1  0  0  0  0
 54 72  1  0  0  0  0
 55 57  1  0  0  0  0
 55 60  1  0  0  0  0
 56 71  1  0  0  0  0
 57 66  1  0  0  0  0
 57 85  1  0  0  0  0
 61 68  1  0  0  0  0
 62 69  1  0  0  0  0
 63 69  1  0  0  0  0
 64 69  1  0  0  0  0
 65 79  1  0  0  0  0
 66 87  1  0  0  0  0
 67 69  1  0  0  0  0
 67 78  1  0  0  0  0
 68 79  1  0  0  0  0
 70 71  1  0  0  0  0
M  CHG  1  79   1
M  ISO  4  38 100  66 101  74 100  87 101
M  END
> <Batch ID>
0161

> <Smiles>
CNC(C)C(=O)NC(C(=O)N1Cc2cc([101O:1][101CH2:1]C3Oc4cc(C)c(C5CC[100N:0]([100C:0](=O)N6CCCC(n7nc(-c8ccc(Oc9ccc(F)cc9F)cc8)c(C(N)=O)c7N)C6)C5)cc4C(C)C3C)ccc2CC1C(=O)NC1CCCc2ccccc21)C(C)(C)C

> <Shape>
0.267

> <Color>
0.066

> <Negative vol penalty>
0.000

$$$$

  -OEChem-04052322123D

 91101  0     1  0  0  0  0  0999 V2000
  -29.0615  -35.8005   25.2355 C   0  0  0  0  0  0  0  0  0  0  0  0
  -29.0963  -35.5639   23.8650 C   0  0  0  0  0  0  0  0  0  0  0  0
  -22.5061  -10.5620   21.2794 C   0  0  0  0  0  0  0  0  0  0  0  0
  -24.3459   -9.3597   22.2829 C   0  0  0  0  0  0  0  0  0  0  0  0
  -28.7153  -34.7718   26.1107 C   0  0  0  0  0  0  0  0  0  0  0  0
  -28.7860  -34.2982   23.3690 C   0  0  0  0  0  0  0  0  0  0  0  0
  -25.7844  -31.1042   17.7028 C   0  0  0  0  0  0  0  0  0  0  0  0
  -21.8422   -9.3565   21.0523 C   0  0  0  0  0  0  0  0  0  0  0  0
  -23.6819   -8.1542   22.0558 C   0  0  0  0  0  0  0  0  0  0  0  0
  -26.0479  -30.1092   16.7624 C   0  0  0  0  0  0  0  0  0  0  0  0
  -21.1713   -6.3901   23.4719 C   0  0  0  0  0  0  0  0  0  0  0  0
  -21.1437   -5.4612   24.5121 C   0  0  0  0  0  0  0  0  0  0  0  0
  -24.9248  -21.5662   16.5157 C   0  0  0  0  0  0  0  0  0  0  0  0
  -23.9452  -24.0674   17.2688 C   0  0  0  0  0  0  0  0  0  0  0  0
  -25.3868  -28.4298   18.3630 C   0  0  0  0  0  0  0  0  0  0  0  0
  -22.2837   -3.8574   23.1102 C   0  0  0  0  0  0  0  0  0  0  0  0
  -23.7580  -10.5636   21.8946 C   0  0  0  0  0  0  0  0  0  0  0  0
  -24.3561  -12.6261   23.2715 C   0  0  0  0  0  0  0  0  0  0  0  0
  -28.3911  -33.4955   25.6245 C   0  0  0  0  0  0  0  0  0  0  0  0
  -25.3298  -30.7683   18.9861 C   0  0  0  0  0  0  0  0  0  0  0  0
  -28.4364  -33.2512   24.2386 C   0  0  0  0  0  0  0  0  0  0  0  0
  -24.6316  -21.8261   17.8543 C   0  0  0  0  0  0  0  0  0  0  0  0
  -24.2384  -23.8074   15.9301 C   0  0  0  0  0  0  0  0  0  0  0  0
  -25.1158  -29.4226   19.3170 C   0  0  0  0  0  0  0  0  0  0  0  0
  -24.1418  -23.0767   18.2309 C   0  0  0  0  0  0  0  0  0  0  0  0
  -24.7282  -22.5569   15.5535 C   0  0  0  0  0  0  0  0  0  0  0  0
  -22.4300   -8.1526   21.4405 C   0  0  0  0  0  0  0  0  0  0  0  0
  -25.8519  -28.7716   17.0933 C   0  0  0  0  0  0  0  0  0  0  0  0
  -21.7550   -6.0526   22.2508 C   0  0  0  0  0  0  0  0  0  0  0  0
  -21.6999   -4.1949   24.3313 C   0  0  0  0  0  0  0  0  0  0  0  0
  -22.3113   -4.7863   22.0700 C   0  0  0  0  0  0  0  0  0  0  0  0
  -24.4446  -11.8084   22.1290 C   0  0  0  0  0  0  0  0  0  0  0  0
  -25.1930  -13.6818   23.0039 C   0  0  0  0  0  0  0  0  0  0  0  0
  -23.5862  -12.4474   24.4677 C   0  0  0  0  0  0  0  0  0  0  0  0
  -26.4526  -31.1508   21.9351 C   0  0  0  0  0  0  0  0  0  0  0  0
  -23.5631  -29.9386   22.7740 C   0  0  0  0  0  0  0  0  0  0  0  0
  -20.8494  -28.0574   21.9115 C   0  0  0  0  0  0  0  0  0  0  0  0
  -27.2717  -17.5195   19.6915 C   0  0  0  0  0  0  0  0  0  0  0  0
  -28.0689  -32.4025   26.6125 C   0  0  0  0  0  0  0  0  0  0  0  0
  -25.0247  -31.8549   19.9803 C   0  0  0  0  0  0  0  0  0  0  0  0
  -24.6098  -29.0105   20.6744 C   0  0  0  0  0  0  0  0  0  0  0  0
  -27.3897  -31.1905   25.9801 C   0  0  0  0  0  0  0  0  0  0  0  0
  -22.6483  -25.6800   13.3120 C   0  0  0  0  0  0  0  0  0  0  0  0
  -28.5985  -14.3478   19.3336 C   0  0  0  0  0  0  0  0  0  0  0  0
  -28.1169  -30.7760   24.7049 C   0  0  0  0  0  0  0  0  0  0  0  0
  -27.6357  -13.4601   20.1219 C   0  0  0  0  0  0  0  0  0  0  0  0
  -23.6389  -24.5051   13.3886 C   0  0  0  0  0  0  0  0  0  0  0  0
  -22.6122  -25.6772   14.8503 C   0  0  0  0  0  0  0  0  0  0  0  0
  -24.6087  -19.3311   18.2972 C   0  0  0  0  0  0  0  0  0  0  0  0
  -26.2528  -20.8175   19.5208 C   0  0  0  0  0  0  0  0  0  0  0  0
  -27.8399  -15.4036   18.5379 C   0  0  0  0  0  0  0  0  0  0  0  0
  -24.8667  -18.2316   19.3314 C   0  0  0  0  0  0  0  0  0  0  0  0
  -26.4516  -19.6968   20.5373 C   0  0  0  0  0  0  0  0  0  0  0  0
  -25.9795  -15.3903   20.1679 C   0  0  0  0  0  0  0  0  0  0  0  0
  -24.8543  -20.7333   18.8828 C   0  0  0  0  0  0  0  0  0  0  0  0
  -28.0821  -31.8982   23.6604 C   0  0  1  0  0  0  0  0  0  0  0  0
  -25.0558  -31.3682   21.4258 C   0  0  1  0  0  0  0  0  0  0  0  0
  -26.6956  -14.3062   20.9987 C   0  0  1  0  0  0  0  0  0  0  0  0
  -24.0068  -24.9613   14.8426 C   0  0  0  0  0  0  0  0  0  0  0  0
  -23.8217  -23.3777   19.6585 C   0  0  0  0  0  0  0  0  0  0  0  0
  -25.0486  -22.2584   14.1262 C   0  0  0  0  0  0  0  0  0  0  0  0
  -18.6663  -27.2167   22.8196 C   0  0  0  0  0  0  0  0  0  0  0  0
  -26.4793  -25.1925   14.5318 C   0  0  0  0  0  0  0  0  0  0  0  0
  -25.0571  -27.8611   24.4360 C   0  0  0  0  0  0  0  0  0  0  0  0
  -22.9453  -26.5196   24.5299 C   0  0  0  0  0  0  0  0  0  0  0  0
  -23.0161  -28.8027   25.5324 C   0  0  0  0  0  0  0  0  0  0  0  0
  -19.3031  -29.4678   19.8190 C   0  0  0  0  0  0  0  0  0  0  0  0
  -25.3342  -26.6042   16.2625 C   0  0  0  0  0  0  0  0  0  1  0  0
  -23.0145  -28.5533   23.0165 C   0  0  1  0  0  0  0  0  0  0  0  0
  -19.3598  -28.3212   22.0373 C   0  0  2  0  0  0  0  0  0  0  0  0
  -25.1914  -25.9368   14.8923 C   0  0  2  0  0  0  0  0  0  0  0  0
  -23.5196  -27.9415   24.3537 C   0  0  0  0  0  0  0  0  0  0  0  0
  -25.2724  -12.3023   21.2043 N   0  0  0  0  0  0  0  0  0  0  0  0
  -25.7115  -13.4418   21.7655 N   0  0  0  0  0  0  0  0  0  0  0  0
  -24.3319  -30.1093   21.6140 N   0  0  0  0  0  0  0  0  0  0  0  0
  -26.9561  -16.1829   19.4047 N   0  0  0  0  0  0  0  0  0  0  0  0
  -26.1974  -18.3885   19.9349 N   0  0  0  0  0  0  0  0  0  0  0  0
  -25.5286  -14.7827   23.7094 N   0  0  0  0  0  0  0  0  0  0  0  0
  -22.7793  -11.3068   24.5788 N   0  0  0  0  0  0  0  0  0  0  0  0
  -26.7884  -31.9468   23.0136 N   0  0  0  0  0  0  0  0  0  0  0  0
  -21.5631  -28.6666   22.9219 N   0  0  0  0  0  0  0  0  0  0  0  0
  -18.7330  -28.4062   20.6879 N   0  3  0  0  0  0  0  0  0  0  0  0
  -23.6004  -13.2828   25.4033 O   0  0  0  0  0  0  0  0  0  0  0  0
  -27.1718  -30.3213   21.3909 O   0  0  0  0  0  0  0  0  0  0  0  0
  -23.3125  -30.8379   23.5803 O   0  0  0  0  0  0  0  0  0  0  0  0
  -21.3313  -27.3758   21.0095 O   0  0  0  0  0  0  0  0  0  0  0  0
  -28.4440  -17.9139   19.7289 O   0  0  0  0  0  0  0  0  0  0  0  0
  -21.7823   -6.9761   21.2193 O   0  0  0  0  0  0  0  0  0  0  0  0
  -26.1107  -27.7915   16.1710 O   0  0  0  0  0  0  0  0  0  1  0  0
  -21.6748   -3.3036   25.3308 F   0  0  0  0  0  0  0  0  0  0  0  0
  -22.8745   -4.4567   20.8995 F   0  0  0  0  0  0  0  0  0  0  0  0
  1  2  1  0  0  0  0
  1  5  2  0  0  0  0
  2  6  2  0  0  0  0
  3  8  2  0  0  0  0
  3 17  1  0  0  0  0
  4  9  1  0  0  0  0
  4 17  2  0  0  0  0
  5 19  1  0  0  0  0
  6 21  1  0  0  0  0
  7 10  2  0  0  0  0
  7 20  1  0  0  0  0
  8 27  1  0  0  0  0
  9 27  2  0  0  0  0
 10 28  1  0  0  0  0
 11 12  2  0  0  0  0
 11 29  1  0  0  0  0
 12 30  1  0  0  0  0
 13 22  2  0  0  0  0
 13 26  1  0  0  0  0
 14 23  1  0  0  0  0
 14 25  2  0  0  0  0
 15 24  1  0  0  0  0
 15 28  2  0  0  0  0
 16 30  2  0  0  0  0
 16 31  1  0  0  0  0
 17 32  1  0  0  0  0
 18 32  1  0  0  0  0
 18 33  2  0  0  0  0
 18 34  1  0  0  0  0
 19 21  2  0  0  0  0
 19 39  1  0  0  0  0
 20 24  2  0  0  0  0
 20 40  1  0  0  0  0
 21 56  1  0  0  0  0
 22 25  1  0  0  0  0
 22 55  1  0  0  0  0
 23 26  2  0  0  0  0
 23 59  1  0  0  0  0
 24 41  1  0  0  0  0
 25 60  1  0  0  0  0
 26 61  1  0  0  0  0
 27 88  1  0  0  0  0
 28 89  1  0  0  0  0
 29 31  2  0  0  0  0
 29 88  1  0  0  0  0
 30 90  1  0  0  0  0
 31 91  1  0  0  0  0
 32 73  2  0  0  0  0
 33 74  1  0  0  0  0
 33 78  1  0  0  0  0
 34 79  1  0  0  0  0
 34 83  2  0  0  0  0
 35 57  1  0  0  0  0
 35 80  1  0  0  0  0
 35 84  2  0  0  0  0
 36 69  1  0  0  0  0
 36 75  1  0  0  0  0
 36 85  2  0  0  0  0
 37 70  1  0  0  0  0
 37 81  1  0  0  0  0
 37 86  2  0  0  0  0
 38 76  1  0  0  0  0
 38 77  1  0  0  0  0
 38 87  2  0  0  0  0
 39 42  1  0  0  0  0
 40 57  1  0  0  0  0
 41 75  1  0  0  0  0
 42 45  1  0  0  0  0
 43 47  1  0  0  0  0
 43 48  1  0  0  0  0
 44 46  1  0  0  0  0
 44 51  1  0  0  0  0
 45 56  1  0  0  0  0
 46 58  1  0  0  0  0
 47 59  1  0  0  0  0
 48 59  1  0  0  0  0
 49 52  1  0  0  0  0
 49 55  1  0  0  0  0
 50 53  1  0  0  0  0
 50 55  1  0  0  0  0
 51 76  1  0  0  0  0
 52 77  1  0  0  0  0
 53 77  1  0  0  0  0
 54 58  1  0  0  0  0
 54 76  1  0  0  0  0
 56 80  1  0  0  0  0
 57 75  1  0  0  0  0
 58 74  1  0  0  0  0
 59 71  1  0  0  0  0
 62 70  1  0  0  0  0
 63 71  1  0  0  0  0
 64 72  1  0  0  0  0
 65 72  1  0  0  0  0
 66 72  1  0  0  0  0
 67 82  1  0  0  0  0
 68 71  1  0  0  0  0
 68 89  1  0  0  0  0
 69 72  1  0  0  0  0
 69 81  1  0  0  0  0
 70 82  1  0  0  0  0
 73 74  1  0  0  0  0
M  CHG  1  82   1
M  ISO  4  38 100  68 101  77 100  89 101
M  END
> <Batch ID>
0161

> <Smiles>
CNC(C)C(=O)NC(C(=O)N1Cc2cc([101O:1][101CH2:1]C(C)C3(c4cc(C)c(C5CC[100N:0]([100C:0](=O)N6CCCC(n7nc(-c8ccc(Oc9ccc(F)cc9F)cc8)c(C(N)=O)c7N)C6)CC5)cc4C)CCC3)ccc2CC1C(=O)NC1CCCc2ccccc21)C(C)(C)C

> <Shape>
0.244

> <Color>
0.081

> <Negative vol penalty>
0.000

$$$$
