
  -OEChem-04052322143D

 91100  0     1  0  0  0  0  0999 V2000
  -35.0645  -28.5378   20.1983 C   0  0  0  0  0  0  0  0  0  0  0  0
  -33.8631  -27.9184   19.8691 C   0  0  0  0  0  0  0  0  0  0  0  0
  -28.2261  -13.0734   22.5669 C   0  0  0  0  0  0  0  0  0  0  0  0
  -26.2388  -14.3042   21.9566 C   0  0  0  0  0  0  0  0  0  0  0  0
  -35.1739  -29.2566   21.3879 C   0  0  0  0  0  0  0  0  0  0  0  0
  -32.7706  -28.0166   20.7300 C   0  0  0  0  0  0  0  0  0  0  0  0
  -26.8608  -28.3390   19.1565 C   0  0  0  0  0  0  0  0  0  0  0  0
  -27.4389  -11.9776   22.9207 C   0  0  0  0  0  0  0  0  0  0  0  0
  -25.4515  -13.2084   22.3104 C   0  0  0  0  0  0  0  0  0  0  0  0
  -25.8518  -27.3786   19.0985 C   0  0  0  0  0  0  0  0  0  0  0  0
  -22.9433  -10.6074   22.7127 C   0  0  0  0  0  0  0  0  0  0  0  0
  -21.9184  -10.2363   21.8424 C   0  0  0  0  0  0  0  0  0  0  0  0
  -25.1133  -28.0300   21.3006 C   0  0  0  0  0  0  0  0  0  0  0  0
  -27.5292  -23.3399   17.6699 C   0  0  0  0  0  0  0  0  0  0  0  0
  -23.5404   -9.8660   20.0904 C   0  0  0  0  0  0  0  0  0  0  0  0
  -27.6261  -14.2367   22.0849 C   0  0  0  0  0  0  0  0  0  0  0  0
  -28.9962  -15.6434   20.4565 C   0  0  0  0  0  0  0  0  0  0  0  0
  -34.0793  -29.3717   22.2592 C   0  0  0  0  0  0  0  0  0  0  0  0
  -27.0106  -29.1461   20.2935 C   0  0  0  0  0  0  0  0  0  0  0  0
  -32.8658  -28.7365   21.9331 C   0  0  0  0  0  0  0  0  0  0  0  0
  -26.1234  -29.0016   21.3696 C   0  0  0  0  0  0  0  0  0  0  0  0
  -27.8692  -23.3813   20.4414 C   0  0  0  0  0  0  0  0  0  0  0  0
  -28.8105  -23.2972   18.2004 C   0  0  0  0  0  0  0  0  0  0  0  0
  -26.4192  -23.3990   18.5185 C   0  0  0  0  0  0  0  0  0  0  0  0
  -28.9809  -23.3167   19.5797 C   0  0  0  0  0  0  0  0  0  0  0  0
  -26.5516  -23.4145   19.9219 C   0  0  0  0  0  0  0  0  0  0  0  0
  -26.0516  -12.0451   22.7924 C   0  0  0  0  0  0  0  0  0  0  0  0
  -24.9797  -27.2220   20.1718 C   0  0  0  0  0  0  0  0  0  0  0  0
  -24.2667  -10.6080   22.2719 C   0  0  0  0  0  0  0  0  0  0  0  0
  -22.2170   -9.8655   20.5312 C   0  0  0  0  0  0  0  0  0  0  0  0
  -24.5652  -10.2372   20.9607 C   0  0  0  0  0  0  0  0  0  0  0  0
  -28.4387  -15.3691   21.7198 C   0  0  0  0  0  0  0  0  0  0  0  0
  -29.6741  -16.8253   20.6297 C   0  0  0  0  0  0  0  0  0  0  0  0
  -28.9091  -14.8965   19.2357 C   0  0  0  0  0  0  0  0  0  0  0  0
  -29.3057  -29.5804   22.4493 C   0  0  0  0  0  0  0  0  0  0  0  0
  -27.3403  -31.9402   23.4938 C   0  0  0  0  0  0  0  0  0  0  0  0
  -24.1759  -33.2043   23.6810 C   0  0  0  0  0  0  0  0  0  0  0  0
  -29.2598  -21.8361   23.4993 C   0  0  0  0  0  0  0  0  0  0  0  0
  -34.2596  -30.1196   23.5565 C   0  0  0  0  0  0  0  0  0  0  0  0
  -28.0874  -30.1957   20.3296 C   0  0  0  0  0  0  0  0  0  0  0  0
  -26.2291  -29.8569   22.6049 C   0  0  0  0  0  0  0  0  0  0  0  0
  -32.9429  -30.4894   24.2344 C   0  0  0  0  0  0  0  0  0  0  0  0
  -31.4918  -19.2605   24.5295 C   0  0  0  0  0  0  0  0  0  0  0  0
  -31.9974  -29.2925   24.2531 C   0  0  0  0  0  0  0  0  0  0  0  0
  -30.9838  -18.0199   23.7925 C   0  0  0  0  0  0  0  0  0  0  0  0
  -26.9197  -23.9655   22.6809 C   0  0  0  0  0  0  0  0  0  0  0  0
  -30.3429  -20.1641   24.9717 C   0  0  0  0  0  0  0  0  0  0  0  0
  -25.6237  -23.3190   22.2121 C   0  0  0  0  0  0  0  0  0  0  0  0
  -28.9056  -19.3152   23.1585 C   0  0  0  0  0  0  0  0  0  0  0  0
  -31.6509  -28.8409   22.8292 C   0  0  1  0  0  0  0  0  0  0  0  0
  -28.1185  -23.3872   21.9339 C   0  0  1  0  0  0  0  0  0  0  0  0
  -28.4688  -30.6119   21.7469 C   0  0  1  0  0  0  0  0  0  0  0  0
  -30.0307  -18.4012   22.6438 C   0  0  2  0  0  0  0  0  0  0  0  0
  -30.3770  -23.2693   20.1245 C   0  0  0  0  0  0  0  0  0  0  0  0
  -30.6849  -24.5768   17.1348 C   0  0  0  0  0  0  0  0  0  0  0  0
  -25.2860  -23.0873   16.3038 C   0  0  0  0  0  0  0  0  0  0  0  0
  -22.8765  -35.1288   24.6325 C   0  0  0  0  0  0  0  0  0  0  0  0
  -21.6980  -24.2302   20.5415 C   0  0  0  0  0  0  0  0  0  0  0  0
  -23.6676  -21.9666   20.1091 C   0  0  0  0  0  0  0  0  0  0  0  0
  -27.4973  -30.6730   26.2649 C   0  0  0  0  0  0  0  0  0  0  0  0
  -25.4918  -32.0217   26.9188 C   0  0  0  0  0  0  0  0  0  0  0  0
  -27.6030  -33.1716   26.2529 C   0  0  0  0  0  0  0  0  0  0  0  0
  -23.3184  -34.1040   20.9951 C   0  0  0  0  0  0  0  0  0  0  0  0
  -29.9781  -23.2316   17.2718 C   0  0  0  0  0  0  0  0  0  0  0  0
  -25.1179  -23.4381   17.7772 C   0  0  0  0  0  0  0  0  0  0  0  0
  -23.5815  -25.7048   21.3547 C   0  0  0  0  0  0  0  0  0  1  0  0
  -26.2052  -32.0255   24.4853 C   0  0  1  0  0  0  0  0  0  0  0  0
  -23.6309  -34.5976   23.4236 C   0  0  2  0  0  0  0  0  0  0  0  0
  -23.1202  -24.2575   21.1229 C   0  0  2  0  0  0  0  0  0  0  0  0
  -24.0883  -23.4280   20.2468 C   0  0  1  0  0  0  0  0  0  0  0  0
  -26.6983  -31.9554   25.9582 C   0  0  0  0  0  0  0  0  0  0  0  0
  -28.7367  -16.3017   22.6283 N   0  0  0  0  0  0  0  0  0  0  0  0
  -29.4888  -17.1735   21.9353 N   0  0  0  0  0  0  0  0  0  0  0  0
  -25.4463  -23.4842   20.7705 N   0  0  3  0  0  0  0  0  0  0  0  0
  -27.3022  -30.8648   22.5950 N   0  0  0  0  0  0  0  0  0  0  0  0
  -29.4775  -20.4898   23.8355 N   0  0  0  0  0  0  0  0  0  0  0  0
  -30.4046  -17.5904   19.7909 N   0  0  0  0  0  0  0  0  0  0  0  0
  -28.1724  -13.7042   19.2330 N   0  0  0  0  0  0  0  0  0  0  0  0
  -30.6648  -29.7244   22.2448 N   0  0  0  0  0  0  0  0  0  0  0  0
  -25.4687  -33.2419   24.1590 N   0  0  0  0  0  0  0  0  0  0  0  0
  -28.4319  -22.0567   22.4054 N   0  0  0  0  0  0  0  0  0  0  0  0
  -22.7014  -34.5831   22.2587 N   0  3  0  0  0  0  0  0  0  0  0  0
  -29.4816  -15.2669   18.1828 O   0  0  0  0  0  0  0  0  0  0  0  0
  -28.7591  -28.7188   23.1278 O   0  0  0  0  0  0  0  0  0  0  0  0
  -28.2244  -32.8003   23.5113 O   0  0  0  0  0  0  0  0  0  0  0  0
  -23.5190  -32.1848   23.4819 O   0  0  0  0  0  0  0  0  0  0  0  0
  -29.7702  -22.7721   24.1243 O   0  0  0  0  0  0  0  0  0  0  0  0
  -25.2831  -10.9760   23.1374 O   0  0  0  0  0  0  0  0  0  0  0  0
  -23.9944  -26.2848   20.1180 O   0  0  0  0  0  0  0  0  0  1  0  0
  -21.2328   -9.5076   19.6960 F   0  0  0  0  0  0  0  0  0  0  0  0
  -25.8348  -10.2347   20.5319 F   0  0  0  0  0  0  0  0  0  0  0  0
  1  2  1  0  0  0  0
  1  5  2  0  0  0  0
  2  6  2  0  0  0  0
  3  8  2  0  0  0  0
  3 16  1  0  0  0  0
  4  9  1  0  0  0  0
  4 16  2  0  0  0  0
  5 18  1  0  0  0  0
  6 20  1  0  0  0  0
  7 10  2  0  0  0  0
  7 19  1  0  0  0  0
  8 27  1  0  0  0  0
  9 27  2  0  0  0  0
 10 28  1  0  0  0  0
 11 12  2  0  0  0  0
 11 29  1  0  0  0  0
 12 30  1  0  0  0  0
 13 21  1  0  0  0  0
 13 28  2  0  0  0  0
 14 23  1  0  0  0  0
 14 24  2  0  0  0  0
 15 30  2  0  0  0  0
 15 31  1  0  0  0  0
 16 32  1  0  0  0  0
 17 32  1  0  0  0  0
 17 33  2  0  0  0  0
 17 34  1  0  0  0  0
 18 20  2  0  0  0  0
 18 39  1  0  0  0  0
 19 21  2  0  0  0  0
 19 40  1  0  0  0  0
 20 50  1  0  0  0  0
 21 41  1  0  0  0  0
 22 25  1  0  0  0  0
 22 26  2  0  0  0  0
 22 51  1  0  0  0  0
 23 25  2  0  0  0  0
 23 64  1  0  0  0  0
 24 26  1  0  0  0  0
 24 65  1  0  0  0  0
 25 54  1  0  0  0  0
 26 74  1  0  0  0  0
 27 88  1  0  0  0  0
 28 89  1  0  0  0  0
 29 31  2  0  0  0  0
 29 88  1  0  0  0  0
 30 90  1  0  0  0  0
 31 91  1  0  0  0  0
 32 72  2  0  0  0  0
 33 73  1  0  0  0  0
 33 77  1  0  0  0  0
 34 78  1  0  0  0  0
 34 83  2  0  0  0  0
 35 52  1  0  0  0  0
 35 79  1  0  0  0  0
 35 84  2  0  0  0  0
 36 67  1  0  0  0  0
 36 75  1  0  0  0  0
 36 85  2  0  0  0  0
 37 68  1  0  0  0  0
 37 80  1  0  0  0  0
 37 86  2  0  0  0  0
 38 76  1  0  0  0  0
 38 81  1  0  0  0  0
 38 87  2  0  0  0  0
 39 42  1  0  0  0  0
 40 52  1  0  0  0  0
 41 75  1  0  0  0  0
 42 44  1  0  0  0  0
 43 45  1  0  0  0  0
 43 47  1  0  0  0  0
 44 50  1  0  0  0  0
 45 53  1  0  0  0  0
 46 48  1  0  0  0  0
 46 51  1  0  0  0  0
 47 76  1  0  0  0  0
 48 74  1  0  0  0  0
 49 53  1  0  0  0  0
 49 76  1  0  0  0  0
 50 79  1  0  0  0  0
 51 81  1  0  0  0  0
 52 75  1  0  0  0  0
 53 73  1  0  0  0  0
 55 64  1  0  0  0  0
 56 65  1  0  0  0  0
 57 68  1  0  0  0  0
 58 69  1  0  0  0  0
 59 70  1  0  0  0  0
 60 71  1  0  0  0  0
 61 71  1  0  0  0  0
 62 71  1  0  0  0  0
 63 82  1  0  0  0  0
 66 69  1  0  0  0  0
 66 89  1  0  0  0  0
 67 71  1  0  0  0  0
 67 80  1  0  0  0  0
 68 82  1  0  0  0  0
 69 70  1  0  0  0  0
 70 74  1  0  0  0  0
 72 73  1  0  0  0  0
M  CHG  1  82   1
M  ISO  4  38 100  66 101  81 100  89 101
M  END
> <Batch ID>
0162

> <Smiles>
CCc1cc(CC)c2c(c1C)C([100NH:0][100C:0](=O)N1CCCC(n3nc(-c4ccc(Oc5ccc(F)cc5F)cc4)c(C(N)=O)c3N)C1)CCN2C(C)C(C)[101CH2:1][101O:1]c1ccc2c(c1)CN(C(=O)C(NC(=O)C(C)NC)C(C)(C)C)C(C(=O)NC1CCCc3ccccc31)C2

> <Shape>
0.215

> <Color>
0.077

> <Negative vol penalty>
0.000

$$$$

  -OEChem-04052322143D

 86 95  0     1  0  0  0  0  0999 V2000
  -27.5522  -24.6375   16.5057 C   0  0  0  0  0  0  0  0  0  0  0  0
  -26.3786  -24.9120   17.2005 C   0  0  0  0  0  0  0  0  0  0  0  0
  -20.9255  -12.4107   22.4532 C   0  0  0  0  0  0  0  0  0  0  0  0
  -22.5837  -11.4528   20.9801 C   0  0  0  0  0  0  0  0  0  0  0  0
  -28.7819  -25.0253   17.0361 C   0  0  0  0  0  0  0  0  0  0  0  0
  -26.4342  -25.5735   18.4268 C   0  0  0  0  0  0  0  0  0  0  0  0
  -22.9587  -29.2360   18.8176 C   0  0  0  0  0  0  0  0  0  0  0  0
  -20.2590  -11.1863   22.4991 C   0  0  0  0  0  0  0  0  0  0  0  0
  -21.9172  -10.2284   21.0261 C   0  0  0  0  0  0  0  0  0  0  0  0
  -21.6499  -28.8446   19.0961 C   0  0  0  0  0  0  0  0  0  0  0  0
  -20.8523   -6.7522   21.0438 C   0  0  0  0  0  0  0  0  0  0  0  0
  -21.6199   -5.6014   21.2230 C   0  0  0  0  0  0  0  0  0  0  0  0
  -21.9785  -29.4183   21.4161 C   0  0  0  0  0  0  0  0  0  0  0  0
  -22.4190   -6.4634   23.3339 C   0  0  0  0  0  0  0  0  0  0  0  0
  -18.7888  -26.5821   23.1373 C   0  0  0  0  0  0  0  0  0  0  0  0
  -22.0879  -12.5440   21.6936 C   0  0  0  0  0  0  0  0  0  0  0  0
  -23.7981  -14.2538   22.5055 C   0  0  0  0  0  0  0  0  0  0  0  0
  -28.8519  -25.7005   18.2649 C   0  0  0  0  0  0  0  0  0  0  0  0
  -23.7922  -29.7120   19.8399 C   0  0  0  0  0  0  0  0  0  0  0  0
  -27.6661  -25.9695   18.9748 C   0  0  0  0  0  0  0  0  0  0  0  0
  -23.2967  -29.8175   21.1474 C   0  0  0  0  0  0  0  0  0  0  0  0
  -20.3435  -24.3517   22.9055 C   0  0  0  0  0  0  0  0  0  0  0  0
  -18.9799  -26.0438   21.8750 C   0  0  0  0  0  0  0  0  0  0  0  0
  -19.7734  -24.9072   21.7655 C   0  0  0  0  0  0  0  0  0  0  0  0
  -20.7548  -10.0951   21.7856 C   0  0  0  0  0  0  0  0  0  0  0  0
  -21.1605  -28.9331   20.3961 C   0  0  0  0  0  0  0  0  0  0  0  0
  -20.8681   -7.7586   22.0095 C   0  0  0  0  0  0  0  0  0  0  0  0
  -22.4033   -5.4570   22.3681 C   0  0  0  0  0  0  0  0  0  0  0  0
  -21.6514   -7.6142   23.1545 C   0  0  0  0  0  0  0  0  0  0  0  0
  -22.7765  -13.8087   21.6453 C   0  0  0  0  0  0  0  0  0  0  0  0
  -20.0915  -24.9659   24.1217 C   0  0  0  0  0  0  0  0  0  0  0  0
  -24.1137  -15.5082   22.0436 C   0  0  0  0  0  0  0  0  0  0  0  0
  -24.4074  -13.5924   23.6222 C   0  0  0  0  0  0  0  0  0  0  0  0
  -26.5363  -28.7531   21.1261 C   0  0  0  0  0  0  0  0  0  0  0  0
  -26.3063  -31.5543   22.7456 C   0  0  0  0  0  0  0  0  0  0  0  0
  -24.3135  -34.0488   23.9510 C   0  0  0  0  0  0  0  0  0  0  0  0
  -22.7733  -20.4565   20.1098 C   0  0  0  0  0  0  0  0  0  0  0  0
  -30.2076  -26.0579   18.8207 C   0  0  0  0  0  0  0  0  0  0  0  0
  -25.1930  -30.1553   19.5181 C   0  0  0  0  0  0  0  0  0  0  0  0
  -24.1445  -30.3410   22.2769 C   0  0  0  0  0  0  0  0  0  0  0  0
  -30.1523  -27.0871   19.9467 C   0  0  0  0  0  0  0  0  0  0  0  0
  -22.7882  -17.8918   17.7924 C   0  0  0  0  0  0  0  0  0  0  0  0
  -29.0683  -26.7180   20.9545 C   0  0  0  0  0  0  0  0  0  0  0  0
  -22.8718  -16.6286   18.6489 C   0  0  0  0  0  0  0  0  0  0  0  0
  -20.4308  -21.8945   22.2921 C   0  0  0  0  0  0  0  0  0  0  0  0
  -22.4780  -23.3500   21.9764 C   0  0  0  0  0  0  0  0  0  0  0  0
  -21.8411  -18.9113   18.4146 C   0  0  0  0  0  0  0  0  0  0  0  0
  -21.3218  -20.6543   22.1774 C   0  0  0  0  0  0  0  0  0  0  0  0
  -23.3214  -22.0809   21.8958 C   0  0  0  0  0  0  0  0  0  0  0  0
  -22.2842  -18.0356   20.6850 C   0  0  0  0  0  0  0  0  0  0  0  0
  -21.2124  -23.1111   22.8197 C   0  0  0  0  0  0  0  0  0  0  0  0
  -27.6835  -26.7072   20.2960 C   0  0  1  0  0  0  0  0  0  0  0  0
  -26.1178  -30.1412   20.7314 C   0  0  1  0  0  0  0  0  0  0  0  0
  -23.2366  -16.9705   20.1044 C   0  0  1  0  0  0  0  0  0  0  0  0
  -20.0112  -24.2868   20.4260 C   0  0  0  0  0  0  0  0  0  0  0  0
  -20.6774  -24.4154   25.3807 C   0  0  0  0  0  0  0  0  0  0  0  0
  -24.4081  -36.1835   25.2668 C   0  0  0  0  0  0  0  0  0  0  0  0
  -26.6476  -29.9503   25.3187 C   0  0  0  0  0  0  0  0  0  0  0  0
  -25.7968  -31.9347   26.5862 C   0  0  0  0  0  0  0  0  0  0  0  0
  -27.9037  -32.1121   25.2626 C   0  0  0  0  0  0  0  0  0  0  0  0
  -23.2403  -35.6266   21.6888 C   0  0  0  0  0  0  0  0  0  0  0  0
  -18.3442  -26.6818   20.6884 C   0  0  0  0  0  0  0  0  0  0  0  0
  -19.3249  -27.5190   19.8605 C   0  0  0  0  0  0  0  0  0  1  0  0
  -25.6872  -31.9855   24.0531 C   0  0  1  0  0  0  0  0  0  0  0  0
  -24.4374  -35.5601   23.8800 C   0  0  2  0  0  0  0  0  0  0  0  0
  -26.4932  -31.4840   25.2844 C   0  0  0  0  0  0  0  0  0  0  0  0
  -19.3261  -26.0707   24.2675 N   0  0  0  0  0  0  0  0  0  0  0  0
  -22.4637  -14.7074   20.7080 N   0  0  0  0  0  0  0  0  0  0  0  0
  -23.2936  -15.7298   20.9766 N   0  0  0  0  0  0  0  0  0  0  0  0
  -25.5094  -30.7559   21.9130 N   0  0  0  0  0  0  0  0  0  0  0  0
  -22.2184  -19.2065   19.7967 N   0  0  0  0  0  0  0  0  0  0  0  0
  -22.5316  -20.9545   21.3990 N   0  0  0  0  0  0  0  0  0  0  0  0
  -25.0098  -16.4324   22.4502 N   0  0  0  0  0  0  0  0  0  0  0  0
  -23.9641  -12.3066   23.9604 N   0  0  0  0  0  0  0  0  0  0  0  0
  -27.1930  -28.0584   20.1283 N   0  0  0  0  0  0  0  0  0  0  0  0
  -25.5484  -33.4360   23.9803 N   0  0  0  0  0  0  0  0  0  0  0  0
  -23.3171  -36.1347   23.0826 N   0  3  0  0  0  0  0  0  0  0  0  0
  -25.3067  -14.1325   24.3101 O   0  0  0  0  0  0  0  0  0  0  0  0
  -26.2835  -28.3433   22.2529 O   0  0  0  0  0  0  0  0  0  0  0  0
  -27.4522  -31.9185   22.4698 O   0  0  0  0  0  0  0  0  0  0  0  0
  -23.2298  -33.4700   23.9814 O   0  0  0  0  0  0  0  0  0  0  0  0
  -23.4458  -21.0904   19.2870 O   0  0  0  0  0  0  0  0  0  0  0  0
  -20.1048   -8.9001   21.8304 O   0  0  0  0  0  0  0  0  0  0  0  0
  -19.8747  -28.5485   20.6727 O   0  0  0  0  0  0  0  0  0  1  0  0
  -23.1392   -4.3512   22.5408 F   0  0  0  0  0  0  0  0  0  0  0  0
  -21.6698   -8.5771   24.0864 F   0  0  0  0  0  0  0  0  0  0  0  0
  1  2  1  0  0  0  0
  1  5  2  0  0  0  0
  2  6  2  0  0  0  0
  3  8  2  0  0  0  0
  3 16  1  0  0  0  0
  4  9  1  0  0  0  0
  4 16  2  0  0  0  0
  5 18  1  0  0  0  0
  6 20  1  0  0  0  0
  7 10  2  0  0  0  0
  7 19  1  0  0  0  0
  8 25  1  0  0  0  0
  9 25  2  0  0  0  0
 10 26  1  0  0  0  0
 11 12  2  0  0  0  0
 11 27  1  0  0  0  0
 12 28  1  0  0  0  0
 13 21  1  0  0  0  0
 13 26  2  0  0  0  0
 14 28  2  0  0  0  0
 14 29  1  0  0  0  0
 15 23  1  0  0  0  0
 15 67  2  0  0  0  0
 16 30  1  0  0  0  0
 17 30  1  0  0  0  0
 17 32  2  0  0  0  0
 17 33  1  0  0  0  0
 18 20  2  0  0  0  0
 18 38  1  0  0  0  0
 19 21  2  0  0  0  0
 19 39  1  0  0  0  0
 20 52  1  0  0  0  0
 21 40  1  0  0  0  0
 22 24  1  0  0  0  0
 22 31  2  0  0  0  0
 22 51  1  0  0  0  0
 23 24  2  0  0  0  0
 23 62  1  0  0  0  0
 24 55  1  0  0  0  0
 25 83  1  0  0  0  0
 26 84  1  0  0  0  0
 27 29  2  0  0  0  0
 27 83  1  0  0  0  0
 28 85  1  0  0  0  0
 29 86  1  0  0  0  0
 30 68  2  0  0  0  0
 31 56  1  0  0  0  0
 31 67  1  0  0  0  0
 32 69  1  0  0  0  0
 32 73  1  0  0  0  0
 33 74  1  0  0  0  0
 33 78  2  0  0  0  0
 34 53  1  0  0  0  0
 34 75  1  0  0  0  0
 34 79  2  0  0  0  0
 35 64  1  0  0  0  0
 35 70  1  0  0  0  0
 35 80  2  0  0  0  0
 36 65  1  0  0  0  0
 36 76  1  0  0  0  0
 36 81  2  0  0  0  0
 37 71  1  0  0  0  0
 37 72  1  0  0  0  0
 37 82  2  0  0  0  0
 38 41  1  0  0  0  0
 39 53  1  0  0  0  0
 40 70  1  0  0  0  0
 41 43  1  0  0  0  0
 42 44  1  0  0  0  0
 42 47  1  0  0  0  0
 43 52  1  0  0  0  0
 44 54  1  0  0  0  0
 45 48  1  0  0  0  0
 45 51  1  0  0  0  0
 46 49  1  0  0  0  0
 46 51  1  0  0  0  0
 47 71  1  0  0  0  0
 48 72  1  0  0  0  0
 49 72  1  0  0  0  0
 50 54  1  0  0  0  0
 50 71  1  0  0  0  0
 52 75  1  0  0  0  0
 53 70  1  0  0  0  0
 54 69  1  0  0  0  0
 57 65  1  0  0  0  0
 58 66  1  0  0  0  0
 59 66  1  0  0  0  0
 60 66  1  0  0  0  0
 61 77  1  0  0  0  0
 62 63  1  0  0  0  0
 63 84  1  0  0  0  0
 64 66  1  0  0  0  0
 64 76  1  0  0  0  0
 65 77  1  0  0  0  0
 68 69  1  0  0  0  0
M  CHG  1  77   1
M  ISO  4  37 100  63 101  72 100  84 101
M  END
> <Batch ID>
0162

> <Smiles>
CNC(C)C(=O)NC(C(=O)N1Cc2cc([101O:1][101CH2:1]Cc3cnc(C)c(C4CC[100N:0]([100C:0](=O)N5CCCC(n6nc(-c7ccc(Oc8ccc(F)cc8F)cc7)c(C(N)=O)c6N)C5)CC4)c3C)ccc2CC1C(=O)NC1CCCc2ccccc21)C(C)(C)C

> <Shape>
0.266

> <Color>
0.075

> <Negative vol penalty>
0.000

$$$$

  -OEChem-04052322143D

 86 95  0     1  0  0  0  0  0999 V2000
  -28.7677  -33.7271   26.3685 C   0  0  0  0  0  0  0  0  0  0  0  0
  -28.6283  -32.4792   25.7696 C   0  0  0  0  0  0  0  0  0  0  0  0
  -24.3399   -9.0855   21.8856 C   0  0  0  0  0  0  0  0  0  0  0  0
  -24.2868   -8.2544   19.6177 C   0  0  0  0  0  0  0  0  0  0  0  0
  -27.6485  -34.5361   26.5599 C   0  0  0  0  0  0  0  0  0  0  0  0
  -27.3692  -32.0392   25.3626 C   0  0  0  0  0  0  0  0  0  0  0  0
  -27.4376  -29.9548   20.7479 C   0  0  0  0  0  0  0  0  0  0  0  0
  -29.6873  -24.2214   19.0641 C   0  0  0  0  0  0  0  0  0  0  0  0
  -23.2109   -8.3254   22.1906 C   0  0  0  0  0  0  0  0  0  0  0  0
  -23.1577   -7.4943   19.9227 C   0  0  0  0  0  0  0  0  0  0  0  0
  -27.9186  -28.6502   20.6456 C   0  0  0  0  0  0  0  0  0  0  0  0
  -29.9973  -22.8717   18.8977 C   0  0  0  0  0  0  0  0  0  0  0  0
  -20.5566   -6.3253   23.6635 C   0  0  0  0  0  0  0  0  0  0  0  0
  -20.5626   -5.6058   24.8585 C   0  0  0  0  0  0  0  0  0  0  0  0
  -25.6523  -27.8261   20.5799 C   0  0  0  0  0  0  0  0  0  0  0  0
  -22.5056   -4.3799   24.1105 C   0  0  0  0  0  0  0  0  0  0  0  0
  -24.8779   -9.0501   20.5991 C   0  0  0  0  0  0  0  0  0  0  0  0
  -27.3905   -9.4411   20.3960 C   0  0  0  0  0  0  0  0  0  0  0  0
  -26.3765  -34.1099   26.1464 C   0  0  0  0  0  0  0  0  0  0  0  0
  -26.0580  -30.2044   20.7781 C   0  0  0  0  0  0  0  0  0  0  0  0
  -26.2317  -32.8427   25.5499 C   0  0  0  0  0  0  0  0  0  0  0  0
  -25.1564  -29.1350   20.6801 C   0  0  0  0  0  0  0  0  0  0  0  0
  -29.2326  -24.6856   20.2984 C   0  0  0  0  0  0  0  0  0  0  0  0
  -29.0879  -23.8000   21.3663 C   0  0  0  0  0  0  0  0  0  0  0  0
  -29.3980  -22.4502   21.2000 C   0  0  0  0  0  0  0  0  0  0  0  0
  -22.6198   -7.5298   21.2092 C   0  0  0  0  0  0  0  0  0  0  0  0
  -27.0260  -27.5854   20.5645 C   0  0  0  0  0  0  0  0  0  0  0  0
  -29.8526  -21.9861   19.9656 C   0  0  0  0  0  0  0  0  0  0  0  0
  -21.5250   -6.0720   22.6920 C   0  0  0  0  0  0  0  0  0  0  0  0
  -21.5371   -4.6331   25.0820 C   0  0  0  0  0  0  0  0  0  0  0  0
  -22.4995   -5.0994   22.9156 C   0  0  0  0  0  0  0  0  0  0  0  0
  -26.0438   -9.8355   20.2833 C   0  0  0  0  0  0  0  0  0  0  0  0
  -28.1053  -10.5366   19.9770 C   0  0  0  0  0  0  0  0  0  0  0  0
  -27.9457   -8.1960   20.8398 C   0  0  0  0  0  0  0  0  0  0  0  0
  -24.0569  -31.4920   22.8855 C   0  0  0  0  0  0  0  0  0  0  0  0
  -21.9156  -31.1555   20.4723 C   0  0  0  0  0  0  0  0  0  0  0  0
  -21.0102  -29.5380   17.6068 C   0  0  0  0  0  0  0  0  0  0  0  0
  -29.1598  -15.7985   19.8611 C   0  0  0  0  0  0  0  0  0  0  0  0
  -25.1892  -34.9995   26.4173 C   0  0  0  0  0  0  0  0  0  0  0  0
  -25.5551  -31.6195   20.8619 C   0  0  0  0  0  0  0  0  0  0  0  0
  -23.6658  -29.3512   20.6878 C   0  0  0  0  0  0  0  0  0  0  0  0
  -23.9463  -34.6167   25.6179 C   0  0  0  0  0  0  0  0  0  0  0  0
  -26.6057  -14.7782   17.6799 C   0  0  0  0  0  0  0  0  0  0  0  0
  -23.7107  -33.1111   25.6857 C   0  0  0  0  0  0  0  0  0  0  0  0
  -26.3349  -13.3571   18.1735 C   0  0  0  0  0  0  0  0  0  0  0  0
  -30.2970  -18.8830   18.1464 C   0  0  0  0  0  0  0  0  0  0  0  0
  -28.1478  -19.3759   19.3905 C   0  0  0  0  0  0  0  0  0  0  0  0
  -26.8431  -15.7509   18.8363 C   0  0  0  0  0  0  0  0  0  0  0  0
  -30.5313  -17.6913   19.0735 C   0  0  0  0  0  0  0  0  0  0  0  0
  -28.4331  -18.1760   20.2908 C   0  0  0  0  0  0  0  0  0  0  0  0
  -27.6271  -13.8966   20.2728 C   0  0  0  0  0  0  0  0  0  0  0  0
  -24.8863  -32.3407   25.0725 C   0  0  1  0  0  0  0  0  0  0  0  0
  -24.1316  -31.7167   21.4018 C   0  0  1  0  0  0  0  0  0  0  0  0
  -27.4428  -12.8843   19.1314 C   0  0  1  0  0  0  0  0  0  0  0  0
  -29.4233  -19.9637   18.7843 C   0  0  0  0  0  0  0  0  0  0  0  0
  -28.6009  -24.3001   22.6895 C   0  0  0  0  0  0  0  0  0  0  0  0
  -29.2453  -21.4945   22.3402 C   0  0  0  0  0  0  0  0  0  0  0  0
  -19.1889  -29.4560   15.8825 C   0  0  0  0  0  0  0  0  0  0  0  0
  -20.1272  -29.6538   22.4362 C   0  0  0  0  0  0  0  0  0  0  0  0
  -18.8193  -28.7959   20.4813 C   0  0  0  0  0  0  0  0  0  0  0  0
  -18.9194  -31.2470   20.9338 C   0  0  0  0  0  0  0  0  0  0  0  0
  -22.8767  -30.2765   15.4320 C   0  0  0  0  0  0  0  0  0  0  0  0
  -28.9079  -26.1358   20.4496 C   0  0  0  0  0  0  0  0  0  1  0  0
  -20.9656  -30.0689   20.0298 C   0  0  1  0  0  0  0  0  0  0  0  0
  -20.5316  -30.0596   16.2640 C   0  0  2  0  0  0  0  0  0  0  0  0
  -19.7359  -29.9368   20.9720 C   0  0  0  0  0  0  0  0  0  0  0  0
  -25.9085  -11.0840   19.8284 N   0  0  0  0  0  0  0  0  0  0  0  0
  -27.1794  -11.4837   19.6517 N   0  0  0  0  0  0  0  0  0  0  0  0
  -23.2233  -30.7525   20.7777 N   0  0  0  0  0  0  0  0  0  0  0  0
  -27.8789  -15.2384   19.7432 N   0  0  0  0  0  0  0  0  0  0  0  0
  -29.2748  -17.1776   19.6177 N   0  0  0  0  0  0  0  0  0  0  0  0
  -29.4293  -10.7724   19.8587 N   0  0  0  0  0  0  0  0  0  0  0  0
  -27.0689   -7.1764   21.2347 N   0  0  0  0  0  0  0  0  0  0  0  0
  -24.8157  -32.3771   23.6275 N   0  0  0  0  0  0  0  0  0  0  0  0
  -20.6260  -30.3639   18.6420 N   0  0  0  0  0  0  0  0  0  0  0  0
  -21.5172  -29.7254   15.1973 N   0  3  0  0  0  0  0  0  0  0  0  0
  -29.1831   -7.9991   20.9003 O   0  0  0  0  0  0  0  0  0  0  0  0
  -23.3612  -30.5839   23.3249 O   0  0  0  0  0  0  0  0  0  0  0  0
  -21.5141  -32.3200   20.5376 O   0  0  0  0  0  0  0  0  0  0  0  0
  -21.6569  -28.4997   17.7260 O   0  0  0  0  0  0  0  0  0  0  0  0
  -30.1431  -15.1101   20.1618 O   0  0  0  0  0  0  0  0  0  0  0  0
  -21.5182   -6.7878   21.5065 O   0  0  0  0  0  0  0  0  0  0  0  0
  -30.1621  -20.6640   19.7828 O   0  0  0  0  0  0  0  0  0  0  0  0
  -27.4962  -26.3019   20.4645 O   0  0  0  0  0  0  0  0  0  1  0  0
  -21.5437   -3.9433   26.2302 F   0  0  0  0  0  0  0  0  0  0  0  0
  -23.4331   -4.8525   21.9865 F   0  0  0  0  0  0  0  0  0  0  0  0
  1  2  1  0  0  0  0
  1  5  2  0  0  0  0
  2  6  2  0  0  0  0
  3  9  2  0  0  0  0
  3 17  1  0  0  0  0
  4 10  1  0  0  0  0
  4 17  2  0  0  0  0
  5 19  1  0  0  0  0
  6 21  1  0  0  0  0
  7 11  2  0  0  0  0
  7 20  1  0  0  0  0
  8 12  2  0  0  0  0
  8 23  1  0  0  0  0
  9 26  1  0  0  0  0
 10 26  2  0  0  0  0
 11 27  1  0  0  0  0
 12 28  1  0  0  0  0
 13 14  2  0  0  0  0
 13 29  1  0  0  0  0
 14 30  1  0  0  0  0
 15 22  1  0  0  0  0
 15 27  2  0  0  0  0
 16 30  2  0  0  0  0
 16 31  1  0  0  0  0
 17 32  1  0  0  0  0
 18 32  1  0  0  0  0
 18 33  2  0  0  0  0
 18 34  1  0  0  0  0
 19 21  2  0  0  0  0
 19 39  1  0  0  0  0
 20 22  2  0  0  0  0
 20 40  1  0  0  0  0
 21 52  1  0  0  0  0
 22 41  1  0  0  0  0
 23 24  2  0  0  0  0
 23 63  1  0  0  0  0
 24 25  1  0  0  0  0
 24 56  1  0  0  0  0
 25 28  2  0  0  0  0
 25 57  1  0  0  0  0
 26 82  1  0  0  0  0
 27 84  1  0  0  0  0
 28 83  1  0  0  0  0
 29 31  2  0  0  0  0
 29 82  1  0  0  0  0
 30 85  1  0  0  0  0
 31 86  1  0  0  0  0
 32 67  2  0  0  0  0
 33 68  1  0  0  0  0
 33 72  1  0  0  0  0
 34 73  1  0  0  0  0
 34 77  2  0  0  0  0
 35 53  1  0  0  0  0
 35 74  1  0  0  0  0
 35 78  2  0  0  0  0
 36 64  1  0  0  0  0
 36 69  1  0  0  0  0
 36 79  2  0  0  0  0
 37 65  1  0  0  0  0
 37 75  1  0  0  0  0
 37 80  2  0  0  0  0
 38 70  1  0  0  0  0
 38 71  1  0  0  0  0
 38 81  2  0  0  0  0
 39 42  1  0  0  0  0
 40 53  1  0  0  0  0
 41 69  1  0  0  0  0
 42 44  1  0  0  0  0
 43 45  1  0  0  0  0
 43 48  1  0  0  0  0
 44 52  1  0  0  0  0
 45 54  1  0  0  0  0
 46 49  1  0  0  0  0
 46 55  1  0  0  0  0
 47 50  1  0  0  0  0
 47 55  1  0  0  0  0
 48 70  1  0  0  0  0
 49 71  1  0  0  0  0
 50 71  1  0  0  0  0
 51 54  1  0  0  0  0
 51 70  1  0  0  0  0
 52 74  1  0  0  0  0
 53 69  1  0  0  0  0
 54 68  1  0  0  0  0
 55 83  1  0  0  0  0
 58 65  1  0  0  0  0
 59 66  1  0  0  0  0
 60 66  1  0  0  0  0
 61 66  1  0  0  0  0
 62 76  1  0  0  0  0
 63 84  1  0  0  0  0
 64 66  1  0  0  0  0
 64 75  1  0  0  0  0
 65 76  1  0  0  0  0
 67 68  1  0  0  0  0
M  CHG  1  76   1
M  ISO  4  38 100  63 101  71 100  84 101
M  END
> <Batch ID>
0162

> <Smiles>
CNC(C)C(=O)NC(C(=O)N1Cc2cc([101O:1][101CH2:1]c3ccc(OC4CC[100N:0]([100C:0](=O)N5CCCC(n6nc(-c7ccc(Oc8ccc(F)cc8F)cc7)c(C(N)=O)c6N)C5)CC4)c(C)c3C)ccc2CC1C(=O)NC1CCCc2ccccc21)C(C)(C)C

> <Shape>
0.312

> <Color>
0.095

> <Negative vol penalty>
0.000

$$$$

  -OEChem-04052322143D

 87 96  0     1  0  0  0  0  0999 V2000
  -20.1535  -30.9542   24.7418 C   0  0  0  0  0  0  0  0  0  0  0  0
  -21.2247  -30.2228   25.2450 C   0  0  0  0  0  0  0  0  0  0  0  0
  -23.3321   -9.6410   19.9512 C   0  0  0  0  0  0  0  0  0  0  0  0
  -23.8186   -9.9208   22.3011 C   0  0  0  0  0  0  0  0  0  0  0  0
  -19.3395  -30.4050   23.7521 C   0  0  0  0  0  0  0  0  0  0  0  0
  -21.4817  -28.9412   24.7594 C   0  0  0  0  0  0  0  0  0  0  0  0
  -31.7806  -18.3981   23.7071 C   0  0  0  0  0  0  0  0  0  0  0  0
  -29.4809  -19.0899   23.9711 C   0  0  0  0  0  0  0  0  0  0  0  0
  -26.9650  -26.3170   24.0159 C   0  0  0  0  0  0  0  0  0  0  0  0
  -31.3764  -17.3867   22.8358 C   0  0  0  0  0  0  0  0  0  0  0  0
  -29.0766  -18.0784   23.0998 C   0  0  0  0  0  0  0  0  0  0  0  0
  -22.6610   -8.4508   20.2319 C   0  0  0  0  0  0  0  0  0  0  0  0
  -23.1474   -8.7307   22.5818 C   0  0  0  0  0  0  0  0  0  0  0  0
  -27.6885  -25.4182   24.7985 C   0  0  0  0  0  0  0  0  0  0  0  0
  -23.4649   -5.2380   20.9072 C   0  0  0  0  0  0  0  0  0  0  0  0
  -23.7237   -4.1400   20.0869 C   0  0  0  0  0  0  0  0  0  0  0  0
  -26.8364  -23.5898   23.4755 C   0  0  0  0  0  0  0  0  0  0  0  0
  -21.3903   -4.0536   19.4664 C   0  0  0  0  0  0  0  0  0  0  0  0
  -23.9110  -10.3759   20.9859 C   0  0  0  0  0  0  0  0  0  0  0  0
  -24.0570  -12.9013   20.6558 C   0  0  0  0  0  0  0  0  0  0  0  0
  -30.8329  -19.2497   24.2748 C   0  0  0  0  0  0  0  0  0  0  0  0
  -19.5924  -29.1198   23.2473 C   0  0  0  0  0  0  0  0  0  0  0  0
  -26.1618  -25.8572   22.9624 C   0  0  0  0  0  0  0  0  0  0  0  0
  -20.6694  -28.3737   23.7630 C   0  0  0  0  0  0  0  0  0  0  0  0
  -26.1057  -24.4850   22.6795 C   0  0  0  0  0  0  0  0  0  0  0  0
  -30.0244  -17.2268   22.5322 C   0  0  0  0  0  0  0  0  0  0  0  0
  -22.5686   -7.9957   21.5471 C   0  0  0  0  0  0  0  0  0  0  0  0
  -27.6221  -24.0541   24.5302 C   0  0  0  0  0  0  0  0  0  0  0  0
  -22.1688   -5.7438   21.0072 C   0  0  0  0  0  0  0  0  0  0  0  0
  -22.6865   -3.5478   19.3665 C   0  0  0  0  0  0  0  0  0  0  0  0
  -21.1315   -5.1516   20.2868 C   0  0  0  0  0  0  0  0  0  0  0  0
  -24.6048  -11.6051   20.6965 C   0  0  0  0  0  0  0  0  0  0  0  0
  -25.1190  -13.7131   20.3401 C   0  0  0  0  0  0  0  0  0  0  0  0
  -22.7087  -13.3329   20.8830 C   0  0  0  0  0  0  0  0  0  0  0  0
  -23.0544  -25.9597   22.3010 C   0  0  0  0  0  0  0  0  0  0  0  0
  -30.7960  -19.0509   27.3376 C   0  0  0  0  0  0  0  0  0  0  0  0
  -24.0078  -24.6594   19.4863 C   0  0  0  0  0  0  0  0  0  0  0  0
  -26.3441  -22.8576   17.7711 C   0  0  0  0  0  0  0  0  0  0  0  0
  -30.4245  -15.2694   20.9977 C   0  0  0  0  0  0  0  0  0  0  0  0
  -18.6564  -28.5496   22.2112 C   0  0  0  0  0  0  0  0  0  0  0  0
  -25.4084  -26.8419   22.1108 C   0  0  0  0  0  0  0  0  0  0  0  0
  -25.2741  -23.9421   21.5471 C   0  0  0  0  0  0  0  0  0  0  0  0
  -19.2216  -27.3323   21.4839 C   0  0  0  0  0  0  0  0  0  0  0  0
  -29.7923  -12.5631   18.7720 C   0  0  0  0  0  0  0  0  0  0  0  0
  -19.8298  -26.3501   22.4800 C   0  0  0  0  0  0  0  0  0  0  0  0
  -28.3413  -12.1792   19.0709 C   0  0  0  0  0  0  0  0  0  0  0  0
  -30.5406  -12.9807   20.0367 C   0  0  0  0  0  0  0  0  0  0  0  0
  -29.9432  -21.3869   26.9356 C   0  0  0  0  0  0  0  0  0  0  0  0
  -28.4339  -13.6457   21.1272 C   0  0  0  0  0  0  0  0  0  0  0  0
  -31.2660  -20.3331   25.2080 C   0  0  1  0  0  0  0  0  0  0  0  0
  -20.9953  -26.9900   23.2441 C   0  0  1  0  0  0  0  0  0  0  0  0
  -24.2187  -26.2187   21.3873 C   0  0  1  0  0  0  0  0  0  0  0  0
  -30.4985  -22.4753   26.0206 C   0  0  1  0  0  0  0  0  0  0  0  0
  -30.7679  -21.7114   24.7126 C   0  0  1  0  0  0  0  0  0  0  0  0
  -27.6212  -13.2800   19.8744 C   0  0  2  0  0  0  0  0  0  0  0  0
  -30.1102  -19.1113   28.6794 C   0  0  0  0  0  0  0  0  0  0  0  0
  -31.7764  -22.4100   23.8086 C   0  0  0  0  0  0  0  0  0  0  0  0
  -26.8288  -21.9237   15.4929 C   0  0  0  0  0  0  0  0  0  0  0  0
  -21.9711  -22.4386   19.9660 C   0  0  0  0  0  0  0  0  0  0  0  0
  -23.1386  -21.0847   18.2132 C   0  0  0  0  0  0  0  0  0  0  0  0
  -22.0813  -23.2612   17.6068 C   0  0  0  0  0  0  0  0  0  0  0  0
  -28.8220  -24.4556   17.5159 C   0  0  0  0  0  0  0  0  0  0  0  0
  -29.5480  -23.6429   25.8634 C   0  0  0  0  0  0  0  0  0  1  0  0
  -24.2096  -23.2547   18.9715 C   0  0  1  0  0  0  0  0  0  0  0  0
  -27.0228  -23.1014   16.4353 C   0  0  2  0  0  0  0  0  0  0  0  0
  -22.8644  -22.5196   18.7120 C   0  0  0  0  0  0  0  0  0  0  0  0
  -25.9132  -11.5896   20.4280 N   0  0  0  0  0  0  0  0  0  0  0  0
  -26.1963  -12.8861   20.2155 N   0  0  0  0  0  0  0  0  0  0  0  0
  -24.5508  -24.9443   20.7471 N   0  0  0  0  0  0  0  0  0  0  0  0
  -30.6745  -20.1849   26.5473 N   0  0  0  0  0  0  0  0  0  0  0  0
  -29.8016  -14.0292   20.7434 N   0  0  0  0  0  0  0  0  0  0  0  0
  -25.2270  -15.0466   20.1597 N   0  0  0  0  0  0  0  0  0  0  0  0
  -21.7423  -12.3677   21.1972 N   0  0  0  0  0  0  0  0  0  0  0  0
  -29.6135  -16.1996   21.6469 N   0  0  0  0  0  0  0  0  0  0  0  0
  -22.1827  -27.0255   22.4176 N   0  0  0  0  0  0  0  0  0  0  0  0
  -25.0642  -23.3701   17.7947 N   0  0  0  0  0  0  0  0  0  0  0  0
  -28.4853  -23.3128   16.6284 N   0  3  0  0  0  0  0  0  0  0  0  0
  -22.3677  -14.5367   20.7934 O   0  0  0  0  0  0  0  0  0  0  0  0
  -22.9535  -24.8728   22.8579 O   0  0  0  0  0  0  0  0  0  0  0  0
  -31.4148  -18.0383   27.0048 O   0  0  0  0  0  0  0  0  0  0  0  0
  -23.3971  -25.4760   18.7920 O   0  0  0  0  0  0  0  0  0  0  0  0
  -26.8929  -22.2680   18.6994 O   0  0  0  0  0  0  0  0  0  0  0  0
  -31.5825  -15.4994   20.6398 O   0  0  0  0  0  0  0  0  0  0  0  0
  -21.9136   -6.8345   21.8214 O   0  0  0  0  0  0  0  0  0  0  0  0
  -28.3268  -23.1745   25.2928 O   0  0  0  0  0  0  0  0  0  1  0  0
  -22.9354   -2.4943   18.5777 F   0  0  0  0  0  0  0  0  0  0  0  0
  -19.8845   -5.6338   20.3778 F   0  0  0  0  0  0  0  0  0  0  0  0
  1  2  1  0  0  0  0
  1  5  2  0  0  0  0
  2  6  2  0  0  0  0
  3 12  2  0  0  0  0
  3 19  1  0  0  0  0
  4 13  1  0  0  0  0
  4 19  2  0  0  0  0
  5 22  1  0  0  0  0
  6 24  1  0  0  0  0
  7 10  2  0  0  0  0
  7 21  1  0  0  0  0
  8 11  1  0  0  0  0
  8 21  2  0  0  0  0
  9 14  2  0  0  0  0
  9 23  1  0  0  0  0
 10 26  1  0  0  0  0
 11 26  2  0  0  0  0
 12 27  1  0  0  0  0
 13 27  2  0  0  0  0
 14 28  1  0  0  0  0
 15 16  2  0  0  0  0
 15 29  1  0  0  0  0
 16 30  1  0  0  0  0
 17 25  1  0  0  0  0
 17 28  2  0  0  0  0
 18 30  2  0  0  0  0
 18 31  1  0  0  0  0
 19 32  1  0  0  0  0
 20 32  1  0  0  0  0
 20 33  2  0  0  0  0
 20 34  1  0  0  0  0
 21 50  1  0  0  0  0
 22 24  2  0  0  0  0
 22 40  1  0  0  0  0
 23 25  2  0  0  0  0
 23 41  1  0  0  0  0
 24 51  1  0  0  0  0
 25 42  1  0  0  0  0
 26 74  1  0  0  0  0
 27 84  1  0  0  0  0
 28 85  1  0  0  0  0
 29 31  2  0  0  0  0
 29 84  1  0  0  0  0
 30 86  1  0  0  0  0
 31 87  1  0  0  0  0
 32 67  2  0  0  0  0
 33 68  1  0  0  0  0
 33 72  1  0  0  0  0
 34 73  1  0  0  0  0
 34 78  2  0  0  0  0
 35 52  1  0  0  0  0
 35 75  1  0  0  0  0
 35 79  2  0  0  0  0
 36 56  1  0  0  0  0
 36 70  1  0  0  0  0
 36 80  2  0  0  0  0
 37 64  1  0  0  0  0
 37 69  1  0  0  0  0
 37 81  2  0  0  0  0
 38 65  1  0  0  0  0
 38 76  1  0  0  0  0
 38 82  2  0  0  0  0
 39 71  1  0  0  0  0
 39 74  1  0  0  0  0
 39 83  2  0  0  0  0
 40 43  1  0  0  0  0
 41 52  1  0  0  0  0
 42 69  1  0  0  0  0
 43 45  1  0  0  0  0
 44 46  1  0  0  0  0
 44 47  1  0  0  0  0
 45 51  1  0  0  0  0
 46 55  1  0  0  0  0
 47 71  1  0  0  0  0
 48 53  1  0  0  0  0
 48 70  1  0  0  0  0
 49 55  1  0  0  0  0
 49 71  1  0  0  0  0
 50 54  1  0  0  0  0
 50 70  1  0  0  0  0
 51 75  1  0  0  0  0
 52 69  1  0  0  0  0
 53 54  1  0  0  0  0
 53 63  1  0  0  0  0
 54 57  1  0  0  0  0
 55 68  1  0  0  0  0
 58 65  1  0  0  0  0
 59 66  1  0  0  0  0
 60 66  1  0  0  0  0
 61 66  1  0  0  0  0
 62 77  1  0  0  0  0
 63 85  1  0  0  0  0
 64 66  1  0  0  0  0
 64 76  1  0  0  0  0
 65 77  1  0  0  0  0
 67 68  1  0  0  0  0
M  CHG  1  77   1
M  ISO  4  39 100  63 101  74 100  85 101
M  END
> <Batch ID>
0162

> <Smiles>
CNC(C)C(=O)NC(C(=O)N1Cc2cc([101O:1][101CH2:1]C3CN(C(C)=O)C(c4ccc([100NH:0][100C:0](=O)N5CCCC(n6nc(-c7ccc(Oc8ccc(F)cc8F)cc7)c(C(N)=O)c6N)C5)cc4)C3C)ccc2CC1C(=O)NC1CCCc2ccccc21)C(C)(C)C

> <Shape>
0.210

> <Color>
0.186

> <Negative vol penalty>
0.000

$$$$

  -OEChem-04052322143D

 87 96  0     1  0  0  0  0  0999 V2000
  -24.1407  -18.2249   18.1519 C   0  0  0  0  0  0  0  0  0  0  0  0
  -23.5416  -19.4374   18.4778 C   0  0  0  0  0  0  0  0  0  0  0  0
  -27.4303  -18.0127   20.8583 C   0  0  0  0  0  0  0  0  0  0  0  0
  -29.5142  -17.6562   19.6889 C   0  0  0  0  0  0  0  0  0  0  0  0
  -23.7571  -17.0591   18.8136 C   0  0  0  0  0  0  0  0  0  0  0  0
  -22.5577  -19.4847   19.4648 C   0  0  0  0  0  0  0  0  0  0  0  0
  -23.1986  -23.3587   22.6627 C   0  0  0  0  0  0  0  0  0  0  0  0
  -26.9965  -16.7447   20.4719 C   0  0  0  0  0  0  0  0  0  0  0  0
  -29.0804  -16.3880   19.3025 C   0  0  0  0  0  0  0  0  0  0  0  0
  -22.8054  -24.6211   22.2205 C   0  0  0  0  0  0  0  0  0  0  0  0
  -28.8166  -13.3177   20.6896 C   0  0  0  0  0  0  0  0  0  0  0  0
  -29.7178  -12.2604   20.8138 C   0  0  0  0  0  0  0  0  0  0  0  0
  -20.7518  -24.4121   23.4687 C   0  0  0  0  0  0  0  0  0  0  0  0
  -29.5712  -11.8562   18.4363 C   0  0  0  0  0  0  0  0  0  0  0  0
  -28.6892  -18.4685   20.4667 C   0  0  0  0  0  0  0  0  0  0  0  0
  -29.8501  -20.1149   22.0318 C   0  0  0  0  0  0  0  0  0  0  0  0
  -22.7750  -17.0937   19.8159 C   0  0  0  0  0  0  0  0  0  0  0  0
  -22.3651  -22.6077   23.5039 C   0  0  0  0  0  0  0  0  0  0  0  0
  -22.1597  -18.3181   20.1396 C   0  0  0  0  0  0  0  0  0  0  0  0
  -21.1378  -23.1415   23.9223 C   0  0  0  0  0  0  0  0  0  0  0  0
  -24.8656  -28.9670   20.2239 C   0  0  0  0  0  0  0  0  0  0  0  0
  -26.0954  -29.3156   20.8126 C   0  0  0  0  0  0  0  0  0  0  0  0
  -23.6988  -29.6382   20.6158 C   0  0  0  0  0  0  0  0  0  0  0  0
  -26.1408  -30.3529   21.7543 C   0  0  0  0  0  0  0  0  0  0  0  0
  -23.7547  -30.6614   21.5617 C   0  0  0  0  0  0  0  0  0  0  0  0
  -24.9749  -31.0200   22.1287 C   0  0  0  0  0  0  0  0  0  0  0  0
  -27.8215  -15.9323   19.6940 C   0  0  0  0  0  0  0  0  0  0  0  0
  -21.5806  -25.1468   22.6212 C   0  0  0  0  0  0  0  0  0  0  0  0
  -28.2926  -13.6442   19.4388 C   0  0  0  0  0  0  0  0  0  0  0  0
  -30.0951  -11.5296   19.6872 C   0  0  0  0  0  0  0  0  0  0  0  0
  -28.6699  -12.9135   18.3122 C   0  0  0  0  0  0  0  0  0  0  0  0
  -29.1377  -19.7786   20.8651 C   0  0  0  0  0  0  0  0  0  0  0  0
  -30.0335  -21.4732   21.9426 C   0  0  0  0  0  0  0  0  0  0  0  0
  -30.3055  -19.2746   23.1005 C   0  0  0  0  0  0  0  0  0  0  0  0
  -20.8870  -19.8030   23.2745 C   0  0  0  0  0  0  0  0  0  0  0  0
  -20.1382  -20.3839   26.3768 C   0  0  0  0  0  0  0  0  0  0  0  0
  -19.6791  -22.6720   28.8669 C   0  0  0  0  0  0  0  0  0  0  0  0
  -27.4813  -26.1625   20.3344 C   0  0  0  0  0  0  0  0  0  0  0  0
  -22.3597  -15.7998   20.4703 C   0  0  0  0  0  0  0  0  0  0  0  0
  -22.8156  -21.2587   23.9936 C   0  0  0  0  0  0  0  0  0  0  0  0
  -24.7717  -27.8398   19.2226 C   0  0  0  0  0  0  0  0  0  0  0  0
  -20.2155  -22.3840   24.8409 C   0  0  0  0  0  0  0  0  0  0  0  0
  -27.3748  -28.6335   20.3989 C   0  0  0  0  0  0  0  0  0  0  0  0
  -21.5763  -15.9964   21.7657 C   0  0  0  0  0  0  0  0  0  0  0  0
  -29.9673  -24.7757   18.2730 C   0  0  0  0  0  0  0  0  0  0  0  0
  -20.4935  -17.0545   21.5794 C   0  0  0  0  0  0  0  0  0  0  0  0
  -30.0829  -23.3630   18.8447 C   0  0  0  0  0  0  0  0  0  0  0  0
  -28.5148  -25.2509   18.2086 C   0  0  0  0  0  0  0  0  0  0  0  0
  -27.9081  -23.7372   20.0676 C   0  0  0  0  0  0  0  0  0  0  0  0
  -21.1064  -18.4140   21.2219 C   0  0  1  0  0  0  0  0  0  0  0  0
  -21.6593  -20.3661   24.4338 C   0  0  1  0  0  0  0  0  0  0  0  0
  -29.3610  -23.2551   20.1995 C   0  0  1  0  0  0  0  0  0  0  0  0
  -26.1284  -27.4361   18.6115 C   0  0  1  0  0  0  0  0  0  0  0  0
  -27.4434  -30.7682   22.3665 C   0  0  0  0  0  0  0  0  0  0  0  0
  -22.5037  -31.3746   21.9704 C   0  0  0  0  0  0  0  0  0  0  0  0
  -25.0330  -32.1226   23.1392 C   0  0  0  0  0  0  0  0  0  0  0  0
  -26.5409  -28.3827   17.4789 C   0  0  0  0  0  0  0  0  0  0  0  0
  -19.0332  -22.8486   31.2854 C   0  0  0  0  0  0  0  0  0  0  0  0
  -17.2165  -19.9227   25.6277 C   0  0  0  0  0  0  0  0  0  0  0  0
  -16.5636  -21.0203   27.7811 C   0  0  0  0  0  0  0  0  0  0  0  0
  -17.9047  -18.9172   27.8116 C   0  0  0  0  0  0  0  0  0  0  0  0
  -22.2877  -23.8644   29.5965 C   0  0  0  0  0  0  0  0  0  0  0  0
  -22.3711  -29.2596   20.0338 C   0  0  0  0  0  0  0  0  0  0  0  0
  -21.4881  -28.4322   20.9766 C   0  0  0  0  0  0  0  0  0  0  0  0
  -22.0913  -27.0777   21.3302 C   0  0  0  0  0  0  0  0  0  1  0  0
  -19.0031  -21.0773   27.0909 C   0  0  1  0  0  0  0  0  0  0  0  0
  -20.1827  -22.7177   30.2983 C   0  0  2  0  0  0  0  0  0  0  0  0
  -17.6883  -20.2481   27.0589 C   0  0  0  0  0  0  0  0  0  0  0  0
  -28.8855  -20.8379   20.0916 N   0  0  0  0  0  0  0  0  0  0  0  0
  -29.4424  -21.8531   20.7736 N   0  0  0  0  0  0  0  0  0  0  0  0
  -20.6978  -21.0667   25.2875 N   0  0  0  0  0  0  0  0  0  0  0  0
  -27.1360  -27.3695   19.6938 N   0  0  0  0  0  0  0  0  0  0  0  0
  -27.8552  -25.0904   19.5104 N   0  0  0  0  0  0  0  0  0  0  0  0
  -30.6409  -22.3677   22.7508 N   0  0  0  0  0  0  0  0  0  0  0  0
  -30.0322  -17.9016   23.0338 N   0  0  0  0  0  0  0  0  0  0  0  0
  -21.6500  -19.0496   22.4029 N   0  0  0  0  0  0  0  0  0  0  0  0
  -19.4881  -21.3770   28.4338 N   0  0  0  0  0  0  0  0  0  0  0  0
  -21.0995  -23.8771   30.4881 N   0  3  0  0  0  0  0  0  0  0  0  0
  -30.9218  -19.7304   24.0935 O   0  0  0  0  0  0  0  0  0  0  0  0
  -19.6872  -20.0335   23.1788 O   0  0  0  0  0  0  0  0  0  0  0  0
  -20.5191  -19.2804   26.7754 O   0  0  0  0  0  0  0  0  0  0  0  0
  -19.4721  -23.6841   28.2010 O   0  0  0  0  0  0  0  0  0  0  0  0
  -27.4502  -26.0475   21.5660 O   0  0  0  0  0  0  0  0  0  0  0  0
  -27.3986  -14.6947   19.3170 O   0  0  0  0  0  0  0  0  0  0  0  0
  -21.1914  -26.3871   22.1874 O   0  0  0  0  0  0  0  0  0  1  0  0
  -30.9618  -10.5153   19.8064 F   0  0  0  0  0  0  0  0  0  0  0  0
  -28.1708  -13.2233   17.1077 F   0  0  0  0  0  0  0  0  0  0  0  0
  1  2  1  0  0  0  0
  1  5  2  0  0  0  0
  2  6  2  0  0  0  0
  3  8  2  0  0  0  0
  3 15  1  0  0  0  0
  4  9  1  0  0  0  0
  4 15  2  0  0  0  0
  5 17  1  0  0  0  0
  6 19  1  0  0  0  0
  7 10  2  0  0  0  0
  7 18  1  0  0  0  0
  8 27  1  0  0  0  0
  9 27  2  0  0  0  0
 10 28  1  0  0  0  0
 11 12  2  0  0  0  0
 11 29  1  0  0  0  0
 12 30  1  0  0  0  0
 13 20  1  0  0  0  0
 13 28  2  0  0  0  0
 14 30  2  0  0  0  0
 14 31  1  0  0  0  0
 15 32  1  0  0  0  0
 16 32  1  0  0  0  0
 16 33  2  0  0  0  0
 16 34  1  0  0  0  0
 17 19  2  0  0  0  0
 17 39  1  0  0  0  0
 18 20  2  0  0  0  0
 18 40  1  0  0  0  0
 19 50  1  0  0  0  0
 20 42  1  0  0  0  0
 21 22  1  0  0  0  0
 21 23  2  0  0  0  0
 21 41  1  0  0  0  0
 22 24  2  0  0  0  0
 22 43  1  0  0  0  0
 23 25  1  0  0  0  0
 23 63  1  0  0  0  0
 24 26  1  0  0  0  0
 24 54  1  0  0  0  0
 25 26  2  0  0  0  0
 25 55  1  0  0  0  0
 26 56  1  0  0  0  0
 27 84  1  0  0  0  0
 28 85  1  0  0  0  0
 29 31  2  0  0  0  0
 29 84  1  0  0  0  0
 30 86  1  0  0  0  0
 31 87  1  0  0  0  0
 32 69  2  0  0  0  0
 33 70  1  0  0  0  0
 33 74  1  0  0  0  0
 34 75  1  0  0  0  0
 34 79  2  0  0  0  0
 35 51  1  0  0  0  0
 35 76  1  0  0  0  0
 35 80  2  0  0  0  0
 36 66  1  0  0  0  0
 36 71  1  0  0  0  0
 36 81  2  0  0  0  0
 37 67  1  0  0  0  0
 37 77  1  0  0  0  0
 37 82  2  0  0  0  0
 38 72  1  0  0  0  0
 38 73  1  0  0  0  0
 38 83  2  0  0  0  0
 39 44  1  0  0  0  0
 40 51  1  0  0  0  0
 41 53  1  0  0  0  0
 42 71  1  0  0  0  0
 43 72  1  0  0  0  0
 44 46  1  0  0  0  0
 45 47  1  0  0  0  0
 45 48  1  0  0  0  0
 46 50  1  0  0  0  0
 47 52  1  0  0  0  0
 48 73  1  0  0  0  0
 49 52  1  0  0  0  0
 49 73  1  0  0  0  0
 50 76  1  0  0  0  0
 51 71  1  0  0  0  0
 52 70  1  0  0  0  0
 53 57  1  0  0  0  0
 53 72  1  0  0  0  0
 58 67  1  0  0  0  0
 59 68  1  0  0  0  0
 60 68  1  0  0  0  0
 61 68  1  0  0  0  0
 62 78  1  0  0  0  0
 63 64  1  0  0  0  0
 64 65  1  0  0  0  0
 65 85  1  0  0  0  0
 66 68  1  0  0  0  0
 66 77  1  0  0  0  0
 67 78  1  0  0  0  0
 69 70  1  0  0  0  0
M  CHG  1  78   1
M  ISO  4  38 100  65 101  72 100  85 101
M  END
> <Batch ID>
0162

> <Smiles>
CNC(C)C(=O)NC(C(=O)N1Cc2cc([101O:1][101CH2:1]CCc3c(C)c(C)c(C)c4c3CC(C)[100N:0]([100C:0](=O)N3CCCC(n5nc(-c6ccc(Oc7ccc(F)cc7F)cc6)c(C(N)=O)c5N)C3)C4)ccc2CC1C(=O)NC1CCCc2ccccc21)C(C)(C)C

> <Shape>
0.220

> <Color>
0.069

> <Negative vol penalty>
0.000

$$$$

  -OEChem-04052322143D

 87 96  0     1  0  0  0  0  0999 V2000
  -28.6815  -12.1853   18.5975 C   0  0  0  0  0  0  0  0  0  0  0  0
  -27.8774  -12.7722   19.5680 C   0  0  0  0  0  0  0  0  0  0  0  0
  -20.4845  -23.1596   17.2151 C   0  0  0  0  0  0  0  0  0  0  0  0
  -21.4872  -25.3269   16.8487 C   0  0  0  0  0  0  0  0  0  0  0  0
  -30.0580  -12.4002   18.6150 C   0  0  0  0  0  0  0  0  0  0  0  0
  -28.4479  -13.5838   20.5492 C   0  0  0  0  0  0  0  0  0  0  0  0
  -29.1553  -21.4676   22.8426 C   0  0  0  0  0  0  0  0  0  0  0  0
  -20.3735  -22.9778   15.8366 C   0  0  0  0  0  0  0  0  0  0  0  0
  -21.3763  -25.1452   15.4701 C   0  0  0  0  0  0  0  0  0  0  0  0
  -28.7322  -22.7702   22.5773 C   0  0  0  0  0  0  0  0  0  0  0  0
  -22.3934  -22.1085   13.2681 C   0  0  0  0  0  0  0  0  0  0  0  0
  -22.7729  -20.8726   12.7446 C   0  0  0  0  0  0  0  0  0  0  0  0
  -27.9867  -22.0918   20.3791 C   0  0  0  0  0  0  0  0  0  0  0  0
  -25.5730  -32.6006   21.2405 C   0  0  0  0  0  0  0  0  0  0  0  0
  -20.5386  -20.5515   11.8832 C   0  0  0  0  0  0  0  0  0  0  0  0
  -21.0413  -24.3342   17.7212 C   0  0  0  0  0  0  0  0  0  0  0  0
  -21.8710  -23.7203   20.0541 C   0  0  0  0  0  0  0  0  0  0  0  0
  -30.6464  -13.2049   19.6046 C   0  0  0  0  0  0  0  0  0  0  0  0
  -28.9814  -20.4676   21.8818 C   0  0  0  0  0  0  0  0  0  0  0  0
  -29.8323  -13.8322   20.5696 C   0  0  0  0  0  0  0  0  0  0  0  0
  -28.3971  -20.7825   20.6440 C   0  0  0  0  0  0  0  0  0  0  0  0
  -26.0108  -31.4363   20.6192 C   0  0  0  0  0  0  0  0  0  0  0  0
  -24.3588  -32.6060   21.9181 C   0  0  0  0  0  0  0  0  0  0  0  0
  -20.8194  -23.9706   14.9641 C   0  0  0  0  0  0  0  0  0  0  0  0
  -28.1496  -23.0816   21.3485 C   0  0  0  0  0  0  0  0  0  0  0  0
  -21.0865  -22.5659   13.0993 C   0  0  0  0  0  0  0  0  0  0  0  0
  -21.8455  -20.0941   12.0521 C   0  0  0  0  0  0  0  0  0  0  0  0
  -20.1591  -21.7874   12.4068 C   0  0  0  0  0  0  0  0  0  0  0  0
  -21.1557  -24.5227   19.1450 C   0  0  0  0  0  0  0  0  0  0  0  0
  -25.2040  -30.3131   20.7041 C   0  0  0  0  0  0  0  0  0  0  0  0
  -23.6259  -31.4304   21.9447 C   0  0  0  0  0  0  0  0  0  0  0  0
  -21.6662  -24.3173   21.2739 C   0  0  0  0  0  0  0  0  0  0  0  0
  -22.6510  -22.5409   19.8170 C   0  0  0  0  0  0  0  0  0  0  0  0
  -29.4165  -16.8545   20.9697 C   0  0  0  0  0  0  0  0  0  0  0  0
  -26.6723  -17.7181   19.9048 C   0  0  0  0  0  0  0  0  0  0  0  0
  -23.4300  -17.8691   18.8551 C   0  0  0  0  0  0  0  0  0  0  0  0
  -20.3198  -29.9215   22.8961 C   0  0  0  0  0  0  0  0  0  0  0  0
  -32.1403  -13.4102   19.5718 C   0  0  0  0  0  0  0  0  0  0  0  0
  -29.4780  -19.0643   22.1009 C   0  0  0  0  0  0  0  0  0  0  0  0
  -28.2618  -19.6821   19.6273 C   0  0  0  0  0  0  0  0  0  0  0  0
  -32.7003  -13.9153   20.8975 C   0  0  0  0  0  0  0  0  0  0  0  0
  -18.4763  -26.9716   23.6553 C   0  0  0  0  0  0  0  0  0  0  0  0
  -31.8861  -15.1038   21.3865 C   0  0  0  0  0  0  0  0  0  0  0  0
  -19.0185  -25.9371   22.6674 C   0  0  0  0  0  0  0  0  0  0  0  0
  -24.6411  -27.8686   20.2302 C   0  0  0  0  0  0  0  0  0  0  0  0
  -18.3992  -28.3627   23.0300 C   0  0  0  0  0  0  0  0  0  0  0  0
  -20.2002  -27.8080   21.4418 C   0  0  0  0  0  0  0  0  0  0  0  0
  -25.4636  -26.6669   19.8149 C   0  0  0  0  0  0  0  0  0  0  0  0
  -26.9520  -28.4578   20.5666 C   0  0  0  0  0  0  0  0  0  0  0  0
  -30.4344  -14.6940   21.6646 C   0  0  1  0  0  0  0  0  0  0  0  0
  -25.6266  -29.0212   20.0485 C   0  0  2  0  0  0  0  0  0  0  0  0
  -28.5748  -17.9971   21.4569 C   0  0  1  0  0  0  0  0  0  0  0  0
  -20.3490  -26.4004   22.0442 C   0  0  2  0  0  0  0  0  0  0  0  0
  -27.3107  -31.4240   19.8917 C   0  0  0  0  0  0  0  0  0  0  0  0
  -23.8839  -33.8502   22.5856 C   0  0  0  0  0  0  0  0  0  0  0  0
  -21.8293  -16.8013   17.2442 C   0  0  0  0  0  0  0  0  0  0  0  0
  -27.9771  -19.2396   17.6056 C   0  0  0  0  0  0  0  0  0  0  0  0
  -25.8672  -18.9263   16.2947 C   0  0  0  0  0  0  0  0  0  0  0  0
  -27.1891  -16.9393   17.0206 C   0  0  0  0  0  0  0  0  0  0  0  0
  -21.6475  -16.9720   21.0408 C   0  0  0  0  0  0  0  0  0  0  0  0
  -22.3151  -31.3781   22.6590 C   0  0  0  0  0  0  0  0  0  0  0  0
  -27.9527  -26.2979   19.6987 C   0  0  0  0  0  0  0  0  0  0  0  0
  -27.7727  -24.7932   19.7405 C   0  0  0  0  0  0  0  0  0  1  0  0
  -25.8784  -18.2512   18.7391 C   0  0  1  0  0  0  0  0  0  0  0  0
  -22.3825  -16.7877   18.6607 C   0  0  2  0  0  0  0  0  0  0  0  0
  -26.7274  -18.3519   17.4404 C   0  0  0  0  0  0  0  0  0  0  0  0
  -20.5422  -25.5510   19.7369 N   0  0  0  0  0  0  0  0  0  0  0  0
  -24.0186  -30.2800   21.3531 N   0  0  0  0  0  0  0  0  0  0  0  0
  -20.8713  -25.3987   21.0310 N   0  0  0  0  0  0  0  0  0  0  0  0
  -27.8073  -18.4457   20.2828 N   0  0  0  0  0  0  0  0  0  0  0  0
  -19.6934  -28.7428   22.4587 N   0  0  0  0  0  0  0  0  0  0  0  0
  -22.0901  -24.0175   22.5200 N   0  0  0  0  0  0  0  0  0  0  0  0
  -22.7570  -22.0628   18.5037 N   0  0  0  0  0  0  0  0  0  0  0  0
  -29.6498  -15.8813   21.9226 N   0  0  0  0  0  0  0  0  0  0  0  0
  -24.7032  -17.3950   18.6199 N   0  0  0  0  0  0  0  0  0  0  0  0
  -21.5465  -30.2046   22.3082 N   0  0  0  0  0  0  0  0  0  0  0  0
  -26.8188  -26.9506   20.4210 N   0  3  2  0  0  0  0  0  0  0  0  0
  -21.2504  -16.9866   19.6093 N   0  3  0  0  0  0  0  0  0  0  0  0
  -23.2230  -21.9196   20.7445 O   0  0  0  0  0  0  0  0  0  0  0  0
  -29.8236  -16.8538   19.8139 O   0  0  0  0  0  0  0  0  0  0  0  0
  -26.3017  -16.6818   20.4633 O   0  0  0  0  0  0  0  0  0  0  0  0
  -23.1467  -19.0203   19.1794 O   0  0  0  0  0  0  0  0  0  0  0  0
  -19.8250  -30.6637   23.7513 O   0  0  0  0  0  0  0  0  0  0  0  0
  -20.7115  -23.7935   13.6189 O   0  0  0  0  0  0  0  0  0  0  0  0
  -27.7347  -24.3542   21.0978 O   0  0  0  0  0  0  0  0  0  1  0  0
  -22.2105  -18.9079   11.5481 F   0  0  0  0  0  0  0  0  0  0  0  0
  -18.9025  -22.2220   12.2403 F   0  0  0  0  0  0  0  0  0  0  0  0
  1  2  1  0  0  0  0
  1  5  2  0  0  0  0
  2  6  2  0  0  0  0
  3  8  2  0  0  0  0
  3 16  1  0  0  0  0
  4  9  1  0  0  0  0
  4 16  2  0  0  0  0
  5 18  1  0  0  0  0
  6 20  1  0  0  0  0
  7 10  2  0  0  0  0
  7 19  1  0  0  0  0
  8 24  1  0  0  0  0
  9 24  2  0  0  0  0
 10 25  1  0  0  0  0
 11 12  2  0  0  0  0
 11 26  1  0  0  0  0
 12 27  1  0  0  0  0
 13 21  1  0  0  0  0
 13 25  2  0  0  0  0
 14 22  1  0  0  0  0
 14 23  2  0  0  0  0
 15 27  2  0  0  0  0
 15 28  1  0  0  0  0
 16 29  1  0  0  0  0
 17 29  1  0  0  0  0
 17 32  2  0  0  0  0
 17 33  1  0  0  0  0
 18 20  2  0  0  0  0
 18 38  1  0  0  0  0
 19 21  2  0  0  0  0
 19 39  1  0  0  0  0
 20 50  1  0  0  0  0
 21 40  1  0  0  0  0
 22 30  2  0  0  0  0
 22 54  1  0  0  0  0
 23 31  1  0  0  0  0
 23 55  1  0  0  0  0
 24 84  1  0  0  0  0
 25 85  1  0  0  0  0
 26 28  2  0  0  0  0
 26 84  1  0  0  0  0
 27 86  1  0  0  0  0
 28 87  1  0  0  0  0
 29 67  2  0  0  0  0
 30 51  1  0  0  0  0
 30 68  1  0  0  0  0
 31 61  1  0  0  0  0
 31 68  2  0  0  0  0
 32 69  1  0  0  0  0
 32 72  1  0  0  0  0
 33 73  1  0  0  0  0
 33 79  2  0  0  0  0
 34 52  1  0  0  0  0
 34 74  1  0  0  0  0
 34 80  2  0  0  0  0
 35 64  1  0  0  0  0
 35 70  1  0  0  0  0
 35 81  2  0  0  0  0
 36 65  1  0  0  0  0
 36 75  1  0  0  0  0
 36 82  2  0  0  0  0
 37 71  1  0  0  0  0
 37 76  1  0  0  0  0
 37 83  2  0  0  0  0
 38 41  1  0  0  0  0
 39 52  1  0  0  0  0
 40 70  1  0  0  0  0
 41 43  1  0  0  0  0
 42 44  1  0  0  0  0
 42 46  1  0  0  0  0
 43 50  1  0  0  0  0
 44 53  1  0  0  0  0
 45 48  1  0  0  0  0
 45 51  1  0  0  0  0
 46 71  1  0  0  0  0
 47 53  1  0  0  0  0
 47 71  1  0  0  0  0
 48 77  1  0  0  0  0
 49 51  1  0  0  0  0
 49 77  1  0  0  0  0
 50 74  1  0  0  0  0
 52 70  1  0  0  0  0
 53 69  1  0  0  0  0
 56 65  1  0  0  0  0
 57 66  1  0  0  0  0
 58 66  1  0  0  0  0
 59 66  1  0  0  0  0
 60 78  1  0  0  0  0
 61 76  1  0  0  0  0
 62 63  1  0  0  0  0
 62 77  1  0  0  0  0
 63 85  1  0  0  0  0
 64 66  1  0  0  0  0
 64 75  1  0  0  0  0
 65 78  1  0  0  0  0
 67 69  1  0  0  0  0
M  CHG  2  77   1  78   1
M  ISO  4  37 100  63 101  76 100  85 101
M  END
> <Batch ID>
0162

> <Smiles>
CNC(C)C(=O)NC(C(=O)N1Cc2cc([101O:1][101CH2:1]CN3CCC(c4nc(C[100NH:0][100C:0](=O)N5CCCC(n6nc(-c7ccc(Oc8ccc(F)cc8F)cc7)c(C(N)=O)c6N)C5)c(C)cc4C)C3)ccc2CC1C(=O)NC1CCCc2ccccc21)C(C)(C)C

> <Shape>
0.236

> <Color>
0.068

> <Negative vol penalty>
0.000

$$$$

  -OEChem-04052322143D

 91101  0     1  0  0  0  0  0999 V2000
  -27.9811  -33.9892   25.5451 C   0  0  0  0  0  0  0  0  0  0  0  0
  -28.1569  -32.7510   24.9357 C   0  0  0  0  0  0  0  0  0  0  0  0
  -27.1336  -15.1332   20.4728 C   0  0  0  0  0  0  0  0  0  0  0  0
  -25.8097  -14.7374   22.4546 C   0  0  0  0  0  0  0  0  0  0  0  0
  -26.7158  -34.3745   25.9860 C   0  0  0  0  0  0  0  0  0  0  0  0
  -27.0675  -31.8969   24.7678 C   0  0  0  0  0  0  0  0  0  0  0  0
  -26.9184  -29.8231   20.1503 C   0  0  0  0  0  0  0  0  0  0  0  0
  -26.9455  -13.8075   20.0823 C   0  0  0  0  0  0  0  0  0  0  0  0
  -25.6215  -13.4116   22.0640 C   0  0  0  0  0  0  0  0  0  0  0  0
  -27.7827  -28.7576   19.9026 C   0  0  0  0  0  0  0  0  0  0  0  0
  -24.4916  -10.0189   21.4075 C   0  0  0  0  0  0  0  0  0  0  0  0
  -23.2052   -9.4889   21.5074 C   0  0  0  0  0  0  0  0  0  0  0  0
  -26.3494  -23.3396   29.8130 C   0  0  0  0  0  0  0  0  0  0  0  0
  -25.9656  -27.2100   20.2522 C   0  0  0  0  0  0  0  0  0  0  0  0
  -22.3910  -11.1779   19.9838 C   0  0  0  0  0  0  0  0  0  0  0  0
  -26.5658  -15.5982   21.6590 C   0  0  0  0  0  0  0  0  0  0  0  0
  -27.9846  -17.6104   22.3264 C   0  0  0  0  0  0  0  0  0  0  0  0
  -25.6085  -33.5287   25.8148 C   0  0  0  0  0  0  0  0  0  0  0  0
  -25.5713  -29.5891   20.4620 C   0  0  0  0  0  0  0  0  0  0  0  0
  -25.7864  -32.2706   25.2081 C   0  0  0  0  0  0  0  0  0  0  0  0
  -25.7724  -22.5813   28.8065 C   0  0  0  0  0  0  0  0  0  0  0  0
  -25.0856  -28.2744   20.5009 C   0  0  0  0  0  0  0  0  0  0  0  0
  -26.7511  -24.6421   29.5151 C   0  0  0  0  0  0  0  0  0  0  0  0
  -26.5646  -25.1673   28.2282 C   0  0  0  0  0  0  0  0  0  0  0  0
  -25.5825  -23.1031   27.5257 C   0  0  0  0  0  0  0  0  0  0  0  0
  -26.1894  -12.9467   20.8778 C   0  0  0  0  0  0  0  0  0  0  0  0
  -27.3071  -27.4507   19.9564 C   0  0  0  0  0  0  0  0  0  0  0  0
  -24.7276  -11.1285   20.5957 C   0  0  0  0  0  0  0  0  0  0  0  0
  -25.9744  -24.3985   27.2209 C   0  0  0  0  0  0  0  0  0  0  0  0
  -22.1549  -10.0684   20.7956 C   0  0  0  0  0  0  0  0  0  0  0  0
  -23.6773  -11.7079   19.8839 C   0  0  0  0  0  0  0  0  0  0  0  0
  -26.7602  -16.9675   22.0632 C   0  0  0  0  0  0  0  0  0  0  0  0
  -27.6321  -18.8926   22.6702 C   0  0  0  0  0  0  0  0  0  0  0  0
  -29.3210  -17.0948   22.2654 C   0  0  0  0  0  0  0  0  0  0  0  0
  -23.7145  -30.1815   22.9730 C   0  0  0  0  0  0  0  0  0  0  0  0
  -21.3793  -29.0644   21.0182 C   0  0  0  0  0  0  0  0  0  0  0  0
  -20.5249  -27.1505   18.3249 C   0  0  0  0  0  0  0  0  0  0  0  0
  -24.3631  -22.4218   25.4697 C   0  0  0  0  0  0  0  0  0  0  0  0
  -24.2691  -33.9689   26.3503 C   0  0  0  0  0  0  0  0  0  0  0  0
  -24.6457  -30.7505   20.7003 C   0  0  0  0  0  0  0  0  0  0  0  0
  -25.2140  -21.1995   28.9200 C   0  0  0  0  0  0  0  0  0  0  0  0
  -23.6434  -27.9706   20.8112 C   0  0  0  0  0  0  0  0  0  0  0  0
  -23.0970  -33.1623   25.7971 C   0  0  0  0  0  0  0  0  0  0  0  0
  -23.2338  -21.3271   22.3071 C   0  0  0  0  0  0  0  0  0  0  0  0
  -23.4047  -31.6691   25.8493 C   0  0  0  0  0  0  0  0  0  0  0  0
  -24.1217  -20.1270   21.9891 C   0  0  0  0  0  0  0  0  0  0  0  0
  -27.6069  -25.9929   24.6843 C   0  0  0  0  0  0  0  0  0  0  0  0
  -26.4889  -23.8947   23.8618 C   0  0  0  0  0  0  0  0  0  0  0  0
  -24.9120  -20.8660   27.4535 C   0  0  0  0  0  0  0  0  0  0  0  0
  -22.8853  -21.3637   23.7888 C   0  0  0  0  0  0  0  0  0  0  0  0
  -25.0128  -20.2272   24.3746 C   0  0  0  0  0  0  0  0  0  0  0  0
  -28.7060  -25.8097   23.6494 C   0  0  0  0  0  0  0  0  0  0  0  0
  -27.5905  -23.7164   22.8287 C   0  0  0  0  0  0  0  0  0  0  0  0
  -24.6247  -31.3267   24.9857 C   0  0  1  0  0  0  0  0  0  0  0  0
  -23.4114  -30.3737   21.5140 C   0  0  1  0  0  0  0  0  0  0  0  0
  -25.3749  -20.1299   22.8783 C   0  0  1  0  0  0  0  0  0  0  0  0
  -26.9817  -24.6606   25.0870 C   0  0  0  0  0  0  0  0  0  0  0  0
  -27.3793  -25.4641   30.5936 C   0  0  0  0  0  0  0  0  0  0  0  0
  -27.0152  -26.5630   27.9261 C   0  0  0  0  0  0  0  0  0  0  0  0
  -18.5348  -26.4021   16.9920 C   0  0  0  0  0  0  0  0  0  0  0  0
  -30.5624  -26.4159   19.7750 C   0  0  0  0  0  0  0  0  0  0  0  0
  -20.6355  -27.1033   23.2342 C   0  0  0  0  0  0  0  0  0  0  0  0
  -19.3347  -25.7935   21.5429 C   0  0  0  0  0  0  0  0  0  0  0  0
  -18.6855  -28.1448   22.0651 C   0  0  0  0  0  0  0  0  0  0  0  0
  -21.5574  -28.4146   15.8561 C   0  0  0  0  0  0  0  0  0  0  0  0
  -29.1645  -24.9625   21.3489 C   0  0  0  0  0  0  0  0  0  0  0  0
  -20.7863  -27.7067   20.7284 C   0  0  1  0  0  0  0  0  0  0  0  0
  -19.6405  -27.4377   17.1250 C   0  0  2  0  0  0  0  0  0  0  0  0
  -29.2780  -26.2757   20.5815 C   0  0  2  0  0  0  0  0  0  1  0  0
  -19.8882  -27.1924   21.8887 C   0  0  0  0  0  0  0  0  0  0  0  0
  -25.7085  -17.7746   22.2261 N   0  0  0  0  0  0  0  0  0  0  0  0
  -26.2711  -18.9379   22.5953 N   0  0  0  0  0  0  0  0  0  0  0  0
  -24.9825  -22.1355   26.6882 N   0  0  0  0  0  0  0  0  0  0  0  0
  -22.7791  -29.1397   21.0430 N   0  0  0  0  0  0  0  0  0  0  0  0
  -24.0826  -21.3336   24.6301 N   0  0  0  0  0  0  0  0  0  0  0  0
  -28.3568  -19.9745   23.0263 N   0  0  0  0  0  0  0  0  0  0  0  0
  -29.8673  -16.5164   23.4193 N   0  0  0  0  0  0  0  0  0  0  0  0
  -24.2596  -31.2937   23.5857 N   0  0  0  0  0  0  0  0  0  0  0  0
  -20.0976  -27.8269   19.4479 N   0  0  0  0  0  0  0  0  0  0  0  0
  -28.1511  -25.0688   22.4553 N   0  3  0  0  0  0  0  0  0  0  0  0
  -20.4477  -27.4271   15.8723 N   0  3  0  0  0  0  0  0  0  0  0  0
  -30.0163  -17.1603   21.2234 O   0  0  0  0  0  0  0  0  0  0  0  0
  -23.4704  -29.1044   23.5040 O   0  0  0  0  0  0  0  0  0  0  0  0
  -20.6282  -30.0243   21.2083 O   0  0  0  0  0  0  0  0  0  0  0  0
  -21.4954  -26.3982   18.2723 O   0  0  0  0  0  0  0  0  0  0  0  0
  -24.0076  -23.5658   25.1604 O   0  0  0  0  0  0  0  0  0  0  0  0
  -26.0054  -11.6530   20.4969 O   0  0  0  0  0  0  0  0  0  0  0  0
  -25.8919  -24.9144   25.9661 O   0  0  0  0  0  0  0  0  0  0  0  0
  -28.1537  -26.4028   19.7143 O   0  0  0  0  0  0  0  0  0  1  0  0
  -20.9200   -9.5584   20.8905 F   0  0  0  0  0  0  0  0  0  0  0  0
  -23.8982  -12.7733   19.1015 F   0  0  0  0  0  0  0  0  0  0  0  0
  1  2  1  0  0  0  0
  1  5  2  0  0  0  0
  2  6  2  0  0  0  0
  3  8  2  0  0  0  0
  3 16  1  0  0  0  0
  4  9  1  0  0  0  0
  4 16  2  0  0  0  0
  5 18  1  0  0  0  0
  6 20  1  0  0  0  0
  7 10  2  0  0  0  0
  7 19  1  0  0  0  0
  8 26  1  0  0  0  0
  9 26  2  0  0  0  0
 10 27  1  0  0  0  0
 11 12  2  0  0  0  0
 11 28  1  0  0  0  0
 12 30  1  0  0  0  0
 13 21  2  0  0  0  0
 13 23  1  0  0  0  0
 14 22  1  0  0  0  0
 14 27  2  0  0  0  0
 15 30  2  0  0  0  0
 15 31  1  0  0  0  0
 16 32  1  0  0  0  0
 17 32  1  0  0  0  0
 17 33  2  0  0  0  0
 17 34  1  0  0  0  0
 18 20  2  0  0  0  0
 18 39  1  0  0  0  0
 19 22  2  0  0  0  0
 19 40  1  0  0  0  0
 20 54  1  0  0  0  0
 21 25  1  0  0  0  0
 21 41  1  0  0  0  0
 22 42  1  0  0  0  0
 23 24  2  0  0  0  0
 23 58  1  0  0  0  0
 24 29  1  0  0  0  0
 24 59  1  0  0  0  0
 25 29  2  0  0  0  0
 25 73  1  0  0  0  0
 26 87  1  0  0  0  0
 27 89  1  0  0  0  0
 28 31  2  0  0  0  0
 28 87  1  0  0  0  0
 29 88  1  0  0  0  0
 30 90  1  0  0  0  0
 31 91  1  0  0  0  0
 32 71  2  0  0  0  0
 33 72  1  0  0  0  0
 33 76  1  0  0  0  0
 34 77  1  0  0  0  0
 34 82  2  0  0  0  0
 35 55  1  0  0  0  0
 35 78  1  0  0  0  0
 35 83  2  0  0  0  0
 36 67  1  0  0  0  0
 36 74  1  0  0  0  0
 36 84  2  0  0  0  0
 37 68  1  0  0  0  0
 37 79  1  0  0  0  0
 37 85  2  0  0  0  0
 38 73  1  0  0  0  0
 38 75  1  0  0  0  0
 38 86  2  0  0  0  0
 39 43  1  0  0  0  0
 40 55  1  0  0  0  0
 41 49  1  0  0  0  0
 42 74  1  0  0  0  0
 43 45  1  0  0  0  0
 44 46  1  0  0  0  0
 44 50  1  0  0  0  0
 45 54  1  0  0  0  0
 46 56  1  0  0  0  0
 47 52  1  0  0  0  0
 47 57  1  0  0  0  0
 48 53  1  0  0  0  0
 48 57  1  0  0  0  0
 49 73  1  0  0  0  0
 50 75  1  0  0  0  0
 51 56  1  0  0  0  0
 51 75  1  0  0  0  0
 52 80  1  0  0  0  0
 53 80  1  0  0  0  0
 54 78  1  0  0  0  0
 55 74  1  0  0  0  0
 56 72  1  0  0  0  0
 57 88  1  0  0  0  0
 60 68  1  0  0  0  0
 61 69  1  0  0  0  0
 62 70  1  0  0  0  0
 63 70  1  0  0  0  0
 64 70  1  0  0  0  0
 65 81  1  0  0  0  0
 66 69  1  0  0  0  0
 66 80  1  0  0  0  0
 67 70  1  0  0  0  0
 67 79  1  0  0  0  0
 68 81  1  0  0  0  0
 69 89  1  0  0  0  0
 71 72  1  0  0  0  0
M  CHG  2  80   1  81   1
M  ISO  4  38 100  69 101  73 100  89 101
M  END
> <Batch ID>
0162

> <Smiles>
CNC(C)C(=O)NC(C(=O)N1Cc2cc([101O:1][101CH:1](C)CN3CCC(Oc4c(C)c(C)cc5c4[100N:0]([100C:0](=O)N4CCCC(n6nc(-c7ccc(Oc8ccc(F)cc8F)cc7)c(C(N)=O)c6N)C4)CC5)CC3)ccc2CC1C(=O)NC1CCCc2ccccc21)C(C)(C)C

> <Shape>
0.236

> <Color>
0.076

> <Negative vol penalty>
0.000

$$$$

  -OEChem-04052322143D

 93103  0     1  0  0  0  0  0999 V2000
  -29.5068  -33.8298   27.0972 C   0  0  0  0  0  0  0  0  0  0  0  0
  -28.5958  -32.8109   26.8377 C   0  0  0  0  0  0  0  0  0  0  0  0
  -22.9949  -10.4006   21.4367 C   0  0  0  0  0  0  0  0  0  0  0  0
  -24.7162   -8.7202   21.6614 C   0  0  0  0  0  0  0  0  0  0  0  0
  -29.1641  -35.1545   26.8298 C   0  0  0  0  0  0  0  0  0  0  0  0
  -27.3411  -33.1163   26.3118 C   0  0  0  0  0  0  0  0  0  0  0  0
  -26.0083  -30.0124   22.5389 C   0  0  0  0  0  0  0  0  0  0  0  0
  -22.0232   -9.4005   21.4009 C   0  0  0  0  0  0  0  0  0  0  0  0
  -23.7445   -7.7201   21.6256 C   0  0  0  0  0  0  0  0  0  0  0  0
  -25.5446  -28.7455   22.8903 C   0  0  0  0  0  0  0  0  0  0  0  0
  -21.6867   -4.7411   21.9561 C   0  0  0  0  0  0  0  0  0  0  0  0
  -21.7833   -3.7084   22.8887 C   0  0  0  0  0  0  0  0  0  0  0  0
  -23.2735  -29.4971   22.5797 C   0  0  0  0  0  0  0  0  0  0  0  0
  -26.6467  -21.6595   19.0836 C   0  0  0  0  0  0  0  0  0  0  0  0
  -21.5995   -5.3135   24.6851 C   0  0  0  0  0  0  0  0  0  0  0  0
  -24.3414  -10.0604   21.5669 C   0  0  0  0  0  0  0  0  0  0  0  0
  -25.8435  -11.7549   22.7417 C   0  0  0  0  0  0  0  0  0  0  0  0
  -27.9081  -35.4754   26.2913 C   0  0  0  0  0  0  0  0  0  0  0  0
  -25.1061  -31.0361   22.2152 C   0  0  0  0  0  0  0  0  0  0  0  0
  -26.9807  -34.4467   26.0382 C   0  0  0  0  0  0  0  0  0  0  0  0
  -23.7284  -30.7755   22.2220 C   0  0  0  0  0  0  0  0  0  0  0  0
  -26.3504  -20.9988   20.2721 C   0  0  0  0  0  0  0  0  0  0  0  0
  -24.8895  -22.8244   20.9300 C   0  0  0  0  0  0  0  0  0  0  0  0
  -25.1819  -23.4916   19.7266 C   0  0  0  0  0  0  0  0  0  0  0  0
  -25.4732  -21.5757   21.1893 C   0  0  0  0  0  0  0  0  0  0  0  0
  -22.3980   -8.0603   21.4954 C   0  0  0  0  0  0  0  0  0  0  0  0
  -24.1769  -28.4884   22.9136 C   0  0  0  0  0  0  0  0  0  0  0  0
  -21.5466   -6.0601   22.3879 C   0  0  0  0  0  0  0  0  0  0  0  0
  -26.0660  -22.8978   18.8114 C   0  0  0  0  0  0  0  0  0  0  0  0
  -21.7396   -3.9946   24.2532 C   0  0  0  0  0  0  0  0  0  0  0  0
  -21.5030   -6.3463   23.7524 C   0  0  0  0  0  0  0  0  0  0  0  0
  -25.3456  -11.0931   21.6033 C   0  0  0  0  0  0  0  0  0  0  0  0
  -26.7715  -12.6382   22.2469 C   0  0  0  0  0  0  0  0  0  0  0  0
  -25.4979  -11.5863   24.1229 C   0  0  0  0  0  0  0  0  0  0  0  0
  -24.4129  -33.8857   23.4411 C   0  0  0  0  0  0  0  0  0  0  0  0
  -22.5212  -34.1215   20.8166 C   0  0  0  0  0  0  0  0  0  0  0  0
  -20.7579  -32.5333   18.3640 C   0  0  0  0  0  0  0  0  0  0  0  0
  -28.4864  -16.3562   18.6058 C   0  0  0  0  0  0  0  0  0  0  0  0
  -27.5652  -36.9263   26.0631 C   0  0  0  0  0  0  0  0  0  0  0  0
  -25.6233  -32.3898   21.8123 C   0  0  0  0  0  0  0  0  0  0  0  0
  -22.7192  -31.8344   21.8631 C   0  0  0  0  0  0  0  0  0  0  0  0
  -23.9132  -23.3954   21.9219 C   0  0  0  0  0  0  0  0  0  0  0  0
  -26.3547  -37.1308   25.1558 C   0  0  0  0  0  0  0  0  0  0  0  0
  -28.8108  -13.0518   17.6445 C   0  0  0  0  0  0  0  0  0  0  0  0
  -25.2132  -36.2089   25.5728 C   0  0  0  0  0  0  0  0  0  0  0  0
  -27.9823  -12.2896   18.6784 C   0  0  0  0  0  0  0  0  0  0  0  0
  -26.1066  -18.4851   20.0624 C   0  0  0  0  0  0  0  0  0  0  0  0
  -28.4000  -19.5487   19.9264 C   0  0  0  0  0  0  0  0  0  0  0  0
  -28.1087  -14.3374   17.2229 C   0  0  0  0  0  0  0  0  0  0  0  0
  -26.7743  -17.1288   20.3065 C   0  0  0  0  0  0  0  0  0  0  0  0
  -29.0108  -18.1772   20.1989 C   0  0  0  0  0  0  0  0  0  0  0  0
  -26.9540  -14.5002   19.4043 C   0  0  0  0  0  0  0  0  0  0  0  0
  -23.3085  -25.1197   20.2311 C   0  0  0  0  0  0  0  0  0  0  0  0
  -26.9918  -19.6503   20.5401 C   0  0  0  0  0  0  0  0  0  0  0  0
  -24.5825  -24.8502   19.4189 C   0  0  1  0  0  0  0  0  0  0  0  0
  -25.6190  -34.7357   25.4446 C   0  0  1  0  0  0  0  0  0  0  0  0
  -24.5961  -33.5020   22.0000 C   0  0  1  0  0  0  0  0  0  0  0  0
  -27.6224  -13.1914   19.8724 C   0  0  1  0  0  0  0  0  0  0  0  0
  -25.1549  -20.8359   22.4526 C   0  0  0  0  0  0  0  0  0  0  0  0
  -25.6279  -25.9540   19.6235 C   0  0  0  0  0  0  0  0  0  0  0  0
  -19.2832  -32.9921   16.3861 C   0  0  0  0  0  0  0  0  0  0  0  0
  -21.1373  -24.8196   21.9530 C   0  0  0  0  0  0  0  0  0  0  0  0
  -20.2096  -34.7803   22.6960 C   0  0  0  0  0  0  0  0  0  0  0  0
  -18.6320  -34.2910   20.8145 C   0  0  0  0  0  0  0  0  0  0  0  0
  -20.2790  -36.1529   20.6067 C   0  0  0  0  0  0  0  0  0  0  0  0
  -22.6400  -31.2051   16.5060 C   0  0  0  0  0  0  0  0  0  0  0  0
  -25.5427  -23.2037   16.5117 C   0  0  0  0  0  0  0  0  0  0  0  0
  -22.4913  -26.8282   22.6723 C   0  0  0  0  0  0  0  0  0  1  0  0
  -21.0912  -33.7614   20.4936 C   0  0  1  0  0  0  0  0  0  0  0  0
  -20.7065  -32.7457   16.8618 C   0  0  2  0  0  0  0  0  0  0  0  0
  -22.4390  -25.3082   22.5675 C   0  0  2  0  0  0  0  0  0  0  0  0
  -20.0716  -34.7268   21.1614 C   0  0  0  0  0  0  0  0  0  0  0  0
  -25.9105  -11.5196   20.4706 N   0  0  0  0  0  0  0  0  0  0  0  0
  -26.7729  -12.4590   20.8948 N   0  0  0  0  0  0  0  0  0  0  0  0
  -23.2741  -33.1437   21.4821 N   0  0  0  0  0  0  0  0  0  0  0  0
  -27.7806  -15.1641   18.3843 N   0  0  0  0  0  0  0  0  0  0  0  0
  -28.1283  -17.1065   19.7360 N   0  0  0  0  0  0  0  0  0  0  0  0
  -27.5784  -13.5431   22.8407 N   0  0  0  0  0  0  0  0  0  0  0  0
  -24.5245  -10.6348   24.4568 N   0  0  0  0  0  0  0  0  0  0  0  0
  -25.5707  -34.3168   24.0601 N   0  0  0  0  0  0  0  0  0  0  0  0
  -21.0016  -33.7111   19.0383 N   0  0  0  0  0  0  0  0  0  0  0  0
  -23.5712  -24.8513   21.6915 N   0  3  1  0  0  0  0  0  0  0  0  0
  -21.2391  -31.5491   16.1509 N   0  3  0  0  0  0  0  0  0  0  0  0
  -26.0246  -12.2709   25.0326 O   0  0  0  0  0  0  0  0  0  0  0  0
  -23.3030  -33.7985   23.9532 O   0  0  0  0  0  0  0  0  0  0  0  0
  -22.9564  -35.2268   20.4841 O   0  0  0  0  0  0  0  0  0  0  0  0
  -20.5942  -31.4333   18.8872 O   0  0  0  0  0  0  0  0  0  0  0  0
  -29.3842  -16.7285   17.8401 O   0  0  0  0  0  0  0  0  0  0  0  0
  -21.4501   -7.0841   21.4608 O   0  0  0  0  0  0  0  0  0  0  0  0
  -26.3730  -23.5072   17.6295 O   0  0  0  0  0  0  0  0  0  0  0  0
  -23.7185  -27.2445   23.2593 O   0  0  0  0  0  0  0  0  0  1  0  0
  -21.8308   -3.0026   25.1486 F   0  0  0  0  0  0  0  0  0  0  0  0
  -21.3674   -7.6113   24.1733 F   0  0  0  0  0  0  0  0  0  0  0  0
  1  2  1  0  0  0  0
  1  5  2  0  0  0  0
  2  6  2  0  0  0  0
  3  8  2  0  0  0  0
  3 16  1  0  0  0  0
  4  9  1  0  0  0  0
  4 16  2  0  0  0  0
  5 18  1  0  0  0  0
  6 20  1  0  0  0  0
  7 10  2  0  0  0  0
  7 19  1  0  0  0  0
  8 26  1  0  0  0  0
  9 26  2  0  0  0  0
 10 27  1  0  0  0  0
 11 12  2  0  0  0  0
 11 28  1  0  0  0  0
 12 30  1  0  0  0  0
 13 21  1  0  0  0  0
 13 27  2  0  0  0  0
 14 22  1  0  0  0  0
 14 29  2  0  0  0  0
 15 30  2  0  0  0  0
 15 31  1  0  0  0  0
 16 32  1  0  0  0  0
 17 32  1  0  0  0  0
 17 33  2  0  0  0  0
 17 34  1  0  0  0  0
 18 20  2  0  0  0  0
 18 39  1  0  0  0  0
 19 21  2  0  0  0  0
 19 40  1  0  0  0  0
 20 56  1  0  0  0  0
 21 41  1  0  0  0  0
 22 25  2  0  0  0  0
 22 54  1  0  0  0  0
 23 24  2  0  0  0  0
 23 25  1  0  0  0  0
 23 42  1  0  0  0  0
 24 29  1  0  0  0  0
 24 55  1  0  0  0  0
 25 59  1  0  0  0  0
 26 89  1  0  0  0  0
 27 91  1  0  0  0  0
 28 31  2  0  0  0  0
 28 89  1  0  0  0  0
 29 90  1  0  0  0  0
 30 92  1  0  0  0  0
 31 93  1  0  0  0  0
 32 73  2  0  0  0  0
 33 74  1  0  0  0  0
 33 78  1  0  0  0  0
 34 79  1  0  0  0  0
 34 84  2  0  0  0  0
 35 57  1  0  0  0  0
 35 80  1  0  0  0  0
 35 85  2  0  0  0  0
 36 69  1  0  0  0  0
 36 75  1  0  0  0  0
 36 86  2  0  0  0  0
 37 70  1  0  0  0  0
 37 81  1  0  0  0  0
 37 87  2  0  0  0  0
 38 76  1  0  0  0  0
 38 77  1  0  0  0  0
 38 88  2  0  0  0  0
 39 43  1  0  0  0  0
 40 57  1  0  0  0  0
 41 75  1  0  0  0  0
 42 82  1  0  0  0  0
 43 45  1  0  0  0  0
 44 46  1  0  0  0  0
 44 49  1  0  0  0  0
 45 56  1  0  0  0  0
 46 58  1  0  0  0  0
 47 50  1  0  0  0  0
 47 54  1  0  0  0  0
 48 51  1  0  0  0  0
 48 54  1  0  0  0  0
 49 76  1  0  0  0  0
 50 77  1  0  0  0  0
 51 77  1  0  0  0  0
 52 58  1  0  0  0  0
 52 76  1  0  0  0  0
 53 55  1  0  0  0  0
 53 82  1  0  0  0  0
 55 60  1  0  0  0  0
 56 80  1  0  0  0  0
 57 75  1  0  0  0  0
 58 74  1  0  0  0  0
 61 70  1  0  0  0  0
 62 71  1  0  0  0  0
 63 72  1  0  0  0  0
 64 72  1  0  0  0  0
 65 72  1  0  0  0  0
 66 83  1  0  0  0  0
 67 90  1  0  0  0  0
 68 71  1  0  0  0  0
 68 91  1  0  0  0  0
 69 72  1  0  0  0  0
 69 81  1  0  0  0  0
 70 83  1  0  0  0  0
 71 82  1  0  0  0  0
 73 74  1  0  0  0  0
M  CHG  2  82   1  83   1
M  ISO  4  38 100  68 101  77 100  91 101
M  END
> <Batch ID>
0162

> <Smiles>
CNC(C)C(=O)NC(C(=O)N1Cc2cc([101O:1][101CH2:1]C(C)N3Cc4c(C)c(C5CC[100N:0]([100C:0](=O)N6CCCC(n7nc(-c8ccc(Oc9ccc(F)cc9F)cc8)c(C(N)=O)c7N)C6)CC5)cc(OC)c4C(C)C3)ccc2CC1C(=O)NC1CCCc2ccccc21)C(C)(C)C

> <Shape>
0.235

> <Color>
0.090

> <Negative vol penalty>
0.000

$$$$

  -OEChem-04052322143D

 91101  0     1  0  0  0  0  0999 V2000
  -25.5827  -39.3076   21.1113 C   0  0  0  0  0  0  0  0  0  0  0  0
  -25.9277  -38.0432   20.6448 C   0  0  0  0  0  0  0  0  0  0  0  0
  -24.5011   -8.8236   22.4807 C   0  0  0  0  0  0  0  0  0  0  0  0
  -24.9295   -7.6642   20.4048 C   0  0  0  0  0  0  0  0  0  0  0  0
  -25.1893  -39.4764   22.4383 C   0  0  0  0  0  0  0  0  0  0  0  0
  -25.8805  -36.9469   21.5052 C   0  0  0  0  0  0  0  0  0  0  0  0
  -24.3506  -31.1957   20.0599 C   0  0  0  0  0  0  0  0  0  0  0  0
  -23.1882   -8.3525   22.4729 C   0  0  0  0  0  0  0  0  0  0  0  0
  -23.6166   -7.1929   20.3971 C   0  0  0  0  0  0  0  0  0  0  0  0
  -25.1151  -30.0652   19.7748 C   0  0  0  0  0  0  0  0  0  0  0  0
  -20.4827   -5.3896   20.0168 C   0  0  0  0  0  0  0  0  0  0  0  0
  -20.2773   -4.0448   19.7086 C   0  0  0  0  0  0  0  0  0  0  0  0
  -30.6981  -22.1735   21.0480 C   0  0  0  0  0  0  0  0  0  0  0  0
  -28.9972  -21.6675   19.4085 C   0  0  0  0  0  0  0  0  0  0  0  0
  -24.9047  -29.3516   22.0696 C   0  0  0  0  0  0  0  0  0  0  0  0
  -21.6320   -3.4037   21.6036 C   0  0  0  0  0  0  0  0  0  0  0  0
  -25.3717   -8.4795   21.4466 C   0  0  0  0  0  0  0  0  0  0  0  0
  -27.8509   -8.3453   22.0322 C   0  0  0  0  0  0  0  0  0  0  0  0
  -25.1280  -38.3800   23.3128 C   0  0  0  0  0  0  0  0  0  0  0  0
  -23.8658  -31.4186   21.3567 C   0  0  0  0  0  0  0  0  0  0  0  0
  -25.4872  -37.1014   22.8454 C   0  0  0  0  0  0  0  0  0  0  0  0
  -29.6909  -22.5985   20.1816 C   0  0  0  0  0  0  0  0  0  0  0  0
  -24.1321  -30.4844   22.3679 C   0  0  0  0  0  0  0  0  0  0  0  0
  -30.3180  -19.8865   20.3681 C   0  0  0  0  0  0  0  0  0  0  0  0
  -31.0117  -20.8175   21.1411 C   0  0  0  0  0  0  0  0  0  0  0  0
  -22.7460   -7.5371   21.4312 C   0  0  0  0  0  0  0  0  0  0  0  0
  -25.3947  -29.1444   20.7804 C   0  0  0  0  0  0  0  0  0  0  0  0
  -21.2628   -5.7415   21.1183 C   0  0  0  0  0  0  0  0  0  0  0  0
  -29.3108  -20.3115   19.5017 C   0  0  0  0  0  0  0  0  0  0  0  0
  -20.8519   -3.0519   20.5020 C   0  0  0  0  0  0  0  0  0  0  0  0
  -21.8374   -4.7485   21.9117 C   0  0  0  0  0  0  0  0  0  0  0  0
  -26.7278   -8.9664   21.4537 C   0  0  0  0  0  0  0  0  0  0  0  0
  -28.8914   -9.2020   21.7674 C   0  0  0  0  0  0  0  0  0  0  0  0
  -27.9453   -7.1049   22.7450 C   0  0  0  0  0  0  0  0  0  0  0  0
  -24.2879  -33.6786   23.5517 C   0  0  0  0  0  0  0  0  0  0  0  0
  -21.9857  -32.0277   25.1319 C   0  0  0  0  0  0  0  0  0  0  0  0
  -20.3616  -29.0660   25.6189 C   0  0  0  0  0  0  0  0  0  0  0  0
  -28.8740  -15.0753   20.7660 C   0  0  0  0  0  0  0  0  0  0  0  0
  -24.7423  -38.6195   24.7511 C   0  0  0  0  0  0  0  0  0  0  0  0
  -23.0201  -32.6294   21.6418 C   0  0  0  0  0  0  0  0  0  0  0  0
  -23.6179  -30.6671   23.7717 C   0  0  0  0  0  0  0  0  0  0  0  0
  -24.3586  -37.3452   25.4991 C   0  0  0  0  0  0  0  0  0  0  0  0
  -30.3577  -12.4677   18.6185 C   0  0  0  0  0  0  0  0  0  0  0  0
  -25.3776  -36.2420   25.2319 C   0  0  0  0  0  0  0  0  0  0  0  0
  -29.6437  -11.2217   19.1342 C   0  0  0  0  0  0  0  0  0  0  0  0
  -29.5268  -24.6462   18.6785 C   0  0  0  0  0  0  0  0  0  0  0  0
  -30.6275  -17.7672   21.8121 C   0  0  0  0  0  0  0  0  0  0  0  0
  -29.4645  -13.7062   18.6775 C   0  0  0  0  0  0  0  0  0  0  0  0
  -28.1735  -12.7123   20.5455 C   0  0  0  0  0  0  0  0  0  0  0  0
  -28.8318  -25.9923   18.7632 C   0  0  0  0  0  0  0  0  0  0  0  0
  -29.3513  -24.0673   20.0804 C   0  0  1  0  0  0  0  0  0  0  0  0
  -30.6512  -18.4319   20.4643 C   0  0  1  0  0  0  0  0  0  0  0  0
  -25.4248  -35.8836   23.7417 C   0  0  1  0  0  0  0  0  0  0  0  0
  -23.0104  -33.0176   23.1171 C   0  0  1  0  0  0  0  0  0  0  0  0
  -29.0724  -11.4663   20.5392 C   0  0  1  0  0  0  0  0  0  0  0  0
  -29.5536  -17.4561   20.8120 C   0  0  1  0  0  0  0  0  0  0  0  0
  -27.8897  -24.4110   20.3950 C   0  0  1  0  0  0  0  0  0  0  0  0
  -32.0945  -20.3900   22.0777 C   0  0  0  0  0  0  0  0  0  0  0  0
  -27.5810  -24.4742   21.8831 C   0  0  0  0  0  0  0  0  0  0  0  0
  -18.5512  -28.0166   27.0041 C   0  0  0  0  0  0  0  0  0  0  0  0
  -23.8820  -31.9137   27.5196 C   0  0  0  0  0  0  0  0  0  0  0  0
  -22.4533  -30.0952   28.4788 C   0  0  0  0  0  0  0  0  0  0  0  0
  -21.4933  -32.3672   28.1053 C   0  0  0  0  0  0  0  0  0  0  0  0
  -18.7382  -28.4325   23.2268 C   0  0  0  0  0  0  0  0  0  0  0  0
  -29.1493  -19.1268   17.4459 C   0  0  0  0  0  0  0  0  0  0  0  0
  -26.3471  -26.0286   19.2039 C   0  0  0  0  0  0  0  0  0  0  0  0
  -26.0628  -27.5175   19.1795 C   0  0  0  0  0  0  0  0  0  1  0  0
  -21.9757  -30.8830   26.1161 C   0  0  1  0  0  0  0  0  0  0  0  0
  -18.8837  -28.7295   25.7025 C   0  0  2  0  0  0  0  0  0  0  0  0
  -22.4626  -31.3120   27.5291 C   0  0  0  0  0  0  0  0  0  0  0  0
  -27.0265  -10.1280   20.8660 N   0  0  0  0  0  0  0  0  0  0  0  0
  -28.3492  -10.2437   21.0738 N   0  0  0  0  0  0  0  0  0  0  0  0
  -22.8009  -31.8699   24.0021 N   0  0  0  0  0  0  0  0  0  0  0  0
  -28.8767  -13.8864   20.0143 N   0  0  0  0  0  0  0  0  0  0  0  0
  -30.2079   -9.1584   22.0627 N   0  0  0  0  0  0  0  0  0  0  0  0
  -26.7794   -6.3488   22.9276 N   0  0  0  0  0  0  0  0  0  0  0  0
  -24.2960  -35.0504   23.3863 N   0  0  0  0  0  0  0  0  0  0  0  0
  -20.6240  -30.3347   26.0908 N   0  0  0  0  0  0  0  0  0  0  0  0
  -29.4843  -16.1718   20.1675 N   0  0  0  0  0  0  0  0  0  0  0  0
  -27.7138  -25.7952   19.7726 N   0  3  2  0  0  0  0  0  0  0  0  0
  -18.4885  -27.8465   24.5689 N   0  3  0  0  0  0  0  0  0  0  0  0
  -29.0285   -6.6876   23.2207 O   0  0  0  0  0  0  0  0  0  0  0  0
  -25.1981  -32.9947   24.0050 O   0  0  0  0  0  0  0  0  0  0  0  0
  -21.2902  -33.0220   25.3537 O   0  0  0  0  0  0  0  0  0  0  0  0
  -21.1999  -28.2804   25.1824 O   0  0  0  0  0  0  0  0  0  0  0  0
  -28.3603  -15.1577   21.8872 O   0  0  0  0  0  0  0  0  0  0  0  0
  -21.4651   -7.0770   21.4234 O   0  0  0  0  0  0  0  0  0  0  0  0
  -28.6213  -19.4179   18.7383 O   0  0  0  0  0  0  0  0  0  0  0  0
  -26.1412  -28.0404   20.5050 O   0  0  0  0  0  0  0  0  0  1  0  0
  -20.6534   -1.7605   20.2068 F   0  0  0  0  0  0  0  0  0  0  0  0
  -22.5868   -5.0804   22.9720 F   0  0  0  0  0  0  0  0  0  0  0  0
  1  2  1  0  0  0  0
  1  5  2  0  0  0  0
  2  6  2  0  0  0  0
  3  8  2  0  0  0  0
  3 17  1  0  0  0  0
  4  9  1  0  0  0  0
  4 17  2  0  0  0  0
  5 19  1  0  0  0  0
  6 21  1  0  0  0  0
  7 10  2  0  0  0  0
  7 20  1  0  0  0  0
  8 26  1  0  0  0  0
  9 26  2  0  0  0  0
 10 27  1  0  0  0  0
 11 12  2  0  0  0  0
 11 28  1  0  0  0  0
 12 30  1  0  0  0  0
 13 22  1  0  0  0  0
 13 25  2  0  0  0  0
 14 22  2  0  0  0  0
 14 29  1  0  0  0  0
 15 23  1  0  0  0  0
 15 27  2  0  0  0  0
 16 30  2  0  0  0  0
 16 31  1  0  0  0  0
 17 32  1  0  0  0  0
 18 32  1  0  0  0  0
 18 33  2  0  0  0  0
 18 34  1  0  0  0  0
 19 21  2  0  0  0  0
 19 39  1  0  0  0  0
 20 23  2  0  0  0  0
 20 40  1  0  0  0  0
 21 53  1  0  0  0  0
 22 51  1  0  0  0  0
 23 41  1  0  0  0  0
 24 25  1  0  0  0  0
 24 29  2  0  0  0  0
 24 52  1  0  0  0  0
 25 58  1  0  0  0  0
 26 87  1  0  0  0  0
 27 89  1  0  0  0  0
 28 31  2  0  0  0  0
 28 87  1  0  0  0  0
 29 88  1  0  0  0  0
 30 90  1  0  0  0  0
 31 91  1  0  0  0  0
 32 71  2  0  0  0  0
 33 72  1  0  0  0  0
 33 75  1  0  0  0  0
 34 76  1  0  0  0  0
 34 82  2  0  0  0  0
 35 54  1  0  0  0  0
 35 77  1  0  0  0  0
 35 83  2  0  0  0  0
 36 68  1  0  0  0  0
 36 73  1  0  0  0  0
 36 84  2  0  0  0  0
 37 69  1  0  0  0  0
 37 78  1  0  0  0  0
 37 85  2  0  0  0  0
 38 74  1  0  0  0  0
 38 79  1  0  0  0  0
 38 86  2  0  0  0  0
 39 42  1  0  0  0  0
 40 54  1  0  0  0  0
 41 73  1  0  0  0  0
 42 44  1  0  0  0  0
 43 45  1  0  0  0  0
 43 48  1  0  0  0  0
 44 53  1  0  0  0  0
 45 55  1  0  0  0  0
 46 50  1  0  0  0  0
 46 51  1  0  0  0  0
 47 52  1  0  0  0  0
 47 56  1  0  0  0  0
 48 74  1  0  0  0  0
 49 55  1  0  0  0  0
 49 74  1  0  0  0  0
 50 80  1  0  0  0  0
 51 57  1  0  0  0  0
 52 56  1  0  0  0  0
 53 77  1  0  0  0  0
 54 73  1  0  0  0  0
 55 72  1  0  0  0  0
 56 79  1  0  0  0  0
 57 59  1  0  0  0  0
 57 80  1  0  0  0  0
 60 69  1  0  0  0  0
 61 70  1  0  0  0  0
 62 70  1  0  0  0  0
 63 70  1  0  0  0  0
 64 81  1  0  0  0  0
 65 88  1  0  0  0  0
 66 67  1  0  0  0  0
 66 80  1  0  0  0  0
 67 89  1  0  0  0  0
 68 70  1  0  0  0  0
 68 78  1  0  0  0  0
 69 81  1  0  0  0  0
 71 72  1  0  0  0  0
M  CHG  2  80   1  81   1
M  ISO  4  38 100  67 101  79 100  89 101
M  END
> <Batch ID>
0162

> <Smiles>
CNC(C)C(=O)NC(C(=O)N1Cc2cc([101O:1][101CH2:1]CN3CCC(c4cc(C)c(C5CC5[100NH:0][100C:0](=O)N5CCCC(n6nc(-c7ccc(Oc8ccc(F)cc8F)cc7)c(C(N)=O)c6N)C5)c(OC)c4)C3C)ccc2CC1C(=O)NC1CCCc2ccccc21)C(C)(C)C

> <Shape>
0.270

> <Color>
0.055

> <Negative vol penalty>
0.000

$$$$

  -OEChem-04052322143D

 89 98  0     1  0  0  0  0  0999 V2000
  -23.2955  -23.3603   24.0088 C   0  0  0  0  0  0  0  0  0  0  0  0
  -23.3268  -21.9789   23.8555 C   0  0  0  0  0  0  0  0  0  0  0  0
  -25.6471  -29.6355   21.2722 C   0  0  0  0  0  0  0  0  0  0  0  0
  -25.6522  -28.0072   19.4873 C   0  0  0  0  0  0  0  0  0  0  0  0
  -24.0148  -24.1714   23.1336 C   0  0  0  0  0  0  0  0  0  0  0  0
  -24.0869  -21.4075   22.8344 C   0  0  0  0  0  0  0  0  0  0  0  0
  -24.4670  -16.5025   22.8082 C   0  0  0  0  0  0  0  0  0  0  0  0
  -27.0318  -29.5136   21.3875 C   0  0  0  0  0  0  0  0  0  0  0  0
  -27.0370  -27.8854   19.6025 C   0  0  0  0  0  0  0  0  0  0  0  0
  -23.4073  -15.6663   22.4596 C   0  0  0  0  0  0  0  0  0  0  0  0
  -29.2397  -26.3246   21.6379 C   0  0  0  0  0  0  0  0  0  0  0  0
  -29.7798  -25.0386   21.6321 C   0  0  0  0  0  0  0  0  0  0  0  0
  -24.4220  -15.2891   20.3039 C   0  0  0  0  0  0  0  0  0  0  0  0
  -31.0695  -25.5891   19.6647 C   0  0  0  0  0  0  0  0  0  0  0  0
  -18.9876  -14.6828   21.1793 C   0  0  0  0  0  0  0  0  0  0  0  0
  -24.9572  -28.8823   20.3222 C   0  0  0  0  0  0  0  0  0  0  0  0
  -22.8173  -29.9045   19.3823 C   0  0  0  0  0  0  0  0  0  0  0  0
  -24.7738  -23.6094   22.0939 C   0  0  0  0  0  0  0  0  0  0  0  0
  -25.5084  -16.7474   21.9016 C   0  0  0  0  0  0  0  0  0  0  0  0
  -24.8388  -22.2080   21.9556 C   0  0  0  0  0  0  0  0  0  0  0  0
  -25.4950  -16.1268   20.6443 C   0  0  0  0  0  0  0  0  0  0  0  0
  -18.4565  -16.7052   20.3439 C   0  0  0  0  0  0  0  0  0  0  0  0
  -18.2551  -15.8215   21.4327 C   0  0  0  0  0  0  0  0  0  0  0  0
  -27.7267  -28.6386   20.5526 C   0  0  0  0  0  0  0  0  0  0  0  0
  -23.3832  -15.0617   21.2062 C   0  0  0  0  0  0  0  0  0  0  0  0
  -29.6145  -27.2429   20.6571 C   0  0  0  0  0  0  0  0  0  0  0  0
  -30.6947  -24.6708   20.6455 C   0  0  0  0  0  0  0  0  0  0  0  0
  -30.5293  -26.8751   19.6705 C   0  0  0  0  0  0  0  0  0  0  0  0
  -23.5268  -29.0073   20.2030 C   0  0  0  0  0  0  0  0  0  0  0  0
  -19.3058  -16.0796   19.4580 C   0  0  0  0  0  0  0  0  0  0  0  0
  -21.4956  -29.6259   19.6314 C   0  0  0  0  0  0  0  0  0  0  0  0
  -23.3090  -30.9005   18.4757 C   0  0  0  0  0  0  0  0  0  0  0  0
  -26.6490  -19.3291   20.4396 C   0  0  0  0  0  0  0  0  0  0  0  0
  -28.9364  -17.2654   19.4240 C   0  0  0  0  0  0  0  0  0  0  0  0
  -29.8417  -14.0433   18.7566 C   0  0  0  0  0  0  0  0  0  0  0  0
  -18.6589  -24.7288   21.5864 C   0  0  0  0  0  0  0  0  0  0  0  0
  -25.5394  -24.5336   21.1801 C   0  0  0  0  0  0  0  0  0  0  0  0
  -26.6578  -17.6308   22.3028 C   0  0  0  0  0  0  0  0  0  0  0  0
  -26.5990  -16.3411   19.6424 C   0  0  0  0  0  0  0  0  0  0  0  0
  -25.9516  -23.8682   19.8711 C   0  0  0  0  0  0  0  0  0  0  0  0
  -18.6000  -27.9690   23.0609 C   0  0  0  0  0  0  0  0  0  0  0  0
  -26.6159  -22.5294   20.1552 C   0  0  0  0  0  0  0  0  0  0  0  0
  -19.7920  -28.6835   22.4216 C   0  0  0  0  0  0  0  0  0  0  0  0
  -17.4192  -18.8587   21.4209 C   0  0  0  0  0  0  0  0  0  0  0  0
  -18.8952  -26.4916   23.3105 C   0  0  0  0  0  0  0  0  0  0  0  0
  -20.5541  -26.4593   21.4883 C   0  0  0  0  0  0  0  0  0  0  0  0
  -17.8493  -18.0919   20.1803 C   0  0  1  0  0  0  0  0  0  0  0  0
  -25.6341  -21.5656   20.8334 C   0  0  1  0  0  0  0  0  0  0  0  0
  -27.4057  -18.2171   21.1094 C   0  0  1  0  0  0  0  0  0  0  0  0
  -20.2844  -27.9391   21.1659 C   0  0  2  0  0  0  0  0  0  0  0  0
  -18.6338  -19.3020   20.6644 C   0  0  1  0  0  0  0  0  0  0  0  0
  -17.4187  -16.0644   22.6246 C   0  0  0  0  0  0  0  0  0  0  0  0
  -20.7240  -17.8091   18.2957 C   0  0  0  0  0  0  0  0  0  0  0  0
  -18.7426  -16.7991   17.1088 C   0  0  0  0  0  0  0  0  0  0  0  0
  -31.7629  -12.6737   17.9019 C   0  0  0  0  0  0  0  0  0  0  0  0
  -17.1292  -23.3666   19.3198 C   0  0  0  0  0  0  0  0  0  0  0  0
  -28.3118  -18.1698   16.5776 C   0  0  0  0  0  0  0  0  0  0  0  0
  -29.5304  -16.1485   15.7424 C   0  0  0  0  0  0  0  0  0  0  0  0
  -30.7464  -17.8764   17.0684 C   0  0  0  0  0  0  0  0  0  0  0  0
  -30.0477  -12.5363   21.2953 C   0  0  0  0  0  0  0  0  0  0  0  0
  -20.5267  -13.8262   19.3360 C   0  0  0  0  0  0  0  0  0  0  0  0
  -18.6177  -21.7996   20.6779 C   0  0  0  0  0  0  0  0  0  0  0  0
  -22.0018  -14.1843   19.4806 C   0  0  0  0  0  0  0  0  0  1  0  0
  -19.8444  -16.5455   18.1623 C   0  0  0  0  0  0  0  0  0  0  0  0
  -29.0997  -16.3520   18.2332 C   0  0  1  0  0  0  0  0  0  0  0  0
  -31.0771  -13.2456   19.1330 C   0  0  2  0  0  0  0  0  0  0  0  0
  -18.5456  -23.0327   19.7781 C   0  0  2  0  0  0  0  0  0  0  0  0
  -29.4001  -17.1339   16.9233 C   0  0  0  0  0  0  0  0  0  0  0  0
  -22.7224  -28.2181   20.9200 N   0  0  0  0  0  0  0  0  0  0  0  0
  -19.6219  -14.8508   19.9761 N   0  0  0  0  0  0  0  0  0  0  0  0
  -21.4939  -28.6184   20.5507 N   0  0  0  0  0  0  0  0  0  0  0  0
  -27.6977  -17.2183   20.0792 N   0  0  0  0  0  0  0  0  0  0  0  0
  -19.3561  -25.8437   22.0802 N   0  0  0  0  0  0  0  0  0  0  0  0
  -20.3464  -30.1471   19.1517 N   0  0  0  0  0  0  0  0  0  0  0  0
  -24.6954  -31.0545   18.3402 N   0  0  0  0  0  0  0  0  0  0  0  0
  -26.3538  -20.3907   21.2734 N   0  0  0  0  0  0  0  0  0  0  0  0
  -30.1271  -15.3832   18.5998 N   0  0  0  0  0  0  0  0  0  0  0  0
  -19.1583  -24.1787   20.4121 N   0  0  0  0  0  0  0  0  0  0  0  0
  -18.5370  -20.5383   19.8794 N   0  3  0  0  0  0  0  0  0  0  0  0
  -30.7101  -12.1164   20.0336 N   0  3  0  0  0  0  0  0  0  0  0  0
  -22.5416  -31.6434   17.8179 O   0  0  0  0  0  0  0  0  0  0  0  0
  -26.3561  -19.2319   19.2537 O   0  0  0  0  0  0  0  0  0  0  0  0
  -29.8758  -17.9886   19.7648 O   0  0  0  0  0  0  0  0  0  0  0  0
  -28.7349  -13.5287   18.6122 O   0  0  0  0  0  0  0  0  0  0  0  0
  -17.6618  -24.2616   22.1472 O   0  0  0  0  0  0  0  0  0  0  0  0
  -29.0780  -28.5195   20.6646 O   0  0  0  0  0  0  0  0  0  0  0  0
  -22.3498  -14.2455   20.8632 O   0  0  0  0  0  0  0  0  0  1  0  0
  -31.2144  -23.4363   20.6410 F   0  0  0  0  0  0  0  0  0  0  0  0
  -30.8941  -27.7533   18.7262 F   0  0  0  0  0  0  0  0  0  0  0  0
  1  2  1  0  0  0  0
  1  5  2  0  0  0  0
  2  6  2  0  0  0  0
  3  8  2  0  0  0  0
  3 16  1  0  0  0  0
  4  9  1  0  0  0  0
  4 16  2  0  0  0  0
  5 18  1  0  0  0  0
  6 20  1  0  0  0  0
  7 10  2  0  0  0  0
  7 19  1  0  0  0  0
  8 24  1  0  0  0  0
  9 24  2  0  0  0  0
 10 25  1  0  0  0  0
 11 12  2  0  0  0  0
 11 26  1  0  0  0  0
 12 27  1  0  0  0  0
 13 21  1  0  0  0  0
 13 25  2  0  0  0  0
 14 27  2  0  0  0  0
 14 28  1  0  0  0  0
 15 23  2  0  0  0  0
 15 70  1  0  0  0  0
 16 29  1  0  0  0  0
 17 29  1  0  0  0  0
 17 31  2  0  0  0  0
 17 32  1  0  0  0  0
 18 20  2  0  0  0  0
 18 37  1  0  0  0  0
 19 21  2  0  0  0  0
 19 38  1  0  0  0  0
 20 48  1  0  0  0  0
 21 39  1  0  0  0  0
 22 23  1  0  0  0  0
 22 30  2  0  0  0  0
 22 47  1  0  0  0  0
 23 52  1  0  0  0  0
 24 86  1  0  0  0  0
 25 87  1  0  0  0  0
 26 28  2  0  0  0  0
 26 86  1  0  0  0  0
 27 88  1  0  0  0  0
 28 89  1  0  0  0  0
 29 69  2  0  0  0  0
 30 64  1  0  0  0  0
 30 70  1  0  0  0  0
 31 71  1  0  0  0  0
 31 74  1  0  0  0  0
 32 75  1  0  0  0  0
 32 81  2  0  0  0  0
 33 49  1  0  0  0  0
 33 76  1  0  0  0  0
 33 82  2  0  0  0  0
 34 65  1  0  0  0  0
 34 72  1  0  0  0  0
 34 83  2  0  0  0  0
 35 66  1  0  0  0  0
 35 77  1  0  0  0  0
 35 84  2  0  0  0  0
 36 73  1  0  0  0  0
 36 78  1  0  0  0  0
 36 85  2  0  0  0  0
 37 40  1  0  0  0  0
 38 49  1  0  0  0  0
 39 72  1  0  0  0  0
 40 42  1  0  0  0  0
 41 43  1  0  0  0  0
 41 45  1  0  0  0  0
 42 48  1  0  0  0  0
 43 50  1  0  0  0  0
 44 47  1  0  0  0  0
 44 51  1  0  0  0  0
 45 73  1  0  0  0  0
 46 50  1  0  0  0  0
 46 73  1  0  0  0  0
 47 51  1  0  0  0  0
 48 76  1  0  0  0  0
 49 72  1  0  0  0  0
 50 71  1  0  0  0  0
 51 79  1  0  0  0  0
 53 64  1  0  0  0  0
 54 64  1  0  0  0  0
 55 66  1  0  0  0  0
 56 67  1  0  0  0  0
 57 68  1  0  0  0  0
 58 68  1  0  0  0  0
 59 68  1  0  0  0  0
 60 80  1  0  0  0  0
 61 63  1  0  0  0  0
 61 70  1  0  0  0  0
 62 67  1  0  0  0  0
 62 79  1  0  0  0  0
 63 87  1  0  0  0  0
 65 68  1  0  0  0  0
 65 77  1  0  0  0  0
 66 80  1  0  0  0  0
 67 78  1  0  0  0  0
 69 71  1  0  0  0  0
M  CHG  2  79   1  80   1
M  ISO  4  36 100  63 101  78 100  87 101
M  END
> <Batch ID>
0162

> <Smiles>
CNC(C)C(=O)NC(C(=O)N1Cc2cc([101O:1][101CH2:1]Cn3cc(C)c(C4CC4NCC(C)[100NH:0][100C:0](=O)N4CCCC(n5nc(-c6ccc(Oc7ccc(F)cc7F)cc6)c(C(N)=O)c5N)C4)c3C(C)C)ccc2CC1C(=O)NC1CCCc2ccccc21)C(C)(C)C

> <Shape>
0.202

> <Color>
0.055

> <Negative vol penalty>
0.000

$$$$

  -OEChem-04052322143D

 82 91  0     1  0  0  0  0  0999 V2000
  -16.0427  -18.7959   14.8392 C   0  0  0  0  0  0  0  0  0  0  0  0
  -17.2230  -18.8208   15.5752 C   0  0  0  0  0  0  0  0  0  0  0  0
  -23.0602   -9.8901   19.9681 C   0  0  0  0  0  0  0  0  0  0  0  0
  -23.9302   -9.8790   22.2220 C   0  0  0  0  0  0  0  0  0  0  0  0
  -15.4229  -19.9912   14.4773 C   0  0  0  0  0  0  0  0  0  0  0  0
  -17.7848  -20.0411   15.9487 C   0  0  0  0  0  0  0  0  0  0  0  0
  -19.3105  -20.0806   20.7774 C   0  0  0  0  0  0  0  0  0  0  0  0
  -26.5049  -18.2171   23.3897 C   0  0  0  0  0  0  0  0  0  0  0  0
  -22.3425   -8.7253   20.2393 C   0  0  0  0  0  0  0  0  0  0  0  0
  -23.2125   -8.7141   22.4932 C   0  0  0  0  0  0  0  0  0  0  0  0
  -20.5162  -19.4444   21.0694 C   0  0  0  0  0  0  0  0  0  0  0  0
  -20.0266   -7.8706   23.2410 C   0  0  0  0  0  0  0  0  0  0  0  0
  -19.3278   -7.8078   24.4465 C   0  0  0  0  0  0  0  0  0  0  0  0
  -25.3770  -19.0005   23.1721 C   0  0  0  0  0  0  0  0  0  0  0  0
  -21.6335  -21.5823   21.0853 C   0  0  0  0  0  0  0  0  0  0  0  0
  -20.6254   -5.8767   25.0980 C   0  0  0  0  0  0  0  0  0  0  0  0
  -27.1554  -18.6205   21.1379 C   0  0  0  0  0  0  0  0  0  0  0  0
  -23.8541  -10.4670   20.9594 C   0  0  0  0  0  0  0  0  0  0  0  0
  -24.1610  -12.9973   20.8544 C   0  0  0  0  0  0  0  0  0  0  0  0
  -27.4160  -18.0185   22.3583 C   0  0  0  0  0  0  0  0  0  0  0  0
  -15.9723  -21.2266   14.8548 C   0  0  0  0  0  0  0  0  0  0  0  0
  -19.2593  -21.4738   20.6261 C   0  0  0  0  0  0  0  0  0  0  0  0
  -17.1725  -21.2541   15.5903 C   0  0  0  0  0  0  0  0  0  0  0  0
  -20.4255  -22.2340   20.7939 C   0  0  0  0  0  0  0  0  0  0  0  0
  -22.4186   -8.1373   21.5019 C   0  0  0  0  0  0  0  0  0  0  0  0
  -21.6785  -20.1949   21.2205 C   0  0  0  0  0  0  0  0  0  0  0  0
  -21.0248   -6.9365   22.9639 C   0  0  0  0  0  0  0  0  0  0  0  0
  -19.6272   -6.8108   25.3751 C   0  0  0  0  0  0  0  0  0  0  0  0
  -21.3242   -5.9396   23.8925 C   0  0  0  0  0  0  0  0  0  0  0  0
  -24.5962  -11.6700   20.6796 C   0  0  0  0  0  0  0  0  0  0  0  0
  -25.2078  -19.5587   21.9153 C   0  0  0  0  0  0  0  0  0  0  0  0
  -25.2256  -13.7641   20.4481 C   0  0  0  0  0  0  0  0  0  0  0  0
  -22.9065  -13.4929   21.3406 C   0  0  0  0  0  0  0  0  0  0  0  0
  -18.5049  -23.4458   18.2500 C   0  0  0  0  0  0  0  0  0  0  0  0
  -18.8627  -25.7156   20.5397 C   0  0  0  0  0  0  0  0  0  0  0  0
  -20.2593  -26.6348   23.5148 C   0  0  0  0  0  0  0  0  0  0  0  0
  -30.7609  -14.6702   20.7190 C   0  0  0  0  0  0  0  0  0  0  0  0
  -15.2916  -22.4932   14.3998 C   0  0  0  0  0  0  0  0  0  0  0  0
  -17.9458  -22.1475   20.3375 C   0  0  0  0  0  0  0  0  0  0  0  0
  -20.4200  -23.7343   20.6616 C   0  0  0  0  0  0  0  0  0  0  0  0
  -15.7510  -23.7371   15.1560 C   0  0  0  0  0  0  0  0  0  0  0  0
  -29.4927  -12.5048   18.0359 C   0  0  0  0  0  0  0  0  0  0  0  0
  -17.2727  -23.7690   15.2568 C   0  0  0  0  0  0  0  0  0  0  0  0
  -28.0833  -12.1655   18.5278 C   0  0  0  0  0  0  0  0  0  0  0  0
  -30.0077  -17.8484   22.3129 C   0  0  0  0  0  0  0  0  0  0  0  0
  -30.4608  -12.7513   19.1917 C   0  0  0  0  0  0  0  0  0  0  0  0
  -30.9644  -16.6756   22.1683 C   0  0  0  0  0  0  0  0  0  0  0  0
  -28.7429  -15.9425   21.6423 C   0  0  0  0  0  0  0  0  0  0  0  0
  -28.5966  -13.3827   20.6727 C   0  0  0  0  0  0  0  0  0  0  0  0
  -28.6530  -17.1712   22.5628 C   0  0  2  0  0  0  0  0  0  0  0  0
  -17.7995  -22.5575   16.0355 C   0  0  1  0  0  0  0  0  0  0  0  0
  -18.1076  -23.5226   19.6970 C   0  0  1  0  0  0  0  0  0  0  0  0
  -27.5774  -13.2137   19.5383 C   0  0  2  0  0  0  0  0  0  0  0  0
  -20.3994  -28.5649   25.1123 C   0  0  0  0  0  0  0  0  0  0  0  0
  -20.8076  -27.1273   18.6597 C   0  0  0  0  0  0  0  0  0  0  0  0
  -21.6143  -28.4684   20.6139 C   0  0  0  0  0  0  0  0  0  0  0  0
  -19.2391  -28.6504   19.8738 C   0  0  0  0  0  0  0  0  0  0  0  0
  -19.0310  -25.0641   25.7018 C   0  0  0  0  0  0  0  0  0  0  0  0
  -24.0088  -20.4055   21.6466 C   0  0  0  0  0  0  0  0  0  1  0  0
  -20.0140  -26.5496   21.0476 C   0  0  1  0  0  0  0  0  0  0  0  0
  -19.6621  -27.2852   24.7496 C   0  0  2  0  0  0  0  0  0  0  0  0
  -20.4196  -27.6705   20.0494 C   0  0  0  0  0  0  0  0  0  0  0  0
  -26.0709  -19.3882   20.8889 N   0  0  0  0  0  0  0  0  0  0  0  0
  -25.8403  -11.5942   20.1996 N   0  0  0  0  0  0  0  0  0  0  0  0
  -26.1959  -12.8837   20.0691 N   0  0  0  0  0  0  0  0  0  0  0  0
  -19.1124  -24.3461   20.3726 N   0  0  0  0  0  0  0  0  0  0  0  0
  -29.9113  -13.7308   20.1268 N   0  0  0  0  0  0  0  0  0  0  0  0
  -30.1696  -15.6195   21.5564 N   0  0  0  0  0  0  0  0  0  0  0  0
  -25.4171  -15.0987   20.3816 N   0  0  0  0  0  0  0  0  0  0  0  0
  -21.9225  -12.5677   21.7150 N   0  0  0  0  0  0  0  0  0  0  0  0
  -17.6119  -22.7502   17.4575 N   0  0  0  0  0  0  0  0  0  0  0  0
  -19.6155  -27.0370   22.3637 N   0  0  0  0  0  0  0  0  0  0  0  0
  -19.7353  -26.3552   25.9117 N   0  3  0  0  0  0  0  0  0  0  0  0
  -22.6593  -14.7198   21.4246 O   0  0  0  0  0  0  0  0  0  0  0  0
  -19.5440  -23.9795   17.8797 O   0  0  0  0  0  0  0  0  0  0  0  0
  -17.7796  -26.2581   20.3066 O   0  0  0  0  0  0  0  0  0  0  0  0
  -21.2049  -25.8513   23.5659 O   0  0  0  0  0  0  0  0  0  0  0  0
  -31.9721  -14.6898   20.4670 O   0  0  0  0  0  0  0  0  0  0  0  0
  -21.7182   -7.0008   21.7670 O   0  0  0  0  0  0  0  0  0  0  0  0
  -22.8650  -19.5721   21.5069 O   0  0  0  0  0  0  0  0  0  1  0  0
  -18.9571   -6.7515   26.5333 F   0  0  0  0  0  0  0  0  0  0  0  0
  -22.2829   -5.0401   23.6324 F   0  0  0  0  0  0  0  0  0  0  0  0
  1  2  1  0  0  0  0
  1  5  2  0  0  0  0
  2  6  2  0  0  0  0
  3  9  2  0  0  0  0
  3 18  1  0  0  0  0
  4 10  1  0  0  0  0
  4 18  2  0  0  0  0
  5 21  1  0  0  0  0
  6 23  1  0  0  0  0
  7 11  2  0  0  0  0
  7 22  1  0  0  0  0
  8 14  2  0  0  0  0
  8 20  1  0  0  0  0
  9 25  1  0  0  0  0
 10 25  2  0  0  0  0
 11 26  1  0  0  0  0
 12 13  2  0  0  0  0
 12 27  1  0  0  0  0
 13 28  1  0  0  0  0
 14 31  1  0  0  0  0
 15 24  1  0  0  0  0
 15 26  2  0  0  0  0
 16 28  2  0  0  0  0
 16 29  1  0  0  0  0
 17 20  2  0  0  0  0
 17 63  1  0  0  0  0
 18 30  1  0  0  0  0
 19 30  1  0  0  0  0
 19 32  2  0  0  0  0
 19 33  1  0  0  0  0
 20 50  1  0  0  0  0
 21 23  2  0  0  0  0
 21 38  1  0  0  0  0
 22 24  2  0  0  0  0
 22 39  1  0  0  0  0
 23 51  1  0  0  0  0
 24 40  1  0  0  0  0
 25 79  1  0  0  0  0
 26 80  1  0  0  0  0
 27 29  2  0  0  0  0
 27 79  1  0  0  0  0
 28 81  1  0  0  0  0
 29 82  1  0  0  0  0
 30 64  2  0  0  0  0
 31 59  1  0  0  0  0
 31 63  2  0  0  0  0
 32 65  1  0  0  0  0
 32 69  1  0  0  0  0
 33 70  1  0  0  0  0
 33 74  2  0  0  0  0
 34 52  1  0  0  0  0
 34 71  1  0  0  0  0
 34 75  2  0  0  0  0
 35 60  1  0  0  0  0
 35 66  1  0  0  0  0
 35 76  2  0  0  0  0
 36 61  1  0  0  0  0
 36 72  1  0  0  0  0
 36 77  2  0  0  0  0
 37 67  1  0  0  0  0
 37 68  1  0  0  0  0
 37 78  2  0  0  0  0
 38 41  1  0  0  0  0
 39 52  1  0  0  0  0
 40 66  1  0  0  0  0
 41 43  1  0  0  0  0
 42 44  1  0  0  0  0
 42 46  1  0  0  0  0
 43 51  1  0  0  0  0
 44 53  1  0  0  0  0
 45 47  1  0  0  0  0
 45 50  1  0  0  0  0
 46 67  1  0  0  0  0
 47 68  1  0  0  0  0
 48 50  1  0  0  0  0
 48 68  1  0  0  0  0
 49 53  1  0  0  0  0
 49 67  1  0  0  0  0
 51 71  1  0  0  0  0
 52 66  1  0  0  0  0
 53 65  1  0  0  0  0
 54 61  1  0  0  0  0
 55 62  1  0  0  0  0
 56 62  1  0  0  0  0
 57 62  1  0  0  0  0
 58 73  1  0  0  0  0
 59 80  1  0  0  0  0
 60 62  1  0  0  0  0
 60 72  1  0  0  0  0
 61 73  1  0  0  0  0
 64 65  1  0  0  0  0
M  CHG  1  73   1
M  ISO  4  37 100  59 101  68 100  80 101
M  END
> <Batch ID>
0162

> <Smiles>
CNC(C)C(=O)NC(C(=O)N1Cc2cc([101O:1][101CH2:1]c3ccc(C4CC[100N:0]([100C:0](=O)N5CCCC(n6nc(-c7ccc(Oc8ccc(F)cc8F)cc7)c(C(N)=O)c6N)C5)C4)cn3)ccc2CC1C(=O)NC1CCCc2ccccc21)C(C)(C)C

> <Shape>
0.222

> <Color>
0.189

> <Negative vol penalty>
0.000

$$$$

  -OEChem-04052322143D

 85 94  0     1  0  0  0  0  0999 V2000
  -32.1593  -30.6644   27.4341 C   0  0  0  0  0  0  0  0  0  0  0  0
  -31.7018  -29.7392   26.5013 C   0  0  0  0  0  0  0  0  0  0  0  0
  -22.5859   -7.3024   18.3615 C   0  0  0  0  0  0  0  0  0  0  0  0
  -24.7538   -6.6499   19.2051 C   0  0  0  0  0  0  0  0  0  0  0  0
  -31.2475  -31.3878   28.2017 C   0  0  0  0  0  0  0  0  0  0  0  0
  -30.3321  -29.5361   26.3362 C   0  0  0  0  0  0  0  0  0  0  0  0
  -28.9714  -29.3344   21.4626 C   0  0  0  0  0  0  0  0  0  0  0  0
  -27.6008  -20.2297   22.0946 C   0  0  0  0  0  0  0  0  0  0  0  0
  -22.6831   -6.3338   17.3626 C   0  0  0  0  0  0  0  0  0  0  0  0
  -24.8510   -5.6813   18.2061 C   0  0  0  0  0  0  0  0  0  0  0  0
  -29.2227  -28.1450   20.7801 C   0  0  0  0  0  0  0  0  0  0  0  0
  -22.5198   -4.2741   14.3702 C   0  0  0  0  0  0  0  0  0  0  0  0
  -22.1614   -4.6401   13.0728 C   0  0  0  0  0  0  0  0  0  0  0  0
  -27.8472  -21.5948   21.9983 C   0  0  0  0  0  0  0  0  0  0  0  0
  -26.9162  -27.4996   21.0679 C   0  0  0  0  0  0  0  0  0  0  0  0
  -23.8745   -6.3437   13.0801 C   0  0  0  0  0  0  0  0  0  0  0  0
  -28.9474  -19.9031   20.1615 C   0  0  0  0  0  0  0  0  0  0  0  0
  -23.6213   -7.4605   19.2828 C   0  0  0  0  0  0  0  0  0  0  0  0
  -22.9738   -8.3036   21.6017 C   0  0  0  0  0  0  0  0  0  0  0  0
  -29.8657  -31.2004   28.0392 C   0  0  0  0  0  0  0  0  0  0  0  0
  -27.6910  -29.6110   21.9633 C   0  0  0  0  0  0  0  0  0  0  0  0
  -29.4010  -30.2567   27.1033 C   0  0  0  0  0  0  0  0  0  0  0  0
  -26.6506  -28.6944   21.7542 C   0  0  0  0  0  0  0  0  0  0  0  0
  -28.1577  -19.3610   21.1627 C   0  0  0  0  0  0  0  0  0  0  0  0
  -23.8156   -5.5232   17.2848 C   0  0  0  0  0  0  0  0  0  0  0  0
  -28.1957  -27.2261   20.5851 C   0  0  0  0  0  0  0  0  0  0  0  0
  -23.5555   -4.9429   15.0226 C   0  0  0  0  0  0  0  0  0  0  0  0
  -22.8387   -5.6748   12.4278 C   0  0  0  0  0  0  0  0  0  0  0  0
  -24.2329   -5.9776   14.3776 C   0  0  0  0  0  0  0  0  0  0  0  0
  -23.5218   -8.4612   20.3146 C   0  0  0  0  0  0  0  0  0  0  0  0
  -28.6510  -22.0369   20.9598 C   0  0  0  0  0  0  0  0  0  0  0  0
  -23.1172   -9.5368   22.1894 C   0  0  0  0  0  0  0  0  0  0  0  0
  -22.3875   -7.1460   22.2116 C   0  0  0  0  0  0  0  0  0  0  0  0
  -26.4708  -30.0948   24.8582 C   0  0  0  0  0  0  0  0  0  0  0  0
  -23.7780  -30.7765   23.1829 C   0  0  0  0  0  0  0  0  0  0  0  0
  -21.9782  -30.3910   20.3091 C   0  0  0  0  0  0  0  0  0  0  0  0
  -26.8444  -13.9019   21.4959 C   0  0  0  0  0  0  0  0  0  0  0  0
  -28.9195  -31.9714   28.9252 C   0  0  0  0  0  0  0  0  0  0  0  0
  -27.4299  -30.9106   22.6740 C   0  0  0  0  0  0  0  0  0  0  0  0
  -25.2536  -28.9530   22.2542 C   0  0  0  0  0  0  0  0  0  0  0  0
  -27.4773  -31.9678   28.4248 C   0  0  0  0  0  0  0  0  0  0  0  0
  -23.3623  -14.1909   21.1338 C   0  0  0  0  0  0  0  0  0  0  0  0
  -27.0545  -30.5578   28.0247 C   0  0  0  0  0  0  0  0  0  0  0  0
  -22.9476  -12.7254   21.0056 C   0  0  0  0  0  0  0  0  0  0  0  0
  -24.6526  -14.4903   20.3689 C   0  0  0  0  0  0  0  0  0  0  0  0
  -27.6966  -17.3566   22.5403 C   0  0  0  0  0  0  0  0  0  0  0  0
  -27.2979  -17.3344   20.0732 C   0  0  0  0  0  0  0  0  0  0  0  0
  -27.9734  -15.8564   22.4906 C   0  0  0  0  0  0  0  0  0  0  0  0
  -27.5938  -15.8388   20.0652 C   0  0  0  0  0  0  0  0  0  0  0  0
  -25.3651  -12.1322   20.5920 C   0  0  0  0  0  0  0  0  0  0  0  0
  -27.9225  -30.0262   26.8778 C   0  0  1  0  0  0  0  0  0  0  0  0
  -26.2107  -30.8565   23.5894 C   0  0  1  0  0  0  0  0  0  0  0  0
  -24.1033  -11.7879   21.3984 C   0  0  2  0  0  0  0  0  0  0  0  0
  -19.7973  -31.0368   19.2491 C   0  0  0  0  0  0  0  0  0  0  0  0
  -22.3311  -28.7226   24.9143 C   0  0  0  0  0  0  0  0  0  0  0  0
  -20.4760  -28.7153   23.2330 C   0  0  0  0  0  0  0  0  0  0  0  0
  -21.0305  -30.8112   24.4667 C   0  0  0  0  0  0  0  0  0  0  0  0
  -23.3402  -31.8141   18.1004 C   0  0  0  0  0  0  0  0  0  0  0  0
  -29.7005  -24.0117   19.8535 C   0  0  0  0  0  0  0  0  0  0  0  0
  -29.7539  -25.5215   20.0173 C   0  0  0  0  0  0  0  0  0  1  0  0
  -22.6044  -29.9754   22.6734 C   0  0  1  0  0  0  0  0  0  0  0  0
  -21.2641  -31.3975   19.4251 C   0  0  2  0  0  0  0  0  0  0  0  0
  -21.6372  -29.5501   23.8140 C   0  0  0  0  0  0  0  0  0  0  0  0
  -29.2094  -21.2234   20.0357 N   0  0  0  0  0  0  0  0  0  0  0  0
  -23.9791   -9.6971   20.0967 N   0  0  0  0  0  0  0  0  0  0  0  0
  -23.7187  -10.3273   21.2548 N   0  0  0  0  0  0  0  0  0  0  0  0
  -27.9267  -17.9812   21.2331 N   0  0  0  0  0  0  0  0  0  0  0  0
  -25.0499  -30.2351   22.9486 N   0  0  0  0  0  0  0  0  0  0  0  0
  -25.7129  -13.5463   20.7467 N   0  0  0  0  0  0  0  0  0  0  0  0
  -27.3055  -15.2209   21.3611 N   0  0  0  0  0  0  0  0  0  0  0  0
  -22.7861  -10.0111   23.4091 N   0  0  0  0  0  0  0  0  0  0  0  0
  -22.3196   -5.9606   21.4670 N   0  0  0  0  0  0  0  0  0  0  0  0
  -28.8913  -23.4310   20.8746 N   0  0  0  0  0  0  0  0  0  0  0  0
  -27.5058  -30.6049   25.6185 N   0  0  0  0  0  0  0  0  0  0  0  0
  -21.9805  -30.7832   21.6310 N   0  0  0  0  0  0  0  0  0  0  0  0
  -21.9007  -31.4477   18.0786 N   0  3  0  0  0  0  0  0  0  0  0  0
  -21.9224   -7.1669   23.3764 O   0  0  0  0  0  0  0  0  0  0  0  0
  -25.7825  -29.1176   25.1282 O   0  0  0  0  0  0  0  0  0  0  0  0
  -23.5742  -31.8470   23.7611 O   0  0  0  0  0  0  0  0  0  0  0  0
  -22.4804  -29.3581   19.8714 O   0  0  0  0  0  0  0  0  0  0  0  0
  -27.4083  -13.0927   22.2429 O   0  0  0  0  0  0  0  0  0  0  0  0
  -23.9107   -4.5778   16.3103 O   0  0  0  0  0  0  0  0  0  0  0  0
  -28.4401  -26.0559   19.9152 O   0  0  0  0  0  0  0  0  0  1  0  0
  -22.4955   -6.0252   11.1813 F   0  0  0  0  0  0  0  0  0  0  0  0
  -25.2296   -6.6231   14.9988 F   0  0  0  0  0  0  0  0  0  0  0  0
  1  2  1  0  0  0  0
  1  5  2  0  0  0  0
  2  6  2  0  0  0  0
  3  9  2  0  0  0  0
  3 18  1  0  0  0  0
  4 10  1  0  0  0  0
  4 18  2  0  0  0  0
  5 20  1  0  0  0  0
  6 22  1  0  0  0  0
  7 11  2  0  0  0  0
  7 21  1  0  0  0  0
  8 14  2  0  0  0  0
  8 24  1  0  0  0  0
  9 25  1  0  0  0  0
 10 25  2  0  0  0  0
 11 26  1  0  0  0  0
 12 13  2  0  0  0  0
 12 27  1  0  0  0  0
 13 28  1  0  0  0  0
 14 31  1  0  0  0  0
 15 23  1  0  0  0  0
 15 26  2  0  0  0  0
 16 28  2  0  0  0  0
 16 29  1  0  0  0  0
 17 24  2  0  0  0  0
 17 64  1  0  0  0  0
 18 30  1  0  0  0  0
 19 30  1  0  0  0  0
 19 32  2  0  0  0  0
 19 33  1  0  0  0  0
 20 22  2  0  0  0  0
 20 38  1  0  0  0  0
 21 23  2  0  0  0  0
 21 39  1  0  0  0  0
 22 51  1  0  0  0  0
 23 40  1  0  0  0  0
 24 67  1  0  0  0  0
 25 82  1  0  0  0  0
 26 83  1  0  0  0  0
 27 29  2  0  0  0  0
 27 82  1  0  0  0  0
 28 84  1  0  0  0  0
 29 85  1  0  0  0  0
 30 65  2  0  0  0  0
 31 64  2  0  0  0  0
 31 73  1  0  0  0  0
 32 66  1  0  0  0  0
 32 71  1  0  0  0  0
 33 72  1  0  0  0  0
 33 77  2  0  0  0  0
 34 52  1  0  0  0  0
 34 74  1  0  0  0  0
 34 78  2  0  0  0  0
 35 61  1  0  0  0  0
 35 68  1  0  0  0  0
 35 79  2  0  0  0  0
 36 62  1  0  0  0  0
 36 75  1  0  0  0  0
 36 80  2  0  0  0  0
 37 69  1  0  0  0  0
 37 70  1  0  0  0  0
 37 81  2  0  0  0  0
 38 41  1  0  0  0  0
 39 52  1  0  0  0  0
 40 68  1  0  0  0  0
 41 43  1  0  0  0  0
 42 44  1  0  0  0  0
 42 45  1  0  0  0  0
 43 51  1  0  0  0  0
 44 53  1  0  0  0  0
 45 69  1  0  0  0  0
 46 48  1  0  0  0  0
 46 67  1  0  0  0  0
 47 49  1  0  0  0  0
 47 67  1  0  0  0  0
 48 70  1  0  0  0  0
 49 70  1  0  0  0  0
 50 53  1  0  0  0  0
 50 69  1  0  0  0  0
 51 74  1  0  0  0  0
 52 68  1  0  0  0  0
 53 66  1  0  0  0  0
 54 62  1  0  0  0  0
 55 63  1  0  0  0  0
 56 63  1  0  0  0  0
 57 63  1  0  0  0  0
 58 76  1  0  0  0  0
 59 60  1  0  0  0  0
 59 73  1  0  0  0  0
 60 83  1  0  0  0  0
 61 63  1  0  0  0  0
 61 75  1  0  0  0  0
 62 76  1  0  0  0  0
 65 66  1  0  0  0  0
M  CHG  1  76   1
M  ISO  4  37 100  60 101  70 100  83 101
M  END
> <Batch ID>
0162

> <Smiles>
CNC(C)C(=O)NC(C(=O)N1Cc2cc([101O:1][101CH2:1]CNc3ccc(N4CC[100N:0]([100C:0](=O)N5CCCC(n6nc(-c7ccc(Oc8ccc(F)cc8F)cc7)c(C(N)=O)c6N)C5)CC4)cn3)ccc2CC1C(=O)NC1CCCc2ccccc21)C(C)(C)C

> <Shape>
0.246

> <Color>
0.065

> <Negative vol penalty>
0.000

$$$$

  -OEChem-04052322143D

 86 96  0     1  0  0  0  0  0999 V2000
  -18.5623  -27.2711   23.7037 C   0  0  0  0  0  0  0  0  0  0  0  0
  -19.5409  -26.9416   22.7714 C   0  0  0  0  0  0  0  0  0  0  0  0
  -23.4464  -10.0265   22.0110 C   0  0  0  0  0  0  0  0  0  0  0  0
  -24.8409   -8.3710   20.9380 C   0  0  0  0  0  0  0  0  0  0  0  0
  -18.1420  -28.5942   23.8334 C   0  0  0  0  0  0  0  0  0  0  0  0
  -20.0990  -27.9348   21.9675 C   0  0  0  0  0  0  0  0  0  0  0  0
  -25.1394  -27.5677   21.6434 C   0  0  0  0  0  0  0  0  0  0  0  0
  -22.3528   -9.1659   21.9177 C   0  0  0  0  0  0  0  0  0  0  0  0
  -23.7473   -7.5102   20.8447 C   0  0  0  0  0  0  0  0  0  0  0  0
  -25.6532  -26.5954   20.7863 C   0  0  0  0  0  0  0  0  0  0  0  0
  -21.4059   -4.7357   20.6493 C   0  0  0  0  0  0  0  0  0  0  0  0
  -21.6002   -3.3990   20.9970 C   0  0  0  0  0  0  0  0  0  0  0  0
  -26.0386  -28.2860   19.1093 C   0  0  0  0  0  0  0  0  0  0  0  0
  -31.4471  -23.2686   19.3266 C   0  0  0  0  0  0  0  0  0  0  0  0
  -22.2435   -4.0723   23.2263 C   0  0  0  0  0  0  0  0  0  0  0  0
  -24.6905   -9.6291   21.5211 C   0  0  0  0  0  0  0  0  0  0  0  0
  -26.7435  -10.6088   22.6757 C   0  0  0  0  0  0  0  0  0  0  0  0
  -18.7022  -29.6057   23.0374 C   0  0  0  0  0  0  0  0  0  0  0  0
  -25.0612  -28.9069   21.2350 C   0  0  0  0  0  0  0  0  0  0  0  0
  -19.6849  -29.2725   22.0857 C   0  0  0  0  0  0  0  0  0  0  0  0
  -25.5258  -29.2737   19.9639 C   0  0  0  0  0  0  0  0  0  0  0  0
  -30.3708  -21.1281   19.0161 C   0  0  0  0  0  0  0  0  0  0  0  0
  -29.1254  -23.1686   18.6659 C   0  0  0  0  0  0  0  0  0  0  0  0
  -31.5035  -21.8750   19.3399 C   0  0  0  0  0  0  0  0  0  0  0  0
  -30.2581  -23.9154   18.9897 C   0  0  0  0  0  0  0  0  0  0  0  0
  -29.1817  -21.7749   18.6791 C   0  0  0  0  0  0  0  0  0  0  0  0
  -22.5032   -7.9077   21.3346 C   0  0  0  0  0  0  0  0  0  0  0  0
  -26.1002  -26.9540   19.5180 C   0  0  0  0  0  0  0  0  0  0  0  0
  -21.6304   -5.7408   21.5901 C   0  0  0  0  0  0  0  0  0  0  0  0
  -22.0190   -3.0673   22.2855 C   0  0  0  0  0  0  0  0  0  0  0  0
  -22.0492   -5.4091   22.8786 C   0  0  0  0  0  0  0  0  0  0  0  0
  -25.8205  -10.5180   21.6166 C   0  0  0  0  0  0  0  0  0  0  0  0
  -27.6166  -11.5951   22.2866 C   0  0  0  0  0  0  0  0  0  0  0  0
  -26.8062   -9.8677   23.9015 C   0  0  0  0  0  0  0  0  0  0  0  0
  -22.6950  -30.9834   20.7956 C   0  0  0  0  0  0  0  0  0  0  0  0
  -25.1342  -33.0635   20.2995 C   0  0  0  0  0  0  0  0  0  0  0  0
  -28.3922  -33.5482   19.4067 C   0  0  0  0  0  0  0  0  0  0  0  0
  -28.3975  -16.6696   20.2886 C   0  0  0  0  0  0  0  0  0  0  0  0
  -18.1820  -31.0140   23.1807 C   0  0  0  0  0  0  0  0  0  0  0  0
  -24.5291  -29.9480   22.1813 C   0  0  0  0  0  0  0  0  0  0  0  0
  -25.4824  -30.7011   19.4852 C   0  0  0  0  0  0  0  0  0  0  0  0
  -19.0915  -32.0663   22.5516 C   0  0  0  0  0  0  0  0  0  0  0  0
  -28.2278  -13.9068   17.8492 C   0  0  0  0  0  0  0  0  0  0  0  0
  -19.5274  -31.6299   21.1565 C   0  0  0  0  0  0  0  0  0  0  0  0
  -27.6082  -12.8020   18.6999 C   0  0  0  0  0  0  0  0  0  0  0  0
  -30.9020  -18.9375   20.2777 C   0  0  0  0  0  0  0  0  0  0  0  0
  -26.5989  -23.5305   19.0681 C   0  0  0  0  0  0  0  0  0  0  0  0
  -27.7074  -15.2900   18.2379 C   0  0  0  0  0  0  0  0  0  0  0  0
  -27.2469  -14.4933   20.5395 C   0  0  0  0  0  0  0  0  0  0  0  0
  -30.4337  -19.6335   19.0309 C   0  0  1  0  0  0  0  0  0  0  0  0
  -27.8631  -23.8589   18.3088 C   0  0  1  0  0  0  0  0  0  0  0  0
  -20.3319  -30.3257   21.2127 C   0  0  1  0  0  0  0  0  0  0  0  0
  -24.0206  -31.1981   21.4697 C   0  0  1  0  0  0  0  0  0  0  0  0
  -27.7949  -13.0998   20.1955 C   0  0  1  0  0  0  0  0  0  0  0  0
  -29.4540  -18.8737   19.8909 C   0  0  1  0  0  0  0  0  0  0  0  0
  -27.2656  -24.8558   19.2776 C   0  0  1  0  0  0  0  0  0  1  0  0
  -32.7893  -21.2085   19.7056 C   0  0  0  0  0  0  0  0  0  0  0  0
  -30.2268  -25.4093   18.9845 C   0  0  0  0  0  0  0  0  0  0  0  0
  -27.9657  -20.9738   18.3332 C   0  0  0  0  0  0  0  0  0  0  0  0
  -30.0899  -35.3629   19.0572 C   0  0  0  0  0  0  0  0  0  0  0  0
  -23.8147  -33.7833   17.6442 C   0  0  0  0  0  0  0  0  0  0  0  0
  -25.9728  -34.8372   16.9372 C   0  0  0  0  0  0  0  0  0  0  0  0
  -24.7384  -35.7311   18.9120 C   0  0  0  0  0  0  0  0  0  0  0  0
  -30.1598  -32.4608   21.5168 C   0  0  0  0  0  0  0  0  0  0  0  0
  -25.9311  -33.5096   19.0975 C   0  0  1  0  0  0  0  0  0  0  0  0
  -29.5001  -34.3673   20.0440 C   0  0  2  0  0  0  0  0  0  0  0  0
  -25.1134  -34.4380   18.1557 C   0  0  0  0  0  0  0  0  0  0  0  0
  -26.0826  -11.3782   20.6290 N   0  0  0  0  0  0  0  0  0  0  0  0
  -27.1802  -12.0189   21.0659 N   0  0  0  0  0  0  0  0  0  0  0  0
  -24.9477  -31.6815   20.4446 N   0  0  0  0  0  0  0  0  0  0  0  0
  -27.8367  -15.5302   19.6838 N   0  0  0  0  0  0  0  0  0  0  0  0
  -28.7072  -12.1326   22.8731 N   0  0  0  0  0  0  0  0  0  0  0  0
  -25.8304   -8.8908   24.1423 N   0  0  0  0  0  0  0  0  0  0  0  0
  -21.6861  -30.5857   21.6520 N   0  0  0  0  0  0  0  0  0  0  0  0
  -27.1526  -34.1135   19.6187 N   0  0  0  0  0  0  0  0  0  0  0  0
  -28.8614  -17.6506   19.4194 N   0  0  0  0  0  0  0  0  0  0  0  0
  -30.5941  -33.4754   20.5223 N   0  3  0  0  0  0  0  0  0  0  0  0
  -27.6913  -10.0773   24.7652 O   0  0  0  0  0  0  0  0  0  0  0  0
  -22.5946  -31.1667   19.5881 O   0  0  0  0  0  0  0  0  0  0  0  0
  -24.6995  -33.9096   21.0849 O   0  0  0  0  0  0  0  0  0  0  0  0
  -28.6056  -32.5126   18.7801 O   0  0  0  0  0  0  0  0  0  0  0  0
  -28.4751  -16.8076   21.5144 O   0  0  0  0  0  0  0  0  0  0  0  0
  -21.4363   -7.0675   21.2436 O   0  0  0  0  0  0  0  0  0  0  0  0
  -26.6015  -26.0068   18.6793 O   0  0  0  0  0  0  0  0  0  1  0  0
  -22.2041   -1.7834   22.6197 F   0  0  0  0  0  0  0  0  0  0  0  0
  -22.2653   -6.3702   23.7871 F   0  0  0  0  0  0  0  0  0  0  0  0
  1  2  1  0  0  0  0
  1  5  2  0  0  0  0
  2  6  2  0  0  0  0
  3  8  2  0  0  0  0
  3 16  1  0  0  0  0
  4  9  1  0  0  0  0
  4 16  2  0  0  0  0
  5 18  1  0  0  0  0
  6 20  1  0  0  0  0
  7 10  2  0  0  0  0
  7 19  1  0  0  0  0
  8 27  1  0  0  0  0
  9 27  2  0  0  0  0
 10 28  1  0  0  0  0
 11 12  2  0  0  0  0
 11 29  1  0  0  0  0
 12 30  1  0  0  0  0
 13 21  1  0  0  0  0
 13 28  2  0  0  0  0
 14 24  1  0  0  0  0
 14 25  2  0  0  0  0
 15 30  2  0  0  0  0
 15 31  1  0  0  0  0
 16 32  1  0  0  0  0
 17 32  1  0  0  0  0
 17 33  2  0  0  0  0
 17 34  1  0  0  0  0
 18 20  2  0  0  0  0
 18 39  1  0  0  0  0
 19 21  2  0  0  0  0
 19 40  1  0  0  0  0
 20 52  1  0  0  0  0
 21 41  1  0  0  0  0
 22 24  2  0  0  0  0
 22 26  1  0  0  0  0
 22 50  1  0  0  0  0
 23 25  1  0  0  0  0
 23 26  2  0  0  0  0
 23 51  1  0  0  0  0
 24 57  1  0  0  0  0
 25 58  1  0  0  0  0
 26 59  1  0  0  0  0
 27 83  1  0  0  0  0
 28 84  1  0  0  0  0
 29 31  2  0  0  0  0
 29 83  1  0  0  0  0
 30 85  1  0  0  0  0
 31 86  1  0  0  0  0
 32 68  2  0  0  0  0
 33 69  1  0  0  0  0
 33 72  1  0  0  0  0
 34 73  1  0  0  0  0
 34 78  2  0  0  0  0
 35 53  1  0  0  0  0
 35 74  1  0  0  0  0
 35 79  2  0  0  0  0
 36 65  1  0  0  0  0
 36 70  1  0  0  0  0
 36 80  2  0  0  0  0
 37 66  1  0  0  0  0
 37 75  1  0  0  0  0
 37 81  2  0  0  0  0
 38 71  1  0  0  0  0
 38 76  1  0  0  0  0
 38 82  2  0  0  0  0
 39 42  1  0  0  0  0
 40 53  1  0  0  0  0
 41 70  1  0  0  0  0
 42 44  1  0  0  0  0
 43 45  1  0  0  0  0
 43 48  1  0  0  0  0
 44 52  1  0  0  0  0
 45 54  1  0  0  0  0
 46 50  1  0  0  0  0
 46 55  1  0  0  0  0
 47 51  1  0  0  0  0
 47 56  1  0  0  0  0
 48 71  1  0  0  0  0
 49 54  1  0  0  0  0
 49 71  1  0  0  0  0
 50 55  1  0  0  0  0
 51 56  1  0  0  0  0
 52 74  1  0  0  0  0
 53 70  1  0  0  0  0
 54 69  1  0  0  0  0
 55 76  1  0  0  0  0
 56 84  1  0  0  0  0
 60 66  1  0  0  0  0
 61 67  1  0  0  0  0
 62 67  1  0  0  0  0
 63 67  1  0  0  0  0
 64 77  1  0  0  0  0
 65 67  1  0  0  0  0
 65 75  1  0  0  0  0
 66 77  1  0  0  0  0
 68 69  1  0  0  0  0
M  CHG  1  77   1
M  ISO  4  38 100  56 101  76 100  84 101
M  END
> <Batch ID>
0162

> <Smiles>
CNC(C)C(=O)NC(C(=O)N1Cc2cc([101O:1][101CH:1]3CC3c3c(C)cc(C)c(C4CC4[100NH:0][100C:0](=O)N4CCCC(n5nc(-c6ccc(Oc7ccc(F)cc7F)cc6)c(C(N)=O)c5N)C4)c3C)ccc2CC1C(=O)NC1CCCc2ccccc21)C(C)(C)C

> <Shape>
0.266

> <Color>
0.098

> <Negative vol penalty>
0.000

$$$$

  -OEChem-04052322143D

 86 95  0     1  0  0  0  0  0999 V2000
  -28.3406  -36.4548   20.1462 C   0  0  0  0  0  0  0  0  0  0  0  0
  -28.7964  -35.3961   19.3672 C   0  0  0  0  0  0  0  0  0  0  0  0
  -25.8370  -17.1188   15.2609 C   0  0  0  0  0  0  0  0  0  0  0  0
  -24.7547  -15.0046   14.8185 C   0  0  0  0  0  0  0  0  0  0  0  0
  -27.8452  -36.2135   21.4270 C   0  0  0  0  0  0  0  0  0  0  0  0
  -28.7581  -34.0956   19.8689 C   0  0  0  0  0  0  0  0  0  0  0  0
  -27.8436  -27.3163   17.7426 C   0  0  0  0  0  0  0  0  0  0  0  0
  -25.5513  -17.5371   13.9613 C   0  0  0  0  0  0  0  0  0  0  0  0
  -24.4689  -15.4229   13.5189 C   0  0  0  0  0  0  0  0  0  0  0  0
  -28.4580  -26.0678   17.8303 C   0  0  0  0  0  0  0  0  0  0  0  0
  -23.1371  -16.0720   10.1987 C   0  0  0  0  0  0  0  0  0  0  0  0
  -21.8537  -15.8334    9.7073 C   0  0  0  0  0  0  0  0  0  0  0  0
  -27.5075  -25.7612   20.0262 C   0  0  0  0  0  0  0  0  0  0  0  0
  -20.9222  -17.1717   11.4901 C   0  0  0  0  0  0  0  0  0  0  0  0
  -25.4387  -15.8526   15.6895 C   0  0  0  0  0  0  0  0  0  0  0  0
  -24.9321  -15.5907   18.1759 C   0  0  0  0  0  0  0  0  0  0  0  0
  -27.7917  -34.9082   21.9409 C   0  0  0  0  0  0  0  0  0  0  0  0
  -27.0642  -27.8021   18.8023 C   0  0  0  0  0  0  0  0  0  0  0  0
  -28.2627  -33.8368   21.1582 C   0  0  0  0  0  0  0  0  0  0  0  0
  -26.8823  -27.0150   19.9484 C   0  0  0  0  0  0  0  0  0  0  0  0
  -30.7387  -19.6479   20.0800 C   0  0  0  0  0  0  0  0  0  0  0  0
  -31.4718  -20.8261   19.9917 C   0  0  0  0  0  0  0  0  0  0  0  0
  -30.8173  -22.0515   20.0493 C   0  0  0  0  0  0  0  0  0  0  0  0
  -24.8672  -16.6892   13.0903 C   0  0  0  0  0  0  0  0  0  0  0  0
  -28.2923  -25.2913   18.9734 C   0  0  0  0  0  0  0  0  0  0  0  0
  -23.3131  -16.8604   11.3359 C   0  0  0  0  0  0  0  0  0  0  0  0
  -20.7463  -16.3832   10.3529 C   0  0  0  0  0  0  0  0  0  0  0  0
  -22.2057  -17.4103   11.9816 C   0  0  0  0  0  0  0  0  0  0  0  0
  -25.7341  -15.4197   17.0317 C   0  0  0  0  0  0  0  0  0  0  0  0
  -29.3643  -19.7485   20.2241 C   0  0  0  0  0  0  0  0  0  0  0  0
  -29.4394  -22.0445   20.1946 C   0  0  0  0  0  0  0  0  0  0  0  0
  -25.6524  -15.0087   19.1903 C   0  0  0  0  0  0  0  0  0  0  0  0
  -23.6504  -16.2193   18.3099 C   0  0  0  0  0  0  0  0  0  0  0  0
  -27.2348  -30.3118   20.7455 C   0  0  0  0  0  0  0  0  0  0  0  0
  -24.3450  -29.2363   21.7530 C   0  0  0  0  0  0  0  0  0  0  0  0
  -22.1805  -26.6178   22.0775 C   0  0  0  0  0  0  0  0  0  0  0  0
  -31.3481  -13.9929   20.1303 C   0  0  0  0  0  0  0  0  0  0  0  0
  -27.2917  -34.7024   23.3488 C   0  0  0  0  0  0  0  0  0  0  0  0
  -26.3864  -29.1394   18.6811 C   0  0  0  0  0  0  0  0  0  0  0  0
  -26.0389  -27.4822   21.1055 C   0  0  0  0  0  0  0  0  0  0  0  0
  -26.9375  -33.2512   23.6633 C   0  0  0  0  0  0  0  0  0  0  0  0
  -28.8757  -11.5791   20.0200 C   0  0  0  0  0  0  0  0  0  0  0  0
  -28.0402  -32.3154   23.1784 C   0  0  0  0  0  0  0  0  0  0  0  0
  -27.7008  -12.2951   19.3537 C   0  0  0  0  0  0  0  0  0  0  0  0
  -31.2319  -17.4949   21.3210 C   0  0  0  0  0  0  0  0  0  0  0  0
  -30.9675  -17.4709   18.8050 C   0  0  0  0  0  0  0  0  0  0  0  0
  -30.1929  -11.9469   19.3462 C   0  0  0  0  0  0  0  0  0  0  0  0
  -31.9039  -16.1263   21.2403 C   0  0  0  0  0  0  0  0  0  0  0  0
  -31.6466  -16.1047   18.7808 C   0  0  0  0  0  0  0  0  0  0  0  0
  -29.2976  -14.1437   18.6488 C   0  0  0  0  0  0  0  0  0  0  0  0
  -31.4240  -18.2956   20.0215 C   0  0  0  0  0  0  0  0  0  0  0  0
  -28.2143  -32.4092   21.6578 C   0  0  1  0  0  0  0  0  0  0  0  0
  -26.0352  -29.7558   20.0317 C   0  0  1  0  0  0  0  0  0  0  0  0
  -27.9392  -13.8144   19.2995 C   0  0  1  0  0  0  0  0  0  0  0  0
  -32.9580  -20.7759   19.8329 C   0  0  0  0  0  0  0  0  0  0  0  0
  -31.5756  -23.3333   19.9574 C   0  0  0  0  0  0  0  0  0  0  0  0
  -28.5237  -18.5179   20.3246 C   0  0  0  0  0  0  0  0  0  0  0  0
  -19.9102  -26.0385   22.9760 C   0  0  0  0  0  0  0  0  0  0  0  0
  -25.4633  -29.2668   24.5918 C   0  0  0  0  0  0  0  0  0  0  0  0
  -23.5438  -27.8186   25.2890 C   0  0  0  0  0  0  0  0  0  0  0  0
  -23.1158  -30.1043   24.3863 C   0  0  0  0  0  0  0  0  0  0  0  0
  -21.1975  -25.8204   19.4023 C   0  0  0  0  0  0  0  0  0  0  0  0
  -28.6803  -23.3294   20.2603 C   0  0  0  0  0  0  0  0  0  1  0  0
  -23.8739  -28.2735   22.8161 C   0  0  1  0  0  0  0  0  0  0  0  0
  -20.7022  -26.4874   21.7579 C   0  0  2  0  0  0  0  0  0  0  0  0
  -24.0167  -28.8575   24.2499 C   0  0  0  0  0  0  0  0  0  0  0  0
  -26.8766  -14.7794   17.2938 N   0  0  0  0  0  0  0  0  0  0  0  0
  -28.6934  -20.9206   20.2839 N   0  0  0  0  0  0  0  0  0  0  0  0
  -26.7977  -14.5430   18.6144 N   0  0  0  0  0  0  0  0  0  0  0  0
  -25.4020  -28.7994   20.9420 N   0  0  0  0  0  0  0  0  0  0  0  0
  -30.3789  -13.3973   19.3090 N   0  0  0  0  0  0  0  0  0  0  0  0
  -31.4732  -15.3897   20.0526 N   0  0  0  0  0  0  0  0  0  0  0  0
  -25.4116  -14.8551   20.5097 N   0  0  0  0  0  0  0  0  0  0  0  0
  -23.0516  -16.7659   17.1667 N   0  0  0  0  0  0  0  0  0  0  0  0
  -27.1681  -31.6715   20.9828 N   0  0  0  0  0  0  0  0  0  0  0  0
  -22.5100  -27.9024   22.4552 N   0  0  0  0  0  0  0  0  0  0  0  0
  -20.4937  -25.4918   20.6687 N   0  3  0  0  0  0  0  0  0  0  0  0
  -23.0614  -16.3085   19.4138 O   0  0  0  0  0  0  0  0  0  0  0  0
  -28.1522  -29.5624   21.0592 O   0  0  0  0  0  0  0  0  0  0  0  0
  -23.7908  -30.3326   21.6416 O   0  0  0  0  0  0  0  0  0  0  0  0
  -22.9639  -25.6737   22.0035 O   0  0  0  0  0  0  0  0  0  0  0  0
  -32.0557  -13.3212   20.8912 O   0  0  0  0  0  0  0  0  0  0  0  0
  -24.5880  -17.0970   11.8221 O   0  0  0  0  0  0  0  0  0  0  0  0
  -28.8956  -24.0639   19.0625 O   0  0  0  0  0  0  0  0  0  1  0  0
  -19.5140  -16.1553    9.8800 F   0  0  0  0  0  0  0  0  0  0  0  0
  -22.3685  -18.1695   13.0737 F   0  0  0  0  0  0  0  0  0  0  0  0
  1  2  1  0  0  0  0
  1  5  2  0  0  0  0
  2  6  2  0  0  0  0
  3  8  2  0  0  0  0
  3 15  1  0  0  0  0
  4  9  1  0  0  0  0
  4 15  2  0  0  0  0
  5 17  1  0  0  0  0
  6 19  1  0  0  0  0
  7 10  2  0  0  0  0
  7 18  1  0  0  0  0
  8 24  1  0  0  0  0
  9 24  2  0  0  0  0
 10 25  1  0  0  0  0
 11 12  2  0  0  0  0
 11 26  1  0  0  0  0
 12 27  1  0  0  0  0
 13 20  1  0  0  0  0
 13 25  2  0  0  0  0
 14 27  2  0  0  0  0
 14 28  1  0  0  0  0
 15 29  1  0  0  0  0
 16 29  1  0  0  0  0
 16 32  2  0  0  0  0
 16 33  1  0  0  0  0
 17 19  2  0  0  0  0
 17 38  1  0  0  0  0
 18 20  2  0  0  0  0
 18 39  1  0  0  0  0
 19 52  1  0  0  0  0
 20 40  1  0  0  0  0
 21 22  2  0  0  0  0
 21 30  1  0  0  0  0
 21 51  1  0  0  0  0
 22 23  1  0  0  0  0
 22 55  1  0  0  0  0
 23 31  2  0  0  0  0
 23 56  1  0  0  0  0
 24 83  1  0  0  0  0
 25 84  1  0  0  0  0
 26 28  2  0  0  0  0
 26 83  1  0  0  0  0
 27 85  1  0  0  0  0
 28 86  1  0  0  0  0
 29 67  2  0  0  0  0
 30 57  1  0  0  0  0
 30 68  2  0  0  0  0
 31 63  1  0  0  0  0
 31 68  1  0  0  0  0
 32 69  1  0  0  0  0
 32 73  1  0  0  0  0
 33 74  1  0  0  0  0
 33 78  2  0  0  0  0
 34 53  1  0  0  0  0
 34 75  1  0  0  0  0
 34 79  2  0  0  0  0
 35 64  1  0  0  0  0
 35 70  1  0  0  0  0
 35 80  2  0  0  0  0
 36 65  1  0  0  0  0
 36 76  1  0  0  0  0
 36 81  2  0  0  0  0
 37 71  1  0  0  0  0
 37 72  1  0  0  0  0
 37 82  2  0  0  0  0
 38 41  1  0  0  0  0
 39 53  1  0  0  0  0
 40 70  1  0  0  0  0
 41 43  1  0  0  0  0
 42 44  1  0  0  0  0
 42 47  1  0  0  0  0
 43 52  1  0  0  0  0
 44 54  1  0  0  0  0
 45 48  1  0  0  0  0
 45 51  1  0  0  0  0
 46 49  1  0  0  0  0
 46 51  1  0  0  0  0
 47 71  1  0  0  0  0
 48 72  1  0  0  0  0
 49 72  1  0  0  0  0
 50 54  1  0  0  0  0
 50 71  1  0  0  0  0
 52 75  1  0  0  0  0
 53 70  1  0  0  0  0
 54 69  1  0  0  0  0
 58 65  1  0  0  0  0
 59 66  1  0  0  0  0
 60 66  1  0  0  0  0
 61 66  1  0  0  0  0
 62 77  1  0  0  0  0
 63 84  1  0  0  0  0
 64 66  1  0  0  0  0
 64 76  1  0  0  0  0
 65 77  1  0  0  0  0
 67 69  1  0  0  0  0
M  CHG  1  77   1
M  ISO  4  37 100  63 101  72 100  84 101
M  END
> <Batch ID>
0162

> <Smiles>
CNC(C)C(=O)NC(C(=O)N1Cc2cc([101O:1][101CH2:1]c3nc(C)c(C4CC[100N:0]([100C:0](=O)N5CCCC(n6nc(-c7ccc(Oc8ccc(F)cc8F)cc7)c(C(N)=O)c6N)C5)CC4)c(C)c3C)ccc2CC1C(=O)NC1CCCc2ccccc21)C(C)(C)C

> <Shape>
0.216

> <Color>
0.089

> <Negative vol penalty>
0.000

$$$$

  -OEChem-04052322143D

 87 96  0     1  0  0  0  0  0999 V2000
  -19.4019  -34.1796   21.0768 C   0  0  0  0  0  0  0  0  0  0  0  0
  -20.7402  -33.8539   20.8815 C   0  0  0  0  0  0  0  0  0  0  0  0
  -28.5289  -10.7465   22.0519 C   0  0  0  0  0  0  0  0  0  0  0  0
  -27.2889  -11.3704   20.0745 C   0  0  0  0  0  0  0  0  0  0  0  0
  -18.6197  -33.4180   21.9440 C   0  0  0  0  0  0  0  0  0  0  0  0
  -21.2974  -32.7669   21.5541 C   0  0  0  0  0  0  0  0  0  0  0  0
  -25.6063  -28.9543   19.4556 C   0  0  0  0  0  0  0  0  0  0  0  0
  -27.6515   -9.6837   22.2668 C   0  0  0  0  0  0  0  0  0  0  0  0
  -26.4115  -10.3076   20.2893 C   0  0  0  0  0  0  0  0  0  0  0  0
  -26.9859  -28.9001   19.6494 C   0  0  0  0  0  0  0  0  0  0  0  0
  -23.6329   -7.9757   20.5169 C   0  0  0  0  0  0  0  0  0  0  0  0
  -22.2671   -8.2253   20.3835 C   0  0  0  0  0  0  0  0  0  0  0  0
  -28.6392  -21.8082   18.3870 C   0  0  0  0  0  0  0  0  0  0  0  0
  -26.6689  -27.2818   21.4100 C   0  0  0  0  0  0  0  0  0  0  0  0
  -29.3829  -20.3829   16.1071 C   0  0  0  0  0  0  0  0  0  0  0  0
  -22.3966   -9.8747   22.1442 C   0  0  0  0  0  0  0  0  0  0  0  0
  -28.3475  -11.5899   20.9557 C   0  0  0  0  0  0  0  0  0  0  0  0
  -30.4431  -12.6703   19.9815 C   0  0  0  0  0  0  0  0  0  0  0  0
  -19.1650  -32.3152   22.6202 C   0  0  0  0  0  0  0  0  0  0  0  0
  -24.7455  -28.1795   20.2462 C   0  0  0  0  0  0  0  0  0  0  0  0
  -20.5221  -31.9906   22.4322 C   0  0  0  0  0  0  0  0  0  0  0  0
  -29.5666  -22.3503   17.4973 C   0  0  0  0  0  0  0  0  0  0  0  0
  -25.2789  -27.3260   21.2225 C   0  0  0  0  0  0  0  0  0  0  0  0
  -28.0836  -20.5534   18.1367 C   0  0  0  0  0  0  0  0  0  0  0  0
  -29.9385  -21.6377   16.3574 C   0  0  0  0  0  0  0  0  0  0  0  0
  -28.4555  -19.8408   16.9968 C   0  0  0  0  0  0  0  0  0  0  0  0
  -26.5928   -9.4642   21.3855 C   0  0  0  0  0  0  0  0  0  0  0  0
  -27.5172  -28.0659   20.6287 C   0  0  0  0  0  0  0  0  0  0  0  0
  -24.3806   -8.6755   21.4640 C   0  0  0  0  0  0  0  0  0  0  0  0
  -21.6489   -9.1748   21.1971 C   0  0  0  0  0  0  0  0  0  0  0  0
  -23.7624   -9.6250   22.2776 C   0  0  0  0  0  0  0  0  0  0  0  0
  -29.2532  -12.6884   20.7335 C   0  0  0  0  0  0  0  0  0  0  0  0
  -30.9303  -13.9507   20.0789 C   0  0  0  0  0  0  0  0  0  0  0  0
  -31.0533  -11.5924   19.2593 C   0  0  0  0  0  0  0  0  0  0  0  0
  -22.4095  -28.8165   22.3056 C   0  0  0  0  0  0  0  0  0  0  0  0
  -22.0370  -25.5943   22.2806 C   0  0  0  0  0  0  0  0  0  0  0  0
  -23.4194  -22.5221   21.7349 C   0  0  0  0  0  0  0  0  0  0  0  0
  -28.3212  -19.2379   21.1226 C   0  0  0  0  0  0  0  0  0  0  0  0
  -18.2925  -31.5504   23.5837 C   0  0  0  0  0  0  0  0  0  0  0  0
  -23.2614  -28.2293   20.0066 C   0  0  0  0  0  0  0  0  0  0  0  0
  -24.3991  -26.4588   22.0841 C   0  0  0  0  0  0  0  0  0  0  0  0
  -18.8615  -30.1879   23.9709 C   0  0  0  0  0  0  0  0  0  0  0  0
  -30.9473  -17.7384   23.0019 C   0  0  0  0  0  0  0  0  0  0  0  0
  -20.3405  -30.3080   24.3247 C   0  0  0  0  0  0  0  0  0  0  0  0
  -30.9183  -16.2725   22.5658 C   0  0  0  0  0  0  0  0  0  0  0  0
  -30.0578  -24.7700   16.7328 C   0  0  0  0  0  0  0  0  0  0  0  0
  -29.5426  -18.3324   23.0784 C   0  0  0  0  0  0  0  0  0  0  0  0
  -28.7099  -16.7160   21.4147 C   0  0  0  0  0  0  0  0  0  0  0  0
  -30.1456  -23.6851   17.7833 C   0  0  1  0  0  0  0  0  0  0  0  0
  -21.1563  -30.8039   23.1247 C   0  0  1  0  0  0  0  0  0  0  0  0
  -22.4456  -27.7827   21.2159 C   0  0  1  0  0  0  0  0  0  0  0  0
  -30.1071  -16.0892   21.2690 C   0  0  2  0  0  0  0  0  0  0  0  0
  -29.2195  -24.8673   17.9705 C   0  0  1  0  0  0  0  0  0  0  0  0
  -30.9288  -22.1968   15.3888 C   0  0  0  0  0  0  0  0  0  0  0  0
  -27.8737  -18.4961   16.7071 C   0  0  0  0  0  0  0  0  0  0  0  0
  -23.5260  -20.0269   21.4908 C   0  0  0  0  0  0  0  0  0  0  0  0
  -30.9057  -26.9224   21.4944 C   0  0  0  0  0  0  0  0  0  0  0  0
  -22.2635  -25.6700   25.3225 C   0  0  0  0  0  0  0  0  0  0  0  0
  -22.6720  -23.2002   25.2839 C   0  0  0  0  0  0  0  0  0  0  0  0
  -20.5094  -24.1181   24.4452 C   0  0  0  0  0  0  0  0  0  0  0  0
  -22.7276  -22.6575   18.8605 C   0  0  0  0  0  0  0  0  0  0  0  0
  -27.0923  -19.9932   19.1032 C   0  0  0  0  0  0  0  0  0  0  0  0
  -29.0081  -25.6642   20.3282 C   0  0  0  0  0  0  0  0  0  0  0  0
  -22.6093  -24.4457   23.0758 C   0  0  1  0  0  0  0  0  0  0  0  0
  -22.9205  -21.3165   20.9589 C   0  0  2  0  0  0  0  0  0  0  0  0
  -29.4029  -26.7778   21.2927 C   0  0  2  0  0  0  0  0  0  1  0  0
  -22.0303  -24.3761   24.5171 C   0  0  0  0  0  0  0  0  0  0  0  0
  -29.0000  -13.8854   21.2694 N   0  0  0  0  0  0  0  0  0  0  0  0
  -30.0377  -14.6313   20.8535 N   0  0  0  0  0  0  0  0  0  0  0  0
  -22.9542  -26.5475   21.8159 N   0  0  0  0  0  0  0  0  0  0  0  0
  -28.8272  -18.1264   21.8167 N   0  0  0  0  0  0  0  0  0  0  0  0
  -32.0311  -14.5496   19.5767 N   0  0  0  0  0  0  0  0  0  0  0  0
  -30.4196  -10.3423   19.2631 N   0  0  0  0  0  0  0  0  0  0  0  0
  -21.3769  -29.7267   22.1837 N   0  0  0  0  0  0  0  0  0  0  0  0
  -22.3793  -23.2442   22.2808 N   0  0  0  0  0  0  0  0  0  0  0  0
  -27.6621  -18.9549   19.9326 N   0  0  0  0  0  0  0  0  0  0  0  0
  -29.6019  -25.8854   18.9862 N   0  3  0  0  0  0  0  0  0  0  0  0
  -23.2778  -21.4441   19.5177 N   0  3  0  0  0  0  0  0  0  0  0  0
  -32.1371  -11.7294   18.6428 O   0  0  0  0  0  0  0  0  0  0  0  0
  -23.2550  -28.7896   23.1923 O   0  0  0  0  0  0  0  0  0  0  0  0
  -20.8219  -25.6401   22.0732 O   0  0  0  0  0  0  0  0  0  0  0  0
  -24.6126  -22.7939   21.8487 O   0  0  0  0  0  0  0  0  0  0  0  0
  -28.4521  -20.3970   21.5305 O   0  0  0  0  0  0  0  0  0  0  0  0
  -25.7366   -8.4270   21.5947 O   0  0  0  0  0  0  0  0  0  0  0  0
  -28.8634  -28.0116   20.8204 O   0  0  0  0  0  0  0  0  0  1  0  0
  -20.3376   -9.4156   21.0678 F   0  0  0  0  0  0  0  0  0  0  0  0
  -24.4757  -10.3013   23.1885 F   0  0  0  0  0  0  0  0  0  0  0  0
  1  2  1  0  0  0  0
  1  5  2  0  0  0  0
  2  6  2  0  0  0  0
  3  8  2  0  0  0  0
  3 17  1  0  0  0  0
  4  9  1  0  0  0  0
  4 17  2  0  0  0  0
  5 19  1  0  0  0  0
  6 21  1  0  0  0  0
  7 10  2  0  0  0  0
  7 20  1  0  0  0  0
  8 27  1  0  0  0  0
  9 27  2  0  0  0  0
 10 28  1  0  0  0  0
 11 12  2  0  0  0  0
 11 29  1  0  0  0  0
 12 30  1  0  0  0  0
 13 22  1  0  0  0  0
 13 24  2  0  0  0  0
 14 23  1  0  0  0  0
 14 28  2  0  0  0  0
 15 25  1  0  0  0  0
 15 26  2  0  0  0  0
 16 30  2  0  0  0  0
 16 31  1  0  0  0  0
 17 32  1  0  0  0  0
 18 32  1  0  0  0  0
 18 33  2  0  0  0  0
 18 34  1  0  0  0  0
 19 21  2  0  0  0  0
 19 39  1  0  0  0  0
 20 23  2  0  0  0  0
 20 40  1  0  0  0  0
 21 50  1  0  0  0  0
 22 25  2  0  0  0  0
 22 49  1  0  0  0  0
 23 41  1  0  0  0  0
 24 26  1  0  0  0  0
 24 62  1  0  0  0  0
 25 54  1  0  0  0  0
 26 55  1  0  0  0  0
 27 84  1  0  0  0  0
 28 85  1  0  0  0  0
 29 31  2  0  0  0  0
 29 84  1  0  0  0  0
 30 86  1  0  0  0  0
 31 87  1  0  0  0  0
 32 68  2  0  0  0  0
 33 69  1  0  0  0  0
 33 72  1  0  0  0  0
 34 73  1  0  0  0  0
 34 79  2  0  0  0  0
 35 51  1  0  0  0  0
 35 74  1  0  0  0  0
 35 80  2  0  0  0  0
 36 64  1  0  0  0  0
 36 70  1  0  0  0  0
 36 81  2  0  0  0  0
 37 65  1  0  0  0  0
 37 75  1  0  0  0  0
 37 82  2  0  0  0  0
 38 71  1  0  0  0  0
 38 76  1  0  0  0  0
 38 83  2  0  0  0  0
 39 42  1  0  0  0  0
 40 51  1  0  0  0  0
 41 70  1  0  0  0  0
 42 44  1  0  0  0  0
 43 45  1  0  0  0  0
 43 47  1  0  0  0  0
 44 50  1  0  0  0  0
 45 52  1  0  0  0  0
 46 49  1  0  0  0  0
 46 53  1  0  0  0  0
 47 71  1  0  0  0  0
 48 52  1  0  0  0  0
 48 71  1  0  0  0  0
 49 53  1  0  0  0  0
 50 74  1  0  0  0  0
 51 70  1  0  0  0  0
 52 69  1  0  0  0  0
 53 77  1  0  0  0  0
 56 65  1  0  0  0  0
 57 66  1  0  0  0  0
 58 67  1  0  0  0  0
 59 67  1  0  0  0  0
 60 67  1  0  0  0  0
 61 78  1  0  0  0  0
 62 76  1  0  0  0  0
 63 66  1  0  0  0  0
 63 77  1  0  0  0  0
 64 67  1  0  0  0  0
 64 75  1  0  0  0  0
 65 78  1  0  0  0  0
 66 85  1  0  0  0  0
 68 69  1  0  0  0  0
M  CHG  2  77   1  78   1
M  ISO  4  38 100  66 101  76 100  85 101
M  END
> <Batch ID>
0162

> <Smiles>
CNC(C)C(=O)NC(C(=O)N1Cc2cc([101O:1][101CH:1](C)CNC3CC3c3cc(C[100NH:0][100C:0](=O)N4CCCC(n5nc(-c6ccc(Oc7ccc(F)cc7F)cc6)c(C(N)=O)c5N)C4)c(C)cc3C)ccc2CC1C(=O)NC1CCCc2ccccc21)C(C)(C)C

> <Shape>
0.255

> <Color>
0.087

> <Negative vol penalty>
0.000

$$$$

  -OEChem-04052322143D

 88 97  0     1  0  0  0  0  0999 V2000
  -23.5786   -8.6681   21.8921 C   0  0  0  0  0  0  0  0  0  0  0  0
  -24.6663   -9.5029   21.6565 C   0  0  0  0  0  0  0  0  0  0  0  0
  -24.5225  -28.9459   22.5477 C   0  0  0  0  0  0  0  0  0  0  0  0
  -25.0756  -30.5707   20.8473 C   0  0  0  0  0  0  0  0  0  0  0  0
  -22.3043   -9.0513   21.4760 C   0  0  0  0  0  0  0  0  0  0  0  0
  -24.4804  -10.7209   21.0037 C   0  0  0  0  0  0  0  0  0  0  0  0
  -26.9707  -14.5225   23.2379 C   0  0  0  0  0  0  0  0  0  0  0  0
  -24.0034  -29.9621   23.3498 C   0  0  0  0  0  0  0  0  0  0  0  0
  -24.5564  -31.5869   21.6495 C   0  0  0  0  0  0  0  0  0  0  0  0
  -28.3415  -14.6125   23.0001 C   0  0  0  0  0  0  0  0  0  0  0  0
  -22.8589  -32.1773   25.9968 C   0  0  0  0  0  0  0  0  0  0  0  0
  -23.2012  -32.1771   27.3490 C   0  0  0  0  0  0  0  0  0  0  0  0
  -27.9376  -16.3329   21.3582 C   0  0  0  0  0  0  0  0  0  0  0  0
  -25.5359  -32.3693   26.7579 C   0  0  0  0  0  0  0  0  0  0  0  0
  -25.0587  -29.2503   21.2964 C   0  0  0  0  0  0  0  0  0  0  0  0
  -24.9032  -27.4354   19.5104 C   0  0  0  0  0  0  0  0  0  0  0  0
  -22.1012  -10.2791   20.8264 C   0  0  0  0  0  0  0  0  0  0  0  0
  -26.0706  -15.3307   22.5286 C   0  0  0  0  0  0  0  0  0  0  0  0
  -23.2024  -11.1203   20.5773 C   0  0  0  0  0  0  0  0  0  0  0  0
  -26.5560  -16.2531   21.5906 C   0  0  0  0  0  0  0  0  0  0  0  0
  -34.0716  -15.2206   20.1754 C   0  0  0  0  0  0  0  0  0  0  0  0
  -34.8528  -16.3471   20.4331 C   0  0  0  0  0  0  0  0  0  0  0  0
  -32.6848  -15.2879   20.3103 C   0  0  0  0  0  0  0  0  0  0  0  0
  -34.2473  -17.5408   20.8257 C   0  0  0  0  0  0  0  0  0  0  0  0
  -32.0794  -16.4816   20.7029 C   0  0  0  0  0  0  0  0  0  0  0  0
  -32.8606  -17.6080   20.9606 C   0  0  0  0  0  0  0  0  0  0  0  0
  -24.0203  -31.2826   22.9007 C   0  0  0  0  0  0  0  0  0  0  0  0
  -28.8249  -15.5157   22.0581 C   0  0  0  0  0  0  0  0  0  0  0  0
  -23.8551  -32.2735   25.0251 C   0  0  0  0  0  0  0  0  0  0  0  0
  -24.5397  -32.2731   27.7295 C   0  0  0  0  0  0  0  0  0  0  0  0
  -25.1936  -32.3695   25.4057 C   0  0  0  0  0  0  0  0  0  0  0  0
  -25.5956  -28.2011   20.4675 C   0  0  0  0  0  0  0  0  0  0  0  0
  -25.8517  -26.5819   19.0021 C   0  0  0  0  0  0  0  0  0  0  0  0
  -23.5259  -27.4908   19.1160 C   0  0  0  0  0  0  0  0  0  0  0  0
  -23.6723  -14.7848   20.5153 C   0  0  0  0  0  0  0  0  0  0  0  0
  -23.2529  -17.9922   20.7582 C   0  0  0  0  0  0  0  0  0  0  0  0
  -24.6078  -21.0471   21.4499 C   0  0  0  0  0  0  0  0  0  0  0  0
  -29.9383  -23.1380   19.4968 C   0  0  0  0  0  0  0  0  0  0  0  0
  -20.7126  -10.6289   20.3530 C   0  0  0  0  0  0  0  0  0  0  0  0
  -24.5970  -15.2404   22.8160 C   0  0  0  0  0  0  0  0  0  0  0  0
  -25.6331  -17.1577   20.8171 C   0  0  0  0  0  0  0  0  0  0  0  0
  -20.5426  -12.1047   20.0016 C   0  0  0  0  0  0  0  0  0  0  0  0
  -30.8738  -26.5220   19.5448 C   0  0  0  0  0  0  0  0  0  0  0  0
  -21.7069  -12.5863   19.1419 C   0  0  0  0  0  0  0  0  0  0  0  0
  -29.5189  -27.2089   19.7140 C   0  0  0  0  0  0  0  0  0  0  0  0
  -32.0693  -21.2108   21.5297 C   0  0  0  0  0  0  0  0  0  0  0  0
  -31.4140  -20.0042   19.4126 C   0  0  0  0  0  0  0  0  0  0  0  0
  -30.9876  -25.2600   20.4019 C   0  0  0  0  0  0  0  0  0  0  0  0
  -32.0518  -22.5348   20.7601 C   0  0  0  0  0  0  0  0  0  0  0  0
  -31.4370  -21.3435   18.6812 C   0  0  0  0  0  0  0  0  0  0  0  0
  -28.5300  -24.9809   20.3660 C   0  0  0  0  0  0  0  0  0  0  0  0
  -23.0372  -12.4606   19.8943 C   0  0  1  0  0  0  0  0  0  0  0  0
  -23.7319  -15.7484   21.6666 C   0  0  1  0  0  0  0  0  0  0  0  0
  -28.3643  -26.2201   19.4728 C   0  0  1  0  0  0  0  0  0  0  0  0
  -32.3715  -20.0279   20.6068 C   0  0  0  0  0  0  0  0  0  0  0  0
  -34.7210  -13.9401   19.7541 C   0  0  0  0  0  0  0  0  0  0  0  0
  -36.3404  -16.2745   20.2883 C   0  0  0  0  0  0  0  0  0  0  0  0
  -31.8471  -14.0793   20.0333 C   0  0  0  0  0  0  0  0  0  0  0  0
  -35.0891  -18.7477   21.1014 C   0  0  0  0  0  0  0  0  0  0  0  0
  -24.0285  -23.4876   21.5256 C   0  0  0  0  0  0  0  0  0  0  0  0
  -23.3714  -18.1124   17.7116 C   0  0  0  0  0  0  0  0  0  0  0  0
  -23.7442  -20.5815   17.8931 C   0  0  0  0  0  0  0  0  0  0  0  0
  -21.6270  -19.5755   18.7463 C   0  0  0  0  0  0  0  0  0  0  0  0
  -25.2127  -21.2198   24.3418 C   0  0  0  0  0  0  0  0  0  0  0  0
  -30.5908  -16.5500   20.8465 C   0  0  0  0  0  0  0  0  0  1  0  0
  -23.7791  -19.1983   20.0183 C   0  0  1  0  0  0  0  0  0  0  0  0
  -24.1191  -22.1926   22.3178 C   0  0  2  0  0  0  0  0  0  0  0  0
  -23.1479  -19.3486   18.6053 C   0  0  0  0  0  0  0  0  0  0  0  0
  -26.8844  -27.8636   20.5636 N   0  0  0  0  0  0  0  0  0  0  0  0
  -27.0094  -26.8765   19.6603 N   0  0  0  0  0  0  0  0  0  0  0  0
  -24.2002  -17.0274   21.1292 N   0  0  0  0  0  0  0  0  0  0  0  0
  -29.8445  -24.3668   20.1671 N   0  0  0  0  0  0  0  0  0  0  0  0
  -31.1564  -22.4493   19.5975 N   0  0  0  0  0  0  0  0  0  0  0  0
  -25.8000  -25.6155   18.0608 N   0  0  0  0  0  0  0  0  0  0  0  0
  -22.6895  -28.4269   19.7394 N   0  0  0  0  0  0  0  0  0  0  0  0
  -32.2601  -18.7921   21.3500 N   0  0  0  0  0  0  0  0  0  0  0  0
  -23.1808  -13.5375   20.8503 N   0  0  0  0  0  0  0  0  0  0  0  0
  -23.5598  -20.3431   20.8956 N   0  0  0  0  0  0  0  0  0  0  0  0
  -25.0474  -22.4068   23.4639 N   0  3  0  0  0  0  0  0  0  0  0  0
  -23.0472  -26.7216   18.2484 O   0  0  0  0  0  0  0  0  0  0  0  0
  -24.0432  -15.1466   19.4048 O   0  0  0  0  0  0  0  0  0  0  0  0
  -22.0468  -17.9125   21.0044 O   0  0  0  0  0  0  0  0  0  0  0  0
  -25.8001  -20.8036   21.2776 O   0  0  0  0  0  0  0  0  0  0  0  0
  -28.9894  -22.6824   18.8463 O   0  0  0  0  0  0  0  0  0  0  0  0
  -23.5135  -32.2744   23.6831 O   0  0  0  0  0  0  0  0  0  0  0  0
  -30.1724  -15.6058   21.8218 O   0  0  0  0  0  0  0  0  0  1  0  0
  -24.8682  -32.2744   29.0281 F   0  0  0  0  0  0  0  0  0  0  0  0
  -26.1549  -32.4633   24.4768 F   0  0  0  0  0  0  0  0  0  0  0  0
  1  2  1  0  0  0  0
  1  5  2  0  0  0  0
  2  6  2  0  0  0  0
  3  8  2  0  0  0  0
  3 15  1  0  0  0  0
  4  9  1  0  0  0  0
  4 15  2  0  0  0  0
  5 17  1  0  0  0  0
  6 19  1  0  0  0  0
  7 10  2  0  0  0  0
  7 18  1  0  0  0  0
  8 27  1  0  0  0  0
  9 27  2  0  0  0  0
 10 28  1  0  0  0  0
 11 12  2  0  0  0  0
 11 29  1  0  0  0  0
 12 30  1  0  0  0  0
 13 20  1  0  0  0  0
 13 28  2  0  0  0  0
 14 30  2  0  0  0  0
 14 31  1  0  0  0  0
 15 32  1  0  0  0  0
 16 32  1  0  0  0  0
 16 33  2  0  0  0  0
 16 34  1  0  0  0  0
 17 19  2  0  0  0  0
 17 39  1  0  0  0  0
 18 20  2  0  0  0  0
 18 40  1  0  0  0  0
 19 52  1  0  0  0  0
 20 41  1  0  0  0  0
 21 22  1  0  0  0  0
 21 23  2  0  0  0  0
 21 56  1  0  0  0  0
 22 24  2  0  0  0  0
 22 57  1  0  0  0  0
 23 25  1  0  0  0  0
 23 58  1  0  0  0  0
 24 26  1  0  0  0  0
 24 59  1  0  0  0  0
 25 26  2  0  0  0  0
 25 65  1  0  0  0  0
 26 76  1  0  0  0  0
 27 85  1  0  0  0  0
 28 86  1  0  0  0  0
 29 31  2  0  0  0  0
 29 85  1  0  0  0  0
 30 87  1  0  0  0  0
 31 88  1  0  0  0  0
 32 69  2  0  0  0  0
 33 70  1  0  0  0  0
 33 74  1  0  0  0  0
 34 75  1  0  0  0  0
 34 80  2  0  0  0  0
 35 53  1  0  0  0  0
 35 77  1  0  0  0  0
 35 81  2  0  0  0  0
 36 66  1  0  0  0  0
 36 71  1  0  0  0  0
 36 82  2  0  0  0  0
 37 67  1  0  0  0  0
 37 78  1  0  0  0  0
 37 83  2  0  0  0  0
 38 72  1  0  0  0  0
 38 73  1  0  0  0  0
 38 84  2  0  0  0  0
 39 42  1  0  0  0  0
 40 53  1  0  0  0  0
 41 71  1  0  0  0  0
 42 44  1  0  0  0  0
 43 45  1  0  0  0  0
 43 48  1  0  0  0  0
 44 52  1  0  0  0  0
 45 54  1  0  0  0  0
 46 49  1  0  0  0  0
 46 55  1  0  0  0  0
 47 50  1  0  0  0  0
 47 55  1  0  0  0  0
 48 72  1  0  0  0  0
 49 73  1  0  0  0  0
 50 73  1  0  0  0  0
 51 54  1  0  0  0  0
 51 72  1  0  0  0  0
 52 77  1  0  0  0  0
 53 71  1  0  0  0  0
 54 70  1  0  0  0  0
 55 76  1  0  0  0  0
 60 67  1  0  0  0  0
 61 68  1  0  0  0  0
 62 68  1  0  0  0  0
 63 68  1  0  0  0  0
 64 79  1  0  0  0  0
 65 86  1  0  0  0  0
 66 68  1  0  0  0  0
 66 78  1  0  0  0  0
 67 79  1  0  0  0  0
 69 70  1  0  0  0  0
M  CHG  1  79   1
M  ISO  4  38 100  65 101  73 100  86 101
M  END
> <Batch ID>
0162

> <Smiles>
CNC(C)C(=O)NC(C(=O)N1Cc2cc([101O:1][101CH2:1]c3c(C)c(C)c(C)c(C)c3NC3CC[100N:0]([100C:0](=O)N4CCCC(n5nc(-c6ccc(Oc7ccc(F)cc7F)cc6)c(C(N)=O)c5N)C4)CC3)ccc2CC1C(=O)NC1CCCc2ccccc21)C(C)(C)C

> <Shape>
0.223

> <Color>
0.065

> <Negative vol penalty>
0.000

$$$$

  -OEChem-04052322143D

 88 97  0     1  0  0  0  0  0999 V2000
  -20.7346   -7.6604   18.5041 C   0  0  0  0  0  0  0  0  0  0  0  0
  -20.2832   -8.9465   18.2254 C   0  0  0  0  0  0  0  0  0  0  0  0
  -22.4922  -26.8197   23.1658 C   0  0  0  0  0  0  0  0  0  0  0  0
  -23.5019  -28.4151   21.6584 C   0  0  0  0  0  0  0  0  0  0  0  0
  -21.6397   -7.4505   19.5436 C   0  0  0  0  0  0  0  0  0  0  0  0
  -20.7360  -10.0234   18.9869 C   0  0  0  0  0  0  0  0  0  0  0  0
  -24.2641  -16.6160   16.7249 C   0  0  0  0  0  0  0  0  0  0  0  0
  -21.5208  -27.7596   23.5100 C   0  0  0  0  0  0  0  0  0  0  0  0
  -22.5304  -29.3551   22.0026 C   0  0  0  0  0  0  0  0  0  0  0  0
  -25.0353  -17.7486   16.4631 C   0  0  0  0  0  0  0  0  0  0  0  0
  -18.5626  -29.6181   24.5153 C   0  0  0  0  0  0  0  0  0  0  0  0
  -17.2368  -29.1888   24.5741 C   0  0  0  0  0  0  0  0  0  0  0  0
  -25.9470  -17.6583   18.7011 C   0  0  0  0  0  0  0  0  0  0  0  0
  -17.3369  -28.5604   22.2434 C   0  0  0  0  0  0  0  0  0  0  0  0
  -23.4828  -27.1474   22.2401 C   0  0  0  0  0  0  0  0  0  0  0  0
  -29.5282  -23.3642   16.8893 C   0  0  0  0  0  0  0  0  0  0  0  0
  -24.2783  -24.9116   21.3043 C   0  0  0  0  0  0  0  0  0  0  0  0
  -22.1113   -8.5266   20.3119 C   0  0  0  0  0  0  0  0  0  0  0  0
  -24.3431  -15.9904   17.9722 C   0  0  0  0  0  0  0  0  0  0  0  0
  -21.6473   -9.8275   20.0385 C   0  0  0  0  0  0  0  0  0  0  0  0
  -25.1863  -16.5162   18.9649 C   0  0  0  0  0  0  0  0  0  0  0  0
  -30.2516  -22.2428   17.2950 C   0  0  0  0  0  0  0  0  0  0  0  0
  -28.1338  -23.3439   16.9216 C   0  0  0  0  0  0  0  0  0  0  0  0
  -29.5807  -21.1010   17.7330 C   0  0  0  0  0  0  0  0  0  0  0  0
  -27.4629  -22.2021   17.3595 C   0  0  0  0  0  0  0  0  0  0  0  0
  -28.1863  -21.0806   17.7653 C   0  0  0  0  0  0  0  0  0  0  0  0
  -21.5399  -29.0273   22.9284 C   0  0  0  0  0  0  0  0  0  0  0  0
  -25.8744  -18.2686   17.4489 C   0  0  0  0  0  0  0  0  0  0  0  0
  -19.2756  -29.5187   23.3204 C   0  0  0  0  0  0  0  0  0  0  0  0
  -16.6239  -28.6599   23.4382 C   0  0  0  0  0  0  0  0  0  0  0  0
  -18.6627  -28.9898   22.1845 C   0  0  0  0  0  0  0  0  0  0  0  0
  -24.4868  -26.1771   21.8845 C   0  0  0  0  0  0  0  0  0  0  0  0
  -25.5393  -24.3851   21.1662 C   0  0  0  0  0  0  0  0  0  0  0  0
  -30.2359  -24.5686   16.4272 C   0  0  0  0  0  0  0  0  0  0  0  0
  -23.0541  -24.2693   20.9240 C   0  0  0  0  0  0  0  0  0  0  0  0
  -30.9421  -26.9768   20.7141 C   0  0  0  0  0  0  0  0  0  0  0  0
  -23.1850  -13.1844   20.1771 C   0  0  0  0  0  0  0  0  0  0  0  0
  -26.1961  -13.5141   20.6620 C   0  0  0  0  0  0  0  0  0  0  0  0
  -29.5823  -13.9217   20.5949 C   0  0  0  0  0  0  0  0  0  0  0  0
  -23.0529   -8.2443   21.4557 C   0  0  0  0  0  0  0  0  0  0  0  0
  -23.4846  -14.8044   18.3189 C   0  0  0  0  0  0  0  0  0  0  0  0
  -25.2130  -15.8305   20.3036 C   0  0  0  0  0  0  0  0  0  0  0  0
  -23.7717   -9.4873   21.9739 C   0  0  0  0  0  0  0  0  0  0  0  0
  -29.8990  -24.5281   23.1132 C   0  0  0  0  0  0  0  0  0  0  0  0
  -22.7853  -10.6361   22.1590 C   0  0  0  0  0  0  0  0  0  0  0  0
  -28.3736  -24.5787   23.0378 C   0  0  0  0  0  0  0  0  0  0  0  0
  -31.6048  -27.4121   18.3353 C   0  0  0  0  0  0  0  0  0  0  0  0
  -30.5145  -25.9079   22.9024 C   0  0  0  0  0  0  0  0  0  0  0  0
  -31.2519  -26.7520   17.0126 C   0  0  0  0  0  0  0  0  0  0  0  0
  -30.2309  -25.5083   18.7994 C   0  0  0  0  0  0  0  0  0  0  0  0
  -28.5672  -26.6258   21.5555 C   0  0  0  0  0  0  0  0  0  0  0  0
  -22.1343  -11.0244   20.8261 C   0  0  1  0  0  0  0  0  0  0  0  0
  -30.4995  -26.9321   19.2732 C   0  0  1  0  0  0  0  0  0  0  0  0
  -24.1897  -13.8000   19.2480 C   0  0  1  0  0  0  0  0  0  0  0  0
  -27.9066  -25.2472   21.7326 C   0  0  2  0  0  0  0  0  0  0  0  0
  -31.7481  -22.2607   17.2623 C   0  0  0  0  0  0  0  0  0  0  0  0
  -27.3537  -24.5452   16.4867 C   0  0  0  0  0  0  0  0  0  0  0  0
  -30.3563  -19.8976   18.1681 C   0  0  0  0  0  0  0  0  0  0  0  0
  -25.9671  -22.1800   17.3946 C   0  0  0  0  0  0  0  0  0  0  0  0
  -31.6938  -13.0342   21.6203 C   0  0  0  0  0  0  0  0  0  0  0  0
  -25.5930  -15.0521   23.2261 C   0  0  0  0  0  0  0  0  0  0  0  0
  -28.0306  -14.9359   23.7851 C   0  0  0  0  0  0  0  0  0  0  0  0
  -26.6998  -12.8366   23.5739 C   0  0  0  0  0  0  0  0  0  0  0  0
  -30.6254  -13.0422   17.9686 C   0  0  0  0  0  0  0  0  0  0  0  0
  -27.4646  -19.8524   18.2365 C   0  0  0  0  0  0  0  0  0  1  0  0
  -27.2812  -14.1502   21.4934 C   0  0  1  0  0  0  0  0  0  0  0  0
  -30.7152  -12.9201   20.4618 C   0  0  2  0  0  0  0  0  0  0  0  0
  -26.8925  -14.2553   22.9951 C   0  0  0  0  0  0  0  0  0  0  0  0
  -25.7787  -26.4388   22.1004 N   0  0  0  0  0  0  0  0  0  0  0  0
  -26.3933  -25.3303   21.6535 N   0  0  0  0  0  0  0  0  0  0  0  0
  -30.5648  -25.5235   17.3772 N   0  0  0  0  0  0  0  0  0  0  0  0
  -30.0288  -26.5186   21.6638 N   0  0  0  0  0  0  0  0  0  0  0  0
  -25.2302  -14.3708   20.1201 N   0  0  0  0  0  0  0  0  0  0  0  0
  -25.9899  -23.2104   20.6769 N   0  0  0  0  0  0  0  0  0  0  0  0
  -22.5697  -24.4705   19.6243 N   0  0  0  0  0  0  0  0  0  0  0  0
  -23.0465  -11.8174   20.0301 N   0  0  0  0  0  0  0  0  0  0  0  0
  -28.4932  -13.3778   21.2426 N   0  0  0  0  0  0  0  0  0  0  0  0
  -31.4615  -13.1479   19.1921 N   0  3  0  0  0  0  0  0  0  0  0  0
  -30.4793  -24.6539   15.2251 O   0  0  0  0  0  0  0  0  0  0  0  0
  -22.4003  -23.5519   21.7186 O   0  0  0  0  0  0  0  0  0  0  0  0
  -32.0675  -27.4037   20.9852 O   0  0  0  0  0  0  0  0  0  0  0  0
  -22.5803  -13.8961   20.9705 O   0  0  0  0  0  0  0  0  0  0  0  0
  -26.1990  -12.2905   20.5004 O   0  0  0  0  0  0  0  0  0  0  0  0
  -29.6574  -15.0726   20.1704 O   0  0  0  0  0  0  0  0  0  0  0  0
  -20.5920  -29.9447   23.2638 O   0  0  0  0  0  0  0  0  0  0  0  0
  -26.6279  -19.3720   17.1851 O   0  0  0  0  0  0  0  0  0  1  0  0
  -15.3512  -28.2461   23.4953 F   0  0  0  0  0  0  0  0  0  0  0  0
  -19.3428  -28.8906   21.0342 F   0  0  0  0  0  0  0  0  0  0  0  0
  1  2  1  0  0  0  0
  1  5  2  0  0  0  0
  2  6  2  0  0  0  0
  3  8  2  0  0  0  0
  3 15  1  0  0  0  0
  4  9  1  0  0  0  0
  4 15  2  0  0  0  0
  5 18  1  0  0  0  0
  6 20  1  0  0  0  0
  7 10  2  0  0  0  0
  7 19  1  0  0  0  0
  8 27  1  0  0  0  0
  9 27  2  0  0  0  0
 10 28  1  0  0  0  0
 11 12  2  0  0  0  0
 11 29  1  0  0  0  0
 12 30  1  0  0  0  0
 13 21  1  0  0  0  0
 13 28  2  0  0  0  0
 14 30  2  0  0  0  0
 14 31  1  0  0  0  0
 15 32  1  0  0  0  0
 16 22  1  0  0  0  0
 16 23  2  0  0  0  0
 16 34  1  0  0  0  0
 17 32  1  0  0  0  0
 17 33  2  0  0  0  0
 17 35  1  0  0  0  0
 18 20  2  0  0  0  0
 18 40  1  0  0  0  0
 19 21  2  0  0  0  0
 19 41  1  0  0  0  0
 20 52  1  0  0  0  0
 21 42  1  0  0  0  0
 22 24  2  0  0  0  0
 22 56  1  0  0  0  0
 23 25  1  0  0  0  0
 23 57  1  0  0  0  0
 24 26  1  0  0  0  0
 24 58  1  0  0  0  0
 25 26  2  0  0  0  0
 25 59  1  0  0  0  0
 26 65  1  0  0  0  0
 27 85  1  0  0  0  0
 28 86  1  0  0  0  0
 29 31  2  0  0  0  0
 29 85  1  0  0  0  0
 30 87  1  0  0  0  0
 31 88  1  0  0  0  0
 32 69  2  0  0  0  0
 33 70  1  0  0  0  0
 33 74  1  0  0  0  0
 34 71  1  0  0  0  0
 34 79  2  0  0  0  0
 35 75  1  0  0  0  0
 35 80  2  0  0  0  0
 36 53  1  0  0  0  0
 36 72  1  0  0  0  0
 36 81  2  0  0  0  0
 37 54  1  0  0  0  0
 37 76  1  0  0  0  0
 37 82  2  0  0  0  0
 38 66  1  0  0  0  0
 38 73  1  0  0  0  0
 38 83  2  0  0  0  0
 39 67  1  0  0  0  0
 39 77  1  0  0  0  0
 39 84  2  0  0  0  0
 40 43  1  0  0  0  0
 41 54  1  0  0  0  0
 42 73  1  0  0  0  0
 43 45  1  0  0  0  0
 44 46  1  0  0  0  0
 44 48  1  0  0  0  0
 45 52  1  0  0  0  0
 46 55  1  0  0  0  0
 47 49  1  0  0  0  0
 47 53  1  0  0  0  0
 48 72  1  0  0  0  0
 49 71  1  0  0  0  0
 50 53  1  0  0  0  0
 50 71  1  0  0  0  0
 51 55  1  0  0  0  0
 51 72  1  0  0  0  0
 52 76  1  0  0  0  0
 54 73  1  0  0  0  0
 55 70  1  0  0  0  0
 60 67  1  0  0  0  0
 61 68  1  0  0  0  0
 62 68  1  0  0  0  0
 63 68  1  0  0  0  0
 64 78  1  0  0  0  0
 65 86  1  0  0  0  0
 66 68  1  0  0  0  0
 66 77  1  0  0  0  0
 67 78  1  0  0  0  0
 69 70  1  0  0  0  0
M  CHG  1  78   1
M  ISO  4  36 100  53 100  65 101  86 101
M  END
> <Batch ID>
0162

> <Smiles>
CNC(C)C(=O)NC(C(=O)N1Cc2cc([101O:1][101CH2:1]c3c(C)c(C)c(C(=O)N4CC[100CH:0]([100C:0](=O)N5CCCC(n6nc(-c7ccc(Oc8ccc(F)cc8F)cc7)c(C(N)=O)c6N)C5)C4)c(C)c3C)ccc2CC1C(=O)NC1CCCc2ccccc21)C(C)(C)C

> <Shape>
0.235

> <Color>
0.052

> <Negative vol penalty>
0.000

$$$$

  -OEChem-04052322143D

 87 96  0     1  0  0  0  0  0999 V2000
  -29.1122  -33.2769   25.3834 C   0  0  0  0  0  0  0  0  0  0  0  0
  -29.4511  -32.0650   25.9766 C   0  0  0  0  0  0  0  0  0  0  0  0
  -23.1106   -9.8502   19.8838 C   0  0  0  0  0  0  0  0  0  0  0  0
  -23.8184   -9.8118   22.1934 C   0  0  0  0  0  0  0  0  0  0  0  0
  -28.2205  -33.3019   24.3118 C   0  0  0  0  0  0  0  0  0  0  0  0
  -28.8978  -30.8775   25.4992 C   0  0  0  0  0  0  0  0  0  0  0  0
  -31.6090  -25.3918   25.2490 C   0  0  0  0  0  0  0  0  0  0  0  0
  -22.3846   -8.6766   20.0868 C   0  0  0  0  0  0  0  0  0  0  0  0
  -23.0924   -8.6383   22.3965 C   0  0  0  0  0  0  0  0  0  0  0  0
  -31.5495  -24.2771   26.0843 C   0  0  0  0  0  0  0  0  0  0  0  0
  -23.4623   -5.3383   21.7606 C   0  0  0  0  0  0  0  0  0  0  0  0
  -24.0819   -4.3067   22.4659 C   0  0  0  0  0  0  0  0  0  0  0  0
  -29.8630  -23.3064   24.6585 C   0  0  0  0  0  0  0  0  0  0  0  0
  -22.3394   -4.4024   24.1367 C   0  0  0  0  0  0  0  0  0  0  0  0
  -23.8276  -10.4178   20.9371 C   0  0  0  0  0  0  0  0  0  0  0  0
  -24.1214  -12.9514   20.8900 C   0  0  0  0  0  0  0  0  0  0  0  0
  -27.6634  -32.1131   23.8148 C   0  0  0  0  0  0  0  0  0  0  0  0
  -30.7868  -25.4772   24.1163 C   0  0  0  0  0  0  0  0  0  0  0  0
  -27.9968  -30.8867   24.4208 C   0  0  0  0  0  0  0  0  0  0  0  0
  -29.9159  -24.4221   23.8091 C   0  0  0  0  0  0  0  0  0  0  0  0
  -32.2178  -19.4605   26.3817 C   0  0  0  0  0  0  0  0  0  0  0  0
  -31.3318  -18.5517   25.8140 C   0  0  0  0  0  0  0  0  0  0  0  0
  -33.4888  -19.6153   25.8394 C   0  0  0  0  0  0  0  0  0  0  0  0
  -22.3754   -8.0707   21.3431 C   0  0  0  0  0  0  0  0  0  0  0  0
  -30.6743  -23.2355   25.7907 C   0  0  0  0  0  0  0  0  0  0  0  0
  -22.2812   -5.9021   22.2434 C   0  0  0  0  0  0  0  0  0  0  0  0
  -23.5204   -3.8388   23.6539 C   0  0  0  0  0  0  0  0  0  0  0  0
  -21.7198   -5.4341   23.4314 C   0  0  0  0  0  0  0  0  0  0  0  0
  -24.5783  -11.6297   20.7279 C   0  0  0  0  0  0  0  0  0  0  0  0
  -31.7617  -17.8276   24.7137 C   0  0  0  0  0  0  0  0  0  0  0  0
  -33.8222  -18.8434   24.7381 C   0  0  0  0  0  0  0  0  0  0  0  0
  -25.2062  -13.7312   20.5714 C   0  0  0  0  0  0  0  0  0  0  0  0
  -22.8317  -13.4312   21.2927 C   0  0  0  0  0  0  0  0  0  0  0  0
  -28.4832  -27.4478   23.1600 C   0  0  0  0  0  0  0  0  0  0  0  0
  -28.6587  -25.7025   20.4314 C   0  0  0  0  0  0  0  0  0  0  0  0
  -29.5084  -22.7614   18.9230 C   0  0  0  0  0  0  0  0  0  0  0  0
  -30.6660  -14.8067   20.9337 C   0  0  0  0  0  0  0  0  0  0  0  0
  -26.6677  -32.1949   22.6850 C   0  0  0  0  0  0  0  0  0  0  0  0
  -30.8823  -26.6744   23.2107 C   0  0  0  0  0  0  0  0  0  0  0  0
  -29.0267  -24.4560   22.5939 C   0  0  0  0  0  0  0  0  0  0  0  0
  -26.4150  -30.8555   21.9977 C   0  0  0  0  0  0  0  0  0  0  0  0
  -29.6118  -12.5528   18.4254 C   0  0  0  0  0  0  0  0  0  0  0  0
  -26.1957  -29.7571   23.0331 C   0  0  0  0  0  0  0  0  0  0  0  0
  -28.1842  -12.1879   18.8232 C   0  0  0  0  0  0  0  0  0  0  0  0
  -30.9308  -15.3716   24.5482 C   0  0  0  0  0  0  0  0  0  0  0  0
  -30.4957  -12.6994   19.6567 C   0  0  0  0  0  0  0  0  0  0  0  0
  -30.2245  -14.5906   23.4482 C   0  0  0  0  0  0  0  0  0  0  0  0
  -31.0780  -16.6401   22.5463 C   0  0  0  0  0  0  0  0  0  0  0  0
  -28.5559  -13.3925   21.0376 C   0  0  0  0  0  0  0  0  0  0  0  0
  -27.4366  -29.5749   23.9154 C   0  0  1  0  0  0  0  0  0  0  0  0
  -30.8431  -16.8241   24.0522 C   0  0  2  0  0  0  0  0  0  0  0  0
  -29.6293  -26.8866   22.3667 C   0  0  1  0  0  0  0  0  0  0  0  0
  -27.6224  -13.2106   19.8230 C   0  0  2  0  0  0  0  0  0  0  0  0
  -29.9611  -18.3642   26.3727 C   0  0  0  0  0  0  0  0  0  0  0  0
  -34.4624  -20.5821   26.4256 C   0  0  0  0  0  0  0  0  0  0  0  0
  -35.1735  -18.9635   24.1129 C   0  0  0  0  0  0  0  0  0  0  0  0
  -32.6800  -19.9612   28.8039 C   0  0  0  0  0  0  0  0  0  0  0  0
  -29.5002  -21.6192   16.6885 C   0  0  0  0  0  0  0  0  0  0  0  0
  -25.6524  -25.2437   20.6797 C   0  0  0  0  0  0  0  0  0  0  0  0
  -25.8716  -23.3751   19.0278 C   0  0  0  0  0  0  0  0  0  0  0  0
  -26.4485  -25.7068   18.3545 C   0  0  0  0  0  0  0  0  0  0  0  0
  -32.4535  -22.4696   18.9315 C   0  0  0  0  0  0  0  0  0  0  0  0
  -31.8086  -21.7864   27.2971 C   0  0  0  0  0  0  0  0  0  1  0  0
  -31.8067  -20.2667   27.5723 C   0  0  1  0  0  0  0  0  0  0  0  0
  -27.9885  -24.4511   19.9178 C   0  0  1  0  0  0  0  0  0  0  0  0
  -30.3021  -22.4683   17.6626 C   0  0  2  0  0  0  0  0  0  0  0  0
  -26.5055  -24.6941   19.5190 C   0  0  0  0  0  0  0  0  0  0  0  0
  -25.8539  -11.5695   20.3365 N   0  0  0  0  0  0  0  0  0  0  0  0
  -32.9884  -17.9505   24.1591 N   0  0  0  0  0  0  0  0  0  0  0  0
  -26.2078  -12.8631   20.2500 N   0  0  0  0  0  0  0  0  0  0  0  0
  -29.1521  -25.6508   21.7428 N   0  0  0  0  0  0  0  0  0  0  0  0
  -29.9381  -13.6547   20.6159 N   0  0  0  0  0  0  0  0  0  0  0  0
  -30.5412  -15.3220   22.2233 N   0  0  0  0  0  0  0  0  0  0  0  0
  -25.3915  -15.0680   20.5376 N   0  0  0  0  0  0  0  0  0  0  0  0
  -21.8309  -12.4940   21.5831 N   0  0  0  0  0  0  0  0  0  0  0  0
  -28.4547  -28.8285   23.2077 N   0  0  0  0  0  0  0  0  0  0  0  0
  -28.8262  -23.9562   18.8307 N   0  0  0  0  0  0  0  0  0  0  0  0
  -31.5573  -21.7388   17.9988 N   0  3  0  0  0  0  0  0  0  0  0  0
  -22.5696  -14.6551   21.3763 O   0  0  0  0  0  0  0  0  0  0  0  0
  -27.6832  -26.6846   23.6885 O   0  0  0  0  0  0  0  0  0  0  0  0
  -28.7478  -26.6871   19.6937 O   0  0  0  0  0  0  0  0  0  0  0  0
  -29.4920  -22.0043   19.8910 O   0  0  0  0  0  0  0  0  0  0  0  0
  -31.4296  -15.3316   20.1120 O   0  0  0  0  0  0  0  0  0  0  0  0
  -21.6669   -6.9257   21.5416 O   0  0  0  0  0  0  0  0  0  0  0  0
  -30.6133  -22.1394   26.6100 O   0  0  0  0  0  0  0  0  0  1  0  0
  -24.1147   -2.8470   24.3303 F   0  0  0  0  0  0  0  0  0  0  0  0
  -20.5847   -5.9709   23.8996 F   0  0  0  0  0  0  0  0  0  0  0  0
  1  2  1  0  0  0  0
  1  5  2  0  0  0  0
  2  6  2  0  0  0  0
  3  8  2  0  0  0  0
  3 15  1  0  0  0  0
  4  9  1  0  0  0  0
  4 15  2  0  0  0  0
  5 17  1  0  0  0  0
  6 19  1  0  0  0  0
  7 10  2  0  0  0  0
  7 18  1  0  0  0  0
  8 24  1  0  0  0  0
  9 24  2  0  0  0  0
 10 25  1  0  0  0  0
 11 12  2  0  0  0  0
 11 26  1  0  0  0  0
 12 27  1  0  0  0  0
 13 20  1  0  0  0  0
 13 25  2  0  0  0  0
 14 27  2  0  0  0  0
 14 28  1  0  0  0  0
 15 29  1  0  0  0  0
 16 29  1  0  0  0  0
 16 32  2  0  0  0  0
 16 33  1  0  0  0  0
 17 19  2  0  0  0  0
 17 38  1  0  0  0  0
 18 20  2  0  0  0  0
 18 39  1  0  0  0  0
 19 50  1  0  0  0  0
 20 40  1  0  0  0  0
 21 22  2  0  0  0  0
 21 23  1  0  0  0  0
 21 64  1  0  0  0  0
 22 30  1  0  0  0  0
 22 54  1  0  0  0  0
 23 31  2  0  0  0  0
 23 55  1  0  0  0  0
 24 84  1  0  0  0  0
 25 85  1  0  0  0  0
 26 28  2  0  0  0  0
 26 84  1  0  0  0  0
 27 86  1  0  0  0  0
 28 87  1  0  0  0  0
 29 68  2  0  0  0  0
 30 51  1  0  0  0  0
 30 69  2  0  0  0  0
 31 56  1  0  0  0  0
 31 69  1  0  0  0  0
 32 70  1  0  0  0  0
 32 74  1  0  0  0  0
 33 75  1  0  0  0  0
 33 79  2  0  0  0  0
 34 52  1  0  0  0  0
 34 76  1  0  0  0  0
 34 80  2  0  0  0  0
 35 65  1  0  0  0  0
 35 71  1  0  0  0  0
 35 81  2  0  0  0  0
 36 66  1  0  0  0  0
 36 77  1  0  0  0  0
 36 82  2  0  0  0  0
 37 72  1  0  0  0  0
 37 73  1  0  0  0  0
 37 83  2  0  0  0  0
 38 41  1  0  0  0  0
 39 52  1  0  0  0  0
 40 71  1  0  0  0  0
 41 43  1  0  0  0  0
 42 44  1  0  0  0  0
 42 46  1  0  0  0  0
 43 50  1  0  0  0  0
 44 53  1  0  0  0  0
 45 47  1  0  0  0  0
 45 51  1  0  0  0  0
 46 72  1  0  0  0  0
 47 73  1  0  0  0  0
 48 51  1  0  0  0  0
 48 73  1  0  0  0  0
 49 53  1  0  0  0  0
 49 72  1  0  0  0  0
 50 76  1  0  0  0  0
 52 71  1  0  0  0  0
 53 70  1  0  0  0  0
 57 64  1  0  0  0  0
 58 66  1  0  0  0  0
 59 67  1  0  0  0  0
 60 67  1  0  0  0  0
 61 67  1  0  0  0  0
 62 78  1  0  0  0  0
 63 64  1  0  0  0  0
 63 85  1  0  0  0  0
 65 67  1  0  0  0  0
 65 77  1  0  0  0  0
 66 78  1  0  0  0  0
 68 70  1  0  0  0  0
M  CHG  1  78   1
M  ISO  4  37 100  63 101  73 100  85 101
M  END
> <Batch ID>
0162

> <Smiles>
CNC(C)C(=O)NC(C(=O)N1Cc2cc([101O:1][101CH2:1]C(C)c3c(C)c(C)nc(C4CC[100N:0]([100C:0](=O)N5CCCC(n6nc(-c7ccc(Oc8ccc(F)cc8F)cc7)c(C(N)=O)c6N)C5)C4)c3C)ccc2CC1C(=O)NC1CCCc2ccccc21)C(C)(C)C

> <Shape>
0.268

> <Color>
0.210

> <Negative vol penalty>
0.000

$$$$

  -OEChem-04052322143D

 88 97  0     1  0  0  0  0  0999 V2000
  -21.9274  -36.8543   17.7268 C   0  0  0  0  0  0  0  0  0  0  0  0
  -22.2528  -35.6038   17.2111 C   0  0  0  0  0  0  0  0  0  0  0  0
  -23.2278  -10.6048   22.2115 C   0  0  0  0  0  0  0  0  0  0  0  0
  -24.6252   -9.9763   20.3435 C   0  0  0  0  0  0  0  0  0  0  0  0
  -22.5839  -37.3320   18.8602 C   0  0  0  0  0  0  0  0  0  0  0  0
  -23.2358  -34.8308   17.8280 C   0  0  0  0  0  0  0  0  0  0  0  0
  -24.9580  -28.0038   19.1481 C   0  0  0  0  0  0  0  0  0  0  0  0
  -22.2481   -9.7110   21.7794 C   0  0  0  0  0  0  0  0  0  0  0  0
  -23.6454   -9.0825   19.9113 C   0  0  0  0  0  0  0  0  0  0  0  0
  -26.0214  -27.1140   19.0035 C   0  0  0  0  0  0  0  0  0  0  0  0
  -19.5304   -7.3316   21.3699 C   0  0  0  0  0  0  0  0  0  0  0  0
  -18.9310   -6.5135   22.3275 C   0  0  0  0  0  0  0  0  0  0  0  0
  -27.0334  -28.0079   21.0025 C   0  0  0  0  0  0  0  0  0  0  0  0
  -31.6329  -24.1392   18.3731 C   0  0  0  0  0  0  0  0  0  0  0  0
  -21.0858   -5.5603   22.8618 C   0  0  0  0  0  0  0  0  0  0  0  0
  -24.4164  -10.7375   21.4935 C   0  0  0  0  0  0  0  0  0  0  0  0
  -26.4916  -11.3958   22.8232 C   0  0  0  0  0  0  0  0  0  0  0  0
  -23.5687  -36.5603   19.4970 C   0  0  0  0  0  0  0  0  0  0  0  0
  -24.9295  -28.9113   20.2168 C   0  0  0  0  0  0  0  0  0  0  0  0
  -23.9071  -35.2992   18.9702 C   0  0  0  0  0  0  0  0  0  0  0  0
  -25.9671  -28.9064   21.1599 C   0  0  0  0  0  0  0  0  0  0  0  0
  -30.5134  -24.9708   18.3442 C   0  0  0  0  0  0  0  0  0  0  0  0
  -31.5019  -22.8066   18.7639 C   0  0  0  0  0  0  0  0  0  0  0  0
  -29.2629  -24.4698   18.7061 C   0  0  0  0  0  0  0  0  0  0  0  0
  -29.1319  -23.1372   19.0969 C   0  0  0  0  0  0  0  0  0  0  0  0
  -30.2514  -22.3056   19.1258 C   0  0  0  0  0  0  0  0  0  0  0  0
  -22.4569   -8.9498   20.6293 C   0  0  0  0  0  0  0  0  0  0  0  0
  -27.0608  -27.1178   19.9291 C   0  0  0  0  0  0  0  0  0  0  0  0
  -20.9075   -7.2639   21.1581 C   0  0  0  0  0  0  0  0  0  0  0  0
  -19.7087   -5.6279   23.0735 C   0  0  0  0  0  0  0  0  0  0  0  0
  -21.6851   -6.3783   21.9041 C   0  0  0  0  0  0  0  0  0  0  0  0
  -25.4286  -11.6611   21.9391 C   0  0  0  0  0  0  0  0  0  0  0  0
  -27.1623  -12.5903   22.9219 C   0  0  0  0  0  0  0  0  0  0  0  0
  -26.8414  -10.1784   23.4950 C   0  0  0  0  0  0  0  0  0  0  0  0
  -24.9277  -32.0799   20.4693 C   0  0  0  0  0  0  0  0  0  0  0  0
  -24.4964  -31.4390   23.6198 C   0  0  0  0  0  0  0  0  0  0  0  0
  -24.8598  -29.2417   26.2056 C   0  0  0  0  0  0  0  0  0  0  0  0
  -29.3685  -17.0206   20.8365 C   0  0  0  0  0  0  0  0  0  0  0  0
  -24.2843  -37.1390   20.6918 C   0  0  0  0  0  0  0  0  0  0  0  0
  -23.7620  -29.8465   20.3736 C   0  0  0  0  0  0  0  0  0  0  0  0
  -25.9739  -29.8469   22.3363 C   0  0  0  0  0  0  0  0  0  0  0  0
  -25.0497  -36.0989   21.5059 C   0  0  0  0  0  0  0  0  0  0  0  0
  -25.9011  -17.2255   21.3606 C   0  0  0  0  0  0  0  0  0  0  0  0
  -25.8626  -35.1935   20.5860 C   0  0  0  0  0  0  0  0  0  0  0  0
  -25.5477  -15.7633   21.6305 C   0  0  0  0  0  0  0  0  0  0  0  0
  -26.9309  -17.3685   20.2387 C   0  0  0  0  0  0  0  0  0  0  0  0
  -30.2728  -20.6157   20.9346 C   0  0  0  0  0  0  0  0  0  0  0  0
  -29.2504  -20.1009   18.7129 C   0  0  0  0  0  0  0  0  0  0  0  0
  -30.6084  -19.1362   21.1024 C   0  0  0  0  0  0  0  0  0  0  0  0
  -29.6151  -18.6343   18.9142 C   0  0  0  0  0  0  0  0  0  0  0  0
  -27.8042  -15.1036   20.7137 C   0  0  0  0  0  0  0  0  0  0  0  0
  -24.9503  -34.4206   19.6258 C   0  0  1  0  0  0  0  0  0  0  0  0
  -24.0909  -31.0774   21.2127 C   0  0  1  0  0  0  0  0  0  0  0  0
  -26.8149  -14.9250   21.8759 C   0  0  2  0  0  0  0  0  0  0  0  0
  -30.6807  -26.3939   17.9222 C   0  0  0  0  0  0  0  0  0  0  0  0
  -27.7883  -22.6035   19.4849 C   0  0  0  0  0  0  0  0  0  0  0  0
  -33.7777  -22.4407   19.7838 C   0  0  0  0  0  0  0  0  0  0  0  0
  -33.3487  -21.7803   17.3891 C   0  0  0  0  0  0  0  0  0  0  0  0
  -24.4481  -29.0149   28.6707 C   0  0  0  0  0  0  0  0  0  0  0  0
  -26.9082  -33.2208   24.1841 C   0  0  0  0  0  0  0  0  0  0  0  0
  -27.0273  -32.2155   26.4739 C   0  0  0  0  0  0  0  0  0  0  0  0
  -25.0058  -33.5032   25.7827 C   0  0  0  0  0  0  0  0  0  0  0  0
  -23.0334  -26.9472   25.8072 C   0  0  0  0  0  0  0  0  0  0  0  0
  -28.0643  -25.3645   18.6742 C   0  0  0  0  0  0  0  0  0  1  0  0
  -32.7192  -21.9400   18.7847 C   0  0  0  0  0  0  0  0  0  0  0  0
  -25.4106  -31.2096   24.7991 C   0  0  1  0  0  0  0  0  0  0  0  0
  -23.8894  -28.7768   27.2764 C   0  0  2  0  0  0  0  0  0  0  0  0
  -26.0891  -32.5208   25.2868 C   0  0  0  0  0  0  0  0  0  0  0  0
  -25.4204  -12.9249   21.5071 N   0  0  0  0  0  0  0  0  0  0  0  0
  -26.4864  -13.4645   22.1224 N   0  0  0  0  0  0  0  0  0  0  0  0
  -30.1220  -20.9673   19.5185 N   0  0  0  0  0  0  0  0  0  0  0  0
  -24.8133  -30.7465   22.4426 N   0  0  0  0  0  0  0  0  0  0  0  0
  -28.1026  -16.5207   20.4963 N   0  0  0  0  0  0  0  0  0  0  0  0
  -29.7065  -18.2869   20.3339 N   0  0  0  0  0  0  0  0  0  0  0  0
  -28.2583  -12.9677   23.6138 N   0  0  0  0  0  0  0  0  0  0  0  0
  -26.0452   -9.0450   23.2817 N   0  0  0  0  0  0  0  0  0  0  0  0
  -24.3210  -33.3111   20.3096 N   0  0  0  0  0  0  0  0  0  0  0  0
  -24.6060  -30.5395   25.8149 N   0  0  0  0  0  0  0  0  0  0  0  0
  -23.6091  -27.3210   27.1247 N   0  3  0  0  0  0  0  0  0  0  0  0
  -27.8212  -10.1025   24.2746 O   0  0  0  0  0  0  0  0  0  0  0  0
  -26.0419  -31.7605   20.0715 O   0  0  0  0  0  0  0  0  0  0  0  0
  -23.5323  -32.1990   23.7409 O   0  0  0  0  0  0  0  0  0  0  0  0
  -25.7559  -28.5265   25.7629 O   0  0  0  0  0  0  0  0  0  0  0  0
  -30.1498  -16.3777   21.5486 O   0  0  0  0  0  0  0  0  0  0  0  0
  -21.5011   -8.0773   20.2075 O   0  0  0  0  0  0  0  0  0  0  0  0
  -28.1081  -26.2444   19.7889 O   0  0  0  0  0  0  0  0  0  1  0  0
  -19.1332   -4.8435   23.9942 F   0  0  0  0  0  0  0  0  0  0  0  0
  -23.0087   -6.3097   21.7060 F   0  0  0  0  0  0  0  0  0  0  0  0
  1  2  1  0  0  0  0
  1  5  2  0  0  0  0
  2  6  2  0  0  0  0
  3  8  2  0  0  0  0
  3 16  1  0  0  0  0
  4  9  1  0  0  0  0
  4 16  2  0  0  0  0
  5 18  1  0  0  0  0
  6 20  1  0  0  0  0
  7 10  2  0  0  0  0
  7 19  1  0  0  0  0
  8 27  1  0  0  0  0
  9 27  2  0  0  0  0
 10 28  1  0  0  0  0
 11 12  2  0  0  0  0
 11 29  1  0  0  0  0
 12 30  1  0  0  0  0
 13 21  1  0  0  0  0
 13 28  2  0  0  0  0
 14 22  2  0  0  0  0
 14 23  1  0  0  0  0
 15 30  2  0  0  0  0
 15 31  1  0  0  0  0
 16 32  1  0  0  0  0
 17 32  1  0  0  0  0
 17 33  2  0  0  0  0
 17 34  1  0  0  0  0
 18 20  2  0  0  0  0
 18 39  1  0  0  0  0
 19 21  2  0  0  0  0
 19 40  1  0  0  0  0
 20 52  1  0  0  0  0
 21 41  1  0  0  0  0
 22 24  1  0  0  0  0
 22 55  1  0  0  0  0
 23 26  2  0  0  0  0
 23 65  1  0  0  0  0
 24 25  2  0  0  0  0
 24 64  1  0  0  0  0
 25 26  1  0  0  0  0
 25 56  1  0  0  0  0
 26 71  1  0  0  0  0
 27 85  1  0  0  0  0
 28 86  1  0  0  0  0
 29 31  2  0  0  0  0
 29 85  1  0  0  0  0
 30 87  1  0  0  0  0
 31 88  1  0  0  0  0
 32 69  2  0  0  0  0
 33 70  1  0  0  0  0
 33 75  1  0  0  0  0
 34 76  1  0  0  0  0
 34 80  2  0  0  0  0
 35 53  1  0  0  0  0
 35 77  1  0  0  0  0
 35 81  2  0  0  0  0
 36 66  1  0  0  0  0
 36 72  1  0  0  0  0
 36 82  2  0  0  0  0
 37 67  1  0  0  0  0
 37 78  1  0  0  0  0
 37 83  2  0  0  0  0
 38 73  1  0  0  0  0
 38 74  1  0  0  0  0
 38 84  2  0  0  0  0
 39 42  1  0  0  0  0
 40 53  1  0  0  0  0
 41 72  1  0  0  0  0
 42 44  1  0  0  0  0
 43 45  1  0  0  0  0
 43 46  1  0  0  0  0
 44 52  1  0  0  0  0
 45 54  1  0  0  0  0
 46 73  1  0  0  0  0
 47 49  1  0  0  0  0
 47 71  1  0  0  0  0
 48 50  1  0  0  0  0
 48 71  1  0  0  0  0
 49 74  1  0  0  0  0
 50 74  1  0  0  0  0
 51 54  1  0  0  0  0
 51 73  1  0  0  0  0
 52 77  1  0  0  0  0
 53 72  1  0  0  0  0
 54 70  1  0  0  0  0
 57 65  1  0  0  0  0
 58 65  1  0  0  0  0
 59 67  1  0  0  0  0
 60 68  1  0  0  0  0
 61 68  1  0  0  0  0
 62 68  1  0  0  0  0
 63 79  1  0  0  0  0
 64 86  1  0  0  0  0
 66 68  1  0  0  0  0
 66 78  1  0  0  0  0
 67 79  1  0  0  0  0
 69 70  1  0  0  0  0
M  CHG  1  79   1
M  ISO  4  38 100  64 101  74 100  86 101
M  END
> <Batch ID>
0162

> <Smiles>
CNC(C)C(=O)NC(C(=O)N1Cc2cc([101O:1][101CH2:1]c3c(C)cc(C(C)C)c(N4CC[100N:0]([100C:0](=O)N5CCCC(n6nc(-c7ccc(Oc8ccc(F)cc8F)cc7)c(C(N)=O)c6N)C5)CC4)c3C)ccc2CC1C(=O)NC1CCCc2ccccc21)C(C)(C)C

> <Shape>
0.278

> <Color>
0.086

> <Negative vol penalty>
0.000

$$$$

  -OEChem-04052322143D

 89 98  0     1  0  0  0  0  0999 V2000
  -31.8481  -17.0585   23.8400 C   0  0  0  0  0  0  0  0  0  0  0  0
  -30.7224  -17.8269   24.1189 C   0  0  0  0  0  0  0  0  0  0  0  0
  -29.9457  -24.4522   20.2685 C   0  0  0  0  0  0  0  0  0  0  0  0
  -27.9951  -24.0473   18.9016 C   0  0  0  0  0  0  0  0  0  0  0  0
  -31.7863  -16.0610   22.8678 C   0  0  0  0  0  0  0  0  0  0  0  0
  -29.5345  -17.5989   23.4251 C   0  0  0  0  0  0  0  0  0  0  0  0
  -23.8371  -18.1131   25.6116 C   0  0  0  0  0  0  0  0  0  0  0  0
  -30.2358  -23.0879   20.2588 C   0  0  0  0  0  0  0  0  0  0  0  0
  -28.2852  -22.6830   18.8919 C   0  0  0  0  0  0  0  0  0  0  0  0
  -22.8869  -19.1295   25.5237 C   0  0  0  0  0  0  0  0  0  0  0  0
  -30.4005  -20.5993   17.2781 C   0  0  0  0  0  0  0  0  0  0  0  0
  -30.3128  -19.9284   16.0584 C   0  0  0  0  0  0  0  0  0  0  0  0
  -20.9912  -27.1453   21.9837 C   0  0  0  0  0  0  0  0  0  0  0  0
  -21.8701  -18.0084   23.6453 C   0  0  0  0  0  0  0  0  0  0  0  0
  -18.5049  -28.0094   22.9078 C   0  0  0  0  0  0  0  0  0  0  0  0
  -28.6254  -18.4675   16.9833 C   0  0  0  0  0  0  0  0  0  0  0  0
  -28.8254  -24.9319   19.5900 C   0  0  0  0  0  0  0  0  0  0  0  0
  -28.9674  -27.3113   18.6810 C   0  0  0  0  0  0  0  0  0  0  0  0
  -30.5944  -15.8142   22.1685 C   0  0  0  0  0  0  0  0  0  0  0  0
  -23.8175  -17.0404   24.7085 C   0  0  0  0  0  0  0  0  0  0  0  0
  -29.4572  -16.5981   22.4418 C   0  0  0  0  0  0  0  0  0  0  0  0
  -20.1502  -26.2583   22.6555 C   0  0  0  0  0  0  0  0  0  0  0  0
  -22.8197  -16.9783   23.7254 C   0  0  0  0  0  0  0  0  0  0  0  0
  -20.5892  -28.4644   21.7739 C   0  0  0  0  0  0  0  0  0  0  0  0
  -19.3460  -28.8965   22.2359 C   0  0  0  0  0  0  0  0  0  0  0  0
  -29.4055  -22.2033   19.5704 C   0  0  0  0  0  0  0  0  0  0  0  0
  -21.9049  -19.0788   24.5387 C   0  0  0  0  0  0  0  0  0  0  0  0
  -29.6007  -20.2043   18.3505 C   0  0  0  0  0  0  0  0  0  0  0  0
  -18.9070  -26.6903   23.1175 C   0  0  0  0  0  0  0  0  0  0  0  0
  -29.4253  -18.8625   15.9109 C   0  0  0  0  0  0  0  0  0  0  0  0
  -28.7132  -19.1384   18.2031 C   0  0  0  0  0  0  0  0  0  0  0  0
  -28.5249  -26.3411   19.6001 C   0  0  0  0  0  0  0  0  0  0  0  0
  -28.4106  -28.4853   19.1263 C   0  0  0  0  0  0  0  0  0  0  0  0
  -29.8065  -27.1644   17.5277 C   0  0  0  0  0  0  0  0  0  0  0  0
  -25.8262  -15.9170   22.5162 C   0  0  0  0  0  0  0  0  0  0  0  0
  -23.6470  -13.5232   22.3090 C   0  0  0  0  0  0  0  0  0  0  0  0
  -20.4272  -12.4888   22.7672 C   0  0  0  0  0  0  0  0  0  0  0  0
  -23.5597  -29.7071   22.4167 C   0  0  0  0  0  0  0  0  0  0  0  0
  -30.5893  -14.7567   21.0932 C   0  0  0  0  0  0  0  0  0  0  0  0
  -24.8334  -15.9383   24.8335 C   0  0  0  0  0  0  0  0  0  0  0  0
  -22.7427  -15.8380   22.7445 C   0  0  0  0  0  0  0  0  0  0  0  0
  -29.1875  -14.3282   20.6669 C   0  0  0  0  0  0  0  0  0  0  0  0
  -26.9208  -30.6412   23.1292 C   0  0  0  0  0  0  0  0  0  0  0  0
  -28.3023  -15.5494   20.4387 C   0  0  0  0  0  0  0  0  0  0  0  0
  -27.7529  -29.7326   22.2226 C   0  0  0  0  0  0  0  0  0  0  0  0
  -21.9205  -24.6014   23.5508 C   0  0  0  0  0  0  0  0  0  0  0  0
  -25.6863  -29.9222   23.6688 C   0  0  0  0  0  0  0  0  0  0  0  0
  -25.6608  -28.3979   21.7325 C   0  0  0  0  0  0  0  0  0  0  0  0
  -20.5932  -24.8599   22.8728 C   0  0  1  0  0  0  0  0  0  0  0  0
  -28.1434  -16.3643   21.7279 C   0  0  1  0  0  0  0  0  0  0  0  0
  -25.0293  -15.1566   23.5381 C   0  0  1  0  0  0  0  0  0  0  0  0
  -26.8866  -29.0961   21.1191 C   0  0  2  0  0  0  0  0  0  0  0  0
  -20.6457  -24.3123   24.2826 C   0  0  1  0  0  0  0  0  0  0  0  0
  -18.8941  -30.3038   22.0231 C   0  0  0  0  0  0  0  0  0  0  0  0
  -21.2816  -29.4019   19.5371 C   0  0  0  0  0  0  0  0  0  0  0  0
  -18.9396  -10.4895   22.4721 C   0  0  0  0  0  0  0  0  0  0  0  0
  -19.1356  -20.5112   25.9427 C   0  0  0  0  0  0  0  0  0  0  0  0
  -23.5414  -14.0482   19.3051 C   0  0  0  0  0  0  0  0  0  0  0  0
  -21.4140  -12.7309   19.2202 C   0  0  0  0  0  0  0  0  0  0  0  0
  -23.5326  -11.6299   19.9425 C   0  0  0  0  0  0  0  0  0  0  0  0
  -19.8448  -12.3493   25.6655 C   0  0  0  0  0  0  0  0  0  0  0  0
  -17.1477  -25.0956   22.9841 C   0  0  0  0  0  0  0  0  0  0  0  0
  -21.0192  -22.1998   25.5618 C   0  0  0  0  0  0  0  0  0  0  0  0
  -21.5082  -29.3968   21.0550 C   0  0  2  0  0  0  0  0  0  0  0  0
  -22.4023  -13.2785   21.4905 C   0  0  1  0  0  0  0  0  0  0  0  0
  -19.8520  -11.2470   23.4241 C   0  0  2  0  0  0  0  0  0  0  0  0
  -20.6162  -20.7321   25.6619 C   0  0  2  0  0  0  0  0  0  1  0  0
  -22.7249  -12.9445   20.0067 C   0  0  0  0  0  0  0  0  0  0  0  0
  -27.7472  -26.8542   20.5571 N   0  0  0  0  0  0  0  0  0  0  0  0
  -27.6967  -28.1596   20.2418 N   0  0  0  0  0  0  0  0  0  0  0  0
  -23.7623  -14.7878   22.9034 N   0  0  0  0  0  0  0  0  0  0  0  0
  -24.9074  -29.3427   22.5718 N   0  0  0  0  0  0  0  0  0  0  0  0
  -28.4671  -29.7540   18.6686 N   0  0  0  0  0  0  0  0  0  0  0  0
  -30.2927  -25.8880   17.2134 N   0  0  0  0  0  0  0  0  0  0  0  0
  -27.1917  -15.7286   22.6136 N   0  0  0  0  0  0  0  0  0  0  0  0
  -21.6532  -12.2387   22.1878 N   0  0  0  0  0  0  0  0  0  0  0  0
  -22.8962  -29.1167   21.3481 N   0  0  0  0  0  0  0  0  0  0  0  0
  -20.2700  -22.8860   24.4799 N   0  3  0  0  0  0  0  0  0  0  0  0
  -19.0647  -11.6184   24.6338 N   0  3  0  0  0  0  0  0  0  0  0  0
  -30.1295  -28.1390   16.8071 O   0  0  0  0  0  0  0  0  0  0  0  0
  -25.2452  -16.6213   21.6988 O   0  0  0  0  0  0  0  0  0  0  0  0
  -24.4826  -12.6230   22.4228 O   0  0  0  0  0  0  0  0  0  0  0  0
  -19.8453  -13.5714   22.7648 O   0  0  0  0  0  0  0  0  0  0  0  0
  -22.9915  -30.5038   23.1713 O   0  0  0  0  0  0  0  0  0  0  0  0
  -29.6884  -20.8719   19.5605 O   0  0  0  0  0  0  0  0  0  0  0  0
  -18.0724  -25.8380   23.7763 O   0  0  0  0  0  0  0  0  0  0  0  0
  -20.9766  -20.0699   24.4503 O   0  0  0  0  0  0  0  0  0  1  0  0
  -29.3401  -18.2193   14.7391 F   0  0  0  0  0  0  0  0  0  0  0  0
  -27.9414  -18.7551   19.2293 F   0  0  0  0  0  0  0  0  0  0  0  0
  1  2  1  0  0  0  0
  1  5  2  0  0  0  0
  2  6  2  0  0  0  0
  3  8  2  0  0  0  0
  3 17  1  0  0  0  0
  4  9  1  0  0  0  0
  4 17  2  0  0  0  0
  5 19  1  0  0  0  0
  6 21  1  0  0  0  0
  7 10  2  0  0  0  0
  7 20  1  0  0  0  0
  8 26  1  0  0  0  0
  9 26  2  0  0  0  0
 10 27  1  0  0  0  0
 11 12  2  0  0  0  0
 11 28  1  0  0  0  0
 12 30  1  0  0  0  0
 13 22  1  0  0  0  0
 13 24  2  0  0  0  0
 14 23  1  0  0  0  0
 14 27  2  0  0  0  0
 15 25  2  0  0  0  0
 15 29  1  0  0  0  0
 16 30  2  0  0  0  0
 16 31  1  0  0  0  0
 17 32  1  0  0  0  0
 18 32  1  0  0  0  0
 18 33  2  0  0  0  0
 18 34  1  0  0  0  0
 19 21  2  0  0  0  0
 19 39  1  0  0  0  0
 20 23  2  0  0  0  0
 20 40  1  0  0  0  0
 21 50  1  0  0  0  0
 22 29  2  0  0  0  0
 22 49  1  0  0  0  0
 23 41  1  0  0  0  0
 24 25  1  0  0  0  0
 24 64  1  0  0  0  0
 25 54  1  0  0  0  0
 26 85  1  0  0  0  0
 27 87  1  0  0  0  0
 28 31  2  0  0  0  0
 28 85  1  0  0  0  0
 29 86  1  0  0  0  0
 30 88  1  0  0  0  0
 31 89  1  0  0  0  0
 32 69  2  0  0  0  0
 33 70  1  0  0  0  0
 33 73  1  0  0  0  0
 34 74  1  0  0  0  0
 34 80  2  0  0  0  0
 35 51  1  0  0  0  0
 35 75  1  0  0  0  0
 35 81  2  0  0  0  0
 36 65  1  0  0  0  0
 36 71  1  0  0  0  0
 36 82  2  0  0  0  0
 37 66  1  0  0  0  0
 37 76  1  0  0  0  0
 37 83  2  0  0  0  0
 38 72  1  0  0  0  0
 38 77  1  0  0  0  0
 38 84  2  0  0  0  0
 39 42  1  0  0  0  0
 40 51  1  0  0  0  0
 41 71  1  0  0  0  0
 42 44  1  0  0  0  0
 43 45  1  0  0  0  0
 43 47  1  0  0  0  0
 44 50  1  0  0  0  0
 45 52  1  0  0  0  0
 46 49  1  0  0  0  0
 46 53  1  0  0  0  0
 47 72  1  0  0  0  0
 48 52  1  0  0  0  0
 48 72  1  0  0  0  0
 49 53  1  0  0  0  0
 50 75  1  0  0  0  0
 51 71  1  0  0  0  0
 52 70  1  0  0  0  0
 53 78  1  0  0  0  0
 55 64  1  0  0  0  0
 56 66  1  0  0  0  0
 57 67  1  0  0  0  0
 58 68  1  0  0  0  0
 59 68  1  0  0  0  0
 60 68  1  0  0  0  0
 61 79  1  0  0  0  0
 62 86  1  0  0  0  0
 63 67  1  0  0  0  0
 63 78  1  0  0  0  0
 64 77  1  0  0  0  0
 65 68  1  0  0  0  0
 65 76  1  0  0  0  0
 66 79  1  0  0  0  0
 67 87  1  0  0  0  0
 69 70  1  0  0  0  0
M  CHG  2  78   1  79   1
M  ISO  4  38 100  67 101  77 100  87 101
M  END
> <Batch ID>
0162

> <Smiles>
CNC(C)C(=O)NC(C(=O)N1Cc2cc([101O:1][101CH:1](C)CNC3CC3c3cc(C(C)[100NH:0][100C:0](=O)N4CCCC(n5nc(-c6ccc(Oc7ccc(F)cc7F)cc6)c(C(N)=O)c5N)C4)c(C)cc3OC)ccc2CC1C(=O)NC1CCCc2ccccc21)C(C)(C)C

> <Shape>
0.223

> <Color>
0.050

> <Negative vol penalty>
0.000

$$$$

  -OEChem-04052322143D

 89 98  0     1  0  0  0  0  0999 V2000
  -20.2178  -30.5172   20.0588 C   0  0  0  0  0  0  0  0  0  0  0  0
  -21.4829  -29.9497   20.1717 C   0  0  0  0  0  0  0  0  0  0  0  0
  -26.2418  -12.6177   21.5680 C   0  0  0  0  0  0  0  0  0  0  0  0
  -25.8415  -13.3404   19.2977 C   0  0  0  0  0  0  0  0  0  0  0  0
  -19.1560  -30.0042   20.8027 C   0  0  0  0  0  0  0  0  0  0  0  0
  -21.6873  -28.8695   21.0294 C   0  0  0  0  0  0  0  0  0  0  0  0
  -24.4655  -25.2043   18.9097 C   0  0  0  0  0  0  0  0  0  0  0  0
  -25.0648  -11.8699   21.5376 C   0  0  0  0  0  0  0  0  0  0  0  0
  -24.6645  -12.5926   19.2672 C   0  0  0  0  0  0  0  0  0  0  0  0
  -25.8436  -25.4057   18.8466 C   0  0  0  0  0  0  0  0  0  0  0  0
  -24.0328   -8.8986   20.2968 C   0  0  0  0  0  0  0  0  0  0  0  0
  -24.0768   -7.5997   20.8033 C   0  0  0  0  0  0  0  0  0  0  0  0
  -26.1321  -23.9957   20.7825 C   0  0  0  0  0  0  0  0  0  0  0  0
  -29.3756  -22.4130   17.9626 C   0  0  0  0  0  0  0  0  0  0  0  0
  -22.3962   -8.1807   22.4390 C   0  0  0  0  0  0  0  0  0  0  0  0
  -27.6386  -21.1620   16.9260 C   0  0  0  0  0  0  0  0  0  0  0  0
  -26.6302  -13.3530   20.4481 C   0  0  0  0  0  0  0  0  0  0  0  0
  -29.1359  -13.6967   20.1148 C   0  0  0  0  0  0  0  0  0  0  0  0
  -19.3454  -28.9109   21.6628 C   0  0  0  0  0  0  0  0  0  0  0  0
  -23.9084  -24.4046   19.9179 C   0  0  0  0  0  0  0  0  0  0  0  0
  -20.6274  -28.3422   21.7865 C   0  0  0  0  0  0  0  0  0  0  0  0
  -24.7469  -23.7837   20.8547 C   0  0  0  0  0  0  0  0  0  0  0  0
  -30.0087  -25.9004   18.7632 C   0  0  0  0  0  0  0  0  0  0  0  0
  -30.6140  -26.6727   19.7483 C   0  0  0  0  0  0  0  0  0  0  0  0
  -28.5123  -21.3234   17.9892 C   0  0  0  0  0  0  0  0  0  0  0  0
  -29.3394  -23.2955   16.8888 C   0  0  0  0  0  0  0  0  0  0  0  0
  -30.7953  -25.1922   17.8615 C   0  0  0  0  0  0  0  0  0  0  0  0
  -24.2761  -11.8573   20.3871 C   0  0  0  0  0  0  0  0  0  0  0  0
  -26.6769  -24.8036   19.7848 C   0  0  0  0  0  0  0  0  0  0  0  0
  -23.1706   -9.8386   20.8614 C   0  0  0  0  0  0  0  0  0  0  0  0
  -23.2584   -7.2407   21.8744 C   0  0  0  0  0  0  0  0  0  0  0  0
  -22.3523   -9.4796   21.9325 C   0  0  0  0  0  0  0  0  0  0  0  0
  -27.8457  -14.1262   20.4792 C   0  0  0  0  0  0  0  0  0  0  0  0
  -31.9987  -26.7034   19.7887 C   0  0  0  0  0  0  0  0  0  0  0  0
  -28.4289  -23.0458   15.8747 C   0  0  0  0  0  0  0  0  0  0  0  0
  -32.1718  -25.2893   17.9863 C   0  0  0  0  0  0  0  0  0  0  0  0
  -29.9346  -14.7946   20.3226 C   0  0  0  0  0  0  0  0  0  0  0  0
  -29.5732  -12.4197   19.6316 C   0  0  0  0  0  0  0  0  0  0  0  0
  -21.8712  -24.9019   22.3067 C   0  0  0  0  0  0  0  0  0  0  0  0
  -22.1076  -21.6862   22.6612 C   0  0  0  0  0  0  0  0  0  0  0  0
  -23.9282  -18.8428   22.1643 C   0  0  0  0  0  0  0  0  0  0  0  0
  -28.8567  -20.6715   20.3981 C   0  0  0  0  0  0  0  0  0  0  0  0
  -18.1777  -28.4212   22.4822 C   0  0  0  0  0  0  0  0  0  0  0  0
  -22.4223  -24.1757   19.9562 C   0  0  0  0  0  0  0  0  0  0  0  0
  -24.2005  -22.8995   21.9447 C   0  0  0  0  0  0  0  0  0  0  0  0
  -18.3956  -27.0362   23.0859 C   0  0  0  0  0  0  0  0  0  0  0  0
  -30.2600  -18.7299   23.0321 C   0  0  0  0  0  0  0  0  0  0  0  0
  -19.7763  -26.9449   23.7279 C   0  0  0  0  0  0  0  0  0  0  0  0
  -29.9228  -17.2895   22.6401 C   0  0  0  0  0  0  0  0  0  0  0  0
  -29.1342  -19.6956   22.6665 C   0  0  0  0  0  0  0  0  0  0  0  0
  -28.3566  -18.1940   20.8749 C   0  0  0  0  0  0  0  0  0  0  0  0
  -20.8834  -27.1536   22.6876 C   0  0  1  0  0  0  0  0  0  0  0  0
  -21.9174  -23.7578   21.3338 C   0  0  1  0  0  0  0  0  0  0  0  0
  -29.4881  -17.1942   21.1645 C   0  0  2  0  0  0  0  0  0  0  0  0
  -29.7978  -27.4431   20.7315 C   0  0  0  0  0  0  0  0  0  0  0  0
  -32.7057  -27.5135   20.8258 C   0  0  0  0  0  0  0  0  0  0  0  0
  -28.3433  -23.9577   14.6939 C   0  0  0  0  0  0  0  0  0  0  0  0
  -33.0717  -24.5529   17.0476 C   0  0  0  0  0  0  0  0  0  0  0  0
  -23.8791  -16.3714   22.5972 C   0  0  0  0  0  0  0  0  0  0  0  0
  -22.8198  -22.1867   25.5856 C   0  0  0  0  0  0  0  0  0  0  0  0
  -23.6698  -19.8350   25.7087 C   0  0  0  0  0  0  0  0  0  0  0  0
  -21.2649  -20.2654   25.2047 C   0  0  0  0  0  0  0  0  0  0  0  0
  -24.0011  -18.2175   19.2725 C   0  0  0  0  0  0  0  0  0  0  0  0
  -28.5123  -25.8328   18.6765 C   0  0  0  0  0  0  0  0  0  1  0  0
  -23.0085  -20.7601   23.4420 C   0  0  1  0  0  0  0  0  0  0  0  0
  -23.5408  -17.4818   21.6147 C   0  0  2  0  0  0  0  0  0  0  0  0
  -22.7012  -20.7800   24.9660 C   0  0  0  0  0  0  0  0  0  0  0  0
  -27.5744  -21.9981   15.8656 N   0  0  0  0  0  0  0  0  0  0  0  0
  -27.8216  -15.3976   20.8877 N   0  0  0  0  0  0  0  0  0  0  0  0
  -32.7960  -26.0292   18.9301 N   0  0  0  0  0  0  0  0  0  0  0  0
  -29.1066  -15.7765   20.7813 N   0  0  0  0  0  0  0  0  0  0  0  0
  -22.7403  -22.7115   21.9439 N   0  0  0  0  0  0  0  0  0  0  0  0
  -28.7783  -19.5519   21.2531 N   0  0  0  0  0  0  0  0  0  0  0  0
  -31.2574  -15.0062   20.1559 N   0  0  0  0  0  0  0  0  0  0  0  0
  -28.6216  -11.4024   19.4763 N   0  0  0  0  0  0  0  0  0  0  0  0
  -30.2103  -24.4034   16.8519 N   0  0  0  0  0  0  0  0  0  0  0  0
  -28.5257  -20.4067   19.0696 N   0  0  0  0  0  0  0  0  0  0  0  0
  -21.0710  -25.9531   21.9014 N   0  0  0  0  0  0  0  0  0  0  0  0
  -22.8775  -19.4455   22.8231 N   0  0  0  0  0  0  0  0  0  0  0  0
  -24.2609  -17.2148   20.3375 N   0  3  0  0  0  0  0  0  0  0  0  0
  -30.7750  -12.1825   19.3616 O   0  0  0  0  0  0  0  0  0  0  0  0
  -22.5128  -24.8354   23.3486 O   0  0  0  0  0  0  0  0  0  0  0  0
  -20.8880  -21.5023   22.6810 O   0  0  0  0  0  0  0  0  0  0  0  0
  -25.0517  -19.3216   22.0266 O   0  0  0  0  0  0  0  0  0  0  0  0
  -29.2189  -21.7772   20.8083 O   0  0  0  0  0  0  0  0  0  0  0  0
  -23.1276  -11.1275   20.3569 O   0  0  0  0  0  0  0  0  0  0  0  0
  -28.0223  -24.9991   19.7259 O   0  0  0  0  0  0  0  0  0  1  0  0
  -23.2996   -5.9930   22.3597 F   0  0  0  0  0  0  0  0  0  0  0  0
  -21.5211  -10.3780   22.4782 F   0  0  0  0  0  0  0  0  0  0  0  0
  1  2  1  0  0  0  0
  1  5  2  0  0  0  0
  2  6  2  0  0  0  0
  3  8  2  0  0  0  0
  3 17  1  0  0  0  0
  4  9  1  0  0  0  0
  4 17  2  0  0  0  0
  5 19  1  0  0  0  0
  6 21  1  0  0  0  0
  7 10  2  0  0  0  0
  7 20  1  0  0  0  0
  8 28  1  0  0  0  0
  9 28  2  0  0  0  0
 10 29  1  0  0  0  0
 11 12  2  0  0  0  0
 11 30  1  0  0  0  0
 12 31  1  0  0  0  0
 13 22  1  0  0  0  0
 13 29  2  0  0  0  0
 14 25  2  0  0  0  0
 14 26  1  0  0  0  0
 15 31  2  0  0  0  0
 15 32  1  0  0  0  0
 16 25  1  0  0  0  0
 16 68  2  0  0  0  0
 17 33  1  0  0  0  0
 18 33  1  0  0  0  0
 18 37  2  0  0  0  0
 18 38  1  0  0  0  0
 19 21  2  0  0  0  0
 19 43  1  0  0  0  0
 20 22  2  0  0  0  0
 20 44  1  0  0  0  0
 21 52  1  0  0  0  0
 22 45  1  0  0  0  0
 23 24  1  0  0  0  0
 23 27  2  0  0  0  0
 23 64  1  0  0  0  0
 24 34  2  0  0  0  0
 24 55  1  0  0  0  0
 25 77  1  0  0  0  0
 26 35  2  0  0  0  0
 26 76  1  0  0  0  0
 27 36  1  0  0  0  0
 27 76  1  0  0  0  0
 28 86  1  0  0  0  0
 29 87  1  0  0  0  0
 30 32  2  0  0  0  0
 30 86  1  0  0  0  0
 31 88  1  0  0  0  0
 32 89  1  0  0  0  0
 33 69  2  0  0  0  0
 34 56  1  0  0  0  0
 34 70  1  0  0  0  0
 35 57  1  0  0  0  0
 35 68  1  0  0  0  0
 36 58  1  0  0  0  0
 36 70  2  0  0  0  0
 37 71  1  0  0  0  0
 37 74  1  0  0  0  0
 38 75  1  0  0  0  0
 38 81  2  0  0  0  0
 39 53  1  0  0  0  0
 39 78  1  0  0  0  0
 39 82  2  0  0  0  0
 40 65  1  0  0  0  0
 40 72  1  0  0  0  0
 40 83  2  0  0  0  0
 41 66  1  0  0  0  0
 41 79  1  0  0  0  0
 41 84  2  0  0  0  0
 42 73  1  0  0  0  0
 42 77  1  0  0  0  0
 42 85  2  0  0  0  0
 43 46  1  0  0  0  0
 44 53  1  0  0  0  0
 45 72  1  0  0  0  0
 46 48  1  0  0  0  0
 47 49  1  0  0  0  0
 47 50  1  0  0  0  0
 48 52  1  0  0  0  0
 49 54  1  0  0  0  0
 50 73  1  0  0  0  0
 51 54  1  0  0  0  0
 51 73  1  0  0  0  0
 52 78  1  0  0  0  0
 53 72  1  0  0  0  0
 54 71  1  0  0  0  0
 59 66  1  0  0  0  0
 60 67  1  0  0  0  0
 61 67  1  0  0  0  0
 62 67  1  0  0  0  0
 63 80  1  0  0  0  0
 64 87  1  0  0  0  0
 65 67  1  0  0  0  0
 65 79  1  0  0  0  0
 66 80  1  0  0  0  0
 69 71  1  0  0  0  0
M  CHG  1  80   1
M  ISO  4  42 100  64 101  77 100  87 101
M  END
> <Batch ID>
0162

> <Smiles>
CNC(C)C(=O)NC(C(=O)N1Cc2cc([101O:1][101CH2:1]c3c(C)c(C)nc(C)c3Nc3cc([100NH:0][100C:0](=O)N4CCCC(n5nc(-c6ccc(Oc7ccc(F)cc7F)cc6)c(C(N)=O)c5N)C4)cnc3C)ccc2CC1C(=O)NC1CCCc2ccccc21)C(C)(C)C

> <Shape>
0.255

> <Color>
0.060

> <Negative vol penalty>
0.000

$$$$

  -OEChem-04052322143D

 88 98  0     1  0  0  0  0  0999 V2000
  -17.5778  -26.1911   22.4375 C   0  0  0  0  0  0  0  0  0  0  0  0
  -18.8580  -25.7065   22.6864 C   0  0  0  0  0  0  0  0  0  0  0  0
  -23.5084  -10.6185   21.7540 C   0  0  0  0  0  0  0  0  0  0  0  0
  -24.2901   -8.6435   20.6029 C   0  0  0  0  0  0  0  0  0  0  0  0
  -17.4103  -27.4372   21.8350 C   0  0  0  0  0  0  0  0  0  0  0  0
  -19.9714  -26.4675   22.3319 C   0  0  0  0  0  0  0  0  0  0  0  0
  -25.3095  -26.7928   25.3159 C   0  0  0  0  0  0  0  0  0  0  0  0
  -22.4174   -9.9010   22.2443 C   0  0  0  0  0  0  0  0  0  0  0  0
  -23.1991   -7.9259   21.0932 C   0  0  0  0  0  0  0  0  0  0  0  0
  -26.5366  -26.1624   25.1146 C   0  0  0  0  0  0  0  0  0  0  0  0
  -22.3018   -6.4292   23.9873 C   0  0  0  0  0  0  0  0  0  0  0  0
  -22.5444   -5.1563   24.5033 C   0  0  0  0  0  0  0  0  0  0  0  0
  -29.7778  -20.6388   21.0345 C   0  0  0  0  0  0  0  0  0  0  0  0
  -27.3155  -28.0850   23.8833 C   0  0  0  0  0  0  0  0  0  0  0  0
  -21.0587   -4.2042   22.8530 C   0  0  0  0  0  0  0  0  0  0  0  0
  -28.3030  -20.9764   19.1747 C   0  0  0  0  0  0  0  0  0  0  0  0
  -24.4447   -9.9898   20.9332 C   0  0  0  0  0  0  0  0  0  0  0  0
  -26.8343  -10.8776   21.0308 C   0  0  0  0  0  0  0  0  0  0  0  0
  -18.5222  -28.2180   21.4817 C   0  0  0  0  0  0  0  0  0  0  0  0
  -25.0720  -28.0718   24.7923 C   0  0  0  0  0  0  0  0  0  0  0  0
  -19.8186  -27.7246   21.7229 C   0  0  0  0  0  0  0  0  0  0  0  0
  -29.1043  -20.1210   19.9305 C   0  0  0  0  0  0  0  0  0  0  0  0
  -29.6099  -21.9775   21.3290 C   0  0  0  0  0  0  0  0  0  0  0  0
  -26.0855  -28.7306   24.0816 C   0  0  0  0  0  0  0  0  0  0  0  0
  -22.2627   -8.5547   21.9140 C   0  0  0  0  0  0  0  0  0  0  0  0
  -27.5389  -26.8073   24.3957 C   0  0  0  0  0  0  0  0  0  0  0  0
  -21.4376   -6.5897   22.9041 C   0  0  0  0  0  0  0  0  0  0  0  0
  -21.9229   -4.0437   23.9362 C   0  0  0  0  0  0  0  0  0  0  0  0
  -20.8161   -5.4772   22.3370 C   0  0  0  0  0  0  0  0  0  0  0  0
  -25.5716  -10.7306   20.4259 C   0  0  0  0  0  0  0  0  0  0  0  0
  -28.7914  -22.7473   20.5103 C   0  0  0  0  0  0  0  0  0  0  0  0
  -27.5435  -11.6660   20.1579 C   0  0  0  0  0  0  0  0  0  0  0  0
  -27.3224  -10.3487   22.2708 C   0  0  0  0  0  0  0  0  0  0  0  0
  -23.0234  -29.2896   22.6890 C   0  0  0  0  0  0  0  0  0  0  0  0
  -24.3415  -32.1032   23.6209 C   0  0  0  0  0  0  0  0  0  0  0  0
  -27.0106  -33.7454   24.9721 C   0  0  0  0  0  0  0  0  0  0  0  0
  -28.0240  -15.9269   16.7470 C   0  0  0  0  0  0  0  0  0  0  0  0
  -18.2918  -29.5380   20.7896 C   0  0  0  0  0  0  0  0  0  0  0  0
  -23.7523  -28.7492   25.0411 C   0  0  0  0  0  0  0  0  0  0  0  0
  -25.8879  -30.1124   23.5161 C   0  0  0  0  0  0  0  0  0  0  0  0
  -28.7646  -24.1697   20.9760 C   0  0  0  0  0  0  0  0  0  0  0  0
  -19.5188  -30.4461   20.7858 C   0  0  0  0  0  0  0  0  0  0  0  0
  -26.5120  -13.1116   15.4295 C   0  0  0  0  0  0  0  0  0  0  0  0
  -20.7624  -29.6615   20.3799 C   0  0  0  0  0  0  0  0  0  0  0  0
  -26.2318  -12.2423   16.6552 C   0  0  0  0  0  0  0  0  0  0  0  0
  -27.8984  -17.9114   19.6390 C   0  0  0  0  0  0  0  0  0  0  0  0
  -29.8780  -18.4755   18.1651 C   0  0  0  0  0  0  0  0  0  0  0  0
  -26.2180  -14.5783   15.7221 C   0  0  0  0  0  0  0  0  0  0  0  0
  -28.0387  -16.4429   19.2277 C   0  0  0  0  0  0  0  0  0  0  0  0
  -29.9877  -16.9954   17.8104 C   0  0  0  0  0  0  0  0  0  0  0  0
  -26.6989  -14.2632   18.1278 C   0  0  0  0  0  0  0  0  0  0  0  0
  -29.2422  -18.6576   19.5552 C   0  0  0  0  0  0  0  0  0  0  0  0
  -21.0509  -28.5314   21.3755 C   0  0  1  0  0  0  0  0  0  0  0  0
  -30.2109  -22.8069   22.4187 C   0  0  2  0  0  0  0  0  0  0  0  0
  -23.4400  -29.8415   24.0229 C   0  0  1  0  0  0  0  0  0  0  0  0
  -26.9868  -12.7670   17.8894 C   0  0  1  0  0  0  0  0  0  0  0  0
  -30.0323  -22.2330   23.8162 C   0  0  0  0  0  0  0  0  0  0  0  0
  -27.8089  -36.0475   25.5726 C   0  0  0  0  0  0  0  0  0  0  0  0
  -24.8862  -32.6802   20.6747 C   0  0  0  0  0  0  0  0  0  0  0  0
  -26.4849  -34.4683   21.3923 C   0  0  0  0  0  0  0  0  0  0  0  0
  -24.0692  -34.6449   21.9888 C   0  0  0  0  0  0  0  0  0  0  0  0
  -27.2473  -33.0420   27.8370 C   0  0  0  0  0  0  0  0  0  0  0  0
  -30.3242  -25.3546   22.5917 C   0  0  0  0  0  0  0  0  0  0  0  0
  -29.4445  -26.5188   23.0024 C   0  0  0  0  0  0  0  0  0  1  0  0
  -25.5148  -32.9369   23.1656 C   0  0  1  0  0  0  0  0  0  0  0  0
  -27.0993  -34.7957   26.0646 C   0  0  2  0  0  0  0  0  0  0  0  0
  -25.2421  -33.6557   21.8142 C   0  0  0  0  0  0  0  0  0  0  0  0
  -28.1272  -22.2939   19.4346 N   0  0  0  0  0  0  0  0  0  0  0  0
  -25.4808  -11.3742   19.2590 N   0  0  0  0  0  0  0  0  0  0  0  0
  -26.6954  -11.9332   19.1237 N   0  0  0  0  0  0  0  0  0  0  0  0
  -24.5781  -30.7305   23.7806 N   0  0  0  0  0  0  0  0  0  0  0  0
  -26.9502  -15.0374   16.9023 N   0  0  0  0  0  0  0  0  0  0  0  0
  -28.6886  -16.3315   17.9145 N   0  0  0  0  0  0  0  0  0  0  0  0
  -28.8035  -12.1499   20.1819 N   0  0  0  0  0  0  0  0  0  0  0  0
  -26.4621   -9.5580   23.0448 N   0  0  0  0  0  0  0  0  0  0  0  0
  -21.6658  -29.0589   22.5747 N   0  0  0  0  0  0  0  0  0  0  0  0
  -25.8279  -33.8381   24.2693 N   0  0  0  0  0  0  0  0  0  0  0  0
  -29.4685  -24.1560   22.3350 N   0  3  1  0  0  0  0  0  0  0  0  0
  -27.8478  -34.2613   27.2372 N   0  3  0  0  0  0  0  0  0  0  0  0
  -28.4816  -10.5842   22.6882 O   0  0  0  0  0  0  0  0  0  0  0  0
  -23.8708  -29.0892   21.8267 O   0  0  0  0  0  0  0  0  0  0  0  0
  -23.2570  -32.6509   23.8341 O   0  0  0  0  0  0  0  0  0  0  0  0
  -27.9030  -32.9272   24.7606 O   0  0  0  0  0  0  0  0  0  0  0  0
  -28.3697  -16.3354   15.6313 O   0  0  0  0  0  0  0  0  0  0  0  0
  -21.1984   -7.8541   22.3925 O   0  0  0  0  0  0  0  0  0  0  0  0
  -28.7459  -26.1895   24.1957 O   0  0  0  0  0  0  0  0  0  1  0  0
  -22.1571   -2.8212   24.4308 F   0  0  0  0  0  0  0  0  0  0  0  0
  -19.9858   -5.6250   21.2956 F   0  0  0  0  0  0  0  0  0  0  0  0
  1  2  1  0  0  0  0
  1  5  2  0  0  0  0
  2  6  2  0  0  0  0
  3  8  2  0  0  0  0
  3 17  1  0  0  0  0
  4  9  1  0  0  0  0
  4 17  2  0  0  0  0
  5 19  1  0  0  0  0
  6 21  1  0  0  0  0
  7 10  2  0  0  0  0
  7 20  1  0  0  0  0
  8 25  1  0  0  0  0
  9 25  2  0  0  0  0
 10 26  1  0  0  0  0
 11 12  2  0  0  0  0
 11 27  1  0  0  0  0
 12 28  1  0  0  0  0
 13 22  2  0  0  0  0
 13 23  1  0  0  0  0
 14 24  1  0  0  0  0
 14 26  2  0  0  0  0
 15 28  2  0  0  0  0
 15 29  1  0  0  0  0
 16 22  1  0  0  0  0
 16 68  2  0  0  0  0
 17 30  1  0  0  0  0
 18 30  1  0  0  0  0
 18 32  2  0  0  0  0
 18 33  1  0  0  0  0
 19 21  2  0  0  0  0
 19 38  1  0  0  0  0
 20 24  2  0  0  0  0
 20 39  1  0  0  0  0
 21 53  1  0  0  0  0
 22 52  1  0  0  0  0
 23 31  2  0  0  0  0
 23 54  1  0  0  0  0
 24 40  1  0  0  0  0
 25 85  1  0  0  0  0
 26 86  1  0  0  0  0
 27 29  2  0  0  0  0
 27 85  1  0  0  0  0
 28 87  1  0  0  0  0
 29 88  1  0  0  0  0
 30 69  2  0  0  0  0
 31 41  1  0  0  0  0
 31 68  1  0  0  0  0
 32 70  1  0  0  0  0
 32 74  1  0  0  0  0
 33 75  1  0  0  0  0
 33 80  2  0  0  0  0
 34 55  1  0  0  0  0
 34 76  1  0  0  0  0
 34 81  2  0  0  0  0
 35 65  1  0  0  0  0
 35 71  1  0  0  0  0
 35 82  2  0  0  0  0
 36 66  1  0  0  0  0
 36 77  1  0  0  0  0
 36 83  2  0  0  0  0
 37 72  1  0  0  0  0
 37 73  1  0  0  0  0
 37 84  2  0  0  0  0
 38 42  1  0  0  0  0
 39 55  1  0  0  0  0
 40 71  1  0  0  0  0
 41 78  1  0  0  0  0
 42 44  1  0  0  0  0
 43 45  1  0  0  0  0
 43 48  1  0  0  0  0
 44 53  1  0  0  0  0
 45 56  1  0  0  0  0
 46 49  1  0  0  0  0
 46 52  1  0  0  0  0
 47 50  1  0  0  0  0
 47 52  1  0  0  0  0
 48 72  1  0  0  0  0
 49 73  1  0  0  0  0
 50 73  1  0  0  0  0
 51 56  1  0  0  0  0
 51 72  1  0  0  0  0
 53 76  1  0  0  0  0
 54 57  1  0  0  0  0
 54 78  1  0  0  0  0
 55 71  1  0  0  0  0
 56 70  1  0  0  0  0
 58 66  1  0  0  0  0
 59 67  1  0  0  0  0
 60 67  1  0  0  0  0
 61 67  1  0  0  0  0
 62 79  1  0  0  0  0
 63 64  1  0  0  0  0
 63 78  1  0  0  0  0
 64 86  1  0  0  0  0
 65 67  1  0  0  0  0
 65 77  1  0  0  0  0
 66 79  1  0  0  0  0
 69 70  1  0  0  0  0
M  CHG  2  78   1  79   1
M  ISO  4  37 100  64 101  73 100  86 101
M  END
> <Batch ID>
0162

> <Smiles>
CNC(C)C(=O)NC(C(=O)N1Cc2cc([101O:1][101CH2:1]CN3Cc4ncc(C5CC[100N:0]([100C:0](=O)N6CCCC(n7nc(-c8ccc(Oc9ccc(F)cc9F)cc8)c(C(N)=O)c7N)C6)CC5)cc4C3C)ccc2CC1C(=O)NC1CCCc2ccccc21)C(C)(C)C

> <Shape>
0.280

> <Color>
0.100

> <Negative vol penalty>
0.000

$$$$

  -OEChem-04052322143D

 88 97  0     1  0  0  0  0  0999 V2000
  -29.3261  -30.8978   26.7751 C   0  0  0  0  0  0  0  0  0  0  0  0
  -28.7032  -29.7806   26.2279 C   0  0  0  0  0  0  0  0  0  0  0  0
  -23.1145   -9.7591   19.9363 C   0  0  0  0  0  0  0  0  0  0  0  0
  -23.7439   -9.8597   22.2667 C   0  0  0  0  0  0  0  0  0  0  0  0
  -28.9328  -32.1763   26.3818 C   0  0  0  0  0  0  0  0  0  0  0  0
  -27.6859  -29.9413   25.2879 C   0  0  0  0  0  0  0  0  0  0  0  0
  -28.1759  -26.8079   21.3399 C   0  0  0  0  0  0  0  0  0  0  0  0
  -22.3782   -8.6009   20.1851 C   0  0  0  0  0  0  0  0  0  0  0  0
  -23.0076   -8.7015   22.5155 C   0  0  0  0  0  0  0  0  0  0  0  0
  -27.7845  -25.4828   21.5263 C   0  0  0  0  0  0  0  0  0  0  0  0
  -23.3880   -5.3687   22.0931 C   0  0  0  0  0  0  0  0  0  0  0  0
  -23.9802   -4.3809   22.8800 C   0  0  0  0  0  0  0  0  0  0  0  0
  -25.6919  -25.9520   20.4216 C   0  0  0  0  0  0  0  0  0  0  0  0
  -22.1827   -4.5796   24.4820 C   0  0  0  0  0  0  0  0  0  0  0  0
  -23.7974  -10.3885   20.9770 C   0  0  0  0  0  0  0  0  0  0  0  0
  -24.1008  -12.9143   20.7870 C   0  0  0  0  0  0  0  0  0  0  0  0
  -27.9168  -32.3526   25.4293 C   0  0  0  0  0  0  0  0  0  0  0  0
  -27.3224  -27.7192   20.7016 C   0  0  0  0  0  0  0  0  0  0  0  0
  -27.2777  -31.2234   24.8825 C   0  0  0  0  0  0  0  0  0  0  0  0
  -26.0760  -27.2874   20.2261 C   0  0  0  0  0  0  0  0  0  0  0  0
  -25.5961  -20.0395   24.0078 C   0  0  0  0  0  0  0  0  0  0  0  0
  -22.3248   -8.0721   21.4747 C   0  0  0  0  0  0  0  0  0  0  0  0
  -26.5412  -25.0554   21.0697 C   0  0  0  0  0  0  0  0  0  0  0  0
  -22.1932   -5.9620   22.5007 C   0  0  0  0  0  0  0  0  0  0  0  0
  -23.3775   -3.9863   24.0744 C   0  0  0  0  0  0  0  0  0  0  0  0
  -21.5905   -5.5674   23.6951 C   0  0  0  0  0  0  0  0  0  0  0  0
  -24.5586  -11.5847   20.7205 C   0  0  0  0  0  0  0  0  0  0  0  0
  -24.9844  -18.8281   23.6337 C   0  0  0  0  0  0  0  0  0  0  0  0
  -26.9396  -19.8142   23.8328 C   0  0  0  0  0  0  0  0  0  0  0  0
  -25.1982  -13.6721   20.4587 C   0  0  0  0  0  0  0  0  0  0  0  0
  -22.7998  -13.4192   21.1161 C   0  0  0  0  0  0  0  0  0  0  0  0
  -25.8832  -30.4214   21.5561 C   0  0  0  0  0  0  0  0  0  0  0  0
  -25.0231  -30.4954   18.4293 C   0  0  0  0  0  0  0  0  0  0  0  0
  -24.4550  -28.7716   15.5392 C   0  0  0  0  0  0  0  0  0  0  0  0
  -30.5237  -14.8846   20.7438 C   0  0  0  0  0  0  0  0  0  0  0  0
  -27.4934  -33.7550   25.0706 C   0  0  0  0  0  0  0  0  0  0  0  0
  -27.7705  -29.1385   20.4845 C   0  0  0  0  0  0  0  0  0  0  0  0
  -25.1311  -28.2213   19.5165 C   0  0  0  0  0  0  0  0  0  0  0  0
  -26.6644  -33.8326   23.7912 C   0  0  0  0  0  0  0  0  0  0  0  0
  -29.6837  -12.3468   18.5503 C   0  0  0  0  0  0  0  0  0  0  0  0
  -25.5772  -32.7626   23.7939 C   0  0  0  0  0  0  0  0  0  0  0  0
  -28.2355  -12.0188   18.9137 C   0  0  0  0  0  0  0  0  0  0  0  0
  -28.7475  -18.0226   21.5738 C   0  0  0  0  0  0  0  0  0  0  0  0
  -28.2164  -16.2849   23.3343 C   0  0  0  0  0  0  0  0  0  0  0  0
  -30.5185  -12.5939   19.8018 C   0  0  0  0  0  0  0  0  0  0  0  0
  -30.0196  -17.2516   21.2295 C   0  0  0  0  0  0  0  0  0  0  0  0
  -29.5006  -15.5549   22.9521 C   0  0  0  0  0  0  0  0  0  0  0  0
  -28.5284  -13.3535   21.0578 C   0  0  0  0  0  0  0  0  0  0  0  0
  -26.1872  -31.3565   23.8417 C   0  0  1  0  0  0  0  0  0  0  0  0
  -26.6096  -30.1068   20.2790 C   0  0  1  0  0  0  0  0  0  0  0  0
  -27.6362  -13.1042   19.8254 C   0  0  2  0  0  0  0  0  0  0  0  0
  -28.3245  -17.7905   23.0347 C   0  0  0  0  0  0  0  0  0  0  0  0
  -23.5465  -18.5062   23.6266 C   0  0  0  0  0  0  0  0  0  0  0  0
  -28.1098  -20.6856   24.0503 C   0  0  0  0  0  0  0  0  0  0  0  0
  -25.4032  -21.7250   25.8826 C   0  0  0  0  0  0  0  0  0  0  0  0
  -23.7253  -29.0999   13.1607 C   0  0  0  0  0  0  0  0  0  0  0  0
  -22.1337  -30.8024   19.3606 C   0  0  0  0  0  0  0  0  0  0  0  0
  -21.3962  -30.1748   17.0519 C   0  0  0  0  0  0  0  0  0  0  0  0
  -22.7580  -32.2343   17.4075 C   0  0  0  0  0  0  0  0  0  0  0  0
  -27.0243  -27.7462   14.4874 C   0  0  0  0  0  0  0  0  0  0  0  0
  -24.5422  -22.2635   22.2242 C   0  0  0  0  0  0  0  0  0  0  0  0
  -24.7598  -23.5137   21.3947 C   0  0  0  0  0  0  0  0  0  1  0  0
  -24.9451  -21.2732   24.4816 C   0  0  1  0  0  0  0  0  0  0  0  0
  -23.8570  -29.9682   17.6285 C   0  0  1  0  0  0  0  0  0  0  0  0
  -24.9091  -29.0204   14.1121 C   0  0  2  0  0  0  0  0  0  0  0  0
  -22.5530  -30.7775   17.8772 C   0  0  0  0  0  0  0  0  0  0  0  0
  -25.8465  -11.4994   20.3769 N   0  0  0  0  0  0  0  0  0  0  0  0
  -25.8669  -17.9018   23.2498 N   0  0  0  0  0  0  0  0  0  0  0  0
  -27.0468  -18.5315   23.3817 N   0  0  0  0  0  0  0  0  0  0  0  0
  -26.2073  -12.7850   20.2244 N   0  0  0  0  0  0  0  0  0  0  0  0
  -25.6121  -29.6007   19.3340 N   0  0  0  0  0  0  0  0  0  0  0  0
  -29.9132  -13.6252   20.6444 N   0  0  0  0  0  0  0  0  0  0  0  0
  -29.8904  -15.8336   21.5631 N   0  0  0  0  0  0  0  0  0  0  0  0
  -25.3889  -15.0042   20.3505 N   0  0  0  0  0  0  0  0  0  0  0  0
  -21.7868  -12.5024   21.4285 N   0  0  0  0  0  0  0  0  0  0  0  0
  -26.6835  -30.9761   22.5366 N   0  0  0  0  0  0  0  0  0  0  0  0
  -24.2928  -29.9502   16.2363 N   0  0  0  0  0  0  0  0  0  0  0  0
  -25.8064  -27.9218   13.6551 N   0  3  0  0  0  0  0  0  0  0  0  0
  -25.1323  -22.4588   23.5645 N   0  3  0  0  0  0  0  0  0  0  0  0
  -22.5390  -14.6462   21.1166 O   0  0  0  0  0  0  0  0  0  0  0  0
  -24.6850  -30.1803   21.6449 O   0  0  0  0  0  0  0  0  0  0  0  0
  -25.4021  -31.6560   18.2533 O   0  0  0  0  0  0  0  0  0  0  0  0
  -24.2599  -27.6447   15.9893 O   0  0  0  0  0  0  0  0  0  0  0  0
  -31.5673  -15.1496   20.1343 O   0  0  0  0  0  0  0  0  0  0  0  0
  -21.6062   -6.9420   21.7180 O   0  0  0  0  0  0  0  0  0  0  0  0
  -26.1536  -23.7535   21.2522 O   0  0  0  0  0  0  0  0  0  1  0  0
  -23.9454   -3.0366   24.8292 F   0  0  0  0  0  0  0  0  0  0  0  0
  -20.4420   -6.1329   24.0913 F   0  0  0  0  0  0  0  0  0  0  0  0
  1  2  1  0  0  0  0
  1  5  2  0  0  0  0
  2  6  2  0  0  0  0
  3  8  2  0  0  0  0
  3 15  1  0  0  0  0
  4  9  1  0  0  0  0
  4 15  2  0  0  0  0
  5 17  1  0  0  0  0
  6 19  1  0  0  0  0
  7 10  2  0  0  0  0
  7 18  1  0  0  0  0
  8 22  1  0  0  0  0
  9 22  2  0  0  0  0
 10 23  1  0  0  0  0
 11 12  2  0  0  0  0
 11 24  1  0  0  0  0
 12 25  1  0  0  0  0
 13 20  1  0  0  0  0
 13 23  2  0  0  0  0
 14 25  2  0  0  0  0
 14 26  1  0  0  0  0
 15 27  1  0  0  0  0
 16 27  1  0  0  0  0
 16 30  2  0  0  0  0
 16 31  1  0  0  0  0
 17 19  2  0  0  0  0
 17 36  1  0  0  0  0
 18 20  2  0  0  0  0
 18 37  1  0  0  0  0
 19 49  1  0  0  0  0
 20 38  1  0  0  0  0
 21 28  1  0  0  0  0
 21 29  2  0  0  0  0
 21 63  1  0  0  0  0
 22 85  1  0  0  0  0
 23 86  1  0  0  0  0
 24 26  2  0  0  0  0
 24 85  1  0  0  0  0
 25 87  1  0  0  0  0
 26 88  1  0  0  0  0
 27 67  2  0  0  0  0
 28 53  1  0  0  0  0
 28 68  2  0  0  0  0
 29 54  1  0  0  0  0
 29 69  1  0  0  0  0
 30 70  1  0  0  0  0
 30 74  1  0  0  0  0
 31 75  1  0  0  0  0
 31 80  2  0  0  0  0
 32 50  1  0  0  0  0
 32 76  1  0  0  0  0
 32 81  2  0  0  0  0
 33 64  1  0  0  0  0
 33 71  1  0  0  0  0
 33 82  2  0  0  0  0
 34 65  1  0  0  0  0
 34 77  1  0  0  0  0
 34 83  2  0  0  0  0
 35 72  1  0  0  0  0
 35 73  1  0  0  0  0
 35 84  2  0  0  0  0
 36 39  1  0  0  0  0
 37 50  1  0  0  0  0
 38 71  1  0  0  0  0
 39 41  1  0  0  0  0
 40 42  1  0  0  0  0
 40 45  1  0  0  0  0
 41 49  1  0  0  0  0
 42 51  1  0  0  0  0
 43 46  1  0  0  0  0
 43 52  1  0  0  0  0
 44 47  1  0  0  0  0
 44 52  1  0  0  0  0
 45 72  1  0  0  0  0
 46 73  1  0  0  0  0
 47 73  1  0  0  0  0
 48 51  1  0  0  0  0
 48 72  1  0  0  0  0
 49 76  1  0  0  0  0
 50 71  1  0  0  0  0
 51 70  1  0  0  0  0
 52 69  1  0  0  0  0
 55 63  1  0  0  0  0
 56 65  1  0  0  0  0
 57 66  1  0  0  0  0
 58 66  1  0  0  0  0
 59 66  1  0  0  0  0
 60 78  1  0  0  0  0
 61 62  1  0  0  0  0
 61 79  1  0  0  0  0
 62 86  1  0  0  0  0
 63 79  1  0  0  0  0
 64 66  1  0  0  0  0
 64 77  1  0  0  0  0
 65 78  1  0  0  0  0
 67 70  1  0  0  0  0
 68 69  1  0  0  0  0
M  CHG  2  78   1  79   1
M  ISO  4  35 100  62 101  73 100  86 101
M  END
> <Batch ID>
0162

> <Smiles>
CNC(C)C(=O)NC(C(=O)N1Cc2cc([101O:1][101CH2:1]CNC(C)c3c(C)nn(C4CC[100N:0]([100C:0](=O)N5CCCC(n6nc(-c7ccc(Oc8ccc(F)cc8F)cc7)c(C(N)=O)c6N)C5)CC4)c3C)ccc2CC1C(=O)NC1CCCc2ccccc21)C(C)(C)C

> <Shape>
0.301

> <Color>
0.207

> <Negative vol penalty>
0.000

$$$$

  -OEChem-04052322143D

 92102  0     1  0  0  0  0  0999 V2000
  -36.6278  -20.2066   17.6895 C   0  0  0  0  0  0  0  0  0  0  0  0
  -35.4180  -20.4743   18.3221 C   0  0  0  0  0  0  0  0  0  0  0  0
  -22.6697  -10.3120   20.1766 C   0  0  0  0  0  0  0  0  0  0  0  0
  -24.1898   -9.5506   21.8931 C   0  0  0  0  0  0  0  0  0  0  0  0
  -37.2995  -21.2240   17.0130 C   0  0  0  0  0  0  0  0  0  0  0  0
  -34.8798  -21.7600   18.2795 C   0  0  0  0  0  0  0  0  0  0  0  0
  -29.9193  -21.7566   17.2605 C   0  0  0  0  0  0  0  0  0  0  0  0
  -21.8791   -9.1801   20.3747 C   0  0  0  0  0  0  0  0  0  0  0  0
  -23.3992   -8.4187   22.0912 C   0  0  0  0  0  0  0  0  0  0  0  0
  -29.0546  -21.4370   18.3065 C   0  0  0  0  0  0  0  0  0  0  0  0
  -22.8978   -5.4349   20.5824 C   0  0  0  0  0  0  0  0  0  0  0  0
  -23.5443   -4.2038   20.6913 C   0  0  0  0  0  0  0  0  0  0  0  0
  -28.6073  -23.7832   18.6453 C   0  0  0  0  0  0  0  0  0  0  0  0
  -22.6238   -3.9162   22.9065 C   0  0  0  0  0  0  0  0  0  0  0  0
  -23.8251  -10.4973   20.9358 C   0  0  0  0  0  0  0  0  0  0  0  0
  -24.2553  -13.0111   20.8815 C   0  0  0  0  0  0  0  0  0  0  0  0
  -36.7645  -22.5205   16.9539 C   0  0  0  0  0  0  0  0  0  0  0  0
  -30.1432  -23.0946   16.9056 C   0  0  0  0  0  0  0  0  0  0  0  0
  -35.5457  -22.7960   17.6027 C   0  0  0  0  0  0  0  0  0  0  0  0
  -29.4733  -24.1169   17.5928 C   0  0  0  0  0  0  0  0  0  0  0  0
  -28.6921  -18.9006   27.1551 C   0  0  0  0  0  0  0  0  0  0  0  0
  -27.6663  -18.9415   26.1788 C   0  0  0  0  0  0  0  0  0  0  0  0
  -22.2438   -8.2334   21.3320 C   0  0  0  0  0  0  0  0  0  0  0  0
  -28.4007  -22.4505   19.0010 C   0  0  0  0  0  0  0  0  0  0  0  0
  -22.1143   -5.9068   21.6356 C   0  0  0  0  0  0  0  0  0  0  0  0
  -23.4073   -3.4444   21.8533 C   0  0  0  0  0  0  0  0  0  0  0  0
  -21.9773   -5.1474   22.7976 C   0  0  0  0  0  0  0  0  0  0  0  0
  -24.6425  -11.6660   20.7313 C   0  0  0  0  0  0  0  0  0  0  0  0
  -29.7061  -18.1147   26.6536 C   0  0  0  0  0  0  0  0  0  0  0  0
  -28.0846  -18.1791   25.1105 C   0  0  0  0  0  0  0  0  0  0  0  0
  -25.3845  -13.7299   20.5739 C   0  0  0  0  0  0  0  0  0  0  0  0
  -22.9881  -13.5616   21.2648 C   0  0  0  0  0  0  0  0  0  0  0  0
  -32.6814  -25.0075   16.8557 C   0  0  0  0  0  0  0  0  0  0  0  0
  -30.6125  -27.0707   15.4468 C   0  0  0  0  0  0  0  0  0  0  0  0
  -27.3800  -28.0482   14.9546 C   0  0  0  0  0  0  0  0  0  0  0  0
  -30.7697  -14.6530   20.8178 C   0  0  0  0  0  0  0  0  0  0  0  0
  -37.5504  -23.5988   16.2509 C   0  0  0  0  0  0  0  0  0  0  0  0
  -31.0584  -23.4213   15.7575 C   0  0  0  0  0  0  0  0  0  0  0  0
  -29.6637  -25.5681   17.2377 C   0  0  0  0  0  0  0  0  0  0  0  0
  -36.7270  -24.8448   15.9349 C   0  0  0  0  0  0  0  0  0  0  0  0
  -29.7614  -12.2903   18.5031 C   0  0  0  0  0  0  0  0  0  0  0  0
  -35.9104  -25.2677   17.1519 C   0  0  0  0  0  0  0  0  0  0  0  0
  -28.3270  -20.1056   23.0921 C   0  0  0  0  0  0  0  0  0  0  0  0
  -26.8777  -18.7479   21.5260 C   0  0  0  0  0  0  0  0  0  0  0  0
  -28.3047  -12.0158   18.8770 C   0  0  0  0  0  0  0  0  0  0  0  0
  -28.1138  -21.3365   22.2162 C   0  0  0  0  0  0  0  0  0  0  0  0
  -26.6691  -19.9825   20.6541 C   0  0  0  0  0  0  0  0  0  0  0  0
  -30.5240  -17.4849   23.1865 C   0  0  0  0  0  0  0  0  0  0  0  0
  -29.4492  -15.4447   24.2273 C   0  0  0  0  0  0  0  0  0  0  0  0
  -30.6297  -12.4230   19.7492 C   0  0  0  0  0  0  0  0  0  0  0  0
  -31.3318  -16.5653   22.2738 C   0  0  0  0  0  0  0  0  0  0  0  0
  -30.2822  -14.5717   23.2933 C   0  0  0  0  0  0  0  0  0  0  0  0
  -28.7038  -13.2095   21.0861 C   0  0  0  0  0  0  0  0  0  0  0  0
  -34.9174  -24.1720   17.5579 C   0  0  1  0  0  0  0  0  0  0  0  0
  -31.6078  -24.8433   15.8173 C   0  0  1  0  0  0  0  0  0  0  0  0
  -27.1485  -19.1274   22.9885 C   0  0  0  0  0  0  0  0  0  0  0  0
  -27.7784  -13.0764   19.8602 C   0  0  2  0  0  0  0  0  0  0  0  0
  -30.1509  -16.7858   24.5053 C   0  0  0  0  0  0  0  0  0  0  0  0
  -27.8415  -20.9550   20.7636 C   0  0  0  0  0  0  0  0  0  1  0  0
  -28.6800  -19.5764   28.4689 C   0  0  0  0  0  0  0  0  0  0  0  0
  -26.3823  -19.6646   26.2855 C   0  0  0  0  0  0  0  0  0  0  0  0
  -31.0051  -17.7394   27.2517 C   0  0  0  0  0  0  0  0  0  0  0  0
  -26.0840  -17.1045   24.0166 C   0  0  0  0  0  0  0  0  0  0  0  0
  -26.0056  -29.7916   13.7845 C   0  0  0  0  0  0  0  0  0  0  0  0
  -31.3944  -29.1123   17.5752 C   0  0  0  0  0  0  0  0  0  0  0  0
  -29.3596  -30.4331   16.9564 C   0  0  0  0  0  0  0  0  0  0  0  0
  -31.1560  -30.0492   15.2687 C   0  0  0  0  0  0  0  0  0  0  0  0
  -25.9777  -26.0149   13.3243 C   0  0  0  0  0  0  0  0  0  0  0  0
  -27.4079  -17.8795   23.8304 C   0  0  2  0  0  0  0  0  0  0  0  0
  -29.6552  -28.1286   15.9402 C   0  0  1  0  0  0  0  0  0  0  0  0
  -26.6157  -28.4017   13.6915 C   0  0  2  0  0  0  0  0  0  0  0  0
  -30.3890  -29.4036   16.4433 C   0  0  0  0  0  0  0  0  0  0  0  0
  -25.9181  -11.5354   20.3572 N   0  0  0  0  0  0  0  0  0  0  0  0
  -29.3257  -17.6813   25.4104 N   0  0  0  0  0  0  0  0  0  0  0  0
  -26.3421  -12.8076   20.2697 N   0  0  0  0  0  0  0  0  0  0  0  0
  -30.5734  -25.8370   16.1118 N   0  0  0  0  0  0  0  0  0  0  0  0
  -30.0933  -13.4338   20.6604 N   0  0  0  0  0  0  0  0  0  0  0  0
  -30.6498  -15.2886   22.0647 N   0  0  0  0  0  0  0  0  0  0  0  0
  -25.6419  -15.0546   20.5366 N   0  0  0  0  0  0  0  0  0  0  0  0
  -22.7410  -13.7849   22.6262 N   0  0  0  0  0  0  0  0  0  0  0  0
  -33.7707  -24.1767   16.6749 N   0  0  0  0  0  0  0  0  0  0  0  0
  -28.7166  -28.3704   14.8498 N   0  0  0  0  0  0  0  0  0  0  0  0
  -25.5179  -27.4211   13.4589 N   0  3  0  0  0  0  0  0  0  0  0  0
  -22.0951  -13.8317   20.4264 O   0  0  0  0  0  0  0  0  0  0  0  0
  -32.5330  -25.8282   17.7535 O   0  0  0  0  0  0  0  0  0  0  0  0
  -31.3621  -27.3271   14.5013 O   0  0  0  0  0  0  0  0  0  0  0  0
  -26.8441  -27.5409   15.9374 O   0  0  0  0  0  0  0  0  0  0  0  0
  -31.4358  -15.1485   19.9004 O   0  0  0  0  0  0  0  0  0  0  0  0
  -21.4724   -7.1289   21.5257 O   0  0  0  0  0  0  0  0  0  0  0  0
  -27.5512  -22.1394   20.0294 O   0  0  0  0  0  0  0  0  0  1  0  0
  -24.0270   -2.2614   21.9570 F   0  0  0  0  0  0  0  0  0  0  0  0
  -21.2250   -5.5949   23.8123 F   0  0  0  0  0  0  0  0  0  0  0  0
  1  2  1  0  0  0  0
  1  5  2  0  0  0  0
  2  6  2  0  0  0  0
  3  8  2  0  0  0  0
  3 15  1  0  0  0  0
  4  9  1  0  0  0  0
  4 15  2  0  0  0  0
  5 17  1  0  0  0  0
  6 19  1  0  0  0  0
  7 10  2  0  0  0  0
  7 18  1  0  0  0  0
  8 23  1  0  0  0  0
  9 23  2  0  0  0  0
 10 24  1  0  0  0  0
 11 12  2  0  0  0  0
 11 25  1  0  0  0  0
 12 26  1  0  0  0  0
 13 20  1  0  0  0  0
 13 24  2  0  0  0  0
 14 26  2  0  0  0  0
 14 27  1  0  0  0  0
 15 28  1  0  0  0  0
 16 28  1  0  0  0  0
 16 31  2  0  0  0  0
 16 32  1  0  0  0  0
 17 19  2  0  0  0  0
 17 37  1  0  0  0  0
 18 20  2  0  0  0  0
 18 38  1  0  0  0  0
 19 54  1  0  0  0  0
 20 39  1  0  0  0  0
 21 22  1  0  0  0  0
 21 29  2  0  0  0  0
 21 60  1  0  0  0  0
 22 30  2  0  0  0  0
 22 61  1  0  0  0  0
 23 89  1  0  0  0  0
 24 90  1  0  0  0  0
 25 27  2  0  0  0  0
 25 89  1  0  0  0  0
 26 91  1  0  0  0  0
 27 92  1  0  0  0  0
 28 73  2  0  0  0  0
 29 62  1  0  0  0  0
 29 74  1  0  0  0  0
 30 69  1  0  0  0  0
 30 74  1  0  0  0  0
 31 75  1  0  0  0  0
 31 79  1  0  0  0  0
 32 80  1  0  0  0  0
 32 84  2  0  0  0  0
 33 55  1  0  0  0  0
 33 81  1  0  0  0  0
 33 85  2  0  0  0  0
 34 70  1  0  0  0  0
 34 76  1  0  0  0  0
 34 86  2  0  0  0  0
 35 71  1  0  0  0  0
 35 82  1  0  0  0  0
 35 87  2  0  0  0  0
 36 77  1  0  0  0  0
 36 78  1  0  0  0  0
 36 88  2  0  0  0  0
 37 40  1  0  0  0  0
 38 55  1  0  0  0  0
 39 76  1  0  0  0  0
 40 42  1  0  0  0  0
 41 45  1  0  0  0  0
 41 50  1  0  0  0  0
 42 54  1  0  0  0  0
 43 46  1  0  0  0  0
 43 56  1  0  0  0  0
 44 47  1  0  0  0  0
 44 56  1  0  0  0  0
 45 57  1  0  0  0  0
 46 59  1  0  0  0  0
 47 59  1  0  0  0  0
 48 51  1  0  0  0  0
 48 58  1  0  0  0  0
 49 52  1  0  0  0  0
 49 58  1  0  0  0  0
 50 77  1  0  0  0  0
 51 78  1  0  0  0  0
 52 78  1  0  0  0  0
 53 57  1  0  0  0  0
 53 77  1  0  0  0  0
 54 81  1  0  0  0  0
 55 76  1  0  0  0  0
 56 69  1  0  0  0  0
 57 75  1  0  0  0  0
 58 74  1  0  0  0  0
 59 90  1  0  0  0  0
 63 69  1  0  0  0  0
 64 71  1  0  0  0  0
 65 72  1  0  0  0  0
 66 72  1  0  0  0  0
 67 72  1  0  0  0  0
 68 83  1  0  0  0  0
 70 72  1  0  0  0  0
 70 82  1  0  0  0  0
 71 83  1  0  0  0  0
 73 75  1  0  0  0  0
M  CHG  1  83   1
M  ISO  4  36 100  59 101  78 100  90 101
M  END
> <Batch ID>
0162

> <Smiles>
CNC(C)C(=O)NC(C(=O)N1Cc2cc([101O:1][101CH:1]3CCC(C(C)c4c(C)c(C)c(C)n4C4CC[100N:0]([100C:0](=O)N5CCCC(n6nc(-c7ccc(Oc8ccc(F)cc8F)cc7)c(C(N)=O)c6N)C5)CC4)CC3)ccc2CC1C(=O)NC1CCCc2ccccc21)C(C)(C)C

> <Shape>
0.216

> <Color>
0.165

> <Negative vol penalty>
0.000

$$$$

  -OEChem-04052322143D

 86 94  0     1  0  0  0  0  0999 V2000
  -26.1870  -31.6401   23.8319 C   0  0  0  0  0  0  0  0  0  0  0  0
  -25.5486  -30.4368   23.5493 C   0  0  0  0  0  0  0  0  0  0  0  0
  -22.7432  -17.2096   19.0523 C   0  0  0  0  0  0  0  0  0  0  0  0
  -23.3845  -18.5609   20.9496 C   0  0  0  0  0  0  0  0  0  0  0  0
  -27.3057  -32.0245   23.0938 C   0  0  0  0  0  0  0  0  0  0  0  0
  -26.0280  -29.6176   22.5277 C   0  0  0  0  0  0  0  0  0  0  0  0
  -26.2306  -24.7418   23.8807 C   0  0  0  0  0  0  0  0  0  0  0  0
  -23.8095  -16.3470   19.3062 C   0  0  0  0  0  0  0  0  0  0  0  0
  -24.4508  -17.6982   21.2036 C   0  0  0  0  0  0  0  0  0  0  0  0
  -25.0317  -24.0302   23.8790 C   0  0  0  0  0  0  0  0  0  0  0  0
  -26.1484  -13.5880   19.6705 C   0  0  0  0  0  0  0  0  0  0  0  0
  -25.8997  -12.2165   19.6180 C   0  0  0  0  0  0  0  0  0  0  0  0
  -25.6072  -23.0775   21.7388 C   0  0  0  0  0  0  0  0  0  0  0  0
  -24.2667  -12.4450   21.3838 C   0  0  0  0  0  0  0  0  0  0  0  0
  -22.5307  -18.3166   19.8740 C   0  0  0  0  0  0  0  0  0  0  0  0
  -20.1206  -19.1153   20.1210 C   0  0  0  0  0  0  0  0  0  0  0  0
  -27.8048  -31.2051   22.0691 C   0  0  0  0  0  0  0  0  0  0  0  0
  -27.1233  -24.6349   22.8046 C   0  0  0  0  0  0  0  0  0  0  0  0
  -27.1536  -29.9920   21.7744 C   0  0  0  0  0  0  0  0  0  0  0  0
  -26.8179  -23.7869   21.7305 C   0  0  0  0  0  0  0  0  0  0  0  0
  -24.6633  -16.5913   20.3819 C   0  0  0  0  0  0  0  0  0  0  0  0
  -24.7185  -23.2001   22.8066 C   0  0  0  0  0  0  0  0  0  0  0  0
  -25.4563  -14.3880   20.5797 C   0  0  0  0  0  0  0  0  0  0  0  0
  -24.9589  -11.6450   20.4746 C   0  0  0  0  0  0  0  0  0  0  0  0
  -24.5155  -13.8165   21.4364 C   0  0  0  0  0  0  0  0  0  0  0  0
  -21.4298  -19.2084   19.6119 C   0  0  0  0  0  0  0  0  0  0  0  0
  -19.4634  -20.1919   19.5774 C   0  0  0  0  0  0  0  0  0  0  0  0
  -19.5496  -18.1426   21.0062 C   0  0  0  0  0  0  0  0  0  0  0  0
  -28.3067  -26.6626   20.6618 C   0  0  0  0  0  0  0  0  0  0  0  0
  -30.1131  -24.1048   19.8150 C   0  0  0  0  0  0  0  0  0  0  0  0
  -30.4851  -20.7129   19.7555 C   0  0  0  0  0  0  0  0  0  0  0  0
  -19.2800  -25.6007   18.2149 C   0  0  0  0  0  0  0  0  0  0  0  0
  -28.9885  -31.6851   21.2673 C   0  0  0  0  0  0  0  0  0  0  0  0
  -28.4247  -25.3884   22.8341 C   0  0  0  0  0  0  0  0  0  0  0  0
  -27.7517  -23.6215   20.5604 C   0  0  0  0  0  0  0  0  0  0  0  0
  -29.6576  -30.5833   20.4497 C   0  0  0  0  0  0  0  0  0  0  0  0
  -20.8513  -23.3877   15.9104 C   0  0  0  0  0  0  0  0  0  0  0  0
  -28.6106  -29.7579   19.7085 C   0  0  0  0  0  0  0  0  0  0  0  0
  -21.0393  -22.0983   16.7117 C   0  0  0  0  0  0  0  0  0  0  0  0
  -19.8012  -27.6395   23.8219 C   0  0  0  0  0  0  0  0  0  0  0  0
  -21.0495  -24.6269   16.7806 C   0  0  0  0  0  0  0  0  0  0  0  0
  -19.2413  -28.0569   21.5314 C   0  0  0  0  0  0  0  0  0  0  0  0
  -20.4144  -23.3733   18.8052 C   0  0  0  0  0  0  0  0  0  0  0  0
  -27.6584  -29.0646   20.6904 C   0  0  1  0  0  0  0  0  0  0  0  0
  -29.0236  -25.6010   21.4472 C   0  0  1  0  0  0  0  0  0  0  0  0
  -20.3816  -28.2082   22.5270 C   0  0  1  0  0  0  0  0  0  0  0  0
  -20.1695  -22.0964   17.9832 C   0  0  2  0  0  0  0  0  0  0  0  0
  -18.6213  -26.7593   23.3793 C   0  0  2  0  0  0  0  0  0  0  0  0
  -20.8778  -29.6379   22.6603 C   0  0  0  0  0  0  0  0  0  0  0  0
  -32.0470  -18.9161   18.9622 C   0  0  0  0  0  0  0  0  0  0  0  0
  -18.8064  -25.3602   25.4765 C   0  0  0  0  0  0  0  0  0  0  0  0
  -16.1868  -26.1187   19.0613 C   0  0  0  0  0  0  0  0  0  0  0  0
  -29.1264  -24.5124   16.9566 C   0  0  0  0  0  0  0  0  0  0  0  0
  -29.9244  -22.1996   16.4254 C   0  0  0  0  0  0  0  0  0  0  0  0
  -31.5539  -23.9433   17.1511 C   0  0  0  0  0  0  0  0  0  0  0  0
  -30.9353  -19.7270   22.5094 C   0  0  0  0  0  0  0  0  0  0  0  0
  -21.1536  -22.6359   22.8110 C   0  0  0  0  0  0  0  0  0  0  0  0
  -17.4085  -26.4998   21.2725 C   0  0  0  0  0  0  0  0  0  0  0  0
  -19.8953  -23.2150   23.4400 C   0  0  0  0  0  0  0  0  0  0  0  0
  -22.4418  -23.0917   23.4854 C   0  0  0  0  0  0  0  0  0  1  0  0
  -29.9557  -22.9590   18.8448 C   0  0  1  0  0  0  0  0  0  0  0  0
  -31.6585  -19.8217   20.1205 C   0  0  2  0  0  0  0  0  0  0  0  0
  -18.7128  -25.3529   23.9591 C   0  0  2  0  0  0  0  0  0  0  0  0
  -17.5141  -26.4408   19.7429 C   0  0  1  0  0  0  0  0  0  0  0  0
  -30.1214  -23.4080   17.3655 C   0  0  0  0  0  0  0  0  0  0  0  0
  -21.5962  -20.2609   18.8066 N   0  0  0  0  0  0  0  0  0  0  0  0
  -20.3830  -20.8390   18.8056 N   0  0  0  0  0  0  0  0  0  0  0  0
  -29.0089  -24.3842   20.6327 N   0  0  0  0  0  0  0  0  0  0  0  0
  -20.1949  -24.5637   17.9687 N   0  0  0  0  0  0  0  0  0  0  0  0
  -18.6955  -26.7509   21.9092 N   0  0  1  0  0  0  0  0  0  0  0  0
  -18.1944  -20.6386   19.6891 N   0  0  0  0  0  0  0  0  0  0  0  0
  -20.3652  -17.1018   21.4708 N   0  0  0  0  0  0  0  0  0  0  0  0
  -28.2924  -27.9016   21.2734 N   0  0  0  0  0  0  0  0  0  0  0  0
  -30.9028  -21.9330   19.2676 N   0  0  0  0  0  0  0  0  0  0  0  0
  -18.5043  -25.4595   19.3590 N   0  0  0  0  0  0  0  0  0  0  0  0
  -31.3146  -18.9660   21.2912 N   0  3  0  0  0  0  0  0  0  0  0  0
  -19.9329  -24.6960   23.4139 N   0  3  0  0  0  0  0  0  0  0  0  0
  -18.3473  -18.1856   21.3612 O   0  0  0  0  0  0  0  0  0  0  0  0
  -27.8051  -26.3789   19.5803 O   0  0  0  0  0  0  0  0  0  0  0  0
  -31.1791  -24.7244   19.8512 O   0  0  0  0  0  0  0  0  0  0  0  0
  -29.3150  -20.3604   19.8863 O   0  0  0  0  0  0  0  0  0  0  0  0
  -19.1595  -26.5772   17.4674 O   0  0  0  0  0  0  0  0  0  0  0  0
  -25.7038  -15.7496   20.6301 O   0  0  0  0  0  0  0  0  0  0  0  0
  -23.5486  -22.5049   22.8021 O   0  0  0  0  0  0  0  0  0  1  0  0
  -24.7190  -10.3282   20.4230 F   0  0  0  0  0  0  0  0  0  0  0  0
  -23.8466  -14.5802   22.3111 F   0  0  0  0  0  0  0  0  0  0  0  0
  1  2  1  0  0  0  0
  1  5  2  0  0  0  0
  2  6  2  0  0  0  0
  3  8  2  0  0  0  0
  3 15  1  0  0  0  0
  4  9  1  0  0  0  0
  4 15  2  0  0  0  0
  5 17  1  0  0  0  0
  6 19  1  0  0  0  0
  7 10  2  0  0  0  0
  7 18  1  0  0  0  0
  8 21  1  0  0  0  0
  9 21  2  0  0  0  0
 10 22  1  0  0  0  0
 11 12  2  0  0  0  0
 11 23  1  0  0  0  0
 12 24  1  0  0  0  0
 13 20  1  0  0  0  0
 13 22  2  0  0  0  0
 14 24  2  0  0  0  0
 14 25  1  0  0  0  0
 15 26  1  0  0  0  0
 16 26  1  0  0  0  0
 16 27  2  0  0  0  0
 16 28  1  0  0  0  0
 17 19  2  0  0  0  0
 17 33  1  0  0  0  0
 18 20  2  0  0  0  0
 18 34  1  0  0  0  0
 19 44  1  0  0  0  0
 20 35  1  0  0  0  0
 21 83  1  0  0  0  0
 22 84  1  0  0  0  0
 23 25  2  0  0  0  0
 23 83  1  0  0  0  0
 24 85  1  0  0  0  0
 25 86  1  0  0  0  0
 26 66  2  0  0  0  0
 27 67  1  0  0  0  0
 27 71  1  0  0  0  0
 28 72  1  0  0  0  0
 28 78  2  0  0  0  0
 29 45  1  0  0  0  0
 29 73  1  0  0  0  0
 29 79  2  0  0  0  0
 30 61  1  0  0  0  0
 30 68  1  0  0  0  0
 30 80  2  0  0  0  0
 31 62  1  0  0  0  0
 31 74  1  0  0  0  0
 31 81  2  0  0  0  0
 32 69  1  0  0  0  0
 32 75  1  0  0  0  0
 32 82  2  0  0  0  0
 33 36  1  0  0  0  0
 34 45  1  0  0  0  0
 35 68  1  0  0  0  0
 36 38  1  0  0  0  0
 37 39  1  0  0  0  0
 37 41  1  0  0  0  0
 38 44  1  0  0  0  0
 39 47  1  0  0  0  0
 40 46  1  0  0  0  0
 40 48  1  0  0  0  0
 41 69  1  0  0  0  0
 42 46  1  0  0  0  0
 42 70  1  0  0  0  0
 43 47  1  0  0  0  0
 43 69  1  0  0  0  0
 44 73  1  0  0  0  0
 45 68  1  0  0  0  0
 46 49  1  0  0  0  0
 47 67  1  0  0  0  0
 48 63  1  0  0  0  0
 48 70  1  0  0  0  0
 50 62  1  0  0  0  0
 51 63  1  0  0  0  0
 52 64  1  0  0  0  0
 53 65  1  0  0  0  0
 54 65  1  0  0  0  0
 55 65  1  0  0  0  0
 56 76  1  0  0  0  0
 57 59  1  0  0  0  0
 57 60  1  0  0  0  0
 58 64  1  0  0  0  0
 58 70  1  0  0  0  0
 59 77  1  0  0  0  0
 60 84  1  0  0  0  0
 61 65  1  0  0  0  0
 61 74  1  0  0  0  0
 62 76  1  0  0  0  0
 63 77  1  0  0  0  0
 64 75  1  0  0  0  0
 66 67  1  0  0  0  0
M  CHG  2  76   1  77   1
M  ISO  4  32 100  60 101  75 100  84 101
M  END
> <Batch ID>
0162

> <Smiles>
CNC(C)C(=O)NC(C(=O)N1Cc2cc([101O:1][101CH2:1]CCNC(C)C3CC(C)CN3CC(C)[100NH:0][100C:0](=O)N3CCCC(n4nc(-c5ccc(Oc6ccc(F)cc6F)cc5)c(C(N)=O)c4N)C3)ccc2CC1C(=O)NC1CCCc2ccccc21)C(C)(C)C

> <Shape>
0.185

> <Color>
0.085

> <Negative vol penalty>
0.000

$$$$

  -OEChem-04052322143D

 85 94  0     1  0  0  0  0  0999 V2000
  -28.6519  -35.3805   22.8222 C   0  0  0  0  0  0  0  0  0  0  0  0
  -29.3105  -34.2501   22.3488 C   0  0  0  0  0  0  0  0  0  0  0  0
  -24.6167  -15.5198   21.3013 C   0  0  0  0  0  0  0  0  0  0  0  0
  -25.3203  -13.5317   22.4800 C   0  0  0  0  0  0  0  0  0  0  0  0
  -27.4222  -35.2508   23.4663 C   0  0  0  0  0  0  0  0  0  0  0  0
  -28.7401  -32.9893   22.5202 C   0  0  0  0  0  0  0  0  0  0  0  0
  -28.2520  -26.6004   19.3169 C   0  0  0  0  0  0  0  0  0  0  0  0
  -25.3264  -15.1033   20.1751 C   0  0  0  0  0  0  0  0  0  0  0  0
  -26.0299  -13.1151   21.3537 C   0  0  0  0  0  0  0  0  0  0  0  0
  -28.4448  -25.2453   19.5818 C   0  0  0  0  0  0  0  0  0  0  0  0
  -28.3212  -11.7030   18.9112 C   0  0  0  0  0  0  0  0  0  0  0  0
  -29.6121  -11.2110   19.1037 C   0  0  0  0  0  0  0  0  0  0  0  0
  -28.9003  -18.4410   21.0468 C   0  0  0  0  0  0  0  0  0  0  0  0
  -26.2787  -25.1500   20.6392 C   0  0  0  0  0  0  0  0  0  0  0  0
  -30.2761  -13.3277   20.0607 C   0  0  0  0  0  0  0  0  0  0  0  0
  -24.6137  -14.7340   22.4538 C   0  0  0  0  0  0  0  0  0  0  0  0
  -22.5397  -14.8757   23.9325 C   0  0  0  0  0  0  0  0  0  0  0  0
  -26.8319  -33.9887   23.6371 C   0  0  0  0  0  0  0  0  0  0  0  0
  -27.0737  -27.2442   19.7216 C   0  0  0  0  0  0  0  0  0  0  0  0
  -27.5019  -32.8425   23.1683 C   0  0  0  0  0  0  0  0  0  0  0  0
  -29.0954  -19.3924   22.0480 C   0  0  0  0  0  0  0  0  0  0  0  0
  -26.0723  -26.5128   20.3760 C   0  0  0  0  0  0  0  0  0  0  0  0
  -28.6957  -18.8480   19.7284 C   0  0  0  0  0  0  0  0  0  0  0  0
  -29.0857  -20.7507   21.7309 C   0  0  0  0  0  0  0  0  0  0  0  0
  -28.6860  -20.2063   19.4112 C   0  0  0  0  0  0  0  0  0  0  0  0
  -28.8811  -21.1577   20.4125 C   0  0  0  0  0  0  0  0  0  0  0  0
  -26.0330  -13.9009   20.2013 C   0  0  0  0  0  0  0  0  0  0  0  0
  -27.4593  -24.5205   20.2455 C   0  0  0  0  0  0  0  0  0  0  0  0
  -28.0077  -13.0074   19.2934 C   0  0  0  0  0  0  0  0  0  0  0  0
  -30.5896  -12.0234   19.6784 C   0  0  0  0  0  0  0  0  0  0  0  0
  -28.9852  -13.8197   19.8681 C   0  0  0  0  0  0  0  0  0  0  0  0
  -23.8812  -15.1640   23.6177 C   0  0  0  0  0  0  0  0  0  0  0  0
  -22.3245  -15.5095   25.1318 C   0  0  0  0  0  0  0  0  0  0  0  0
  -21.5745  -14.1038   23.2057 C   0  0  0  0  0  0  0  0  0  0  0  0
  -26.3913  -29.6416   21.6941 C   0  0  0  0  0  0  0  0  0  0  0  0
  -23.3943  -29.2397   20.5200 C   0  0  0  0  0  0  0  0  0  0  0  0
  -21.1144  -27.1745   19.0422 C   0  0  0  0  0  0  0  0  0  0  0  0
  -27.5082  -17.1364   26.2452 C   0  0  0  0  0  0  0  0  0  0  0  0
  -25.5236  -33.8939   24.3815 C   0  0  0  0  0  0  0  0  0  0  0  0
  -26.8697  -28.7003   19.4047 C   0  0  0  0  0  0  0  0  0  0  0  0
  -24.7807  -27.1523   20.8134 C   0  0  0  0  0  0  0  0  0  0  0  0
  -24.8095  -32.5583   24.1905 C   0  0  0  0  0  0  0  0  0  0  0  0
  -24.4798  -19.3797   27.0071 C   0  0  0  0  0  0  0  0  0  0  0  0
  -25.7876  -31.4005   24.3631 C   0  0  0  0  0  0  0  0  0  0  0  0
  -23.4052  -18.4284   26.4973 C   0  0  0  0  0  0  0  0  0  0  0  0
  -29.9819  -17.5563   23.5909 C   0  0  0  0  0  0  0  0  0  0  0  0
  -25.8241  -19.0582   26.3604 C   0  0  0  0  0  0  0  0  0  0  0  0
  -29.6454  -17.1536   25.0169 C   0  0  0  0  0  0  0  0  0  0  0  0
  -28.0290  -18.7636   24.2899 C   0  0  0  0  0  0  0  0  0  0  0  0
  -25.2584  -16.7723   27.1641 C   0  0  0  0  0  0  0  0  0  0  0  0
  -29.3139  -18.9256   23.4654 C   0  0  2  0  0  0  0  0  0  0  0  0
  -26.9037  -31.4600   23.3132 C   0  0  1  0  0  0  0  0  0  0  0  0
  -25.8501  -29.3735   20.3183 C   0  0  1  0  0  0  0  0  0  0  0  0
  -23.8051  -16.9527   26.6837 C   0  0  2  0  0  0  0  0  0  0  0  0
  -28.4902  -17.8091   18.6749 C   0  0  0  0  0  0  0  0  0  0  0  0
  -29.2954  -21.7689   22.8067 C   0  0  0  0  0  0  0  0  0  0  0  0
  -28.4655  -20.6399   17.9965 C   0  0  0  0  0  0  0  0  0  0  0  0
  -18.7369  -27.1171   18.2412 C   0  0  0  0  0  0  0  0  0  0  0  0
  -22.4304  -29.0039   23.4053 C   0  0  0  0  0  0  0  0  0  0  0  0
  -20.2966  -28.0218   22.5389 C   0  0  0  0  0  0  0  0  0  0  0  0
  -20.9403  -30.3496   21.9144 C   0  0  0  0  0  0  0  0  0  0  0  0
  -21.9448  -26.6319   16.2539 C   0  0  0  0  0  0  0  0  0  0  0  0
  -28.8713  -22.6147   20.0722 C   0  0  0  0  0  0  0  0  0  1  0  0
  -22.1985  -28.4026   20.9052 C   0  0  1  0  0  0  0  0  0  0  0  0
  -20.1851  -27.3818   17.8599 C   0  0  2  0  0  0  0  0  0  0  0  0
  -21.4915  -28.9326   22.1846 C   0  0  0  0  0  0  0  0  0  0  0  0
  -24.4763  -15.9222   24.5425 N   0  0  0  0  0  0  0  0  0  0  0  0
  -23.5041  -16.1157   25.4500 N   0  0  0  0  0  0  0  0  0  0  0  0
  -24.6310  -28.5799   20.4862 N   0  0  0  0  0  0  0  0  0  0  0  0
  -26.2258  -17.6529   26.4934 N   0  0  0  0  0  0  0  0  0  0  0  0
  -28.3234  -17.7227   25.2783 N   0  0  0  0  0  0  0  0  0  0  0  0
  -21.2432  -15.6020   25.9347 N   0  0  0  0  0  0  0  0  0  0  0  0
  -21.9620  -13.5217   21.9911 N   0  0  0  0  0  0  0  0  0  0  0  0
  -26.4219  -30.9802   22.0357 N   0  0  0  0  0  0  0  0  0  0  0  0
  -21.3403  -28.3500   19.7266 N   0  0  0  0  0  0  0  0  0  0  0  0
  -20.5528  -26.4641   16.7448 N   0  3  0  0  0  0  0  0  0  0  0  0
  -20.3982  -13.9488   23.6130 O   0  0  0  0  0  0  0  0  0  0  0  0
  -26.7530  -28.7033   22.3945 O   0  0  0  0  0  0  0  0  0  0  0  0
  -23.2358  -30.4332   20.2517 O   0  0  0  0  0  0  0  0  0  0  0  0
  -21.5892  -26.0785   19.3320 O   0  0  0  0  0  0  0  0  0  0  0  0
  -27.9136  -16.1426   26.8693 O   0  0  0  0  0  0  0  0  0  0  0  0
  -26.7254  -13.4941   19.1024 O   0  0  0  0  0  0  0  0  0  0  0  0
  -27.6465  -23.1880   20.5078 O   0  0  0  0  0  0  0  0  0  1  0  0
  -31.8288  -11.5503   19.8646 F   0  0  0  0  0  0  0  0  0  0  0  0
  -28.6896  -15.0733   20.2384 F   0  0  0  0  0  0  0  0  0  0  0  0
  1  2  1  0  0  0  0
  1  5  2  0  0  0  0
  2  6  2  0  0  0  0
  3  8  2  0  0  0  0
  3 16  1  0  0  0  0
  4  9  1  0  0  0  0
  4 16  2  0  0  0  0
  5 18  1  0  0  0  0
  6 20  1  0  0  0  0
  7 10  2  0  0  0  0
  7 19  1  0  0  0  0
  8 27  1  0  0  0  0
  9 27  2  0  0  0  0
 10 28  1  0  0  0  0
 11 12  2  0  0  0  0
 11 29  1  0  0  0  0
 12 30  1  0  0  0  0
 13 21  2  0  0  0  0
 13 23  1  0  0  0  0
 14 22  1  0  0  0  0
 14 28  2  0  0  0  0
 15 30  2  0  0  0  0
 15 31  1  0  0  0  0
 16 32  1  0  0  0  0
 17 32  1  0  0  0  0
 17 33  2  0  0  0  0
 17 34  1  0  0  0  0
 18 20  2  0  0  0  0
 18 39  1  0  0  0  0
 19 22  2  0  0  0  0
 19 40  1  0  0  0  0
 20 52  1  0  0  0  0
 21 24  1  0  0  0  0
 21 51  1  0  0  0  0
 22 41  1  0  0  0  0
 23 25  2  0  0  0  0
 23 55  1  0  0  0  0
 24 26  2  0  0  0  0
 24 56  1  0  0  0  0
 25 26  1  0  0  0  0
 25 57  1  0  0  0  0
 26 63  1  0  0  0  0
 27 82  1  0  0  0  0
 28 83  1  0  0  0  0
 29 31  2  0  0  0  0
 29 82  1  0  0  0  0
 30 84  1  0  0  0  0
 31 85  1  0  0  0  0
 32 67  2  0  0  0  0
 33 68  1  0  0  0  0
 33 72  1  0  0  0  0
 34 73  1  0  0  0  0
 34 77  2  0  0  0  0
 35 53  1  0  0  0  0
 35 74  1  0  0  0  0
 35 78  2  0  0  0  0
 36 64  1  0  0  0  0
 36 69  1  0  0  0  0
 36 79  2  0  0  0  0
 37 65  1  0  0  0  0
 37 75  1  0  0  0  0
 37 80  2  0  0  0  0
 38 70  1  0  0  0  0
 38 71  1  0  0  0  0
 38 81  2  0  0  0  0
 39 42  1  0  0  0  0
 40 53  1  0  0  0  0
 41 69  1  0  0  0  0
 42 44  1  0  0  0  0
 43 45  1  0  0  0  0
 43 47  1  0  0  0  0
 44 52  1  0  0  0  0
 45 54  1  0  0  0  0
 46 48  1  0  0  0  0
 46 51  1  0  0  0  0
 47 70  1  0  0  0  0
 48 71  1  0  0  0  0
 49 51  1  0  0  0  0
 49 71  1  0  0  0  0
 50 54  1  0  0  0  0
 50 70  1  0  0  0  0
 52 74  1  0  0  0  0
 53 69  1  0  0  0  0
 54 68  1  0  0  0  0
 58 65  1  0  0  0  0
 59 66  1  0  0  0  0
 60 66  1  0  0  0  0
 61 66  1  0  0  0  0
 62 76  1  0  0  0  0
 63 83  1  0  0  0  0
 64 66  1  0  0  0  0
 64 75  1  0  0  0  0
 65 76  1  0  0  0  0
 67 68  1  0  0  0  0
M  CHG  1  76   1
M  ISO  4  38 100  63 101  71 100  83 101
M  END
> <Batch ID>
0162

> <Smiles>
CNC(C)C(=O)NC(C(=O)N1Cc2cc([101O:1][101CH2:1]c3c(C)c(C)cc(C4CC[100N:0]([100C:0](=O)N5CCCC(n6nc(-c7ccc(Oc8ccc(F)cc8F)cc7)c(C(N)=O)c6N)C5)C4)c3C)ccc2CC1C(=O)NC1CCCc2ccccc21)C(C)(C)C

> <Shape>
0.265

> <Color>
0.046

> <Negative vol penalty>
0.000

$$$$

  -OEChem-04052322143D

 89 99  0     1  0  0  0  0  0999 V2000
  -30.5033  -37.8731   17.9220 C   0  0  0  0  0  0  0  0  0  0  0  0
  -30.5647  -36.5951   17.3759 C   0  0  0  0  0  0  0  0  0  0  0  0
  -25.0693   -8.3533   22.1845 C   0  0  0  0  0  0  0  0  0  0  0  0
  -24.9935   -7.7540   19.8452 C   0  0  0  0  0  0  0  0  0  0  0  0
  -30.2604  -38.0365   19.2852 C   0  0  0  0  0  0  0  0  0  0  0  0
  -30.3845  -35.4796   18.1929 C   0  0  0  0  0  0  0  0  0  0  0  0
  -27.7321  -28.8266   18.0523 C   0  0  0  0  0  0  0  0  0  0  0  0
  -23.7863   -7.8346   22.3590 C   0  0  0  0  0  0  0  0  0  0  0  0
  -23.7105   -7.2352   20.0197 C   0  0  0  0  0  0  0  0  0  0  0  0
  -28.0965  -27.5153   18.3545 C   0  0  0  0  0  0  0  0  0  0  0  0
  -22.3580   -4.7914   22.7221 C   0  0  0  0  0  0  0  0  0  0  0  0
  -22.1312   -3.9841   23.8367 C   0  0  0  0  0  0  0  0  0  0  0  0
  -27.6043  -27.9210   20.6809 C   0  0  0  0  0  0  0  0  0  0  0  0
  -30.7101  -21.7864   19.7155 C   0  0  0  0  0  0  0  0  0  0  0  0
  -20.4471   -5.5316   24.6151 C   0  0  0  0  0  0  0  0  0  0  0  0
  -25.6729   -8.3131   20.9276 C   0  0  0  0  0  0  0  0  0  0  0  0
  -28.2190   -8.1621   20.8829 C   0  0  0  0  0  0  0  0  0  0  0  0
  -30.0675  -36.9227   20.1176 C   0  0  0  0  0  0  0  0  0  0  0  0
  -27.3108  -29.6998   19.0655 C   0  0  0  0  0  0  0  0  0  0  0  0
  -30.1401  -35.6282   19.5687 C   0  0  0  0  0  0  0  0  0  0  0  0
  -27.2327  -29.2422   20.3886 C   0  0  0  0  0  0  0  0  0  0  0  0
  -28.4373  -21.5536   20.5013 C   0  0  0  0  0  0  0  0  0  0  0  0
  -30.4152  -23.0645   19.2411 C   0  0  0  0  0  0  0  0  0  0  0  0
  -28.1424  -22.8318   20.0270 C   0  0  0  0  0  0  0  0  0  0  0  0
  -29.1314  -23.5872   19.3969 C   0  0  0  0  0  0  0  0  0  0  0  0
  -23.1069   -7.2755   21.2766 C   0  0  0  0  0  0  0  0  0  0  0  0
  -28.0354  -27.0631   19.6694 C   0  0  0  0  0  0  0  0  0  0  0  0
  -21.6293   -5.9689   22.5540 C   0  0  0  0  0  0  0  0  0  0  0  0
  -29.7211  -21.0309   20.3455 C   0  0  0  0  0  0  0  0  0  0  0  0
  -21.1758   -4.3541   24.7832 C   0  0  0  0  0  0  0  0  0  0  0  0
  -20.6739   -6.3390   23.5005 C   0  0  0  0  0  0  0  0  0  0  0  0
  -26.9980   -8.8493   20.7466 C   0  0  0  0  0  0  0  0  0  0  0  0
  -29.1773   -9.1072   20.6089 C   0  0  0  0  0  0  0  0  0  0  0  0
  -28.4651   -6.7920   21.2265 C   0  0  0  0  0  0  0  0  0  0  0  0
  -28.3829  -32.4492   20.2465 C   0  0  0  0  0  0  0  0  0  0  0  0
  -25.6283  -32.3402   21.9560 C   0  0  0  0  0  0  0  0  0  0  0  0
  -23.1196  -30.4501   23.2906 C   0  0  0  0  0  0  0  0  0  0  0  0
  -29.4005  -14.8592   21.1108 C   0  0  0  0  0  0  0  0  0  0  0  0
  -29.8547  -37.1478   21.5936 C   0  0  0  0  0  0  0  0  0  0  0  0
  -26.8957  -31.1034   18.7191 C   0  0  0  0  0  0  0  0  0  0  0  0
  -26.7677  -30.1338   21.5099 C   0  0  0  0  0  0  0  0  0  0  0  0
  -29.3024  -35.9257   22.3227 C   0  0  0  0  0  0  0  0  0  0  0  0
  -29.8878  -13.1145   18.1041 C   0  0  0  0  0  0  0  0  0  0  0  0
  -26.6640  -21.3164   22.3649 C   0  0  0  0  0  0  0  0  0  0  0  0
  -27.6471  -20.2046   22.5590 C   0  0  0  0  0  0  0  0  0  0  0  0
  -30.0704  -34.6710   21.9192 C   0  0  0  0  0  0  0  0  0  0  0  0
  -29.3162  -11.7408   18.4544 C   0  0  0  0  0  0  0  0  0  0  0  0
  -31.4780  -17.8634   20.4731 C   0  0  0  0  0  0  0  0  0  0  0  0
  -29.2867  -18.0966   19.2266 C   0  0  0  0  0  0  0  0  0  0  0  0
  -29.0400  -14.2511   18.6778 C   0  0  0  0  0  0  0  0  0  0  0  0
  -30.8084  -16.8619   21.4129 C   0  0  0  0  0  0  0  0  0  0  0  0
  -28.6668  -17.0934   20.1966 C   0  0  0  0  0  0  0  0  0  0  0  0
  -28.2257  -12.7706   20.4837 C   0  0  0  0  0  0  0  0  0  0  0  0
  -27.3825  -20.7369   21.1772 C   0  0  0  0  0  0  0  0  0  0  0  0
  -29.9252  -34.3942   20.4180 C   0  0  1  0  0  0  0  0  0  0  0  0
  -26.9724  -32.0592   19.9057 C   0  0  1  0  0  0  0  0  0  0  0  0
  -29.0886  -11.6073   19.9706 C   0  0  1  0  0  0  0  0  0  0  0  0
  -30.4811  -18.8324   19.8365 C   0  0  0  0  0  0  0  0  0  0  0  0
  -31.4920  -23.8524   18.5696 C   0  0  0  0  0  0  0  0  0  0  0  0
  -26.7655  -23.3936   20.1934 C   0  0  0  0  0  0  0  0  0  0  0  0
  -21.0302  -30.6388   24.6676 C   0  0  0  0  0  0  0  0  0  0  0  0
  -27.3201  -32.7047   24.4689 C   0  0  0  0  0  0  0  0  0  0  0  0
  -25.3539  -31.9432   25.8189 C   0  0  0  0  0  0  0  0  0  0  0  0
  -25.1923  -34.0185   24.4442 C   0  0  0  0  0  0  0  0  0  0  0  0
  -21.4438  -29.3617   21.1075 C   0  0  0  0  0  0  0  0  0  0  0  0
  -28.8173  -24.9580   18.8864 C   0  0  0  0  0  0  0  0  0  1  0  0
  -25.2214  -31.7681   23.2925 C   0  0  1  0  0  0  0  0  0  0  0  0
  -21.6107  -30.6140   23.2622 C   0  0  2  0  0  0  0  0  0  0  0  0
  -25.7826  -32.5922   24.4855 C   0  0  0  0  0  0  0  0  0  0  0  0
  -27.1626  -10.1319   20.4122 N   0  0  0  0  0  0  0  0  0  0  0  0
  -28.4984  -10.2582   20.3361 N   0  0  0  0  0  0  0  0  0  0  0  0
  -26.3786  -31.4996   21.1216 N   0  0  0  0  0  0  0  0  0  0  0  0
  -28.8173  -14.0590   20.1170 N   0  0  0  0  0  0  0  0  0  0  0  0
  -29.6771  -16.1941   20.7701 N   0  0  0  0  0  0  0  0  0  0  0  0
  -30.5260   -9.0576   20.5772 N   0  0  0  0  0  0  0  0  0  0  0  0
  -27.3666   -5.9582   21.4764 N   0  0  0  0  0  0  0  0  0  0  0  0
  -28.6346  -33.8034   20.1355 N   0  0  0  0  0  0  0  0  0  0  0  0
  -23.7661  -31.6678   23.2676 N   0  0  0  0  0  0  0  0  0  0  0  0
  -20.9816  -29.4894   22.5136 N   0  3  0  0  0  0  0  0  0  0  0  0
  -29.6252   -6.3252   21.3253 O   0  0  0  0  0  0  0  0  0  0  0  0
  -29.1832  -31.5857   20.5864 O   0  0  0  0  0  0  0  0  0  0  0  0
  -25.2867  -33.4880   21.6603 O   0  0  0  0  0  0  0  0  0  0  0  0
  -23.6697  -29.3519   23.3330 O   0  0  0  0  0  0  0  0  0  0  0  0
  -29.6625  -14.4102   22.2337 O   0  0  0  0  0  0  0  0  0  0  0  0
  -21.8551   -6.7690   21.4465 O   0  0  0  0  0  0  0  0  0  0  0  0
  -30.0313  -19.7778   20.8045 O   0  0  0  0  0  0  0  0  0  0  0  0
  -28.3937  -25.7743   19.9694 O   0  0  0  0  0  0  0  0  0  1  0  0
  -20.9570   -3.5779   25.8527 F   0  0  0  0  0  0  0  0  0  0  0  0
  -19.9699   -7.4685   23.3438 F   0  0  0  0  0  0  0  0  0  0  0  0
  1  2  1  0  0  0  0
  1  5  2  0  0  0  0
  2  6  2  0  0  0  0
  3  8  2  0  0  0  0
  3 16  1  0  0  0  0
  4  9  1  0  0  0  0
  4 16  2  0  0  0  0
  5 18  1  0  0  0  0
  6 20  1  0  0  0  0
  7 10  2  0  0  0  0
  7 19  1  0  0  0  0
  8 26  1  0  0  0  0
  9 26  2  0  0  0  0
 10 27  1  0  0  0  0
 11 12  2  0  0  0  0
 11 28  1  0  0  0  0
 12 30  1  0  0  0  0
 13 21  1  0  0  0  0
 13 27  2  0  0  0  0
 14 23  2  0  0  0  0
 14 29  1  0  0  0  0
 15 30  2  0  0  0  0
 15 31  1  0  0  0  0
 16 32  1  0  0  0  0
 17 32  1  0  0  0  0
 17 33  2  0  0  0  0
 17 34  1  0  0  0  0
 18 20  2  0  0  0  0
 18 39  1  0  0  0  0
 19 21  2  0  0  0  0
 19 40  1  0  0  0  0
 20 55  1  0  0  0  0
 21 41  1  0  0  0  0
 22 24  1  0  0  0  0
 22 29  2  0  0  0  0
 22 54  1  0  0  0  0
 23 25  1  0  0  0  0
 23 59  1  0  0  0  0
 24 25  2  0  0  0  0
 24 60  1  0  0  0  0
 25 66  1  0  0  0  0
 26 85  1  0  0  0  0
 27 87  1  0  0  0  0
 28 31  2  0  0  0  0
 28 85  1  0  0  0  0
 29 86  1  0  0  0  0
 30 88  1  0  0  0  0
 31 89  1  0  0  0  0
 32 70  2  0  0  0  0
 33 71  1  0  0  0  0
 33 75  1  0  0  0  0
 34 76  1  0  0  0  0
 34 80  2  0  0  0  0
 35 56  1  0  0  0  0
 35 77  1  0  0  0  0
 35 81  2  0  0  0  0
 36 67  1  0  0  0  0
 36 72  1  0  0  0  0
 36 82  2  0  0  0  0
 37 68  1  0  0  0  0
 37 78  1  0  0  0  0
 37 83  2  0  0  0  0
 38 73  1  0  0  0  0
 38 74  1  0  0  0  0
 38 84  2  0  0  0  0
 39 42  1  0  0  0  0
 40 56  1  0  0  0  0
 41 72  1  0  0  0  0
 42 46  1  0  0  0  0
 43 47  1  0  0  0  0
 43 50  1  0  0  0  0
 44 45  1  0  0  0  0
 44 54  1  0  0  0  0
 45 54  1  0  0  0  0
 46 55  1  0  0  0  0
 47 57  1  0  0  0  0
 48 51  1  0  0  0  0
 48 58  1  0  0  0  0
 49 52  1  0  0  0  0
 49 58  1  0  0  0  0
 50 73  1  0  0  0  0
 51 74  1  0  0  0  0
 52 74  1  0  0  0  0
 53 57  1  0  0  0  0
 53 73  1  0  0  0  0
 55 77  1  0  0  0  0
 56 72  1  0  0  0  0
 57 71  1  0  0  0  0
 58 86  1  0  0  0  0
 61 68  1  0  0  0  0
 62 69  1  0  0  0  0
 63 69  1  0  0  0  0
 64 69  1  0  0  0  0
 65 79  1  0  0  0  0
 66 87  1  0  0  0  0
 67 69  1  0  0  0  0
 67 78  1  0  0  0  0
 68 79  1  0  0  0  0
 70 71  1  0  0  0  0
M  CHG  1  79   1
M  ISO  4  38 100  66 101  74 100  87 101
M  END
> <Batch ID>
0162

> <Smiles>
CNC(C)C(=O)NC(C(=O)N1Cc2cc([101O:1][101CH2:1]c3c(C)cc(OC4CC[100N:0]([100C:0](=O)N5CCCC(n6nc(-c7ccc(Oc8ccc(F)cc8F)cc7)c(C(N)=O)c6N)C5)CC4)c(C4CC4)c3C)ccc2CC1C(=O)NC1CCCc2ccccc21)C(C)(C)C

> <Shape>
0.288

> <Color>
0.101

> <Negative vol penalty>
0.000

$$$$

  -OEChem-04052322143D

 88 97  0     1  0  0  0  0  0999 V2000
  -16.9898  -25.4943   22.9885 C   0  0  0  0  0  0  0  0  0  0  0  0
  -17.9675  -25.5513   22.0004 C   0  0  0  0  0  0  0  0  0  0  0  0
  -22.3833  -17.6862   24.8394 C   0  0  0  0  0  0  0  0  0  0  0  0
  -21.7687  -19.1748   23.0384 C   0  0  0  0  0  0  0  0  0  0  0  0
  -16.6845  -26.6336   23.7320 C   0  0  0  0  0  0  0  0  0  0  0  0
  -18.6396  -26.7481   21.7544 C   0  0  0  0  0  0  0  0  0  0  0  0
  -23.6357  -26.1000   21.2402 C   0  0  0  0  0  0  0  0  0  0  0  0
  -21.3817  -18.2386   25.6377 C   0  0  0  0  0  0  0  0  0  0  0  0
  -20.7671  -19.7271   23.8367 C   0  0  0  0  0  0  0  0  0  0  0  0
  -24.0909  -25.6019   20.0201 C   0  0  0  0  0  0  0  0  0  0  0  0
  -18.7507  -19.0084   28.0253 C   0  0  0  0  0  0  0  0  0  0  0  0
  -17.9425  -18.1328   28.7502 C   0  0  0  0  0  0  0  0  0  0  0  0
  -24.6839  -27.8377   19.3355 C   0  0  0  0  0  0  0  0  0  0  0  0
  -29.9167  -25.0498   18.5199 C   0  0  0  0  0  0  0  0  0  0  0  0
  -17.2178  -17.0971   26.6913 C   0  0  0  0  0  0  0  0  0  0  0  0
  -22.5768  -18.1544   23.5397 C   0  0  0  0  0  0  0  0  0  0  0  0
  -23.4956  -16.4841   21.8446 C   0  0  0  0  0  0  0  0  0  0  0  0
  -17.3600  -27.8424   23.5015 C   0  0  0  0  0  0  0  0  0  0  0  0
  -23.6912  -27.4743   21.5132 C   0  0  0  0  0  0  0  0  0  0  0  0
  -18.3421  -27.9049   22.4946 C   0  0  0  0  0  0  0  0  0  0  0  0
  -24.2311  -28.3504   20.5608 C   0  0  0  0  0  0  0  0  0  0  0  0
  -28.6687  -24.5323   18.1730 C   0  0  0  0  0  0  0  0  0  0  0  0
  -27.9590  -25.0803   17.1045 C   0  0  0  0  0  0  0  0  0  0  0  0
  -28.4972  -26.1459   16.3830 C   0  0  0  0  0  0  0  0  0  0  0  0
  -29.7452  -26.6634   16.7299 C   0  0  0  0  0  0  0  0  0  0  0  0
  -20.5736  -19.2590   25.1364 C   0  0  0  0  0  0  0  0  0  0  0  0
  -24.6124  -26.4711   19.0664 C   0  0  0  0  0  0  0  0  0  0  0  0
  -18.7925  -18.9285   26.6333 C   0  0  0  0  0  0  0  0  0  0  0  0
  -30.4549  -26.1154   17.7984 C   0  0  0  0  0  0  0  0  0  0  0  0
  -17.1761  -17.1771   28.0832 C   0  0  0  0  0  0  0  0  0  0  0  0
  -18.0261  -17.9728   25.9663 C   0  0  0  0  0  0  0  0  0  0  0  0
  -23.6117  -17.5846   22.7148 C   0  0  0  0  0  0  0  0  0  0  0  0
  -24.7486  -16.3436   21.2997 C   0  0  0  0  0  0  0  0  0  0  0  0
  -22.3570  -15.6624   21.5545 C   0  0  0  0  0  0  0  0  0  0  0  0
  -21.5359  -29.7272   22.1319 C   0  0  0  0  0  0  0  0  0  0  0  0
  -24.1662  -31.5536   22.6497 C   0  0  0  0  0  0  0  0  0  0  0  0
  -27.4839  -32.0897   22.0557 C   0  0  0  0  0  0  0  0  0  0  0  0
  -29.2646  -20.1830   20.4845 C   0  0  0  0  0  0  0  0  0  0  0  0
  -16.9623  -29.0596   24.2984 C   0  0  0  0  0  0  0  0  0  0  0  0
  -23.2208  -27.9925   22.8446 C   0  0  0  0  0  0  0  0  0  0  0  0
  -24.3316  -29.8319   20.8130 C   0  0  0  0  0  0  0  0  0  0  0  0
  -17.9833  -30.1924   24.2305 C   0  0  0  0  0  0  0  0  0  0  0  0
  -29.3596  -17.1134   22.2314 C   0  0  0  0  0  0  0  0  0  0  0  0
  -18.4275  -30.4251   22.7899 C   0  0  0  0  0  0  0  0  0  0  0  0
  -27.8934  -16.7918   22.5071 C   0  0  0  0  0  0  0  0  0  0  0  0
  -27.9325  -23.6005   20.4837 C   0  0  0  0  0  0  0  0  0  0  0  0
  -29.6178  -18.6090   22.3549 C   0  0  0  0  0  0  0  0  0  0  0  0
  -27.7602  -22.1863   21.0214 C   0  0  0  0  0  0  0  0  0  0  0  0
  -28.9743  -22.1101   18.9568 C   0  0  0  0  0  0  0  0  0  0  0  0
  -27.2873  -19.1253   21.6824 C   0  0  0  0  0  0  0  0  0  0  0  0
  -28.1078  -23.3773   18.9728 C   0  0  2  0  0  0  0  0  0  0  0  0
  -19.1105  -29.1783   22.2150 C   0  0  1  0  0  0  0  0  0  0  0  0
  -22.8507  -29.4722   22.8130 C   0  0  1  0  0  0  0  0  0  0  0  0
  -26.9763  -17.6170   21.5912 C   0  0  2  0  0  0  0  0  0  0  0  0
  -27.7366  -26.7340   15.2366 C   0  0  0  0  0  0  0  0  0  0  0  0
  -30.3288  -27.8060   15.9610 C   0  0  0  0  0  0  0  0  0  0  0  0
  -26.7143  -23.0506   16.2904 C   0  0  0  0  0  0  0  0  0  0  0  0
  -29.3474  -33.6847   22.5856 C   0  0  0  0  0  0  0  0  0  0  0  0
  -23.0102  -33.5604   20.6632 C   0  0  0  0  0  0  0  0  0  0  0  0
  -25.2770  -34.6127   20.5137 C   0  0  0  0  0  0  0  0  0  0  0  0
  -24.0581  -34.5843   22.6900 C   0  0  0  0  0  0  0  0  0  0  0  0
  -29.0724  -29.9747   23.3832 C   0  0  0  0  0  0  0  0  0  0  0  0
  -31.6953  -27.6613   19.1127 C   0  0  0  0  0  0  0  0  0  0  0  0
  -25.5806  -24.6600   17.8671 C   0  0  0  0  0  0  0  0  0  1  0  0
  -26.6210  -24.5225   16.7344 C   0  0  1  0  0  0  0  0  0  0  0  0
  -25.0414  -32.4352   21.7919 C   0  0  1  0  0  0  0  0  0  0  0  0
  -28.6371  -32.4029   22.9920 C   0  0  2  0  0  0  0  0  0  0  0  0
  -24.3432  -33.7705   21.4089 C   0  0  0  0  0  0  0  0  0  0  0  0
  -24.8413  -18.1061   22.7255 N   0  0  0  0  0  0  0  0  0  0  0  0
  -25.5094  -17.3298   21.8554 N   0  0  0  0  0  0  0  0  0  0  0  0
  -23.8527  -30.2908   22.1273 N   0  0  0  0  0  0  0  0  0  0  0  0
  -28.7206  -19.3884   21.4997 N   0  0  0  0  0  0  0  0  0  0  0  0
  -28.6002  -21.3634   20.1537 N   0  0  0  0  0  0  0  0  0  0  0  0
  -25.2628  -15.4739   20.4045 N   0  0  0  0  0  0  0  0  0  0  0  0
  -21.1467  -15.9451   22.2022 N   0  0  0  0  0  0  0  0  0  0  0  0
  -20.4661  -29.0710   22.7101 N   0  0  0  0  0  0  0  0  0  0  0  0
  -26.2927  -32.6034   22.5230 N   0  0  0  0  0  0  0  0  0  0  0  0
  -29.6299  -31.2915   22.9806 N   0  3  0  0  0  0  0  0  0  0  0  0
  -22.4156  -14.6956   20.7574 O   0  0  0  0  0  0  0  0  0  0  0  0
  -21.4948  -30.4660   21.1551 O   0  0  0  0  0  0  0  0  0  0  0  0
  -23.7811  -31.9673   23.7462 O   0  0  0  0  0  0  0  0  0  0  0  0
  -27.6262  -31.4562   21.0122 O   0  0  0  0  0  0  0  0  0  0  0  0
  -30.3241  -19.8727   19.9234 O   0  0  0  0  0  0  0  0  0  0  0  0
  -19.5960  -19.7981   25.9151 O   0  0  0  0  0  0  0  0  0  0  0  0
  -31.6753  -26.6075   18.1520 O   0  0  0  0  0  0  0  0  0  0  0  0
  -25.0597  -25.9845   17.8667 O   0  0  0  0  0  0  0  0  0  1  0  0
  -16.4012  -16.3352   28.7796 F   0  0  0  0  0  0  0  0  0  0  0  0
  -18.0630  -17.8904   24.6293 F   0  0  0  0  0  0  0  0  0  0  0  0
  1  2  1  0  0  0  0
  1  5  2  0  0  0  0
  2  6  2  0  0  0  0
  3  8  2  0  0  0  0
  3 16  1  0  0  0  0
  4  9  1  0  0  0  0
  4 16  2  0  0  0  0
  5 18  1  0  0  0  0
  6 20  1  0  0  0  0
  7 10  2  0  0  0  0
  7 19  1  0  0  0  0
  8 26  1  0  0  0  0
  9 26  2  0  0  0  0
 10 27  1  0  0  0  0
 11 12  2  0  0  0  0
 11 28  1  0  0  0  0
 12 30  1  0  0  0  0
 13 21  1  0  0  0  0
 13 27  2  0  0  0  0
 14 22  2  0  0  0  0
 14 29  1  0  0  0  0
 15 30  2  0  0  0  0
 15 31  1  0  0  0  0
 16 32  1  0  0  0  0
 17 32  1  0  0  0  0
 17 33  2  0  0  0  0
 17 34  1  0  0  0  0
 18 20  2  0  0  0  0
 18 39  1  0  0  0  0
 19 21  2  0  0  0  0
 19 40  1  0  0  0  0
 20 52  1  0  0  0  0
 21 41  1  0  0  0  0
 22 23  1  0  0  0  0
 22 51  1  0  0  0  0
 23 24  2  0  0  0  0
 23 65  1  0  0  0  0
 24 25  1  0  0  0  0
 24 55  1  0  0  0  0
 25 29  2  0  0  0  0
 25 56  1  0  0  0  0
 26 84  1  0  0  0  0
 27 86  1  0  0  0  0
 28 31  2  0  0  0  0
 28 84  1  0  0  0  0
 29 85  1  0  0  0  0
 30 87  1  0  0  0  0
 31 88  1  0  0  0  0
 32 69  2  0  0  0  0
 33 70  1  0  0  0  0
 33 74  1  0  0  0  0
 34 75  1  0  0  0  0
 34 79  2  0  0  0  0
 35 53  1  0  0  0  0
 35 76  1  0  0  0  0
 35 80  2  0  0  0  0
 36 66  1  0  0  0  0
 36 71  1  0  0  0  0
 36 81  2  0  0  0  0
 37 67  1  0  0  0  0
 37 77  1  0  0  0  0
 37 82  2  0  0  0  0
 38 72  1  0  0  0  0
 38 73  1  0  0  0  0
 38 83  2  0  0  0  0
 39 42  1  0  0  0  0
 40 53  1  0  0  0  0
 41 71  1  0  0  0  0
 42 44  1  0  0  0  0
 43 45  1  0  0  0  0
 43 47  1  0  0  0  0
 44 52  1  0  0  0  0
 45 54  1  0  0  0  0
 46 48  1  0  0  0  0
 46 51  1  0  0  0  0
 47 72  1  0  0  0  0
 48 73  1  0  0  0  0
 49 51  1  0  0  0  0
 49 73  1  0  0  0  0
 50 54  1  0  0  0  0
 50 72  1  0  0  0  0
 52 76  1  0  0  0  0
 53 71  1  0  0  0  0
 54 70  1  0  0  0  0
 57 65  1  0  0  0  0
 58 67  1  0  0  0  0
 59 68  1  0  0  0  0
 60 68  1  0  0  0  0
 61 68  1  0  0  0  0
 62 78  1  0  0  0  0
 63 85  1  0  0  0  0
 64 65  1  0  0  0  0
 64 86  1  0  0  0  0
 66 68  1  0  0  0  0
 66 77  1  0  0  0  0
 67 78  1  0  0  0  0
 69 70  1  0  0  0  0
M  CHG  1  78   1
M  ISO  4  38 100  64 101  73 100  86 101
M  END
> <Batch ID>
0162

> <Smiles>
CNC(C)C(=O)NC(C(=O)N1Cc2cc([101O:1][101CH2:1]C(C)c3c(C4CC[100N:0]([100C:0](=O)N5CCCC(n6nc(-c7ccc(Oc8ccc(F)cc8F)cc7)c(C(N)=O)c6N)C5)C4)cc(OC)c(C)c3C)ccc2CC1C(=O)NC1CCCc2ccccc21)C(C)(C)C

> <Shape>
0.212

> <Color>
0.104

> <Negative vol penalty>
0.000

$$$$

  -OEChem-04052322143D

 87 97  0     1  0  0  0  0  0999 V2000
  -37.4644  -30.2091   28.2481 C   0  0  0  0  0  0  0  0  0  0  0  0
  -36.8330  -29.1064   27.6818 C   0  0  0  0  0  0  0  0  0  0  0  0
  -22.6225  -10.1972   20.2170 C   0  0  0  0  0  0  0  0  0  0  0  0
  -24.4055   -9.3662   21.6196 C   0  0  0  0  0  0  0  0  0  0  0  0
  -36.8482  -31.4593   28.2105 C   0  0  0  0  0  0  0  0  0  0  0  0
  -35.5845  -29.2530   27.0784 C   0  0  0  0  0  0  0  0  0  0  0  0
  -35.2835  -26.8538   22.6289 C   0  0  0  0  0  0  0  0  0  0  0  0
  -21.9288   -8.9995   20.3892 C   0  0  0  0  0  0  0  0  0  0  0  0
  -23.7117   -8.1684   21.7918 C   0  0  0  0  0  0  0  0  0  0  0  0
  -35.0975  -25.4725   22.6616 C   0  0  0  0  0  0  0  0  0  0  0  0
  -21.1224   -7.0359   23.6447 C   0  0  0  0  0  0  0  0  0  0  0  0
  -21.0464   -6.5126   24.9354 C   0  0  0  0  0  0  0  0  0  0  0  0
  -32.7443  -25.7853   22.2329 C   0  0  0  0  0  0  0  0  0  0  0  0
  -22.1682   -4.5074   24.1884 C   0  0  0  0  0  0  0  0  0  0  0  0
  -23.8610  -10.3806   20.8321 C   0  0  0  0  0  0  0  0  0  0  0  0
  -24.1446  -12.9098   21.0053 C   0  0  0  0  0  0  0  0  0  0  0  0
  -35.5959  -31.6231   27.5978 C   0  0  0  0  0  0  0  0  0  0  0  0
  -34.1976  -27.7132   22.4084 C   0  0  0  0  0  0  0  0  0  0  0  0
  -34.9504  -30.5062   27.0337 C   0  0  0  0  0  0  0  0  0  0  0  0
  -32.9196  -27.1770   22.1952 C   0  0  0  0  0  0  0  0  0  0  0  0
  -22.4733   -7.9851   21.1766 C   0  0  0  0  0  0  0  0  0  0  0  0
  -33.8272  -24.9381   22.4665 C   0  0  0  0  0  0  0  0  0  0  0  0
  -21.7212   -6.2950   22.6258 C   0  0  0  0  0  0  0  0  0  0  0  0
  -21.5693   -5.2484   25.2073 C   0  0  0  0  0  0  0  0  0  0  0  0
  -22.2441   -5.0308   22.8977 C   0  0  0  0  0  0  0  0  0  0  0  0
  -24.5784  -11.6174   20.6542 C   0  0  0  0  0  0  0  0  0  0  0  0
  -25.1800  -13.7322   20.6337 C   0  0  0  0  0  0  0  0  0  0  0  0
  -22.9157  -13.3294   21.6130 C   0  0  0  0  0  0  0  0  0  0  0  0
  -32.7805  -30.0128   24.0839 C   0  0  0  0  0  0  0  0  0  0  0  0
  -31.0863  -30.4252   21.3486 C   0  0  0  0  0  0  0  0  0  0  0  0
  -29.5425  -28.3136   18.8637 C   0  0  0  0  0  0  0  0  0  0  0  0
  -30.8131  -14.5101   20.7852 C   0  0  0  0  0  0  0  0  0  0  0  0
  -34.9478  -32.9847   27.6234 C   0  0  0  0  0  0  0  0  0  0  0  0
  -34.4195  -29.1997   22.3494 C   0  0  0  0  0  0  0  0  0  0  0  0
  -31.7244  -28.0556   21.9345 C   0  0  0  0  0  0  0  0  0  0  0  0
  -33.7938  -33.1288   26.6346 C   0  0  0  0  0  0  0  0  0  0  0  0
  -29.2942  -12.8264   17.8529 C   0  0  0  0  0  0  0  0  0  0  0  0
  -32.8660  -31.9208   26.7172 C   0  0  0  0  0  0  0  0  0  0  0  0
  -33.4381  -20.6399   22.4936 C   0  0  0  0  0  0  0  0  0  0  0  0
  -32.6996  -21.3921   20.1939 C   0  0  0  0  0  0  0  0  0  0  0  0
  -27.9260  -12.4055   18.3861 C   0  0  0  0  0  0  0  0  0  0  0  0
  -29.6301  -20.4853   24.8565 C   0  0  0  0  0  0  0  0  0  0  0  0
  -30.2683  -21.5838   24.0543 C   0  0  0  0  0  0  0  0  0  0  0  0
  -34.6915  -21.4565   22.1565 C   0  0  0  0  0  0  0  0  0  0  0  0
  -33.5426  -22.6722   20.2531 C   0  0  0  0  0  0  0  0  0  0  0  0
  -31.6148  -17.0429   23.0166 C   0  0  0  0  0  0  0  0  0  0  0  0
  -29.4995  -17.6288   21.7656 C   0  0  0  0  0  0  0  0  0  0  0  0
  -30.3339  -12.9129   18.9657 C   0  0  0  0  0  0  0  0  0  0  0  0
  -31.1865  -15.5781   22.9887 C   0  0  0  0  0  0  0  0  0  0  0  0
  -29.1250  -16.1440   21.7391 C   0  0  0  0  0  0  0  0  0  0  0  0
  -28.5626  -13.3750   20.6304 C   0  0  0  0  0  0  0  0  0  0  0  0
  -33.6069  -30.6299   26.3483 C   0  0  1  0  0  0  0  0  0  0  0  0
  -33.1537  -30.0043   22.6285 C   0  0  1  0  0  0  0  0  0  0  0  0
  -32.2371  -20.9418   21.5807 C   0  0  0  0  0  0  0  0  0  0  0  0
  -27.4824  -13.3217   19.5395 C   0  0  2  0  0  0  0  0  0  0  0  0
  -29.7910  -20.3343   23.3708 C   0  0  0  0  0  0  0  0  0  0  0  0
  -30.3878  -17.9510   22.9654 C   0  0  0  0  0  0  0  0  0  0  0  0
  -34.3653  -22.8114   21.5393 C   0  0  0  0  0  0  0  0  0  1  0  0
  -29.0505  -28.7381   16.4398 C   0  0  0  0  0  0  0  0  0  0  0  0
  -28.3399  -31.2919   22.3566 C   0  0  0  0  0  0  0  0  0  0  0  0
  -27.3328  -30.2010   20.3407 C   0  0  0  0  0  0  0  0  0  0  0  0
  -28.9155  -32.1093   20.0643 C   0  0  0  0  0  0  0  0  0  0  0  0
  -31.0303  -25.8986   18.0191 C   0  0  0  0  0  0  0  0  0  0  0  0
  -31.3079  -19.7330   21.4895 C   0  0  0  0  0  0  0  0  0  0  0  0
  -29.8050  -29.8563   20.7887 C   0  0  1  0  0  0  0  0  0  0  0  0
  -30.0087  -28.1017   17.4346 C   0  0  2  0  0  0  0  0  0  0  0  0
  -28.6146  -30.8497   20.9054 C   0  0  0  0  0  0  0  0  0  0  0  0
  -25.7945  -11.6139   20.1018 N   0  0  0  0  0  0  0  0  0  0  0  0
  -26.1337  -12.9143   20.1029 N   0  0  0  0  0  0  0  0  0  0  0  0
  -31.9914  -29.5028   21.8926 N   0  0  0  0  0  0  0  0  0  0  0  0
  -29.8706  -13.7507   20.0720 N   0  0  0  0  0  0  0  0  0  0  0  0
  -30.3262  -15.3014   21.8367 N   0  0  0  0  0  0  0  0  0  0  0  0
  -25.3586  -15.0680   20.7123 N   0  0  0  0  0  0  0  0  0  0  0  0
  -21.9602  -12.3544   21.9303 N   0  0  0  0  0  0  0  0  0  0  0  0
  -33.7592  -30.5272   24.9128 N   0  0  0  0  0  0  0  0  0  0  0  0
  -30.1053  -29.4415   19.4226 N   0  0  0  0  0  0  0  0  0  0  0  0
  -30.1029  -26.6457   17.1310 N   0  3  0  0  0  0  0  0  0  0  0  0
  -30.8342  -19.3651   22.8734 N   0  3  1  0  0  0  0  0  0  0  0  0
  -22.6654  -14.5351   21.8522 O   0  0  0  0  0  0  0  0  0  0  0  0
  -31.6851  -29.5856   24.4293 O   0  0  0  0  0  0  0  0  0  0  0  0
  -31.2802  -31.6424   21.2986 O   0  0  0  0  0  0  0  0  0  0  0  0
  -28.7547  -27.5565   19.4265 O   0  0  0  0  0  0  0  0  0  0  0  0
  -32.0163  -14.4834   20.4973 O   0  0  0  0  0  0  0  0  0  0  0  0
  -21.7965   -6.8163   21.3451 O   0  0  0  0  0  0  0  0  0  0  0  0
  -33.6416  -23.5814   22.4988 O   0  0  0  0  0  0  0  0  0  1  0  0
  -21.4977   -4.7466   26.4472 F   0  0  0  0  0  0  0  0  0  0  0  0
  -22.8216   -4.3147   21.9232 F   0  0  0  0  0  0  0  0  0  0  0  0
  1  2  1  0  0  0  0
  1  5  2  0  0  0  0
  2  6  2  0  0  0  0
  3  8  2  0  0  0  0
  3 15  1  0  0  0  0
  4  9  1  0  0  0  0
  4 15  2  0  0  0  0
  5 17  1  0  0  0  0
  6 19  1  0  0  0  0
  7 10  2  0  0  0  0
  7 18  1  0  0  0  0
  8 21  1  0  0  0  0
  9 21  2  0  0  0  0
 10 22  1  0  0  0  0
 11 12  2  0  0  0  0
 11 23  1  0  0  0  0
 12 24  1  0  0  0  0
 13 20  1  0  0  0  0
 13 22  2  0  0  0  0
 14 24  2  0  0  0  0
 14 25  1  0  0  0  0
 15 26  1  0  0  0  0
 16 26  1  0  0  0  0
 16 27  2  0  0  0  0
 16 28  1  0  0  0  0
 17 19  2  0  0  0  0
 17 33  1  0  0  0  0
 18 20  2  0  0  0  0
 18 34  1  0  0  0  0
 19 52  1  0  0  0  0
 20 35  1  0  0  0  0
 21 84  1  0  0  0  0
 22 85  1  0  0  0  0
 23 25  2  0  0  0  0
 23 84  1  0  0  0  0
 24 86  1  0  0  0  0
 25 87  1  0  0  0  0
 26 68  2  0  0  0  0
 27 69  1  0  0  0  0
 27 73  1  0  0  0  0
 28 74  1  0  0  0  0
 28 79  2  0  0  0  0
 29 53  1  0  0  0  0
 29 75  1  0  0  0  0
 29 80  2  0  0  0  0
 30 65  1  0  0  0  0
 30 70  1  0  0  0  0
 30 81  2  0  0  0  0
 31 66  1  0  0  0  0
 31 76  1  0  0  0  0
 31 82  2  0  0  0  0
 32 71  1  0  0  0  0
 32 72  1  0  0  0  0
 32 83  2  0  0  0  0
 33 36  1  0  0  0  0
 34 53  1  0  0  0  0
 35 70  1  0  0  0  0
 36 38  1  0  0  0  0
 37 41  1  0  0  0  0
 37 48  1  0  0  0  0
 38 52  1  0  0  0  0
 39 44  1  0  0  0  0
 39 54  1  0  0  0  0
 40 45  1  0  0  0  0
 40 54  1  0  0  0  0
 41 55  1  0  0  0  0
 42 43  1  0  0  0  0
 42 56  1  0  0  0  0
 43 56  1  0  0  0  0
 44 58  1  0  0  0  0
 45 58  1  0  0  0  0
 46 49  1  0  0  0  0
 46 57  1  0  0  0  0
 47 50  1  0  0  0  0
 47 57  1  0  0  0  0
 48 71  1  0  0  0  0
 49 72  1  0  0  0  0
 50 72  1  0  0  0  0
 51 55  1  0  0  0  0
 51 71  1  0  0  0  0
 52 75  1  0  0  0  0
 53 70  1  0  0  0  0
 54 64  1  0  0  0  0
 55 69  1  0  0  0  0
 56 78  1  0  0  0  0
 57 78  1  0  0  0  0
 58 85  1  0  0  0  0
 59 66  1  0  0  0  0
 60 67  1  0  0  0  0
 61 67  1  0  0  0  0
 62 67  1  0  0  0  0
 63 77  1  0  0  0  0
 64 78  1  0  0  0  0
 65 67  1  0  0  0  0
 65 76  1  0  0  0  0
 66 77  1  0  0  0  0
 68 69  1  0  0  0  0
M  CHG  2  77   1  78   1
M  ISO  4  32 100  58 101  72 100  85 101
M  END
> <Batch ID>
0162

> <Smiles>
CNC(C)C(=O)NC(C(=O)N1Cc2cc([101O:1][101CH:1]3CCC(CN(C4CC4)C4CC[100N:0]([100C:0](=O)N5CCCC(n6nc(-c7ccc(Oc8ccc(F)cc8F)cc7)c(C(N)=O)c6N)C5)CC4)CC3)ccc2CC1C(=O)NC1CCCc2ccccc21)C(C)(C)C

> <Shape>
0.221

> <Color>
0.191

> <Negative vol penalty>
0.000

$$$$

  -OEChem-04052322143D

 93103  0     1  0  0  0  0  0999 V2000
  -24.5050  -33.4688   25.1721 C   0  0  0  0  0  0  0  0  0  0  0  0
  -24.0184  -32.1994   24.8765 C   0  0  0  0  0  0  0  0  0  0  0  0
  -27.5049  -13.2340   22.5888 C   0  0  0  0  0  0  0  0  0  0  0  0
  -26.8918  -12.9330   20.2714 C   0  0  0  0  0  0  0  0  0  0  0  0
  -25.4465  -34.0657   24.3347 C   0  0  0  0  0  0  0  0  0  0  0  0
  -24.4723  -31.5266   23.7426 C   0  0  0  0  0  0  0  0  0  0  0  0
  -25.5678  -26.6708   24.6731 C   0  0  0  0  0  0  0  0  0  0  0  0
  -26.9455  -11.9942   22.8979 C   0  0  0  0  0  0  0  0  0  0  0  0
  -26.3324  -11.6931   20.5804 C   0  0  0  0  0  0  0  0  0  0  0  0
  -24.4971  -25.7824   24.7628 C   0  0  0  0  0  0  0  0  0  0  0  0
  -24.4231   -8.6099   20.8212 C   0  0  0  0  0  0  0  0  0  0  0  0
  -23.1737   -8.3090   20.2790 C   0  0  0  0  0  0  0  0  0  0  0  0
  -24.9156  -25.0589   22.5000 C   0  0  0  0  0  0  0  0  0  0  0  0
  -20.2018  -22.0487   18.1571 C   0  0  0  0  0  0  0  0  0  0  0  0
  -22.2226  -10.2205   21.4099 C   0  0  0  0  0  0  0  0  0  0  0  0
  -27.4780  -13.7034   21.2756 C   0  0  0  0  0  0  0  0  0  0  0  0
  -29.3837  -15.2457   20.5702 C   0  0  0  0  0  0  0  0  0  0  0  0
  -25.9193  -33.3959   23.1952 C   0  0  0  0  0  0  0  0  0  0  0  0
  -26.3149  -26.7679   23.4904 C   0  0  0  0  0  0  0  0  0  0  0  0
  -25.4200  -32.1157   22.8884 C   0  0  0  0  0  0  0  0  0  0  0  0
  -25.9969  -25.9475   22.3987 C   0  0  0  0  0  0  0  0  0  0  0  0
  -20.8800  -22.5688   19.2594 C   0  0  0  0  0  0  0  0  0  0  0  0
  -20.1644  -23.0338   20.3627 C   0  0  0  0  0  0  0  0  0  0  0  0
  -18.7706  -22.9787   20.3638 C   0  0  0  0  0  0  0  0  0  0  0  0
  -18.0924  -22.4585   19.2614 C   0  0  0  0  0  0  0  0  0  0  0  0
  -26.3593  -11.2237   21.8937 C   0  0  0  0  0  0  0  0  0  0  0  0
  -24.1690  -24.9784   23.6752 C   0  0  0  0  0  0  0  0  0  0  0  0
  -24.5723   -9.7160   21.6579 C   0  0  0  0  0  0  0  0  0  0  0  0
  -18.8080  -21.9935   18.1581 C   0  0  0  0  0  0  0  0  0  0  0  0
  -22.0734   -9.1143   20.5733 C   0  0  0  0  0  0  0  0  0  0  0  0
  -23.4720  -10.5213   21.9522 C   0  0  0  0  0  0  0  0  0  0  0  0
  -28.0552  -14.9843   20.9558 C   0  0  0  0  0  0  0  0  0  0  0  0
  -29.4252  -16.6055   20.3817 C   0  0  0  0  0  0  0  0  0  0  0  0
  -30.4819  -14.3402   20.3977 C   0  0  0  0  0  0  0  0  0  0  0  0
  -26.8909  -29.0780   21.3844 C   0  0  0  0  0  0  0  0  0  0  0  0
  -28.9242  -26.8875   20.1236 C   0  0  0  0  0  0  0  0  0  0  0  0
  -29.8421  -23.5358   19.1536 C   0  0  0  0  0  0  0  0  0  0  0  0
  -25.1284  -20.4469   18.9758 C   0  0  0  0  0  0  0  0  0  0  0  0
  -26.9020  -34.1010   22.2942 C   0  0  0  0  0  0  0  0  0  0  0  0
  -27.4836  -27.7121   23.4188 C   0  0  0  0  0  0  0  0  0  0  0  0
  -26.7803  -25.9990   21.1133 C   0  0  0  0  0  0  0  0  0  0  0  0
  -27.6106  -33.1670   21.3165 C   0  0  0  0  0  0  0  0  0  0  0  0
  -27.4053  -20.6663   21.8345 C   0  0  0  0  0  0  0  0  0  0  0  0
  -20.6792  -22.7448   22.8228 C   0  0  0  0  0  0  0  0  0  0  0  0
  -20.5825  -25.0763   21.8184 C   0  0  0  0  0  0  0  0  0  0  0  0
  -26.6068  -32.2336   20.6471 C   0  0  0  0  0  0  0  0  0  0  0  0
  -27.8991  -19.2265   21.9295 C   0  0  0  0  0  0  0  0  0  0  0  0
  -20.8207  -23.5354   24.1296 C   0  0  0  0  0  0  0  0  0  0  0  0
  -21.4676  -25.6713   22.9215 C   0  0  0  0  0  0  0  0  0  0  0  0
  -25.9546  -20.7545   21.3596 C   0  0  0  0  0  0  0  0  0  0  0  0
  -23.2546  -21.7235   20.2166 C   0  0  0  0  0  0  0  0  0  0  0  0
  -26.1998  -18.5765   20.1882 C   0  0  0  0  0  0  0  0  0  0  0  0
  -22.4675  -22.6208   19.2345 C   0  0  1  0  0  0  0  0  0  0  0  0
  -20.9081  -23.5989   21.5591 C   0  0  0  0  0  0  0  0  0  0  0  0
  -25.9063  -31.3437   21.6810 C   0  0  1  0  0  0  0  0  0  0  0  0
  -27.8543  -28.0967   21.9898 C   0  0  1  0  0  0  0  0  0  0  0  0
  -27.6765  -18.4930   20.5985 C   0  0  2  0  0  0  0  0  0  0  0  0
  -21.8333  -24.6706   24.0247 C   0  0  0  0  0  0  0  0  0  1  0  0
  -23.2273  -21.8991   18.0910 C   0  0  1  0  0  0  0  0  0  0  0  0
  -18.0024  -23.4781   21.5465 C   0  0  0  0  0  0  0  0  0  0  0  0
  -16.5979  -22.3971   19.2538 C   0  0  0  0  0  0  0  0  0  0  0  0
  -31.6162  -22.0120   18.2436 C   0  0  0  0  0  0  0  0  0  0  0  0
  -22.8635  -23.6535   16.3322 C   0  0  0  0  0  0  0  0  0  0  0  0
  -24.9608  -23.6752   17.7122 C   0  0  0  0  0  0  0  0  0  0  0  0
  -27.5159  -27.3041   17.4491 C   0  0  0  0  0  0  0  0  0  0  0  0
  -28.5669  -25.1792   16.6438 C   0  0  0  0  0  0  0  0  0  0  0  0
  -30.0047  -27.1098   17.2985 C   0  0  0  0  0  0  0  0  0  0  0  0
  -30.5992  -22.6099   21.8608 C   0  0  0  0  0  0  0  0  0  0  0  0
  -18.9749  -21.0305   15.9900 C   0  0  0  0  0  0  0  0  0  0  0  0
  -28.8088  -25.7903   19.0931 C   0  0  1  0  0  0  0  0  0  0  0  0
  -31.1592  -22.8362   19.4372 C   0  0  2  0  0  0  0  0  0  0  0  0
  -23.8951  -22.7887   17.0619 C   0  0  0  0  0  0  0  0  0  0  0  0
  -28.7079  -26.3460   17.6446 C   0  0  0  0  0  0  0  0  0  0  0  0
  -27.3070  -16.0894   21.0097 N   0  0  0  0  0  0  0  0  0  0  0  0
  -28.1682  -17.0584   20.6555 N   0  0  0  0  0  0  0  0  0  0  0  0
  -27.9101  -26.9427   21.0902 N   0  0  0  0  0  0  0  0  0  0  0  0
  -25.7243  -19.9630   20.1463 N   0  0  0  0  0  0  0  0  0  0  0  0
  -24.1699  -21.4354   19.1152 N   0  0  0  0  0  0  0  0  0  0  0  0
  -30.4141  -17.4461   20.0102 N   0  0  0  0  0  0  0  0  0  0  0  0
  -30.2659  -12.9755   20.6329 N   0  0  0  0  0  0  0  0  0  0  0  0
  -26.7764  -30.2615   22.0885 N   0  0  0  0  0  0  0  0  0  0  0  0
  -29.9443  -24.9014   19.3144 N   0  0  0  0  0  0  0  0  0  0  0  0
  -31.0211  -21.9277   20.6104 N   0  3  0  0  0  0  0  0  0  0  0  0
  -31.6251  -14.7318   20.0614 O   0  0  0  0  0  0  0  0  0  0  0  0
  -26.2967  -28.7839   20.3538 O   0  0  0  0  0  0  0  0  0  0  0  0
  -29.8828  -27.6624   20.0771 O   0  0  0  0  0  0  0  0  0  0  0  0
  -28.8255  -22.9316   18.8192 O   0  0  0  0  0  0  0  0  0  0  0  0
  -25.4145  -20.0002   17.8583 O   0  0  0  0  0  0  0  0  0  0  0  0
  -25.8135  -10.0138   22.1949 O   0  0  0  0  0  0  0  0  0  0  0  0
  -23.1172  -24.1052   23.7604 O   0  0  0  0  0  0  0  0  0  1  0  0
  -18.1632  -21.4821   17.0721 O   0  0  0  0  0  0  0  0  0  0  0  0
  -20.8740   -8.8262   20.0512 F   0  0  0  0  0  0  0  0  0  0  0  0
  -23.6094  -11.5859   22.7544 F   0  0  0  0  0  0  0  0  0  0  0  0
  1  2  1  0  0  0  0
  1  5  2  0  0  0  0
  2  6  2  0  0  0  0
  3  8  2  0  0  0  0
  3 16  1  0  0  0  0
  4  9  1  0  0  0  0
  4 16  2  0  0  0  0
  5 18  1  0  0  0  0
  6 20  1  0  0  0  0
  7 10  2  0  0  0  0
  7 19  1  0  0  0  0
  8 26  1  0  0  0  0
  9 26  2  0  0  0  0
 10 27  1  0  0  0  0
 11 12  2  0  0  0  0
 11 28  1  0  0  0  0
 12 30  1  0  0  0  0
 13 21  1  0  0  0  0
 13 27  2  0  0  0  0
 14 22  2  0  0  0  0
 14 29  1  0  0  0  0
 15 30  2  0  0  0  0
 15 31  1  0  0  0  0
 16 32  1  0  0  0  0
 17 32  1  0  0  0  0
 17 33  2  0  0  0  0
 17 34  1  0  0  0  0
 18 20  2  0  0  0  0
 18 39  1  0  0  0  0
 19 21  2  0  0  0  0
 19 40  1  0  0  0  0
 20 55  1  0  0  0  0
 21 41  1  0  0  0  0
 22 23  1  0  0  0  0
 22 53  1  0  0  0  0
 23 24  2  0  0  0  0
 23 54  1  0  0  0  0
 24 25  1  0  0  0  0
 24 60  1  0  0  0  0
 25 29  2  0  0  0  0
 25 61  1  0  0  0  0
 26 89  1  0  0  0  0
 27 90  1  0  0  0  0
 28 31  2  0  0  0  0
 28 89  1  0  0  0  0
 29 91  1  0  0  0  0
 30 92  1  0  0  0  0
 31 93  1  0  0  0  0
 32 74  2  0  0  0  0
 33 75  1  0  0  0  0
 33 79  1  0  0  0  0
 34 80  1  0  0  0  0
 34 84  2  0  0  0  0
 35 56  1  0  0  0  0
 35 81  1  0  0  0  0
 35 85  2  0  0  0  0
 36 70  1  0  0  0  0
 36 76  1  0  0  0  0
 36 86  2  0  0  0  0
 37 71  1  0  0  0  0
 37 82  1  0  0  0  0
 37 87  2  0  0  0  0
 38 77  1  0  0  0  0
 38 78  1  0  0  0  0
 38 88  2  0  0  0  0
 39 42  1  0  0  0  0
 40 56  1  0  0  0  0
 41 76  1  0  0  0  0
 42 46  1  0  0  0  0
 43 47  1  0  0  0  0
 43 50  1  0  0  0  0
 44 48  1  0  0  0  0
 44 54  1  0  0  0  0
 45 49  1  0  0  0  0
 45 54  1  0  0  0  0
 46 55  1  0  0  0  0
 47 57  1  0  0  0  0
 48 58  1  0  0  0  0
 49 58  1  0  0  0  0
 50 77  1  0  0  0  0
 51 53  1  0  0  0  0
 51 78  1  0  0  0  0
 52 57  1  0  0  0  0
 52 77  1  0  0  0  0
 53 59  1  0  0  0  0
 55 81  1  0  0  0  0
 56 76  1  0  0  0  0
 57 75  1  0  0  0  0
 58 90  1  0  0  0  0
 59 72  1  0  0  0  0
 59 78  1  0  0  0  0
 62 71  1  0  0  0  0
 63 72  1  0  0  0  0
 64 72  1  0  0  0  0
 65 73  1  0  0  0  0
 66 73  1  0  0  0  0
 67 73  1  0  0  0  0
 68 83  1  0  0  0  0
 69 91  1  0  0  0  0
 70 73  1  0  0  0  0
 70 82  1  0  0  0  0
 71 83  1  0  0  0  0
 74 75  1  0  0  0  0
M  CHG  1  83   1
M  ISO  4  38 100  58 101  78 100  90 101
M  END
> <Batch ID>
0162

> <Smiles>
CNC(C)C(=O)NC(C(=O)N1Cc2cc([101O:1][101CH:1]3CCC(c4c(C5C[100N:0]([100C:0](=O)N6CCCC(n7nc(-c8ccc(Oc9ccc(F)cc9F)cc8)c(C(N)=O)c7N)C6)C5C(C)C)cc(OC)c(C)c4C)CC3)ccc2CC1C(=O)NC1CCCc2ccccc21)C(C)(C)C

> <Shape>
0.224

> <Color>
0.073

> <Negative vol penalty>
0.000

$$$$

  -OEChem-04052322143D

 86 95  0     1  0  0  0  0  0999 V2000
  -19.8968  -23.6339   22.6829 C   0  0  0  0  0  0  0  0  0  0  0  0
  -21.0759  -23.9989   22.0411 C   0  0  0  0  0  0  0  0  0  0  0  0
  -24.9331  -14.0907   21.7779 C   0  0  0  0  0  0  0  0  0  0  0  0
  -25.1326  -14.5195   19.4087 C   0  0  0  0  0  0  0  0  0  0  0  0
  -18.9726  -24.6113   23.0497 C   0  0  0  0  0  0  0  0  0  0  0  0
  -21.3310  -25.3417   21.7647 C   0  0  0  0  0  0  0  0  0  0  0  0
  -26.0763  -26.6923   22.9063 C   0  0  0  0  0  0  0  0  0  0  0  0
  -24.9575  -12.7180   21.5315 C   0  0  0  0  0  0  0  0  0  0  0  0
  -25.1571  -13.1468   19.1622 C   0  0  0  0  0  0  0  0  0  0  0  0
  -27.0766  -26.3247   22.0075 C   0  0  0  0  0  0  0  0  0  0  0  0
  -22.8048  -10.3407   20.4645 C   0  0  0  0  0  0  0  0  0  0  0  0
  -21.8727   -9.5465   21.1324 C   0  0  0  0  0  0  0  0  0  0  0  0
  -27.0576  -28.5532   21.0842 C   0  0  0  0  0  0  0  0  0  0  0  0
  -26.6401  -27.6261   15.5953 C   0  0  0  0  0  0  0  0  0  0  0  0
  -23.6702   -8.3044   22.1637 C   0  0  0  0  0  0  0  0  0  0  0  0
  -25.0206  -14.9915   20.7165 C   0  0  0  0  0  0  0  0  0  0  0  0
  -25.9015  -17.1498   21.7525 C   0  0  0  0  0  0  0  0  0  0  0  0
  -19.2210  -25.9676   22.7863 C   0  0  0  0  0  0  0  0  0  0  0  0
  -25.5505  -27.9922   22.8935 C   0  0  0  0  0  0  0  0  0  0  0  0
  -20.4088  -26.3380   22.1272 C   0  0  0  0  0  0  0  0  0  0  0  0
  -26.0525  -28.9356   21.9856 C   0  0  0  0  0  0  0  0  0  0  0  0
  -27.0116  -25.6738   16.9690 C   0  0  0  0  0  0  0  0  0  0  0  0
  -26.2170  -26.3845   16.0695 C   0  0  0  0  0  0  0  0  0  0  0  0
  -27.8579  -28.1570   16.0205 C   0  0  0  0  0  0  0  0  0  0  0  0
  -28.2294  -26.2046   17.3943 C   0  0  0  0  0  0  0  0  0  0  0  0
  -28.6525  -27.4463   16.9200 C   0  0  0  0  0  0  0  0  0  0  0  0
  -25.0695  -12.2461   20.2237 C   0  0  0  0  0  0  0  0  0  0  0  0
  -27.5655  -27.2543   21.0943 C   0  0  0  0  0  0  0  0  0  0  0  0
  -24.1695  -10.1168   20.6461 C   0  0  0  0  0  0  0  0  0  0  0  0
  -22.3054   -8.5284   21.9820 C   0  0  0  0  0  0  0  0  0  0  0  0
  -24.6022   -9.0987   21.4958 C   0  0  0  0  0  0  0  0  0  0  0  0
  -24.9949  -16.4096   20.9703 C   0  0  0  0  0  0  0  0  0  0  0  0
  -25.4441  -18.4426   21.6773 C   0  0  0  0  0  0  0  0  0  0  0  0
  -27.0542  -16.7081   22.4819 C   0  0  0  0  0  0  0  0  0  0  0  0
  -22.6776  -29.2448   22.3635 C   0  0  0  0  0  0  0  0  0  0  0  0
  -24.1439  -31.9986   23.2519 C   0  0  0  0  0  0  0  0  0  0  0  0
  -27.0488  -33.7604   23.5751 C   0  0  0  0  0  0  0  0  0  0  0  0
  -23.4326  -22.6974   18.6858 C   0  0  0  0  0  0  0  0  0  0  0  0
  -18.1707  -26.9837   23.1593 C   0  0  0  0  0  0  0  0  0  0  0  0
  -24.4905  -28.3807   23.8875 C   0  0  0  0  0  0  0  0  0  0  0  0
  -25.5359  -30.3498   21.9447 C   0  0  0  0  0  0  0  0  0  0  0  0
  -18.6880  -28.4199   23.1661 C   0  0  0  0  0  0  0  0  0  0  0  0
  -21.1171  -20.3231   19.9040 C   0  0  0  0  0  0  0  0  0  0  0  0
  -19.5032  -28.6997   21.9075 C   0  0  0  0  0  0  0  0  0  0  0  0
  -21.9806  -19.1372   20.3252 C   0  0  0  0  0  0  0  0  0  0  0  0
  -26.2717  -23.2428   16.4283 C   0  0  0  0  0  0  0  0  0  0  0  0
  -21.6671  -20.9708   18.6404 C   0  0  0  0  0  0  0  0  0  0  0  0
  -25.4656  -22.2101   17.2047 C   0  0  0  0  0  0  0  0  0  0  0  0
  -25.2160  -24.3566   18.2402 C   0  0  0  0  0  0  0  0  0  0  0  0
  -23.9753  -20.2712   19.2173 C   0  0  0  0  0  0  0  0  0  0  0  0
  -26.5503  -24.3273   17.4816 C   0  0  2  0  0  0  0  0  0  0  0  0
  -20.7328  -27.7866   21.8324 C   0  0  1  0  0  0  0  0  0  0  0  0
  -23.6666  -29.5850   23.4423 C   0  0  1  0  0  0  0  0  0  0  0  0
  -23.4480  -19.5646   20.4831 C   0  0  2  0  0  0  0  0  0  0  0  0
  -24.9085  -25.8388   15.5988 C   0  0  0  0  0  0  0  0  0  0  0  0
  -28.2884  -29.4881   15.4968 C   0  0  0  0  0  0  0  0  0  0  0  0
  -29.9578  -28.0184   17.3750 C   0  0  0  0  0  0  0  0  0  0  0  0
  -28.5662  -35.6487   24.2301 C   0  0  0  0  0  0  0  0  0  0  0  0
  -23.1468  -33.2247   20.6419 C   0  0  0  0  0  0  0  0  0  0  0  0
  -24.8026  -35.0755   20.9600 C   0  0  0  0  0  0  0  0  0  0  0  0
  -22.9833  -34.7310   22.6315 C   0  0  0  0  0  0  0  0  0  0  0  0
  -27.5180  -32.6058   26.2594 C   0  0  0  0  0  0  0  0  0  0  0  0
  -29.0820  -25.4419   18.3588 C   0  0  0  0  0  0  0  0  0  0  0  0
  -28.5755  -25.5342   19.7994 C   0  0  0  0  0  0  0  0  0  1  0  0
  -24.9015  -33.0872   22.5309 C   0  0  1  0  0  0  0  0  0  0  0  0
  -27.6097  -34.5755   24.7263 C   0  0  2  0  0  0  0  0  0  0  0  0
  -23.9671  -34.0025   21.6903 C   0  0  0  0  0  0  0  0  0  0  0  0
  -24.0340  -17.1690   20.4374 N   0  0  0  0  0  0  0  0  0  0  0  0
  -24.3343  -18.3999   20.8857 N   0  0  0  0  0  0  0  0  0  0  0  0
  -24.4951  -30.6793   22.9324 N   0  0  0  0  0  0  0  0  0  0  0  0
  -23.0734  -21.3491   18.7908 N   0  0  0  0  0  0  0  0  0  0  0  0
  -24.6872  -22.9989   18.1574 N   0  0  0  0  0  0  0  0  0  0  0  0
  -25.8869  -19.6005   22.2118 N   0  0  0  0  0  0  0  0  0  0  0  0
  -28.2935  -16.6930   21.8275 N   0  0  0  0  0  0  0  0  0  0  0  0
  -21.7718  -28.2639   22.7196 N   0  0  0  0  0  0  0  0  0  0  0  0
  -25.6705  -33.7931   23.5500 N   0  0  0  0  0  0  0  0  0  0  0  0
  -28.3451  -33.6932   25.6758 N   0  3  0  0  0  0  0  0  0  0  0  0
  -26.9844  -16.3223   23.6734 O   0  0  0  0  0  0  0  0  0  0  0  0
  -22.7313  -29.8301   21.2882 O   0  0  0  0  0  0  0  0  0  0  0  0
  -23.2774  -32.3074   24.0739 O   0  0  0  0  0  0  0  0  0  0  0  0
  -27.7620  -33.1581   22.7757 O   0  0  0  0  0  0  0  0  0  0  0  0
  -22.6485  -23.5988   19.0122 O   0  0  0  0  0  0  0  0  0  0  0  0
  -25.0936  -10.9067   19.9829 O   0  0  0  0  0  0  0  0  0  0  0  0
  -28.5483  -26.8955   20.2093 O   0  0  0  0  0  0  0  0  0  1  0  0
  -21.4103   -7.7667   22.6246 F   0  0  0  0  0  0  0  0  0  0  0  0
  -25.9121   -8.8795   21.6752 F   0  0  0  0  0  0  0  0  0  0  0  0
  1  2  1  0  0  0  0
  1  5  2  0  0  0  0
  2  6  2  0  0  0  0
  3  8  2  0  0  0  0
  3 16  1  0  0  0  0
  4  9  1  0  0  0  0
  4 16  2  0  0  0  0
  5 18  1  0  0  0  0
  6 20  1  0  0  0  0
  7 10  2  0  0  0  0
  7 19  1  0  0  0  0
  8 27  1  0  0  0  0
  9 27  2  0  0  0  0
 10 28  1  0  0  0  0
 11 12  2  0  0  0  0
 11 29  1  0  0  0  0
 12 30  1  0  0  0  0
 13 21  1  0  0  0  0
 13 28  2  0  0  0  0
 14 23  2  0  0  0  0
 14 24  1  0  0  0  0
 15 30  2  0  0  0  0
 15 31  1  0  0  0  0
 16 32  1  0  0  0  0
 17 32  1  0  0  0  0
 17 33  2  0  0  0  0
 17 34  1  0  0  0  0
 18 20  2  0  0  0  0
 18 39  1  0  0  0  0
 19 21  2  0  0  0  0
 19 40  1  0  0  0  0
 20 52  1  0  0  0  0
 21 41  1  0  0  0  0
 22 23  1  0  0  0  0
 22 25  2  0  0  0  0
 22 51  1  0  0  0  0
 23 55  1  0  0  0  0
 24 26  2  0  0  0  0
 24 56  1  0  0  0  0
 25 26  1  0  0  0  0
 25 63  1  0  0  0  0
 26 57  1  0  0  0  0
 27 83  1  0  0  0  0
 28 84  1  0  0  0  0
 29 31  2  0  0  0  0
 29 83  1  0  0  0  0
 30 85  1  0  0  0  0
 31 86  1  0  0  0  0
 32 68  2  0  0  0  0
 33 69  1  0  0  0  0
 33 73  1  0  0  0  0
 34 74  1  0  0  0  0
 34 78  2  0  0  0  0
 35 53  1  0  0  0  0
 35 75  1  0  0  0  0
 35 79  2  0  0  0  0
 36 65  1  0  0  0  0
 36 70  1  0  0  0  0
 36 80  2  0  0  0  0
 37 66  1  0  0  0  0
 37 76  1  0  0  0  0
 37 81  2  0  0  0  0
 38 71  1  0  0  0  0
 38 72  1  0  0  0  0
 38 82  2  0  0  0  0
 39 42  1  0  0  0  0
 40 53  1  0  0  0  0
 41 70  1  0  0  0  0
 42 44  1  0  0  0  0
 43 45  1  0  0  0  0
 43 47  1  0  0  0  0
 44 52  1  0  0  0  0
 45 54  1  0  0  0  0
 46 48  1  0  0  0  0
 46 51  1  0  0  0  0
 47 71  1  0  0  0  0
 48 72  1  0  0  0  0
 49 51  1  0  0  0  0
 49 72  1  0  0  0  0
 50 54  1  0  0  0  0
 50 71  1  0  0  0  0
 52 75  1  0  0  0  0
 53 70  1  0  0  0  0
 54 69  1  0  0  0  0
 58 66  1  0  0  0  0
 59 67  1  0  0  0  0
 60 67  1  0  0  0  0
 61 67  1  0  0  0  0
 62 77  1  0  0  0  0
 63 64  1  0  0  0  0
 64 84  1  0  0  0  0
 65 67  1  0  0  0  0
 65 76  1  0  0  0  0
 66 77  1  0  0  0  0
 68 69  1  0  0  0  0
M  CHG  1  77   1
M  ISO  4  38 100  64 101  72 100  84 101
M  END
> <Batch ID>
0162

> <Smiles>
CNC(C)C(=O)NC(C(=O)N1Cc2cc([101O:1][101CH2:1]Cc3c(C)c(C)cc(C)c3C3CC[100N:0]([100C:0](=O)N4CCCC(n5nc(-c6ccc(Oc7ccc(F)cc7F)cc6)c(C(N)=O)c5N)C4)C3)ccc2CC1C(=O)NC1CCCc2ccccc21)C(C)(C)C

> <Shape>
0.219

> <Color>
0.104

> <Negative vol penalty>
0.000

$$$$

  -OEChem-04052322143D

 92101  0     1  0  0  0  0  0999 V2000
  -43.0685  -22.0511   29.5932 C   0  0  0  0  0  0  0  0  0  0  0  0
  -41.7413  -22.3585   29.8753 C   0  0  0  0  0  0  0  0  0  0  0  0
  -22.6478  -10.2866   20.2001 C   0  0  0  0  0  0  0  0  0  0  0  0
  -24.2137   -9.5379   21.8807 C   0  0  0  0  0  0  0  0  0  0  0  0
  -43.4270  -21.6217   28.3161 C   0  0  0  0  0  0  0  0  0  0  0  0
  -40.7721  -22.2377   28.8802 C   0  0  0  0  0  0  0  0  0  0  0  0
  -33.8586  -20.5852   27.9917 C   0  0  0  0  0  0  0  0  0  0  0  0
  -21.8759   -9.1440   20.4103 C   0  0  0  0  0  0  0  0  0  0  0  0
  -23.4418   -8.3952   22.0909 C   0  0  0  0  0  0  0  0  0  0  0  0
  -32.6966  -21.0903   27.4101 C   0  0  0  0  0  0  0  0  0  0  0  0
  -22.0753   -5.1062   22.8155 C   0  0  0  0  0  0  0  0  0  0  0  0
  -22.7396   -3.8832   22.9091 C   0  0  0  0  0  0  0  0  0  0  0  0
  -33.4192  -20.2633   25.2623 C   0  0  0  0  0  0  0  0  0  0  0  0
  -27.0626  -17.1519   27.2732 C   0  0  0  0  0  0  0  0  0  0  0  0
  -23.6117   -4.1860   20.6764 C   0  0  0  0  0  0  0  0  0  0  0  0
  -23.8167  -10.4835   20.9353 C   0  0  0  0  0  0  0  0  0  0  0  0
  -24.2139  -13.0029   20.8824 C   0  0  0  0  0  0  0  0  0  0  0  0
  -42.4601  -21.4863   27.3074 C   0  0  0  0  0  0  0  0  0  0  0  0
  -34.8164  -19.9237   27.2097 C   0  0  0  0  0  0  0  0  0  0  0  0
  -41.1182  -21.8074   27.5880 C   0  0  0  0  0  0  0  0  0  0  0  0
  -34.5913  -19.7484   25.8368 C   0  0  0  0  0  0  0  0  0  0  0  0
  -25.7969  -16.5684   27.2203 C   0  0  0  0  0  0  0  0  0  0  0  0
  -27.6161  -17.7223   26.1269 C   0  0  0  0  0  0  0  0  0  0  0  0
  -25.0846  -16.5551   26.0211 C   0  0  0  0  0  0  0  0  0  0  0  0
  -25.6381  -17.1254   24.8748 C   0  0  0  0  0  0  0  0  0  0  0  0
  -26.9039  -17.7090   24.9277 C   0  0  0  0  0  0  0  0  0  0  0  0
  -22.2728   -8.1983   21.3556 C   0  0  0  0  0  0  0  0  0  0  0  0
  -32.4781  -20.9320   26.0447 C   0  0  0  0  0  0  0  0  0  0  0  0
  -22.1792   -5.8690   21.6523 C   0  0  0  0  0  0  0  0  0  0  0  0
  -23.5078   -3.4231   21.8397 C   0  0  0  0  0  0  0  0  0  0  0  0
  -22.9474   -5.4089   20.5828 C   0  0  0  0  0  0  0  0  0  0  0  0
  -24.6148  -11.6634   20.7183 C   0  0  0  0  0  0  0  0  0  0  0  0
  -25.3272  -13.7371   20.5538 C   0  0  0  0  0  0  0  0  0  0  0  0
  -22.9484  -13.5357   21.2949 C   0  0  0  0  0  0  0  0  0  0  0  0
  -37.8665  -20.4448   26.4823 C   0  0  0  0  0  0  0  0  0  0  0  0
  -37.6167  -17.5436   25.0530 C   0  0  0  0  0  0  0  0  0  0  0  0
  -35.6109  -15.1807   23.6246 C   0  0  0  0  0  0  0  0  0  0  0  0
  -30.7114  -14.7192   20.6847 C   0  0  0  0  0  0  0  0  0  0  0  0
  -42.9032  -21.0639   25.9290 C   0  0  0  0  0  0  0  0  0  0  0  0
  -36.0521  -19.3611   27.8569 C   0  0  0  0  0  0  0  0  0  0  0  0
  -35.5790  -19.0282   24.9569 C   0  0  0  0  0  0  0  0  0  0  0  0
  -41.7550  -20.6034   25.0346 C   0  0  0  0  0  0  0  0  0  0  0  0
  -29.6747  -12.3567   18.3829 C   0  0  0  0  0  0  0  0  0  0  0  0
  -40.5894  -21.5841   25.1149 C   0  0  0  0  0  0  0  0  0  0  0  0
  -28.2293  -12.0665   18.7869 C   0  0  0  0  0  0  0  0  0  0  0  0
  -29.1259  -17.8783   21.7951 C   0  0  0  0  0  0  0  0  0  0  0  0
  -28.5960  -16.0668   23.4644 C   0  0  0  0  0  0  0  0  0  0  0  0
  -30.5680  -12.4922   19.6108 C   0  0  0  0  0  0  0  0  0  0  0  0
  -30.3347  -17.0707   21.3304 C   0  0  0  0  0  0  0  0  0  0  0  0
  -29.8170  -15.2966   22.9725 C   0  0  0  0  0  0  0  0  0  0  0  0
  -28.6644  -13.2560   20.9924 C   0  0  0  0  0  0  0  0  0  0  0  0
  -40.0340  -21.6652   26.5419 C   0  0  1  0  0  0  0  0  0  0  0  0
  -37.2008  -19.1560   26.8742 C   0  0  1  0  0  0  0  0  0  0  0  0
  -28.7702  -17.5773   23.2568 C   0  0  0  0  0  0  0  0  0  0  0  0
  -27.7135  -13.1167   19.7866 C   0  0  2  0  0  0  0  0  0  0  0  0
  -25.2273  -15.9640   28.4620 C   0  0  0  0  0  0  0  0  0  0  0  0
  -28.9729  -18.3416   26.2107 C   0  0  0  0  0  0  0  0  0  0  0  0
  -23.7270  -15.9287   25.9672 C   0  0  0  0  0  0  0  0  0  0  0  0
  -24.8737  -17.1117   23.5885 C   0  0  0  0  0  0  0  0  0  0  0  0
  -35.6991  -12.9320   22.5142 C   0  0  0  0  0  0  0  0  0  0  0  0
  -27.9854  -20.5952   22.5302 C   0  0  0  0  0  0  0  0  0  0  0  0
  -38.6837  -18.8450   22.5079 C   0  0  0  0  0  0  0  0  0  0  0  0
  -37.8641  -16.8543   21.2296 C   0  0  0  0  0  0  0  0  0  0  0  0
  -39.6128  -16.5729   22.9862 C   0  0  0  0  0  0  0  0  0  0  0  0
  -33.9012  -13.9563   25.7071 C   0  0  0  0  0  0  0  0  0  0  0  0
  -28.9374  -21.3843   25.4262 C   0  0  0  0  0  0  0  0  0  0  0  0
  -30.1781  -21.4844   26.2916 C   0  0  0  0  0  0  0  0  0  1  0  0
  -27.5113  -18.3322   23.6769 C   0  0  2  0  0  0  0  0  0  0  0  0
  -37.2298  -17.0598   23.6764 C   0  0  1  0  0  0  0  0  0  0  0  0
  -35.5221  -13.6788   23.8270 C   0  0  2  0  0  0  0  0  0  0  0  0
  -27.7429  -19.8609   23.8479 C   0  0  1  0  0  0  0  0  0  0  0  0
  -38.3297  -17.3483   22.6160 C   0  0  0  0  0  0  0  0  0  0  0  0
  -25.8836  -11.5504   20.3167 N   0  0  0  0  0  0  0  0  0  0  0  0
  -26.2896  -12.8282   20.2255 N   0  0  0  0  0  0  0  0  0  0  0  0
  -36.7748  -18.5016   25.6354 N   0  0  0  0  0  0  0  0  0  0  0  0
  -30.0421  -13.4950   20.5369 N   0  0  0  0  0  0  0  0  0  0  0  0
  -30.1540  -15.6422   21.5850 N   0  0  0  0  0  0  0  0  0  0  0  0
  -25.5670  -15.0651   20.5166 N   0  0  0  0  0  0  0  0  0  0  0  0
  -22.7276  -13.7506   22.6621 N   0  0  0  0  0  0  0  0  0  0  0  0
  -39.2028  -20.5152   26.8269 N   0  0  0  0  0  0  0  0  0  0  0  0
  -36.8937  -15.6474   23.8196 N   0  0  0  0  0  0  0  0  0  0  0  0
  -34.1973  -13.3111   24.4020 N   0  3  0  0  0  0  0  0  0  0  0  0
  -28.9489  -20.0897   24.7017 N   0  3  0  0  0  0  0  0  0  0  0  0
  -22.0343  -13.7978   20.4768 O   0  0  0  0  0  0  0  0  0  0  0  0
  -37.2163  -21.3106   25.9085 O   0  0  0  0  0  0  0  0  0  0  0  0
  -38.6247  -17.0830   25.5947 O   0  0  0  0  0  0  0  0  0  0  0  0
  -34.6402  -15.8703   23.3200 O   0  0  0  0  0  0  0  0  0  0  0  0
  -31.7414  -14.9764   20.0491 O   0  0  0  0  0  0  0  0  0  0  0  0
  -21.5197   -7.0833   21.5611 O   0  0  0  0  0  0  0  0  0  0  0  0
  -31.3369  -21.4283   25.4703 O   0  0  0  0  0  0  0  0  0  1  0  0
  -24.1468   -2.2495   21.9303 F   0  0  0  0  0  0  0  0  0  0  0  0
  -23.0519   -6.1379   19.4632 F   0  0  0  0  0  0  0  0  0  0  0  0
  1  2  1  0  0  0  0
  1  5  2  0  0  0  0
  2  6  2  0  0  0  0
  3  8  2  0  0  0  0
  3 16  1  0  0  0  0
  4  9  1  0  0  0  0
  4 16  2  0  0  0  0
  5 18  1  0  0  0  0
  6 20  1  0  0  0  0
  7 10  2  0  0  0  0
  7 19  1  0  0  0  0
  8 27  1  0  0  0  0
  9 27  2  0  0  0  0
 10 28  1  0  0  0  0
 11 12  2  0  0  0  0
 11 29  1  0  0  0  0
 12 30  1  0  0  0  0
 13 21  1  0  0  0  0
 13 28  2  0  0  0  0
 14 22  1  0  0  0  0
 14 23  2  0  0  0  0
 15 30  2  0  0  0  0
 15 31  1  0  0  0  0
 16 32  1  0  0  0  0
 17 32  1  0  0  0  0
 17 33  2  0  0  0  0
 17 34  1  0  0  0  0
 18 20  2  0  0  0  0
 18 39  1  0  0  0  0
 19 21  2  0  0  0  0
 19 40  1  0  0  0  0
 20 52  1  0  0  0  0
 21 41  1  0  0  0  0
 22 24  2  0  0  0  0
 22 56  1  0  0  0  0
 23 26  1  0  0  0  0
 23 57  1  0  0  0  0
 24 25  1  0  0  0  0
 24 58  1  0  0  0  0
 25 26  2  0  0  0  0
 25 59  1  0  0  0  0
 26 68  1  0  0  0  0
 27 89  1  0  0  0  0
 28 90  1  0  0  0  0
 29 31  2  0  0  0  0
 29 89  1  0  0  0  0
 30 91  1  0  0  0  0
 31 92  1  0  0  0  0
 32 73  2  0  0  0  0
 33 74  1  0  0  0  0
 33 78  1  0  0  0  0
 34 79  1  0  0  0  0
 34 84  2  0  0  0  0
 35 53  1  0  0  0  0
 35 80  1  0  0  0  0
 35 85  2  0  0  0  0
 36 69  1  0  0  0  0
 36 75  1  0  0  0  0
 36 86  2  0  0  0  0
 37 70  1  0  0  0  0
 37 81  1  0  0  0  0
 37 87  2  0  0  0  0
 38 76  1  0  0  0  0
 38 77  1  0  0  0  0
 38 88  2  0  0  0  0
 39 42  1  0  0  0  0
 40 53  1  0  0  0  0
 41 75  1  0  0  0  0
 42 44  1  0  0  0  0
 43 45  1  0  0  0  0
 43 48  1  0  0  0  0
 44 52  1  0  0  0  0
 45 55  1  0  0  0  0
 46 49  1  0  0  0  0
 46 54  1  0  0  0  0
 47 50  1  0  0  0  0
 47 54  1  0  0  0  0
 48 76  1  0  0  0  0
 49 77  1  0  0  0  0
 50 77  1  0  0  0  0
 51 55  1  0  0  0  0
 51 76  1  0  0  0  0
 52 80  1  0  0  0  0
 53 75  1  0  0  0  0
 54 68  1  0  0  0  0
 55 74  1  0  0  0  0
 60 70  1  0  0  0  0
 61 71  1  0  0  0  0
 62 72  1  0  0  0  0
 63 72  1  0  0  0  0
 64 72  1  0  0  0  0
 65 82  1  0  0  0  0
 66 67  1  0  0  0  0
 66 83  1  0  0  0  0
 67 90  1  0  0  0  0
 68 71  1  0  0  0  0
 69 72  1  0  0  0  0
 69 81  1  0  0  0  0
 70 82  1  0  0  0  0
 71 83  1  0  0  0  0
 73 74  1  0  0  0  0
M  CHG  2  82   1  83   1
M  ISO  4  38 100  67 101  77 100  90 101
M  END
> <Batch ID>
0162

> <Smiles>
CNC(C)C(=O)NC(C(=O)N1Cc2cc([101O:1][101CH2:1]CNC(C)C(c3c(C)cc(C)c(C)c3C)C3CC[100N:0]([100C:0](=O)N4CCCC(n5nc(-c6ccc(Oc7ccc(F)cc7F)cc6)c(C(N)=O)c5N)C4)CC3)ccc2CC1C(=O)NC1CCCc2ccccc21)C(C)(C)C

> <Shape>
0.163

> <Color>
0.172

> <Negative vol penalty>
0.000

$$$$

  -OEChem-04052322143D

 85 94  0     1  0  0  0  0  0999 V2000
  -26.6632  -34.7178   26.7818 C   0  0  0  0  0  0  0  0  0  0  0  0
  -27.2163  -33.6409   26.0964 C   0  0  0  0  0  0  0  0  0  0  0  0
  -24.7116  -11.1730   20.4383 C   0  0  0  0  0  0  0  0  0  0  0  0
  -24.7278  -10.8296   22.8297 C   0  0  0  0  0  0  0  0  0  0  0  0
  -25.2843  -34.7849   26.9764 C   0  0  0  0  0  0  0  0  0  0  0  0
  -26.3907  -32.6298   25.6061 C   0  0  0  0  0  0  0  0  0  0  0  0
  -27.1649  -29.4226   20.4466 C   0  0  0  0  0  0  0  0  0  0  0  0
  -24.5629   -9.8001   20.2421 C   0  0  0  0  0  0  0  0  0  0  0  0
  -24.5790   -9.4566   22.6335 C   0  0  0  0  0  0  0  0  0  0  0  0
  -27.6993  -28.1589   20.1989 C   0  0  0  0  0  0  0  0  0  0  0  0
  -23.8412   -5.8992   22.7706 C   0  0  0  0  0  0  0  0  0  0  0  0
  -22.9108   -5.2272   23.5632 C   0  0  0  0  0  0  0  0  0  0  0  0
  -25.4779  -27.2191   20.2348 C   0  0  0  0  0  0  0  0  0  0  0  0
  -21.1501   -6.6295   22.6851 C   0  0  0  0  0  0  0  0  0  0  0  0
  -24.7942  -11.6878   21.7321 C   0  0  0  0  0  0  0  0  0  0  0  0
  -23.9238  -14.0604   22.0796 C   0  0  0  0  0  0  0  0  0  0  0  0
  -24.4404  -33.7789   26.4798 C   0  0  0  0  0  0  0  0  0  0  0  0
  -25.7816  -29.5925   20.6013 C   0  0  0  0  0  0  0  0  0  0  0  0
  -24.9992  -32.6827   25.7953 C   0  0  0  0  0  0  0  0  0  0  0  0
  -24.9282  -28.4863   20.4818 C   0  0  0  0  0  0  0  0  0  0  0  0
  -29.8973  -21.6575   18.8755 C   0  0  0  0  0  0  0  0  0  0  0  0
  -29.4938  -22.0217   20.1736 C   0  0  0  0  0  0  0  0  0  0  0  0
  -29.9088  -22.6243   17.8603 C   0  0  0  0  0  0  0  0  0  0  0  0
  -29.1450  -23.3530   20.4402 C   0  0  0  0  0  0  0  0  0  0  0  0
  -29.5493  -23.9434   18.1352 C   0  0  0  0  0  0  0  0  0  0  0  0
  -29.1700  -24.3079   19.4244 C   0  0  0  0  0  0  0  0  0  0  0  0
  -24.4965   -8.9419   21.3396 C   0  0  0  0  0  0  0  0  0  0  0  0
  -26.8560  -27.0564   20.0959 C   0  0  0  0  0  0  0  0  0  0  0  0
  -23.4262   -6.9365   21.9354 C   0  0  0  0  0  0  0  0  0  0  0  0
  -21.5652   -5.5923   23.5204 C   0  0  0  0  0  0  0  0  0  0  0  0
  -22.0807   -7.3015   21.8926 C   0  0  0  0  0  0  0  0  0  0  0  0
  -24.9484  -13.1059   21.9354 C   0  0  0  0  0  0  0  0  0  0  0  0
  -24.5858  -15.2521   22.2471 C   0  0  0  0  0  0  0  0  0  0  0  0
  -22.5008  -13.8855   22.0636 C   0  0  0  0  0  0  0  0  0  0  0  0
  -23.8940  -30.5949   22.9542 C   0  0  0  0  0  0  0  0  0  0  0  0
  -21.5865  -30.3352   20.6892 C   0  0  0  0  0  0  0  0  0  0  0  0
  -20.5362  -28.9052   17.7740 C   0  0  0  0  0  0  0  0  0  0  0  0
  -28.3906  -18.8237   20.9776 C   0  0  0  0  0  0  0  0  0  0  0  0
  -22.9606  -33.8710   26.7560 C   0  0  0  0  0  0  0  0  0  0  0  0
  -25.2185  -30.9665   20.8415 C   0  0  0  0  0  0  0  0  0  0  0  0
  -30.2586  -20.2289   18.5430 C   0  0  0  0  0  0  0  0  0  0  0  0
  -23.4342  -28.6187   20.6197 C   0  0  0  0  0  0  0  0  0  0  0  0
  -29.4922  -21.0158   21.2967 C   0  0  0  0  0  0  0  0  0  0  0  0
  -22.1187  -32.9478   25.8789 C   0  0  0  0  0  0  0  0  0  0  0  0
  -29.4696  -16.2293   23.0889 C   0  0  0  0  0  0  0  0  0  0  0  0
  -22.7276  -31.5498   25.8368 C   0  0  0  0  0  0  0  0  0  0  0  0
  -28.3001  -15.2503   22.9896 C   0  0  0  0  0  0  0  0  0  0  0  0
  -29.8033  -16.8627   21.7372 C   0  0  0  0  0  0  0  0  0  0  0  0
  -27.4768  -16.5214   20.9717 C   0  0  0  0  0  0  0  0  0  0  0  0
  -24.1342  -31.5788   25.2269 C   0  0  1  0  0  0  0  0  0  0  0  0
  -23.8394  -30.9415   21.4932 C   0  0  1  0  0  0  0  0  0  0  0  0
  -27.0802  -15.9134   22.3259 C   0  0  1  0  0  0  0  0  0  0  0  0
  -30.5585  -19.3590   19.7801 C   0  0  1  0  0  0  0  0  0  0  0  0
  -30.2961  -22.2540   16.4611 C   0  0  0  0  0  0  0  0  0  0  0  0
  -28.7492  -23.7735   21.8224 C   0  0  0  0  0  0  0  0  0  0  0  0
  -29.5687  -24.9690   17.0450 C   0  0  0  0  0  0  0  0  0  0  0  0
  -31.9857  -19.5807   20.2929 C   0  0  0  0  0  0  0  0  0  0  0  0
  -18.5897  -28.8613   16.1907 C   0  0  0  0  0  0  0  0  0  0  0  0
  -20.0353  -28.5847   22.6486 C   0  0  0  0  0  0  0  0  0  0  0  0
  -18.6195  -27.8154   20.7324 C   0  0  0  0  0  0  0  0  0  0  0  0
  -18.6356  -30.2242   21.3807 C   0  0  0  0  0  0  0  0  0  0  0  0
  -22.1856  -29.9173   15.5348 C   0  0  0  0  0  0  0  0  0  0  0  0
  -28.7904  -25.7256   19.7180 C   0  0  0  0  0  0  0  0  0  1  0  0
  -20.6585  -29.2369   20.2294 C   0  0  1  0  0  0  0  0  0  0  0  0
  -19.9274  -29.5055   16.5196 C   0  0  2  0  0  0  0  0  0  0  0  0
  -19.5155  -28.9622   21.2471 C   0  0  0  0  0  0  0  0  0  0  0  0
  -26.1686  -13.6447   22.0050 N   0  0  0  0  0  0  0  0  0  0  0  0
  -25.9149  -14.9507   22.1948 N   0  0  0  0  0  0  0  0  0  0  0  0
  -22.9325  -29.9818   20.8603 N   0  0  0  0  0  0  0  0  0  0  0  0
  -29.5334  -19.6318   20.8124 N   0  0  0  0  0  0  0  0  0  0  0  0
  -28.6033  -17.4446   21.1233 N   0  0  0  0  0  0  0  0  0  0  0  0
  -24.1548  -16.5179   22.4326 N   0  0  0  0  0  0  0  0  0  0  0  0
  -21.9884  -12.5938   21.8808 N   0  0  0  0  0  0  0  0  0  0  0  0
  -24.0580  -31.6863   23.7856 N   0  0  0  0  0  0  0  0  0  0  0  0
  -20.1956  -29.6230   18.9009 N   0  0  0  0  0  0  0  0  0  0  0  0
  -20.8403  -29.3127   15.3575 N   0  3  0  0  0  0  0  0  0  0  0  0
  -21.7071  -14.8485   22.1908 O   0  0  0  0  0  0  0  0  0  0  0  0
  -23.7933  -29.4240   23.3015 O   0  0  0  0  0  0  0  0  0  0  0  0
  -21.1352  -31.4669   20.8822 O   0  0  0  0  0  0  0  0  0  0  0  0
  -21.2401  -27.8978   17.7564 O   0  0  0  0  0  0  0  0  0  0  0  0
  -27.2501  -19.3036   20.9866 O   0  0  0  0  0  0  0  0  0  0  0  0
  -24.3511   -7.6022   21.1486 O   0  0  0  0  0  0  0  0  0  0  0  0
  -27.3789  -25.8126   19.8530 O   0  0  0  0  0  0  0  0  0  1  0  0
  -20.6715   -4.9458   24.2803 F   0  0  0  0  0  0  0  0  0  0  0  0
  -21.6758   -8.2964   21.0912 F   0  0  0  0  0  0  0  0  0  0  0  0
  1  2  1  0  0  0  0
  1  5  2  0  0  0  0
  2  6  2  0  0  0  0
  3  8  2  0  0  0  0
  3 15  1  0  0  0  0
  4  9  1  0  0  0  0
  4 15  2  0  0  0  0
  5 17  1  0  0  0  0
  6 19  1  0  0  0  0
  7 10  2  0  0  0  0
  7 18  1  0  0  0  0
  8 27  1  0  0  0  0
  9 27  2  0  0  0  0
 10 28  1  0  0  0  0
 11 12  2  0  0  0  0
 11 29  1  0  0  0  0
 12 30  1  0  0  0  0
 13 20  1  0  0  0  0
 13 28  2  0  0  0  0
 14 30  2  0  0  0  0
 14 31  1  0  0  0  0
 15 32  1  0  0  0  0
 16 32  1  0  0  0  0
 16 33  2  0  0  0  0
 16 34  1  0  0  0  0
 17 19  2  0  0  0  0
 17 39  1  0  0  0  0
 18 20  2  0  0  0  0
 18 40  1  0  0  0  0
 19 50  1  0  0  0  0
 20 42  1  0  0  0  0
 21 22  2  0  0  0  0
 21 23  1  0  0  0  0
 21 41  1  0  0  0  0
 22 24  1  0  0  0  0
 22 43  1  0  0  0  0
 23 25  2  0  0  0  0
 23 54  1  0  0  0  0
 24 26  2  0  0  0  0
 24 55  1  0  0  0  0
 25 26  1  0  0  0  0
 25 56  1  0  0  0  0
 26 63  1  0  0  0  0
 27 82  1  0  0  0  0
 28 83  1  0  0  0  0
 29 31  2  0  0  0  0
 29 82  1  0  0  0  0
 30 84  1  0  0  0  0
 31 85  1  0  0  0  0
 32 67  2  0  0  0  0
 33 68  1  0  0  0  0
 33 72  1  0  0  0  0
 34 73  1  0  0  0  0
 34 77  2  0  0  0  0
 35 51  1  0  0  0  0
 35 74  1  0  0  0  0
 35 78  2  0  0  0  0
 36 64  1  0  0  0  0
 36 69  1  0  0  0  0
 36 79  2  0  0  0  0
 37 65  1  0  0  0  0
 37 75  1  0  0  0  0
 37 80  2  0  0  0  0
 38 70  1  0  0  0  0
 38 71  1  0  0  0  0
 38 81  2  0  0  0  0
 39 44  1  0  0  0  0
 40 51  1  0  0  0  0
 41 53  1  0  0  0  0
 42 69  1  0  0  0  0
 43 70  1  0  0  0  0
 44 46  1  0  0  0  0
 45 47  1  0  0  0  0
 45 48  1  0  0  0  0
 46 50  1  0  0  0  0
 47 52  1  0  0  0  0
 48 71  1  0  0  0  0
 49 52  1  0  0  0  0
 49 71  1  0  0  0  0
 50 74  1  0  0  0  0
 51 69  1  0  0  0  0
 52 68  1  0  0  0  0
 53 57  1  0  0  0  0
 53 70  1  0  0  0  0
 58 65  1  0  0  0  0
 59 66  1  0  0  0  0
 60 66  1  0  0  0  0
 61 66  1  0  0  0  0
 62 76  1  0  0  0  0
 63 83  1  0  0  0  0
 64 66  1  0  0  0  0
 64 75  1  0  0  0  0
 65 76  1  0  0  0  0
 67 68  1  0  0  0  0
M  CHG  1  76   1
M  ISO  4  38 100  63 101  70 100  83 101
M  END
> <Batch ID>
0162

> <Smiles>
CNC(C)C(=O)NC(C(=O)N1Cc2cc([101O:1][101CH2:1]c3c(C)c(C)c4c(c3C)C[100N:0]([100C:0](=O)N3CCCC(n5nc(-c6ccc(Oc7ccc(F)cc7F)cc6)c(C(N)=O)c5N)C3)C(C)C4)ccc2CC1C(=O)NC1CCCc2ccccc21)C(C)(C)C

> <Shape>
0.306

> <Color>
0.069

> <Negative vol penalty>
0.000

$$$$

  -OEChem-04052322143D

 89 99  0     1  0  0  0  0  0999 V2000
  -19.4253  -33.9158   20.7908 C   0  0  0  0  0  0  0  0  0  0  0  0
  -20.6882  -33.4605   20.4259 C   0  0  0  0  0  0  0  0  0  0  0  0
  -22.0120  -14.4330   21.1286 C   0  0  0  0  0  0  0  0  0  0  0  0
  -21.9686  -12.9417   19.2283 C   0  0  0  0  0  0  0  0  0  0  0  0
  -18.7991  -33.3976   21.9236 C   0  0  0  0  0  0  0  0  0  0  0  0
  -21.3262  -32.4874   21.1943 C   0  0  0  0  0  0  0  0  0  0  0  0
  -29.8198  -23.7260   18.4896 C   0  0  0  0  0  0  0  0  0  0  0  0
  -29.4826  -22.4465   18.9309 C   0  0  0  0  0  0  0  0  0  0  0  0
  -25.0103  -28.0319   19.1741 C   0  0  0  0  0  0  0  0  0  0  0  0
  -20.6598  -14.7166   20.9370 C   0  0  0  0  0  0  0  0  0  0  0  0
  -20.6163  -13.2252   19.0367 C   0  0  0  0  0  0  0  0  0  0  0  0
  -26.3985  -27.9150   19.1201 C   0  0  0  0  0  0  0  0  0  0  0  0
  -17.6628  -12.3023   20.3952 C   0  0  0  0  0  0  0  0  0  0  0  0
  -16.8063  -11.2299   20.1461 C   0  0  0  0  0  0  0  0  0  0  0  0
  -29.7089  -24.5389   20.7621 C   0  0  0  0  0  0  0  0  0  0  0  0
  -26.3711  -26.6988   21.2032 C   0  0  0  0  0  0  0  0  0  0  0  0
  -16.2065  -12.2034   18.0178 C   0  0  0  0  0  0  0  0  0  0  0  0
  -22.6664  -13.5456   20.2742 C   0  0  0  0  0  0  0  0  0  0  0  0
  -24.6135  -12.2272   21.2632 C   0  0  0  0  0  0  0  0  0  0  0  0
  -29.9330  -24.7722   19.4052 C   0  0  0  0  0  0  0  0  0  0  0  0
  -19.4257  -32.4108   22.7009 C   0  0  0  0  0  0  0  0  0  0  0  0
  -24.2918  -27.4917   20.2504 C   0  0  0  0  0  0  0  0  0  0  0  0
  -20.7084  -31.9565   22.3394 C   0  0  0  0  0  0  0  0  0  0  0  0
  -29.2585  -22.2131   20.2877 C   0  0  0  0  0  0  0  0  0  0  0  0
  -24.9735  -26.8080   21.2672 C   0  0  0  0  0  0  0  0  0  0  0  0
  -29.3716  -23.2594   21.2033 C   0  0  0  0  0  0  0  0  0  0  0  0
  -19.9619  -14.1126   19.8911 C   0  0  0  0  0  0  0  0  0  0  0  0
  -27.0794  -27.2509   20.1362 C   0  0  0  0  0  0  0  0  0  0  0  0
  -17.7910  -13.3253   19.4556 C   0  0  0  0  0  0  0  0  0  0  0  0
  -16.0782  -11.1804   18.9574 C   0  0  0  0  0  0  0  0  0  0  0  0
  -17.0629  -13.2758   18.2669 C   0  0  0  0  0  0  0  0  0  0  0  0
  -24.0634  -13.2528   20.4712 C   0  0  0  0  0  0  0  0  0  0  0  0
  -25.9716  -12.3719   21.1176 C   0  0  0  0  0  0  0  0  0  0  0  0
  -23.9557  -11.2326   22.0594 C   0  0  0  0  0  0  0  0  0  0  0  0
  -22.4223  -28.6884   22.5256 C   0  0  0  0  0  0  0  0  0  0  0  0
  -21.9384  -25.5595   23.2313 C   0  0  0  0  0  0  0  0  0  0  0  0
  -23.0796  -22.3465   23.0856 C   0  0  0  0  0  0  0  0  0  0  0  0
  -29.5209  -16.8642   19.8266 C   0  0  0  0  0  0  0  0  0  0  0  0
  -18.7295  -31.9149   23.9435 C   0  0  0  0  0  0  0  0  0  0  0  0
  -22.7921  -27.6031   20.2803 C   0  0  0  0  0  0  0  0  0  0  0  0
  -24.2469  -26.1926   22.4342 C   0  0  0  0  0  0  0  0  0  0  0  0
  -19.3142  -30.6158   24.4919 C   0  0  0  0  0  0  0  0  0  0  0  0
  -29.2718  -13.9212   18.0309 C   0  0  0  0  0  0  0  0  0  0  0  0
  -20.8369  -30.6932   24.5379 C   0  0  0  0  0  0  0  0  0  0  0  0
  -27.9631  -13.3043   18.5241 C   0  0  0  0  0  0  0  0  0  0  0  0
  -28.0712  -20.0573   19.6840 C   0  0  0  0  0  0  0  0  0  0  0  0
  -30.1335  -19.9969   21.1512 C   0  0  0  0  0  0  0  0  0  0  0  0
  -31.2239  -26.3390   17.6207 C   0  0  0  0  0  0  0  0  0  0  0  0
  -31.4876  -26.9699   19.6496 C   0  0  0  0  0  0  0  0  0  0  0  0
  -29.1299  -15.4278   17.8481 C   0  0  0  0  0  0  0  0  0  0  0  0
  -27.7341  -18.6339   20.1370 C   0  0  0  0  0  0  0  0  0  0  0  0
  -29.7352  -18.5902   21.5883 C   0  0  0  0  0  0  0  0  0  0  0  0
  -27.3721  -15.5396   19.5846 C   0  0  0  0  0  0  0  0  0  0  0  0
  -28.8935  -20.8129   20.7434 C   0  0  0  0  0  0  0  0  0  0  0  0
  -21.4222  -30.8841   23.1334 C   0  0  1  0  0  0  0  0  0  0  0  0
  -22.2104  -27.4621   21.6836 C   0  0  1  0  0  0  0  0  0  0  0  0
  -31.9822  -27.5102   18.2876 C   0  0  0  0  0  0  0  0  0  0  0  0
  -27.4611  -14.0142   19.7939 C   0  0  1  0  0  0  0  0  0  0  0  0
  -30.3200  -26.2428   18.8977 C   0  0  0  0  0  0  0  0  0  0  0  0
  -29.1364  -23.0337   22.6610 C   0  0  0  0  0  0  0  0  0  0  0  0
  -33.4833  -27.5469   18.0809 C   0  0  0  0  0  0  0  0  0  0  0  0
  -22.4831  -20.0107   23.7822 C   0  0  0  0  0  0  0  0  0  0  0  0
  -22.7515  -26.2098   26.0994 C   0  0  0  0  0  0  0  0  0  0  0  0
  -23.0573  -23.7566   26.4951 C   0  0  0  0  0  0  0  0  0  0  0  0
  -20.8072  -24.6503   25.8944 C   0  0  0  0  0  0  0  0  0  0  0  0
  -23.0043  -21.4051   20.2808 C   0  0  0  0  0  0  0  0  0  0  0  0
  -29.0408  -27.0866   18.8013 C   0  0  0  0  0  0  0  0  0  1  0  0
  -22.6127  -24.5490   24.1275 C   0  0  1  0  0  0  0  0  0  0  0  0
  -22.3978  -21.0529   22.6781 C   0  0  2  0  0  0  0  0  0  0  0  0
  -22.3213  -24.8046   25.6332 C   0  0  0  0  0  0  0  0  0  0  0  0
  -24.9958  -13.9943   19.8673 N   0  0  0  0  0  0  0  0  0  0  0  0
  -26.1456  -13.4342   20.2801 N   0  0  0  0  0  0  0  0  0  0  0  0
  -22.7815  -26.3336   22.4215 N   0  0  0  0  0  0  0  0  0  0  0  0
  -28.6480  -16.0644   19.0737 N   0  0  0  0  0  0  0  0  0  0  0  0
  -28.9493  -17.9199   20.5528 N   0  0  0  0  0  0  0  0  0  0  0  0
  -27.0219  -11.6928   21.6256 N   0  0  0  0  0  0  0  0  0  0  0  0
  -22.5547  -11.2264   22.0973 N   0  0  0  0  0  0  0  0  0  0  0  0
  -21.4185  -29.6309   22.4097 N   0  0  0  0  0  0  0  0  0  0  0  0
  -22.1910  -23.2359   23.6518 N   0  0  0  0  0  0  0  0  0  0  0  0
  -23.0373  -20.4938   21.4536 N   0  3  0  0  0  0  0  0  0  0  0  0
  -24.5918  -10.3851   22.7307 O   0  0  0  0  0  0  0  0  0  0  0  0
  -23.4219  -28.7726   23.2296 O   0  0  0  0  0  0  0  0  0  0  0  0
  -20.7085  -25.6534   23.2439 O   0  0  0  0  0  0  0  0  0  0  0  0
  -24.2812  -22.5465   22.9217 O   0  0  0  0  0  0  0  0  0  0  0  0
  -30.7390  -16.6481   19.8498 O   0  0  0  0  0  0  0  0  0  0  0  0
  -18.6423  -14.3889   19.7041 O   0  0  0  0  0  0  0  0  0  0  0  0
  -28.4466  -27.1348   20.0858 O   0  0  0  0  0  0  0  0  0  1  0  0
  -15.2569  -10.1498   18.7176 F   0  0  0  0  0  0  0  0  0  0  0  0
  -17.1829  -14.2550   17.3600 F   0  0  0  0  0  0  0  0  0  0  0  0
  1  2  1  0  0  0  0
  1  5  2  0  0  0  0
  2  6  2  0  0  0  0
  3 10  2  0  0  0  0
  3 18  1  0  0  0  0
  4 11  1  0  0  0  0
  4 18  2  0  0  0  0
  5 21  1  0  0  0  0
  6 23  1  0  0  0  0
  7  8  2  0  0  0  0
  7 20  1  0  0  0  0
  8 24  1  0  0  0  0
  9 12  2  0  0  0  0
  9 22  1  0  0  0  0
 10 27  1  0  0  0  0
 11 27  2  0  0  0  0
 12 28  1  0  0  0  0
 13 14  2  0  0  0  0
 13 29  1  0  0  0  0
 14 30  1  0  0  0  0
 15 20  2  0  0  0  0
 15 26  1  0  0  0  0
 16 25  1  0  0  0  0
 16 28  2  0  0  0  0
 17 30  2  0  0  0  0
 17 31  1  0  0  0  0
 18 32  1  0  0  0  0
 19 32  1  0  0  0  0
 19 33  2  0  0  0  0
 19 34  1  0  0  0  0
 20 59  1  0  0  0  0
 21 23  2  0  0  0  0
 21 39  1  0  0  0  0
 22 25  2  0  0  0  0
 22 40  1  0  0  0  0
 23 55  1  0  0  0  0
 24 26  2  0  0  0  0
 24 54  1  0  0  0  0
 25 41  1  0  0  0  0
 26 60  1  0  0  0  0
 27 86  1  0  0  0  0
 28 87  1  0  0  0  0
 29 31  2  0  0  0  0
 29 86  1  0  0  0  0
 30 88  1  0  0  0  0
 31 89  1  0  0  0  0
 32 71  2  0  0  0  0
 33 72  1  0  0  0  0
 33 76  1  0  0  0  0
 34 77  1  0  0  0  0
 34 81  2  0  0  0  0
 35 56  1  0  0  0  0
 35 78  1  0  0  0  0
 35 82  2  0  0  0  0
 36 68  1  0  0  0  0
 36 73  1  0  0  0  0
 36 83  2  0  0  0  0
 37 69  1  0  0  0  0
 37 79  1  0  0  0  0
 37 84  2  0  0  0  0
 38 74  1  0  0  0  0
 38 75  1  0  0  0  0
 38 85  2  0  0  0  0
 39 42  1  0  0  0  0
 40 56  1  0  0  0  0
 41 73  1  0  0  0  0
 42 44  1  0  0  0  0
 43 45  1  0  0  0  0
 43 50  1  0  0  0  0
 44 55  1  0  0  0  0
 45 58  1  0  0  0  0
 46 51  1  0  0  0  0
 46 54  1  0  0  0  0
 47 52  1  0  0  0  0
 47 54  1  0  0  0  0
 48 57  1  0  0  0  0
 48 59  1  0  0  0  0
 49 57  1  0  0  0  0
 49 59  1  0  0  0  0
 50 74  1  0  0  0  0
 51 75  1  0  0  0  0
 52 75  1  0  0  0  0
 53 58  1  0  0  0  0
 53 74  1  0  0  0  0
 55 78  1  0  0  0  0
 56 73  1  0  0  0  0
 57 61  1  0  0  0  0
 58 72  1  0  0  0  0
 59 67  1  0  0  0  0
 62 69  1  0  0  0  0
 63 70  1  0  0  0  0
 64 70  1  0  0  0  0
 65 70  1  0  0  0  0
 66 80  1  0  0  0  0
 67 87  1  0  0  0  0
 68 70  1  0  0  0  0
 68 79  1  0  0  0  0
 69 80  1  0  0  0  0
 71 72  1  0  0  0  0
M  CHG  1  80   1
M  ISO  4  38 100  67 101  75 100  87 101
M  END
> <Batch ID>
0162

> <Smiles>
CNC(C)C(=O)NC(C(=O)N1Cc2cc([101O:1][101CH2:1]C3(c4ccc(C5CC[100N:0]([100C:0](=O)N6CCCC(n7nc(-c8ccc(Oc9ccc(F)cc9F)cc8)c(C(N)=O)c7N)C6)CC5)c(C)c4)CC(C)C3)ccc2CC1C(=O)NC1CCCc2ccccc21)C(C)(C)C

> <Shape>
0.234

> <Color>
0.092

> <Negative vol penalty>
0.000

$$$$

  -OEChem-04052322143D

 87 97  0     1  0  0  0  0  0999 V2000
  -30.3581  -33.0129   25.0267 C   0  0  0  0  0  0  0  0  0  0  0  0
  -29.9062  -31.7860   24.5514 C   0  0  0  0  0  0  0  0  0  0  0  0
  -23.6411  -10.4197   22.1906 C   0  0  0  0  0  0  0  0  0  0  0  0
  -23.5816   -8.7527   20.4429 C   0  0  0  0  0  0  0  0  0  0  0  0
  -29.4417  -33.9854   25.4246 C   0  0  0  0  0  0  0  0  0  0  0  0
  -28.5375  -31.5305   24.4748 C   0  0  0  0  0  0  0  0  0  0  0  0
  -27.2103  -29.3482   20.1020 C   0  0  0  0  0  0  0  0  0  0  0  0
  -22.7060   -9.6868   22.9214 C   0  0  0  0  0  0  0  0  0  0  0  0
  -22.6466   -8.0198   21.1737 C   0  0  0  0  0  0  0  0  0  0  0  0
  -27.4651  -27.9841   19.9681 C   0  0  0  0  0  0  0  0  0  0  0  0
  -20.5139   -5.5282   22.7427 C   0  0  0  0  0  0  0  0  0  0  0  0
  -20.7039   -4.1500   22.8428 C   0  0  0  0  0  0  0  0  0  0  0  0
  -27.3919  -21.7994   18.5093 C   0  0  0  0  0  0  0  0  0  0  0  0
  -28.9513  -23.1448   20.3910 C   0  0  0  0  0  0  0  0  0  0  0  0
  -25.1561  -27.5087   20.4795 C   0  0  0  0  0  0  0  0  0  0  0  0
  -22.8400   -4.5220   23.9088 C   0  0  0  0  0  0  0  0  0  0  0  0
  -24.0789   -9.9527   20.9513 C   0  0  0  0  0  0  0  0  0  0  0  0
  -26.4465  -10.5979   20.2542 C   0  0  0  0  0  0  0  0  0  0  0  0
  -28.0609  -33.7453   25.3438 C   0  0  0  0  0  0  0  0  0  0  0  0
  -25.9268  -29.8030   20.4369 C   0  0  0  0  0  0  0  0  0  0  0  0
  -27.6018  -32.5002   24.8733 C   0  0  0  0  0  0  0  0  0  0  0  0
  -28.2539  -21.0840   19.3403 C   0  0  0  0  0  0  0  0  0  0  0  0
  -29.0336  -21.7567   20.2812 C   0  0  0  0  0  0  0  0  0  0  0  0
  -24.8870  -28.8792   20.6145 C   0  0  0  0  0  0  0  0  0  0  0  0
  -27.3096  -23.1875   18.6190 C   0  0  0  0  0  0  0  0  0  0  0  0
  -28.0893  -23.8602   19.5598 C   0  0  0  0  0  0  0  0  0  0  0  0
  -22.2087   -8.4869   22.4130 C   0  0  0  0  0  0  0  0  0  0  0  0
  -26.4386  -27.0639   20.1596 C   0  0  0  0  0  0  0  0  0  0  0  0
  -21.4869   -6.4033   23.2255 C   0  0  0  0  0  0  0  0  0  0  0  0
  -21.8669   -3.6469   23.4259 C   0  0  0  0  0  0  0  0  0  0  0  0
  -22.6499   -5.9002   23.8085 C   0  0  0  0  0  0  0  0  0  0  0  0
  -25.0444  -10.7096   20.1956 C   0  0  0  0  0  0  0  0  0  0  0  0
  -26.9030  -11.5269   19.3515 C   0  0  0  0  0  0  0  0  0  0  0  0
  -27.2632   -9.7317   21.0532 C   0  0  0  0  0  0  0  0  0  0  0  0
  -24.6871  -31.4275   22.8716 C   0  0  0  0  0  0  0  0  0  0  0  0
  -22.0066  -31.3583   21.0460 C   0  0  0  0  0  0  0  0  0  0  0  0
  -20.2264  -29.8263   18.5700 C   0  0  0  0  0  0  0  0  0  0  0  0
  -26.8032  -16.4713   16.9927 C   0  0  0  0  0  0  0  0  0  0  0  0
  -27.1093  -34.8095   25.8300 C   0  0  0  0  0  0  0  0  0  0  0  0
  -25.6621  -31.2792   20.5514 C   0  0  0  0  0  0  0  0  0  0  0  0
  -23.4868  -29.3171   20.9553 C   0  0  0  0  0  0  0  0  0  0  0  0
  -25.6706  -34.5986   25.3653 C   0  0  0  0  0  0  0  0  0  0  0  0
  -24.4461  -14.2152   15.8518 C   0  0  0  0  0  0  0  0  0  0  0  0
  -29.4299  -20.4276   22.4607 C   0  0  0  0  0  0  0  0  0  0  0  0
  -30.3399  -21.6151   22.5065 C   0  0  0  0  0  0  0  0  0  0  0  0
  -25.2492  -33.1477   25.5748 C   0  0  0  0  0  0  0  0  0  0  0  0
  -24.4984  -13.0844   16.8788 C   0  0  0  0  0  0  0  0  0  0  0  0
  -26.9797  -18.9009   19.5194 C   0  0  0  0  0  0  0  0  0  0  0  0
  -28.8309  -19.1479   17.8101 C   0  0  0  0  0  0  0  0  0  0  0  0
  -24.5412  -15.5756   16.5327 C   0  0  0  0  0  0  0  0  0  0  0  0
  -27.0512  -17.3812   19.3446 C   0  0  0  0  0  0  0  0  0  0  0  0
  -28.8767  -17.6270   17.6955 C   0  0  0  0  0  0  0  0  0  0  0  0
  -25.8239  -14.6162   18.4175 C   0  0  0  0  0  0  0  0  0  0  0  0
  -29.9639  -21.0110   21.1798 C   0  0  0  0  0  0  0  0  0  0  0  0
  -28.3262  -19.5751   19.2003 C   0  0  0  0  0  0  0  0  0  0  0  0
  -26.1246  -32.1946   24.7520 C   0  0  1  0  0  0  0  0  0  0  0  0
  -24.4365  -31.6024   21.4005 C   0  0  1  0  0  0  0  0  0  0  0  0
  -25.7383  -13.2139   17.7812 C   0  0  1  0  0  0  0  0  0  0  0  0
  -26.3783  -23.9315   17.7188 C   0  0  0  0  0  0  0  0  0  0  0  0
  -18.0535  -29.9771   17.3238 C   0  0  0  0  0  0  0  0  0  0  0  0
  -20.5457  -30.1905   23.4568 C   0  0  0  0  0  0  0  0  0  0  0  0
  -18.7023  -29.4918   21.9135 C   0  0  0  0  0  0  0  0  0  0  0  0
  -19.2503  -31.9103   22.1845 C   0  0  0  0  0  0  0  0  0  0  0  0
  -21.6051  -30.2228   15.9814 C   0  0  0  0  0  0  0  0  0  0  0  0
  -28.0164  -25.3457   19.6967 C   0  0  0  0  0  0  0  0  0  1  0  0
  -20.8357  -30.4164   20.9013 C   0  0  1  0  0  0  0  0  0  0  0  0
  -19.5194  -30.3812   17.3466 C   0  0  2  0  0  0  0  0  0  0  0  0
  -19.8602  -30.4936   22.1095 C   0  0  0  0  0  0  0  0  0  0  0  0
  -24.6369  -11.6366   19.3246 N   0  0  0  0  0  0  0  0  0  0  0  0
  -25.7899  -12.1159   18.8277 N   0  0  0  0  0  0  0  0  0  0  0  0
  -23.2796  -30.7708   21.0626 N   0  0  0  0  0  0  0  0  0  0  0  0
  -25.7289  -15.6577   17.3827 N   0  0  0  0  0  0  0  0  0  0  0  0
  -27.5783  -17.0355   18.0172 N   0  0  0  0  0  0  0  0  0  0  0  0
  -28.1439  -11.8893   18.9626 N   0  0  0  0  0  0  0  0  0  0  0  0
  -26.6317   -8.8376   21.9285 N   0  0  0  0  0  0  0  0  0  0  0  0
  -25.7173  -32.2062   23.3633 N   0  0  0  0  0  0  0  0  0  0  0  0
  -20.2199  -30.7254   19.6154 N   0  0  0  0  0  0  0  0  0  0  0  0
  -20.1654  -29.8768   16.1019 N   0  3  0  0  0  0  0  0  0  0  0  0
  -28.5163   -9.7615   21.0048 O   0  0  0  0  0  0  0  0  0  0  0  0
  -23.9959  -30.6452   23.5134 O   0  0  0  0  0  0  0  0  0  0  0  0
  -21.7998  -32.5712   21.1338 O   0  0  0  0  0  0  0  0  0  0  0  0
  -20.7305  -28.7057   18.5969 O   0  0  0  0  0  0  0  0  0  0  0  0
  -27.0563  -16.6812   15.7998 O   0  0  0  0  0  0  0  0  0  0  0  0
  -21.2965   -7.7713   23.1260 O   0  0  0  0  0  0  0  0  0  0  0  0
  -26.6866  -25.7223   20.0293 O   0  0  0  0  0  0  0  0  0  1  0  0
  -22.0486   -2.3233   23.5234 F   0  0  0  0  0  0  0  0  0  0  0  0
  -23.5877   -6.7360   24.2752 F   0  0  0  0  0  0  0  0  0  0  0  0
  1  2  1  0  0  0  0
  1  5  2  0  0  0  0
  2  6  2  0  0  0  0
  3  8  2  0  0  0  0
  3 17  1  0  0  0  0
  4  9  1  0  0  0  0
  4 17  2  0  0  0  0
  5 19  1  0  0  0  0
  6 21  1  0  0  0  0
  7 10  2  0  0  0  0
  7 20  1  0  0  0  0
  8 27  1  0  0  0  0
  9 27  2  0  0  0  0
 10 28  1  0  0  0  0
 11 12  2  0  0  0  0
 11 29  1  0  0  0  0
 12 30  1  0  0  0  0
 13 22  2  0  0  0  0
 13 25  1  0  0  0  0
 14 23  2  0  0  0  0
 14 26  1  0  0  0  0
 15 24  1  0  0  0  0
 15 28  2  0  0  0  0
 16 30  2  0  0  0  0
 16 31  1  0  0  0  0
 17 32  1  0  0  0  0
 18 32  1  0  0  0  0
 18 33  2  0  0  0  0
 18 34  1  0  0  0  0
 19 21  2  0  0  0  0
 19 39  1  0  0  0  0
 20 24  2  0  0  0  0
 20 40  1  0  0  0  0
 21 56  1  0  0  0  0
 22 23  1  0  0  0  0
 22 55  1  0  0  0  0
 23 54  1  0  0  0  0
 24 41  1  0  0  0  0
 25 26  2  0  0  0  0
 25 59  1  0  0  0  0
 26 65  1  0  0  0  0
 27 84  1  0  0  0  0
 28 85  1  0  0  0  0
 29 31  2  0  0  0  0
 29 84  1  0  0  0  0
 30 86  1  0  0  0  0
 31 87  1  0  0  0  0
 32 69  2  0  0  0  0
 33 70  1  0  0  0  0
 33 74  1  0  0  0  0
 34 75  1  0  0  0  0
 34 79  2  0  0  0  0
 35 57  1  0  0  0  0
 35 76  1  0  0  0  0
 35 80  2  0  0  0  0
 36 66  1  0  0  0  0
 36 71  1  0  0  0  0
 36 81  2  0  0  0  0
 37 67  1  0  0  0  0
 37 77  1  0  0  0  0
 37 82  2  0  0  0  0
 38 72  1  0  0  0  0
 38 73  1  0  0  0  0
 38 83  2  0  0  0  0
 39 42  1  0  0  0  0
 40 57  1  0  0  0  0
 41 71  1  0  0  0  0
 42 46  1  0  0  0  0
 43 47  1  0  0  0  0
 43 50  1  0  0  0  0
 44 45  1  0  0  0  0
 44 54  1  0  0  0  0
 45 54  1  0  0  0  0
 46 56  1  0  0  0  0
 47 58  1  0  0  0  0
 48 51  1  0  0  0  0
 48 55  1  0  0  0  0
 49 52  1  0  0  0  0
 49 55  1  0  0  0  0
 50 72  1  0  0  0  0
 51 73  1  0  0  0  0
 52 73  1  0  0  0  0
 53 58  1  0  0  0  0
 53 72  1  0  0  0  0
 56 76  1  0  0  0  0
 57 71  1  0  0  0  0
 58 70  1  0  0  0  0
 60 67  1  0  0  0  0
 61 68  1  0  0  0  0
 62 68  1  0  0  0  0
 63 68  1  0  0  0  0
 64 78  1  0  0  0  0
 65 85  1  0  0  0  0
 66 68  1  0  0  0  0
 66 77  1  0  0  0  0
 67 78  1  0  0  0  0
 69 70  1  0  0  0  0
M  CHG  1  78   1
M  ISO  4  38 100  65 101  73 100  85 101
M  END
> <Batch ID>
0162

> <Smiles>
CNC(C)C(=O)NC(C(=O)N1Cc2cc([101O:1][101CH2:1]c3cc(C4CC4)c(C4CC[100N:0]([100C:0](=O)N5CCCC(n6nc(-c7ccc(Oc8ccc(F)cc8F)cc7)c(C(N)=O)c6N)C5)CC4)cc3C)ccc2CC1C(=O)NC1CCCc2ccccc21)C(C)(C)C

> <Shape>
0.268

> <Color>
0.076

> <Negative vol penalty>
0.000

$$$$

  -OEChem-04052322143D

 88 98  0     1  0  0  0  0  0999 V2000
  -28.0848  -11.6298   19.3602 C   0  0  0  0  0  0  0  0  0  0  0  0
  -27.7728  -12.3195   20.5275 C   0  0  0  0  0  0  0  0  0  0  0  0
  -23.9224  -32.2384   20.8528 C   0  0  0  0  0  0  0  0  0  0  0  0
  -25.2205  -30.9204   22.4067 C   0  0  0  0  0  0  0  0  0  0  0  0
  -29.0849  -12.1088   18.5151 C   0  0  0  0  0  0  0  0  0  0  0  0
  -28.4617  -13.4879   20.8508 C   0  0  0  0  0  0  0  0  0  0  0  0
  -25.3823  -17.1841   22.4324 C   0  0  0  0  0  0  0  0  0  0  0  0
  -24.6671  -33.3688   21.1894 C   0  0  0  0  0  0  0  0  0  0  0  0
  -25.9653  -32.0507   22.7433 C   0  0  0  0  0  0  0  0  0  0  0  0
  -24.9144  -17.1057   23.7434 C   0  0  0  0  0  0  0  0  0  0  0  0
  -25.5918  -34.7927   24.6858 C   0  0  0  0  0  0  0  0  0  0  0  0
  -25.8354  -35.0290   26.0387 C   0  0  0  0  0  0  0  0  0  0  0  0
  -26.5830  -18.7075   24.4282 C   0  0  0  0  0  0  0  0  0  0  0  0
  -20.3415  -20.7099   28.7103 C   0  0  0  0  0  0  0  0  0  0  0  0
  -28.2137  -34.9030   25.6324 C   0  0  0  0  0  0  0  0  0  0  0  0
  -24.1990  -31.0142   21.4615 C   0  0  0  0  0  0  0  0  0  0  0  0
  -23.7081  -28.9172   20.0943 C   0  0  0  0  0  0  0  0  0  0  0  0
  -29.7797  -13.2890   18.8234 C   0  0  0  0  0  0  0  0  0  0  0  0
  -26.4629  -18.0180   22.1110 C   0  0  0  0  0  0  0  0  0  0  0  0
  -29.4730  -13.9824   20.0097 C   0  0  0  0  0  0  0  0  0  0  0  0
  -27.0610  -18.7967   23.1120 C   0  0  0  0  0  0  0  0  0  0  0  0
  -22.3746  -19.8537   27.7254 C   0  0  0  0  0  0  0  0  0  0  0  0
  -21.4932  -21.9877   27.0138 C   0  0  0  0  0  0  0  0  0  0  0  0
  -21.3129  -19.7132   28.6191 C   0  0  0  0  0  0  0  0  0  0  0  0
  -22.4647  -20.9909   26.9227 C   0  0  0  0  0  0  0  0  0  0  0  0
  -25.6885  -33.2749   22.1346 C   0  0  0  0  0  0  0  0  0  0  0  0
  -25.5166  -17.8653   24.7421 C   0  0  0  0  0  0  0  0  0  0  0  0
  -26.6591  -34.6114   23.8062 C   0  0  0  0  0  0  0  0  0  0  0  0
  -20.4316  -21.8472   27.9076 C   0  0  0  0  0  0  0  0  0  0  0  0
  -27.1463  -35.0842   26.5120 C   0  0  0  0  0  0  0  0  0  0  0  0
  -27.9700  -34.6666   24.2795 C   0  0  0  0  0  0  0  0  0  0  0  0
  -23.4297  -29.8463   21.1146 C   0  0  0  0  0  0  0  0  0  0  0  0
  -22.6860  -28.0032   20.1741 C   0  0  0  0  0  0  0  0  0  0  0  0
  -24.7935  -28.8834   19.1581 C   0  0  0  0  0  0  0  0  0  0  0  0
  -29.3839  -17.5557   20.9457 C   0  0  0  0  0  0  0  0  0  0  0  0
  -29.4577  -20.7984   20.9035 C   0  0  0  0  0  0  0  0  0  0  0  0
  -28.2617  -23.7401   22.1536 C   0  0  0  0  0  0  0  0  0  0  0  0
  -19.3514  -25.4058   24.1253 C   0  0  0  0  0  0  0  0  0  0  0  0
  -30.8853  -13.7420   17.9029 C   0  0  0  0  0  0  0  0  0  0  0  0
  -26.9385  -18.1115   20.6870 C   0  0  0  0  0  0  0  0  0  0  0  0
  -28.2111  -19.7228   22.8152 C   0  0  0  0  0  0  0  0  0  0  0  0
  -31.3105  -15.1906   18.1286 C   0  0  0  0  0  0  0  0  0  0  0  0
  -18.1340  -27.9957   22.0532 C   0  0  0  0  0  0  0  0  0  0  0  0
  -31.4947  -15.4671   19.6174 C   0  0  0  0  0  0  0  0  0  0  0  0
  -19.3928  -28.6762   21.5226 C   0  0  0  0  0  0  0  0  0  0  0  0
  -21.6355  -24.5779   26.8733 C   0  0  0  0  0  0  0  0  0  0  0  0
  -22.9812  -17.3700   27.3519 C   0  0  0  0  0  0  0  0  0  0  0  0
  -18.3225  -27.5626   23.5009 C   0  0  0  0  0  0  0  0  0  0  0  0
  -21.3110  -25.5732   25.7673 C   0  0  0  0  0  0  0  0  0  0  0  0
  -20.3853  -23.4344   25.2098 C   0  0  0  0  0  0  0  0  0  0  0  0
  -20.7636  -27.2870   23.1609 C   0  0  0  0  0  0  0  0  0  0  0  0
  -23.4153  -18.7833   27.6296 C   0  0  1  0  0  0  0  0  0  0  0  0
  -21.5830  -23.2241   26.1469 C   0  0  2  0  0  0  0  0  0  0  0  0
  -30.1808  -15.2670   20.3824 C   0  0  1  0  0  0  0  0  0  0  0  0
  -28.3770  -18.6054   20.5688 C   0  0  1  0  0  0  0  0  0  0  0  0
  -20.6173  -27.7654   21.7015 C   0  0  2  0  0  0  0  0  0  0  0  0
  -23.6881  -18.1536   26.2885 C   0  0  1  0  0  0  0  0  0  1  0  0
  -21.1911  -18.5061   29.4908 C   0  0  0  0  0  0  0  0  0  0  0  0
  -23.6027  -21.1441   25.9631 C   0  0  0  0  0  0  0  0  0  0  0  0
  -28.5412  -26.2256   21.9500 C   0  0  0  0  0  0  0  0  0  0  0  0
  -32.0504  -20.6356   22.5040 C   0  0  0  0  0  0  0  0  0  0  0  0
  -31.7686  -23.0570   23.0746 C   0  0  0  0  0  0  0  0  0  0  0  0
  -32.0478  -22.3624   20.6950 C   0  0  0  0  0  0  0  0  0  0  0  0
  -25.4533  -24.1021   21.2927 C   0  0  0  0  0  0  0  0  0  0  0  0
  -18.4248  -22.5828   28.9505 C   0  0  0  0  0  0  0  0  0  0  0  0
  -29.8704  -21.8712   21.8822 C   0  0  1  0  0  0  0  0  0  0  0  0
  -27.7763  -25.0035   21.4661 C   0  0  2  0  0  0  0  0  0  0  0  0
  -31.4139  -21.9627   22.0452 C   0  0  0  0  0  0  0  0  0  0  0  0
  -22.3178  -29.5498   21.7927 N   0  0  0  0  0  0  0  0  0  0  0  0
  -21.8885  -28.4241   21.1973 N   0  0  0  0  0  0  0  0  0  0  0  0
  -28.6441  -19.7745   21.4090 N   0  0  0  0  0  0  0  0  0  0  0  0
  -19.5072  -26.7184   23.6663 N   0  0  0  0  0  0  0  0  0  0  0  0
  -20.3731  -24.8609   24.9020 N   0  0  0  0  0  0  0  0  0  0  0  0
  -22.4007  -26.8885   19.4681 N   0  0  0  0  0  0  0  0  0  0  0  0
  -25.7566  -29.9000   19.2148 N   0  0  0  0  0  0  0  0  0  0  0  0
  -29.3050  -16.4026   20.1884 N   0  0  0  0  0  0  0  0  0  0  0  0
  -29.2438  -23.1060   21.4226 N   0  0  0  0  0  0  0  0  0  0  0  0
  -26.3270  -25.2177   21.7391 N   0  3  0  0  0  0  0  0  0  0  0  0
  -24.8971  -27.9875   18.2863 O   0  0  0  0  0  0  0  0  0  0  0  0
  -30.1749  -17.7763   21.8554 O   0  0  0  0  0  0  0  0  0  0  0  0
  -29.8372  -20.8702   19.7320 O   0  0  0  0  0  0  0  0  0  0  0  0
  -27.8169  -23.3563   23.2331 O   0  0  0  0  0  0  0  0  0  0  0  0
  -18.3224  -24.7592   23.8865 O   0  0  0  0  0  0  0  0  0  0  0  0
  -26.4156  -34.3777   22.4631 O   0  0  0  0  0  0  0  0  0  0  0  0
  -25.0558  -17.7891   26.0411 O   0  0  0  0  0  0  0  0  0  1  0  0
  -19.4730  -22.8103   28.0107 O   0  0  0  0  0  0  0  0  0  0  0  0
  -27.3802  -35.3127   27.8110 F   0  0  0  0  0  0  0  0  0  0  0  0
  -28.9995  -34.4945   23.4390 F   0  0  0  0  0  0  0  0  0  0  0  0
  1  2  1  0  0  0  0
  1  5  2  0  0  0  0
  2  6  2  0  0  0  0
  3  8  2  0  0  0  0
  3 16  1  0  0  0  0
  4  9  1  0  0  0  0
  4 16  2  0  0  0  0
  5 18  1  0  0  0  0
  6 20  1  0  0  0  0
  7 10  2  0  0  0  0
  7 19  1  0  0  0  0
  8 26  1  0  0  0  0
  9 26  2  0  0  0  0
 10 27  1  0  0  0  0
 11 12  2  0  0  0  0
 11 28  1  0  0  0  0
 12 30  1  0  0  0  0
 13 21  1  0  0  0  0
 13 27  2  0  0  0  0
 14 24  2  0  0  0  0
 14 29  1  0  0  0  0
 15 30  2  0  0  0  0
 15 31  1  0  0  0  0
 16 32  1  0  0  0  0
 17 32  1  0  0  0  0
 17 33  2  0  0  0  0
 17 34  1  0  0  0  0
 18 20  2  0  0  0  0
 18 39  1  0  0  0  0
 19 21  2  0  0  0  0
 19 40  1  0  0  0  0
 20 54  1  0  0  0  0
 21 41  1  0  0  0  0
 22 24  1  0  0  0  0
 22 25  2  0  0  0  0
 22 52  1  0  0  0  0
 23 25  1  0  0  0  0
 23 29  2  0  0  0  0
 23 53  1  0  0  0  0
 24 58  1  0  0  0  0
 25 59  1  0  0  0  0
 26 84  1  0  0  0  0
 27 85  1  0  0  0  0
 28 31  2  0  0  0  0
 28 84  1  0  0  0  0
 29 86  1  0  0  0  0
 30 87  1  0  0  0  0
 31 88  1  0  0  0  0
 32 69  2  0  0  0  0
 33 70  1  0  0  0  0
 33 74  1  0  0  0  0
 34 75  1  0  0  0  0
 34 79  2  0  0  0  0
 35 55  1  0  0  0  0
 35 76  1  0  0  0  0
 35 80  2  0  0  0  0
 36 66  1  0  0  0  0
 36 71  1  0  0  0  0
 36 81  2  0  0  0  0
 37 67  1  0  0  0  0
 37 77  1  0  0  0  0
 37 82  2  0  0  0  0
 38 72  1  0  0  0  0
 38 73  1  0  0  0  0
 38 83  2  0  0  0  0
 39 42  1  0  0  0  0
 40 55  1  0  0  0  0
 41 71  1  0  0  0  0
 42 44  1  0  0  0  0
 43 45  1  0  0  0  0
 43 48  1  0  0  0  0
 44 54  1  0  0  0  0
 45 56  1  0  0  0  0
 46 49  1  0  0  0  0
 46 53  1  0  0  0  0
 47 52  1  0  0  0  0
 47 57  1  0  0  0  0
 48 72  1  0  0  0  0
 49 73  1  0  0  0  0
 50 53  1  0  0  0  0
 50 73  1  0  0  0  0
 51 56  1  0  0  0  0
 51 72  1  0  0  0  0
 52 57  1  0  0  0  0
 54 76  1  0  0  0  0
 55 71  1  0  0  0  0
 56 70  1  0  0  0  0
 57 85  1  0  0  0  0
 60 67  1  0  0  0  0
 61 68  1  0  0  0  0
 62 68  1  0  0  0  0
 63 68  1  0  0  0  0
 64 78  1  0  0  0  0
 65 86  1  0  0  0  0
 66 68  1  0  0  0  0
 66 77  1  0  0  0  0
 67 78  1  0  0  0  0
 69 70  1  0  0  0  0
M  CHG  1  78   1
M  ISO  4  38 100  57 101  73 100  85 101
M  END
> <Batch ID>
0162

> <Smiles>
CNC(C)C(=O)NC(C(=O)N1Cc2cc([101O:1][101CH:1]3CC3c3c(C)cc(OC)c(C4CC[100N:0]([100C:0](=O)N5CCCC(n6nc(-c7ccc(Oc8ccc(F)cc8F)cc7)c(C(N)=O)c6N)C5)C4)c3C)ccc2CC1C(=O)NC1CCCc2ccccc21)C(C)(C)C

> <Shape>
0.213

> <Color>
0.064

> <Negative vol penalty>
0.000

$$$$

  -OEChem-04052322143D

 87 96  0     1  0  0  0  0  0999 V2000
  -28.5090  -31.0969   26.6816 C   0  0  0  0  0  0  0  0  0  0  0  0
  -27.8526  -29.9477   26.2525 C   0  0  0  0  0  0  0  0  0  0  0  0
  -23.1941  -10.1243   22.1601 C   0  0  0  0  0  0  0  0  0  0  0  0
  -23.8503   -9.4589   19.9321 C   0  0  0  0  0  0  0  0  0  0  0  0
  -28.2410  -32.3208   26.0699 C   0  0  0  0  0  0  0  0  0  0  0  0
  -26.9270  -30.0221   25.2123 C   0  0  0  0  0  0  0  0  0  0  0  0
  -27.5009  -26.2961   21.8311 C   0  0  0  0  0  0  0  0  0  0  0  0
  -22.4204   -8.9697   22.2771 C   0  0  0  0  0  0  0  0  0  0  0  0
  -23.0766   -8.3042   20.0491 C   0  0  0  0  0  0  0  0  0  0  0  0
  -27.0016  -25.0409   22.1760 C   0  0  0  0  0  0  0  0  0  0  0  0
  -22.9237   -5.6883   22.9194 C   0  0  0  0  0  0  0  0  0  0  0  0
  -23.0154   -4.9643   24.1080 C   0  0  0  0  0  0  0  0  0  0  0  0
  -25.0421  -25.4577   20.8322 C   0  0  0  0  0  0  0  0  0  0  0  0
  -24.8385  -23.0217   27.0487 C   0  0  0  0  0  0  0  0  0  0  0  0
  -23.4913  -23.5723   25.1203 C   0  0  0  0  0  0  0  0  0  0  0  0
  -20.6525   -5.2926   24.4903 C   0  0  0  0  0  0  0  0  0  0  0  0
  -23.9090  -10.3690   20.9876 C   0  0  0  0  0  0  0  0  0  0  0  0
  -26.0621  -11.7176   21.2180 C   0  0  0  0  0  0  0  0  0  0  0  0
  -27.3188  -32.4086   25.0152 C   0  0  0  0  0  0  0  0  0  0  0  0
  -26.7682  -27.1474   20.9915 C   0  0  0  0  0  0  0  0  0  0  0  0
  -26.6454  -31.2486   24.5869 C   0  0  0  0  0  0  0  0  0  0  0  0
  -25.5355  -26.7222   20.4761 C   0  0  0  0  0  0  0  0  0  0  0  0
  -24.8838  -21.5981   25.0972 C   0  0  0  0  0  0  0  0  0  0  0  0
  -23.9253  -23.8633   26.4136 C   0  0  0  0  0  0  0  0  0  0  0  0
  -25.3178  -21.8891   26.3905 C   0  0  0  0  0  0  0  0  0  0  0  0
  -23.9705  -22.4397   24.4621 C   0  0  0  0  0  0  0  0  0  0  0  0
  -22.3616   -8.0596   21.2216 C   0  0  0  0  0  0  0  0  0  0  0  0
  -25.7707  -24.6227   21.6789 C   0  0  0  0  0  0  0  0  0  0  0  0
  -21.6965   -6.2147   22.5162 C   0  0  0  0  0  0  0  0  0  0  0  0
  -21.8798   -4.7664   24.8935 C   0  0  0  0  0  0  0  0  0  0  0  0
  -20.5609   -6.0168   23.3017 C   0  0  0  0  0  0  0  0  0  0  0  0
  -24.7080  -11.5618   20.8659 C   0  0  0  0  0  0  0  0  0  0  0  0
  -26.3485  -13.0253   20.9109 C   0  0  0  0  0  0  0  0  0  0  0  0
  -26.9791  -10.7653   21.7730 C   0  0  0  0  0  0  0  0  0  0  0  0
  -25.4641  -30.0292   21.3050 C   0  0  0  0  0  0  0  0  0  0  0  0
  -24.8615  -29.6728   18.1377 C   0  0  0  0  0  0  0  0  0  0  0  0
  -24.4011  -27.5622   15.4956 C   0  0  0  0  0  0  0  0  0  0  0  0
  -25.1474  -18.3702   20.8073 C   0  0  0  0  0  0  0  0  0  0  0  0
  -27.0271  -33.7618   24.4166 C   0  0  0  0  0  0  0  0  0  0  0  0
  -27.3330  -28.4875   20.6075 C   0  0  0  0  0  0  0  0  0  0  0  0
  -24.7193  -27.5902   19.5548 C   0  0  0  0  0  0  0  0  0  0  0  0
  -26.3095  -33.6908   23.0711 C   0  0  0  0  0  0  0  0  0  0  0  0
  -23.7126  -16.4598   18.3093 C   0  0  0  0  0  0  0  0  0  0  0  0
  -25.1514  -32.7002   23.1354 C   0  0  0  0  0  0  0  0  0  0  0  0
  -23.9503  -15.0218   18.7698 C   0  0  0  0  0  0  0  0  0  0  0  0
  -24.2790  -19.3672   24.0584 C   0  0  0  0  0  0  0  0  0  0  0  0
  -26.1919  -20.7271   23.1090 C   0  0  0  0  0  0  0  0  0  0  0  0
  -23.3209  -17.3506   19.4825 C   0  0  0  0  0  0  0  0  0  0  0  0
  -24.8070  -18.1413   23.3078 C   0  0  0  0  0  0  0  0  0  0  0  0
  -26.6879  -19.4676   22.4046 C   0  0  0  0  0  0  0  0  0  0  0  0
  -24.5617  -15.9170   21.0710 C   0  0  0  0  0  0  0  0  0  0  0  0
  -25.4049  -20.3659   24.3818 C   0  0  0  0  0  0  0  0  0  0  0  0
  -25.6530  -31.2845   23.4450 C   0  0  1  0  0  0  0  0  0  0  0  0
  -26.2647  -29.4797   20.1584 C   0  0  1  0  0  0  0  0  0  0  0  0
  -24.9686  -14.9714   19.9226 C   0  0  1  0  0  0  0  0  0  0  0  0
  -23.4135  -25.0746   27.1170 C   0  0  0  0  0  0  0  0  0  0  0  0
  -26.2943  -21.0035   27.0933 C   0  0  0  0  0  0  0  0  0  0  0  0
  -21.9702  -21.8988   23.0346 C   0  0  0  0  0  0  0  0  0  0  0  0
  -23.8872  -27.5639   13.0393 C   0  0  0  0  0  0  0  0  0  0  0  0
  -21.9371  -30.2895   18.7523 C   0  0  0  0  0  0  0  0  0  0  0  0
  -21.3411  -29.3595   16.5056 C   0  0  0  0  0  0  0  0  0  0  0  0
  -22.8152  -31.3650   16.6723 C   0  0  0  0  0  0  0  0  0  0  0  0
  -26.9651  -26.2373   14.8402 C   0  0  0  0  0  0  0  0  0  0  0  0
  -23.8613  -23.2594   22.0681 C   0  0  0  0  0  0  0  0  0  1  0  0
  -23.4900  -22.1502   23.0775 C   0  0  1  0  0  0  0  0  0  0  0  0
  -23.7275  -29.0987   17.3231 C   0  0  1  0  0  0  0  0  0  0  0  0
  -24.9832  -27.5615   14.0936 C   0  0  2  0  0  0  0  0  0  0  0  0
  -22.4695  -30.0124   17.3322 C   0  0  0  0  0  0  0  0  0  0  0  0
  -24.1714  -12.6812   20.3730 N   0  0  0  0  0  0  0  0  0  0  0  0
  -25.1934  -13.5529   20.4133 N   0  0  0  0  0  0  0  0  0  0  0  0
  -25.3112  -28.8944   19.2136 N   0  0  0  0  0  0  0  0  0  0  0  0
  -24.3103  -17.2725   20.5571 N   0  0  0  0  0  0  0  0  0  0  0  0
  -25.5835  -18.5491   22.1288 N   0  0  0  0  0  0  0  0  0  0  0  0
  -27.4731  -13.7639   21.0208 N   0  0  0  0  0  0  0  0  0  0  0  0
  -26.5203   -9.4655   22.0268 N   0  0  0  0  0  0  0  0  0  0  0  0
  -26.2222  -30.6795   22.2599 N   0  0  0  0  0  0  0  0  0  0  0  0
  -24.2695  -28.8414   15.9933 N   0  0  0  0  0  0  0  0  0  0  0  0
  -25.8325  -26.3547   13.8860 N   0  3  0  0  0  0  0  0  0  0  0  0
  -28.1655  -11.0629   22.0512 O   0  0  0  0  0  0  0  0  0  0  0  0
  -24.2484  -29.8758   21.3215 O   0  0  0  0  0  0  0  0  0  0  0  0
  -25.3357  -30.7681   17.8263 O   0  0  0  0  0  0  0  0  0  0  0  0
  -24.0905  -26.5314   16.0884 O   0  0  0  0  0  0  0  0  0  0  0  0
  -25.4863  -19.1448   19.9038 O   0  0  0  0  0  0  0  0  0  0  0  0
  -21.6069   -6.9327   21.3355 O   0  0  0  0  0  0  0  0  0  0  0  0
  -25.2776  -23.3902   22.0166 O   0  0  0  0  0  0  0  0  0  1  0  0
  -21.9677   -4.0697   26.0341 F   0  0  0  0  0  0  0  0  0  0  0  0
  -19.3789   -6.5190   22.9189 F   0  0  0  0  0  0  0  0  0  0  0  0
  1  2  1  0  0  0  0
  1  5  2  0  0  0  0
  2  6  2  0  0  0  0
  3  8  2  0  0  0  0
  3 17  1  0  0  0  0
  4  9  1  0  0  0  0
  4 17  2  0  0  0  0
  5 19  1  0  0  0  0
  6 21  1  0  0  0  0
  7 10  2  0  0  0  0
  7 20  1  0  0  0  0
  8 27  1  0  0  0  0
  9 27  2  0  0  0  0
 10 28  1  0  0  0  0
 11 12  2  0  0  0  0
 11 29  1  0  0  0  0
 12 30  1  0  0  0  0
 13 22  1  0  0  0  0
 13 28  2  0  0  0  0
 14 24  1  0  0  0  0
 14 25  2  0  0  0  0
 15 24  2  0  0  0  0
 15 26  1  0  0  0  0
 16 30  2  0  0  0  0
 16 31  1  0  0  0  0
 17 32  1  0  0  0  0
 18 32  1  0  0  0  0
 18 33  2  0  0  0  0
 18 34  1  0  0  0  0
 19 21  2  0  0  0  0
 19 39  1  0  0  0  0
 20 22  2  0  0  0  0
 20 40  1  0  0  0  0
 21 53  1  0  0  0  0
 22 41  1  0  0  0  0
 23 25  1  0  0  0  0
 23 26  2  0  0  0  0
 23 52  1  0  0  0  0
 24 56  1  0  0  0  0
 25 57  1  0  0  0  0
 26 65  1  0  0  0  0
 27 84  1  0  0  0  0
 28 85  1  0  0  0  0
 29 31  2  0  0  0  0
 29 84  1  0  0  0  0
 30 86  1  0  0  0  0
 31 87  1  0  0  0  0
 32 69  2  0  0  0  0
 33 70  1  0  0  0  0
 33 74  1  0  0  0  0
 34 75  1  0  0  0  0
 34 79  2  0  0  0  0
 35 54  1  0  0  0  0
 35 76  1  0  0  0  0
 35 80  2  0  0  0  0
 36 66  1  0  0  0  0
 36 71  1  0  0  0  0
 36 81  2  0  0  0  0
 37 67  1  0  0  0  0
 37 77  1  0  0  0  0
 37 82  2  0  0  0  0
 38 72  1  0  0  0  0
 38 73  1  0  0  0  0
 38 83  2  0  0  0  0
 39 42  1  0  0  0  0
 40 54  1  0  0  0  0
 41 71  1  0  0  0  0
 42 44  1  0  0  0  0
 43 45  1  0  0  0  0
 43 48  1  0  0  0  0
 44 53  1  0  0  0  0
 45 55  1  0  0  0  0
 46 49  1  0  0  0  0
 46 52  1  0  0  0  0
 47 50  1  0  0  0  0
 47 52  1  0  0  0  0
 48 72  1  0  0  0  0
 49 73  1  0  0  0  0
 50 73  1  0  0  0  0
 51 55  1  0  0  0  0
 51 72  1  0  0  0  0
 53 76  1  0  0  0  0
 54 71  1  0  0  0  0
 55 70  1  0  0  0  0
 58 65  1  0  0  0  0
 59 67  1  0  0  0  0
 60 68  1  0  0  0  0
 61 68  1  0  0  0  0
 62 68  1  0  0  0  0
 63 78  1  0  0  0  0
 64 65  1  0  0  0  0
 64 85  1  0  0  0  0
 66 68  1  0  0  0  0
 66 77  1  0  0  0  0
 67 78  1  0  0  0  0
 69 70  1  0  0  0  0
M  CHG  1  78   1
M  ISO  4  38 100  64 101  73 100  85 101
M  END
> <Batch ID>
0162

> <Smiles>
CNC(C)C(=O)NC(C(=O)N1Cc2cc([101O:1][101CH2:1]C(C)c3cc(C)cc(C)c3C3CC[100N:0]([100C:0](=O)N4CCCC(n5nc(-c6ccc(Oc7ccc(F)cc7F)cc6)c(C(N)=O)c5N)C4)CC3)ccc2CC1C(=O)NC1CCCc2ccccc21)C(C)(C)C

> <Shape>
0.208

> <Color>
0.096

> <Negative vol penalty>
0.000

$$$$

  -OEChem-04052322143D

 87 96  0     1  0  0  0  0  0999 V2000
  -26.7159  -36.7790   19.9160 C   0  0  0  0  0  0  0  0  0  0  0  0
  -27.2576  -35.5157   20.1302 C   0  0  0  0  0  0  0  0  0  0  0  0
  -24.5224   -8.9363   21.8353 C   0  0  0  0  0  0  0  0  0  0  0  0
  -22.7413   -9.9952   20.5930 C   0  0  0  0  0  0  0  0  0  0  0  0
  -25.5239  -37.1405   20.5425 C   0  0  0  0  0  0  0  0  0  0  0  0
  -26.6082  -34.6134   20.9719 C   0  0  0  0  0  0  0  0  0  0  0  0
  -26.3857  -29.9473   19.0165 C   0  0  0  0  0  0  0  0  0  0  0  0
  -23.5856   -8.1587   22.5158 C   0  0  0  0  0  0  0  0  0  0  0  0
  -21.8044   -9.2175   21.2734 C   0  0  0  0  0  0  0  0  0  0  0  0
  -27.5416  -29.1711   19.0882 C   0  0  0  0  0  0  0  0  0  0  0  0
  -21.7455   -5.3854   21.9190 C   0  0  0  0  0  0  0  0  0  0  0  0
  -22.0166   -4.0252   22.0664 C   0  0  0  0  0  0  0  0  0  0  0  0
  -26.6378  -28.0126   21.0014 C   0  0  0  0  0  0  0  0  0  0  0  0
  -28.3495  -24.3531   18.3803 C   0  0  0  0  0  0  0  0  0  0  0  0
  -28.5871  -22.8628   20.7266 C   0  0  0  0  0  0  0  0  0  0  0  0
  -21.9603   -4.2743   24.4688 C   0  0  0  0  0  0  0  0  0  0  0  0
  -24.1003   -9.8547   20.8739 C   0  0  0  0  0  0  0  0  0  0  0  0
  -25.7205  -10.3421   18.9647 C   0  0  0  0  0  0  0  0  0  0  0  0
  -24.8545  -36.2387   21.3847 C   0  0  0  0  0  0  0  0  0  0  0  0
  -25.3500  -29.7691   19.9450 C   0  0  0  0  0  0  0  0  0  0  0  0
  -25.4068  -34.9635   21.6113 C   0  0  0  0  0  0  0  0  0  0  0  0
  -25.4687  -28.7861   20.9378 C   0  0  0  0  0  0  0  0  0  0  0  0
  -27.4924  -23.2776   18.6132 C   0  0  0  0  0  0  0  0  0  0  0  0
  -29.3255  -24.6834   19.3205 C   0  0  0  0  0  0  0  0  0  0  0  0
  -27.6112  -22.5324   19.7863 C   0  0  0  0  0  0  0  0  0  0  0  0
  -22.2265   -8.2992   22.2348 C   0  0  0  0  0  0  0  0  0  0  0  0
  -27.6691  -28.2056   20.0825 C   0  0  0  0  0  0  0  0  0  0  0  0
  -21.5819   -6.1902   23.0465 C   0  0  0  0  0  0  0  0  0  0  0  0
  -29.4443  -23.9383   20.4937 C   0  0  0  0  0  0  0  0  0  0  0  0
  -22.1240   -3.4696   23.3413 C   0  0  0  0  0  0  0  0  0  0  0  0
  -21.6893   -5.6346   24.3214 C   0  0  0  0  0  0  0  0  0  0  0  0
  -25.0676  -10.6587   20.1711 C   0  0  0  0  0  0  0  0  0  0  0  0
  -26.5324  -11.4225   18.7199 C   0  0  0  0  0  0  0  0  0  0  0  0
  -25.6035   -9.1757   18.1392 C   0  0  0  0  0  0  0  0  0  0  0  0
  -23.9712  -31.6012   22.1464 C   0  0  0  0  0  0  0  0  0  0  0  0
  -21.9584  -29.0731   22.4290 C   0  0  0  0  0  0  0  0  0  0  0  0
  -21.4377  -25.7248   22.0229 C   0  0  0  0  0  0  0  0  0  0  0  0
  -26.0009  -17.0932   20.4978 C   0  0  0  0  0  0  0  0  0  0  0  0
  -23.5934  -36.6914   22.0771 C   0  0  0  0  0  0  0  0  0  0  0  0
  -24.0983  -30.5962   19.8377 C   0  0  0  0  0  0  0  0  0  0  0  0
  -24.3770  -28.5415   21.9462 C   0  0  0  0  0  0  0  0  0  0  0  0
  -22.7722  -35.5435   22.6586 C   0  0  0  0  0  0  0  0  0  0  0  0
  -28.9391  -14.8896   20.9326 C   0  0  0  0  0  0  0  0  0  0  0  0
  -23.6715  -34.5778   23.4239 C   0  0  0  0  0  0  0  0  0  0  0  0
  -28.3057  -13.5165   20.7322 C   0  0  0  0  0  0  0  0  0  0  0  0
  -27.9766  -15.8769   21.5916 C   0  0  0  0  0  0  0  0  0  0  0  0
  -26.0400  -14.6267   20.6744 C   0  0  0  0  0  0  0  0  0  0  0  0
  -26.6205  -20.2849   19.2405 C   0  0  0  0  0  0  0  0  0  0  0  0
  -26.5743  -20.7932   21.2799 C   0  0  0  0  0  0  0  0  0  0  0  0
  -24.7190  -33.9481   22.4978 C   0  0  1  0  0  0  0  0  0  0  0  0
  -23.3243  -30.6815   21.1496 C   0  0  1  0  0  0  0  0  0  0  0  0
  -26.9800  -13.6394   19.9664 C   0  0  2  0  0  0  0  0  0  0  0  0
  -26.0217  -19.6051   20.4799 C   0  0  0  0  0  0  0  0  0  0  0  0
  -26.4561  -22.9446   17.5895 C   0  0  0  0  0  0  0  0  0  0  0  0
  -31.1002  -25.6143   17.7988 C   0  0  0  0  0  0  0  0  0  0  0  0
  -19.7066  -23.9431   22.3782 C   0  0  0  0  0  0  0  0  0  0  0  0
  -22.5600  -29.0885   25.4203 C   0  0  0  0  0  0  0  0  0  0  0  0
  -21.5989  -26.7806   25.5547 C   0  0  0  0  0  0  0  0  0  0  0  0
  -20.1601  -28.6893   24.8409 C   0  0  0  0  0  0  0  0  0  0  0  0
  -21.3281  -25.0925   19.1338 C   0  0  0  0  0  0  0  0  0  0  0  0
  -30.4421  -23.4334   22.5925 C   0  0  0  0  0  0  0  0  0  0  0  0
  -29.4805  -27.1813   18.9312 C   0  0  0  0  0  0  0  0  0  1  0  0
  -30.2509  -25.8591   19.0492 C   0  0  1  0  0  0  0  0  0  0  0  0
  -21.9323  -27.8154   23.2636 C   0  0  1  0  0  0  0  0  0  0  0  0
  -20.2886  -24.9523   21.4007 C   0  0  2  0  0  0  0  0  0  0  0  0
  -21.5844  -28.0991   24.7522 C   0  0  0  0  0  0  0  0  0  0  0  0
  -25.4332  -11.8471   20.6588 N   0  0  0  0  0  0  0  0  0  0  0  0
  -26.3248  -12.2868   19.7544 N   0  0  0  0  0  0  0  0  0  0  0  0
  -26.7512  -21.4411   20.0389 N   0  0  0  0  0  0  0  0  0  0  0  0
  -23.1753  -29.3799   21.8037 N   0  0  0  0  0  0  0  0  0  0  0  0
  -26.6839  -15.9282   20.8904 N   0  0  0  0  0  0  0  0  0  0  0  0
  -27.3966  -11.7080   17.7229 N   0  0  0  0  0  0  0  0  0  0  0  0
  -24.7231   -8.1606   18.5378 N   0  0  0  0  0  0  0  0  0  0  0  0
  -24.1221  -32.8997   21.6985 N   0  0  0  0  0  0  0  0  0  0  0  0
  -21.0093  -26.9027   22.5977 N   0  0  0  0  0  0  0  0  0  0  0  0
  -26.6196  -18.2975   20.8188 N   0  0  0  0  0  0  0  0  0  0  0  0
  -20.7532  -24.2192   20.1892 N   0  3  0  0  0  0  0  0  0  0  0  0
  -26.2724   -9.0304   17.0880 O   0  0  0  0  0  0  0  0  0  0  0  0
  -24.3071  -31.1653   23.2413 O   0  0  0  0  0  0  0  0  0  0  0  0
  -20.9348  -29.7542   22.3296 O   0  0  0  0  0  0  0  0  0  0  0  0
  -22.5986  -25.3218   22.0045 O   0  0  0  0  0  0  0  0  0  0  0  0
  -24.9142  -17.0693   19.9097 O   0  0  0  0  0  0  0  0  0  0  0  0
  -21.3120   -7.5404   22.8985 O   0  0  0  0  0  0  0  0  0  0  0  0
  -30.3915  -24.2478   21.4229 O   0  0  0  0  0  0  0  0  0  0  0  0
  -28.7966  -27.4471   20.1551 O   0  0  0  0  0  0  0  0  0  1  0  0
  -22.3827   -2.1630   23.4827 F   0  0  0  0  0  0  0  0  0  0  0  0
  -21.5319   -6.4025   25.4084 F   0  0  0  0  0  0  0  0  0  0  0  0
  1  2  1  0  0  0  0
  1  5  2  0  0  0  0
  2  6  2  0  0  0  0
  3  8  2  0  0  0  0
  3 17  1  0  0  0  0
  4  9  1  0  0  0  0
  4 17  2  0  0  0  0
  5 19  1  0  0  0  0
  6 21  1  0  0  0  0
  7 10  2  0  0  0  0
  7 20  1  0  0  0  0
  8 26  1  0  0  0  0
  9 26  2  0  0  0  0
 10 27  1  0  0  0  0
 11 12  2  0  0  0  0
 11 28  1  0  0  0  0
 12 30  1  0  0  0  0
 13 22  1  0  0  0  0
 13 27  2  0  0  0  0
 14 23  2  0  0  0  0
 14 24  1  0  0  0  0
 15 25  2  0  0  0  0
 15 29  1  0  0  0  0
 16 30  2  0  0  0  0
 16 31  1  0  0  0  0
 17 32  1  0  0  0  0
 18 32  1  0  0  0  0
 18 33  2  0  0  0  0
 18 34  1  0  0  0  0
 19 21  2  0  0  0  0
 19 39  1  0  0  0  0
 20 22  2  0  0  0  0
 20 40  1  0  0  0  0
 21 50  1  0  0  0  0
 22 41  1  0  0  0  0
 23 25  1  0  0  0  0
 23 54  1  0  0  0  0
 24 29  2  0  0  0  0
 24 63  1  0  0  0  0
 25 69  1  0  0  0  0
 26 83  1  0  0  0  0
 27 85  1  0  0  0  0
 28 31  2  0  0  0  0
 28 83  1  0  0  0  0
 29 84  1  0  0  0  0
 30 86  1  0  0  0  0
 31 87  1  0  0  0  0
 32 67  2  0  0  0  0
 33 68  1  0  0  0  0
 33 72  1  0  0  0  0
 34 73  1  0  0  0  0
 34 78  2  0  0  0  0
 35 51  1  0  0  0  0
 35 74  1  0  0  0  0
 35 79  2  0  0  0  0
 36 64  1  0  0  0  0
 36 70  1  0  0  0  0
 36 80  2  0  0  0  0
 37 65  1  0  0  0  0
 37 75  1  0  0  0  0
 37 81  2  0  0  0  0
 38 71  1  0  0  0  0
 38 76  1  0  0  0  0
 38 82  2  0  0  0  0
 39 42  1  0  0  0  0
 40 51  1  0  0  0  0
 41 70  1  0  0  0  0
 42 44  1  0  0  0  0
 43 45  1  0  0  0  0
 43 46  1  0  0  0  0
 44 50  1  0  0  0  0
 45 52  1  0  0  0  0
 46 71  1  0  0  0  0
 47 52  1  0  0  0  0
 47 71  1  0  0  0  0
 48 53  1  0  0  0  0
 48 69  1  0  0  0  0
 49 53  1  0  0  0  0
 49 69  1  0  0  0  0
 50 74  1  0  0  0  0
 51 70  1  0  0  0  0
 52 68  1  0  0  0  0
 53 76  1  0  0  0  0
 55 63  1  0  0  0  0
 56 65  1  0  0  0  0
 57 66  1  0  0  0  0
 58 66  1  0  0  0  0
 59 66  1  0  0  0  0
 60 77  1  0  0  0  0
 61 84  1  0  0  0  0
 62 63  1  0  0  0  0
 62 85  1  0  0  0  0
 64 66  1  0  0  0  0
 64 75  1  0  0  0  0
 65 77  1  0  0  0  0
 67 68  1  0  0  0  0
M  CHG  1  77   1
M  ISO  4  38 100  62 101  76 100  85 101
M  END
> <Batch ID>
0162

> <Smiles>
CNC(C)C(=O)NC(C(=O)N1Cc2cc([101O:1][101CH2:1]C(C)c3cc(C)c(N4CC([100NH:0][100C:0](=O)N5CCCC(n6nc(-c7ccc(Oc8ccc(F)cc8F)cc7)c(C(N)=O)c6N)C5)C4)cc3OC)ccc2CC1C(=O)NC1CCCc2ccccc21)C(C)(C)C

> <Shape>
0.307

> <Color>
0.080

> <Negative vol penalty>
0.000

$$$$

  -OEChem-04052322143D

 88 98  0     1  0  0  0  0  0999 V2000
  -16.1058  -26.3803   23.5190 C   0  0  0  0  0  0  0  0  0  0  0  0
  -17.1825  -26.0541   22.7006 C   0  0  0  0  0  0  0  0  0  0  0  0
  -27.5274  -13.7679   19.8063 C   0  0  0  0  0  0  0  0  0  0  0  0
  -25.1644  -14.2480   19.6556 C   0  0  0  0  0  0  0  0  0  0  0  0
  -15.9362  -27.6936   23.9554 C   0  0  0  0  0  0  0  0  0  0  0  0
  -18.0896  -27.0413   22.3172 C   0  0  0  0  0  0  0  0  0  0  0  0
  -22.9025  -25.5166   22.7127 C   0  0  0  0  0  0  0  0  0  0  0  0
  -27.2460  -12.4034   19.8728 C   0  0  0  0  0  0  0  0  0  0  0  0
  -24.8830  -12.8835   19.7220 C   0  0  0  0  0  0  0  0  0  0  0  0
  -23.3920  -24.6858   21.7057 C   0  0  0  0  0  0  0  0  0  0  0  0
  -24.7020  -10.4901   22.1032 C   0  0  0  0  0  0  0  0  0  0  0  0
  -23.6731  -10.0812   22.9516 C   0  0  0  0  0  0  0  0  0  0  0  0
  -32.7732  -23.9118   19.1534 C   0  0  0  0  0  0  0  0  0  0  0  0
  -24.4654  -26.5823   20.6712 C   0  0  0  0  0  0  0  0  0  0  0  0
  -22.4924   -9.1395   21.0657 C   0  0  0  0  0  0  0  0  0  0  0  0
  -26.4867  -14.6903   19.6978 C   0  0  0  0  0  0  0  0  0  0  0  0
  -27.4463  -16.8776   20.5933 C   0  0  0  0  0  0  0  0  0  0  0  0
  -16.8471  -28.6955   23.5850 C   0  0  0  0  0  0  0  0  0  0  0  0
  -23.1822  -26.8906   22.7005 C   0  0  0  0  0  0  0  0  0  0  0  0
  -17.9312  -28.3695   22.7479 C   0  0  0  0  0  0  0  0  0  0  0  0
  -32.2374  -23.5786   17.8986 C   0  0  0  0  0  0  0  0  0  0  0  0
  -23.9804  -27.4279   21.6806 C   0  0  0  0  0  0  0  0  0  0  0  0
  -30.8874  -23.1852   17.7980 C   0  0  0  0  0  0  0  0  0  0  0  0
  -31.9759  -23.8924   20.2959 C   0  0  0  0  0  0  0  0  0  0  0  0
  -30.6346  -23.5404   20.1974 C   0  0  0  0  0  0  0  0  0  0  0  0
  -25.9238  -11.9612   19.8306 C   0  0  0  0  0  0  0  0  0  0  0  0
  -24.1712  -25.2191   20.6832 C   0  0  0  0  0  0  0  0  0  0  0  0
  -24.6261  -10.2238   20.7360 C   0  0  0  0  0  0  0  0  0  0  0  0
  -30.0930  -23.1955   18.9586 C   0  0  0  0  0  0  0  0  0  0  0  0
  -22.5683   -9.4058   22.4329 C   0  0  0  0  0  0  0  0  0  0  0  0
  -23.5213   -9.5484   20.2173 C   0  0  0  0  0  0  0  0  0  0  0  0
  -26.7767  -16.1000   19.6296 C   0  0  0  0  0  0  0  0  0  0  0  0
  -27.4664  -18.1431   20.0597 C   0  0  0  0  0  0  0  0  0  0  0  0
  -28.0006  -16.4907   21.8577 C   0  0  0  0  0  0  0  0  0  0  0  0
  -21.4292  -29.5350   22.5050 C   0  0  0  0  0  0  0  0  0  0  0  0
  -24.2782  -30.9955   23.0267 C   0  0  0  0  0  0  0  0  0  0  0  0
  -27.6831  -30.8531   22.8452 C   0  0  0  0  0  0  0  0  0  0  0  0
  -28.2447  -21.5924   15.7421 C   0  0  0  0  0  0  0  0  0  0  0  0
  -16.5958  -30.1104   24.0428 C   0  0  0  0  0  0  0  0  0  0  0  0
  -22.6689  -27.7687   23.8086 C   0  0  0  0  0  0  0  0  0  0  0  0
  -33.1472  -23.6085   16.6959 C   0  0  0  0  0  0  0  0  0  0  0  0
  -24.3264  -28.8930   21.6329 C   0  0  0  0  0  0  0  0  0  0  0  0
  -17.8112  -31.0225   23.8978 C   0  0  0  0  0  0  0  0  0  0  0  0
  -32.3861  -23.6531   15.3747 C   0  0  0  0  0  0  0  0  0  0  0  0
  -25.0428  -20.0680   16.0589 C   0  0  0  0  0  0  0  0  0  0  0  0
  -18.4514  -30.8444   22.5247 C   0  0  0  0  0  0  0  0  0  0  0  0
  -31.3088  -22.5774   15.3576 C   0  0  0  0  0  0  0  0  0  0  0  0
  -25.2653  -18.9606   17.0904 C   0  0  0  0  0  0  0  0  0  0  0  0
  -26.4796  -23.6635   18.1236 C   0  0  0  0  0  0  0  0  0  0  0  0
  -27.1654  -24.5770   19.9245 C   0  0  0  0  0  0  0  0  0  0  0  0
  -26.2553  -20.2417   15.1469 C   0  0  0  0  0  0  0  0  0  0  0  0
  -27.7571  -19.3431   16.8820 C   0  0  0  0  0  0  0  0  0  0  0  0
  -18.9504  -29.4075   22.3308 C   0  0  1  0  0  0  0  0  0  0  0  0
  -30.2699  -22.8367   16.4560 C   0  0  1  0  0  0  0  0  0  0  0  0
  -22.5875  -29.2406   23.4156 C   0  0  1  0  0  0  0  0  0  0  0  0
  -26.5832  -19.1683   17.8607 C   0  0  2  0  0  0  0  0  0  0  0  0
  -25.8950  -24.7411   19.0620 C   0  0  0  0  0  0  0  0  0  1  0  0
  -27.8782  -24.0144   18.6755 C   0  0  0  0  0  0  0  0  0  0  0  0
  -32.5840  -24.2605   21.6095 C   0  0  0  0  0  0  0  0  0  0  0  0
  -29.7696  -23.5380   21.4182 C   0  0  0  0  0  0  0  0  0  0  0  0
  -29.7393  -32.2146   23.3101 C   0  0  0  0  0  0  0  0  0  0  0  0
  -23.7496  -32.6467   20.5159 C   0  0  0  0  0  0  0  0  0  0  0  0
  -26.1750  -33.2673   20.4977 C   0  0  0  0  0  0  0  0  0  0  0  0
  -24.7336  -33.9324   22.4219 C   0  0  0  0  0  0  0  0  0  0  0  0
  -28.6883  -28.8783   24.8071 C   0  0  0  0  0  0  0  0  0  0  0  0
  -25.3940  -31.5073   22.1480 C   0  0  1  0  0  0  0  0  0  0  0  0
  -28.7609  -31.1885   23.8603 C   0  0  2  0  0  0  0  0  0  0  0  0
  -25.0051  -32.8111   21.3954 C   0  0  0  0  0  0  0  0  0  0  0  0
  -26.3987  -16.8119   18.5646 N   0  0  0  0  0  0  0  0  0  0  0  0
  -26.8321  -18.0502   18.8559 N   0  0  0  0  0  0  0  0  0  0  0  0
  -23.7957  -29.7117   22.7355 N   0  0  0  0  0  0  0  0  0  0  0  0
  -27.4718  -20.4362   15.9394 N   0  0  0  0  0  0  0  0  0  0  0  0
  -27.9646  -19.3151   20.5076 N   0  0  0  0  0  0  0  0  0  0  0  0
  -27.8927  -15.1503   22.2525 N   0  0  0  0  0  0  0  0  0  0  0  0
  -20.1972  -29.2057   23.0373 N   0  0  0  0  0  0  0  0  0  0  0  0
  -26.5636  -31.6410   23.0097 N   0  0  0  0  0  0  0  0  0  0  0  0
  -29.3781  -21.7015   16.5386 N   0  0  0  0  0  0  0  0  0  0  0  0
  -29.5237  -29.9628   24.2301 N   0  3  0  0  0  0  0  0  0  0  0  0
  -28.5602  -17.3127   22.6224 O   0  0  0  0  0  0  0  0  0  0  0  0
  -21.6376  -30.0259   21.4017 O   0  0  0  0  0  0  0  0  0  0  0  0
  -23.8553  -31.7058   23.9423 O   0  0  0  0  0  0  0  0  0  0  0  0
  -27.8221  -29.9820   21.9894 O   0  0  0  0  0  0  0  0  0  0  0  0
  -27.9439  -22.4655   14.9210 O   0  0  0  0  0  0  0  0  0  0  0  0
  -25.6488  -10.6297   19.8952 O   0  0  0  0  0  0  0  0  0  0  0  0
  -24.6497  -24.4106   19.6987 O   0  0  0  0  0  0  0  0  0  1  0  0
  -28.7626  -22.9033   18.8968 O   0  0  0  0  0  0  0  0  0  0  0  0
  -21.5811   -9.0119   23.2479 F   0  0  0  0  0  0  0  0  0  0  0  0
  -23.4434   -9.2887   18.9050 F   0  0  0  0  0  0  0  0  0  0  0  0
  1  2  1  0  0  0  0
  1  5  2  0  0  0  0
  2  6  2  0  0  0  0
  3  8  2  0  0  0  0
  3 16  1  0  0  0  0
  4  9  1  0  0  0  0
  4 16  2  0  0  0  0
  5 18  1  0  0  0  0
  6 20  1  0  0  0  0
  7 10  2  0  0  0  0
  7 19  1  0  0  0  0
  8 26  1  0  0  0  0
  9 26  2  0  0  0  0
 10 27  1  0  0  0  0
 11 12  2  0  0  0  0
 11 28  1  0  0  0  0
 12 30  1  0  0  0  0
 13 21  2  0  0  0  0
 13 24  1  0  0  0  0
 14 22  1  0  0  0  0
 14 27  2  0  0  0  0
 15 30  2  0  0  0  0
 15 31  1  0  0  0  0
 16 32  1  0  0  0  0
 17 32  1  0  0  0  0
 17 33  2  0  0  0  0
 17 34  1  0  0  0  0
 18 20  2  0  0  0  0
 18 39  1  0  0  0  0
 19 22  2  0  0  0  0
 19 40  1  0  0  0  0
 20 53  1  0  0  0  0
 21 23  1  0  0  0  0
 21 41  1  0  0  0  0
 22 42  1  0  0  0  0
 23 29  2  0  0  0  0
 23 54  1  0  0  0  0
 24 25  2  0  0  0  0
 24 59  1  0  0  0  0
 25 29  1  0  0  0  0
 25 60  1  0  0  0  0
 26 84  1  0  0  0  0
 27 85  1  0  0  0  0
 28 31  2  0  0  0  0
 28 84  1  0  0  0  0
 29 86  1  0  0  0  0
 30 87  1  0  0  0  0
 31 88  1  0  0  0  0
 32 69  2  0  0  0  0
 33 70  1  0  0  0  0
 33 73  1  0  0  0  0
 34 74  1  0  0  0  0
 34 79  2  0  0  0  0
 35 55  1  0  0  0  0
 35 75  1  0  0  0  0
 35 80  2  0  0  0  0
 36 66  1  0  0  0  0
 36 71  1  0  0  0  0
 36 81  2  0  0  0  0
 37 67  1  0  0  0  0
 37 76  1  0  0  0  0
 37 82  2  0  0  0  0
 38 72  1  0  0  0  0
 38 77  1  0  0  0  0
 38 83  2  0  0  0  0
 39 43  1  0  0  0  0
 40 55  1  0  0  0  0
 41 44  1  0  0  0  0
 42 71  1  0  0  0  0
 43 46  1  0  0  0  0
 44 47  1  0  0  0  0
 45 48  1  0  0  0  0
 45 51  1  0  0  0  0
 46 53  1  0  0  0  0
 47 54  1  0  0  0  0
 48 56  1  0  0  0  0
 49 57  1  0  0  0  0
 49 58  1  0  0  0  0
 50 57  1  0  0  0  0
 50 58  1  0  0  0  0
 51 72  1  0  0  0  0
 52 56  1  0  0  0  0
 52 72  1  0  0  0  0
 53 75  1  0  0  0  0
 54 77  1  0  0  0  0
 55 71  1  0  0  0  0
 56 70  1  0  0  0  0
 57 85  1  0  0  0  0
 58 86  1  0  0  0  0
 61 67  1  0  0  0  0
 62 68  1  0  0  0  0
 63 68  1  0  0  0  0
 64 68  1  0  0  0  0
 65 78  1  0  0  0  0
 66 68  1  0  0  0  0
 66 76  1  0  0  0  0
 67 78  1  0  0  0  0
 69 70  1  0  0  0  0
M  CHG  1  78   1
M  ISO  4  38 100  57 101  77 100  85 101
M  END
> <Batch ID>
0162

> <Smiles>
CNC(C)C(=O)NC(C(=O)N1Cc2cc([101O:1][101CH:1]3CC(Oc4c(C)c(C)cc5c4C([100NH:0][100C:0](=O)N4CCCC(n6nc(-c7ccc(Oc8ccc(F)cc8F)cc7)c(C(N)=O)c6N)C4)CCC5)C3)ccc2CC1C(=O)NC1CCCc2ccccc21)C(C)(C)C

> <Shape>
0.244

> <Color>
0.065

> <Negative vol penalty>
0.000

$$$$

  -OEChem-04052322143D

 87 96  0     1  0  0  0  0  0999 V2000
  -27.3416  -19.4464   14.1006 C   0  0  0  0  0  0  0  0  0  0  0  0
  -27.8682  -19.0930   15.3388 C   0  0  0  0  0  0  0  0  0  0  0  0
  -22.6045  -28.7706   19.5663 C   0  0  0  0  0  0  0  0  0  0  0  0
  -22.9507  -29.8099   21.7197 C   0  0  0  0  0  0  0  0  0  0  0  0
  -25.9602  -19.5195   13.9270 C   0  0  0  0  0  0  0  0  0  0  0  0
  -27.0136  -18.8136   16.4046 C   0  0  0  0  0  0  0  0  0  0  0  0
  -28.3885  -14.6638   18.9608 C   0  0  0  0  0  0  0  0  0  0  0  0
  -21.2397  -29.0454   19.6531 C   0  0  0  0  0  0  0  0  0  0  0  0
  -21.5859  -30.0848   21.8064 C   0  0  0  0  0  0  0  0  0  0  0  0
  -29.4507  -14.7895   19.8550 C   0  0  0  0  0  0  0  0  0  0  0  0
  -18.1404  -30.7403   22.7595 C   0  0  0  0  0  0  0  0  0  0  0  0
  -17.5016  -30.4762   23.9710 C   0  0  0  0  0  0  0  0  0  0  0  0
  -31.7153  -19.7088   22.4852 C   0  0  0  0  0  0  0  0  0  0  0  0
  -27.8850  -14.9474   21.6833 C   0  0  0  0  0  0  0  0  0  0  0  0
  -29.7285  -18.5288   21.7970 C   0  0  0  0  0  0  0  0  0  0  0  0
  -18.1109  -28.1458   23.7843 C   0  0  0  0  0  0  0  0  0  0  0  0
  -23.4600  -29.1528   20.5996 C   0  0  0  0  0  0  0  0  0  0  0  0
  -25.8689  -29.6895   19.9543 C   0  0  0  0  0  0  0  0  0  0  0  0
  -25.0880  -19.2313   14.9886 C   0  0  0  0  0  0  0  0  0  0  0  0
  -27.0640  -14.6899   19.4207 C   0  0  0  0  0  0  0  0  0  0  0  0
  -25.6192  -18.8841   16.2455 C   0  0  0  0  0  0  0  0  0  0  0  0
  -31.3820  -20.7881   21.6524 C   0  0  0  0  0  0  0  0  0  0  0  0
  -26.8078  -14.8192   20.7932 C   0  0  0  0  0  0  0  0  0  0  0  0
  -30.2014  -20.7373   20.8888 C   0  0  0  0  0  0  0  0  0  0  0  0
  -30.8952  -18.5836   22.5528 C   0  0  0  0  0  0  0  0  0  0  0  0
  -20.7304  -29.7025   20.7731 C   0  0  0  0  0  0  0  0  0  0  0  0
  -29.1991  -14.9343   21.2162 C   0  0  0  0  0  0  0  0  0  0  0  0
  -18.7644  -29.7071   22.0603 C   0  0  0  0  0  0  0  0  0  0  0  0
  -29.3822  -19.5987   20.9723 C   0  0  0  0  0  0  0  0  0  0  0  0
  -17.4869  -29.1790   24.4834 C   0  0  0  0  0  0  0  0  0  0  0  0
  -18.7497  -28.4099   22.5727 C   0  0  0  0  0  0  0  0  0  0  0  0
  -24.8698  -28.8687   20.5109 C   0  0  0  0  0  0  0  0  0  0  0  0
  -27.0300  -28.9734   20.1142 C   0  0  0  0  0  0  0  0  0  0  0  0
  -25.7575  -30.9835   19.3471 C   0  0  0  0  0  0  0  0  0  0  0  0
  -24.5579  -16.5839   18.9353 C   0  0  0  0  0  0  0  0  0  0  0  0
  -23.0142  -14.3418   20.6996 C   0  0  0  0  0  0  0  0  0  0  0  0
  -23.2009  -11.8540   23.0283 C   0  0  0  0  0  0  0  0  0  0  0  0
  -29.9430  -24.3586   19.9822 C   0  0  0  0  0  0  0  0  0  0  0  0
  -23.6028  -19.3697   14.7659 C   0  0  0  0  0  0  0  0  0  0  0  0
  -25.9300  -14.5262   18.4463 C   0  0  0  0  0  0  0  0  0  0  0  0
  -32.2688  -22.0064   21.6474 C   0  0  0  0  0  0  0  0  0  0  0  0
  -25.4046  -14.8328   21.3402 C   0  0  0  0  0  0  0  0  0  0  0  0
  -22.7596  -18.6937   15.8439 C   0  0  0  0  0  0  0  0  0  0  0  0
  -28.0010  -24.8034   22.7927 C   0  0  0  0  0  0  0  0  0  0  0  0
  -23.2854  -19.0458   17.2319 C   0  0  0  0  0  0  0  0  0  0  0  0
  -27.0872  -25.9703   22.4193 C   0  0  0  0  0  0  0  0  0  0  0  0
  -31.9906  -22.9449   20.4792 C   0  0  0  0  0  0  0  0  0  0  0  0
  -28.1629  -23.8417   21.6211 C   0  0  0  0  0  0  0  0  0  0  0  0
  -27.7743  -25.6582   19.9900 C   0  0  0  0  0  0  0  0  0  0  0  0
  -24.7242  -18.5496   17.4190 C   0  0  1  0  0  0  0  0  0  0  0  0
  -29.8014  -21.8797   19.9721 C   0  0  2  0  0  0  0  0  0  0  0  0
  -24.6088  -15.0825   18.9681 C   0  0  1  0  0  0  0  0  0  0  0  0
  -27.5798  -26.6680   21.1392 C   0  0  1  0  0  0  0  0  0  0  0  0
  -29.5122  -22.5746   17.5907 C   0  0  0  0  0  0  0  0  0  0  0  0
  -21.7671  -10.2317   24.2970 C   0  0  0  0  0  0  0  0  0  0  0  0
  -22.0644  -16.6037   22.5138 C   0  0  0  0  0  0  0  0  0  0  0  0
  -21.4711  -14.8825   24.2324 C   0  0  0  0  0  0  0  0  0  0  0  0
  -20.3322  -14.8707   22.0131 C   0  0  0  0  0  0  0  0  0  0  0  0
  -24.6050   -9.5236   21.8637 C   0  0  0  0  0  0  0  0  0  0  0  0
  -27.0380  -19.9949   20.9155 C   0  0  0  0  0  0  0  0  0  0  0  0
  -31.2647  -17.4436   23.4403 C   0  0  0  0  0  0  0  0  0  0  0  0
  -29.9482  -21.4765   18.4976 C   0  0  0  0  0  0  0  0  0  0  0  0
  -32.1316  -16.3701   22.7633 C   0  0  0  0  0  0  0  0  0  0  0  0
  -31.4257  -15.6732   21.6060 C   0  0  0  0  0  0  0  0  0  1  0  0
  -22.7465  -14.1373   22.1711 C   0  0  1  0  0  0  0  0  0  0  0  0
  -22.6163  -10.4533   23.0550 C   0  0  2  0  0  0  0  0  0  0  0  0
  -21.6801  -15.1253   22.7224 C   0  0  0  0  0  0  0  0  0  0  0  0
  -25.3537  -27.7191   20.9885 N   0  0  0  0  0  0  0  0  0  0  0  0
  -26.6697  -27.8123   20.7324 N   0  0  0  0  0  0  0  0  0  0  0  0
  -24.3294  -14.6758   20.3467 N   0  0  0  0  0  0  0  0  0  0  0  0
  -28.6244  -24.5406   20.4220 N   0  0  0  0  0  0  0  0  0  0  0  0
  -30.5487  -23.1190   20.2620 N   0  0  0  0  0  0  0  0  0  0  0  0
  -28.3138  -29.2298   19.7848 N   0  0  0  0  0  0  0  0  0  0  0  0
  -24.4900  -31.5758   19.2642 N   0  0  0  0  0  0  0  0  0  0  0  0
  -24.7382  -17.1256   17.6769 N   0  0  0  0  0  0  0  0  0  0  0  0
  -22.3964  -12.7300   22.3306 N   0  0  0  0  0  0  0  0  0  0  0  0
  -23.7061   -9.4369   23.0432 N   0  3  0  0  0  0  0  0  0  0  0  0
  -26.7502  -31.5894   18.8768 O   0  0  0  0  0  0  0  0  0  0  0  0
  -24.3675  -17.2048   19.9745 O   0  0  0  0  0  0  0  0  0  0  0  0
  -22.0920  -14.2031   19.8922 O   0  0  0  0  0  0  0  0  0  0  0  0
  -24.2630  -12.1431   23.5751 O   0  0  0  0  0  0  0  0  0  0  0  0
  -30.5464  -25.2547   19.3785 O   0  0  0  0  0  0  0  0  0  0  0  0
  -19.3988  -29.9710   20.8580 O   0  0  0  0  0  0  0  0  0  0  0  0
  -28.2144  -19.5141   20.2708 O   0  0  0  0  0  0  0  0  0  0  0  0
  -30.2413  -15.0587   22.0972 O   0  0  0  0  0  0  0  0  0  1  0  0
  -16.8747  -28.9258   25.6476 F   0  0  0  0  0  0  0  0  0  0  0  0
  -19.3485  -27.4134   21.9061 F   0  0  0  0  0  0  0  0  0  0  0  0
  1  2  1  0  0  0  0
  1  5  2  0  0  0  0
  2  6  2  0  0  0  0
  3  8  2  0  0  0  0
  3 17  1  0  0  0  0
  4  9  1  0  0  0  0
  4 17  2  0  0  0  0
  5 19  1  0  0  0  0
  6 21  1  0  0  0  0
  7 10  2  0  0  0  0
  7 20  1  0  0  0  0
  8 26  1  0  0  0  0
  9 26  2  0  0  0  0
 10 27  1  0  0  0  0
 11 12  2  0  0  0  0
 11 28  1  0  0  0  0
 12 30  1  0  0  0  0
 13 22  2  0  0  0  0
 13 25  1  0  0  0  0
 14 23  1  0  0  0  0
 14 27  2  0  0  0  0
 15 25  2  0  0  0  0
 15 29  1  0  0  0  0
 16 30  2  0  0  0  0
 16 31  1  0  0  0  0
 17 32  1  0  0  0  0
 18 32  1  0  0  0  0
 18 33  2  0  0  0  0
 18 34  1  0  0  0  0
 19 21  2  0  0  0  0
 19 39  1  0  0  0  0
 20 23  2  0  0  0  0
 20 40  1  0  0  0  0
 21 50  1  0  0  0  0
 22 24  1  0  0  0  0
 22 41  1  0  0  0  0
 23 42  1  0  0  0  0
 24 29  2  0  0  0  0
 24 51  1  0  0  0  0
 25 61  1  0  0  0  0
 26 83  1  0  0  0  0
 27 85  1  0  0  0  0
 28 31  2  0  0  0  0
 28 83  1  0  0  0  0
 29 84  1  0  0  0  0
 30 86  1  0  0  0  0
 31 87  1  0  0  0  0
 32 68  2  0  0  0  0
 33 69  1  0  0  0  0
 33 73  1  0  0  0  0
 34 74  1  0  0  0  0
 34 78  2  0  0  0  0
 35 52  1  0  0  0  0
 35 75  1  0  0  0  0
 35 79  2  0  0  0  0
 36 65  1  0  0  0  0
 36 70  1  0  0  0  0
 36 80  2  0  0  0  0
 37 66  1  0  0  0  0
 37 76  1  0  0  0  0
 37 81  2  0  0  0  0
 38 71  1  0  0  0  0
 38 72  1  0  0  0  0
 38 82  2  0  0  0  0
 39 43  1  0  0  0  0
 40 52  1  0  0  0  0
 41 47  1  0  0  0  0
 42 70  1  0  0  0  0
 43 45  1  0  0  0  0
 44 46  1  0  0  0  0
 44 48  1  0  0  0  0
 45 50  1  0  0  0  0
 46 53  1  0  0  0  0
 47 72  1  0  0  0  0
 48 71  1  0  0  0  0
 49 53  1  0  0  0  0
 49 71  1  0  0  0  0
 50 75  1  0  0  0  0
 51 62  1  0  0  0  0
 51 72  1  0  0  0  0
 52 70  1  0  0  0  0
 53 69  1  0  0  0  0
 54 62  1  0  0  0  0
 55 66  1  0  0  0  0
 56 67  1  0  0  0  0
 57 67  1  0  0  0  0
 58 67  1  0  0  0  0
 59 77  1  0  0  0  0
 60 84  1  0  0  0  0
 61 63  1  0  0  0  0
 63 64  1  0  0  0  0
 64 85  1  0  0  0  0
 65 67  1  0  0  0  0
 65 76  1  0  0  0  0
 66 77  1  0  0  0  0
 68 69  1  0  0  0  0
M  CHG  1  77   1
M  ISO  4  38 100  64 101  72 100  85 101
M  END
> <Batch ID>
0162

> <Smiles>
CCC1c2c(cc(CC[101CH2:1][101O:1]c3ccc4c(c3)CN(C(=O)C(NC(=O)C(C)NC)C(C)(C)C)C(C(=O)NC3CCCc5ccccc53)C4)cc2OC)CC[100N:0]1[100C:0](=O)N1CCCC(n2nc(-c3ccc(Oc4ccc(F)cc4F)cc3)c(C(N)=O)c2N)C1

> <Shape>
0.241

> <Color>
0.077

> <Negative vol penalty>
0.000

$$$$

  -OEChem-04052322143D

 87 96  0     1  0  0  0  0  0999 V2000
  -28.5328  -11.0699   19.3268 C   0  0  0  0  0  0  0  0  0  0  0  0
  -28.7089  -12.4313   19.1006 C   0  0  0  0  0  0  0  0  0  0  0  0
  -20.0038  -27.9717   23.9543 C   0  0  0  0  0  0  0  0  0  0  0  0
  -20.0689  -27.6435   21.5615 C   0  0  0  0  0  0  0  0  0  0  0  0
  -27.3111  -10.5958   19.8026 C   0  0  0  0  0  0  0  0  0  0  0  0
  -27.6628  -13.3192   19.3491 C   0  0  0  0  0  0  0  0  0  0  0  0
  -29.1824  -17.4679   21.8237 C   0  0  0  0  0  0  0  0  0  0  0  0
  -18.6228  -27.7764   23.9435 C   0  0  0  0  0  0  0  0  0  0  0  0
  -18.6879  -27.4481   21.5507 C   0  0  0  0  0  0  0  0  0  0  0  0
  -29.8310  -18.4519   21.0788 C   0  0  0  0  0  0  0  0  0  0  0  0
  -15.2294  -26.5057   20.9431 C   0  0  0  0  0  0  0  0  0  0  0  0
  -14.7301  -25.4408   20.1934 C   0  0  0  0  0  0  0  0  0  0  0  0
  -27.7792  -19.7161   20.9732 C   0  0  0  0  0  0  0  0  0  0  0  0
  -30.0053  -28.6101   17.8056 C   0  0  0  0  0  0  0  0  0  0  0  0
  -29.5946  -27.8793   20.0715 C   0  0  0  0  0  0  0  0  0  0  0  0
  -16.0179  -23.8952   21.5313 C   0  0  0  0  0  0  0  0  0  0  0  0
  -20.7269  -27.9053   22.7633 C   0  0  0  0  0  0  0  0  0  0  0  0
  -23.1500  -27.1264   22.9352 C   0  0  0  0  0  0  0  0  0  0  0  0
  -26.2526  -11.4795   20.0662 C   0  0  0  0  0  0  0  0  0  0  0  0
  -27.8222  -17.5957   22.1402 C   0  0  0  0  0  0  0  0  0  0  0  0
  -26.4253  -12.8563   19.8276 C   0  0  0  0  0  0  0  0  0  0  0  0
  -27.1163  -18.7336   21.7245 C   0  0  0  0  0  0  0  0  0  0  0  0
  -30.1971  -26.2696   18.3735 C   0  0  0  0  0  0  0  0  0  0  0  0
  -29.6676  -28.9030   19.1268 C   0  0  0  0  0  0  0  0  0  0  0  0
  -30.2701  -27.2933   17.4289 C   0  0  0  0  0  0  0  0  0  0  0  0
  -29.8594  -26.5626   19.6948 C   0  0  0  0  0  0  0  0  0  0  0  0
  -17.9648  -27.5146   22.7417 C   0  0  0  0  0  0  0  0  0  0  0  0
  -29.1287  -19.5748   20.6509 C   0  0  0  0  0  0  0  0  0  0  0  0
  -16.1230  -26.2655   21.9870 C   0  0  0  0  0  0  0  0  0  0  0  0
  -15.1243  -24.1355   20.4875 C   0  0  0  0  0  0  0  0  0  0  0  0
  -16.5172  -24.9602   22.2810 C   0  0  0  0  0  0  0  0  0  0  0  0
  -22.1535  -28.1075   22.7737 C   0  0  0  0  0  0  0  0  0  0  0  0
  -24.3317  -27.8234   22.8709 C   0  0  0  0  0  0  0  0  0  0  0  0
  -23.0192  -25.7114   23.1262 C   0  0  0  0  0  0  0  0  0  0  0  0
  -25.1999  -15.9232   21.4844 C   0  0  0  0  0  0  0  0  0  0  0  0
  -23.8160  -18.0309   23.5252 C   0  0  0  0  0  0  0  0  0  0  0  0
  -23.8917  -21.1037   25.0082 C   0  0  0  0  0  0  0  0  0  0  0  0
  -27.5724  -31.7005   20.5021 C   0  0  0  0  0  0  0  0  0  0  0  0
  -24.9350  -10.9147   20.5348 C   0  0  0  0  0  0  0  0  0  0  0  0
  -27.1438  -16.5383   22.9673 C   0  0  0  0  0  0  0  0  0  0  0  0
  -25.6598  -18.9281   22.0553 C   0  0  0  0  0  0  0  0  0  0  0  0
  -23.9991  -11.9643   21.1286 C   0  0  0  0  0  0  0  0  0  0  0  0
  -25.2259  -32.8015   22.9431 C   0  0  0  0  0  0  0  0  0  0  0  0
  -31.6717  -24.2743   18.7597 C   0  0  0  0  0  0  0  0  0  0  0  0
  -23.9421  -13.1971   20.2321 C   0  0  0  0  0  0  0  0  0  0  0  0
  -31.1096  -23.1046   19.5603 C   0  0  0  0  0  0  0  0  0  0  0  0
  -24.2965  -31.6002   23.1251 C   0  0  0  0  0  0  0  0  0  0  0  0
  -25.6771  -32.9513   21.4919 C   0  0  0  0  0  0  0  0  0  0  0  0
  -25.3561  -30.5417   21.0866 C   0  0  0  0  0  0  0  0  0  0  0  0
  -30.4810  -24.8604   17.9702 C   0  0  1  0  0  0  0  0  0  0  0  0
  -25.3224  -13.8537   20.1086 C   0  0  1  0  0  0  0  0  0  0  0  0
  -25.6282  -16.5245   22.7931 C   0  0  1  0  0  0  0  0  0  0  0  0
  -29.9356  -22.6156   18.7163 C   0  0  2  0  0  0  0  0  0  0  0  0
  -29.2782  -23.9333   18.2789 C   0  0  2  0  0  0  0  0  0  0  0  0
  -24.9193  -30.3164   22.5442 C   0  0  2  0  0  0  0  0  0  0  0  0
  -30.6307  -27.0064   16.0079 C   0  0  0  0  0  0  0  0  0  0  0  0
  -29.7746  -25.4844   20.7255 C   0  0  0  0  0  0  0  0  0  0  0  0
  -28.3439  -23.7732   17.0851 C   0  0  0  0  0  0  0  0  0  0  0  0
  -22.6043  -22.5551   26.5998 C   0  0  0  0  0  0  0  0  0  0  0  0
  -21.7796  -18.6255   21.3321 C   0  0  0  0  0  0  0  0  0  0  0  0
  -21.1397  -20.6968   22.5844 C   0  0  0  0  0  0  0  0  0  0  0  0
  -20.8151  -18.4569   23.6333 C   0  0  0  0  0  0  0  0  0  0  0  0
  -26.1520  -21.2170   26.9153 C   0  0  0  0  0  0  0  0  0  0  0  0
  -29.3838  -30.3107   19.5294 C   0  0  0  0  0  0  0  0  0  0  0  0
  -29.0127  -21.6964   19.4874 C   0  0  0  0  0  0  0  0  0  1  0  0
  -23.1552  -19.3807   23.3824 C   0  0  1  0  0  0  0  0  0  0  0  0
  -23.7169  -21.5284   26.4550 C   0  0  2  0  0  0  0  0  0  0  0  0
  -21.7494  -19.2857   22.7250 C   0  0  0  0  0  0  0  0  0  0  0  0
  -22.6582  -29.3344   22.6186 N   0  0  0  0  0  0  0  0  0  0  0  0
  -23.9847  -29.1289   22.6824 N   0  0  0  0  0  0  0  0  0  0  0  0
  -25.0393  -17.8635   22.8609 N   0  0  0  0  0  0  0  0  0  0  0  0
  -26.2598  -31.6997   21.0021 N   0  0  0  0  0  0  0  0  0  0  0  0
  -25.6234  -27.4408   22.9578 N   0  0  0  0  0  0  0  0  0  0  0  0
  -21.7317  -25.1591   23.1677 N   0  0  0  0  0  0  0  0  0  0  0  0
  -25.6249  -14.6217   21.2973 N   0  0  0  0  0  0  0  0  0  0  0  0
  -23.1531  -19.9771   24.7138 N   0  0  0  0  0  0  0  0  0  0  0  0
  -28.0501  -30.4714   20.0642 N   0  0  0  0  0  0  0  0  0  0  0  0
  -24.9788  -22.1264   26.9755 N   0  3  0  0  0  0  0  0  0  0  0  0
  -24.0140  -24.9615   23.2727 O   0  0  0  0  0  0  0  0  0  0  0  0
  -24.5320  -16.5902   20.7029 O   0  0  0  0  0  0  0  0  0  0  0  0
  -23.2705  -17.1597   24.2071 O   0  0  0  0  0  0  0  0  0  0  0  0
  -24.6086  -21.7127   24.2172 O   0  0  0  0  0  0  0  0  0  0  0  0
  -28.2691  -32.7200   20.4547 O   0  0  0  0  0  0  0  0  0  0  0  0
  -16.6172  -27.3238   22.7309 O   0  0  0  0  0  0  0  0  0  0  0  0
  -29.7593  -20.5363   19.9232 O   0  0  0  0  0  0  0  0  0  1  0  0
  -14.6436  -23.1128   19.7684 F   0  0  0  0  0  0  0  0  0  0  0  0
  -17.3744  -24.7230   23.2834 F   0  0  0  0  0  0  0  0  0  0  0  0
  1  2  1  0  0  0  0
  1  5  2  0  0  0  0
  2  6  2  0  0  0  0
  3  8  2  0  0  0  0
  3 17  1  0  0  0  0
  4  9  1  0  0  0  0
  4 17  2  0  0  0  0
  5 19  1  0  0  0  0
  6 21  1  0  0  0  0
  7 10  2  0  0  0  0
  7 20  1  0  0  0  0
  8 27  1  0  0  0  0
  9 27  2  0  0  0  0
 10 28  1  0  0  0  0
 11 12  2  0  0  0  0
 11 29  1  0  0  0  0
 12 30  1  0  0  0  0
 13 22  1  0  0  0  0
 13 28  2  0  0  0  0
 14 24  1  0  0  0  0
 14 25  2  0  0  0  0
 15 24  2  0  0  0  0
 15 26  1  0  0  0  0
 16 30  2  0  0  0  0
 16 31  1  0  0  0  0
 17 32  1  0  0  0  0
 18 32  1  0  0  0  0
 18 33  2  0  0  0  0
 18 34  1  0  0  0  0
 19 21  2  0  0  0  0
 19 39  1  0  0  0  0
 20 22  2  0  0  0  0
 20 40  1  0  0  0  0
 21 51  1  0  0  0  0
 22 41  1  0  0  0  0
 23 25  1  0  0  0  0
 23 26  2  0  0  0  0
 23 50  1  0  0  0  0
 24 64  1  0  0  0  0
 25 56  1  0  0  0  0
 26 57  1  0  0  0  0
 27 84  1  0  0  0  0
 28 85  1  0  0  0  0
 29 31  2  0  0  0  0
 29 84  1  0  0  0  0
 30 86  1  0  0  0  0
 31 87  1  0  0  0  0
 32 69  2  0  0  0  0
 33 70  1  0  0  0  0
 33 73  1  0  0  0  0
 34 74  1  0  0  0  0
 34 79  2  0  0  0  0
 35 52  1  0  0  0  0
 35 75  1  0  0  0  0
 35 80  2  0  0  0  0
 36 66  1  0  0  0  0
 36 71  1  0  0  0  0
 36 81  2  0  0  0  0
 37 67  1  0  0  0  0
 37 76  1  0  0  0  0
 37 82  2  0  0  0  0
 38 72  1  0  0  0  0
 38 77  1  0  0  0  0
 38 83  2  0  0  0  0
 39 42  1  0  0  0  0
 40 52  1  0  0  0  0
 41 71  1  0  0  0  0
 42 45  1  0  0  0  0
 43 47  1  0  0  0  0
 43 48  1  0  0  0  0
 44 46  1  0  0  0  0
 44 50  1  0  0  0  0
 45 51  1  0  0  0  0
 46 53  1  0  0  0  0
 47 55  1  0  0  0  0
 48 72  1  0  0  0  0
 49 55  1  0  0  0  0
 49 72  1  0  0  0  0
 50 54  1  0  0  0  0
 51 75  1  0  0  0  0
 52 71  1  0  0  0  0
 53 54  1  0  0  0  0
 53 65  1  0  0  0  0
 54 58  1  0  0  0  0
 55 70  1  0  0  0  0
 59 67  1  0  0  0  0
 60 68  1  0  0  0  0
 61 68  1  0  0  0  0
 62 68  1  0  0  0  0
 63 78  1  0  0  0  0
 64 77  1  0  0  0  0
 65 85  1  0  0  0  0
 66 68  1  0  0  0  0
 66 76  1  0  0  0  0
 67 78  1  0  0  0  0
 69 70  1  0  0  0  0
M  CHG  1  78   1
M  ISO  4  38 100  65 101  77 100  85 101
M  END
> <Batch ID>
0162

> <Smiles>
CNC(C)C(=O)NC(C(=O)N1Cc2cc([101O:1][101CH2:1]C3CCC(c4c(C)cc(C[100NH:0][100C:0](=O)N5CCCC(n6nc(-c7ccc(Oc8ccc(F)cc8F)cc7)c(C(N)=O)c6N)C5)cc4C)C3C)ccc2CC1C(=O)NC1CCCc2ccccc21)C(C)(C)C

> <Shape>
0.247

> <Color>
0.065

> <Negative vol penalty>
0.000

$$$$

  -OEChem-04052322143D

 87 96  0     1  0  0  0  0  0999 V2000
  -25.7906  -23.4063   25.2423 C   0  0  0  0  0  0  0  0  0  0  0  0
  -26.6242  -24.2148   24.4763 C   0  0  0  0  0  0  0  0  0  0  0  0
  -25.5220  -12.7829   19.6074 C   0  0  0  0  0  0  0  0  0  0  0  0
  -26.6242  -12.3491   21.7131 C   0  0  0  0  0  0  0  0  0  0  0  0
  -24.4268  -23.6864   25.3177 C   0  0  0  0  0  0  0  0  0  0  0  0
  -26.0943  -25.3033   23.7843 C   0  0  0  0  0  0  0  0  0  0  0  0
  -28.9190  -29.4779   24.2730 C   0  0  0  0  0  0  0  0  0  0  0  0
  -24.3414  -12.2389   20.1132 C   0  0  0  0  0  0  0  0  0  0  0  0
  -25.4436  -11.8051   22.2190 C   0  0  0  0  0  0  0  0  0  0  0  0
  -30.0758  -29.5582   23.4990 C   0  0  0  0  0  0  0  0  0  0  0  0
  -23.0532   -9.1633   20.6663 C   0  0  0  0  0  0  0  0  0  0  0  0
  -22.3474   -8.2779   19.8518 C   0  0  0  0  0  0  0  0  0  0  0  0
  -28.9175  -30.9730   21.9255 C   0  0  0  0  0  0  0  0  0  0  0  0
  -20.4310   -9.7478   19.9147 C   0  0  0  0  0  0  0  0  0  0  0  0
  -26.6634  -12.8379   20.4073 C   0  0  0  0  0  0  0  0  0  0  0  0
  -28.6143  -12.9533   18.7676 C   0  0  0  0  0  0  0  0  0  0  0  0
  -23.8815  -24.7845   24.6340 C   0  0  0  0  0  0  0  0  0  0  0  0
  -27.7476  -30.1368   23.8728 C   0  0  0  0  0  0  0  0  0  0  0  0
  -24.7218  -25.5975   23.8495 C   0  0  0  0  0  0  0  0  0  0  0  0
  -27.7479  -30.9016   22.6976 C   0  0  0  0  0  0  0  0  0  0  0  0
  -24.3022  -11.7500   21.4190 C   0  0  0  0  0  0  0  0  0  0  0  0
  -30.0744  -30.3034   22.3236 C   0  0  0  0  0  0  0  0  0  0  0  0
  -22.4479  -10.3409   21.1051 C   0  0  0  0  0  0  0  0  0  0  0  0
  -21.0363   -8.5702   19.4759 C   0  0  0  0  0  0  0  0  0  0  0  0
  -21.1368  -10.6332   20.7293 C   0  0  0  0  0  0  0  0  0  0  0  0
  -27.8834  -13.3992   19.8851 C   0  0  0  0  0  0  0  0  0  0  0  0
  -29.6821  -13.8137   18.6901 C   0  0  0  0  0  0  0  0  0  0  0  0
  -28.3514  -11.8592   17.8791 C   0  0  0  0  0  0  0  0  0  0  0  0
  -24.8117  -29.2106   23.0814 C   0  0  0  0  0  0  0  0  0  0  0  0
  -24.2443  -32.4036   23.0090 C   0  0  0  0  0  0  0  0  0  0  0  0
  -25.4920  -35.5607   22.6588 C   0  0  0  0  0  0  0  0  0  0  0  0
  -30.3828  -19.3868   20.5083 C   0  0  0  0  0  0  0  0  0  0  0  0
  -22.3936  -25.0195   24.7077 C   0  0  0  0  0  0  0  0  0  0  0  0
  -26.5158  -30.0622   24.7327 C   0  0  0  0  0  0  0  0  0  0  0  0
  -26.5222  -31.6444   22.2344 C   0  0  0  0  0  0  0  0  0  0  0  0
  -21.9733  -26.4124   24.2456 C   0  0  0  0  0  0  0  0  0  0  0  0
  -32.4708  -16.5773   21.4274 C   0  0  0  0  0  0  0  0  0  0  0  0
  -22.6649  -26.7710   22.9341 C   0  0  0  0  0  0  0  0  0  0  0  0
  -31.5866  -15.3962   21.0233 C   0  0  0  0  0  0  0  0  0  0  0  0
  -31.7181  -22.7021   21.4756 C   0  0  0  0  0  0  0  0  0  0  0  0
  -32.0030  -21.8650   19.1139 C   0  0  0  0  0  0  0  0  0  0  0  0
  -31.2566  -26.2832   19.3341 C   0  0  0  0  0  0  0  0  0  0  0  0
  -31.6386  -17.7192   22.0033 C   0  0  0  0  0  0  0  0  0  0  0  0
  -29.6652  -17.0224   20.7018 C   0  0  0  0  0  0  0  0  0  0  0  0
  -31.7026  -24.1349   20.9591 C   0  0  0  0  0  0  0  0  0  0  0  0
  -31.9874  -23.3021   18.6095 C   0  0  0  0  0  0  0  0  0  0  0  0
  -31.2991  -27.7334   18.8975 C   0  0  0  0  0  0  0  0  0  0  0  0
  -24.1886  -26.8019   23.1044 C   0  0  1  0  0  0  0  0  0  0  0  0
  -25.2312  -30.3528   23.9629 C   0  0  1  0  0  0  0  0  0  0  0  0
  -33.7057  -26.4012   19.9962 C   0  0  2  0  0  0  0  0  0  0  0  0
  -30.4451  -15.8439   20.0913 C   0  0  2  0  0  0  0  0  0  0  0  0
  -31.2179  -21.7182   20.4174 C   0  0  0  0  0  0  0  0  0  0  0  0
  -32.6285  -25.6380   19.1989 C   0  0  1  0  0  0  0  0  0  0  0  0
  -33.7309  -27.9048   19.5896 C   0  0  2  0  0  0  0  0  0  0  0  0
  -35.0863  -25.7504   19.8084 C   0  0  0  0  0  0  0  0  0  0  0  0
  -34.6988  -28.7188   20.4557 C   0  0  0  0  0  0  0  0  0  0  0  0
  -24.7791  -37.9663   22.6085 C   0  0  0  0  0  0  0  0  0  0  0  0
  -23.1569  -32.0197   20.1841 C   0  0  0  0  0  0  0  0  0  0  0  0
  -23.3559  -34.4925   19.8464 C   0  0  0  0  0  0  0  0  0  0  0  0
  -21.8333  -33.5944   21.6064 C   0  0  0  0  0  0  0  0  0  0  0  0
  -27.1573  -36.2241   25.0137 C   0  0  0  0  0  0  0  0  0  0  0  0
  -32.2177  -29.9618   19.4232 C   0  0  0  0  0  0  0  0  0  0  0  0
  -31.0309  -30.5502   20.1602 C   0  0  0  0  0  0  0  0  0  1  0  0
  -24.3346  -33.4819   21.9563 C   0  0  1  0  0  0  0  0  0  0  0  0
  -25.2826  -36.8230   23.4757 C   0  0  2  0  0  0  0  0  0  0  0  0
  -23.1929  -33.3817   20.9057 C   0  0  0  0  0  0  0  0  0  0  0  0
  -28.4399  -14.4604   20.4752 N   0  0  0  0  0  0  0  0  0  0  0  0
  -29.5319  -14.6884   19.7258 N   0  0  0  0  0  0  0  0  0  0  0  0
  -25.3409  -31.5354   23.1062 N   0  0  0  0  0  0  0  0  0  0  0  0
  -30.5818  -18.1101   21.0596 N   0  0  0  0  0  0  0  0  0  0  0  0
  -30.7254  -13.8998   17.8378 N   0  0  0  0  0  0  0  0  0  0  0  0
  -28.8844  -10.6013   18.1921 N   0  0  0  0  0  0  0  0  0  0  0  0
  -24.5993  -28.0254   23.7592 N   0  0  0  0  0  0  0  0  0  0  0  0
  -24.3760  -34.7511   22.6746 N   0  0  0  0  0  0  0  0  0  0  0  0
  -31.2901  -20.3621   20.9035 N   0  0  0  0  0  0  0  0  0  0  0  0
  -32.5117  -24.2202   19.6872 N   0  3  0  0  0  0  0  0  0  0  0  0
  -32.3137  -28.4847   19.7307 N   0  3  1  0  0  0  0  0  0  0  0  0
  -26.5614  -37.2451   24.1139 N   0  3  0  0  0  0  0  0  0  0  0  0
  -27.6780  -11.9968   16.8297 O   0  0  0  0  0  0  0  0  0  0  0  0
  -24.6884  -29.3916   21.8756 O   0  0  0  0  0  0  0  0  0  0  0  0
  -23.2409  -32.3387   23.7236 O   0  0  0  0  0  0  0  0  0  0  0  0
  -26.5394  -35.3190   22.0630 O   0  0  0  0  0  0  0  0  0  0  0  0
  -29.4669  -19.6379   19.7176 O   0  0  0  0  0  0  0  0  0  0  0  0
  -23.1503  -11.2193   21.9130 O   0  0  0  0  0  0  0  0  0  0  0  0
  -31.2100  -30.3835   21.5604 O   0  0  0  0  0  0  0  0  0  1  0  0
  -20.3591   -7.7206   18.6925 F   0  0  0  0  0  0  0  0  0  0  0  0
  -20.5504  -11.7635   21.1467 F   0  0  0  0  0  0  0  0  0  0  0  0
  1  2  1  0  0  0  0
  1  5  2  0  0  0  0
  2  6  2  0  0  0  0
  3  8  2  0  0  0  0
  3 15  1  0  0  0  0
  4  9  1  0  0  0  0
  4 15  2  0  0  0  0
  5 17  1  0  0  0  0
  6 19  1  0  0  0  0
  7 10  2  0  0  0  0
  7 18  1  0  0  0  0
  8 21  1  0  0  0  0
  9 21  2  0  0  0  0
 10 22  1  0  0  0  0
 11 12  2  0  0  0  0
 11 23  1  0  0  0  0
 12 24  1  0  0  0  0
 13 20  1  0  0  0  0
 13 22  2  0  0  0  0
 14 24  2  0  0  0  0
 14 25  1  0  0  0  0
 15 26  1  0  0  0  0
 16 26  1  0  0  0  0
 16 27  2  0  0  0  0
 16 28  1  0  0  0  0
 17 19  2  0  0  0  0
 17 33  1  0  0  0  0
 18 20  2  0  0  0  0
 18 34  1  0  0  0  0
 19 48  1  0  0  0  0
 20 35  1  0  0  0  0
 21 84  1  0  0  0  0
 22 85  1  0  0  0  0
 23 25  2  0  0  0  0
 23 84  1  0  0  0  0
 24 86  1  0  0  0  0
 25 87  1  0  0  0  0
 26 67  2  0  0  0  0
 27 68  1  0  0  0  0
 27 71  1  0  0  0  0
 28 72  1  0  0  0  0
 28 79  2  0  0  0  0
 29 49  1  0  0  0  0
 29 73  1  0  0  0  0
 29 80  2  0  0  0  0
 30 64  1  0  0  0  0
 30 69  1  0  0  0  0
 30 81  2  0  0  0  0
 31 65  1  0  0  0  0
 31 74  1  0  0  0  0
 31 82  2  0  0  0  0
 32 70  1  0  0  0  0
 32 75  1  0  0  0  0
 32 83  2  0  0  0  0
 33 36  1  0  0  0  0
 34 49  1  0  0  0  0
 35 69  1  0  0  0  0
 36 38  1  0  0  0  0
 37 39  1  0  0  0  0
 37 43  1  0  0  0  0
 38 48  1  0  0  0  0
 39 51  1  0  0  0  0
 40 45  1  0  0  0  0
 40 52  1  0  0  0  0
 41 46  1  0  0  0  0
 41 52  1  0  0  0  0
 42 47  1  0  0  0  0
 42 53  1  0  0  0  0
 43 70  1  0  0  0  0
 44 51  1  0  0  0  0
 44 70  1  0  0  0  0
 45 76  1  0  0  0  0
 46 76  1  0  0  0  0
 47 77  1  0  0  0  0
 48 73  1  0  0  0  0
 49 69  1  0  0  0  0
 50 53  1  0  0  0  0
 50 54  1  0  0  0  0
 50 55  1  0  0  0  0
 51 68  1  0  0  0  0
 52 75  1  0  0  0  0
 53 76  1  0  0  0  0
 54 56  1  0  0  0  0
 54 77  1  0  0  0  0
 57 65  1  0  0  0  0
 58 66  1  0  0  0  0
 59 66  1  0  0  0  0
 60 66  1  0  0  0  0
 61 78  1  0  0  0  0
 62 63  1  0  0  0  0
 62 77  1  0  0  0  0
 63 85  1  0  0  0  0
 64 66  1  0  0  0  0
 64 74  1  0  0  0  0
 65 78  1  0  0  0  0
 67 68  1  0  0  0  0
M  CHG  3  76   1  77   1  78   1
M  ISO  4  32 100  63 101  75 100  85 101
M  END
> <Batch ID>
0162

> <Smiles>
CNC(C)C(=O)NC(C(=O)N1Cc2cc([101O:1][101CH2:1]CN3CCC(N4CCC([100NH:0][100C:0](=O)N5CCCC(n6nc(-c7ccc(Oc8ccc(F)cc8F)cc7)c(C(N)=O)c6N)C5)CC4)C(C)C3C)ccc2CC1C(=O)NC1CCCc2ccccc21)C(C)(C)C

> <Shape>
0.246

> <Color>
0.096

> <Negative vol penalty>
0.000

$$$$

  -OEChem-04052322143D

 87 96  0     1  0  0  0  0  0999 V2000
  -13.1422  -20.1106    5.3602 C   0  0  0  0  0  0  0  0  0  0  0  0
  -14.1943  -19.4202    5.9533 C   0  0  0  0  0  0  0  0  0  0  0  0
  -23.1682   -9.9086   19.8901 C   0  0  0  0  0  0  0  0  0  0  0  0
  -23.7907   -9.9121   22.2246 C   0  0  0  0  0  0  0  0  0  0  0  0
  -12.7412  -21.3431    5.8740 C   0  0  0  0  0  0  0  0  0  0  0  0
  -14.8467  -19.9623    7.0600 C   0  0  0  0  0  0  0  0  0  0  0  0
  -17.2113  -16.8979   11.8059 C   0  0  0  0  0  0  0  0  0  0  0  0
  -22.4259   -8.7447   20.0898 C   0  0  0  0  0  0  0  0  0  0  0  0
  -23.0484   -8.7482   22.4242 C   0  0  0  0  0  0  0  0  0  0  0  0
  -18.5103  -16.4899   12.1057 C   0  0  0  0  0  0  0  0  0  0  0  0
  -19.8009   -7.9058   22.8302 C   0  0  0  0  0  0  0  0  0  0  0  0
  -18.9765   -7.8495   23.9539 C   0  0  0  0  0  0  0  0  0  0  0  0
  -18.8098  -18.4614   13.4632 C   0  0  0  0  0  0  0  0  0  0  0  0
  -20.1973   -5.9238   24.7530 C   0  0  0  0  0  0  0  0  0  0  0  0
  -23.8506  -10.4923   20.9575 C   0  0  0  0  0  0  0  0  0  0  0  0
  -24.1659  -13.0223   20.8706 C   0  0  0  0  0  0  0  0  0  0  0  0
  -13.3826  -21.8962    6.9935 C   0  0  0  0  0  0  0  0  0  0  0  0
  -16.7046  -18.0982   12.3247 C   0  0  0  0  0  0  0  0  0  0  0  0
  -14.4547  -21.2040    7.5885 C   0  0  0  0  0  0  0  0  0  0  0  0
  -17.5031  -18.8811   13.1706 C   0  0  0  0  0  0  0  0  0  0  0  0
  -25.2683  -16.0780   14.5938 C   0  0  0  0  0  0  0  0  0  0  0  0
  -24.8150  -16.4138   13.3181 C   0  0  0  0  0  0  0  0  0  0  0  0
  -24.4446  -16.2776   15.7017 C   0  0  0  0  0  0  0  0  0  0  0  0
  -23.5381  -16.9495   13.1503 C   0  0  0  0  0  0  0  0  0  0  0  0
  -23.1677  -16.8133   15.5338 C   0  0  0  0  0  0  0  0  0  0  0  0
  -22.7144  -17.1493   14.2582 C   0  0  0  0  0  0  0  0  0  0  0  0
  -22.3660   -8.1644   21.3568 C   0  0  0  0  0  0  0  0  0  0  0  0
  -19.3108  -17.2731   12.9321 C   0  0  0  0  0  0  0  0  0  0  0  0
  -20.8235   -6.9711   22.6678 C   0  0  0  0  0  0  0  0  0  0  0  0
  -19.1747   -6.8585   24.9153 C   0  0  0  0  0  0  0  0  0  0  0  0
  -21.0217   -5.9801   23.6293 C   0  0  0  0  0  0  0  0  0  0  0  0
  -24.6180  -11.6944   20.7518 C   0  0  0  0  0  0  0  0  0  0  0  0
  -25.2678  -13.7877   20.5765 C   0  0  0  0  0  0  0  0  0  0  0  0
  -22.8662  -13.5195   21.2160 C   0  0  0  0  0  0  0  0  0  0  0  0
  -15.6499  -20.8186   11.0636 C   0  0  0  0  0  0  0  0  0  0  0  0
  -14.8875  -21.4967   14.1427 C   0  0  0  0  0  0  0  0  0  0  0  0
  -15.4613  -20.9375   17.4601 C   0  0  0  0  0  0  0  0  0  0  0  0
  -29.8436  -13.9776   17.2412 C   0  0  0  0  0  0  0  0  0  0  0  0
  -12.9446  -23.2534    7.4843 C   0  0  0  0  0  0  0  0  0  0  0  0
  -15.2921  -18.5108   12.0134 C   0  0  0  0  0  0  0  0  0  0  0  0
  -16.9995  -20.1680   13.7694 C   0  0  0  0  0  0  0  0  0  0  0  0
  -13.4431  -23.5832    8.8889 C   0  0  0  0  0  0  0  0  0  0  0  0
  -30.1469  -13.0340   20.5532 C   0  0  0  0  0  0  0  0  0  0  0  0
  -14.9247  -23.2457    9.0226 C   0  0  0  0  0  0  0  0  0  0  0  0
  -28.7109  -12.7191   20.9725 C   0  0  0  0  0  0  0  0  0  0  0  0
  -27.5544  -16.4024   15.6365 C   0  0  0  0  0  0  0  0  0  0  0  0
  -26.6124  -14.0710   15.3573 C   0  0  0  0  0  0  0  0  0  0  0  0
  -30.4332  -12.5126   19.1495 C   0  0  0  0  0  0  0  0  0  0  0  0
  -28.9405  -15.7937   15.8347 C   0  0  0  0  0  0  0  0  0  0  0  0
  -28.0191  -13.5153   15.5597 C   0  0  0  0  0  0  0  0  0  0  0  0
  -28.0517  -12.7188   18.5170 C   0  0  0  0  0  0  0  0  0  0  0  0
  -26.6573  -15.4955   14.7766 C   0  0  0  0  0  0  0  0  0  0  0  0
  -15.1710  -21.7477    8.8057 C   0  0  1  0  0  0  0  0  0  0  0  0
  -15.0564  -20.0087   12.1814 C   0  0  1  0  0  0  0  0  0  0  0  0
  -27.7052  -13.2346   19.9280 C   0  0  1  0  0  0  0  0  0  0  0  0
  -25.6989  -16.1994   12.1299 C   0  0  0  0  0  0  0  0  0  0  0  0
  -24.9310  -15.9182   17.0704 C   0  0  0  0  0  0  0  0  0  0  0  0
  -23.0534  -17.3125   11.7820 C   0  0  0  0  0  0  0  0  0  0  0  0
  -22.2837  -17.0281   16.7220 C   0  0  0  0  0  0  0  0  0  0  0  0
  -14.7083  -21.6675   19.7399 C   0  0  0  0  0  0  0  0  0  0  0  0
  -16.4650  -24.0899   13.8309 C   0  0  0  0  0  0  0  0  0  0  0  0
  -16.4852  -24.2959   16.3260 C   0  0  0  0  0  0  0  0  0  0  0  0
  -14.3175  -24.3204   15.0918 C   0  0  0  0  0  0  0  0  0  0  0  0
  -14.5622  -18.2073   18.1645 C   0  0  0  0  0  0  0  0  0  0  0  0
  -21.3452  -17.7255   14.0776 C   0  0  0  0  0  0  0  0  0  1  0  0
  -15.6002  -22.1517   15.3012 C   0  0  1  0  0  0  0  0  0  0  0  0
  -14.5138  -20.6637   18.6141 C   0  0  2  0  0  0  0  0  0  0  0  0
  -15.7274  -23.6913   15.1248 C   0  0  0  0  0  0  0  0  0  0  0  0
  -25.9065  -11.6171   20.4088 N   0  0  0  0  0  0  0  0  0  0  0  0
  -26.2736  -12.9061   20.3095 N   0  0  0  0  0  0  0  0  0  0  0  0
  -15.6138  -20.5320   13.4303 N   0  0  0  0  0  0  0  0  0  0  0  0
  -29.4533  -13.0193   18.1890 N   0  0  0  0  0  0  0  0  0  0  0  0
  -28.8546  -14.4284   16.3514 N   0  0  0  0  0  0  0  0  0  0  0  0
  -25.4647  -15.1222   20.5227 N   0  0  0  0  0  0  0  0  0  0  0  0
  -21.8481  -12.5955   21.4881 N   0  0  0  0  0  0  0  0  0  0  0  0
  -14.8018  -20.9985    9.9875 N   0  0  0  0  0  0  0  0  0  0  0  0
  -14.8823  -21.7455   16.5045 N   0  0  0  0  0  0  0  0  0  0  0  0
  -14.7430  -19.2958   19.1592 N   0  3  0  0  0  0  0  0  0  0  0  0
  -22.6109  -14.7466   21.2653 O   0  0  0  0  0  0  0  0  0  0  0  0
  -16.7920  -21.2497   11.1701 O   0  0  0  0  0  0  0  0  0  0  0  0
  -13.7266  -21.8238   13.8840 O   0  0  0  0  0  0  0  0  0  0  0  0
  -16.6024  -20.4833   17.4130 O   0  0  0  0  0  0  0  0  0  0  0  0
  -31.0020  -14.4097   17.1942 O   0  0  0  0  0  0  0  0  0  0  0  0
  -21.6416   -7.0288   21.5520 O   0  0  0  0  0  0  0  0  0  0  0  0
  -20.5887  -16.8746   13.2279 O   0  0  0  0  0  0  0  0  0  1  0  0
  -18.3839   -6.8055   25.9952 F   0  0  0  0  0  0  0  0  0  0  0  0
  -22.0032   -5.0801   23.4794 F   0  0  0  0  0  0  0  0  0  0  0  0
  1  2  1  0  0  0  0
  1  5  2  0  0  0  0
  2  6  2  0  0  0  0
  3  8  2  0  0  0  0
  3 15  1  0  0  0  0
  4  9  1  0  0  0  0
  4 15  2  0  0  0  0
  5 17  1  0  0  0  0
  6 19  1  0  0  0  0
  7 10  2  0  0  0  0
  7 18  1  0  0  0  0
  8 27  1  0  0  0  0
  9 27  2  0  0  0  0
 10 28  1  0  0  0  0
 11 12  2  0  0  0  0
 11 29  1  0  0  0  0
 12 30  1  0  0  0  0
 13 20  1  0  0  0  0
 13 28  2  0  0  0  0
 14 30  2  0  0  0  0
 14 31  1  0  0  0  0
 15 32  1  0  0  0  0
 16 32  1  0  0  0  0
 16 33  2  0  0  0  0
 16 34  1  0  0  0  0
 17 19  2  0  0  0  0
 17 39  1  0  0  0  0
 18 20  2  0  0  0  0
 18 40  1  0  0  0  0
 19 53  1  0  0  0  0
 20 41  1  0  0  0  0
 21 22  1  0  0  0  0
 21 23  2  0  0  0  0
 21 52  1  0  0  0  0
 22 24  2  0  0  0  0
 22 56  1  0  0  0  0
 23 25  1  0  0  0  0
 23 57  1  0  0  0  0
 24 26  1  0  0  0  0
 24 58  1  0  0  0  0
 25 26  2  0  0  0  0
 25 59  1  0  0  0  0
 26 65  1  0  0  0  0
 27 84  1  0  0  0  0
 28 85  1  0  0  0  0
 29 31  2  0  0  0  0
 29 84  1  0  0  0  0
 30 86  1  0  0  0  0
 31 87  1  0  0  0  0
 32 69  2  0  0  0  0
 33 70  1  0  0  0  0
 33 74  1  0  0  0  0
 34 75  1  0  0  0  0
 34 79  2  0  0  0  0
 35 54  1  0  0  0  0
 35 76  1  0  0  0  0
 35 80  2  0  0  0  0
 36 66  1  0  0  0  0
 36 71  1  0  0  0  0
 36 81  2  0  0  0  0
 37 67  1  0  0  0  0
 37 77  1  0  0  0  0
 37 82  2  0  0  0  0
 38 72  1  0  0  0  0
 38 73  1  0  0  0  0
 38 83  2  0  0  0  0
 39 42  1  0  0  0  0
 40 54  1  0  0  0  0
 41 71  1  0  0  0  0
 42 44  1  0  0  0  0
 43 45  1  0  0  0  0
 43 48  1  0  0  0  0
 44 53  1  0  0  0  0
 45 55  1  0  0  0  0
 46 49  1  0  0  0  0
 46 52  1  0  0  0  0
 47 50  1  0  0  0  0
 47 52  1  0  0  0  0
 48 72  1  0  0  0  0
 49 73  1  0  0  0  0
 50 73  1  0  0  0  0
 51 55  1  0  0  0  0
 51 72  1  0  0  0  0
 53 76  1  0  0  0  0
 54 71  1  0  0  0  0
 55 70  1  0  0  0  0
 60 67  1  0  0  0  0
 61 68  1  0  0  0  0
 62 68  1  0  0  0  0
 63 68  1  0  0  0  0
 64 78  1  0  0  0  0
 65 85  1  0  0  0  0
 66 68  1  0  0  0  0
 66 77  1  0  0  0  0
 67 78  1  0  0  0  0
 69 70  1  0  0  0  0
M  CHG  1  78   1
M  ISO  4  38 100  65 101  73 100  85 101
M  END
> <Batch ID>
0162

> <Smiles>
CNC(C)C(=O)NC(C(=O)N1Cc2cc([101O:1][101CH2:1]c3c(C)c(C)c(C4CC[100N:0]([100C:0](=O)N5CCCC(n6nc(-c7ccc(Oc8ccc(F)cc8F)cc7)c(C(N)=O)c6N)C5)CC4)c(C)c3C)ccc2CC1C(=O)NC1CCCc2ccccc21)C(C)(C)C

> <Shape>
0.136

> <Color>
0.179

> <Negative vol penalty>
0.000

$$$$

  -OEChem-04052322143D

 86 95  0     1  0  0  0  0  0999 V2000
  -26.4972  -34.9830   26.9925 C   0  0  0  0  0  0  0  0  0  0  0  0
  -27.1480  -34.0217   26.2259 C   0  0  0  0  0  0  0  0  0  0  0  0
  -22.7777  -10.2862   21.6476 C   0  0  0  0  0  0  0  0  0  0  0  0
  -24.6542   -8.7757   21.8333 C   0  0  0  0  0  0  0  0  0  0  0  0
  -25.1385  -34.8459   27.2737 C   0  0  0  0  0  0  0  0  0  0  0  0
  -26.4408  -32.9221   25.7411 C   0  0  0  0  0  0  0  0  0  0  0  0
  -27.3084  -30.0496   20.4023 C   0  0  0  0  0  0  0  0  0  0  0  0
  -21.9405   -9.2099   21.3537 C   0  0  0  0  0  0  0  0  0  0  0  0
  -23.8170   -7.6995   21.5394 C   0  0  0  0  0  0  0  0  0  0  0  0
  -27.9962  -28.8848   20.0648 C   0  0  0  0  0  0  0  0  0  0  0  0
  -21.5486   -5.7941   23.1656 C   0  0  0  0  0  0  0  0  0  0  0  0
  -21.6718   -4.6465   23.9488 C   0  0  0  0  0  0  0  0  0  0  0  0
  -29.8918  -22.0631   18.4874 C   0  0  0  0  0  0  0  0  0  0  0  0
  -25.9352  -27.6378   20.1931 C   0  0  0  0  0  0  0  0  0  0  0  0
  -28.6633  -24.0774   17.9048 C   0  0  0  0  0  0  0  0  0  0  0  0
  -22.2285   -3.3622   21.9795 C   0  0  0  0  0  0  0  0  0  0  0  0
  -24.1346  -10.0691   21.8874 C   0  0  0  0  0  0  0  0  0  0  0  0
  -25.2965  -11.7048   23.4628 C   0  0  0  0  0  0  0  0  0  0  0  0
  -24.4120  -33.7491   26.7840 C   0  0  0  0  0  0  0  0  0  0  0  0
  -25.9284  -30.0152   20.6488 C   0  0  0  0  0  0  0  0  0  0  0  0
  -25.0714  -32.7695   26.0171 C   0  0  0  0  0  0  0  0  0  0  0  0
  -29.4016  -22.1672   19.7830 C   0  0  0  0  0  0  0  0  0  0  0  0
  -25.2318  -28.8040   20.5310 C   0  0  0  0  0  0  0  0  0  0  0  0
  -28.5538  -23.2243   20.1386 C   0  0  0  0  0  0  0  0  0  0  0  0
  -29.5154  -23.0239   17.5465 C   0  0  0  0  0  0  0  0  0  0  0  0
  -28.1785  -24.1842   19.2090 C   0  0  0  0  0  0  0  0  0  0  0  0
  -22.4601   -7.9166   21.2997 C   0  0  0  0  0  0  0  0  0  0  0  0
  -27.3102  -27.6782   19.9630 C   0  0  0  0  0  0  0  0  0  0  0  0
  -21.7653   -5.7258   21.7893 C   0  0  0  0  0  0  0  0  0  0  0  0
  -22.0117   -3.4306   23.3558 C   0  0  0  0  0  0  0  0  0  0  0  0
  -22.1053   -4.5099   21.1963 C   0  0  0  0  0  0  0  0  0  0  0  0
  -25.0001  -11.1805   22.1904 C   0  0  0  0  0  0  0  0  0  0  0  0
  -26.1589  -12.7443   23.2135 C   0  0  0  0  0  0  0  0  0  0  0  0
  -24.8337  -11.2893   24.7547 C   0  0  0  0  0  0  0  0  0  0  0  0
  -24.0810  -30.6516   23.1560 C   0  0  0  0  0  0  0  0  0  0  0  0
  -21.6861  -30.1497   21.0265 C   0  0  0  0  0  0  0  0  0  0  0  0
  -20.6531  -28.6929   18.1183 C   0  0  0  0  0  0  0  0  0  0  0  0
  -27.3465  -17.2867   20.3311 C   0  0  0  0  0  0  0  0  0  0  0  0
  -22.9556  -33.6194   27.1538 C   0  0  0  0  0  0  0  0  0  0  0  0
  -25.1964  -31.2853   20.9857 C   0  0  0  0  0  0  0  0  0  0  0  0
  -23.7466  -28.7173   20.7657 C   0  0  0  0  0  0  0  0  0  0  0  0
  -22.1942  -32.6187   26.2884 C   0  0  0  0  0  0  0  0  0  0  0  0
  -28.6003  -14.0780   19.0100 C   0  0  0  0  0  0  0  0  0  0  0  0
  -22.9881  -31.3241   26.1452 C   0  0  0  0  0  0  0  0  0  0  0  0
  -27.7507  -13.0846   19.7971 C   0  0  0  0  0  0  0  0  0  0  0  0
  -28.5933  -21.7295   21.9657 C   0  0  0  0  0  0  0  0  0  0  0  0
  -27.8384  -15.3662   18.7016 C   0  0  0  0  0  0  0  0  0  0  0  0
  -26.4113  -15.0254   20.6995 C   0  0  0  0  0  0  0  0  0  0  0  0
  -28.1558  -23.1606   21.5838 C   0  0  1  0  0  0  0  0  0  0  0  0
  -24.3329  -31.5754   25.4525 C   0  0  1  0  0  0  0  0  0  0  0  0
  -23.8809  -31.0404   21.7185 C   0  0  1  0  0  0  0  0  0  0  0  0
  -27.1770  -13.7434   21.0609 C   0  0  1  0  0  0  0  0  0  0  0  0
  -29.6851  -21.2662   20.9604 C   0  0  2  0  0  0  0  0  0  0  0  0
  -30.0185  -22.9237   16.1453 C   0  0  0  0  0  0  0  0  0  0  0  0
  -28.8157  -24.2426   22.4286 C   0  0  0  0  0  0  0  0  0  0  0  0
  -31.0990  -21.5071   21.5038 C   0  0  0  0  0  0  0  0  0  0  0  0
  -18.6303  -28.4308   16.6564 C   0  0  0  0  0  0  0  0  0  0  0  0
  -20.5290  -28.1254   22.9946 C   0  0  0  0  0  0  0  0  0  0  0  0
  -19.1095  -27.2335   21.1351 C   0  0  0  0  0  0  0  0  0  0  0  0
  -18.8325  -29.5946   21.8910 C   0  0  0  0  0  0  0  0  0  0  0  0
  -21.9915  -30.0112   15.8314 C   0  0  0  0  0  0  0  0  0  0  0  0
  -27.2534  -25.3051   19.5344 C   0  0  0  0  0  0  0  0  0  1  0  0
  -29.5084  -19.7801   20.6251 C   0  0  0  0  0  0  0  0  0  0  0  0
  -28.2666  -19.5208   19.7889 C   0  0  0  0  0  0  0  0  0  0  0  0
  -20.8918  -28.9482   20.5744 C   0  0  1  0  0  0  0  0  0  0  0  0
  -19.8840  -29.2463   16.9322 C   0  0  2  0  0  0  0  0  0  0  0  0
  -19.8690  -28.4764   21.6462 C   0  0  0  0  0  0  0  0  0  0  0  0
  -25.6235  -11.8331   21.2058 N   0  0  0  0  0  0  0  0  0  0  0  0
  -26.3201  -12.7783   21.8596 N   0  0  0  0  0  0  0  0  0  0  0  0
  -23.0766  -29.9853   21.0987 N   0  0  0  0  0  0  0  0  0  0  0  0
  -27.2432  -15.9468   19.9156 N   0  0  0  0  0  0  0  0  0  0  0  0
  -26.7875  -13.6235   24.0224 N   0  0  0  0  0  0  0  0  0  0  0  0
  -23.9510  -10.2033   24.8307 N   0  0  0  0  0  0  0  0  0  0  0  0
  -24.1462  -31.7239   24.0251 N   0  0  0  0  0  0  0  0  0  0  0  0
  -20.2918  -29.3131   19.2956 N   0  0  0  0  0  0  0  0  0  0  0  0
  -28.0795  -18.1244   19.4981 N   0  0  0  0  0  0  0  0  0  0  0  0
  -20.7350  -29.2282   15.7090 N   0  3  0  0  0  0  0  0  0  0  0  0
  -25.1793  -11.8745   25.8090 O   0  0  0  0  0  0  0  0  0  0  0  0
  -24.1682  -29.4663   23.4548 O   0  0  0  0  0  0  0  0  0  0  0  0
  -21.0951  -31.1978   21.2984 O   0  0  0  0  0  0  0  0  0  0  0  0
  -21.4880  -27.7974   18.0116 O   0  0  0  0  0  0  0  0  0  0  0  0
  -26.8196  -17.7095   21.3661 O   0  0  0  0  0  0  0  0  0  0  0  0
  -21.6434   -6.8661   21.0132 O   0  0  0  0  0  0  0  0  0  0  0  0
  -27.9921  -26.5177   19.6280 O   0  0  0  0  0  0  0  0  0  1  0  0
  -22.1315   -2.3289   24.1083 F   0  0  0  0  0  0  0  0  0  0  0  0
  -22.3158   -4.4383   19.8748 F   0  0  0  0  0  0  0  0  0  0  0  0
  1  2  1  0  0  0  0
  1  5  2  0  0  0  0
  2  6  2  0  0  0  0
  3  8  2  0  0  0  0
  3 17  1  0  0  0  0
  4  9  1  0  0  0  0
  4 17  2  0  0  0  0
  5 19  1  0  0  0  0
  6 21  1  0  0  0  0
  7 10  2  0  0  0  0
  7 20  1  0  0  0  0
  8 27  1  0  0  0  0
  9 27  2  0  0  0  0
 10 28  1  0  0  0  0
 11 12  2  0  0  0  0
 11 29  1  0  0  0  0
 12 30  1  0  0  0  0
 13 22  2  0  0  0  0
 13 25  1  0  0  0  0
 14 23  1  0  0  0  0
 14 28  2  0  0  0  0
 15 25  2  0  0  0  0
 15 26  1  0  0  0  0
 16 30  2  0  0  0  0
 16 31  1  0  0  0  0
 17 32  1  0  0  0  0
 18 32  1  0  0  0  0
 18 33  2  0  0  0  0
 18 34  1  0  0  0  0
 19 21  2  0  0  0  0
 19 39  1  0  0  0  0
 20 23  2  0  0  0  0
 20 40  1  0  0  0  0
 21 50  1  0  0  0  0
 22 24  1  0  0  0  0
 22 53  1  0  0  0  0
 23 41  1  0  0  0  0
 24 26  2  0  0  0  0
 24 49  1  0  0  0  0
 25 54  1  0  0  0  0
 26 62  1  0  0  0  0
 27 83  1  0  0  0  0
 28 84  1  0  0  0  0
 29 31  2  0  0  0  0
 29 83  1  0  0  0  0
 30 85  1  0  0  0  0
 31 86  1  0  0  0  0
 32 68  2  0  0  0  0
 33 69  1  0  0  0  0
 33 72  1  0  0  0  0
 34 73  1  0  0  0  0
 34 78  2  0  0  0  0
 35 51  1  0  0  0  0
 35 74  1  0  0  0  0
 35 79  2  0  0  0  0
 36 65  1  0  0  0  0
 36 70  1  0  0  0  0
 36 80  2  0  0  0  0
 37 66  1  0  0  0  0
 37 75  1  0  0  0  0
 37 81  2  0  0  0  0
 38 71  1  0  0  0  0
 38 76  1  0  0  0  0
 38 82  2  0  0  0  0
 39 42  1  0  0  0  0
 40 51  1  0  0  0  0
 41 70  1  0  0  0  0
 42 44  1  0  0  0  0
 43 45  1  0  0  0  0
 43 47  1  0  0  0  0
 44 50  1  0  0  0  0
 45 52  1  0  0  0  0
 46 49  1  0  0  0  0
 46 53  1  0  0  0  0
 47 71  1  0  0  0  0
 48 52  1  0  0  0  0
 48 71  1  0  0  0  0
 49 55  1  0  0  0  0
 50 74  1  0  0  0  0
 51 70  1  0  0  0  0
 52 69  1  0  0  0  0
 53 56  1  0  0  0  0
 53 63  1  0  0  0  0
 57 66  1  0  0  0  0
 58 67  1  0  0  0  0
 59 67  1  0  0  0  0
 60 67  1  0  0  0  0
 61 77  1  0  0  0  0
 62 84  1  0  0  0  0
 63 64  1  0  0  0  0
 64 76  1  0  0  0  0
 65 67  1  0  0  0  0
 65 75  1  0  0  0  0
 66 77  1  0  0  0  0
 68 69  1  0  0  0  0
M  CHG  1  77   1
M  ISO  4  38 100  62 101  76 100  84 101
M  END
> <Batch ID>
0162

> <Smiles>
CNC(C)C(=O)NC(C(=O)N1Cc2cc([101O:1][101CH2:1]c3cc(C)cc4c3C(C)CC4(C)CC[100NH:0][100C:0](=O)N3CCCC(n4nc(-c5ccc(Oc6ccc(F)cc6F)cc5)c(C(N)=O)c4N)C3)ccc2CC1C(=O)NC1CCCc2ccccc21)C(C)(C)C

> <Shape>
0.313

> <Color>
0.099

> <Negative vol penalty>
0.000

$$$$

  -OEChem-04052322143D

 87 96  0     1  0  0  0  0  0999 V2000
  -17.4303  -26.3085   22.9109 C   0  0  0  0  0  0  0  0  0  0  0  0
  -18.6827  -25.8985   22.4649 C   0  0  0  0  0  0  0  0  0  0  0  0
  -27.5691  -14.4219   22.8523 C   0  0  0  0  0  0  0  0  0  0  0  0
  -25.7341  -12.8503   22.8552 C   0  0  0  0  0  0  0  0  0  0  0  0
  -17.0868  -27.6594   22.8755 C   0  0  0  0  0  0  0  0  0  0  0  0
  -19.5920  -26.8391   21.9823 C   0  0  0  0  0  0  0  0  0  0  0  0
  -25.6858  -26.7114   22.5778 C   0  0  0  0  0  0  0  0  0  0  0  0
  -27.7583  -14.2035   24.2169 C   0  0  0  0  0  0  0  0  0  0  0  0
  -25.9233  -12.6319   24.2198 C   0  0  0  0  0  0  0  0  0  0  0  0
  -26.7041  -26.3038   21.7171 C   0  0  0  0  0  0  0  0  0  0  0  0
  -28.9562  -13.7891   27.6240 C   0  0  0  0  0  0  0  0  0  0  0  0
  -30.2631  -13.6081   28.0768 C   0  0  0  0  0  0  0  0  0  0  0  0
  -27.0040  -28.5875   21.0003 C   0  0  0  0  0  0  0  0  0  0  0  0
  -30.4920  -11.6763   26.6440 C   0  0  0  0  0  0  0  0  0  0  0  0
  -26.2145  -24.3303   15.8810 C   0  0  0  0  0  0  0  0  0  0  0  0
  -26.5570  -13.7453   22.1715 C   0  0  0  0  0  0  0  0  0  0  0  0
  -26.9589  -13.2702   19.6975 C   0  0  0  0  0  0  0  0  0  0  0  0
  -17.9960  -28.6181   22.4012 C   0  0  0  0  0  0  0  0  0  0  0  0
  -25.3110  -28.0608   22.6484 C   0  0  0  0  0  0  0  0  0  0  0  0
  -19.2599  -28.2039   21.9393 C   0  0  0  0  0  0  0  0  0  0  0  0
  -25.9825  -29.0100   21.8646 C   0  0  0  0  0  0  0  0  0  0  0  0
  -27.2347  -23.6817   16.5579 C   0  0  0  0  0  0  0  0  0  0  0  0
  -28.1976  -24.4627   17.1872 C   0  0  0  0  0  0  0  0  0  0  0  0
  -28.1122  -25.8489   17.1213 C   0  0  0  0  0  0  0  0  0  0  0  0
  -26.9354  -13.3085   24.9007 C   0  0  0  0  0  0  0  0  0  0  0  0
  -27.3614  -27.2415   20.9261 C   0  0  0  0  0  0  0  0  0  0  0  0
  -28.4172  -12.9136   26.6813 C   0  0  0  0  0  0  0  0  0  0  0  0
  -31.0310  -12.5518   27.5868 C   0  0  0  0  0  0  0  0  0  0  0  0
  -29.1851  -11.8573   26.1913 C   0  0  0  0  0  0  0  0  0  0  0  0
  -26.3607  -13.9709   20.7620 C   0  0  0  0  0  0  0  0  0  0  0  0
  -27.0528  -26.4006   16.4190 C   0  0  0  0  0  0  0  0  0  0  0  0
  -26.4493  -13.8618   18.5676 C   0  0  0  0  0  0  0  0  0  0  0  0
  -27.8917  -12.1817   19.7275 C   0  0  0  0  0  0  0  0  0  0  0  0
  -22.6444  -29.6826   22.0463 C   0  0  0  0  0  0  0  0  0  0  0  0
  -24.3374  -32.1617   23.2751 C   0  0  0  0  0  0  0  0  0  0  0  0
  -27.3880  -33.5363   23.9468 C   0  0  0  0  0  0  0  0  0  0  0  0
  -24.8323  -18.8743   16.4559 C   0  0  0  0  0  0  0  0  0  0  0  0
  -17.5621  -30.0612   22.3380 C   0  0  0  0  0  0  0  0  0  0  0  0
  -24.2288  -28.4881   23.6016 C   0  0  0  0  0  0  0  0  0  0  0  0
  -25.6317  -30.4738   21.9181 C   0  0  0  0  0  0  0  0  0  0  0  0
  -18.7214  -31.0385   22.1615 C   0  0  0  0  0  0  0  0  0  0  0  0
  -22.4704  -16.5983   17.5466 C   0  0  0  0  0  0  0  0  0  0  0  0
  -19.6669  -30.5533   21.0673 C   0  0  0  0  0  0  0  0  0  0  0  0
  -23.2794  -15.6086   18.3846 C   0  0  0  0  0  0  0  0  0  0  0  0
  -26.5604  -21.5997   17.8356 C   0  0  0  0  0  0  0  0  0  0  0  0
  -26.7092  -21.5399   15.3090 C   0  0  0  0  0  0  0  0  0  0  0  0
  -22.9305  -18.0296   17.7977 C   0  0  0  0  0  0  0  0  0  0  0  0
  -26.5783  -20.0685   17.8509 C   0  0  0  0  0  0  0  0  0  0  0  0
  -26.7499  -20.0164   15.3850 C   0  0  0  0  0  0  0  0  0  0  0  0
  -25.2099  -17.2651   18.3790 C   0  0  0  0  0  0  0  0  0  0  0  0
  -27.2765  -22.1656   16.5960 C   0  0  0  0  0  0  0  0  0  0  0  0
  -20.2827  -29.1970   21.4318 C   0  0  1  0  0  0  0  0  0  0  0  0
  -23.5806  -29.8137   23.2142 C   0  0  1  0  0  0  0  0  0  0  0  0
  -24.7899  -15.7976   18.1584 C   0  0  1  0  0  0  0  0  0  0  0  0
  -29.3193  -23.8109   17.9310 C   0  0  0  0  0  0  0  0  0  0  0  0
  -29.9148  -27.5709   16.7794 C   0  0  0  0  0  0  0  0  0  0  0  0
  -28.4521  -35.5891   24.9220 C   0  0  0  0  0  0  0  0  0  0  0  0
  -23.6841  -33.7078   20.7270 C   0  0  0  0  0  0  0  0  0  0  0  0
  -25.5073  -35.3180   21.3196 C   0  0  0  0  0  0  0  0  0  0  0  0
  -23.5396  -35.0537   22.8299 C   0  0  0  0  0  0  0  0  0  0  0  0
  -28.7196  -31.9745   26.0791 C   0  0  0  0  0  0  0  0  0  0  0  0
  -28.5378  -27.6090   18.8922 C   0  0  0  0  0  0  0  0  0  1  0  0
  -29.1360  -26.7063   17.7899 C   0  0  1  0  0  0  0  0  0  0  0  0
  -25.2643  -33.2091   22.7070 C   0  0  1  0  0  0  0  0  0  0  0  0
  -27.9477  -34.1819   25.2015 C   0  0  2  0  0  0  0  0  0  0  0  0
  -24.5044  -34.2944   21.8932 C   0  0  0  0  0  0  0  0  0  0  0  0
  -26.0983  -25.6745   15.7950 N   0  0  0  0  0  0  0  0  0  0  0  0
  -25.5344  -14.9341   20.3455 N   0  0  0  0  0  0  0  0  0  0  0  0
  -25.6098  -14.8429   19.0068 N   0  0  0  0  0  0  0  0  0  0  0  0
  -24.5624  -30.8411   22.8611 N   0  0  0  0  0  0  0  0  0  0  0  0
  -24.3698  -18.1672   17.5760 N   0  0  0  0  0  0  0  0  0  0  0  0
  -26.0658  -19.5307   16.5831 N   0  0  0  0  0  0  0  0  0  0  0  0
  -26.9594  -27.8131   16.3477 N   0  0  0  0  0  0  0  0  0  0  0  0
  -26.6419  -13.6334   17.2511 N   0  0  0  0  0  0  0  0  0  0  0  0
  -28.3111  -11.6954   20.9732 N   0  0  0  0  0  0  0  0  0  0  0  0
  -21.3458  -29.3682   22.3988 N   0  0  0  0  0  0  0  0  0  0  0  0
  -26.0280  -33.7331   23.8342 N   0  0  0  0  0  0  0  0  0  0  0  0
  -29.0797  -33.3750   25.7386 N   0  3  0  0  0  0  0  0  0  0  0  0
  -28.3525  -11.6668   18.6806 O   0  0  0  0  0  0  0  0  0  0  0  0
  -23.0684  -29.8554   20.9096 O   0  0  0  0  0  0  0  0  0  0  0  0
  -23.4512  -32.5016   24.0628 O   0  0  0  0  0  0  0  0  0  0  0  0
  -28.0881  -32.9221   23.1447 O   0  0  0  0  0  0  0  0  0  0  0  0
  -24.1824  -18.9166   15.4038 O   0  0  0  0  0  0  0  0  0  0  0  0
  -27.1199  -13.0950   26.2322 O   0  0  0  0  0  0  0  0  0  0  0  0
  -28.3617  -26.8437   20.0791 O   0  0  0  0  0  0  0  0  0  1  0  0
  -32.2864  -12.3791   28.0205 F   0  0  0  0  0  0  0  0  0  0  0  0
  -28.6731  -11.0136   25.2846 F   0  0  0  0  0  0  0  0  0  0  0  0
  1  2  1  0  0  0  0
  1  5  2  0  0  0  0
  2  6  2  0  0  0  0
  3  8  2  0  0  0  0
  3 16  1  0  0  0  0
  4  9  1  0  0  0  0
  4 16  2  0  0  0  0
  5 18  1  0  0  0  0
  6 20  1  0  0  0  0
  7 10  2  0  0  0  0
  7 19  1  0  0  0  0
  8 25  1  0  0  0  0
  9 25  2  0  0  0  0
 10 26  1  0  0  0  0
 11 12  2  0  0  0  0
 11 27  1  0  0  0  0
 12 28  1  0  0  0  0
 13 21  1  0  0  0  0
 13 26  2  0  0  0  0
 14 28  2  0  0  0  0
 14 29  1  0  0  0  0
 15 22  2  0  0  0  0
 15 67  1  0  0  0  0
 16 30  1  0  0  0  0
 17 30  1  0  0  0  0
 17 32  2  0  0  0  0
 17 33  1  0  0  0  0
 18 20  2  0  0  0  0
 18 38  1  0  0  0  0
 19 21  2  0  0  0  0
 19 39  1  0  0  0  0
 20 52  1  0  0  0  0
 21 40  1  0  0  0  0
 22 23  1  0  0  0  0
 22 51  1  0  0  0  0
 23 24  2  0  0  0  0
 23 55  1  0  0  0  0
 24 31  1  0  0  0  0
 24 63  1  0  0  0  0
 25 84  1  0  0  0  0
 26 85  1  0  0  0  0
 27 29  2  0  0  0  0
 27 84  1  0  0  0  0
 28 86  1  0  0  0  0
 29 87  1  0  0  0  0
 30 68  2  0  0  0  0
 31 67  2  0  0  0  0
 31 73  1  0  0  0  0
 32 69  1  0  0  0  0
 32 74  1  0  0  0  0
 33 75  1  0  0  0  0
 33 79  2  0  0  0  0
 34 53  1  0  0  0  0
 34 76  1  0  0  0  0
 34 80  2  0  0  0  0
 35 64  1  0  0  0  0
 35 70  1  0  0  0  0
 35 81  2  0  0  0  0
 36 65  1  0  0  0  0
 36 77  1  0  0  0  0
 36 82  2  0  0  0  0
 37 71  1  0  0  0  0
 37 72  1  0  0  0  0
 37 83  2  0  0  0  0
 38 41  1  0  0  0  0
 39 53  1  0  0  0  0
 40 70  1  0  0  0  0
 41 43  1  0  0  0  0
 42 44  1  0  0  0  0
 42 47  1  0  0  0  0
 43 52  1  0  0  0  0
 44 54  1  0  0  0  0
 45 48  1  0  0  0  0
 45 51  1  0  0  0  0
 46 49  1  0  0  0  0
 46 51  1  0  0  0  0
 47 71  1  0  0  0  0
 48 72  1  0  0  0  0
 49 72  1  0  0  0  0
 50 54  1  0  0  0  0
 50 71  1  0  0  0  0
 52 76  1  0  0  0  0
 53 70  1  0  0  0  0
 54 69  1  0  0  0  0
 56 63  1  0  0  0  0
 57 65  1  0  0  0  0
 58 66  1  0  0  0  0
 59 66  1  0  0  0  0
 60 66  1  0  0  0  0
 61 78  1  0  0  0  0
 62 63  1  0  0  0  0
 62 85  1  0  0  0  0
 64 66  1  0  0  0  0
 64 77  1  0  0  0  0
 65 78  1  0  0  0  0
 68 69  1  0  0  0  0
M  CHG  1  78   1
M  ISO  4  37 100  62 101  72 100  85 101
M  END
> <Batch ID>
0162

> <Smiles>
CNC(C)C(=O)NC(C(=O)N1Cc2cc([101O:1][101CH2:1]C(C)c3c(N)ncc(C4CC[100N:0]([100C:0](=O)N5CCCC(n6nc(-c7ccc(Oc8ccc(F)cc8F)cc7)c(C(N)=O)c6N)C5)CC4)c3C)ccc2CC1C(=O)NC1CCCc2ccccc21)C(C)(C)C

> <Shape>
0.201

> <Color>
0.091

> <Negative vol penalty>
0.000

$$$$

  -OEChem-04052322143D

 91100  0     1  0  0  0  0  0999 V2000
  -28.4013  -24.1368   17.2245 C   0  0  0  0  0  0  0  0  0  0  0  0
  -27.1866  -24.3777   17.8584 C   0  0  0  0  0  0  0  0  0  0  0  0
  -29.8345  -18.0342   19.5368 C   0  0  0  0  0  0  0  0  0  0  0  0
  -28.9048  -16.8163   21.4049 C   0  0  0  0  0  0  0  0  0  0  0  0
  -29.5788  -24.6637   17.7534 C   0  0  0  0  0  0  0  0  0  0  0  0
  -27.1488  -25.1448   19.0223 C   0  0  0  0  0  0  0  0  0  0  0  0
  -23.3959  -28.5447   18.9873 C   0  0  0  0  0  0  0  0  0  0  0  0
  -30.7760  -17.0228   19.3461 C   0  0  0  0  0  0  0  0  0  0  0  0
  -29.8463  -15.8049   21.2141 C   0  0  0  0  0  0  0  0  0  0  0  0
  -22.1113  -28.0779   19.2620 C   0  0  0  0  0  0  0  0  0  0  0  0
  -33.1946  -14.5909   18.1415 C   0  0  0  0  0  0  0  0  0  0  0  0
  -33.4197  -14.1522   16.8367 C   0  0  0  0  0  0  0  0  0  0  0  0
  -20.4319  -20.6228   22.4857 C   0  0  0  0  0  0  0  0  0  0  0  0
  -22.3137  -28.8735   21.5303 C   0  0  0  0  0  0  0  0  0  0  0  0
  -18.9805  -21.4349   24.2380 C   0  0  0  0  0  0  0  0  0  0  0  0
  -31.1003  -13.5005   16.6556 C   0  0  0  0  0  0  0  0  0  0  0  0
  -28.8989  -17.9310   20.5663 C   0  0  0  0  0  0  0  0  0  0  0  0
  -26.6461  -19.0658   20.1861 C   0  0  0  0  0  0  0  0  0  0  0  0
  -29.5543  -25.4458   18.9189 C   0  0  0  0  0  0  0  0  0  0  0  0
  -24.1546  -29.1708   19.9867 C   0  0  0  0  0  0  0  0  0  0  0  0
  -28.3273  -25.6816   19.5679 C   0  0  0  0  0  0  0  0  0  0  0  0
  -20.1762  -21.5178   23.5245 C   0  0  0  0  0  0  0  0  0  0  0  0
  -23.6067  -29.3497   21.2650 C   0  0  0  0  0  0  0  0  0  0  0  0
  -19.4918  -19.6450   22.1603 C   0  0  0  0  0  0  0  0  0  0  0  0
  -18.2962  -19.5621   22.8738 C   0  0  0  0  0  0  0  0  0  0  0  0
  -30.7819  -15.9082   20.1846 C   0  0  0  0  0  0  0  0  0  0  0  0
  -21.5711  -28.2396   20.5344 C   0  0  0  0  0  0  0  0  0  0  0  0
  -31.9224  -14.4843   18.7034 C   0  0  0  0  0  0  0  0  0  0  0  0
  -32.3726  -13.6070   16.0938 C   0  0  0  0  0  0  0  0  0  0  0  0
  -30.8752  -13.9391   17.9605 C   0  0  0  0  0  0  0  0  0  0  0  0
  -18.0404  -20.4571   23.9126 C   0  0  0  0  0  0  0  0  0  0  0  0
  -27.9265  -18.9756   20.7642 C   0  0  0  0  0  0  0  0  0  0  0  0
  -26.1241  -20.2328   20.6881 C   0  0  0  0  0  0  0  0  0  0  0  0
  -25.9875  -18.1744   19.2765 C   0  0  0  0  0  0  0  0  0  0  0  0
  -26.9160  -28.5437   21.4307 C   0  0  0  0  0  0  0  0  0  0  0  0
  -26.4188  -31.4476   22.7881 C   0  0  0  0  0  0  0  0  0  0  0  0
  -20.0418  -24.1801   22.2846 C   0  0  0  0  0  0  0  0  0  0  0  0
  -24.2026  -33.8735   23.7100 C   0  0  0  0  0  0  0  0  0  0  0  0
  -25.2710  -23.3395   25.3537 C   0  0  0  0  0  0  0  0  0  0  0  0
  -30.8588  -25.9545   19.4793 C   0  0  0  0  0  0  0  0  0  0  0  0
  -25.5285  -29.6927   19.6670 C   0  0  0  0  0  0  0  0  0  0  0  0
  -24.3723  -30.0332   22.3673 C   0  0  0  0  0  0  0  0  0  0  0  0
  -30.6865  -27.0695   20.5075 C   0  0  0  0  0  0  0  0  0  0  0  0
  -28.2784  -23.9895   23.2868 C   0  0  0  0  0  0  0  0  0  0  0  0
  -29.5985  -26.7053   21.5127 C   0  0  0  0  0  0  0  0  0  0  0  0
  -28.3885  -22.7114   22.4561 C   0  0  0  0  0  0  0  0  0  0  0  0
  -22.4891  -22.5392   22.9840 C   0  0  0  0  0  0  0  0  0  0  0  0
  -21.6799  -22.4247   25.3626 C   0  0  0  0  0  0  0  0  0  0  0  0
  -27.5994  -23.7371   24.6298 C   0  0  0  0  0  0  0  0  0  0  0  0
  -23.6294  -23.4438   23.4453 C   0  0  0  0  0  0  0  0  0  0  0  0
  -22.8416  -23.3289   25.7741 C   0  0  0  0  0  0  0  0  0  0  0  0
  -26.3799  -21.8030   23.6863 C   0  0  0  0  0  0  0  0  0  0  0  0
  -28.2425  -26.5296   20.8185 C   0  0  1  0  0  0  0  0  0  0  0  0
  -26.4084  -29.8556   20.9026 C   0  0  1  0  0  0  0  0  0  0  0  0
  -27.0142  -22.0359   22.3075 C   0  0  2  0  0  0  0  0  0  0  0  0
  -21.2197  -22.6013   23.8855 C   0  0  0  0  0  0  0  0  0  0  0  0
  -19.7917  -18.7007   21.0420 C   0  0  0  0  0  0  0  0  0  0  0  0
  -17.2977  -18.5072   22.5114 C   0  0  0  0  0  0  0  0  0  0  0  0
  -24.0897  -36.1146   24.8334 C   0  0  0  0  0  0  0  0  0  0  0  0
  -26.7888  -30.1031   25.5020 C   0  0  0  0  0  0  0  0  0  0  0  0
  -25.7469  -32.1169   26.5637 C   0  0  0  0  0  0  0  0  0  0  0  0
  -27.8799  -32.3434   25.2902 C   0  0  0  0  0  0  0  0  0  0  0  0
  -23.0941  -35.1617   21.2870 C   0  0  0  0  0  0  0  0  0  0  0  0
  -20.5324  -23.9753   23.7003 C   0  0  0  0  0  0  0  0  0  0  0  0
  -18.8527  -25.8754   20.9006 C   0  0  0  0  0  0  0  0  0  0  0  0
  -19.8671  -26.6457   20.0743 C   0  0  0  0  0  0  0  0  0  1  0  0
  -25.7232  -31.9403   24.0340 C   0  0  1  0  0  0  0  0  0  0  0  0
  -24.2147  -35.3781   23.5088 C   0  0  2  0  0  0  0  0  0  0  0  0
  -26.5207  -31.6113   25.3274 C   0  0  0  0  0  0  0  0  0  0  0  0
  -28.2012  -20.0035   21.5717 N   0  0  0  0  0  0  0  0  0  0  0  0
  -27.0862  -20.7507   21.5045 N   0  0  0  0  0  0  0  0  0  0  0  0
  -25.7141  -30.5205   22.0071 N   0  0  0  0  0  0  0  0  0  0  0  0
  -26.3190  -23.0488   24.4642 N   0  0  0  0  0  0  0  0  0  0  0  0
  -23.9645  -23.2153   24.8519 N   0  0  0  0  0  0  0  0  0  0  0  0
  -24.9406  -20.8563   20.5065 N   0  0  0  0  0  0  0  0  0  0  0  0
  -26.6670  -17.0209   18.8618 N   0  0  0  0  0  0  0  0  0  0  0  0
  -27.6579  -27.8188   20.5176 N   0  0  0  0  0  0  0  0  0  0  0  0
  -19.4169  -25.4110   22.1473 N   0  0  0  0  0  0  0  0  0  0  0  0
  -25.4782  -33.3638   23.8288 N   0  0  0  0  0  0  0  0  0  0  0  0
  -23.0832  -35.7925   22.6320 N   0  3  0  0  0  0  0  0  0  0  0  0
  -24.8371  -18.4026   18.8316 O   0  0  0  0  0  0  0  0  0  0  0  0
  -26.6552  -28.2141   22.5818 O   0  0  0  0  0  0  0  0  0  0  0  0
  -27.5430  -31.8750   22.5139 O   0  0  0  0  0  0  0  0  0  0  0  0
  -20.1887  -23.3548   21.3872 O   0  0  0  0  0  0  0  0  0  0  0  0
  -23.1651  -33.2166   23.7607 O   0  0  0  0  0  0  0  0  0  0  0  0
  -25.4877  -23.6841   26.5219 O   0  0  0  0  0  0  0  0  0  0  0  0
  -31.7003  -14.9211   19.9986 O   0  0  0  0  0  0  0  0  0  0  0  0
  -20.3088  -27.7811   20.8073 O   0  0  0  0  0  0  0  0  0  1  0  0
  -32.5886  -13.1872   14.8403 F   0  0  0  0  0  0  0  0  0  0  0  0
  -29.6505  -13.8353   18.4945 F   0  0  0  0  0  0  0  0  0  0  0  0
  -16.5735  -20.3861   24.8205 Cl  0  0  0  0  0  0  0  0  0  0  0  0
  1  2  1  0  0  0  0
  1  5  2  0  0  0  0
  2  6  2  0  0  0  0
  3  8  2  0  0  0  0
  3 17  1  0  0  0  0
  4  9  1  0  0  0  0
  4 17  2  0  0  0  0
  5 19  1  0  0  0  0
  6 21  1  0  0  0  0
  7 10  2  0  0  0  0
  7 20  1  0  0  0  0
  8 26  1  0  0  0  0
  9 26  2  0  0  0  0
 10 27  1  0  0  0  0
 11 12  2  0  0  0  0
 11 28  1  0  0  0  0
 12 29  1  0  0  0  0
 13 22  1  0  0  0  0
 13 24  2  0  0  0  0
 14 23  1  0  0  0  0
 14 27  2  0  0  0  0
 15 22  2  0  0  0  0
 15 31  1  0  0  0  0
 16 29  2  0  0  0  0
 16 30  1  0  0  0  0
 17 32  1  0  0  0  0
 18 32  1  0  0  0  0
 18 33  2  0  0  0  0
 18 34  1  0  0  0  0
 19 21  2  0  0  0  0
 19 40  1  0  0  0  0
 20 23  2  0  0  0  0
 20 41  1  0  0  0  0
 21 53  1  0  0  0  0
 22 56  1  0  0  0  0
 23 42  1  0  0  0  0
 24 25  1  0  0  0  0
 24 57  1  0  0  0  0
 25 31  2  0  0  0  0
 25 58  1  0  0  0  0
 26 87  1  0  0  0  0
 27 88  1  0  0  0  0
 28 30  2  0  0  0  0
 28 87  1  0  0  0  0
 29 89  1  0  0  0  0
 30 90  1  0  0  0  0
 31 91  1  0  0  0  0
 32 70  2  0  0  0  0
 33 71  1  0  0  0  0
 33 75  1  0  0  0  0
 34 76  1  0  0  0  0
 34 81  2  0  0  0  0
 35 54  1  0  0  0  0
 35 77  1  0  0  0  0
 35 82  2  0  0  0  0
 36 67  1  0  0  0  0
 36 72  1  0  0  0  0
 36 83  2  0  0  0  0
 37 64  1  0  0  0  0
 37 78  1  0  0  0  0
 37 84  2  0  0  0  0
 38 68  1  0  0  0  0
 38 79  1  0  0  0  0
 38 85  2  0  0  0  0
 39 73  1  0  0  0  0
 39 74  1  0  0  0  0
 39 86  2  0  0  0  0
 40 43  1  0  0  0  0
 41 54  1  0  0  0  0
 42 72  1  0  0  0  0
 43 45  1  0  0  0  0
 44 46  1  0  0  0  0
 44 49  1  0  0  0  0
 45 53  1  0  0  0  0
 46 55  1  0  0  0  0
 47 50  1  0  0  0  0
 47 56  1  0  0  0  0
 48 51  1  0  0  0  0
 48 56  1  0  0  0  0
 49 73  1  0  0  0  0
 50 74  1  0  0  0  0
 51 74  1  0  0  0  0
 52 55  1  0  0  0  0
 52 73  1  0  0  0  0
 53 77  1  0  0  0  0
 54 72  1  0  0  0  0
 55 71  1  0  0  0  0
 56 64  1  0  0  0  0
 59 68  1  0  0  0  0
 60 69  1  0  0  0  0
 61 69  1  0  0  0  0
 62 69  1  0  0  0  0
 63 80  1  0  0  0  0
 65 66  1  0  0  0  0
 65 78  1  0  0  0  0
 66 88  1  0  0  0  0
 67 69  1  0  0  0  0
 67 79  1  0  0  0  0
 68 80  1  0  0  0  0
 70 71  1  0  0  0  0
M  CHG  1  80   1
M  ISO  4  39 100  66 101  74 100  88 101
M  END
> <Batch ID>
0162

> <Smiles>
CNC(C)C(=O)NC(C(=O)N1Cc2cc([101O:1][101CH2:1]CNC(=O)CC3(c4cc(C)c(C)c(Cl)c4)CC[100N:0]([100C:0](=O)N4CCCC(n5nc(-c6ccc(Oc7ccc(F)cc7F)cc6)c(C(N)=O)c5N)C4)CC3)ccc2CC1C(=O)NC1CCCc2ccccc21)C(C)(C)C

> <Shape>
0.242

> <Color>
0.069

> <Negative vol penalty>
0.000

$$$$

  -OEChem-04052322143D

 90 99  0     1  0  0  0  0  0999 V2000
  -19.5671  -10.2061   20.8346 C   0  0  0  0  0  0  0  0  0  0  0  0
  -20.2586  -11.3605   21.1876 C   0  0  0  0  0  0  0  0  0  0  0  0
  -25.4472  -35.3223   25.7762 C   0  0  0  0  0  0  0  0  0  0  0  0
  -27.4602  -33.9864   25.7900 C   0  0  0  0  0  0  0  0  0  0  0  0
  -20.2605   -9.0132   20.6348 C   0  0  0  0  0  0  0  0  0  0  0  0
  -21.6440  -11.3224   21.3420 C   0  0  0  0  0  0  0  0  0  0  0  0
  -23.9536  -15.2524   19.1363 C   0  0  0  0  0  0  0  0  0  0  0  0
  -25.6531  -35.6465   27.1171 C   0  0  0  0  0  0  0  0  0  0  0  0
  -27.6662  -34.3107   27.1309 C   0  0  0  0  0  0  0  0  0  0  0  0
  -23.9193  -16.4718   19.8112 C   0  0  0  0  0  0  0  0  0  0  0  0
  -26.4670  -33.3436   30.1405 C   0  0  0  0  0  0  0  0  0  0  0  0
  -26.8233  -32.3122   31.0093 C   0  0  0  0  0  0  0  0  0  0  0  0
  -26.1594  -16.0822   20.6169 C   0  0  0  0  0  0  0  0  0  0  0  0
  -27.1380  -24.2720   22.1448 C   0  0  0  0  0  0  0  0  0  0  0  0
  -28.8846  -33.4609   31.5277 C   0  0  0  0  0  0  0  0  0  0  0  0
  -26.3507  -34.4921   25.1126 C   0  0  0  0  0  0  0  0  0  0  0  0
  -26.0629  -35.0459   22.6391 C   0  0  0  0  0  0  0  0  0  0  0  0
  -21.6562   -8.9626   20.7775 C   0  0  0  0  0  0  0  0  0  0  0  0
  -25.0890  -14.4323   19.2056 C   0  0  0  0  0  0  0  0  0  0  0  0
  -22.3566  -10.1273   21.1452 C   0  0  0  0  0  0  0  0  0  0  0  0
  -26.2067  -14.8540   19.9398 C   0  0  0  0  0  0  0  0  0  0  0  0
  -27.3221  -25.4324   22.8965 C   0  0  0  0  0  0  0  0  0  0  0  0
  -28.2824  -26.3679   22.5111 C   0  0  0  0  0  0  0  0  0  0  0  0
  -29.0585  -26.1428   21.3742 C   0  0  0  0  0  0  0  0  0  0  0  0
  -28.8744  -24.9823   20.6225 C   0  0  0  0  0  0  0  0  0  0  0  0
  -27.9141  -24.0469   21.0079 C   0  0  0  0  0  0  0  0  0  0  0  0
  -26.7626  -35.1408   27.7945 C   0  0  0  0  0  0  0  0  0  0  0  0
  -25.0211  -16.8856   20.5540 C   0  0  0  0  0  0  0  0  0  0  0  0
  -27.3195  -34.4336   29.9652 C   0  0  0  0  0  0  0  0  0  0  0  0
  -28.0321  -32.3708   31.7029 C   0  0  0  0  0  0  0  0  0  0  0  0
  -28.5283  -34.4923   30.6588 C   0  0  0  0  0  0  0  0  0  0  0  0
  -26.1382  -34.1564   23.7277 C   0  0  0  0  0  0  0  0  0  0  0  0
  -25.8525  -34.2374   21.5489 C   0  0  0  0  0  0  0  0  0  0  0  0
  -26.1733  -36.4752   22.6156 C   0  0  0  0  0  0  0  0  0  0  0  0
  -25.6778  -11.5038   20.2922 C   0  0  0  0  0  0  0  0  0  0  0  0
  -28.5999  -12.0276   18.9849 C   0  0  0  0  0  0  0  0  0  0  0  0
  -30.9470  -14.7609   18.7925 C   0  0  0  0  0  0  0  0  0  0  0  0
  -27.1159  -28.4929   20.4283 C   0  0  0  0  0  0  0  0  0  0  0  0
  -22.3568   -7.6391   20.5974 C   0  0  0  0  0  0  0  0  0  0  0  0
  -25.1204  -13.1321   18.4500 C   0  0  0  0  0  0  0  0  0  0  0  0
  -27.4574  -14.0198   20.0296 C   0  0  0  0  0  0  0  0  0  0  0  0
  -23.8667   -7.7692   20.4146 C   0  0  0  0  0  0  0  0  0  0  0  0
  -23.9116  -30.0412   20.3180 C   0  0  0  0  0  0  0  0  0  0  0  0
  -24.4497   -8.7236   21.4519 C   0  0  0  0  0  0  0  0  0  0  0  0
  -24.1121  -31.3517   21.0812 C   0  0  0  0  0  0  0  0  0  0  0  0
  -27.2777  -21.0078   21.7570 C   0  0  0  0  0  0  0  0  0  0  0  0
  -26.4073  -21.0478   19.3814 C   0  0  0  0  0  0  0  0  0  0  0  0
  -26.3094  -19.8751   22.0894 C   0  0  0  0  0  0  0  0  0  0  0  0
  -25.4419  -19.9143   19.7188 C   0  0  0  0  0  0  0  0  0  0  0  0
  -24.7246  -28.9021   20.9292 C   0  0  0  0  0  0  0  0  0  0  0  0
  -26.3640  -30.4946   21.8511 C   0  0  0  0  0  0  0  0  0  0  0  0
  -23.8621  -10.1316   21.2980 C   0  0  1  0  0  0  0  0  0  0  0  0
  -26.1349  -12.1399   19.0100 C   0  0  1  0  0  0  0  0  0  0  0  0
  -25.6077  -31.6858   21.2384 C   0  0  2  0  0  0  0  0  0  0  0  0
  -26.7384  -21.8815   20.6214 C   0  0  0  0  0  0  0  0  0  0  0  0
  -25.9717  -19.0412   20.8554 C   0  0  0  0  0  0  0  0  0  1  0  0
  -26.4773  -25.6501   24.1090 C   0  0  0  0  0  0  0  0  0  0  0  0
  -28.4789  -27.6111   23.3199 C   0  0  0  0  0  0  0  0  0  0  0  0
  -29.7055  -24.7433   19.4009 C   0  0  0  0  0  0  0  0  0  0  0  0
  -32.6972  -15.2906   17.0739 C   0  0  0  0  0  0  0  0  0  0  0  0
  -30.6351  -29.2214   19.6192 C   0  0  0  0  0  0  0  0  0  0  0  0
  -30.4779  -10.5116   20.8516 C   0  0  0  0  0  0  0  0  0  0  0  0
  -32.2542  -12.1929   20.3166 C   0  0  0  0  0  0  0  0  0  0  0  0
  -31.3123  -10.7576   18.5069 C   0  0  0  0  0  0  0  0  0  0  0  0
  -29.8441  -17.4689   18.3351 C   0  0  0  0  0  0  0  0  0  0  0  0
  -30.0889  -27.1465   20.9615 C   0  0  0  0  0  0  0  0  0  0  0  0
  -29.9001  -12.6179   19.4749 C   0  0  1  0  0  0  0  0  0  0  0  0
  -31.2867  -15.5822   17.5618 C   0  0  2  0  0  0  0  0  0  0  0  0
  -29.5458  -28.2243   20.0012 C   0  0  1  0  0  0  0  0  0  0  0  0
  -30.9611  -11.5283   19.7981 C   0  0  0  0  0  0  0  0  0  0  0  0
  -25.9877  -32.8805   23.3623 N   0  0  0  0  0  0  0  0  0  0  0  0
  -25.8156  -32.9625   22.0319 N   0  0  0  0  0  0  0  0  0  0  0  0
  -27.4370  -12.7537   19.2784 N   0  0  0  0  0  0  0  0  0  0  0  0
  -26.1341  -29.2825   21.0494 N   0  0  0  0  0  0  0  0  0  0  0  0
  -25.6972  -34.4998   20.2339 N   0  0  0  0  0  0  0  0  0  0  0  0
  -26.3892  -37.1487   23.8256 N   0  0  0  0  0  0  0  0  0  0  0  0
  -27.7167  -22.8901   20.2756 N   0  0  0  0  0  0  0  0  0  0  0  0
  -24.4822  -10.8192   20.1857 N   0  0  0  0  0  0  0  0  0  0  0  0
  -30.3201  -13.5786   18.4604 N   0  0  0  0  0  0  0  0  0  0  0  0
  -28.4261  -28.9276   20.5864 N   0  0  0  0  0  0  0  0  0  0  0  0
  -31.1862  -17.0376   17.8663 N   0  3  0  0  0  0  0  0  0  0  0  0
  -26.0669  -37.1369   21.5552 O   0  0  0  0  0  0  0  0  0  0  0  0
  -26.3601  -11.6238   21.3031 O   0  0  0  0  0  0  0  0  0  0  0  0
  -28.6162  -10.9651   18.3584 O   0  0  0  0  0  0  0  0  0  0  0  0
  -31.2147  -15.1296   19.9340 O   0  0  0  0  0  0  0  0  0  0  0  0
  -26.8443  -27.4789   19.7764 O   0  0  0  0  0  0  0  0  0  0  0  0
  -26.9640  -35.4572   29.1029 O   0  0  0  0  0  0  0  0  0  0  0  0
  -24.9900  -18.0751   21.2143 O   0  0  0  0  0  0  0  0  0  1  0  0
  -28.3734  -31.3811   32.5384 F   0  0  0  0  0  0  0  0  0  0  0  0
  -29.3509  -35.5375   30.4953 F   0  0  0  0  0  0  0  0  0  0  0  0
  1  2  1  0  0  0  0
  1  5  2  0  0  0  0
  2  6  2  0  0  0  0
  3  8  2  0  0  0  0
  3 16  1  0  0  0  0
  4  9  1  0  0  0  0
  4 16  2  0  0  0  0
  5 18  1  0  0  0  0
  6 20  1  0  0  0  0
  7 10  2  0  0  0  0
  7 19  1  0  0  0  0
  8 27  1  0  0  0  0
  9 27  2  0  0  0  0
 10 28  1  0  0  0  0
 11 12  2  0  0  0  0
 11 29  1  0  0  0  0
 12 30  1  0  0  0  0
 13 21  1  0  0  0  0
 13 28  2  0  0  0  0
 14 22  2  0  0  0  0
 14 26  1  0  0  0  0
 15 30  2  0  0  0  0
 15 31  1  0  0  0  0
 16 32  1  0  0  0  0
 17 32  1  0  0  0  0
 17 33  2  0  0  0  0
 17 34  1  0  0  0  0
 18 20  2  0  0  0  0
 18 39  1  0  0  0  0
 19 21  2  0  0  0  0
 19 40  1  0  0  0  0
 20 52  1  0  0  0  0
 21 41  1  0  0  0  0
 22 23  1  0  0  0  0
 22 57  1  0  0  0  0
 23 24  2  0  0  0  0
 23 58  1  0  0  0  0
 24 25  1  0  0  0  0
 24 66  1  0  0  0  0
 25 26  2  0  0  0  0
 25 59  1  0  0  0  0
 26 77  1  0  0  0  0
 27 87  1  0  0  0  0
 28 88  1  0  0  0  0
 29 31  2  0  0  0  0
 29 87  1  0  0  0  0
 30 89  1  0  0  0  0
 31 90  1  0  0  0  0
 32 71  2  0  0  0  0
 33 72  1  0  0  0  0
 33 75  1  0  0  0  0
 34 76  1  0  0  0  0
 34 82  2  0  0  0  0
 35 53  1  0  0  0  0
 35 78  1  0  0  0  0
 35 83  2  0  0  0  0
 36 67  1  0  0  0  0
 36 73  1  0  0  0  0
 36 84  2  0  0  0  0
 37 68  1  0  0  0  0
 37 79  1  0  0  0  0
 37 85  2  0  0  0  0
 38 74  1  0  0  0  0
 38 80  1  0  0  0  0
 38 86  2  0  0  0  0
 39 42  1  0  0  0  0
 40 53  1  0  0  0  0
 41 73  1  0  0  0  0
 42 44  1  0  0  0  0
 43 45  1  0  0  0  0
 43 50  1  0  0  0  0
 44 52  1  0  0  0  0
 45 54  1  0  0  0  0
 46 48  1  0  0  0  0
 46 55  1  0  0  0  0
 47 49  1  0  0  0  0
 47 55  1  0  0  0  0
 48 56  1  0  0  0  0
 49 56  1  0  0  0  0
 50 74  1  0  0  0  0
 51 54  1  0  0  0  0
 51 74  1  0  0  0  0
 52 78  1  0  0  0  0
 53 73  1  0  0  0  0
 54 72  1  0  0  0  0
 55 77  1  0  0  0  0
 56 88  1  0  0  0  0
 60 68  1  0  0  0  0
 61 69  1  0  0  0  0
 62 70  1  0  0  0  0
 63 70  1  0  0  0  0
 64 70  1  0  0  0  0
 65 81  1  0  0  0  0
 66 69  1  0  0  0  0
 67 70  1  0  0  0  0
 67 79  1  0  0  0  0
 68 81  1  0  0  0  0
 69 80  1  0  0  0  0
 71 72  1  0  0  0  0
M  CHG  1  81   1
M  ISO  4  38 100  56 101  80 100  88 101
M  END
> <Batch ID>
0162

> <Smiles>
CNC(C)C(=O)NC(C(=O)N1Cc2cc([101O:1][101CH:1]3CCC(Nc4cc(C)c(C)c(CC(C)[100NH:0][100C:0](=O)N5CCCC(n6nc(-c7ccc(Oc8ccc(F)cc8F)cc7)c(C(N)=O)c6N)C5)c4C)CC3)ccc2CC1C(=O)NC1CCCc2ccccc21)C(C)(C)C

> <Shape>
0.265

> <Color>
0.072

> <Negative vol penalty>
0.000

$$$$

  -OEChem-04052322143D

 91101  0     1  0  0  0  0  0999 V2000
  -27.4012  -34.6875   23.8022 C   0  0  0  0  0  0  0  0  0  0  0  0
  -27.6581  -33.4596   23.2007 C   0  0  0  0  0  0  0  0  0  0  0  0
  -26.6318  -12.6942   20.3115 C   0  0  0  0  0  0  0  0  0  0  0  0
  -25.0176  -14.3403   19.5892 C   0  0  0  0  0  0  0  0  0  0  0  0
  -26.2634  -34.8515   24.5910 C   0  0  0  0  0  0  0  0  0  0  0  0
  -26.7777  -32.3947   23.3886 C   0  0  0  0  0  0  0  0  0  0  0  0
  -25.7629  -29.9300   19.0828 C   0  0  0  0  0  0  0  0  0  0  0  0
  -25.6861  -11.6857   20.1266 C   0  0  0  0  0  0  0  0  0  0  0  0
  -24.0718  -13.3318   19.4043 C   0  0  0  0  0  0  0  0  0  0  0  0
  -26.7288  -29.0396   18.6159 C   0  0  0  0  0  0  0  0  0  0  0  0
  -23.5840   -8.7190   20.1876 C   0  0  0  0  0  0  0  0  0  0  0  0
  -23.4597   -7.7534   21.1865 C   0  0  0  0  0  0  0  0  0  0  0  0
  -25.4673  -27.1994   19.5333 C   0  0  0  0  0  0  0  0  0  0  0  0
  -22.8873   -9.4763   22.7807 C   0  0  0  0  0  0  0  0  0  0  0  0
  -26.2975  -14.0215   20.0428 C   0  0  0  0  0  0  0  0  0  0  0  0
  -28.5230  -15.1859   19.5966 C   0  0  0  0  0  0  0  0  0  0  0  0
  -25.3636  -33.7909   24.7809 C   0  0  0  0  0  0  0  0  0  0  0  0
  -24.6455  -29.4620   19.7891 C   0  0  0  0  0  0  0  0  0  0  0  0
  -25.6274  -32.5443   24.1818 C   0  0  0  0  0  0  0  0  0  0  0  0
  -24.4873  -28.0857   20.0058 C   0  0  0  0  0  0  0  0  0  0  0  0
  -24.4061  -12.0045   19.6730 C   0  0  0  0  0  0  0  0  0  0  0  0
  -26.5826  -27.6744   18.8437 C   0  0  0  0  0  0  0  0  0  0  0  0
  -23.3601  -10.0632   20.4853 C   0  0  0  0  0  0  0  0  0  0  0  0
  -23.1113   -8.1320   22.4830 C   0  0  0  0  0  0  0  0  0  0  0  0
  -23.0117  -10.4419   21.7818 C   0  0  0  0  0  0  0  0  0  0  0  0
  -27.2738  -15.0638   20.2341 C   0  0  0  0  0  0  0  0  0  0  0  0
  -29.6324  -26.7901   21.2420 C   0  0  0  0  0  0  0  0  0  0  0  0
  -30.6227  -25.9165   20.8499 C   0  0  0  0  0  0  0  0  0  0  0  0
  -29.5723  -25.6283   18.8392 C   0  0  0  0  0  0  0  0  0  0  0  0
  -28.5818  -26.5017   19.2315 C   0  0  0  0  0  0  0  0  0  1  0  0
  -29.0640  -16.3353   20.1188 C   0  0  0  0  0  0  0  0  0  0  0  0
  -29.1391  -14.3364   18.6197 C   0  0  0  0  0  0  0  0  0  0  0  0
  -23.5042  -29.8949   22.7240 C   0  0  0  0  0  0  0  0  0  0  0  0
  -21.0056  -28.1669   21.5868 C   0  0  0  0  0  0  0  0  0  0  0  0
  -20.5478  -25.2516   19.5110 C   0  0  0  0  0  0  0  0  0  0  0  0
  -26.5753  -21.1581   22.4240 C   0  0  0  0  0  0  0  0  0  0  0  0
  -24.1718  -34.0022   25.6806 C   0  0  0  0  0  0  0  0  0  0  0  0
  -23.5989  -30.4329   20.2628 C   0  0  0  0  0  0  0  0  0  0  0  0
  -23.2958  -27.5305   20.7409 C   0  0  0  0  0  0  0  0  0  0  0  0
  -23.0935  -32.9330   25.5245 C   0  0  0  0  0  0  0  0  0  0  0  0
  -29.0096  -19.0431   24.0644 C   0  0  0  0  0  0  0  0  0  0  0  0
  -23.7181  -31.5414   25.5214 C   0  0  0  0  0  0  0  0  0  0  0  0
  -28.9540  -17.7868   23.1936 C   0  0  0  0  0  0  0  0  0  0  0  0
  -28.1657  -28.5130   24.4318 C   0  0  0  0  0  0  0  0  0  0  0  0
  -27.4947  -24.5040   22.4136 C   0  0  0  0  0  0  0  0  0  0  0  0
  -26.1558  -24.5724   24.0738 C   0  0  0  0  0  0  0  0  0  0  0  0
  -27.6250  -19.6626   24.2320 C   0  0  0  0  0  0  0  0  0  0  0  0
  -26.8760  -18.7245   22.0809 C   0  0  0  0  0  0  0  0  0  0  0  0
  -27.1299  -27.4685   24.8694 C   0  0  0  0  0  0  0  0  0  0  0  0
  -24.6833  -31.3725   24.3418 C   0  0  1  0  0  0  0  0  0  0  0  0
  -22.7616  -29.8925   21.4178 C   0  0  1  0  0  0  0  0  0  0  0  0
  -28.2485  -18.0654   21.8534 C   0  0  2  0  0  0  0  0  0  0  0  0
  -26.3384  -23.5935   22.8901 C   0  0  0  0  0  0  0  0  0  0  0  0
  -26.8041  -25.6535   23.1808 C   0  0  0  0  0  0  0  0  0  0  0  0
  -28.2693  -27.6893   23.1335 C   0  0  1  0  0  0  0  0  0  0  0  0
  -29.5425  -24.9780   17.4986 C   0  0  0  0  0  0  0  0  0  0  0  0
  -30.4595  -28.7595   22.5805 C   0  0  0  0  0  0  0  0  0  0  0  0
  -31.4862  -24.3540   22.6080 C   0  0  0  0  0  0  0  0  0  0  0  0
  -18.6237  -24.5757   18.0488 C   0  0  0  0  0  0  0  0  0  0  0  0
  -20.0710  -26.6033   24.0346 C   0  0  0  0  0  0  0  0  0  0  0  0
  -19.3267  -24.7742   22.4956 C   0  0  0  0  0  0  0  0  0  0  0  0
  -18.2912  -27.0378   22.3322 C   0  0  0  0  0  0  0  0  0  0  0  0
  -22.2945  -24.9868   17.1366 C   0  0  0  0  0  0  0  0  0  0  0  0
  -29.6582  -27.4434   22.5815 C   0  0  2  0  0  0  0  0  0  0  0  0
  -31.7660  -25.5842   21.7466 C   0  0  1  0  0  0  0  0  0  0  0  0
  -20.6623  -26.6982   21.5231 C   0  0  1  0  0  0  0  0  0  0  0  0
  -20.0001  -25.2207   18.0956 C   0  0  2  0  0  0  0  0  0  0  0  0
  -19.6148  -26.2874   22.5962 C   0  0  0  0  0  0  0  0  0  0  0  0
  -27.0353  -16.0563   21.0956 N   0  0  0  0  0  0  0  0  0  0  0  0
  -30.6104  -25.3198   19.6414 N   0  0  0  0  0  0  0  0  0  0  0  0
  -28.5941  -27.0983   20.4399 N   0  0  0  0  0  0  0  0  0  0  0  0
  -28.1421  -16.8129   21.0032 N   0  0  0  0  0  0  0  0  0  0  0  0
  -22.3030  -28.5206   21.1899 N   0  0  0  0  0  0  0  0  0  0  0  0
  -27.0163  -19.9205   22.9189 N   0  0  0  0  0  0  0  0  0  0  0  0
  -30.2338  -16.9738   19.9032 N   0  0  0  0  0  0  0  0  0  0  0  0
  -28.9021  -14.5969   17.2631 N   0  0  0  0  0  0  0  0  0  0  0  0
  -23.9484  -31.1432   23.1163 N   0  0  0  0  0  0  0  0  0  0  0  0
  -20.2456  -26.4355   20.1499 N   0  0  0  0  0  0  0  0  0  0  0  0
  -26.7420  -22.2490   23.2705 N   0  0  0  0  0  0  0  0  0  0  0  0
  -27.7449  -26.5271   23.9033 N   0  3  1  0  0  0  0  0  0  0  0  0
  -20.9114  -24.4488   17.2042 N   0  3  0  0  0  0  0  0  0  0  0  0
  -29.8647  -13.3648   18.9406 O   0  0  0  0  0  0  0  0  0  0  0  0
  -23.6613  -28.8424   23.3317 O   0  0  0  0  0  0  0  0  0  0  0  0
  -20.1517  -28.9716   21.9675 O   0  0  0  0  0  0  0  0  0  0  0  0
  -21.1774  -24.3173   20.0022 O   0  0  0  0  0  0  0  0  0  0  0  0
  -26.0718  -21.2908   21.3031 O   0  0  0  0  0  0  0  0  0  0  0  0
  -23.4832  -11.0206   19.4923 O   0  0  0  0  0  0  0  0  0  0  0  0
  -27.5243  -26.8032   18.3896 O   0  0  0  0  0  0  0  0  0  1  0  0
  -22.9904   -7.2045   23.4418 F   0  0  0  0  0  0  0  0  0  0  0  0
  -22.7941  -11.7316   22.0734 F   0  0  0  0  0  0  0  0  0  0  0  0
  -32.9329  -25.3360   21.0670 F   0  0  0  0  0  0  0  0  0  0  0  0
  1  2  1  0  0  0  0
  1  5  2  0  0  0  0
  2  6  2  0  0  0  0
  3  8  2  0  0  0  0
  3 15  1  0  0  0  0
  4  9  1  0  0  0  0
  4 15  2  0  0  0  0
  5 17  1  0  0  0  0
  6 19  1  0  0  0  0
  7 10  2  0  0  0  0
  7 18  1  0  0  0  0
  8 21  1  0  0  0  0
  9 21  2  0  0  0  0
 10 22  1  0  0  0  0
 11 12  2  0  0  0  0
 11 23  1  0  0  0  0
 12 24  1  0  0  0  0
 13 20  1  0  0  0  0
 13 22  2  0  0  0  0
 14 24  2  0  0  0  0
 14 25  1  0  0  0  0
 15 26  1  0  0  0  0
 16 26  1  0  0  0  0
 16 31  2  0  0  0  0
 16 32  1  0  0  0  0
 17 19  2  0  0  0  0
 17 37  1  0  0  0  0
 18 20  2  0  0  0  0
 18 38  1  0  0  0  0
 19 50  1  0  0  0  0
 20 39  1  0  0  0  0
 21 87  1  0  0  0  0
 22 88  1  0  0  0  0
 23 25  2  0  0  0  0
 23 87  1  0  0  0  0
 24 89  1  0  0  0  0
 25 90  1  0  0  0  0
 26 69  2  0  0  0  0
 27 28  1  0  0  0  0
 27 64  1  0  0  0  0
 27 71  2  0  0  0  0
 28 65  1  0  0  0  0
 28 70  2  0  0  0  0
 29 30  2  0  0  0  0
 29 56  1  0  0  0  0
 29 70  1  0  0  0  0
 30 71  1  0  0  0  0
 30 88  1  0  0  0  0
 31 72  1  0  0  0  0
 31 75  1  0  0  0  0
 32 76  1  0  0  0  0
 32 82  2  0  0  0  0
 33 51  1  0  0  0  0
 33 77  1  0  0  0  0
 33 83  2  0  0  0  0
 34 66  1  0  0  0  0
 34 73  1  0  0  0  0
 34 84  2  0  0  0  0
 35 67  1  0  0  0  0
 35 78  1  0  0  0  0
 35 85  2  0  0  0  0
 36 74  1  0  0  0  0
 36 79  1  0  0  0  0
 36 86  2  0  0  0  0
 37 40  1  0  0  0  0
 38 51  1  0  0  0  0
 39 73  1  0  0  0  0
 40 42  1  0  0  0  0
 41 43  1  0  0  0  0
 41 47  1  0  0  0  0
 42 50  1  0  0  0  0
 43 52  1  0  0  0  0
 44 49  1  0  0  0  0
 44 55  1  0  0  0  0
 45 53  1  0  0  0  0
 45 54  1  0  0  0  0
 46 53  1  0  0  0  0
 46 54  1  0  0  0  0
 47 74  1  0  0  0  0
 48 52  1  0  0  0  0
 48 74  1  0  0  0  0
 49 80  1  0  0  0  0
 50 77  1  0  0  0  0
 51 73  1  0  0  0  0
 52 72  1  0  0  0  0
 53 79  1  0  0  0  0
 54 80  1  0  0  0  0
 55 64  1  0  0  0  0
 55 80  1  0  0  0  0
 57 64  1  0  0  0  0
 58 65  1  0  0  0  0
 59 67  1  0  0  0  0
 60 68  1  0  0  0  0
 61 68  1  0  0  0  0
 62 68  1  0  0  0  0
 63 81  1  0  0  0  0
 65 91  1  0  0  0  0
 66 68  1  0  0  0  0
 66 78  1  0  0  0  0
 67 81  1  0  0  0  0
 69 72  1  0  0  0  0
M  CHG  2  80   1  81   1
M  ISO  4  30 101  36 100  79 100  88 101
M  END
> <Batch ID>
0162

> <Smiles>
CNC(C)C(=O)NC(C(=O)N1Cc2cc([101O:1][101c:1]3nc(C(C)C4CCN4C4CC([100NH:0][100C:0](=O)N5CCCC(n6nc(-c7ccc(Oc8ccc(F)cc8F)cc7)c(C(N)=O)c6N)C5)C4)c(C(C)F)nc3C)ccc2CC1C(=O)NC1CCCc2ccccc21)C(C)(C)C

> <Shape>
0.293

> <Color>
0.090

> <Negative vol penalty>
0.000

$$$$

  -OEChem-04052322143D

 87 97  0     1  0  0  0  0  0999 V2000
  -22.2441  -34.7421   15.6933 C   0  0  0  0  0  0  0  0  0  0  0  0
  -23.0297  -33.5942   15.7145 C   0  0  0  0  0  0  0  0  0  0  0  0
  -24.3322   -9.6265   20.2399 C   0  0  0  0  0  0  0  0  0  0  0  0
  -22.8761  -10.3886   22.0108 C   0  0  0  0  0  0  0  0  0  0  0  0
  -22.2648  -35.6197   16.7765 C   0  0  0  0  0  0  0  0  0  0  0  0
  -23.8374  -33.3237   16.8186 C   0  0  0  0  0  0  0  0  0  0  0  0
  -25.1714  -27.8173   19.1435 C   0  0  0  0  0  0  0  0  0  0  0  0
  -23.7343   -8.3673   20.2901 C   0  0  0  0  0  0  0  0  0  0  0  0
  -22.2781   -9.1294   22.0610 C   0  0  0  0  0  0  0  0  0  0  0  0
  -26.2768  -26.9802   18.9975 C   0  0  0  0  0  0  0  0  0  0  0  0
  -22.9882   -6.0836   23.3454 C   0  0  0  0  0  0  0  0  0  0  0  0
  -22.7734   -5.5178   24.6021 C   0  0  0  0  0  0  0  0  0  0  0  0
  -27.2098  -27.8663   21.0380 C   0  0  0  0  0  0  0  0  0  0  0  0
  -20.3989   -5.4429   24.1625 C   0  0  0  0  0  0  0  0  0  0  0  0
  -23.9031  -10.6371   21.1003 C   0  0  0  0  0  0  0  0  0  0  0  0
  -24.1303  -13.0339   20.2569 C   0  0  0  0  0  0  0  0  0  0  0  0
  -23.0659  -35.3550   17.8985 C   0  0  0  0  0  0  0  0  0  0  0  0
  -25.0820  -28.6944   20.2339 C   0  0  0  0  0  0  0  0  0  0  0  0
  -23.8699  -34.1993   17.9172 C   0  0  0  0  0  0  0  0  0  0  0  0
  -26.1010  -28.7116   21.1969 C   0  0  0  0  0  0  0  0  0  0  0  0
  -22.7072   -8.1188   21.2006 C   0  0  0  0  0  0  0  0  0  0  0  0
  -27.2975  -27.0067   19.9432 C   0  0  0  0  0  0  0  0  0  0  0  0
  -21.9084   -6.3292   22.4973 C   0  0  0  0  0  0  0  0  0  0  0  0
  -21.4788   -5.1974   25.0107 C   0  0  0  0  0  0  0  0  0  0  0  0
  -20.6137   -6.0088   22.9058 C   0  0  0  0  0  0  0  0  0  0  0  0
  -24.5208  -11.9379   21.0494 C   0  0  0  0  0  0  0  0  0  0  0  0
  -25.0296  -14.0231   20.5719 C   0  0  0  0  0  0  0  0  0  0  0  0
  -23.0510  -13.1478   19.3199 C   0  0  0  0  0  0  0  0  0  0  0  0
  -24.9314  -31.8521   20.5661 C   0  0  0  0  0  0  0  0  0  0  0  0
  -24.4713  -31.1106   23.6903 C   0  0  0  0  0  0  0  0  0  0  0  0
  -24.8862  -28.8652   26.2266 C   0  0  0  0  0  0  0  0  0  0  0  0
  -30.1846  -15.7565   21.5886 C   0  0  0  0  0  0  0  0  0  0  0  0
  -23.0911  -36.3573   19.0252 C   0  0  0  0  0  0  0  0  0  0  0  0
  -23.8704  -29.5718   20.3912 C   0  0  0  0  0  0  0  0  0  0  0  0
  -26.0432  -29.6205   22.3965 C   0  0  0  0  0  0  0  0  0  0  0  0
  -23.6896  -35.8065   20.3170 C   0  0  0  0  0  0  0  0  0  0  0  0
  -28.4531  -14.3232   24.2665 C   0  0  0  0  0  0  0  0  0  0  0  0
  -24.9880  -35.0598   20.0279 C   0  0  0  0  0  0  0  0  0  0  0  0
  -29.3420  -22.8861   18.8219 C   0  0  0  0  0  0  0  0  0  0  0  0
  -27.2485  -13.6484   23.6135 C   0  0  0  0  0  0  0  0  0  0  0  0
  -28.6199  -24.1846   18.4574 C   0  0  0  0  0  0  0  0  0  0  0  0
  -28.8015  -18.3234   19.9006 C   0  0  0  0  0  0  0  0  0  0  0  0
  -30.9840  -17.8211   18.6314 C   0  0  0  0  0  0  0  0  0  0  0  0
  -29.7012  -14.1528   23.4096 C   0  0  0  0  0  0  0  0  0  0  0  0
  -28.3413  -14.0225   21.3440 C   0  0  0  0  0  0  0  0  0  0  0  0
  -28.9439  -19.5396   20.8027 C   0  0  0  0  0  0  0  0  0  0  0  0
  -24.7403  -33.8587   19.1073 C   0  0  1  0  0  0  0  0  0  0  0  0
  -24.1274  -30.7940   21.2673 C   0  0  1  0  0  0  0  0  0  0  0  0
  -31.3980  -18.2395   20.0111 C   0  0  1  0  0  0  0  0  0  0  0  0
  -29.0132  -22.6331   20.2953 C   0  0  2  0  0  0  0  0  0  0  0  0
  -28.9218  -24.0531   20.8641 C   0  0  1  0  0  0  0  0  0  0  0  0
  -27.0491  -14.1566   22.1758 C   0  0  1  0  0  0  0  0  0  0  0  0
  -28.1317  -24.7858   19.7770 C   0  0  1  0  0  0  0  0  0  1  0  0
  -31.4200  -19.6861   20.4302 C   0  0  1  0  0  0  0  0  0  0  0  0
  -30.0774  -17.5171   19.8102 C   0  0  1  0  0  0  0  0  0  0  0  0
  -28.2463  -24.1223   22.2280 C   0  0  0  0  0  0  0  0  0  0  0  0
  -32.4920  -20.4428   19.6428 C   0  0  0  0  0  0  0  0  0  0  0  0
  -24.4395  -28.5560   28.6766 C   0  0  0  0  0  0  0  0  0  0  0  0
  -26.7887  -32.9837   24.3468 C   0  0  0  0  0  0  0  0  0  0  0  0
  -26.9109  -31.9255   26.6125 C   0  0  0  0  0  0  0  0  0  0  0  0
  -24.8461  -33.1385   25.9141 C   0  0  0  0  0  0  0  0  0  0  0  0
  -29.2594  -15.2651   19.3543 C   0  0  0  0  0  0  0  0  0  0  0  0
  -23.1737  -26.5021   25.7346 C   0  0  0  0  0  0  0  0  0  0  0  0
  -30.0500  -21.7557   20.9799 C   0  0  0  0  0  0  0  0  0  0  0  0
  -25.3729  -30.8919   24.8812 C   0  0  1  0  0  0  0  0  0  0  0  0
  -23.9182  -28.3294   27.2660 C   0  0  2  0  0  0  0  0  0  0  0  0
  -25.9820  -32.2190   25.4151 C   0  0  0  0  0  0  0  0  0  0  0  0
  -25.5854  -12.2052   21.8104 N   0  0  0  0  0  0  0  0  0  0  0  0
  -25.8716  -13.4805   21.4975 N   0  0  0  0  0  0  0  0  0  0  0  0
  -24.8412  -30.4639   22.5025 N   0  0  0  0  0  0  0  0  0  0  0  0
  -29.4819  -14.6315   22.0441 N   0  0  0  0  0  0  0  0  0  0  0  0
  -25.1745  -15.2954   20.1445 N   0  0  0  0  0  0  0  0  0  0  0  0
  -22.2228  -12.0356   19.1164 N   0  0  0  0  0  0  0  0  0  0  0  0
  -24.1691  -32.7586   19.8544 N   0  0  0  0  0  0  0  0  0  0  0  0
  -24.5810  -30.1600   25.8638 N   0  0  0  0  0  0  0  0  0  0  0  0
  -29.9606  -16.1656   20.2628 N   0  0  0  0  0  0  0  0  0  0  0  0
  -30.0776  -20.4096   20.3003 N   0  3  2  0  0  0  0  0  0  0  0  0
  -23.7072  -26.8669   27.0722 N   0  3  0  0  0  0  0  0  0  0  0  0
  -22.8377  -14.1992   18.6699 O   0  0  0  0  0  0  0  0  0  0  0  0
  -26.1529  -31.8473   20.6647 O   0  0  0  0  0  0  0  0  0  0  0  0
  -23.4716  -31.8231   23.8115 O   0  0  0  0  0  0  0  0  0  0  0  0
  -25.8219  -28.2027   25.7838 O   0  0  0  0  0  0  0  0  0  0  0  0
  -30.9873  -16.3542   22.3173 O   0  0  0  0  0  0  0  0  0  0  0  0
  -22.1234   -6.8902   21.2496 O   0  0  0  0  0  0  0  0  0  0  0  0
  -28.3778  -26.1912   19.8028 O   0  0  0  0  0  0  0  0  0  1  0  0
  -21.2728   -4.6526   26.2169 F   0  0  0  0  0  0  0  0  0  0  0  0
  -19.5725   -6.2413   22.0949 F   0  0  0  0  0  0  0  0  0  0  0  0
  1  2  1  0  0  0  0
  1  5  2  0  0  0  0
  2  6  2  0  0  0  0
  3  8  2  0  0  0  0
  3 15  1  0  0  0  0
  4  9  1  0  0  0  0
  4 15  2  0  0  0  0
  5 17  1  0  0  0  0
  6 19  1  0  0  0  0
  7 10  2  0  0  0  0
  7 18  1  0  0  0  0
  8 21  1  0  0  0  0
  9 21  2  0  0  0  0
 10 22  1  0  0  0  0
 11 12  2  0  0  0  0
 11 23  1  0  0  0  0
 12 24  1  0  0  0  0
 13 20  1  0  0  0  0
 13 22  2  0  0  0  0
 14 24  2  0  0  0  0
 14 25  1  0  0  0  0
 15 26  1  0  0  0  0
 16 26  1  0  0  0  0
 16 27  2  0  0  0  0
 16 28  1  0  0  0  0
 17 19  2  0  0  0  0
 17 33  1  0  0  0  0
 18 20  2  0  0  0  0
 18 34  1  0  0  0  0
 19 47  1  0  0  0  0
 20 35  1  0  0  0  0
 21 84  1  0  0  0  0
 22 85  1  0  0  0  0
 23 25  2  0  0  0  0
 23 84  1  0  0  0  0
 24 86  1  0  0  0  0
 25 87  1  0  0  0  0
 26 68  2  0  0  0  0
 27 69  1  0  0  0  0
 27 72  1  0  0  0  0
 28 73  1  0  0  0  0
 28 79  2  0  0  0  0
 29 48  1  0  0  0  0
 29 74  1  0  0  0  0
 29 80  2  0  0  0  0
 30 65  1  0  0  0  0
 30 70  1  0  0  0  0
 30 81  2  0  0  0  0
 31 66  1  0  0  0  0
 31 75  1  0  0  0  0
 31 82  2  0  0  0  0
 32 71  1  0  0  0  0
 32 76  1  0  0  0  0
 32 83  2  0  0  0  0
 33 36  1  0  0  0  0
 34 48  1  0  0  0  0
 35 70  1  0  0  0  0
 36 38  1  0  0  0  0
 37 40  1  0  0  0  0
 37 44  1  0  0  0  0
 38 47  1  0  0  0  0
 39 41  1  0  0  0  0
 39 50  1  0  0  0  0
 40 52  1  0  0  0  0
 41 53  1  0  0  0  0
 42 46  1  0  0  0  0
 42 55  1  0  0  0  0
 43 49  1  0  0  0  0
 43 55  1  0  0  0  0
 44 71  1  0  0  0  0
 45 52  1  0  0  0  0
 45 71  1  0  0  0  0
 46 77  1  0  0  0  0
 47 74  1  0  0  0  0
 48 70  1  0  0  0  0
 49 54  1  0  0  0  0
 49 55  1  0  0  0  0
 50 51  1  0  0  0  0
 50 64  1  0  0  0  0
 51 53  1  0  0  0  0
 51 56  1  0  0  0  0
 52 69  1  0  0  0  0
 53 85  1  0  0  0  0
 54 57  1  0  0  0  0
 54 77  1  0  0  0  0
 55 76  1  0  0  0  0
 58 66  1  0  0  0  0
 59 67  1  0  0  0  0
 60 67  1  0  0  0  0
 61 67  1  0  0  0  0
 62 76  1  0  0  0  0
 63 78  1  0  0  0  0
 64 77  1  0  0  0  0
 65 67  1  0  0  0  0
 65 75  1  0  0  0  0
 66 78  1  0  0  0  0
 68 69  1  0  0  0  0
M  CHG  2  77   1  78   1
M  ISO  4  32 100  53 101  76 100  85 101
M  END
> <Batch ID>
0162

> <Smiles>
CNC(C)C(=O)NC(C(=O)N1Cc2cc([101O:1][101CH:1]3CCC(CN4CCC5([100N:0](C)[100C:0](=O)N6CCCC(n7nc(-c8ccc(Oc9ccc(F)cc9F)cc8)c(C(N)=O)c7N)C6)CC5C4C)C3C)ccc2CC1C(=O)NC1CCCc2ccccc21)C(C)(C)C

> <Shape>
0.303

> <Color>
0.168

> <Negative vol penalty>
0.000

$$$$

  -OEChem-04052322143D

 87 96  0     1  0  0  0  0  0999 V2000
  -20.5124  -25.8439   26.4221 C   0  0  0  0  0  0  0  0  0  0  0  0
  -21.8343  -26.2384   26.2422 C   0  0  0  0  0  0  0  0  0  0  0  0
  -25.7434  -13.0308   21.9352 C   0  0  0  0  0  0  0  0  0  0  0  0
  -24.6192  -12.8118   19.8079 C   0  0  0  0  0  0  0  0  0  0  0  0
  -19.6923  -25.6328   25.3145 C   0  0  0  0  0  0  0  0  0  0  0  0
  -22.3372  -26.4210   24.9545 C   0  0  0  0  0  0  0  0  0  0  0  0
  -26.4660  -30.5772   23.1699 C   0  0  0  0  0  0  0  0  0  0  0  0
  -24.9775  -11.9838   22.4478 C   0  0  0  0  0  0  0  0  0  0  0  0
  -23.8534  -11.7647   20.3204 C   0  0  0  0  0  0  0  0  0  0  0  0
  -27.8409  -30.4999   22.9519 C   0  0  0  0  0  0  0  0  0  0  0  0
  -24.2505   -8.4694   20.9561 C   0  0  0  0  0  0  0  0  0  0  0  0
  -24.0964   -7.3325   20.1628 C   0  0  0  0  0  0  0  0  0  0  0  0
  -27.4421  -30.1523   20.5983 C   0  0  0  0  0  0  0  0  0  0  0  0
  -32.3841  -28.4598   22.9750 C   0  0  0  0  0  0  0  0  0  0  0  0
  -31.6661  -26.5092   24.1851 C   0  0  0  0  0  0  0  0  0  0  0  0
  -21.7022   -7.6566   20.1636 C   0  0  0  0  0  0  0  0  0  0  0  0
  -25.5642  -13.4449   20.6153 C   0  0  0  0  0  0  0  0  0  0  0  0
  -27.6004  -14.4311   19.4368 C   0  0  0  0  0  0  0  0  0  0  0  0
  -20.1826  -25.8224   24.0128 C   0  0  0  0  0  0  0  0  0  0  0  0
  -25.5670  -30.4315   22.1036 C   0  0  0  0  0  0  0  0  0  0  0  0
  -21.5232  -26.2111   23.8284 C   0  0  0  0  0  0  0  0  0  0  0  0
  -26.0564  -30.2308   20.8050 C   0  0  0  0  0  0  0  0  0  0  0  0
  -32.4183  -27.6770   24.1236 C   0  0  0  0  0  0  0  0  0  0  0  0
  -24.0325  -11.3507   21.6404 C   0  0  0  0  0  0  0  0  0  0  0  0
  -28.3291  -30.2845   21.6664 C   0  0  0  0  0  0  0  0  0  0  0  0
  -23.1304   -9.1999   21.3532 C   0  0  0  0  0  0  0  0  0  0  0  0
  -22.8222   -6.9261   19.7665 C   0  0  0  0  0  0  0  0  0  0  0  0
  -21.8563   -8.7934   20.9569 C   0  0  0  0  0  0  0  0  0  0  0  0
  -26.3547  -14.5268   20.0854 C   0  0  0  0  0  0  0  0  0  0  0  0
  -31.5882  -28.0342   21.9236 C   0  0  0  0  0  0  0  0  0  0  0  0
  -30.9022  -26.1711   23.0796 C   0  0  0  0  0  0  0  0  0  0  0  0
  -27.9279  -15.7290   19.1291 C   0  0  0  0  0  0  0  0  0  0  0  0
  -28.3908  -13.2725   19.1388 C   0  0  0  0  0  0  0  0  0  0  0  0
  -23.2579  -28.3696   21.3822 C   0  0  0  0  0  0  0  0  0  0  0  0
  -22.7327  -30.4173   18.9218 C   0  0  0  0  0  0  0  0  0  0  0  0
  -23.9690  -32.8218   16.8393 C   0  0  0  0  0  0  0  0  0  0  0  0
  -28.4052  -20.9443   20.3033 C   0  0  0  0  0  0  0  0  0  0  0  0
  -19.2718  -25.5363   22.8452 C   0  0  0  0  0  0  0  0  0  0  0  0
  -24.0877  -30.5441   22.3512 C   0  0  0  0  0  0  0  0  0  0  0  0
  -25.1338  -30.0882   19.6231 C   0  0  0  0  0  0  0  0  0  0  0  0
  -19.7743  -26.1145   21.5248 C   0  0  0  0  0  0  0  0  0  0  0  0
  -25.1805  -19.9639   19.3188 C   0  0  0  0  0  0  0  0  0  0  0  0
  -21.2562  -25.8059   21.3364 C   0  0  0  0  0  0  0  0  0  0  0  0
  -25.2951  -18.4409   19.3779 C   0  0  0  0  0  0  0  0  0  0  0  0
  -28.2663  -23.5640   22.6498 C   0  0  0  0  0  0  0  0  0  0  0  0
  -30.1691  -23.8402   21.0156 C   0  0  0  0  0  0  0  0  0  0  0  0
  -25.8963  -20.6385   20.4905 C   0  0  0  0  0  0  0  0  0  0  0  0
  -27.4257  -22.9302   21.5375 C   0  0  0  0  0  0  0  0  0  0  0  0
  -29.2843  -23.2292   19.9326 C   0  0  0  0  0  0  0  0  0  0  0  0
  -27.4247  -18.7055   20.7052 C   0  0  0  0  0  0  0  0  0  0  0  0
  -22.0982  -26.4436   22.4481 C   0  0  1  0  0  0  0  0  0  0  0  0
  -23.2480  -29.8681   21.2717 C   0  0  1  0  0  0  0  0  0  0  0  0
  -26.7645  -18.0023   19.5091 C   0  0  1  0  0  0  0  0  0  0  0  0
  -29.3140  -24.5258   22.0844 C   0  0  0  0  0  0  0  0  0  0  0  0
  -33.2581  -28.0884   25.2847 C   0  0  0  0  0  0  0  0  0  0  0  0
  -32.0605  -28.0766   19.4525 C   0  0  0  0  0  0  0  0  0  0  0  0
  -23.3132  -34.2793   14.9046 C   0  0  0  0  0  0  0  0  0  0  0  0
  -22.9534  -28.0216   17.0452 C   0  0  0  0  0  0  0  0  0  0  0  0
  -23.2442  -29.6253   15.1448 C   0  0  0  0  0  0  0  0  0  0  0  0
  -21.1302  -29.6335   16.4690 C   0  0  0  0  0  0  0  0  0  0  0  0
  -24.4673  -35.2962   18.3846 C   0  0  0  0  0  0  0  0  0  0  0  0
  -30.1088  -29.3829   20.3720 C   0  0  0  0  0  0  0  0  0  1  0  0
  -31.5274  -28.8495   20.6752 C   0  0  1  0  0  0  0  0  0  0  0  0
  -23.2473  -30.5445   17.5083 C   0  0  1  0  0  0  0  0  0  0  0  0
  -23.4156  -34.1712   16.4181 C   0  0  2  0  0  0  0  0  0  0  0  0
  -22.6614  -29.4569   16.5642 C   0  0  0  0  0  0  0  0  0  0  0  0
  -25.9204  -15.7860   20.1847 N   0  0  0  0  0  0  0  0  0  0  0  0
  -30.8437  -26.9060   21.9465 N   0  0  0  0  0  0  0  0  0  0  0  0
  -26.8987  -16.4934   19.5944 N   0  0  0  0  0  0  0  0  0  0  0  0
  -23.6955  -30.1994   19.9174 N   0  0  0  0  0  0  0  0  0  0  0  0
  -27.2811  -20.1590   20.5998 N   0  0  0  0  0  0  0  0  0  0  0  0
  -28.2890  -22.3266   20.5122 N   0  0  0  0  0  0  0  0  0  0  0  0
  -28.9931  -16.2795   18.5088 N   0  0  0  0  0  0  0  0  0  0  0  0
  -27.9060  -12.0156   19.5253 N   0  0  0  0  0  0  0  0  0  0  0  0
  -30.1590  -25.0065   23.1553 N   0  0  0  0  0  0  0  0  0  0  0  0
  -22.2701  -27.8594   22.2028 N   0  0  0  0  0  0  0  0  0  0  0  0
  -22.9628  -31.9135   17.0919 N   0  0  0  0  0  0  0  0  0  0  0  0
  -24.2965  -35.2684   16.9091 N   0  3  0  0  0  0  0  0  0  0  0  0
  -29.5020  -13.3512   18.5621 O   0  0  0  0  0  0  0  0  0  0  0  0
  -24.0985  -27.7240   20.7672 O   0  0  0  0  0  0  0  0  0  0  0  0
  -21.5217  -30.5150   19.1356 O   0  0  0  0  0  0  0  0  0  0  0  0
  -25.1734  -32.5950   16.9311 O   0  0  0  0  0  0  0  0  0  0  0  0
  -29.4516  -20.4400   19.8770 O   0  0  0  0  0  0  0  0  0  0  0  0
  -23.2852  -10.3288   22.1401 O   0  0  0  0  0  0  0  0  0  0  0  0
  -29.6794  -30.2075   21.4496 O   0  0  0  0  0  0  0  0  0  1  0  0
  -22.6745   -5.8352   19.0034 F   0  0  0  0  0  0  0  0  0  0  0  0
  -20.7766   -9.4918   21.3343 F   0  0  0  0  0  0  0  0  0  0  0  0
  1  2  1  0  0  0  0
  1  5  2  0  0  0  0
  2  6  2  0  0  0  0
  3  8  2  0  0  0  0
  3 17  1  0  0  0  0
  4  9  1  0  0  0  0
  4 17  2  0  0  0  0
  5 19  1  0  0  0  0
  6 21  1  0  0  0  0
  7 10  2  0  0  0  0
  7 20  1  0  0  0  0
  8 24  1  0  0  0  0
  9 24  2  0  0  0  0
 10 25  1  0  0  0  0
 11 12  2  0  0  0  0
 11 26  1  0  0  0  0
 12 27  1  0  0  0  0
 13 22  1  0  0  0  0
 13 25  2  0  0  0  0
 14 23  2  0  0  0  0
 14 30  1  0  0  0  0
 15 23  1  0  0  0  0
 15 31  2  0  0  0  0
 16 27  2  0  0  0  0
 16 28  1  0  0  0  0
 17 29  1  0  0  0  0
 18 29  1  0  0  0  0
 18 32  2  0  0  0  0
 18 33  1  0  0  0  0
 19 21  2  0  0  0  0
 19 38  1  0  0  0  0
 20 22  2  0  0  0  0
 20 39  1  0  0  0  0
 21 51  1  0  0  0  0
 22 40  1  0  0  0  0
 23 55  1  0  0  0  0
 24 84  1  0  0  0  0
 25 85  1  0  0  0  0
 26 28  2  0  0  0  0
 26 84  1  0  0  0  0
 27 86  1  0  0  0  0
 28 87  1  0  0  0  0
 29 67  2  0  0  0  0
 30 63  1  0  0  0  0
 30 68  2  0  0  0  0
 31 68  1  0  0  0  0
 31 75  1  0  0  0  0
 32 69  1  0  0  0  0
 32 73  1  0  0  0  0
 33 74  1  0  0  0  0
 33 79  2  0  0  0  0
 34 52  1  0  0  0  0
 34 76  1  0  0  0  0
 34 80  2  0  0  0  0
 35 64  1  0  0  0  0
 35 70  1  0  0  0  0
 35 81  2  0  0  0  0
 36 65  1  0  0  0  0
 36 77  1  0  0  0  0
 36 82  2  0  0  0  0
 37 71  1  0  0  0  0
 37 72  1  0  0  0  0
 37 83  2  0  0  0  0
 38 41  1  0  0  0  0
 39 52  1  0  0  0  0
 40 70  1  0  0  0  0
 41 43  1  0  0  0  0
 42 44  1  0  0  0  0
 42 47  1  0  0  0  0
 43 51  1  0  0  0  0
 44 53  1  0  0  0  0
 45 48  1  0  0  0  0
 45 54  1  0  0  0  0
 46 49  1  0  0  0  0
 46 54  1  0  0  0  0
 47 71  1  0  0  0  0
 48 72  1  0  0  0  0
 49 72  1  0  0  0  0
 50 53  1  0  0  0  0
 50 71  1  0  0  0  0
 51 76  1  0  0  0  0
 52 70  1  0  0  0  0
 53 69  1  0  0  0  0
 54 75  1  0  0  0  0
 56 63  1  0  0  0  0
 57 65  1  0  0  0  0
 58 66  1  0  0  0  0
 59 66  1  0  0  0  0
 60 66  1  0  0  0  0
 61 78  1  0  0  0  0
 62 63  1  0  0  0  0
 62 85  1  0  0  0  0
 64 66  1  0  0  0  0
 64 77  1  0  0  0  0
 65 78  1  0  0  0  0
 67 69  1  0  0  0  0
M  CHG  1  78   1
M  ISO  4  37 100  62 101  72 100  85 101
M  END
> <Batch ID>
0162

> <Smiles>
CNC(C)C(=O)NC(C(=O)N1Cc2cc([101O:1][101CH2:1]C(C)c3cc(C)cc(NC4CC[100N:0]([100C:0](=O)N5CCCC(n6nc(-c7ccc(Oc8ccc(F)cc8F)cc7)c(C(N)=O)c6N)C5)CC4)n3)ccc2CC1C(=O)NC1CCCc2ccccc21)C(C)(C)C

> <Shape>
0.231

> <Color>
0.062

> <Negative vol penalty>
0.000

$$$$

  -OEChem-04052322143D

 84 93  0     1  0  0  0  0  0999 V2000
  -28.3007  -34.8644   23.8906 C   0  0  0  0  0  0  0  0  0  0  0  0
  -28.4528  -33.5290   23.5313 C   0  0  0  0  0  0  0  0  0  0  0  0
  -26.0448  -12.6631   21.4579 C   0  0  0  0  0  0  0  0  0  0  0  0
  -25.7854  -12.7235   19.0566 C   0  0  0  0  0  0  0  0  0  0  0  0
  -27.0983  -35.3038   24.4429 C   0  0  0  0  0  0  0  0  0  0  0  0
  -27.4029  -32.6320   23.7253 C   0  0  0  0  0  0  0  0  0  0  0  0
  -30.9340  -23.4599   17.7131 C   0  0  0  0  0  0  0  0  0  0  0  0
  -26.6637  -29.6128   19.7274 C   0  0  0  0  0  0  0  0  0  0  0  0
  -30.2069  -24.6417   17.8551 C   0  0  0  0  0  0  0  0  0  0  0  0
  -24.6637  -12.5332   21.6038 C   0  0  0  0  0  0  0  0  0  0  0  0
  -24.4043  -12.5936   19.2025 C   0  0  0  0  0  0  0  0  0  0  0  0
  -27.5407  -28.5407   19.5684 C   0  0  0  0  0  0  0  0  0  0  0  0
  -21.2394  -11.8229   22.5960 C   0  0  0  0  0  0  0  0  0  0  0  0
  -20.7696  -10.8727   23.5025 C   0  0  0  0  0  0  0  0  0  0  0  0
  -25.8940  -27.0597   20.5246 C   0  0  0  0  0  0  0  0  0  0  0  0
  -21.8801   -9.1298   22.2510 C   0  0  0  0  0  0  0  0  0  0  0  0
  -26.6057  -12.7583   20.1843 C   0  0  0  0  0  0  0  0  0  0  0  0
  -28.9752  -11.8557   19.9047 C   0  0  0  0  0  0  0  0  0  0  0  0
  -26.0298  -34.4138   24.6348 C   0  0  0  0  0  0  0  0  0  0  0  0
  -25.3973  -29.4180   20.2972 C   0  0  0  0  0  0  0  0  0  0  0  0
  -26.1856  -33.0597   24.2819 C   0  0  0  0  0  0  0  0  0  0  0  0
  -31.5210  -22.8638   18.8293 C   0  0  0  0  0  0  0  0  0  0  0  0
  -25.0019  -28.1305   20.6874 C   0  0  0  0  0  0  0  0  0  0  0  0
  -30.0667  -25.2275   19.1132 C   0  0  0  0  0  0  0  0  0  0  0  0
  -31.3809  -23.4495   20.0874 C   0  0  0  0  0  0  0  0  0  0  0  0
  -30.6537  -24.6314   20.2294 C   0  0  0  0  0  0  0  0  0  0  0  0
  -23.8435  -12.4984   20.4762 C   0  0  0  0  0  0  0  0  0  0  0  0
  -27.1570  -27.2644   19.9696 C   0  0  0  0  0  0  0  0  0  0  0  0
  -22.0295  -11.4267   21.5169 C   0  0  0  0  0  0  0  0  0  0  0  0
  -21.0899   -9.5261   23.3301 C   0  0  0  0  0  0  0  0  0  0  0  0
  -22.3499  -10.0801   21.3444 C   0  0  0  0  0  0  0  0  0  0  0  0
  -28.0322  -12.8930   20.0329 C   0  0  0  0  0  0  0  0  0  0  0  0
  -30.1822  -12.5011   19.7897 C   0  0  0  0  0  0  0  0  0  0  0  0
  -28.7779  -10.4357   19.8907 C   0  0  0  0  0  0  0  0  0  0  0  0
  -23.9197  -30.4891   22.8998 C   0  0  0  0  0  0  0  0  0  0  0  0
  -21.3802  -28.9211   21.6291 C   0  0  0  0  0  0  0  0  0  0  0  0
  -20.2338  -26.4534   19.5692 C   0  0  0  0  0  0  0  0  0  0  0  0
  -31.6804  -17.9872   17.9303 C   0  0  0  0  0  0  0  0  0  0  0  0
  -24.7657  -34.9254   25.2791 C   0  0  0  0  0  0  0  0  0  0  0  0
  -24.4528  -30.5801   20.4374 C   0  0  0  0  0  0  0  0  0  0  0  0
  -23.6455  -27.8648   21.2859 C   0  0  0  0  0  0  0  0  0  0  0  0
  -23.5718  -33.9901   25.1051 C   0  0  0  0  0  0  0  0  0  0  0  0
  -32.4359  -16.5083   21.0487 C   0  0  0  0  0  0  0  0  0  0  0  0
  -23.9714  -32.5510   25.4153 C   0  0  0  0  0  0  0  0  0  0  0  0
  -31.4632  -15.3371   21.1553 C   0  0  0  0  0  0  0  0  0  0  0  0
  -32.9627  -21.3609   17.2761 C   0  0  0  0  0  0  0  0  0  0  0  0
  -31.7707  -17.7050   20.3823 C   0  0  0  0  0  0  0  0  0  0  0  0
  -33.2910  -19.8740   17.2896 C   0  0  0  0  0  0  0  0  0  0  0  0
  -31.4708  -20.3004   18.7886 C   0  0  0  0  0  0  0  0  0  0  0  0
  -30.2655  -16.2197   19.0867 C   0  0  0  0  0  0  0  0  0  0  0  0
  -32.3038  -21.5822   18.6473 C   0  0  2  0  0  0  0  0  0  0  0  0
  -25.0612  -32.0616   24.4538 C   0  0  1  0  0  0  0  0  0  0  0  0
  -23.3837  -30.3562   21.5024 C   0  0  1  0  0  0  0  0  0  0  0  0
  -30.8848  -14.9862   19.7757 C   0  0  2  0  0  0  0  0  0  0  0  0
  -32.0103  -22.8073   21.2828 C   0  0  0  0  0  0  0  0  0  0  0  0
  -30.5037  -25.2618   21.5778 C   0  0  0  0  0  0  0  0  0  0  0  0
  -18.1090  -25.3874   18.7651 C   0  0  0  0  0  0  0  0  0  0  0  0
  -21.1053  -27.4633   24.2954 C   0  0  0  0  0  0  0  0  0  0  0  0
  -19.6380  -25.7893   23.1494 C   0  0  0  0  0  0  0  0  0  0  0  0
  -18.9398  -28.1811   23.2708 C   0  0  0  0  0  0  0  0  0  0  0  0
  -20.7953  -27.1836   16.7567 C   0  0  0  0  0  0  0  0  0  0  0  0
  -29.2845  -26.4942   19.2374 C   0  0  0  0  0  0  0  0  0  1  0  0
  -20.8306  -27.5186   21.7287 C   0  0  1  0  0  0  0  0  0  0  0  0
  -19.1590  -26.4545   18.4972 C   0  0  2  0  0  0  0  0  0  0  0  0
  -20.1548  -27.2431   23.1016 C   0  0  0  0  0  0  0  0  0  0  0  0
  -28.5919  -14.1054   20.0024 N   0  0  0  0  0  0  0  0  0  0  0  0
  -29.8997  -13.8339   19.8539 N   0  0  0  0  0  0  0  0  0  0  0  0
  -22.7601  -29.0347   21.4081 N   0  0  0  0  0  0  0  0  0  0  0  0
  -31.1981  -17.3543   19.0812 N   0  0  0  0  0  0  0  0  0  0  0  0
  -32.2089  -19.2705   18.0645 N   0  0  0  0  0  0  0  0  0  0  0  0
  -31.4469  -12.0530   19.6411 N   0  0  0  0  0  0  0  0  0  0  0  0
  -27.4728   -9.9412   20.0200 N   0  0  0  0  0  0  0  0  0  0  0  0
  -24.4865  -31.7199   23.1703 N   0  0  0  0  0  0  0  0  0  0  0  0
  -19.9462  -27.3442   20.5816 N   0  0  0  0  0  0  0  0  0  0  0  0
  -19.7617  -26.1953   17.1591 N   0  3  0  0  0  0  0  0  0  0  0  0
  -29.7323   -9.6288   19.7837 O   0  0  0  0  0  0  0  0  0  0  0  0
  -23.8247  -29.5453   23.6756 O   0  0  0  0  0  0  0  0  0  0  0  0
  -20.6122  -29.8805   21.7359 O   0  0  0  0  0  0  0  0  0  0  0  0
  -21.2271  -25.7316   19.5158 O   0  0  0  0  0  0  0  0  0  0  0  0
  -31.6779  -17.4138   16.8325 O   0  0  0  0  0  0  0  0  0  0  0  0
  -22.4958  -12.3714   20.6182 O   0  0  0  0  0  0  0  0  0  0  0  0
  -28.0174  -26.2089   19.8150 O   0  0  0  0  0  0  0  0  0  1  0  0
  -20.6400   -8.6138   24.2016 F   0  0  0  0  0  0  0  0  0  0  0  0
  -23.1095   -9.6935   20.3104 F   0  0  0  0  0  0  0  0  0  0  0  0
  1  2  1  0  0  0  0
  1  5  2  0  0  0  0
  2  6  2  0  0  0  0
  3 10  2  0  0  0  0
  3 17  1  0  0  0  0
  4 11  1  0  0  0  0
  4 17  2  0  0  0  0
  5 19  1  0  0  0  0
  6 21  1  0  0  0  0
  7  9  2  0  0  0  0
  7 22  1  0  0  0  0
  8 12  2  0  0  0  0
  8 20  1  0  0  0  0
  9 24  1  0  0  0  0
 10 27  1  0  0  0  0
 11 27  2  0  0  0  0
 12 28  1  0  0  0  0
 13 14  2  0  0  0  0
 13 29  1  0  0  0  0
 14 30  1  0  0  0  0
 15 23  1  0  0  0  0
 15 28  2  0  0  0  0
 16 30  2  0  0  0  0
 16 31  1  0  0  0  0
 17 32  1  0  0  0  0
 18 32  1  0  0  0  0
 18 33  2  0  0  0  0
 18 34  1  0  0  0  0
 19 21  2  0  0  0  0
 19 39  1  0  0  0  0
 20 23  2  0  0  0  0
 20 40  1  0  0  0  0
 21 52  1  0  0  0  0
 22 25  2  0  0  0  0
 22 51  1  0  0  0  0
 23 41  1  0  0  0  0
 24 26  2  0  0  0  0
 24 62  1  0  0  0  0
 25 26  1  0  0  0  0
 25 55  1  0  0  0  0
 26 56  1  0  0  0  0
 27 81  1  0  0  0  0
 28 82  1  0  0  0  0
 29 31  2  0  0  0  0
 29 81  1  0  0  0  0
 30 83  1  0  0  0  0
 31 84  1  0  0  0  0
 32 66  2  0  0  0  0
 33 67  1  0  0  0  0
 33 71  1  0  0  0  0
 34 72  1  0  0  0  0
 34 76  2  0  0  0  0
 35 53  1  0  0  0  0
 35 73  1  0  0  0  0
 35 77  2  0  0  0  0
 36 63  1  0  0  0  0
 36 68  1  0  0  0  0
 36 78  2  0  0  0  0
 37 64  1  0  0  0  0
 37 74  1  0  0  0  0
 37 79  2  0  0  0  0
 38 69  1  0  0  0  0
 38 70  1  0  0  0  0
 38 80  2  0  0  0  0
 39 42  1  0  0  0  0
 40 53  1  0  0  0  0
 41 68  1  0  0  0  0
 42 44  1  0  0  0  0
 43 45  1  0  0  0  0
 43 47  1  0  0  0  0
 44 52  1  0  0  0  0
 45 54  1  0  0  0  0
 46 48  1  0  0  0  0
 46 51  1  0  0  0  0
 47 69  1  0  0  0  0
 48 70  1  0  0  0  0
 49 51  1  0  0  0  0
 49 70  1  0  0  0  0
 50 54  1  0  0  0  0
 50 69  1  0  0  0  0
 52 73  1  0  0  0  0
 53 68  1  0  0  0  0
 54 67  1  0  0  0  0
 57 64  1  0  0  0  0
 58 65  1  0  0  0  0
 59 65  1  0  0  0  0
 60 65  1  0  0  0  0
 61 75  1  0  0  0  0
 62 82  1  0  0  0  0
 63 65  1  0  0  0  0
 63 74  1  0  0  0  0
 64 75  1  0  0  0  0
 66 67  1  0  0  0  0
M  CHG  1  75   1
M  ISO  4  38 100  62 101  70 100  82 101
M  END
> <Batch ID>
0162

> <Smiles>
CNC(C)C(=O)NC(C(=O)N1Cc2cc([101O:1][101CH2:1]c3ccc(C4CC[100N:0]([100C:0](=O)N5CCCC(n6nc(-c7ccc(Oc8ccc(F)cc8F)cc7)c(C(N)=O)c6N)C5)C4)c(C)c3C)ccc2CC1C(=O)NC1CCCc2ccccc21)C(C)(C)C

> <Shape>
0.315

> <Color>
0.081

> <Negative vol penalty>
0.000

$$$$

  -OEChem-04052322143D

 89 99  0     1  0  0  0  0  0999 V2000
  -43.7625  -23.2656   21.4789 C   0  0  0  0  0  0  0  0  0  0  0  0
  -42.9092  -22.2917   20.9702 C   0  0  0  0  0  0  0  0  0  0  0  0
  -23.0887   -9.8683   19.9415 C   0  0  0  0  0  0  0  0  0  0  0  0
  -23.7053   -9.9581   22.2757 C   0  0  0  0  0  0  0  0  0  0  0  0
  -43.2657  -24.2482   22.3343 C   0  0  0  0  0  0  0  0  0  0  0  0
  -41.5587  -22.2992   21.3174 C   0  0  0  0  0  0  0  0  0  0  0  0
  -38.5245  -21.5389   17.3349 C   0  0  0  0  0  0  0  0  0  0  0  0
  -38.6832  -15.3899   19.1676 C   0  0  0  0  0  0  0  0  0  0  0  0
  -22.3324   -8.7220   20.1853 C   0  0  0  0  0  0  0  0  0  0  0  0
  -22.9489   -8.8117   22.5196 C   0  0  0  0  0  0  0  0  0  0  0  0
  -38.3919  -20.2290   16.8763 C   0  0  0  0  0  0  0  0  0  0  0  0
  -38.3036  -15.0959   20.4772 C   0  0  0  0  0  0  0  0  0  0  0  0
  -23.2782   -5.4734   22.0981 C   0  0  0  0  0  0  0  0  0  0  0  0
  -23.8495   -4.4759   22.8883 C   0  0  0  0  0  0  0  0  0  0  0  0
  -36.2903  -20.0390   18.0452 C   0  0  0  0  0  0  0  0  0  0  0  0
  -36.3593  -15.6008   18.5413 C   0  0  0  0  0  0  0  0  0  0  0  0
  -22.0456   -4.7030   24.4793 C   0  0  0  0  0  0  0  0  0  0  0  0
  -23.7753  -10.4864   20.9867 C   0  0  0  0  0  0  0  0  0  0  0  0
  -24.1204  -13.0070   20.7995 C   0  0  0  0  0  0  0  0  0  0  0  0
  -41.9065  -24.2735   22.6845 C   0  0  0  0  0  0  0  0  0  0  0  0
  -37.5447  -22.1060   18.1623 C   0  0  0  0  0  0  0  0  0  0  0  0
  -41.0435  -23.2823   22.1793 C   0  0  0  0  0  0  0  0  0  0  0  0
  -36.4116  -21.3572   18.5108 C   0  0  0  0  0  0  0  0  0  0  0  0
  -37.7111  -15.6424   18.1996 C   0  0  0  0  0  0  0  0  0  0  0  0
  -35.9797  -15.3068   19.8509 C   0  0  0  0  0  0  0  0  0  0  0  0
  -22.2625   -8.1937   21.4743 C   0  0  0  0  0  0  0  0  0  0  0  0
  -37.2761  -19.4778   17.2339 C   0  0  0  0  0  0  0  0  0  0  0  0
  -36.9519  -15.0543   20.8188 C   0  0  0  0  0  0  0  0  0  0  0  0
  -22.0907   -6.0857   22.4986 C   0  0  0  0  0  0  0  0  0  0  0  0
  -23.2332   -4.0907   24.0788 C   0  0  0  0  0  0  0  0  0  0  0  0
  -21.4743   -5.7005   23.6892 C   0  0  0  0  0  0  0  0  0  0  0  0
  -24.5572  -11.6702   20.7353 C   0  0  0  0  0  0  0  0  0  0  0  0
  -25.2320  -13.7471   20.4783 C   0  0  0  0  0  0  0  0  0  0  0  0
  -22.8258  -13.5326   21.1208 C   0  0  0  0  0  0  0  0  0  0  0  0
  -37.5020  -23.2548   21.1258 C   0  0  0  0  0  0  0  0  0  0  0  0
  -34.4710  -24.1001   20.3380 C   0  0  0  0  0  0  0  0  0  0  0  0
  -31.7295  -23.5614   18.3781 C   0  0  0  0  0  0  0  0  0  0  0  0
  -30.4570  -14.9325   20.8494 C   0  0  0  0  0  0  0  0  0  0  0  0
  -41.4251  -25.3274   23.6499 C   0  0  0  0  0  0  0  0  0  0  0  0
  -37.6895  -23.5293   18.6267 C   0  0  0  0  0  0  0  0  0  0  0  0
  -35.3214  -21.9264   19.3803 C   0  0  0  0  0  0  0  0  0  0  0  0
  -39.9070  -25.4865   23.6709 C   0  0  0  0  0  0  0  0  0  0  0  0
  -29.7048  -12.3436   18.5975 C   0  0  0  0  0  0  0  0  0  0  0  0
  -39.2283  -24.1223   23.7430 C   0  0  0  0  0  0  0  0  0  0  0  0
  -37.5691  -14.6869   14.5711 C   0  0  0  0  0  0  0  0  0  0  0  0
  -36.8957  -13.9254   15.6785 C   0  0  0  0  0  0  0  0  0  0  0  0
  -28.2514  -12.0391   18.9592 C   0  0  0  0  0  0  0  0  0  0  0  0
  -30.5597  -12.6119   19.8371 C   0  0  0  0  0  0  0  0  0  0  0  0
  -33.6775  -16.1225   19.4479 C   0  0  0  0  0  0  0  0  0  0  0  0
  -34.0837  -14.0137   20.7262 C   0  0  0  0  0  0  0  0  0  0  0  0
  -32.3928  -16.3360   20.2439 C   0  0  0  0  0  0  0  0  0  0  0  0
  -32.7999  -14.2710   21.5075 C   0  0  0  0  0  0  0  0  0  0  0  0
  -28.5606  -13.3566   21.0889 C   0  0  0  0  0  0  0  0  0  0  0  0
  -39.5675  -23.2717   22.5130 C   0  0  1  0  0  0  0  0  0  0  0  0
  -36.8819  -23.8324   19.8850 C   0  0  1  0  0  0  0  0  0  0  0  0
  -37.1048  -15.4089   15.8057 C   0  0  0  0  0  0  0  0  0  0  0  0
  -27.6640  -13.1401   19.8599 C   0  0  2  0  0  0  0  0  0  0  0  0
  -29.3907  -24.3854   17.9929 C   0  0  0  0  0  0  0  0  0  0  0  0
  -33.5428  -22.6308   22.8460 C   0  0  0  0  0  0  0  0  0  0  0  0
  -31.2169  -22.6636   21.9200 C   0  0  0  0  0  0  0  0  0  0  0  0
  -32.3869  -24.8081   22.4246 C   0  0  0  0  0  0  0  0  0  0  0  0
  -32.3434  -24.3541   15.5935 C   0  0  0  0  0  0  0  0  0  0  0  0
  -36.4701  -15.8656   23.0018 C   0  0  0  0  0  0  0  0  0  0  0  0
  -38.3478  -17.4660   16.5556 C   0  0  0  0  0  0  0  0  0  1  0  0
  -38.1175  -15.9569   16.7996 C   0  0  1  0  0  0  0  0  0  0  0  0
  -33.1179  -23.4369   20.4302 C   0  0  1  0  0  0  0  0  0  0  0  0
  -30.8513  -24.5165   17.5900 C   0  0  2  0  0  0  0  0  0  0  0  0
  -32.5875  -23.3732   21.8904 C   0  0  0  0  0  0  0  0  0  0  0  0
  -25.8456  -11.5643   20.3996 N   0  0  0  0  0  0  0  0  0  0  0  0
  -26.2280  -12.8439   20.2498 N   0  0  0  0  0  0  0  0  0  0  0  0
  -34.6188  -15.2687   20.1804 N   0  0  0  0  0  0  0  0  0  0  0  0
  -35.5118  -23.3203   19.8143 N   0  0  0  0  0  0  0  0  0  0  0  0
  -29.9396  -13.6389   20.6849 N   0  0  0  0  0  0  0  0  0  0  0  0
  -31.8489  -15.0775   20.7398 N   0  0  0  0  0  0  0  0  0  0  0  0
  -25.4447  -15.0760   20.3718 N   0  0  0  0  0  0  0  0  0  0  0  0
  -21.7962  -12.6322   21.4266 N   0  0  0  0  0  0  0  0  0  0  0  0
  -38.7870  -23.6994   21.3718 N   0  0  0  0  0  0  0  0  0  0  0  0
  -32.2463  -24.1578   19.5088 N   0  0  0  0  0  0  0  0  0  0  0  0
  -30.9630  -24.2380   16.1303 N   0  3  0  0  0  0  0  0  0  0  0  0
  -22.5848  -14.7636   21.1203 O   0  0  0  0  0  0  0  0  0  0  0  0
  -36.8615  -22.4655   21.8102 O   0  0  0  0  0  0  0  0  0  0  0  0
  -34.5980  -25.2693   20.7101 O   0  0  0  0  0  0  0  0  0  0  0  0
  -31.9335  -22.4011   18.0278 O   0  0  0  0  0  0  0  0  0  0  0  0
  -29.7217  -15.9011   21.0773 O   0  0  0  0  0  0  0  0  0  0  0  0
  -21.5243   -7.0753   21.7127 O   0  0  0  0  0  0  0  0  0  0  0  0
  -36.6015  -14.7657   22.1039 O   0  0  0  0  0  0  0  0  0  0  0  0
  -37.1437  -18.1907   16.7854 O   0  0  0  0  0  0  0  0  0  1  0  0
  -23.7811   -3.1318   24.8367 F   0  0  0  0  0  0  0  0  0  0  0  0
  -20.3327   -6.2844   24.0785 F   0  0  0  0  0  0  0  0  0  0  0  0
  1  2  1  0  0  0  0
  1  5  2  0  0  0  0
  2  6  2  0  0  0  0
  3  9  2  0  0  0  0
  3 18  1  0  0  0  0
  4 10  1  0  0  0  0
  4 18  2  0  0  0  0
  5 20  1  0  0  0  0
  6 22  1  0  0  0  0
  7 11  2  0  0  0  0
  7 21  1  0  0  0  0
  8 12  2  0  0  0  0
  8 24  1  0  0  0  0
  9 26  1  0  0  0  0
 10 26  2  0  0  0  0
 11 27  1  0  0  0  0
 12 28  1  0  0  0  0
 13 14  2  0  0  0  0
 13 29  1  0  0  0  0
 14 30  1  0  0  0  0
 15 23  1  0  0  0  0
 15 27  2  0  0  0  0
 16 24  2  0  0  0  0
 16 25  1  0  0  0  0
 17 30  2  0  0  0  0
 17 31  1  0  0  0  0
 18 32  1  0  0  0  0
 19 32  1  0  0  0  0
 19 33  2  0  0  0  0
 19 34  1  0  0  0  0
 20 22  2  0  0  0  0
 20 39  1  0  0  0  0
 21 23  2  0  0  0  0
 21 40  1  0  0  0  0
 22 54  1  0  0  0  0
 23 41  1  0  0  0  0
 24 65  1  0  0  0  0
 25 28  2  0  0  0  0
 25 71  1  0  0  0  0
 26 85  1  0  0  0  0
 27 87  1  0  0  0  0
 28 86  1  0  0  0  0
 29 31  2  0  0  0  0
 29 85  1  0  0  0  0
 30 88  1  0  0  0  0
 31 89  1  0  0  0  0
 32 69  2  0  0  0  0
 33 70  1  0  0  0  0
 33 75  1  0  0  0  0
 34 76  1  0  0  0  0
 34 80  2  0  0  0  0
 35 55  1  0  0  0  0
 35 77  1  0  0  0  0
 35 81  2  0  0  0  0
 36 66  1  0  0  0  0
 36 72  1  0  0  0  0
 36 82  2  0  0  0  0
 37 67  1  0  0  0  0
 37 78  1  0  0  0  0
 37 83  2  0  0  0  0
 38 73  1  0  0  0  0
 38 74  1  0  0  0  0
 38 84  2  0  0  0  0
 39 42  1  0  0  0  0
 40 55  1  0  0  0  0
 41 72  1  0  0  0  0
 42 44  1  0  0  0  0
 43 47  1  0  0  0  0
 43 48  1  0  0  0  0
 44 54  1  0  0  0  0
 45 46  1  0  0  0  0
 45 56  1  0  0  0  0
 46 56  1  0  0  0  0
 47 57  1  0  0  0  0
 48 73  1  0  0  0  0
 49 51  1  0  0  0  0
 49 71  1  0  0  0  0
 50 52  1  0  0  0  0
 50 71  1  0  0  0  0
 51 74  1  0  0  0  0
 52 74  1  0  0  0  0
 53 57  1  0  0  0  0
 53 73  1  0  0  0  0
 54 77  1  0  0  0  0
 55 72  1  0  0  0  0
 56 65  1  0  0  0  0
 57 70  1  0  0  0  0
 58 67  1  0  0  0  0
 59 68  1  0  0  0  0
 60 68  1  0  0  0  0
 61 68  1  0  0  0  0
 62 79  1  0  0  0  0
 63 86  1  0  0  0  0
 64 65  1  0  0  0  0
 64 87  1  0  0  0  0
 66 68  1  0  0  0  0
 66 78  1  0  0  0  0
 67 79  1  0  0  0  0
 69 70  1  0  0  0  0
M  CHG  1  79   1
M  ISO  4  38 100  64 101  74 100  87 101
M  END
> <Batch ID>
0162

> <Smiles>
CNC(C)C(=O)NC(C(=O)N1Cc2cc([101O:1][101CH2:1]C(c3ccc(OC)c(N4CC[100N:0]([100C:0](=O)N5CCCC(n6nc(-c7ccc(Oc8ccc(F)cc8F)cc7)c(C(N)=O)c6N)C5)CC4)c3)C3CC3)ccc2CC1C(=O)NC1CCCc2ccccc21)C(C)(C)C

> <Shape>
0.176

> <Color>
0.180

> <Negative vol penalty>
0.000

$$$$

  -OEChem-04052322143D

 86 95  0     1  0  0  0  0  0999 V2000
  -29.3328  -32.1647   24.3171 C   0  0  0  0  0  0  0  0  0  0  0  0
  -28.9562  -30.8347   24.1599 C   0  0  0  0  0  0  0  0  0  0  0  0
  -24.7446  -15.3950   22.2995 C   0  0  0  0  0  0  0  0  0  0  0  0
  -23.7687  -15.5048   20.0921 C   0  0  0  0  0  0  0  0  0  0  0  0
  -28.3590  -33.1494   24.4779 C   0  0  0  0  0  0  0  0  0  0  0  0
  -27.6054  -30.4886   24.1646 C   0  0  0  0  0  0  0  0  0  0  0  0
  -26.4211  -27.2337   20.4703 C   0  0  0  0  0  0  0  0  0  0  0  0
  -24.2817  -16.6830   22.5682 C   0  0  0  0  0  0  0  0  0  0  0  0
  -23.3058  -16.7928   20.3608 C   0  0  0  0  0  0  0  0  0  0  0  0
  -26.7573  -25.8953   20.6689 C   0  0  0  0  0  0  0  0  0  0  0  0
  -23.0462  -19.8032   23.9659 C   0  0  0  0  0  0  0  0  0  0  0  0
  -22.4407  -20.0299   25.2018 C   0  0  0  0  0  0  0  0  0  0  0  0
  -24.4797  -25.4243   21.3090 C   0  0  0  0  0  0  0  0  0  0  0  0
  -20.7575  -18.3770   24.6805 C   0  0  0  0  0  0  0  0  0  0  0  0
  -24.4882  -14.8059   21.0614 C   0  0  0  0  0  0  0  0  0  0  0  0
  -24.2925  -12.2627   21.0204 C   0  0  0  0  0  0  0  0  0  0  0  0
  -26.9953  -32.8164   24.4750 C   0  0  0  0  0  0  0  0  0  0  0  0
  -25.1119  -27.6804   20.7004 C   0  0  0  0  0  0  0  0  0  0  0  0
  -26.6125  -31.4696   24.3270 C   0  0  0  0  0  0  0  0  0  0  0  0
  -24.1288  -26.7684   21.1101 C   0  0  0  0  0  0  0  0  0  0  0  0
  -23.5622  -17.3819   21.5989 C   0  0  0  0  0  0  0  0  0  0  0  0
  -25.7873  -24.9910   21.0911 C   0  0  0  0  0  0  0  0  0  0  0  0
  -22.5074  -18.8633   23.0872 C   0  0  0  0  0  0  0  0  0  0  0  0
  -21.2964  -19.3169   25.5591 C   0  0  0  0  0  0  0  0  0  0  0  0
  -21.3631  -18.1502   23.4445 C   0  0  0  0  0  0  0  0  0  0  0  0
  -24.9666  -13.4756   20.7830 C   0  0  0  0  0  0  0  0  0  0  0  0
  -25.1644  -11.2945   20.5859 C   0  0  0  0  0  0  0  0  0  0  0  0
  -22.9942  -12.0319   21.5834 C   0  0  0  0  0  0  0  0  0  0  0  0
  -23.7717  -29.7732   22.6823 C   0  0  0  0  0  0  0  0  0  0  0  0
  -29.7835  -19.6412   19.7645 C   0  0  0  0  0  0  0  0  0  0  0  0
  -21.1044  -29.1048   20.9615 C   0  0  0  0  0  0  0  0  0  0  0  0
  -27.6473  -21.8130   21.2743 C   0  0  0  0  0  0  0  0  0  0  0  0
  -19.4246  -26.9147   18.9544 C   0  0  0  0  0  0  0  0  0  0  0  0
  -29.2243  -14.4524   18.2767 C   0  0  0  0  0  0  0  0  0  0  0  0
  -25.9806  -33.9095   24.6996 C   0  0  0  0  0  0  0  0  0  0  0  0
  -24.7591  -29.1220   20.4559 C   0  0  0  0  0  0  0  0  0  0  0  0
  -22.7042  -27.1933   21.3515 C   0  0  0  0  0  0  0  0  0  0  0  0
  -24.5582  -33.5079   24.3178 C   0  0  0  0  0  0  0  0  0  0  0  0
  -29.3193  -12.1113   21.1944 C   0  0  0  0  0  0  0  0  0  0  0  0
  -24.2239  -32.1295   24.8790 C   0  0  0  0  0  0  0  0  0  0  0  0
  -30.4136  -20.1837   23.5709 C   0  0  0  0  0  0  0  0  0  0  0  0
  -30.6535  -18.7849   23.0752 C   0  0  0  0  0  0  0  0  0  0  0  0
  -28.5235  -10.9296   20.6439 C   0  0  0  0  0  0  0  0  0  0  0  0
  -30.0130  -12.8704   20.0718 C   0  0  0  0  0  0  0  0  0  0  0  0
  -29.9042  -17.8403   18.0778 C   0  0  0  0  0  0  0  0  0  0  0  0
  -28.8398  -17.3367   20.2612 C   0  0  0  0  0  0  0  0  0  0  0  0
  -30.6164  -16.4949   18.1293 C   0  0  0  0  0  0  0  0  0  0  0  0
  -29.5367  -15.9749   20.2804 C   0  0  0  0  0  0  0  0  0  0  0  0
  -28.2509  -12.1914   18.4652 C   0  0  0  0  0  0  0  0  0  0  0  0
  -25.1565  -31.0578   24.3018 C   0  0  1  0  0  0  0  0  0  0  0  0
  -23.5145  -29.5697   21.2160 C   0  0  1  0  0  0  0  0  0  0  0  0
  -30.5820  -19.9263   22.0990 C   0  0  0  0  0  0  0  0  0  0  0  0
  -27.5325  -11.3525   19.5412 C   0  0  2  0  0  0  0  0  0  0  0  0
  -17.2494  -26.6302   17.7358 C   0  0  0  0  0  0  0  0  0  0  0  0
  -19.7104  -28.4756   23.6018 C   0  0  0  0  0  0  0  0  0  0  0  0
  -17.9156  -27.3155   22.2974 C   0  0  0  0  0  0  0  0  0  0  0  0
  -18.3174  -29.7550   21.9656 C   0  0  0  0  0  0  0  0  0  0  0  0
  -20.7830  -26.7493   16.3302 C   0  0  0  0  0  0  0  0  0  0  0  0
  -27.4558  -23.2970   21.0448 C   0  0  0  0  0  0  0  0  0  1  0  0
  -29.4024  -20.0543   21.1639 C   0  0  1  0  0  0  0  0  0  0  0  0
  -19.9922  -28.0892   21.0646 C   0  0  1  0  0  0  0  0  0  0  0  0
  -18.6885  -27.1127   17.6416 C   0  0  2  0  0  0  0  0  0  0  0  0
  -19.0111  -28.4009   22.2298 C   0  0  0  0  0  0  0  0  0  0  0  0
  -26.1737  -13.2968   20.2399 N   0  0  0  0  0  0  0  0  0  0  0  0
  -26.2651  -11.9603   20.1326 N   0  0  0  0  0  0  0  0  0  0  0  0
  -22.4101  -28.6146   21.1047 N   0  0  0  0  0  0  0  0  0  0  0  0
  -29.5522  -18.3081   19.4211 N   0  0  0  0  0  0  0  0  0  0  0  0
  -29.0670  -13.2728   19.0246 N   0  0  0  0  0  0  0  0  0  0  0  0
  -29.8523  -15.5309   18.9177 N   0  0  0  0  0  0  0  0  0  0  0  0
  -25.0894   -9.9471   20.5512 N   0  0  0  0  0  0  0  0  0  0  0  0
  -22.2302  -13.1390   21.9770 N   0  0  0  0  0  0  0  0  0  0  0  0
  -24.7524  -30.7071   22.9572 N   0  0  0  0  0  0  0  0  0  0  0  0
  -28.9563  -21.4078   21.0239 N   0  0  0  0  0  0  0  0  0  0  0  0
  -19.3619  -28.0393   19.7498 N   0  0  0  0  0  0  0  0  0  0  0  0
  -19.3663  -26.3593   16.5490 N   0  3  0  0  0  0  0  0  0  0  0  0
  -22.5323  -10.8773   21.7480 O   0  0  0  0  0  0  0  0  0  0  0  0
  -23.1271  -29.1315   23.5035 O   0  0  0  0  0  0  0  0  0  0  0  0
  -30.2749  -20.4773   19.0020 O   0  0  0  0  0  0  0  0  0  0  0  0
  -20.8252  -30.2884   20.7543 O   0  0  0  0  0  0  0  0  0  0  0  0
  -26.7364  -21.0740   21.6378 O   0  0  0  0  0  0  0  0  0  0  0  0
  -19.9948  -25.8659   19.2467 O   0  0  0  0  0  0  0  0  0  0  0  0
  -28.8160  -14.5377   17.1118 O   0  0  0  0  0  0  0  0  0  0  0  0
  -23.1102  -18.6387   21.8609 O   0  0  0  0  0  0  0  0  0  0  0  0
  -26.1163  -23.6706   21.2883 O   0  0  0  0  0  0  0  0  0  1  0  0
  -20.7159  -19.5336   26.7467 F   0  0  0  0  0  0  0  0  0  0  0  0
  -20.8415  -17.2452   22.6051 F   0  0  0  0  0  0  0  0  0  0  0  0
  1  2  1  0  0  0  0
  1  5  2  0  0  0  0
  2  6  2  0  0  0  0
  3  8  2  0  0  0  0
  3 15  1  0  0  0  0
  4  9  1  0  0  0  0
  4 15  2  0  0  0  0
  5 17  1  0  0  0  0
  6 19  1  0  0  0  0
  7 10  2  0  0  0  0
  7 18  1  0  0  0  0
  8 21  1  0  0  0  0
  9 21  2  0  0  0  0
 10 22  1  0  0  0  0
 11 12  2  0  0  0  0
 11 23  1  0  0  0  0
 12 24  1  0  0  0  0
 13 20  1  0  0  0  0
 13 22  2  0  0  0  0
 14 24  2  0  0  0  0
 14 25  1  0  0  0  0
 15 26  1  0  0  0  0
 16 26  1  0  0  0  0
 16 27  2  0  0  0  0
 16 28  1  0  0  0  0
 17 19  2  0  0  0  0
 17 35  1  0  0  0  0
 18 20  2  0  0  0  0
 18 36  1  0  0  0  0
 19 50  1  0  0  0  0
 20 37  1  0  0  0  0
 21 83  1  0  0  0  0
 22 84  1  0  0  0  0
 23 25  2  0  0  0  0
 23 83  1  0  0  0  0
 24 85  1  0  0  0  0
 25 86  1  0  0  0  0
 26 64  2  0  0  0  0
 27 65  1  0  0  0  0
 27 70  1  0  0  0  0
 28 71  1  0  0  0  0
 28 76  2  0  0  0  0
 29 51  1  0  0  0  0
 29 72  1  0  0  0  0
 29 77  2  0  0  0  0
 30 60  1  0  0  0  0
 30 67  1  0  0  0  0
 30 78  2  0  0  0  0
 31 61  1  0  0  0  0
 31 66  1  0  0  0  0
 31 79  2  0  0  0  0
 32 59  1  0  0  0  0
 32 73  1  0  0  0  0
 32 80  2  0  0  0  0
 33 62  1  0  0  0  0
 33 74  1  0  0  0  0
 33 81  2  0  0  0  0
 34 68  1  0  0  0  0
 34 69  1  0  0  0  0
 34 82  2  0  0  0  0
 35 38  1  0  0  0  0
 36 51  1  0  0  0  0
 37 66  1  0  0  0  0
 38 40  1  0  0  0  0
 39 43  1  0  0  0  0
 39 44  1  0  0  0  0
 40 50  1  0  0  0  0
 41 42  1  0  0  0  0
 41 52  1  0  0  0  0
 42 52  1  0  0  0  0
 43 53  1  0  0  0  0
 44 68  1  0  0  0  0
 45 47  1  0  0  0  0
 45 67  1  0  0  0  0
 46 48  1  0  0  0  0
 46 67  1  0  0  0  0
 47 69  1  0  0  0  0
 48 69  1  0  0  0  0
 49 53  1  0  0  0  0
 49 68  1  0  0  0  0
 50 72  1  0  0  0  0
 51 66  1  0  0  0  0
 52 60  1  0  0  0  0
 53 65  1  0  0  0  0
 54 62  1  0  0  0  0
 55 63  1  0  0  0  0
 56 63  1  0  0  0  0
 57 63  1  0  0  0  0
 58 75  1  0  0  0  0
 59 84  1  0  0  0  0
 60 73  1  0  0  0  0
 61 63  1  0  0  0  0
 61 74  1  0  0  0  0
 62 75  1  0  0  0  0
 64 65  1  0  0  0  0
M  CHG  1  75   1
M  ISO  4  34 100  59 101  69 100  84 101
M  END
> <Batch ID>
0162

> <Smiles>
CNC(C)C(=O)NC(C(=O)N1Cc2cc([101O:1][101CH2:1]C(=O)NC(C(=O)N3CC[100N:0]([100C:0](=O)N4CCCC(n5nc(-c6ccc(Oc7ccc(F)cc7F)cc6)c(C(N)=O)c5N)C4)CC3)C3CC3)ccc2CC1C(=O)NC1CCCc2ccccc21)C(C)(C)C

> <Shape>
0.280

> <Color>
0.066

> <Negative vol penalty>
0.000

$$$$

  -OEChem-04052322143D

 87 97  0     1  0  0  0  0  0999 V2000
  -29.2312  -31.1552   26.6183 C   0  0  0  0  0  0  0  0  0  0  0  0
  -28.9865  -30.1353   25.7043 C   0  0  0  0  0  0  0  0  0  0  0  0
  -23.1962  -10.5063   21.5375 C   0  0  0  0  0  0  0  0  0  0  0  0
  -24.8181   -8.7430   21.8491 C   0  0  0  0  0  0  0  0  0  0  0  0
  -28.1666  -31.8733   27.1612 C   0  0  0  0  0  0  0  0  0  0  0  0
  -27.6769  -29.8323   25.3335 C   0  0  0  0  0  0  0  0  0  0  0  0
  -27.1739  -29.1797   20.3369 C   0  0  0  0  0  0  0  0  0  0  0  0
  -22.1826   -9.5546   21.4271 C   0  0  0  0  0  0  0  0  0  0  0  0
  -23.8044   -7.7911   21.7388 C   0  0  0  0  0  0  0  0  0  0  0  0
  -27.5978  -27.9613   19.8080 C   0  0  0  0  0  0  0  0  0  0  0  0
  -21.5908   -4.9115   21.8993 C   0  0  0  0  0  0  0  0  0  0  0  0
  -21.5785   -3.8661   22.8227 C   0  0  0  0  0  0  0  0  0  0  0  0
  -25.3121  -27.1914   19.7653 C   0  0  0  0  0  0  0  0  0  0  0  0
  -21.3564   -5.4604   24.6245 C   0  0  0  0  0  0  0  0  0  0  0  0
  -27.8767  -21.3104   17.2006 C   0  0  0  0  0  0  0  0  0  0  0  0
  -24.5140  -10.1005   21.7484 C   0  0  0  0  0  0  0  0  0  0  0  0
  -26.0164  -11.7090   23.0380 C   0  0  0  0  0  0  0  0  0  0  0  0
  -26.8439  -31.5854   26.7896 C   0  0  0  0  0  0  0  0  0  0  0  0
  -25.8147  -29.4094   20.5945 C   0  0  0  0  0  0  0  0  0  0  0  0
  -26.5935  -30.5464   25.8730 C   0  0  0  0  0  0  0  0  0  0  0  0
  -24.8732  -28.4144   20.2950 C   0  0  0  0  0  0  0  0  0  0  0  0
  -27.4314  -21.2786   18.5123 C   0  0  0  0  0  0  0  0  0  0  0  0
  -26.8361  -22.4255   19.0254 C   0  0  0  0  0  0  0  0  0  0  0  0
  -26.7062  -23.5533   18.2226 C   0  0  0  0  0  0  0  0  0  0  0  0
  -22.4866   -8.1970   21.5278 C   0  0  0  0  0  0  0  0  0  0  0  0
  -26.6672  -26.9659   19.5248 C   0  0  0  0  0  0  0  0  0  0  0  0
  -21.4861   -6.2313   22.3385 C   0  0  0  0  0  0  0  0  0  0  0  0
  -21.4612   -4.1406   24.1853 C   0  0  0  0  0  0  0  0  0  0  0  0
  -21.3688   -6.5057   23.7011 C   0  0  0  0  0  0  0  0  0  0  0  0
  -25.5617  -11.0832   21.8619 C   0  0  0  0  0  0  0  0  0  0  0  0
  -27.1841  -23.4833   16.9240 C   0  0  0  0  0  0  0  0  0  0  0  0
  -27.0151  -12.5516   22.6146 C   0  0  0  0  0  0  0  0  0  0  0  0
  -25.5756  -11.5435   24.3923 C   0  0  0  0  0  0  0  0  0  0  0  0
  -24.0984  -30.0281   23.1974 C   0  0  0  0  0  0  0  0  0  0  0  0
  -21.6971  -30.4072   21.0498 C   0  0  0  0  0  0  0  0  0  0  0  0
  -20.4326  -29.6925   17.9616 C   0  0  0  0  0  0  0  0  0  0  0  0
  -29.1337  -16.2187   19.1382 C   0  0  0  0  0  0  0  0  0  0  0  0
  -25.7229  -32.3575   27.4392 C   0  0  0  0  0  0  0  0  0  0  0  0
  -25.3707  -30.7388   21.1402 C   0  0  0  0  0  0  0  0  0  0  0  0
  -23.4003  -28.6187   20.5342 C   0  0  0  0  0  0  0  0  0  0  0  0
  -24.3885  -32.2233   26.7101 C   0  0  0  0  0  0  0  0  0  0  0  0
  -29.3621  -12.9122   18.1567 C   0  0  0  0  0  0  0  0  0  0  0  0
  -26.8379  -23.5121   21.3692 C   0  0  0  0  0  0  0  0  0  0  0  0
  -27.2892  -22.0963   21.5483 C   0  0  0  0  0  0  0  0  0  0  0  0
  -24.1125  -30.7630   26.3663 C   0  0  0  0  0  0  0  0  0  0  0  0
  -28.4339  -12.1805   19.1259 C   0  0  0  0  0  0  0  0  0  0  0  0
  -26.8218  -18.8302   18.7480 C   0  0  0  0  0  0  0  0  0  0  0  0
  -29.0837  -19.6514   19.5347 C   0  0  0  0  0  0  0  0  0  0  0  0
  -28.7500  -14.2342   17.7081 C   0  0  0  0  0  0  0  0  0  0  0  0
  -27.0238  -17.5539   19.5698 C   0  0  0  0  0  0  0  0  0  0  0  0
  -29.2205  -18.3725   20.3557 C   0  0  0  0  0  0  0  0  0  0  0  0
  -27.4672  -14.4306   19.8137 C   0  0  0  0  0  0  0  0  0  0  0  0
  -27.6014  -20.0184   19.3396 C   0  0  0  0  0  0  0  0  0  0  0  0
  -26.3386  -22.4437   20.4353 C   0  0  0  0  0  0  0  0  0  0  0  0
  -25.1883  -30.2045   25.4272 C   0  0  1  0  0  0  0  0  0  0  0  0
  -24.0183  -30.6745   21.8434 C   0  0  1  0  0  0  0  0  0  0  0  0
  -28.0414  -13.0867   20.3062 C   0  0  1  0  0  0  0  0  0  0  0  0
  -27.0724  -24.6631   16.0142 C   0  0  0  0  0  0  0  0  0  0  0  0
  -18.4326  -30.1149   16.5059 C   0  0  0  0  0  0  0  0  0  0  0  0
  -20.0849  -28.3989   22.6861 C   0  0  0  0  0  0  0  0  0  0  0  0
  -18.5445  -28.1461   20.7288 C   0  0  0  0  0  0  0  0  0  0  0  0
  -18.7736  -30.3598   21.8556 C   0  0  0  0  0  0  0  0  0  0  0  0
  -22.0744  -31.0319   15.8953 C   0  0  0  0  0  0  0  0  0  0  0  0
  -26.0724  -24.8002   18.7426 C   0  0  0  0  0  0  0  0  0  1  0  0
  -20.6694  -29.4960   20.4232 C   0  0  1  0  0  0  0  0  0  0  0  0
  -19.8279  -30.5819   16.8902 C   0  0  2  0  0  0  0  0  0  0  0  0
  -19.5460  -29.0953   21.4206 C   0  0  0  0  0  0  0  0  0  0  0  0
  -27.7680  -22.3870   16.3903 N   0  0  0  0  0  0  0  0  0  0  0  0
  -26.2175  -11.4933   20.7730 N   0  0  0  0  0  0  0  0  0  0  0  0
  -27.0945  -12.3859   21.2631 N   0  0  0  0  0  0  0  0  0  0  0  0
  -23.0164  -29.9331   21.0749 N   0  0  0  0  0  0  0  0  0  0  0  0
  -28.3878  -15.0641   18.8569 N   0  0  0  0  0  0  0  0  0  0  0  0
  -28.4550  -17.2788   19.7579 N   0  0  0  0  0  0  0  0  0  0  0  0
  -27.8242  -13.4106   23.2701 N   0  0  0  0  0  0  0  0  0  0  0  0
  -24.5388  -10.6367   24.6513 N   0  0  0  0  0  0  0  0  0  0  0  0
  -24.9620  -30.6594   24.0721 N   0  0  0  0  0  0  0  0  0  0  0  0
  -20.1906  -30.1817   19.2278 N   0  0  0  0  0  0  0  0  0  0  0  0
  -20.6800  -30.5725   15.6676 N   0  3  0  0  0  0  0  0  0  0  0  0
  -26.0749  -12.1929   25.3423 O   0  0  0  0  0  0  0  0  0  0  0  0
  -23.4253  -29.0313   23.4318 O   0  0  0  0  0  0  0  0  0  0  0  0
  -21.3436  -31.5023   21.4939 O   0  0  0  0  0  0  0  0  0  0  0  0
  -21.0539  -28.6645   17.7014 O   0  0  0  0  0  0  0  0  0  0  0  0
  -30.3353  -16.2981   18.8536 O   0  0  0  0  0  0  0  0  0  0  0  0
  -21.4977   -7.2680   21.4204 O   0  0  0  0  0  0  0  0  0  0  0  0
  -27.0813  -25.7673   19.0056 O   0  0  0  0  0  0  0  0  0  1  0  0
  -21.4478   -3.1365   25.0718 F   0  0  0  0  0  0  0  0  0  0  0  0
  -21.2666   -7.7716   24.1289 F   0  0  0  0  0  0  0  0  0  0  0  0
  1  2  1  0  0  0  0
  1  5  2  0  0  0  0
  2  6  2  0  0  0  0
  3  8  2  0  0  0  0
  3 16  1  0  0  0  0
  4  9  1  0  0  0  0
  4 16  2  0  0  0  0
  5 18  1  0  0  0  0
  6 20  1  0  0  0  0
  7 10  2  0  0  0  0
  7 19  1  0  0  0  0
  8 25  1  0  0  0  0
  9 25  2  0  0  0  0
 10 26  1  0  0  0  0
 11 12  2  0  0  0  0
 11 27  1  0  0  0  0
 12 28  1  0  0  0  0
 13 21  1  0  0  0  0
 13 26  2  0  0  0  0
 14 28  2  0  0  0  0
 14 29  1  0  0  0  0
 15 22  2  0  0  0  0
 15 68  1  0  0  0  0
 16 30  1  0  0  0  0
 17 30  1  0  0  0  0
 17 32  2  0  0  0  0
 17 33  1  0  0  0  0
 18 20  2  0  0  0  0
 18 38  1  0  0  0  0
 19 21  2  0  0  0  0
 19 39  1  0  0  0  0
 20 55  1  0  0  0  0
 21 40  1  0  0  0  0
 22 23  1  0  0  0  0
 22 53  1  0  0  0  0
 23 24  2  0  0  0  0
 23 54  1  0  0  0  0
 24 31  1  0  0  0  0
 24 64  1  0  0  0  0
 25 84  1  0  0  0  0
 26 85  1  0  0  0  0
 27 29  2  0  0  0  0
 27 84  1  0  0  0  0
 28 86  1  0  0  0  0
 29 87  1  0  0  0  0
 30 69  2  0  0  0  0
 31 58  1  0  0  0  0
 31 68  2  0  0  0  0
 32 70  1  0  0  0  0
 32 74  1  0  0  0  0
 33 75  1  0  0  0  0
 33 79  2  0  0  0  0
 34 56  1  0  0  0  0
 34 76  1  0  0  0  0
 34 80  2  0  0  0  0
 35 65  1  0  0  0  0
 35 71  1  0  0  0  0
 35 81  2  0  0  0  0
 36 66  1  0  0  0  0
 36 77  1  0  0  0  0
 36 82  2  0  0  0  0
 37 72  1  0  0  0  0
 37 73  1  0  0  0  0
 37 83  2  0  0  0  0
 38 41  1  0  0  0  0
 39 56  1  0  0  0  0
 40 71  1  0  0  0  0
 41 45  1  0  0  0  0
 42 46  1  0  0  0  0
 42 49  1  0  0  0  0
 43 44  1  0  0  0  0
 43 54  1  0  0  0  0
 44 54  1  0  0  0  0
 45 55  1  0  0  0  0
 46 57  1  0  0  0  0
 47 50  1  0  0  0  0
 47 53  1  0  0  0  0
 48 51  1  0  0  0  0
 48 53  1  0  0  0  0
 49 72  1  0  0  0  0
 50 73  1  0  0  0  0
 51 73  1  0  0  0  0
 52 57  1  0  0  0  0
 52 72  1  0  0  0  0
 55 76  1  0  0  0  0
 56 71  1  0  0  0  0
 57 70  1  0  0  0  0
 59 66  1  0  0  0  0
 60 67  1  0  0  0  0
 61 67  1  0  0  0  0
 62 67  1  0  0  0  0
 63 78  1  0  0  0  0
 64 85  1  0  0  0  0
 65 67  1  0  0  0  0
 65 77  1  0  0  0  0
 66 78  1  0  0  0  0
 69 70  1  0  0  0  0
M  CHG  1  78   1
M  ISO  4  37 100  64 101  73 100  85 101
M  END
> <Batch ID>
0162

> <Smiles>
CNC(C)C(=O)NC(C(=O)N1Cc2cc([101O:1][101CH2:1]c3c(C)ncc(C4CC[100N:0]([100C:0](=O)N5CCCC(n6nc(-c7ccc(Oc8ccc(F)cc8F)cc7)c(C(N)=O)c6N)C5)CC4)c3C3CC3)ccc2CC1C(=O)NC1CCCc2ccccc21)C(C)(C)C

> <Shape>
0.308

> <Color>
0.128

> <Negative vol penalty>
0.000

$$$$

  -OEChem-04052322143D

 88 97  0     1  0  0  0  0  0999 V2000
  -18.4036  -30.6567   26.5354 C   0  0  0  0  0  0  0  0  0  0  0  0
  -19.7505  -30.3148   26.6025 C   0  0  0  0  0  0  0  0  0  0  0  0
  -26.5468  -10.2243   18.5302 C   0  0  0  0  0  0  0  0  0  0  0  0
  -26.7451  -12.1268   17.0543 C   0  0  0  0  0  0  0  0  0  0  0  0
  -17.6742  -30.3877   25.3780 C   0  0  0  0  0  0  0  0  0  0  0  0
  -20.3684  -29.7025   25.5127 C   0  0  0  0  0  0  0  0  0  0  0  0
  -26.6897  -29.3291   22.1634 C   0  0  0  0  0  0  0  0  0  0  0  0
  -25.4288   -9.7889   17.8189 C   0  0  0  0  0  0  0  0  0  0  0  0
  -25.6270  -11.6914   16.3429 C   0  0  0  0  0  0  0  0  0  0  0  0
  -27.6124  -28.3893   21.7060 C   0  0  0  0  0  0  0  0  0  0  0  0
  -24.7969   -8.1725   14.9171 C   0  0  0  0  0  0  0  0  0  0  0  0
  -24.7240   -6.8186   14.5893 C   0  0  0  0  0  0  0  0  0  0  0  0
  -26.2727  -28.0448   19.7297 C   0  0  0  0  0  0  0  0  0  0  0  0
  -31.3674  -24.7358   17.7786 C   0  0  0  0  0  0  0  0  0  0  0  0
  -22.6663   -6.6266   15.8409 C   0  0  0  0  0  0  0  0  0  0  0  0
  -27.2050  -11.3933   18.1480 C   0  0  0  0  0  0  0  0  0  0  0  0
  -29.7058  -11.5133   18.6371 C   0  0  0  0  0  0  0  0  0  0  0  0
  -18.2858  -29.7805   24.2699 C   0  0  0  0  0  0  0  0  0  0  0  0
  -25.5441  -29.6263   21.4113 C   0  0  0  0  0  0  0  0  0  0  0  0
  -19.6461  -29.4238   24.3400 C   0  0  0  0  0  0  0  0  0  0  0  0
  -25.3383  -28.9906   20.1786 C   0  0  0  0  0  0  0  0  0  0  0  0
  -30.3587  -25.6568   18.0615 C   0  0  0  0  0  0  0  0  0  0  0  0
  -28.8621  -23.8452   18.6230 C   0  0  0  0  0  0  0  0  0  0  0  0
  -29.1061  -25.2115   18.4837 C   0  0  0  0  0  0  0  0  0  0  0  0
  -29.8708  -22.9242   18.3401 C   0  0  0  0  0  0  0  0  0  0  0  0
  -24.9689  -10.5224   16.7252 C   0  0  0  0  0  0  0  0  0  0  0  0
  -27.4025  -27.7449   20.4903 C   0  0  0  0  0  0  0  0  0  0  0  0
  -23.8047   -8.7533   15.7068 C   0  0  0  0  0  0  0  0  0  0  0  0
  -31.1234  -23.3695   17.9179 C   0  0  0  0  0  0  0  0  0  0  0  0
  -23.6587   -6.0457   15.0512 C   0  0  0  0  0  0  0  0  0  0  0  0
  -22.7394   -7.9804   16.1687 C   0  0  0  0  0  0  0  0  0  0  0  0
  -28.3596  -11.8439   18.8828 C   0  0  0  0  0  0  0  0  0  0  0  0
  -30.4077  -12.1911   19.6037 C   0  0  0  0  0  0  0  0  0  0  0  0
  -30.2712  -10.6690   17.6256 C   0  0  0  0  0  0  0  0  0  0  0  0
  -22.4134  -29.3596   21.8924 C   0  0  0  0  0  0  0  0  0  0  0  0
  -22.2385  -30.9323   19.0607 C   0  0  0  0  0  0  0  0  0  0  0  0
  -23.7301  -31.7438   16.1004 C   0  0  0  0  0  0  0  0  0  0  0  0
  -29.2400  -17.1288   22.7829 C   0  0  0  0  0  0  0  0  0  0  0  0
  -17.4448  -29.4665   23.0581 C   0  0  0  0  0  0  0  0  0  0  0  0
  -24.5720  -30.6621   21.9059 C   0  0  0  0  0  0  0  0  0  0  0  0
  -24.1347  -29.2890   19.3236 C   0  0  0  0  0  0  0  0  0  0  0  0
  -18.2669  -29.1556   21.8100 C   0  0  0  0  0  0  0  0  0  0  0  0
  -29.9671  -13.8846   24.0567 C   0  0  0  0  0  0  0  0  0  0  0  0
  -19.3920  -28.1802   22.1412 C   0  0  0  0  0  0  0  0  0  0  0  0
  -29.7591  -12.9639   22.8530 C   0  0  0  0  0  0  0  0  0  0  0  0
  -30.9715  -19.4346   21.1129 C   0  0  0  0  0  0  0  0  0  0  0  0
  -28.9590  -15.0315   24.0709 C   0  0  0  0  0  0  0  0  0  0  0  0
  -28.6959  -14.9023   21.6238 C   0  0  0  0  0  0  0  0  0  0  0  0
  -30.9593  -20.8453   20.5453 C   0  0  0  0  0  0  0  0  0  0  0  0
  -28.8355  -19.7067   20.1248 C   0  0  0  0  0  0  0  0  0  0  0  0
  -20.3580  -28.7808   23.1695 C   0  0  1  0  0  0  0  0  0  0  0  0
  -23.1789  -30.5103   21.3028 C   0  0  1  0  0  0  0  0  0  0  0  0
  -29.7247  -13.7621   21.5358 C   0  0  2  0  0  0  0  0  0  0  0  0
  -29.5036  -19.1298   21.3573 C   0  0  1  0  0  0  0  0  0  0  0  0
  -30.6461  -27.1140   17.9030 C   0  0  0  0  0  0  0  0  0  0  0  0
  -27.5188  -23.3669   19.0761 C   0  0  0  0  0  0  0  0  0  0  0  0
  -23.3255  -33.0125   13.9734 C   0  0  0  0  0  0  0  0  0  0  0  0
  -20.4298  -28.6849   18.0669 C   0  0  0  0  0  0  0  0  0  0  0  0
  -20.8353  -29.4862   15.7299 C   0  0  0  0  0  0  0  0  0  0  0  0
  -19.7131  -30.9809   17.3820 C   0  0  0  0  0  0  0  0  0  0  0  0
  -26.0076  -33.5621   16.6155 C   0  0  0  0  0  0  0  0  0  0  0  0
  -33.3687  -23.0291   17.2119 C   0  0  0  0  0  0  0  0  0  0  0  0
  -29.6166  -21.4575   18.4871 C   0  0  0  0  0  0  0  0  0  0  0  0
  -28.0234  -26.2047   18.7879 C   0  0  0  0  0  0  0  0  0  1  0  0
  -22.1884  -30.5191   17.6096 C   0  0  1  0  0  0  0  0  0  0  0  0
  -23.8903  -33.0726   15.3841 C   0  0  2  0  0  0  0  0  0  0  0  0
  -20.8134  -29.9105   17.2139 C   0  0  0  0  0  0  0  0  0  0  0  0
  -28.2126  -12.6676   19.9239 N   0  0  0  0  0  0  0  0  0  0  0  0
  -29.4755  -12.8602   20.3411 N   0  0  0  0  0  0  0  0  0  0  0  0
  -23.2099  -30.3046   19.8534 N   0  0  0  0  0  0  0  0  0  0  0  0
  -28.9775  -15.7489   22.7938 N   0  0  0  0  0  0  0  0  0  0  0  0
  -31.7251  -12.2741   19.8864 N   0  0  0  0  0  0  0  0  0  0  0  0
  -29.4070  -10.0497   16.7124 N   0  0  0  0  0  0  0  0  0  0  0  0
  -21.2468  -29.7297   22.5339 N   0  0  0  0  0  0  0  0  0  0  0  0
  -22.5650  -31.6975   16.8364 N   0  0  0  0  0  0  0  0  0  0  0  0
  -29.2452  -17.7302   21.5303 N   0  0  0  0  0  0  0  0  0  0  0  0
  -29.5885  -21.0038   19.9112 N   0  3  2  0  0  0  0  0  0  0  0  0
  -25.3310  -33.4443   15.2982 N   0  3  0  0  0  0  0  0  0  0  0  0
  -31.5048  -10.4567   17.5443 O   0  0  0  0  0  0  0  0  0  0  0  0
  -22.8481  -28.2201   21.7727 O   0  0  0  0  0  0  0  0  0  0  0  0
  -21.4498  -31.7860   19.4740 O   0  0  0  0  0  0  0  0  0  0  0  0
  -24.5540  -30.8361   16.0125 O   0  0  0  0  0  0  0  0  0  0  0  0
  -29.4590  -17.7758   23.8126 O   0  0  0  0  0  0  0  0  0  0  0  0
  -23.8781  -10.0977   16.0307 O   0  0  0  0  0  0  0  0  0  0  0  0
  -32.1209  -22.4849   17.6370 O   0  0  0  0  0  0  0  0  0  0  0  0
  -28.3012  -26.8267   20.0418 O   0  0  0  0  0  0  0  0  0  1  0  0
  -23.5879   -4.7460   14.7351 F   0  0  0  0  0  0  0  0  0  0  0  0
  -21.7825   -8.5331   16.9268 F   0  0  0  0  0  0  0  0  0  0  0  0
  1  2  1  0  0  0  0
  1  5  2  0  0  0  0
  2  6  2  0  0  0  0
  3  8  2  0  0  0  0
  3 16  1  0  0  0  0
  4  9  1  0  0  0  0
  4 16  2  0  0  0  0
  5 18  1  0  0  0  0
  6 20  1  0  0  0  0
  7 10  2  0  0  0  0
  7 19  1  0  0  0  0
  8 26  1  0  0  0  0
  9 26  2  0  0  0  0
 10 27  1  0  0  0  0
 11 12  2  0  0  0  0
 11 28  1  0  0  0  0
 12 30  1  0  0  0  0
 13 21  1  0  0  0  0
 13 27  2  0  0  0  0
 14 22  2  0  0  0  0
 14 29  1  0  0  0  0
 15 30  2  0  0  0  0
 15 31  1  0  0  0  0
 16 32  1  0  0  0  0
 17 32  1  0  0  0  0
 17 33  2  0  0  0  0
 17 34  1  0  0  0  0
 18 20  2  0  0  0  0
 18 39  1  0  0  0  0
 19 21  2  0  0  0  0
 19 40  1  0  0  0  0
 20 51  1  0  0  0  0
 21 41  1  0  0  0  0
 22 24  1  0  0  0  0
 22 55  1  0  0  0  0
 23 24  2  0  0  0  0
 23 25  1  0  0  0  0
 23 56  1  0  0  0  0
 24 64  1  0  0  0  0
 25 29  2  0  0  0  0
 25 63  1  0  0  0  0
 26 84  1  0  0  0  0
 27 86  1  0  0  0  0
 28 31  2  0  0  0  0
 28 84  1  0  0  0  0
 29 85  1  0  0  0  0
 30 87  1  0  0  0  0
 31 88  1  0  0  0  0
 32 68  2  0  0  0  0
 33 69  1  0  0  0  0
 33 72  1  0  0  0  0
 34 73  1  0  0  0  0
 34 79  2  0  0  0  0
 35 52  1  0  0  0  0
 35 74  1  0  0  0  0
 35 80  2  0  0  0  0
 36 65  1  0  0  0  0
 36 70  1  0  0  0  0
 36 81  2  0  0  0  0
 37 66  1  0  0  0  0
 37 75  1  0  0  0  0
 37 82  2  0  0  0  0
 38 71  1  0  0  0  0
 38 76  1  0  0  0  0
 38 83  2  0  0  0  0
 39 42  1  0  0  0  0
 40 52  1  0  0  0  0
 41 70  1  0  0  0  0
 42 44  1  0  0  0  0
 43 45  1  0  0  0  0
 43 47  1  0  0  0  0
 44 51  1  0  0  0  0
 45 53  1  0  0  0  0
 46 49  1  0  0  0  0
 46 54  1  0  0  0  0
 47 71  1  0  0  0  0
 48 53  1  0  0  0  0
 48 71  1  0  0  0  0
 49 77  1  0  0  0  0
 50 54  1  0  0  0  0
 50 77  1  0  0  0  0
 51 74  1  0  0  0  0
 52 70  1  0  0  0  0
 53 69  1  0  0  0  0
 54 76  1  0  0  0  0
 57 66  1  0  0  0  0
 58 67  1  0  0  0  0
 59 67  1  0  0  0  0
 60 67  1  0  0  0  0
 61 78  1  0  0  0  0
 62 85  1  0  0  0  0
 63 77  1  0  0  0  0
 64 86  1  0  0  0  0
 65 67  1  0  0  0  0
 65 75  1  0  0  0  0
 66 78  1  0  0  0  0
 68 69  1  0  0  0  0
M  CHG  2  77   1  78   1
M  ISO  4  38 100  64 101  76 100  86 101
M  END
> <Batch ID>
0162

> <Smiles>
CNC(C)C(=O)NC(C(=O)N1Cc2cc([101O:1][101CH2:1]c3c(C)cc(OC)c(CN4CCC([100NH:0][100C:0](=O)N5CCCC(n6nc(-c7ccc(Oc8ccc(F)cc8F)cc7)c(C(N)=O)c6N)C5)C4)c3C)ccc2CC1C(=O)NC1CCCc2ccccc21)C(C)(C)C

> <Shape>
0.245

> <Color>
0.073

> <Negative vol penalty>
0.000

$$$$

  -OEChem-04052322143D

 93102  0     1  0  0  0  0  0999 V2000
  -32.3341  -15.3704   20.6984 C   0  0  0  0  0  0  0  0  0  0  0  0
  -31.3802  -16.2713   21.1609 C   0  0  0  0  0  0  0  0  0  0  0  0
  -22.6262  -27.8224   22.1051 C   0  0  0  0  0  0  0  0  0  0  0  0
  -22.2597  -27.8102   19.7171 C   0  0  0  0  0  0  0  0  0  0  0  0
  -31.9451  -14.2890   19.9090 C   0  0  0  0  0  0  0  0  0  0  0  0
  -30.0367  -16.0918   20.8334 C   0  0  0  0  0  0  0  0  0  0  0  0
  -26.9647  -16.7441   24.8061 C   0  0  0  0  0  0  0  0  0  0  0  0
  -21.2493  -27.7533   22.3168 C   0  0  0  0  0  0  0  0  0  0  0  0
  -20.8827  -27.7410   19.9288 C   0  0  0  0  0  0  0  0  0  0  0  0
  -26.6886  -18.0560   25.1888 C   0  0  0  0  0  0  0  0  0  0  0  0
  -18.6116  -29.8660   22.2590 C   0  0  0  0  0  0  0  0  0  0  0  0
  -18.0615  -30.7116   23.2223 C   0  0  0  0  0  0  0  0  0  0  0  0
  -24.5707  -17.9391   24.0399 C   0  0  0  0  0  0  0  0  0  0  0  0
  -31.4549  -21.0997   20.4969 C   0  0  0  0  0  0  0  0  0  0  0  0
  -17.2613  -28.7915   24.4510 C   0  0  0  0  0  0  0  0  0  0  0  0
  -23.1315  -27.8509   20.8052 C   0  0  0  0  0  0  0  0  0  0  0  0
  -25.4294  -28.9389   21.0133 C   0  0  0  0  0  0  0  0  0  0  0  0
  -30.5949  -14.0907   19.5797 C   0  0  0  0  0  0  0  0  0  0  0  0
  -26.0491  -16.0224   24.0268 C   0  0  0  0  0  0  0  0  0  0  0  0
  -29.6294  -15.0074   20.0378 C   0  0  0  0  0  0  0  0  0  0  0  0
  -24.8364  -16.6174   23.6508 C   0  0  0  0  0  0  0  0  0  0  0  0
  -30.6338  -22.0534   21.0985 C   0  0  0  0  0  0  0  0  0  0  0  0
  -31.1915  -23.2098   21.6436 C   0  0  0  0  0  0  0  0  0  0  0  0
  -32.5705  -23.4126   21.5872 C   0  0  0  0  0  0  0  0  0  0  0  0
  -33.3916  -22.4588   20.9857 C   0  0  0  0  0  0  0  0  0  0  0  0
  -20.3775  -27.7126   21.2287 C   0  0  0  0  0  0  0  0  0  0  0  0
  -25.4928  -18.6547   24.8033 C   0  0  0  0  0  0  0  0  0  0  0  0
  -18.4865  -28.4831   22.3917 C   0  0  0  0  0  0  0  0  0  0  0  0
  -32.8338  -21.3024   20.4406 C   0  0  0  0  0  0  0  0  0  0  0  0
  -17.3864  -30.1744   24.3183 C   0  0  0  0  0  0  0  0  0  0  0  0
  -17.8114  -27.9458   23.4877 C   0  0  0  0  0  0  0  0  0  0  0  0
  -24.5537  -27.9229   20.5859 C   0  0  0  0  0  0  0  0  0  0  0  0
  -26.6632  -28.5429   20.5578 C   0  0  0  0  0  0  0  0  0  0  0  0
  -25.1524  -30.1338   21.7558 C   0  0  0  0  0  0  0  0  0  0  0  0
  -26.1150  -14.7009   21.1367 C   0  0  0  0  0  0  0  0  0  0  0  0
  -23.2041  -13.5700   22.0144 C   0  0  0  0  0  0  0  0  0  0  0  0
  -20.4335  -13.9144   23.9771 C   0  0  0  0  0  0  0  0  0  0  0  0
  -28.8294  -23.1041   19.1769 C   0  0  0  0  0  0  0  0  0  0  0  0
  -30.2284  -12.9337   18.6844 C   0  0  0  0  0  0  0  0  0  0  0  0
  -26.3500  -14.5990   23.6447 C   0  0  0  0  0  0  0  0  0  0  0  0
  -23.8111  -15.8786   22.8313 C   0  0  0  0  0  0  0  0  0  0  0  0
  -28.7378  -12.6046   18.6938 C   0  0  0  0  0  0  0  0  0  0  0  0
  -28.7517  -26.0314   17.0734 C   0  0  0  0  0  0  0  0  0  0  0  0
  -27.9092  -13.8774   18.5512 C   0  0  0  0  0  0  0  0  0  0  0  0
  -27.7146  -26.9223   17.7562 C   0  0  0  0  0  0  0  0  0  0  0  0
  -28.6431  -20.5008   20.5163 C   0  0  0  0  0  0  0  0  0  0  0  0
  -28.3967  -24.5543   17.2104 C   0  0  0  0  0  0  0  0  0  0  0  0
  -27.1617  -25.0020   19.3154 C   0  0  0  0  0  0  0  0  0  0  0  0
  -28.5757  -21.7121   22.5718 C   0  0  0  0  0  0  0  0  0  0  0  0
  -28.1592  -14.8327   19.7244 C   0  0  1  0  0  0  0  0  0  0  0  0
  -25.5727  -14.1327   22.4176 C   0  0  1  0  0  0  0  0  0  0  0  0
  -27.5018  -26.4993   19.2206 C   0  0  2  0  0  0  0  0  0  0  0  0
  -27.2130  -20.3723   21.0272 C   0  0  1  0  0  0  0  0  0  0  0  0
  -29.1372  -21.8073   21.1472 C   0  0  1  0  0  0  0  0  0  0  0  0
  -30.3081  -24.2312   22.2875 C   0  0  0  0  0  0  0  0  0  0  0  0
  -33.1694  -24.6529   22.1716 C   0  0  0  0  0  0  0  0  0  0  0  0
  -34.8711  -22.6691   20.9215 C   0  0  0  0  0  0  0  0  0  0  0  0
  -26.6884  -18.9477   21.0066 C   0  0  0  0  0  0  0  0  0  0  0  0
  -34.6594  -19.6605   17.8088 C   0  0  0  0  0  0  0  0  0  0  0  0
  -18.2052  -12.8581   24.4422 C   0  0  0  0  0  0  0  0  0  0  0  0
  -26.3675  -21.2843   26.7960 C   0  0  0  0  0  0  0  0  0  0  0  0
  -22.0985  -14.7735   19.4377 C   0  0  0  0  0  0  0  0  0  0  0  0
  -19.7978  -14.5358   20.3961 C   0  0  0  0  0  0  0  0  0  0  0  0
  -21.1983  -12.5095   20.0019 C   0  0  0  0  0  0  0  0  0  0  0  0
  -21.1526  -13.3633   26.7945 C   0  0  0  0  0  0  0  0  0  0  0  0
  -26.1970  -21.9957   24.3841 C   0  0  0  0  0  0  0  0  0  0  0  0
  -26.0710  -21.6019   22.9150 C   0  0  0  0  0  0  0  0  0  0  0  0
  -33.3642  -20.0720   18.4757 C   0  0  0  0  0  0  0  0  0  0  0  0
  -21.7844  -14.0707   21.9022 C   0  0  1  0  0  0  0  0  0  0  0  0
  -19.6741  -12.9158   24.8318 C   0  0  2  0  0  0  0  0  0  0  0  0
  -26.3342  -20.8114   25.3480 C   0  0  2  0  0  0  0  0  0  1  0  0
  -21.2397  -13.9873   20.4483 C   0  0  0  0  0  0  0  0  0  0  0  0
  -25.1781  -26.9544   19.9106 N   0  0  0  0  0  0  0  0  0  0  0  0
  -26.4593  -27.3600   19.9101 N   0  0  0  0  0  0  0  0  0  0  0  0
  -24.1542  -14.4914   22.4771 N   0  0  0  0  0  0  0  0  0  0  0  0
  -28.1630  -24.1941   18.6083 N   0  0  0  0  0  0  0  0  0  0  0  0
  -27.8916  -29.0946   20.6520 N   0  0  0  0  0  0  0  0  0  0  0  0
  -24.8301  -31.3002   21.0487 N   0  0  0  0  0  0  0  0  0  0  0  0
  -27.4401  -14.3892   20.8994 N   0  0  0  0  0  0  0  0  0  0  0  0
  -21.0061  -13.3131   22.8762 N   0  0  0  0  0  0  0  0  0  0  0  0
  -27.3020  -20.8820   22.4538 N   0  3  2  0  0  0  0  0  0  0  0  0
  -19.7642  -13.2918   26.2710 N   0  3  0  0  0  0  0  0  0  0  0  0
  -25.2057  -30.1702   23.0085 O   0  0  0  0  0  0  0  0  0  0  0  0
  -25.3847  -15.3712   20.4161 O   0  0  0  0  0  0  0  0  0  0  0  0
  -23.4594  -12.4023   21.7097 O   0  0  0  0  0  0  0  0  0  0  0  0
  -20.5080  -15.1091   24.2559 O   0  0  0  0  0  0  0  0  0  0  0  0
  -29.6306  -22.3912   18.5751 O   0  0  0  0  0  0  0  0  0  0  0  0
  -19.0339  -27.6448   21.4349 O   0  0  0  0  0  0  0  0  0  0  0  0
  -33.6198  -20.3597   19.8490 O   0  0  0  0  0  0  0  0  0  0  0  0
  -25.2212  -19.9353   25.1750 O   0  0  0  0  0  0  0  0  0  1  0  0
  -28.4958  -22.9069   20.4906 O   0  0  0  0  0  0  0  0  0  0  0  0
  -16.8595  -30.9865   25.2441 F   0  0  0  0  0  0  0  0  0  0  0  0
  -17.6891  -26.6180   23.6212 F   0  0  0  0  0  0  0  0  0  0  0  0
  1  2  1  0  0  0  0
  1  5  2  0  0  0  0
  2  6  2  0  0  0  0
  3  8  2  0  0  0  0
  3 16  1  0  0  0  0
  4  9  1  0  0  0  0
  4 16  2  0  0  0  0
  5 18  1  0  0  0  0
  6 20  1  0  0  0  0
  7 10  2  0  0  0  0
  7 19  1  0  0  0  0
  8 26  1  0  0  0  0
  9 26  2  0  0  0  0
 10 27  1  0  0  0  0
 11 12  2  0  0  0  0
 11 28  1  0  0  0  0
 12 30  1  0  0  0  0
 13 21  1  0  0  0  0
 13 27  2  0  0  0  0
 14 22  2  0  0  0  0
 14 29  1  0  0  0  0
 15 30  2  0  0  0  0
 15 31  1  0  0  0  0
 16 32  1  0  0  0  0
 17 32  1  0  0  0  0
 17 33  2  0  0  0  0
 17 34  1  0  0  0  0
 18 20  2  0  0  0  0
 18 39  1  0  0  0  0
 19 21  2  0  0  0  0
 19 40  1  0  0  0  0
 20 50  1  0  0  0  0
 21 41  1  0  0  0  0
 22 23  1  0  0  0  0
 22 54  1  0  0  0  0
 23 24  2  0  0  0  0
 23 55  1  0  0  0  0
 24 25  1  0  0  0  0
 24 56  1  0  0  0  0
 25 29  2  0  0  0  0
 25 57  1  0  0  0  0
 26 88  1  0  0  0  0
 27 90  1  0  0  0  0
 28 31  2  0  0  0  0
 28 88  1  0  0  0  0
 29 89  1  0  0  0  0
 30 92  1  0  0  0  0
 31 93  1  0  0  0  0
 32 73  2  0  0  0  0
 33 74  1  0  0  0  0
 33 77  1  0  0  0  0
 34 78  1  0  0  0  0
 34 83  2  0  0  0  0
 35 51  1  0  0  0  0
 35 79  1  0  0  0  0
 35 84  2  0  0  0  0
 36 69  1  0  0  0  0
 36 75  1  0  0  0  0
 36 85  2  0  0  0  0
 37 70  1  0  0  0  0
 37 80  1  0  0  0  0
 37 86  2  0  0  0  0
 38 76  1  0  0  0  0
 38 87  2  0  0  0  0
 38 91  1  0  0  0  0
 39 42  1  0  0  0  0
 40 51  1  0  0  0  0
 41 75  1  0  0  0  0
 42 44  1  0  0  0  0
 43 45  1  0  0  0  0
 43 47  1  0  0  0  0
 44 50  1  0  0  0  0
 45 52  1  0  0  0  0
 46 53  1  0  0  0  0
 46 54  1  0  0  0  0
 47 76  1  0  0  0  0
 48 52  1  0  0  0  0
 48 76  1  0  0  0  0
 49 54  1  0  0  0  0
 49 81  1  0  0  0  0
 50 79  1  0  0  0  0
 51 75  1  0  0  0  0
 52 74  1  0  0  0  0
 53 58  1  0  0  0  0
 53 81  1  0  0  0  0
 54 91  1  0  0  0  0
 59 68  1  0  0  0  0
 60 70  1  0  0  0  0
 61 71  1  0  0  0  0
 62 72  1  0  0  0  0
 63 72  1  0  0  0  0
 64 72  1  0  0  0  0
 65 82  1  0  0  0  0
 66 67  1  0  0  0  0
 66 71  1  0  0  0  0
 67 81  1  0  0  0  0
 68 89  1  0  0  0  0
 69 72  1  0  0  0  0
 69 80  1  0  0  0  0
 70 82  1  0  0  0  0
 71 90  1  0  0  0  0
 73 74  1  0  0  0  0
M  CHG  2  81   1  82   1
M  ISO  4  38 100  71 101  90 101  91 100
M  END
> <Batch ID>
0162

> <Smiles>
CCOc1cc(C2([100O:0][100C:0](=O)N3CCCC(n4nc(-c5ccc(Oc6ccc(F)cc6F)cc5)c(C(N)=O)c4N)C3)CC(C)N(CC[101CH:1](C)[101O:1]c3ccc4c(c3)CN(C(=O)C(NC(=O)C(C)NC)C(C)(C)C)C(C(=O)NC3CCCc5ccccc53)C4)C2)c(C)c(C)c1C

> <Shape>
0.244

> <Color>
0.065

> <Negative vol penalty>
0.000

$$$$

  -OEChem-04052322143D

 90100  0     1  0  0  0  0  0999 V2000
  -28.1535  -37.9226   22.8278 C   0  0  0  0  0  0  0  0  0  0  0  0
  -28.6536  -36.7110   22.3616 C   0  0  0  0  0  0  0  0  0  0  0  0
  -23.9041   -9.6185   22.3033 C   0  0  0  0  0  0  0  0  0  0  0  0
  -25.1385   -7.6410   21.6688 C   0  0  0  0  0  0  0  0  0  0  0  0
  -27.0943  -37.9357   23.7344 C   0  0  0  0  0  0  0  0  0  0  0  0
  -28.0954  -35.5117   22.8026 C   0  0  0  0  0  0  0  0  0  0  0  0
  -27.4216  -30.3555   19.5674 C   0  0  0  0  0  0  0  0  0  0  0  0
  -22.7074   -8.9146   22.1690 C   0  0  0  0  0  0  0  0  0  0  0  0
  -23.9418   -6.9371   21.5346 C   0  0  0  0  0  0  0  0  0  0  0  0
  -28.1736  -29.1833   19.5035 C   0  0  0  0  0  0  0  0  0  0  0  0
  -21.2317   -4.5189   21.3744 C   0  0  0  0  0  0  0  0  0  0  0  0
  -21.1680   -3.2367   21.9198 C   0  0  0  0  0  0  0  0  0  0  0  0
  -29.8997  -20.4738   20.3478 C   0  0  0  0  0  0  0  0  0  0  0  0
  -26.6952  -28.1545   21.1082 C   0  0  0  0  0  0  0  0  0  0  0  0
  -21.6341   -4.1449   24.1095 C   0  0  0  0  0  0  0  0  0  0  0  0
  -25.1197   -8.9818   22.0532 C   0  0  0  0  0  0  0  0  0  0  0  0
  -27.1462   -9.8297   23.3500 C   0  0  0  0  0  0  0  0  0  0  0  0
  -26.5165  -36.7362   24.1792 C   0  0  0  0  0  0  0  0  0  0  0  0
  -26.3052  -30.4398   20.4118 C   0  0  0  0  0  0  0  0  0  0  0  0
  -27.0283  -35.5087   23.7169 C   0  0  0  0  0  0  0  0  0  0  0  0
  -29.7112  -20.0586   21.6613 C   0  0  0  0  0  0  0  0  0  0  0  0
  -25.9292  -29.3281   21.1791 C   0  0  0  0  0  0  0  0  0  0  0  0
  -29.8561  -21.8290   20.0399 C   0  0  0  0  0  0  0  0  0  0  0  0
  -22.7263   -7.5739   21.7847 C   0  0  0  0  0  0  0  0  0  0  0  0
  -27.8122  -28.0835   20.2761 C   0  0  0  0  0  0  0  0  0  0  0  0
  -21.4966   -5.6141   22.1966 C   0  0  0  0  0  0  0  0  0  0  0  0
  -21.3692   -3.0496   23.2873 C   0  0  0  0  0  0  0  0  0  0  0  0
  -21.6978   -5.4271   23.5642 C   0  0  0  0  0  0  0  0  0  0  0  0
  -26.3561   -9.7085   22.1911 C   0  0  0  0  0  0  0  0  0  0  0  0
  -29.6226  -22.7218   21.0735 C   0  0  0  0  0  0  0  0  0  0  0  0
  -29.4844  -21.0306   22.6224 C   0  0  0  0  0  0  0  0  0  0  0  0
  -28.2053  -10.6140   22.9630 C   0  0  0  0  0  0  0  0  0  0  0  0
  -26.9412   -9.2822   24.6591 C   0  0  0  0  0  0  0  0  0  0  0  0
  -25.5154  -32.2348   22.9134 C   0  0  0  0  0  0  0  0  0  0  0  0
  -22.6650  -30.7164   22.6096 C   0  0  0  0  0  0  0  0  0  0  0  0
  -20.9384  -27.9907   21.4978 C   0  0  0  0  0  0  0  0  0  0  0  0
  -30.3738  -14.8958   20.3202 C   0  0  0  0  0  0  0  0  0  0  0  0
  -25.4042  -36.7994   25.1959 C   0  0  0  0  0  0  0  0  0  0  0  0
  -25.4888  -31.7026   20.4493 C   0  0  0  0  0  0  0  0  0  0  0  0
  -24.7274  -29.3605   22.0863 C   0  0  0  0  0  0  0  0  0  0  0  0
  -24.6230  -35.4944   25.3260 C   0  0  0  0  0  0  0  0  0  0  0  0
  -29.6995  -12.1169   18.3782 C   0  0  0  0  0  0  0  0  0  0  0  0
  -25.5772  -34.3080   25.4194 C   0  0  0  0  0  0  0  0  0  0  0  0
  -30.9293  -24.9155   20.8647 C   0  0  0  0  0  0  0  0  0  0  0  0
  -28.8338  -11.2418   19.2843 C   0  0  0  0  0  0  0  0  0  0  0  0
  -30.6523  -26.3775   21.2348 C   0  0  0  0  0  0  0  0  0  0  0  0
  -28.6452  -17.7877   21.3034 C   0  0  0  0  0  0  0  0  0  0  0  0
  -31.1369  -17.9640   21.7157 C   0  0  0  0  0  0  0  0  0  0  0  0
  -28.7017  -25.0624   21.7409 C   0  0  0  0  0  0  0  0  0  0  0  0
  -29.3127  -13.5857   18.5068 C   0  0  0  0  0  0  0  0  0  0  0  0
  -28.7185  -16.2941   21.6337 C   0  0  0  0  0  0  0  0  0  0  0  0
  -31.1468  -16.4776   22.0606 C   0  0  0  0  0  0  0  0  0  0  0  0
  -28.5186  -13.2421   20.8239 C   0  0  0  0  0  0  0  0  0  0  0  0
  -29.7582  -18.5828   22.0095 C   0  0  0  0  0  0  0  0  0  0  0  0
  -26.4331  -34.1873   24.1528 C   0  0  1  0  0  0  0  0  0  0  0  0
  -29.5628  -24.2093   20.7968 C   0  0  2  0  0  0  0  0  0  0  0  0
  -24.6733  -31.8491   21.7303 C   0  0  1  0  0  0  0  0  0  0  0  0
  -28.8726  -11.7434   20.7387 C   0  0  1  0  0  0  0  0  0  0  0  0
  -29.1449  -26.4855   21.4301 C   0  0  2  0  0  0  0  0  0  1  0  0
  -30.0563  -22.2807   18.6344 C   0  0  0  0  0  0  0  0  0  0  0  0
  -18.6266  -27.0170   21.4285 C   0  0  0  0  0  0  0  0  0  0  0  0
  -22.9048  -29.9439   25.5517 C   0  0  0  0  0  0  0  0  0  0  0  0
  -21.1190  -28.2301   25.1753 C   0  0  0  0  0  0  0  0  0  0  0  0
  -20.6131  -30.6499   24.8419 C   0  0  0  0  0  0  0  0  0  0  0  0
  -20.9004  -27.9937   18.5385 C   0  0  0  0  0  0  0  0  0  0  0  0
  -29.0654  -21.7090   24.8629 C   0  0  0  0  0  0  0  0  0  0  0  0
  -22.0671  -29.4446   23.1611 C   0  0  1  0  0  0  0  0  0  0  0  0
  -19.6532  -27.8694   20.6990 C   0  0  2  0  0  0  0  0  0  0  0  0
  -21.6998  -29.5668   24.6669 C   0  0  0  0  0  0  0  0  0  0  0  0
  -26.8694  -10.3635   21.1463 N   0  0  0  0  0  0  0  0  0  0  0  0
  -29.4350  -22.3562   22.3614 N   0  0  0  0  0  0  0  0  0  0  0  0
  -27.9933  -10.9039   21.6472 N   0  0  0  0  0  0  0  0  0  0  0  0
  -23.9649  -30.6199   22.0930 N   0  0  0  0  0  0  0  0  0  0  0  0
  -29.3584  -14.0226   19.9020 N   0  0  0  0  0  0  0  0  0  0  0  0
  -30.0666  -15.7705   21.3733 N   0  0  0  0  0  0  0  0  0  0  0  0
  -29.2879  -11.0771   23.6232 N   0  0  0  0  0  0  0  0  0  0  0  0
  -25.8010   -8.4990   24.8847 N   0  0  0  0  0  0  0  0  0  0  0  0
  -25.6641  -33.5988   23.0773 N   0  0  0  0  0  0  0  0  0  0  0  0
  -20.9396  -29.1151   22.2959 N   0  0  0  0  0  0  0  0  0  0  0  0
  -19.9245  -27.2463   19.3727 N   0  3  0  0  0  0  0  0  0  0  0  0
  -27.7367   -9.4953   25.6053 O   0  0  0  0  0  0  0  0  0  0  0  0
  -25.9934  -31.3598   23.6258 O   0  0  0  0  0  0  0  0  0  0  0  0
  -22.0005  -31.7554   22.6298 O   0  0  0  0  0  0  0  0  0  0  0  0
  -21.8486  -27.1681   21.4241 O   0  0  0  0  0  0  0  0  0  0  0  0
  -31.4896  -14.8942   19.7852 O   0  0  0  0  0  0  0  0  0  0  0  0
  -21.5588   -6.8866   21.6538 O   0  0  0  0  0  0  0  0  0  0  0  0
  -28.5499  -26.9304   20.2157 O   0  0  0  0  0  0  0  0  0  1  0  0
  -29.2930  -20.6611   23.9284 O   0  0  0  0  0  0  0  0  0  0  0  0
  -21.3064   -1.8184   23.8111 F   0  0  0  0  0  0  0  0  0  0  0  0
  -21.9515   -6.4756   24.3593 F   0  0  0  0  0  0  0  0  0  0  0  0
  1  2  1  0  0  0  0
  1  5  2  0  0  0  0
  2  6  2  0  0  0  0
  3  8  2  0  0  0  0
  3 16  1  0  0  0  0
  4  9  1  0  0  0  0
  4 16  2  0  0  0  0
  5 18  1  0  0  0  0
  6 20  1  0  0  0  0
  7 10  2  0  0  0  0
  7 19  1  0  0  0  0
  8 24  1  0  0  0  0
  9 24  2  0  0  0  0
 10 25  1  0  0  0  0
 11 12  2  0  0  0  0
 11 26  1  0  0  0  0
 12 27  1  0  0  0  0
 13 21  2  0  0  0  0
 13 23  1  0  0  0  0
 14 22  1  0  0  0  0
 14 25  2  0  0  0  0
 15 27  2  0  0  0  0
 15 28  1  0  0  0  0
 16 29  1  0  0  0  0
 17 29  1  0  0  0  0
 17 32  2  0  0  0  0
 17 33  1  0  0  0  0
 18 20  2  0  0  0  0
 18 38  1  0  0  0  0
 19 22  2  0  0  0  0
 19 39  1  0  0  0  0
 20 55  1  0  0  0  0
 21 31  1  0  0  0  0
 21 54  1  0  0  0  0
 22 40  1  0  0  0  0
 23 30  2  0  0  0  0
 23 60  1  0  0  0  0
 24 86  1  0  0  0  0
 25 87  1  0  0  0  0
 26 28  2  0  0  0  0
 26 86  1  0  0  0  0
 27 89  1  0  0  0  0
 28 90  1  0  0  0  0
 29 70  2  0  0  0  0
 30 56  1  0  0  0  0
 30 71  1  0  0  0  0
 31 71  2  0  0  0  0
 31 88  1  0  0  0  0
 32 72  1  0  0  0  0
 32 76  1  0  0  0  0
 33 77  1  0  0  0  0
 33 81  2  0  0  0  0
 34 57  1  0  0  0  0
 34 78  1  0  0  0  0
 34 82  2  0  0  0  0
 35 67  1  0  0  0  0
 35 73  1  0  0  0  0
 35 83  2  0  0  0  0
 36 68  1  0  0  0  0
 36 79  1  0  0  0  0
 36 84  2  0  0  0  0
 37 74  1  0  0  0  0
 37 75  1  0  0  0  0
 37 85  2  0  0  0  0
 38 41  1  0  0  0  0
 39 57  1  0  0  0  0
 40 73  1  0  0  0  0
 41 43  1  0  0  0  0
 42 45  1  0  0  0  0
 42 50  1  0  0  0  0
 43 55  1  0  0  0  0
 44 46  1  0  0  0  0
 44 56  1  0  0  0  0
 45 58  1  0  0  0  0
 46 59  1  0  0  0  0
 47 51  1  0  0  0  0
 47 54  1  0  0  0  0
 48 52  1  0  0  0  0
 48 54  1  0  0  0  0
 49 56  1  0  0  0  0
 49 59  1  0  0  0  0
 50 74  1  0  0  0  0
 51 75  1  0  0  0  0
 52 75  1  0  0  0  0
 53 58  1  0  0  0  0
 53 74  1  0  0  0  0
 55 78  1  0  0  0  0
 57 73  1  0  0  0  0
 58 72  1  0  0  0  0
 59 87  1  0  0  0  0
 61 68  1  0  0  0  0
 62 69  1  0  0  0  0
 63 69  1  0  0  0  0
 64 69  1  0  0  0  0
 65 80  1  0  0  0  0
 66 88  1  0  0  0  0
 67 69  1  0  0  0  0
 67 79  1  0  0  0  0
 68 80  1  0  0  0  0
 70 72  1  0  0  0  0
M  CHG  1  80   1
M  ISO  4  37 100  59 101  75 100  87 101
M  END
> <Batch ID>
0162

> <Smiles>
CNC(C)C(=O)NC(C(=O)N1Cc2cc([101O:1][101CH:1]3CCC(c4nc(OC)c(C5CC[100N:0]([100C:0](=O)N6CCCC(n7nc(-c8ccc(Oc9ccc(F)cc9F)cc8)c(C(N)=O)c7N)C6)CC5)cc4C)C3)ccc2CC1C(=O)NC1CCCc2ccccc21)C(C)(C)C

> <Shape>
0.362

> <Color>
0.113

> <Negative vol penalty>
0.000

$$$$

  -OEChem-04052322143D

 88 97  0     1  0  0  0  0  0999 V2000
  -30.3572  -26.2110   16.5392 C   0  0  0  0  0  0  0  0  0  0  0  0
  -28.9786  -26.1213   16.7031 C   0  0  0  0  0  0  0  0  0  0  0  0
  -26.5710  -22.1693   21.7600 C   0  0  0  0  0  0  0  0  0  0  0  0
  -26.5250  -19.7809   22.1214 C   0  0  0  0  0  0  0  0  0  0  0  0
  -31.1576  -26.6381   17.5980 C   0  0  0  0  0  0  0  0  0  0  0  0
  -28.3997  -26.4578   17.9262 C   0  0  0  0  0  0  0  0  0  0  0  0
  -22.9517  -29.1101   18.8151 C   0  0  0  0  0  0  0  0  0  0  0  0
  -27.7318  -22.0318   20.9989 C   0  0  0  0  0  0  0  0  0  0  0  0
  -27.6858  -19.6434   21.3603 C   0  0  0  0  0  0  0  0  0  0  0  0
  -21.7001  -28.5937   19.1479 C   0  0  0  0  0  0  0  0  0  0  0  0
  -28.5537  -21.0874   17.8579 C   0  0  0  0  0  0  0  0  0  0  0  0
  -28.6249  -21.7855   16.6525 C   0  0  0  0  0  0  0  0  0  0  0  0
  -22.1186  -29.0930   21.4706 C   0  0  0  0  0  0  0  0  0  0  0  0
  -30.5755  -22.9661   17.4514 C   0  0  0  0  0  0  0  0  0  0  0  0
  -25.9677  -21.0438   22.3213 C   0  0  0  0  0  0  0  0  0  0  0  0
  -24.6110  -21.9341   24.2897 C   0  0  0  0  0  0  0  0  0  0  0  0
  -30.5872  -26.9891   18.8317 C   0  0  0  0  0  0  0  0  0  0  0  0
  -23.8019  -29.6127   19.8105 C   0  0  0  0  0  0  0  0  0  0  0  0
  -29.1933  -26.8887   19.0029 C   0  0  0  0  0  0  0  0  0  0  0  0
  -23.3793  -29.6176   21.1474 C   0  0  0  0  0  0  0  0  0  0  0  0
  -18.1621  -26.9814   25.0014 C   0  0  0  0  0  0  0  0  0  0  0  0
  -18.2330  -27.0615   26.3921 C   0  0  0  0  0  0  0  0  0  0  0  0
  -17.7415  -25.7995   24.3914 C   0  0  0  0  0  0  0  0  0  0  0  0
  -17.8835  -25.9598   27.1729 C   0  0  0  0  0  0  0  0  0  0  0  0
  -17.4630  -24.7779   26.5630 C   0  0  0  0  0  0  0  0  0  0  0  0
  -17.3920  -24.6978   25.1722 C   0  0  0  0  0  0  0  0  0  0  0  0
  -28.2892  -20.7688   20.7990 C   0  0  0  0  0  0  0  0  0  0  0  0
  -21.2846  -28.5824   20.4762 C   0  0  0  0  0  0  0  0  0  0  0  0
  -29.4933  -21.3287   18.8602 C   0  0  0  0  0  0  0  0  0  0  0  0
  -29.6358  -22.7248   16.4492 C   0  0  0  0  0  0  0  0  0  0  0  0
  -30.5043  -22.2680   18.6569 C   0  0  0  0  0  0  0  0  0  0  0  0
  -24.7689  -21.1853   23.1081 C   0  0  0  0  0  0  0  0  0  0  0  0
  -23.2974  -21.7448   24.6432 C   0  0  0  0  0  0  0  0  0  0  0  0
  -25.5663  -22.7298   25.0038 C   0  0  0  0  0  0  0  0  0  0  0  0
  -26.6905  -28.8436   20.8915 C   0  0  0  0  0  0  0  0  0  0  0  0
  -26.3214  -31.5410   22.6550 C   0  0  0  0  0  0  0  0  0  0  0  0
  -24.2002  -33.7964   24.0905 C   0  0  0  0  0  0  0  0  0  0  0  0
  -17.8911  -21.4393   23.3164 C   0  0  0  0  0  0  0  0  0  0  0  0
  -31.4977  -27.4001   19.9616 C   0  0  0  0  0  0  0  0  0  0  0  0
  -25.1379  -30.1908   19.4318 C   0  0  0  0  0  0  0  0  0  0  0  0
  -24.2463  -30.1641   22.2512 C   0  0  0  0  0  0  0  0  0  0  0  0
  -30.7692  -28.0962   21.1084 C   0  0  0  0  0  0  0  0  0  0  0  0
  -19.8419  -18.5066   22.8629 C   0  0  0  0  0  0  0  0  0  0  0  0
  -29.5066  -27.3269   21.4839 C   0  0  0  0  0  0  0  0  0  0  0  0
  -21.2842  -19.0023   22.9813 C   0  0  0  0  0  0  0  0  0  0  0  0
  -17.9113  -28.5286   21.8054 C   0  0  0  0  0  0  0  0  0  0  0  0
  -17.4165  -28.7302   23.2337 C   0  0  0  0  0  0  0  0  0  0  0  0
  -19.7070  -27.8321   23.1987 C   0  0  0  0  0  0  0  0  0  0  0  0
  -18.9509  -19.5264   22.1570 C   0  0  0  0  0  0  0  0  0  0  0  0
  -20.4192  -21.3765   22.8552 C   0  0  0  0  0  0  0  0  0  0  0  0
  -28.5256  -27.2685   20.3067 C   0  0  1  0  0  0  0  0  0  0  0  0
  -26.1322  -30.2054   20.5887 C   0  0  1  0  0  0  0  0  0  0  0  0
  -21.3449  -20.4074   23.6106 C   0  0  2  0  0  0  0  0  0  0  0  0
  -19.4207  -28.6335   21.9336 C   0  0  1  0  0  0  0  0  0  1  0  0
  -18.5437  -28.1835   24.1491 C   0  0  2  0  0  0  0  0  0  0  0  0
  -18.6841  -28.3296   27.0461 C   0  0  0  0  0  0  0  0  0  0  0  0
  -17.6663  -25.7130   22.8994 C   0  0  0  0  0  0  0  0  0  0  0  0
  -17.9626  -26.0452   28.6647 C   0  0  0  0  0  0  0  0  0  0  0  0
  -17.0897  -23.5958   27.4012 C   0  0  0  0  0  0  0  0  0  0  0  0
  -24.1922  -35.8722   25.5006 C   0  0  0  0  0  0  0  0  0  0  0  0
  -26.9530  -29.8633   25.1241 C   0  0  0  0  0  0  0  0  0  0  0  0
  -26.0147  -31.7086   26.5322 C   0  0  0  0  0  0  0  0  0  0  0  0
  -28.0150  -32.1274   25.1017 C   0  0  0  0  0  0  0  0  0  0  0  0
  -22.8617  -35.3704   21.9716 C   0  0  0  0  0  0  0  0  0  0  0  0
  -16.9412  -23.4295   24.5184 C   0  0  0  0  0  0  0  0  0  0  0  0
  -25.7481  -31.8592   24.0148 C   0  0  1  0  0  0  0  0  0  0  0  0
  -24.1904  -35.3144   24.0858 C   0  0  2  0  0  0  0  0  0  0  0  0
  -26.6669  -31.3775   25.1729 C   0  0  0  0  0  0  0  0  0  0  0  0
  -23.6454  -20.5663   22.7360 N   0  0  0  0  0  0  0  0  0  0  0  0
  -22.7690  -20.9257   23.6893 N   0  0  0  0  0  0  0  0  0  0  0  0
  -25.5463  -30.7126   21.8312 N   0  0  0  0  0  0  0  0  0  0  0  0
  -19.0518  -20.8349   22.8082 N   0  0  0  0  0  0  0  0  0  0  0  0
  -22.5543  -22.2006   25.6740 N   0  0  0  0  0  0  0  0  0  0  0  0
  -26.8721  -22.8163   24.5020 N   0  0  0  0  0  0  0  0  0  0  0  0
  -27.8254  -28.5276   20.1694 N   0  0  0  0  0  0  0  0  0  0  0  0
  -25.4822  -33.2937   24.0203 N   0  0  0  0  0  0  0  0  0  0  0  0
  -18.0667  -22.6759   23.9285 N   0  0  0  0  0  0  0  0  0  0  0  0
  -22.9791  -35.8225   23.3818 N   0  3  0  0  0  0  0  0  0  0  0  0
  -25.2751  -23.3325   26.0646 O   0  0  0  0  0  0  0  0  0  0  0  0
  -26.1336  -28.1329   21.7200 O   0  0  0  0  0  0  0  0  0  0  0  0
  -27.4133  -32.0160   22.3329 O   0  0  0  0  0  0  0  0  0  0  0  0
  -23.1734  -33.1239   24.1541 O   0  0  0  0  0  0  0  0  0  0  0  0
  -16.7742  -20.9157   23.2407 O   0  0  0  0  0  0  0  0  0  0  0  0
  -18.9757  -29.2807   24.9644 O   0  0  0  0  0  0  0  0  0  0  0  0
  -29.4217  -20.6342   20.0562 O   0  0  0  0  0  0  0  0  0  0  0  0
  -20.0638  -28.0783   20.8039 O   0  0  0  0  0  0  0  0  0  1  0  0
  -29.7050  -23.3940   15.2909 F   0  0  0  0  0  0  0  0  0  0  0  0
  -31.4105  -22.5033   19.6157 F   0  0  0  0  0  0  0  0  0  0  0  0
  1  2  1  0  0  0  0
  1  5  2  0  0  0  0
  2  6  2  0  0  0  0
  3  8  2  0  0  0  0
  3 15  1  0  0  0  0
  4  9  1  0  0  0  0
  4 15  2  0  0  0  0
  5 17  1  0  0  0  0
  6 19  1  0  0  0  0
  7 10  2  0  0  0  0
  7 18  1  0  0  0  0
  8 27  1  0  0  0  0
  9 27  2  0  0  0  0
 10 28  1  0  0  0  0
 11 12  2  0  0  0  0
 11 29  1  0  0  0  0
 12 30  1  0  0  0  0
 13 20  1  0  0  0  0
 13 28  2  0  0  0  0
 14 30  2  0  0  0  0
 14 31  1  0  0  0  0
 15 32  1  0  0  0  0
 16 32  1  0  0  0  0
 16 33  2  0  0  0  0
 16 34  1  0  0  0  0
 17 19  2  0  0  0  0
 17 39  1  0  0  0  0
 18 20  2  0  0  0  0
 18 40  1  0  0  0  0
 19 51  1  0  0  0  0
 20 41  1  0  0  0  0
 21 22  1  0  0  0  0
 21 23  2  0  0  0  0
 21 55  1  0  0  0  0
 22 24  2  0  0  0  0
 22 56  1  0  0  0  0
 23 26  1  0  0  0  0
 23 57  1  0  0  0  0
 24 25  1  0  0  0  0
 24 58  1  0  0  0  0
 25 26  2  0  0  0  0
 25 59  1  0  0  0  0
 26 65  1  0  0  0  0
 27 85  1  0  0  0  0
 28 86  1  0  0  0  0
 29 31  2  0  0  0  0
 29 85  1  0  0  0  0
 30 87  1  0  0  0  0
 31 88  1  0  0  0  0
 32 69  2  0  0  0  0
 33 70  1  0  0  0  0
 33 73  1  0  0  0  0
 34 74  1  0  0  0  0
 34 79  2  0  0  0  0
 35 52  1  0  0  0  0
 35 75  1  0  0  0  0
 35 80  2  0  0  0  0
 36 66  1  0  0  0  0
 36 71  1  0  0  0  0
 36 81  2  0  0  0  0
 37 67  1  0  0  0  0
 37 76  1  0  0  0  0
 37 82  2  0  0  0  0
 38 72  1  0  0  0  0
 38 77  1  0  0  0  0
 38 83  2  0  0  0  0
 39 42  1  0  0  0  0
 40 52  1  0  0  0  0
 41 71  1  0  0  0  0
 42 44  1  0  0  0  0
 43 45  1  0  0  0  0
 43 49  1  0  0  0  0
 44 51  1  0  0  0  0
 45 53  1  0  0  0  0
 46 47  1  0  0  0  0
 46 54  1  0  0  0  0
 47 55  1  0  0  0  0
 48 54  1  0  0  0  0
 48 55  1  0  0  0  0
 49 72  1  0  0  0  0
 50 53  1  0  0  0  0
 50 72  1  0  0  0  0
 51 75  1  0  0  0  0
 52 71  1  0  0  0  0
 53 70  1  0  0  0  0
 54 86  1  0  0  0  0
 55 84  1  0  0  0  0
 60 67  1  0  0  0  0
 61 68  1  0  0  0  0
 62 68  1  0  0  0  0
 63 68  1  0  0  0  0
 64 78  1  0  0  0  0
 65 77  1  0  0  0  0
 66 68  1  0  0  0  0
 66 76  1  0  0  0  0
 67 78  1  0  0  0  0
 69 70  1  0  0  0  0
M  CHG  1  78   1
M  ISO  4  38 100  54 101  77 100  86 101
M  END
> <Batch ID>
0162

> <Smiles>
CNC(C)C(=O)NC(C(=O)N1Cc2cc([101O:1][101CH:1]3CCC(O)(c4c(C)c(C)c(C)c(C[100NH:0][100C:0](=O)N5CCCC(n6nc(-c7ccc(Oc8ccc(F)cc8F)cc7)c(C(N)=O)c6N)C5)c4C)C3)ccc2CC1C(=O)NC1CCCc2ccccc21)C(C)(C)C

> <Shape>
0.240

> <Color>
0.080

> <Negative vol penalty>
0.000

$$$$

  -OEChem-04052322143D

 85 94  0     1  0  0  0  0  0999 V2000
  -27.6011  -32.8149   27.8269 C   0  0  0  0  0  0  0  0  0  0  0  0
  -27.4641  -31.4574   27.5554 C   0  0  0  0  0  0  0  0  0  0  0  0
  -23.0816   -9.9188   19.8675 C   0  0  0  0  0  0  0  0  0  0  0  0
  -23.8640   -9.8053   22.1505 C   0  0  0  0  0  0  0  0  0  0  0  0
  -27.6383  -33.7339   26.7791 C   0  0  0  0  0  0  0  0  0  0  0  0
  -27.3630  -31.0181   26.2359 C   0  0  0  0  0  0  0  0  0  0  0  0
  -30.2560  -26.9661   25.3102 C   0  0  0  0  0  0  0  0  0  0  0  0
  -22.3598   -8.7402   20.0563 C   0  0  0  0  0  0  0  0  0  0  0  0
  -23.1421   -8.6268   22.3393 C   0  0  0  0  0  0  0  0  0  0  0  0
  -29.7815  -25.7311   25.7501 C   0  0  0  0  0  0  0  0  0  0  0  0
  -23.4836   -5.3485   21.5862 C   0  0  0  0  0  0  0  0  0  0  0  0
  -24.1234   -4.2940   22.2375 C   0  0  0  0  0  0  0  0  0  0  0  0
  -29.0178  -25.2357   23.5161 C   0  0  0  0  0  0  0  0  0  0  0  0
  -29.6518  -17.7020   23.0424 C   0  0  0  0  0  0  0  0  0  0  0  0
  -22.4362   -4.3381   23.9663 C   0  0  0  0  0  0  0  0  0  0  0  0
  -23.8337  -10.4513   20.9146 C   0  0  0  0  0  0  0  0  0  0  0  0
  -24.1317  -12.9847   20.9393 C   0  0  0  0  0  0  0  0  0  0  0  0
  -27.5474  -33.3048   25.4456 C   0  0  0  0  0  0  0  0  0  0  0  0
  -30.1050  -27.3504   23.9701 C   0  0  0  0  0  0  0  0  0  0  0  0
  -27.3977  -31.9324   25.1692 C   0  0  0  0  0  0  0  0  0  0  0  0
  -29.4935  -26.4750   23.0612 C   0  0  0  0  0  0  0  0  0  0  0  0
  -30.0909  -18.9318   23.5476 C   0  0  0  0  0  0  0  0  0  0  0  0
  -31.3688  -19.3804   23.1918 C   0  0  0  0  0  0  0  0  0  0  0  0
  -22.3901   -8.0942   21.2921 C   0  0  0  0  0  0  0  0  0  0  0  0
  -29.1597  -24.8669   24.8536 C   0  0  0  0  0  0  0  0  0  0  0  0
  -22.3201   -5.8979   22.1250 C   0  0  0  0  0  0  0  0  0  0  0  0
  -23.5997   -3.7887   23.4275 C   0  0  0  0  0  0  0  0  0  0  0  0
  -21.7965   -5.3927   23.3150 C   0  0  0  0  0  0  0  0  0  0  0  0
  -24.5800  -11.6684   20.7201 C   0  0  0  0  0  0  0  0  0  0  0  0
  -32.1102  -18.6062   22.3025 C   0  0  0  0  0  0  0  0  0  0  0  0
  -30.4776  -17.0033   22.1754 C   0  0  0  0  0  0  0  0  0  0  0  0
  -25.2074  -13.7730   20.6108 C   0  0  0  0  0  0  0  0  0  0  0  0
  -22.8569  -13.4530   21.3990 C   0  0  0  0  0  0  0  0  0  0  0  0
  -28.5943  -29.7108   22.4701 C   0  0  0  0  0  0  0  0  0  0  0  0
  -30.0879  -28.4873   19.8634 C   0  0  0  0  0  0  0  0  0  0  0  0
  -31.5523  -25.7959   18.3604 C   0  0  0  0  0  0  0  0  0  0  0  0
  -30.6566  -14.9018   20.7976 C   0  0  0  0  0  0  0  0  0  0  0  0
  -27.5448  -34.3398   24.3485 C   0  0  0  0  0  0  0  0  0  0  0  0
  -30.6461  -28.6747   23.5057 C   0  0  0  0  0  0  0  0  0  0  0  0
  -31.9175  -20.6672   23.7275 C   0  0  0  0  0  0  0  0  0  0  0  0
  -29.3249  -26.8317   21.6077 C   0  0  0  0  0  0  0  0  0  0  0  0
  -27.8082  -33.7583   22.9619 C   0  0  0  0  0  0  0  0  0  0  0  0
  -29.5597  -12.6111   18.3024 C   0  0  0  0  0  0  0  0  0  0  0  0
  -26.9599  -32.5108   22.7362 C   0  0  0  0  0  0  0  0  0  0  0  0
  -28.1295  -12.2699   18.7270 C   0  0  0  0  0  0  0  0  0  0  0  0
  -30.4827  -12.7854   19.5072 C   0  0  0  0  0  0  0  0  0  0  0  0
  -28.5775  -13.3947   20.9453 C   0  0  0  0  0  0  0  0  0  0  0  0
  -31.3380  -20.9828   25.0964 C   0  0  0  0  0  0  0  0  0  0  0  0
  -27.3100  -31.4147   23.7499 C   0  0  1  0  0  0  0  0  0  0  0  0
  -29.2093  -19.7339   24.4908 C   0  0  2  0  0  0  0  0  0  0  0  0
  -29.9788  -29.1786   22.2298 C   0  0  1  0  0  0  0  0  0  0  0  0
  -27.5961  -13.2735   19.7681 C   0  0  2  0  0  0  0  0  0  0  0  0
  -33.4614  -19.0474   21.8402 C   0  0  0  0  0  0  0  0  0  0  0  0
  -27.8696  -20.0804   23.8249 C   0  0  0  0  0  0  0  0  0  0  0  0
  -32.6455  -25.0914   16.2142 C   0  0  0  0  0  0  0  0  0  0  0  0
  -27.3514  -28.3341   18.5225 C   0  0  0  0  0  0  0  0  0  0  0  0
  -28.3476  -26.7877   16.8241 C   0  0  0  0  0  0  0  0  0  0  0  0
  -29.1999  -29.1227   17.0339 C   0  0  0  0  0  0  0  0  0  0  0  0
  -34.1026  -25.1760   19.7279 C   0  0  0  0  0  0  0  0  0  0  0  0
  -29.2327  -21.5412   26.2800 C   0  0  0  0  0  0  0  0  0  0  0  0
  -29.3857  -23.0468   26.3676 C   0  0  0  0  0  0  0  0  0  1  0  0
  -29.7517  -27.4354   18.8341 C   0  0  1  0  0  0  0  0  0  0  0  0
  -32.8646  -25.6511   17.6112 C   0  0  2  0  0  0  0  0  0  0  0  0
  -28.6639  -27.9138   17.8314 C   0  0  0  0  0  0  0  0  0  0  0  0
  -25.8421  -11.6192   20.2857 N   0  0  0  0  0  0  0  0  0  0  0  0
  -31.6957  -17.4297   21.7844 N   0  0  0  0  0  0  0  0  0  0  0  0
  -26.1960  -12.9144   20.2292 N   0  0  0  0  0  0  0  0  0  0  0  0
  -29.8650  -28.1404   21.2035 N   0  0  0  0  0  0  0  0  0  0  0  0
  -29.9151  -13.7534   20.4482 N   0  0  0  0  0  0  0  0  0  0  0  0
  -25.3945  -15.1100   20.6138 N   0  0  0  0  0  0  0  0  0  0  0  0
  -21.8638  -12.5082   21.6915 N   0  0  0  0  0  0  0  0  0  0  0  0
  -30.0018  -15.7662   21.6744 N   0  0  0  0  0  0  0  0  0  0  0  0
  -28.5418  -30.7540   23.3747 N   0  0  0  0  0  0  0  0  0  0  0  0
  -31.0147  -27.0567   18.2098 N   0  0  0  0  0  0  0  0  0  0  0  0
  -29.8329  -21.0539   24.9834 N   0  3  1  0  0  0  0  0  0  0  0  0
  -33.7821  -24.7349   18.3460 N   0  3  0  0  0  0  0  0  0  0  0  0
  -22.6004  -14.6739   21.5302 O   0  0  0  0  0  0  0  0  0  0  0  0
  -27.6443  -29.2128   21.8774 O   0  0  0  0  0  0  0  0  0  0  0  0
  -30.5386  -29.5740   19.4926 O   0  0  0  0  0  0  0  0  0  0  0  0
  -31.0520  -24.8809   19.0108 O   0  0  0  0  0  0  0  0  0  0  0  0
  -31.7780  -15.1172   20.3307 O   0  0  0  0  0  0  0  0  0  0  0  0
  -21.6857   -6.9443   21.4768 O   0  0  0  0  0  0  0  0  0  0  0  0
  -28.6951  -23.6612   25.2804 O   0  0  0  0  0  0  0  0  0  1  0  0
  -24.2134   -2.7751   24.0521 F   0  0  0  0  0  0  0  0  0  0  0  0
  -20.6784   -5.9156   23.8368 F   0  0  0  0  0  0  0  0  0  0  0  0
  1  2  1  0  0  0  0
  1  5  2  0  0  0  0
  2  6  2  0  0  0  0
  3  8  2  0  0  0  0
  3 16  1  0  0  0  0
  4  9  1  0  0  0  0
  4 16  2  0  0  0  0
  5 18  1  0  0  0  0
  6 20  1  0  0  0  0
  7 10  2  0  0  0  0
  7 19  1  0  0  0  0
  8 24  1  0  0  0  0
  9 24  2  0  0  0  0
 10 25  1  0  0  0  0
 11 12  2  0  0  0  0
 11 26  1  0  0  0  0
 12 27  1  0  0  0  0
 13 21  1  0  0  0  0
 13 25  2  0  0  0  0
 14 22  2  0  0  0  0
 14 31  1  0  0  0  0
 15 27  2  0  0  0  0
 15 28  1  0  0  0  0
 16 29  1  0  0  0  0
 17 29  1  0  0  0  0
 17 32  2  0  0  0  0
 17 33  1  0  0  0  0
 18 20  2  0  0  0  0
 18 38  1  0  0  0  0
 19 21  2  0  0  0  0
 19 39  1  0  0  0  0
 20 49  1  0  0  0  0
 21 41  1  0  0  0  0
 22 23  1  0  0  0  0
 22 50  1  0  0  0  0
 23 30  2  0  0  0  0
 23 40  1  0  0  0  0
 24 82  1  0  0  0  0
 25 83  1  0  0  0  0
 26 28  2  0  0  0  0
 26 82  1  0  0  0  0
 27 84  1  0  0  0  0
 28 85  1  0  0  0  0
 29 65  2  0  0  0  0
 30 53  1  0  0  0  0
 30 66  1  0  0  0  0
 31 66  2  0  0  0  0
 31 72  1  0  0  0  0
 32 67  1  0  0  0  0
 32 70  1  0  0  0  0
 33 71  1  0  0  0  0
 33 77  2  0  0  0  0
 34 51  1  0  0  0  0
 34 73  1  0  0  0  0
 34 78  2  0  0  0  0
 35 62  1  0  0  0  0
 35 68  1  0  0  0  0
 35 79  2  0  0  0  0
 36 63  1  0  0  0  0
 36 74  1  0  0  0  0
 36 80  2  0  0  0  0
 37 69  1  0  0  0  0
 37 72  1  0  0  0  0
 37 81  2  0  0  0  0
 38 42  1  0  0  0  0
 39 51  1  0  0  0  0
 40 48  1  0  0  0  0
 41 68  1  0  0  0  0
 42 44  1  0  0  0  0
 43 45  1  0  0  0  0
 43 46  1  0  0  0  0
 44 49  1  0  0  0  0
 45 52  1  0  0  0  0
 46 69  1  0  0  0  0
 47 52  1  0  0  0  0
 47 69  1  0  0  0  0
 48 75  1  0  0  0  0
 49 73  1  0  0  0  0
 50 54  1  0  0  0  0
 50 75  1  0  0  0  0
 51 68  1  0  0  0  0
 52 67  1  0  0  0  0
 55 63  1  0  0  0  0
 56 64  1  0  0  0  0
 57 64  1  0  0  0  0
 58 64  1  0  0  0  0
 59 76  1  0  0  0  0
 60 61  1  0  0  0  0
 60 75  1  0  0  0  0
 61 83  1  0  0  0  0
 62 64  1  0  0  0  0
 62 74  1  0  0  0  0
 63 76  1  0  0  0  0
 65 67  1  0  0  0  0
M  CHG  2  75   1  76   1
M  ISO  4  37 100  61 101  72 100  83 101
M  END
> <Batch ID>
0162

> <Smiles>
CNC(C)C(=O)NC(C(=O)N1Cc2cc([101O:1][101CH2:1]CN3CCc4c(cc([100NH:0][100C:0](=O)N5CCCC(n6nc(-c7ccc(Oc8ccc(F)cc8F)cc7)c(C(N)=O)c6N)C5)nc4C)C3C)ccc2CC1C(=O)NC1CCCc2ccccc21)C(C)(C)C

> <Shape>
0.275

> <Color>
0.194

> <Negative vol penalty>
0.000

$$$$

  -OEChem-04052322143D

 88 97  0     1  0  0  0  0  0999 V2000
  -17.0667  -29.7645   24.8086 C   0  0  0  0  0  0  0  0  0  0  0  0
  -18.3471  -29.5252   25.2972 C   0  0  0  0  0  0  0  0  0  0  0  0
  -26.0318  -13.5397   21.5471 C   0  0  0  0  0  0  0  0  0  0  0  0
  -25.0224  -13.1493   19.3870 C   0  0  0  0  0  0  0  0  0  0  0  0
  -16.7699  -29.4956   23.4731 C   0  0  0  0  0  0  0  0  0  0  0  0
  -19.3312  -29.0157   24.4508 C   0  0  0  0  0  0  0  0  0  0  0  0
  -26.3961  -29.2947   23.2993 C   0  0  0  0  0  0  0  0  0  0  0  0
  -25.0725  -12.7213   22.1433 C   0  0  0  0  0  0  0  0  0  0  0  0
  -24.0631  -12.3308   19.9833 C   0  0  0  0  0  0  0  0  0  0  0  0
  -27.4959  -28.4524   23.1427 C   0  0  0  0  0  0  0  0  0  0  0  0
  -21.8426  -12.9663   23.1088 C   0  0  0  0  0  0  0  0  0  0  0  0
  -21.2430  -13.4213   24.2831 C   0  0  0  0  0  0  0  0  0  0  0  0
  -26.8900  -28.1003   20.8345 C   0  0  0  0  0  0  0  0  0  0  0  0
  -31.6257  -28.8602   20.4736 C   0  0  0  0  0  0  0  0  0  0  0  0
  -31.6370  -27.3809   18.1084 C   0  0  0  0  0  0  0  0  0  0  0  0
  -22.0716  -11.4800   25.4585 C   0  0  0  0  0  0  0  0  0  0  0  0
  -26.0067  -13.7538   20.1690 C   0  0  0  0  0  0  0  0  0  0  0  0
  -28.2479  -14.2085   19.0385 C   0  0  0  0  0  0  0  0  0  0  0  0
  -17.7534  -28.9916   22.6075 C   0  0  0  0  0  0  0  0  0  0  0  0
  -25.5273  -29.5380   22.2258 C   0  0  0  0  0  0  0  0  0  0  0  0
  -19.0469  -28.7384   23.1028 C   0  0  0  0  0  0  0  0  0  0  0  0
  -25.7813  -28.9481   20.9793 C   0  0  0  0  0  0  0  0  0  0  0  0
  -31.8196  -29.5021   19.2505 C   0  0  0  0  0  0  0  0  0  0  0  0
  -31.4375  -27.4786   20.5141 C   0  0  0  0  0  0  0  0  0  0  0  0
  -31.8252  -28.7625   18.0679 C   0  0  0  0  0  0  0  0  0  0  0  0
  -24.0881  -12.1168   21.3614 C   0  0  0  0  0  0  0  0  0  0  0  0
  -27.7414  -27.8527   21.9110 C   0  0  0  0  0  0  0  0  0  0  0  0
  -22.5567  -11.7680   23.1093 C   0  0  0  0  0  0  0  0  0  0  0  0
  -31.4431  -26.7390   19.3315 C   0  0  0  0  0  0  0  0  0  0  0  0
  -21.3575  -12.6782   25.4580 C   0  0  0  0  0  0  0  0  0  0  0  0
  -22.6712  -11.0249   24.2842 C   0  0  0  0  0  0  0  0  0  0  0  0
  -26.9971  -14.5996   19.5526 C   0  0  0  0  0  0  0  0  0  0  0  0
  -28.8045  -15.3723   18.5672 C   0  0  0  0  0  0  0  0  0  0  0  0
  -28.8526  -12.9093   18.9913 C   0  0  0  0  0  0  0  0  0  0  0  0
  -22.4428  -29.0065   21.6715 C   0  0  0  0  0  0  0  0  0  0  0  0
  -23.0381  -30.6950   18.9665 C   0  0  0  0  0  0  0  0  0  0  0  0
  -25.3149  -31.7608   16.6585 C   0  0  0  0  0  0  0  0  0  0  0  0
  -30.0620  -20.5753   18.9680 C   0  0  0  0  0  0  0  0  0  0  0  0
  -17.3725  -28.6718   21.1837 C   0  0  0  0  0  0  0  0  0  0  0  0
  -24.3604  -30.4703   22.4037 C   0  0  0  0  0  0  0  0  0  0  0  0
  -24.8904  -29.1930   19.7898 C   0  0  0  0  0  0  0  0  0  0  0  0
  -18.5729  -28.4858   20.2592 C   0  0  0  0  0  0  0  0  0  0  0  0
  -26.7886  -19.9505   17.8650 C   0  0  0  0  0  0  0  0  0  0  0  0
  -19.6163  -27.5858   20.9135 C   0  0  0  0  0  0  0  0  0  0  0  0
  -26.6467  -18.4586   18.1658 C   0  0  0  0  0  0  0  0  0  0  0  0
  -30.6150  -23.9417   17.5156 C   0  0  0  0  0  0  0  0  0  0  0  0
  -29.1795  -24.1640   19.5892 C   0  0  0  0  0  0  0  0  0  0  0  0
  -27.5310  -20.6913   18.9785 C   0  0  0  0  0  0  0  0  0  0  0  0
  -31.1231  -22.6000   18.0413 C   0  0  0  0  0  0  0  0  0  0  0  0
  -29.7230  -22.8201   20.0688 C   0  0  0  0  0  0  0  0  0  0  0  0
  -28.7026  -18.6103   19.6212 C   0  0  0  0  0  0  0  0  0  0  0  0
  -20.1480  -28.2095   22.2096 C   0  0  1  0  0  0  0  0  0  0  0  0
  -23.2506  -30.2401   21.3826 C   0  0  1  0  0  0  0  0  0  0  0  0
  -28.0123  -17.8284   18.4927 C   0  0  1  0  0  0  0  0  0  0  0  0
  -30.1411  -24.8717   18.6330 C   0  0  0  0  0  0  0  0  0  0  0  0
  -32.0207  -30.9819   19.2315 C   0  0  0  0  0  0  0  0  0  0  0  0
  -32.0308  -29.4273   16.7465 C   0  0  0  0  0  0  0  0  0  0  0  0
  -32.4524  -26.9643   22.7585 C   0  0  0  0  0  0  0  0  0  0  0  0
  -25.4964  -33.0950   14.5409 C   0  0  0  0  0  0  0  0  0  0  0  0
  -21.8462  -28.3644   17.3989 C   0  0  0  0  0  0  0  0  0  0  0  0
  -22.9006  -29.3060   15.3325 C   0  0  0  0  0  0  0  0  0  0  0  0
  -21.1834  -30.6281   16.5678 C   0  0  0  0  0  0  0  0  0  0  0  0
  -27.1396  -33.7235   17.9144 C   0  0  0  0  0  0  0  0  0  0  0  0
  -29.9599  -27.2969   22.5632 C   0  0  0  0  0  0  0  0  0  1  0  0
  -31.2305  -26.8081   21.8321 C   0  0  1  0  0  0  0  0  0  0  0  0
  -23.4887  -30.3493   17.5678 C   0  0  1  0  0  0  0  0  0  0  0  0
  -25.5758  -33.1309   16.0591 C   0  0  2  0  0  0  0  0  0  0  0  0
  -22.3706  -29.6556   16.7395 C   0  0  0  0  0  0  0  0  0  0  0  0
  -26.7720  -15.9095   19.4204 N   0  0  0  0  0  0  0  0  0  0  0  0
  -27.8890  -16.3517   18.8181 N   0  0  0  0  0  0  0  0  0  0  0  0
  -23.7588  -30.1072   20.0157 N   0  0  0  0  0  0  0  0  0  0  0  0
  -28.8076  -20.0309   19.2817 N   0  0  0  0  0  0  0  0  0  0  0  0
  -30.1588  -21.9770   18.9474 N   0  0  0  0  0  0  0  0  0  0  0  0
  -29.9829  -15.6433   17.9668 N   0  0  0  0  0  0  0  0  0  0  0  0
  -28.1431  -11.8225   19.5201 N   0  0  0  0  0  0  0  0  0  0  0  0
  -21.1048  -29.2539   21.9125 N   0  0  0  0  0  0  0  0  0  0  0  0
  -23.9853  -31.5891   16.9808 N   0  0  0  0  0  0  0  0  0  0  0  0
  -26.9300  -33.6169   16.4476 N   0  3  0  0  0  0  0  0  0  0  0  0
  -29.9954  -12.7206   18.5096 O   0  0  0  0  0  0  0  0  0  0  0  0
  -22.9924  -27.9113   21.6741 O   0  0  0  0  0  0  0  0  0  0  0  0
  -22.0863  -31.4641   19.1225 O   0  0  0  0  0  0  0  0  0  0  0  0
  -26.2013  -30.9250   16.8209 O   0  0  0  0  0  0  0  0  0  0  0  0
  -31.0368  -19.8554   18.7177 O   0  0  0  0  0  0  0  0  0  0  0  0
  -23.1520  -11.3180   21.9428 O   0  0  0  0  0  0  0  0  0  0  0  0
  -31.2612  -25.3813   19.3535 O   0  0  0  0  0  0  0  0  0  0  0  0
  -28.8210  -27.0241   21.7546 O   0  0  0  0  0  0  0  0  0  1  0  0
  -20.7830  -13.1161   26.5859 F   0  0  0  0  0  0  0  0  0  0  0  0
  -23.3570   -9.8736   24.2911 F   0  0  0  0  0  0  0  0  0  0  0  0
  1  2  1  0  0  0  0
  1  5  2  0  0  0  0
  2  6  2  0  0  0  0
  3  8  2  0  0  0  0
  3 17  1  0  0  0  0
  4  9  1  0  0  0  0
  4 17  2  0  0  0  0
  5 19  1  0  0  0  0
  6 21  1  0  0  0  0
  7 10  2  0  0  0  0
  7 20  1  0  0  0  0
  8 26  1  0  0  0  0
  9 26  2  0  0  0  0
 10 27  1  0  0  0  0
 11 12  2  0  0  0  0
 11 28  1  0  0  0  0
 12 30  1  0  0  0  0
 13 22  1  0  0  0  0
 13 27  2  0  0  0  0
 14 23  2  0  0  0  0
 14 24  1  0  0  0  0
 15 25  2  0  0  0  0
 15 29  1  0  0  0  0
 16 30  2  0  0  0  0
 16 31  1  0  0  0  0
 17 32  1  0  0  0  0
 18 32  1  0  0  0  0
 18 33  2  0  0  0  0
 18 34  1  0  0  0  0
 19 21  2  0  0  0  0
 19 39  1  0  0  0  0
 20 22  2  0  0  0  0
 20 40  1  0  0  0  0
 21 52  1  0  0  0  0
 22 41  1  0  0  0  0
 23 25  1  0  0  0  0
 23 56  1  0  0  0  0
 24 29  2  0  0  0  0
 24 65  1  0  0  0  0
 25 57  1  0  0  0  0
 26 84  1  0  0  0  0
 27 86  1  0  0  0  0
 28 31  2  0  0  0  0
 28 84  1  0  0  0  0
 29 85  1  0  0  0  0
 30 87  1  0  0  0  0
 31 88  1  0  0  0  0
 32 69  2  0  0  0  0
 33 70  1  0  0  0  0
 33 74  1  0  0  0  0
 34 75  1  0  0  0  0
 34 79  2  0  0  0  0
 35 53  1  0  0  0  0
 35 76  1  0  0  0  0
 35 80  2  0  0  0  0
 36 66  1  0  0  0  0
 36 71  1  0  0  0  0
 36 81  2  0  0  0  0
 37 67  1  0  0  0  0
 37 77  1  0  0  0  0
 37 82  2  0  0  0  0
 38 72  1  0  0  0  0
 38 73  1  0  0  0  0
 38 83  2  0  0  0  0
 39 42  1  0  0  0  0
 40 53  1  0  0  0  0
 41 71  1  0  0  0  0
 42 44  1  0  0  0  0
 43 45  1  0  0  0  0
 43 48  1  0  0  0  0
 44 52  1  0  0  0  0
 45 54  1  0  0  0  0
 46 49  1  0  0  0  0
 46 55  1  0  0  0  0
 47 50  1  0  0  0  0
 47 55  1  0  0  0  0
 48 72  1  0  0  0  0
 49 73  1  0  0  0  0
 50 73  1  0  0  0  0
 51 54  1  0  0  0  0
 51 72  1  0  0  0  0
 52 76  1  0  0  0  0
 53 71  1  0  0  0  0
 54 70  1  0  0  0  0
 55 85  1  0  0  0  0
 58 65  1  0  0  0  0
 59 67  1  0  0  0  0
 60 68  1  0  0  0  0
 61 68  1  0  0  0  0
 62 68  1  0  0  0  0
 63 78  1  0  0  0  0
 64 65  1  0  0  0  0
 64 86  1  0  0  0  0
 66 68  1  0  0  0  0
 66 77  1  0  0  0  0
 67 78  1  0  0  0  0
 69 70  1  0  0  0  0
M  CHG  1  78   1
M  ISO  4  38 100  64 101  73 100  86 101
M  END
> <Batch ID>
0162

> <Smiles>
CNC(C)C(=O)NC(C(=O)N1Cc2cc([101O:1][101CH2:1]C(C)c3cc(C)c(C)cc3OC3CC[100N:0]([100C:0](=O)N4CCCC(n5nc(-c6ccc(Oc7ccc(F)cc7F)cc6)c(C(N)=O)c5N)C4)CC3)ccc2CC1C(=O)NC1CCCc2ccccc21)C(C)(C)C

> <Shape>
0.270

> <Color>
0.082

> <Negative vol penalty>
0.000

$$$$

  -OEChem-04052322143D

 87 96  0     1  0  0  0  0  0999 V2000
  -28.2692  -37.6538   22.1092 C   0  0  0  0  0  0  0  0  0  0  0  0
  -28.5502  -36.5950   21.2517 C   0  0  0  0  0  0  0  0  0  0  0  0
  -23.0976  -10.4432   20.6149 C   0  0  0  0  0  0  0  0  0  0  0  0
  -24.6946   -8.7638   21.2975 C   0  0  0  0  0  0  0  0  0  0  0  0
  -27.7497  -37.4023   23.3784 C   0  0  0  0  0  0  0  0  0  0  0  0
  -28.3129  -35.2840   21.6633 C   0  0  0  0  0  0  0  0  0  0  0  0
  -26.3427  -28.8949   19.0914 C   0  0  0  0  0  0  0  0  0  0  0  0
  -22.2006   -9.9820   21.5783 C   0  0  0  0  0  0  0  0  0  0  0  0
  -23.7977   -8.3026   22.2611 C   0  0  0  0  0  0  0  0  0  0  0  0
  -26.7558  -27.5634   19.0828 C   0  0  0  0  0  0  0  0  0  0  0  0
  -21.0333   -6.3587   22.3638 C   0  0  0  0  0  0  0  0  0  0  0  0
  -20.8549   -4.9799   22.4758 C   0  0  0  0  0  0  0  0  0  0  0  0
  -25.7820  -27.2534   21.2680 C   0  0  0  0  0  0  0  0  0  0  0  0
  -29.2519  -21.7992   20.2039 C   0  0  0  0  0  0  0  0  0  0  0  0
  -21.6095   -5.0685   24.7692 C   0  0  0  0  0  0  0  0  0  0  0  0
  -24.3446   -9.8341   20.4744 C   0  0  0  0  0  0  0  0  0  0  0  0
  -25.0714  -10.3599   18.0863 C   0  0  0  0  0  0  0  0  0  0  0  0
  -27.4969  -36.0881   23.8022 C   0  0  0  0  0  0  0  0  0  0  0  0
  -25.6545  -29.4195   20.1949 C   0  0  0  0  0  0  0  0  0  0  0  0
  -27.7909  -35.0147   22.9399 C   0  0  0  0  0  0  0  0  0  0  0  0
  -25.3590  -28.5912   21.2870 C   0  0  0  0  0  0  0  0  0  0  0  0
  -28.9424  -23.1498   20.0437 C   0  0  0  0  0  0  0  0  0  0  0  0
  -27.1932  -22.5641   18.4835 C   0  0  0  0  0  0  0  0  0  0  0  0
  -27.9131  -23.5323   19.1835 C   0  0  0  0  0  0  0  0  0  0  0  0
  -27.5027  -21.2134   18.6437 C   0  0  0  0  0  0  0  0  0  0  0  0
  -28.5320  -20.8310   19.5038 C   0  0  0  0  0  0  0  0  0  0  0  0
  -22.5507   -8.9117   22.4015 C   0  0  0  0  0  0  0  0  0  0  0  0
  -26.4780  -26.7432   20.1724 C   0  0  0  0  0  0  0  0  0  0  0  0
  -21.4999   -7.0925   23.4545 C   0  0  0  0  0  0  0  0  0  0  0  0
  -21.1430   -4.3348   23.6785 C   0  0  0  0  0  0  0  0  0  0  0  0
  -21.7880   -6.4474   24.6572 C   0  0  0  0  0  0  0  0  0  0  0  0
  -25.2713  -10.3098   19.4789 C   0  0  0  0  0  0  0  0  0  0  0  0
  -26.2388  -10.8872   17.5906 C   0  0  0  0  0  0  0  0  0  0  0  0
  -23.9323   -9.9652   17.3102 C   0  0  0  0  0  0  0  0  0  0  0  0
  -26.2247  -31.7292   22.3030 C   0  0  0  0  0  0  0  0  0  0  0  0
  -23.2088  -31.0455   23.2824 C   0  0  0  0  0  0  0  0  0  0  0  0
  -20.6652  -28.7773   23.4621 C   0  0  0  0  0  0  0  0  0  0  0  0
  -30.4599  -14.4026   19.9729 C   0  0  0  0  0  0  0  0  0  0  0  0
  -26.9792  -35.8633   25.2008 C   0  0  0  0  0  0  0  0  0  0  0  0
  -25.1923  -30.8508   20.1774 C   0  0  0  0  0  0  0  0  0  0  0  0
  -24.6054  -29.1005   22.4875 C   0  0  0  0  0  0  0  0  0  0  0  0
  -26.4053  -34.4659   25.4206 C   0  0  0  0  0  0  0  0  0  0  0  0
  -30.9188  -11.1746   18.5425 C   0  0  0  0  0  0  0  0  0  0  0  0
  -27.3462  -33.4073   24.8541 C   0  0  0  0  0  0  0  0  0  0  0  0
  -29.5054  -10.5914   18.4946 C   0  0  0  0  0  0  0  0  0  0  0  0
  -29.6742  -17.3476   18.7476 C   0  0  0  0  0  0  0  0  0  0  0  0
  -28.5370  -17.4079   20.9771 C   0  0  0  0  0  0  0  0  0  0  0  0
  -31.1358  -12.0263   19.7912 C   0  0  0  0  0  0  0  0  0  0  0  0
  -29.8599  -18.8640   18.8025 C   0  0  0  0  0  0  0  0  0  0  0  0
  -28.7297  -18.9226   21.0310 C   0  0  0  0  0  0  0  0  0  0  0  0
  -28.7242  -12.5096   19.9468 C   0  0  0  0  0  0  0  0  0  0  0  0
  -27.5239  -33.5801   23.3408 C   0  0  1  0  0  0  0  0  0  0  0  0
  -24.9491  -31.4173   21.5728 C   0  0  1  0  0  0  0  0  0  0  0  0
  -28.4396  -11.6887   18.6775 C   0  0  2  0  0  0  0  0  0  0  0  0
  -29.6271  -16.7341   20.1455 C   0  0  0  0  0  0  0  0  0  0  0  0
  -29.7277  -24.1667   20.8057 C   0  0  0  0  0  0  0  0  0  0  0  0
  -26.0893  -22.9749   17.5606 C   0  0  0  0  0  0  0  0  0  0  0  0
  -26.7274  -20.1751   17.8945 C   0  0  0  0  0  0  0  0  0  0  0  0
  -18.3376  -28.4945   24.3565 C   0  0  0  0  0  0  0  0  0  0  0  0
  -24.3348  -30.7023   26.0974 C   0  0  0  0  0  0  0  0  0  0  0  0
  -22.2174  -29.5231   26.7253 C   0  0  0  0  0  0  0  0  0  0  0  0
  -22.1449  -31.9054   25.9892 C   0  0  0  0  0  0  0  0  0  0  0  0
  -19.5545  -28.3324   20.7552 C   0  0  0  0  0  0  0  0  0  0  0  0
  -27.5833  -24.9859   19.0120 C   0  0  0  0  0  0  0  0  0  1  0  0
  -22.5998  -30.0947   24.2844 C   0  0  1  0  0  0  0  0  0  0  0  0
  -19.1828  -28.9001   23.1590 C   0  0  2  0  0  0  0  0  0  0  0  0
  -22.8401  -30.5470   25.7524 C   0  0  0  0  0  0  0  0  0  0  0  0
  -26.4713  -10.7685   19.8444 N   0  0  0  0  0  0  0  0  0  0  0  0
  -27.0360  -11.1118   18.6742 N   0  0  0  0  0  0  0  0  0  0  0  0
  -28.8578  -19.4800   19.6781 N   0  0  0  0  0  0  0  0  0  0  0  0
  -24.1801  -30.5086   22.4256 N   0  0  0  0  0  0  0  0  0  0  0  0
  -30.0927  -13.0485   19.9049 N   0  0  0  0  0  0  0  0  0  0  0  0
  -26.6508  -11.1759   16.3379 N   0  0  0  0  0  0  0  0  0  0  0  0
  -23.8683   -8.6462   16.8407 N   0  0  0  0  0  0  0  0  0  0  0  0
  -26.3717  -33.0626   22.6343 N   0  0  0  0  0  0  0  0  0  0  0  0
  -21.1927  -29.9655   23.9217 N   0  0  0  0  0  0  0  0  0  0  0  0
  -29.4093  -15.3064   20.0730 N   0  0  0  0  0  0  0  0  0  0  0  0
  -18.8156  -28.0282   22.0076 N   0  3  0  0  0  0  0  0  0  0  0  0
  -23.0068  -10.7632   17.0272 O   0  0  0  0  0  0  0  0  0  0  0  0
  -27.0162  -30.8266   22.5490 O   0  0  0  0  0  0  0  0  0  0  0  0
  -22.8312  -32.2196   23.2559 O   0  0  0  0  0  0  0  0  0  0  0  0
  -21.2917  -27.7309   23.3102 O   0  0  0  0  0  0  0  0  0  0  0  0
  -31.6366  -14.7785   19.9410 O   0  0  0  0  0  0  0  0  0  0  0  0
  -21.6758   -8.4615   23.3419 O   0  0  0  0  0  0  0  0  0  0  0  0
  -26.8807  -25.4433   20.1668 O   0  0  0  0  0  0  0  0  0  1  0  0
  -20.9701   -3.0109   23.7863 F   0  0  0  0  0  0  0  0  0  0  0  0
  -22.2354   -7.1472   25.7088 F   0  0  0  0  0  0  0  0  0  0  0  0
  1  2  1  0  0  0  0
  1  5  2  0  0  0  0
  2  6  2  0  0  0  0
  3  8  2  0  0  0  0
  3 16  1  0  0  0  0
  4  9  1  0  0  0  0
  4 16  2  0  0  0  0
  5 18  1  0  0  0  0
  6 20  1  0  0  0  0
  7 10  2  0  0  0  0
  7 19  1  0  0  0  0
  8 27  1  0  0  0  0
  9 27  2  0  0  0  0
 10 28  1  0  0  0  0
 11 12  2  0  0  0  0
 11 29  1  0  0  0  0
 12 30  1  0  0  0  0
 13 21  1  0  0  0  0
 13 28  2  0  0  0  0
 14 22  2  0  0  0  0
 14 26  1  0  0  0  0
 15 30  2  0  0  0  0
 15 31  1  0  0  0  0
 16 32  1  0  0  0  0
 17 32  1  0  0  0  0
 17 33  2  0  0  0  0
 17 34  1  0  0  0  0
 18 20  2  0  0  0  0
 18 39  1  0  0  0  0
 19 21  2  0  0  0  0
 19 40  1  0  0  0  0
 20 52  1  0  0  0  0
 21 41  1  0  0  0  0
 22 24  1  0  0  0  0
 22 56  1  0  0  0  0
 23 24  2  0  0  0  0
 23 25  1  0  0  0  0
 23 57  1  0  0  0  0
 24 64  1  0  0  0  0
 25 26  2  0  0  0  0
 25 58  1  0  0  0  0
 26 70  1  0  0  0  0
 27 84  1  0  0  0  0
 28 85  1  0  0  0  0
 29 31  2  0  0  0  0
 29 84  1  0  0  0  0
 30 86  1  0  0  0  0
 31 87  1  0  0  0  0
 32 68  2  0  0  0  0
 33 69  1  0  0  0  0
 33 73  1  0  0  0  0
 34 74  1  0  0  0  0
 34 79  2  0  0  0  0
 35 53  1  0  0  0  0
 35 75  1  0  0  0  0
 35 80  2  0  0  0  0
 36 65  1  0  0  0  0
 36 71  1  0  0  0  0
 36 81  2  0  0  0  0
 37 66  1  0  0  0  0
 37 76  1  0  0  0  0
 37 82  2  0  0  0  0
 38 72  1  0  0  0  0
 38 77  1  0  0  0  0
 38 83  2  0  0  0  0
 39 42  1  0  0  0  0
 40 53  1  0  0  0  0
 41 71  1  0  0  0  0
 42 44  1  0  0  0  0
 43 45  1  0  0  0  0
 43 48  1  0  0  0  0
 44 52  1  0  0  0  0
 45 54  1  0  0  0  0
 46 49  1  0  0  0  0
 46 55  1  0  0  0  0
 47 50  1  0  0  0  0
 47 55  1  0  0  0  0
 48 72  1  0  0  0  0
 49 70  1  0  0  0  0
 50 70  1  0  0  0  0
 51 54  1  0  0  0  0
 51 72  1  0  0  0  0
 52 75  1  0  0  0  0
 53 71  1  0  0  0  0
 54 69  1  0  0  0  0
 55 77  1  0  0  0  0
 59 66  1  0  0  0  0
 60 67  1  0  0  0  0
 61 67  1  0  0  0  0
 62 67  1  0  0  0  0
 63 78  1  0  0  0  0
 64 85  1  0  0  0  0
 65 67  1  0  0  0  0
 65 76  1  0  0  0  0
 66 78  1  0  0  0  0
 68 69  1  0  0  0  0
M  CHG  1  78   1
M  ISO  4  38 100  64 101  77 100  85 101
M  END
> <Batch ID>
0162

> <Smiles>
CNC(C)C(=O)NC(C(=O)N1Cc2cc([101O:1][101CH2:1]c3c(C)cc(N4CCC([100NH:0][100C:0](=O)N5CCCC(n6nc(-c7ccc(Oc8ccc(F)cc8F)cc7)c(C(N)=O)c6N)C5)CC4)c(C)c3C)ccc2CC1C(=O)NC1CCCc2ccccc21)C(C)(C)C

> <Shape>
0.341

> <Color>
0.105

> <Negative vol penalty>
0.000

$$$$

  -OEChem-04052322142D

  0  0  0     0  0  0  0  0  0999 V2000
M  END
$$$$

  -OEChem-04052322143D

 85 94  0     1  0  0  0  0  0999 V2000
  -18.1325  -27.9210   22.4061 C   0  0  0  0  0  0  0  0  0  0  0  0
  -18.9824  -26.8218   22.4757 C   0  0  0  0  0  0  0  0  0  0  0  0
  -23.0156   -9.9369   19.9203 C   0  0  0  0  0  0  0  0  0  0  0  0
  -24.0547   -9.5631   22.0691 C   0  0  0  0  0  0  0  0  0  0  0  0
  -18.6537  -29.1886   22.1505 C   0  0  0  0  0  0  0  0  0  0  0  0
  -20.3540  -26.9895   22.2887 C   0  0  0  0  0  0  0  0  0  0  0  0
  -24.8532  -23.8949   25.0613 C   0  0  0  0  0  0  0  0  0  0  0  0
  -22.3070   -8.7431   20.0553 C   0  0  0  0  0  0  0  0  0  0  0  0
  -23.3460   -8.3693   22.2042 C   0  0  0  0  0  0  0  0  0  0  0  0
  -25.6298  -22.8087   24.6605 C   0  0  0  0  0  0  0  0  0  0  0  0
  -20.2167   -7.4143   23.0501 C   0  0  0  0  0  0  0  0  0  0  0  0
  -19.6111   -7.1575   24.2801 C   0  0  0  0  0  0  0  0  0  0  0  0
  -28.8071  -18.9074   24.3785 C   0  0  0  0  0  0  0  0  0  0  0  0
  -27.3632  -24.3225   23.9373 C   0  0  0  0  0  0  0  0  0  0  0  0
  -29.2268  -18.4602   21.6655 C   0  0  0  0  0  0  0  0  0  0  0  0
  -20.9316   -5.1475   24.5106 C   0  0  0  0  0  0  0  0  0  0  0  0
  -23.8896  -10.3469   20.9272 C   0  0  0  0  0  0  0  0  0  0  0  0
  -24.2174  -12.8612   21.2070 C   0  0  0  0  0  0  0  0  0  0  0  0
  -20.0335  -29.3735   21.9698 C   0  0  0  0  0  0  0  0  0  0  0  0
  -25.3219  -25.2058   24.8928 C   0  0  0  0  0  0  0  0  0  0  0  0
  -20.8940  -28.2607   22.0291 C   0  0  0  0  0  0  0  0  0  0  0  0
  -29.7411  -17.9384   23.9777 C   0  0  0  0  0  0  0  0  0  0  0  0
  -26.5917  -25.4235   24.3392 C   0  0  0  0  0  0  0  0  0  0  0  0
  -29.9610  -17.7153   22.6053 C   0  0  0  0  0  0  0  0  0  0  0  0
  -28.0861  -19.6366   23.4340 C   0  0  0  0  0  0  0  0  0  0  0  0
  -22.4721   -7.9593   21.1972 C   0  0  0  0  0  0  0  0  0  0  0  0
  -26.8838  -23.0224   24.0958 C   0  0  0  0  0  0  0  0  0  0  0  0
  -21.1797   -6.5377   22.5503 C   0  0  0  0  0  0  0  0  0  0  0  0
  -28.2960  -19.4132   22.0775 C   0  0  0  0  0  0  0  0  0  0  0  0
  -19.9686   -6.0241   25.0104 C   0  0  0  0  0  0  0  0  0  0  0  0
  -21.5372   -5.4043   23.2806 C   0  0  0  0  0  0  0  0  0  0  0  0
  -24.6223  -11.5797   20.7880 C   0  0  0  0  0  0  0  0  0  0  0  0
  -25.2570  -13.6841   20.8484 C   0  0  0  0  0  0  0  0  0  0  0  0
  -23.0095  -13.2711   21.8618 C   0  0  0  0  0  0  0  0  0  0  0  0
  -24.3435  -27.7440   23.2485 C   0  0  0  0  0  0  0  0  0  0  0  0
  -26.7687  -29.2133   24.8241 C   0  0  0  0  0  0  0  0  0  0  0  0
  -29.7537  -28.9342   26.4546 C   0  0  0  0  0  0  0  0  0  0  0  0
  -30.7230  -14.7660   20.5370 C   0  0  0  0  0  0  0  0  0  0  0  0
  -20.5449  -30.7555   21.6490 C   0  0  0  0  0  0  0  0  0  0  0  0
  -24.4833  -26.3657   25.3549 C   0  0  0  0  0  0  0  0  0  0  0  0
  -30.5322  -17.2165   25.0386 C   0  0  0  0  0  0  0  0  0  0  0  0
  -27.1493  -26.8105   24.1553 C   0  0  0  0  0  0  0  0  0  0  0  0
  -22.0527  -30.9053   21.8344 C   0  0  0  0  0  0  0  0  0  0  0  0
  -31.2471  -15.9683   24.5237 C   0  0  0  0  0  0  0  0  0  0  0  0
  -29.2942  -12.8070   17.9298 C   0  0  0  0  0  0  0  0  0  0  0  0
  -22.7883  -29.7314   21.1959 C   0  0  0  0  0  0  0  0  0  0  0  0
  -27.9213  -12.4139   18.4781 C   0  0  0  0  0  0  0  0  0  0  0  0
  -30.3538  -12.8356   19.0291 C   0  0  0  0  0  0  0  0  0  0  0  0
  -28.6402  -13.2777   20.7443 C   0  0  0  0  0  0  0  0  0  0  0  0
  -22.3904  -28.4060   21.8564 C   0  0  1  0  0  0  0  0  0  0  0  0
  -30.9451  -16.6716   22.1113 C   0  0  1  0  0  0  0  0  0  0  0  0
  -24.8443  -27.6769   24.6636 C   0  0  1  0  0  0  0  0  0  0  0  0
  -27.5270  -13.2894   19.6828 C   0  0  2  0  0  0  0  0  0  0  0  0
  -31.9464  -16.2346   23.1937 C   0  0  1  0  0  0  0  0  0  0  0  0
  -31.5107  -30.3142   27.5973 C   0  0  0  0  0  0  0  0  0  0  0  0
  -27.8095  -30.1332   22.1074 C   0  0  0  0  0  0  0  0  0  0  0  0
  -29.9988  -30.6592   23.2022 C   0  0  0  0  0  0  0  0  0  0  0  0
  -27.9312  -31.8615   23.9109 C   0  0  0  0  0  0  0  0  0  0  0  0
  -29.3370  -27.5407   29.0321 C   0  0  0  0  0  0  0  0  0  0  0  0
  -27.8820  -19.8218   19.7715 C   0  0  0  0  0  0  0  0  0  0  0  0
  -27.0940  -20.6617   23.8992 C   0  0  0  0  0  0  0  0  0  1  0  0
  -28.2375  -29.4362   24.5563 C   0  0  1  0  0  0  0  0  0  0  0  0
  -30.2365  -29.5035   27.7764 C   0  0  2  0  0  0  0  0  0  0  0  0
  -28.4832  -30.4964   23.4457 C   0  0  0  0  0  0  0  0  0  0  0  0
  -25.8252  -11.5831   20.2075 N   0  0  0  0  0  0  0  0  0  0  0  0
  -26.1851  -12.8769   20.2591 N   0  0  0  0  0  0  0  0  0  0  0  0
  -26.2888  -27.9122   24.6170 N   0  0  0  0  0  0  0  0  0  0  0  0
  -29.9191  -13.6844   20.1412 N   0  0  0  0  0  0  0  0  0  0  0  0
  -25.4585  -15.0122   20.9827 N   0  0  0  0  0  0  0  0  0  0  0  0
  -22.0461  -12.2971   22.1574 N   0  0  0  0  0  0  0  0  0  0  0  0
  -23.0644  -28.2526   23.1279 N   0  0  0  0  0  0  0  0  0  0  0  0
  -28.8413  -29.7673   25.8424 N   0  0  0  0  0  0  0  0  0  0  0  0
  -30.2345  -15.5232   21.5947 N   0  0  0  0  0  0  0  0  0  0  0  0
  -30.5111  -28.4043   28.7445 N   0  3  0  0  0  0  0  0  0  0  0  0
  -22.7840  -14.4683   22.1607 O   0  0  0  0  0  0  0  0  0  0  0  0
  -25.0649  -27.3640   22.3337 O   0  0  0  0  0  0  0  0  0  0  0  0
  -26.0742  -30.1570   25.2098 O   0  0  0  0  0  0  0  0  0  0  0  0
  -30.1493  -27.8597   26.0079 O   0  0  0  0  0  0  0  0  0  0  0  0
  -31.7940  -15.0401   19.9849 O   0  0  0  0  0  0  0  0  0  0  0  0
  -32.9339  -17.2499   23.3790 O   0  0  0  0  0  0  0  0  0  0  0  0
  -21.7806   -6.7944   21.3294 O   0  0  0  0  0  0  0  0  0  0  0  0
  -27.6028  -20.1163   21.1388 O   0  0  0  0  0  0  0  0  0  0  0  0
  -27.6436  -21.9639   23.7031 O   0  0  0  0  0  0  0  0  0  1  0  0
  -19.3880   -5.7784   26.1922 F   0  0  0  0  0  0  0  0  0  0  0  0
  -22.4626   -4.5591   22.8061 F   0  0  0  0  0  0  0  0  0  0  0  0
  1  2  1  0  0  0  0
  1  5  2  0  0  0  0
  2  6  2  0  0  0  0
  3  8  2  0  0  0  0
  3 17  1  0  0  0  0
  4  9  1  0  0  0  0
  4 17  2  0  0  0  0
  5 19  1  0  0  0  0
  6 21  1  0  0  0  0
  7 10  2  0  0  0  0
  7 20  1  0  0  0  0
  8 26  1  0  0  0  0
  9 26  2  0  0  0  0
 10 27  1  0  0  0  0
 11 12  2  0  0  0  0
 11 28  1  0  0  0  0
 12 30  1  0  0  0  0
 13 22  2  0  0  0  0
 13 25  1  0  0  0  0
 14 23  1  0  0  0  0
 14 27  2  0  0  0  0
 15 24  2  0  0  0  0
 15 29  1  0  0  0  0
 16 30  2  0  0  0  0
 16 31  1  0  0  0  0
 17 32  1  0  0  0  0
 18 32  1  0  0  0  0
 18 33  2  0  0  0  0
 18 34  1  0  0  0  0
 19 21  2  0  0  0  0
 19 39  1  0  0  0  0
 20 23  2  0  0  0  0
 20 40  1  0  0  0  0
 21 50  1  0  0  0  0
 22 24  1  0  0  0  0
 22 41  1  0  0  0  0
 23 42  1  0  0  0  0
 24 51  1  0  0  0  0
 25 29  2  0  0  0  0
 25 61  1  0  0  0  0
 26 81  1  0  0  0  0
 27 83  1  0  0  0  0
 28 31  2  0  0  0  0
 28 81  1  0  0  0  0
 29 82  1  0  0  0  0
 30 84  1  0  0  0  0
 31 85  1  0  0  0  0
 32 65  2  0  0  0  0
 33 66  1  0  0  0  0
 33 69  1  0  0  0  0
 34 70  1  0  0  0  0
 34 75  2  0  0  0  0
 35 52  1  0  0  0  0
 35 71  1  0  0  0  0
 35 76  2  0  0  0  0
 36 62  1  0  0  0  0
 36 67  1  0  0  0  0
 36 77  2  0  0  0  0
 37 63  1  0  0  0  0
 37 72  1  0  0  0  0
 37 78  2  0  0  0  0
 38 68  1  0  0  0  0
 38 73  1  0  0  0  0
 38 79  2  0  0  0  0
 39 43  1  0  0  0  0
 40 52  1  0  0  0  0
 41 44  1  0  0  0  0
 42 67  1  0  0  0  0
 43 46  1  0  0  0  0
 44 54  1  0  0  0  0
 45 47  1  0  0  0  0
 45 48  1  0  0  0  0
 46 50  1  0  0  0  0
 47 53  1  0  0  0  0
 48 68  1  0  0  0  0
 49 53  1  0  0  0  0
 49 68  1  0  0  0  0
 50 71  1  0  0  0  0
 51 54  1  0  0  0  0
 51 73  1  0  0  0  0
 52 67  1  0  0  0  0
 53 66  1  0  0  0  0
 54 80  1  0  0  0  0
 55 63  1  0  0  0  0
 56 64  1  0  0  0  0
 57 64  1  0  0  0  0
 58 64  1  0  0  0  0
 59 74  1  0  0  0  0
 60 82  1  0  0  0  0
 61 83  1  0  0  0  0
 62 64  1  0  0  0  0
 62 72  1  0  0  0  0
 63 74  1  0  0  0  0
 65 66  1  0  0  0  0
M  CHG  1  74   1
M  ISO  4  38 100  61 101  73 100  83 101
M  END
> <Batch ID>
0162

> <Smiles>
CNC(C)C(=O)NC(C(=O)N1Cc2cc([101O:1][101CH2:1]c3cc4c(cc3OC)C([100NH:0][100C:0](=O)N3CCCC(n5nc(-c6ccc(Oc7ccc(F)cc7F)cc6)c(C(N)=O)c5N)C3)C(O)CC4)ccc2CC1C(=O)NC1CCCc2ccccc21)C(C)(C)C

> <Shape>
0.298

> <Color>
0.173

> <Negative vol penalty>
0.000

$$$$

  -OEChem-04052322143D

 89 99  0     1  0  0  0  0  0999 V2000
  -29.7387  -31.7506   25.9988 C   0  0  0  0  0  0  0  0  0  0  0  0
  -29.4900  -30.7627   25.0515 C   0  0  0  0  0  0  0  0  0  0  0  0
  -24.1246   -9.1656   22.2864 C   0  0  0  0  0  0  0  0  0  0  0  0
  -25.1153   -7.4357   20.9214 C   0  0  0  0  0  0  0  0  0  0  0  0
  -28.6892  -32.2680   26.7569 C   0  0  0  0  0  0  0  0  0  0  0  0
  -28.1915  -30.2907   24.8624 C   0  0  0  0  0  0  0  0  0  0  0  0
  -26.9699  -29.8730   19.9657 C   0  0  0  0  0  0  0  0  0  0  0  0
  -22.8778   -8.5540   22.1566 C   0  0  0  0  0  0  0  0  0  0  0  0
  -23.8684   -6.8240   20.7916 C   0  0  0  0  0  0  0  0  0  0  0  0
  -27.4648  -28.7656   19.2782 C   0  0  0  0  0  0  0  0  0  0  0  0
  -21.2408   -5.9230   23.5099 C   0  0  0  0  0  0  0  0  0  0  0  0
  -20.4623   -5.7878   24.6593 C   0  0  0  0  0  0  0  0  0  0  0  0
  -25.3309  -27.6675   19.5232 C   0  0  0  0  0  0  0  0  0  0  0  0
  -30.7992  -22.1263   21.7462 C   0  0  0  0  0  0  0  0  0  0  0  0
  -30.8330  -21.1424   19.5398 C   0  0  0  0  0  0  0  0  0  0  0  0
  -18.7208   -7.1131   23.6357 C   0  0  0  0  0  0  0  0  0  0  0  0
  -25.2434   -8.6064   21.6688 C   0  0  0  0  0  0  0  0  0  0  0  0
  -27.4951   -9.0015   22.8007 C   0  0  0  0  0  0  0  0  0  0  0  0
  -27.3758  -31.8090   26.5703 C   0  0  0  0  0  0  0  0  0  0  0  0
  -25.6530  -29.8815   20.4474 C   0  0  0  0  0  0  0  0  0  0  0  0
  -27.1236  -30.8014   25.6197 C   0  0  0  0  0  0  0  0  0  0  0  0
  -24.8209  -28.7772   20.2143 C   0  0  0  0  0  0  0  0  0  0  0  0
  -30.3620  -23.4971   19.8054 C   0  0  0  0  0  0  0  0  0  0  0  0
  -30.4965  -23.3681   21.1878 C   0  0  0  0  0  0  0  0  0  0  0  0
  -30.5302  -22.3842   18.9814 C   0  0  0  0  0  0  0  0  0  0  0  0
  -30.9675  -21.0134   20.9222 C   0  0  0  0  0  0  0  0  0  0  0  0
  -22.7496   -7.3832   21.4092 C   0  0  0  0  0  0  0  0  0  0  0  0
  -26.6462  -27.6615   19.0594 C   0  0  0  0  0  0  0  0  0  0  0  0
  -20.7593   -6.6534   22.4233 C   0  0  0  0  0  0  0  0  0  0  0  0
  -19.2023   -6.3828   24.7222 C   0  0  0  0  0  0  0  0  0  0  0  0
  -19.4993   -7.2484   22.4863 C   0  0  0  0  0  0  0  0  0  0  0  0
  -26.5316   -9.2380   21.8020 C   0  0  0  0  0  0  0  0  0  0  0  0
  -28.5322   -9.8443   22.4838 C   0  0  0  0  0  0  0  0  0  0  0  0
  -27.4562   -8.1004   23.9153 C   0  0  0  0  0  0  0  0  0  0  0  0
  -24.3185  -30.0793   23.3256 C   0  0  0  0  0  0  0  0  0  0  0  0
  -21.5683  -30.2249   21.6117 C   0  0  0  0  0  0  0  0  0  0  0  0
  -19.9245  -29.5173   18.7059 C   0  0  0  0  0  0  0  0  0  0  0  0
  -30.5498  -14.5894   20.9942 C   0  0  0  0  0  0  0  0  0  0  0  0
  -26.2812  -32.3647   27.4466 C   0  0  0  0  0  0  0  0  0  0  0  0
  -25.1259  -31.0945   21.1638 C   0  0  0  0  0  0  0  0  0  0  0  0
  -23.3934  -28.7447   20.6932 C   0  0  0  0  0  0  0  0  0  0  0  0
  -24.8765  -32.0773   26.9226 C   0  0  0  0  0  0  0  0  0  0  0  0
  -29.4038  -12.5978   18.3391 C   0  0  0  0  0  0  0  0  0  0  0  0
  -24.7513  -30.6156   26.5048 C   0  0  0  0  0  0  0  0  0  0  0  0
  -28.6238  -11.5162   19.0860 C   0  0  0  0  0  0  0  0  0  0  0  0
  -30.0956  -18.0088   20.2941 C   0  0  0  0  0  0  0  0  0  0  0  0
  -32.2635  -17.5574   21.5040 C   0  0  0  0  0  0  0  0  0  0  0  0
  -29.0404  -24.9731   17.9634 C   0  0  0  0  0  0  0  0  0  0  0  0
  -29.0104  -25.8385   19.9042 C   0  0  0  0  0  0  0  0  0  0  0  0
  -29.1848  -13.9848   18.9462 C   0  0  0  0  0  0  0  0  0  0  0  0
  -30.2384  -16.6653   19.5727 C   0  0  0  0  0  0  0  0  0  0  0  0
  -32.3774  -16.2408   20.7405 C   0  0  0  0  0  0  0  0  0  0  0  0
  -28.6797  -12.9724   21.1459 C   0  0  0  0  0  0  0  0  0  0  0  0
  -30.0186  -24.9075   19.1713 C   0  0  0  0  0  0  0  0  0  0  0  0
  -25.7249  -30.2814   25.3682 C   0  0  1  0  0  0  0  0  0  0  0  0
  -23.9292  -30.7870   22.0586 C   0  0  1  0  0  0  0  0  0  0  0  0
  -28.9258  -11.5595   20.5946 C   0  0  1  0  0  0  0  0  0  0  0  0
  -31.4578  -18.5785   20.6967 C   0  0  0  0  0  0  0  0  0  0  0  0
  -28.5367  -26.3243   18.5170 C   0  0  0  0  0  0  0  0  0  1  0  0
  -30.3228  -24.5462   22.0887 C   0  0  0  0  0  0  0  0  0  0  0  0
  -30.3896  -22.4989   17.4993 C   0  0  0  0  0  0  0  0  0  0  0  0
  -17.6739  -29.7238   17.6152 C   0  0  0  0  0  0  0  0  0  0  0  0
  -20.5383  -27.9037   23.3032 C   0  0  0  0  0  0  0  0  0  0  0  0
  -18.7471  -27.5426   21.5917 C   0  0  0  0  0  0  0  0  0  0  0  0
  -18.8514  -29.6937   22.8505 C   0  0  0  0  0  0  0  0  0  0  0  0
  -21.0049  -31.2087   16.5308 C   0  0  0  0  0  0  0  0  0  0  0  0
  -20.5870  -29.2101   21.0768 C   0  0  1  0  0  0  0  0  0  0  0  0
  -19.0358  -30.3696   17.8181 C   0  0  2  0  0  0  0  0  0  0  0  0
  -19.7084  -28.5870   22.1981 C   0  0  0  0  0  0  0  0  0  0  0  0
  -26.9218  -10.1591   20.9169 N   0  0  0  0  0  0  0  0  0  0  0  0
  -28.1419  -10.5089   21.3585 N   0  0  0  0  0  0  0  0  0  0  0  0
  -22.9263  -29.9522   21.3941 N   0  0  0  0  0  0  0  0  0  0  0  0
  -29.4460  -13.9671   20.3922 N   0  0  0  0  0  0  0  0  0  0  0  0
  -31.0574  -15.7347   20.3627 N   0  0  0  0  0  0  0  0  0  0  0  0
  -29.7308  -10.0745   23.0607 N   0  0  0  0  0  0  0  0  0  0  0  0
  -26.3146   -7.3071   24.0935 N   0  0  0  0  0  0  0  0  0  0  0  0
  -31.2689  -19.7820   21.4763 N   0  0  0  0  0  0  0  0  0  0  0  0
  -25.2189  -30.7784   24.1067 N   0  0  0  0  0  0  0  0  0  0  0  0
  -19.8288  -29.8876   20.0306 N   0  0  0  0  0  0  0  0  0  0  0  0
  -19.6687  -30.5611   16.4826 N   0  3  0  0  0  0  0  0  0  0  0  0
  -28.3988   -8.0135   24.7383 O   0  0  0  0  0  0  0  0  0  0  0  0
  -23.8366  -28.9809   23.5767 O   0  0  0  0  0  0  0  0  0  0  0  0
  -21.1453  -31.2263   22.1947 O   0  0  0  0  0  0  0  0  0  0  0  0
  -20.6301  -28.6110   18.2684 O   0  0  0  0  0  0  0  0  0  0  0  0
  -31.0526  -14.1480   22.0350 O   0  0  0  0  0  0  0  0  0  0  0  0
  -21.5331   -6.7860   21.2826 O   0  0  0  0  0  0  0  0  0  0  0  0
  -27.1279  -26.5768   18.3878 O   0  0  0  0  0  0  0  0  0  1  0  0
  -18.4542   -6.2516   25.8255 F   0  0  0  0  0  0  0  0  0  0  0  0
  -19.0309   -7.9502   21.4452 F   0  0  0  0  0  0  0  0  0  0  0  0
  1  2  1  0  0  0  0
  1  5  2  0  0  0  0
  2  6  2  0  0  0  0
  3  8  2  0  0  0  0
  3 17  1  0  0  0  0
  4  9  1  0  0  0  0
  4 17  2  0  0  0  0
  5 19  1  0  0  0  0
  6 21  1  0  0  0  0
  7 10  2  0  0  0  0
  7 20  1  0  0  0  0
  8 27  1  0  0  0  0
  9 27  2  0  0  0  0
 10 28  1  0  0  0  0
 11 12  2  0  0  0  0
 11 29  1  0  0  0  0
 12 30  1  0  0  0  0
 13 22  1  0  0  0  0
 13 28  2  0  0  0  0
 14 24  2  0  0  0  0
 14 26  1  0  0  0  0
 15 25  1  0  0  0  0
 15 26  2  0  0  0  0
 16 30  2  0  0  0  0
 16 31  1  0  0  0  0
 17 32  1  0  0  0  0
 18 32  1  0  0  0  0
 18 33  2  0  0  0  0
 18 34  1  0  0  0  0
 19 21  2  0  0  0  0
 19 39  1  0  0  0  0
 20 22  2  0  0  0  0
 20 40  1  0  0  0  0
 21 55  1  0  0  0  0
 22 41  1  0  0  0  0
 23 24  1  0  0  0  0
 23 25  2  0  0  0  0
 23 54  1  0  0  0  0
 24 60  1  0  0  0  0
 25 61  1  0  0  0  0
 26 77  1  0  0  0  0
 27 86  1  0  0  0  0
 28 87  1  0  0  0  0
 29 31  2  0  0  0  0
 29 86  1  0  0  0  0
 30 88  1  0  0  0  0
 31 89  1  0  0  0  0
 32 70  2  0  0  0  0
 33 71  1  0  0  0  0
 33 75  1  0  0  0  0
 34 76  1  0  0  0  0
 34 81  2  0  0  0  0
 35 56  1  0  0  0  0
 35 78  1  0  0  0  0
 35 82  2  0  0  0  0
 36 67  1  0  0  0  0
 36 72  1  0  0  0  0
 36 83  2  0  0  0  0
 37 68  1  0  0  0  0
 37 79  1  0  0  0  0
 37 84  2  0  0  0  0
 38 73  1  0  0  0  0
 38 74  1  0  0  0  0
 38 85  2  0  0  0  0
 39 42  1  0  0  0  0
 40 56  1  0  0  0  0
 41 72  1  0  0  0  0
 42 44  1  0  0  0  0
 43 45  1  0  0  0  0
 43 50  1  0  0  0  0
 44 55  1  0  0  0  0
 45 57  1  0  0  0  0
 46 51  1  0  0  0  0
 46 58  1  0  0  0  0
 47 52  1  0  0  0  0
 47 58  1  0  0  0  0
 48 54  1  0  0  0  0
 48 59  1  0  0  0  0
 49 54  1  0  0  0  0
 49 59  1  0  0  0  0
 50 73  1  0  0  0  0
 51 74  1  0  0  0  0
 52 74  1  0  0  0  0
 53 57  1  0  0  0  0
 53 73  1  0  0  0  0
 55 78  1  0  0  0  0
 56 72  1  0  0  0  0
 57 71  1  0  0  0  0
 58 77  1  0  0  0  0
 59 87  1  0  0  0  0
 62 68  1  0  0  0  0
 63 69  1  0  0  0  0
 64 69  1  0  0  0  0
 65 69  1  0  0  0  0
 66 80  1  0  0  0  0
 67 69  1  0  0  0  0
 67 79  1  0  0  0  0
 68 80  1  0  0  0  0
 70 71  1  0  0  0  0
M  CHG  1  80   1
M  ISO  4  38 100  59 101  74 100  87 101
M  END
> <Batch ID>
0162

> <Smiles>
CNC(C)C(=O)NC(C(=O)N1Cc2cc([101O:1][101CH:1]3CC(c4c(C)cc(NC5CC[100N:0]([100C:0](=O)N6CCCC(n7nc(-c8ccc(Oc9ccc(F)cc9F)cc8)c(C(N)=O)c7N)C6)CC5)cc4C)C3)ccc2CC1C(=O)NC1CCCc2ccccc21)C(C)(C)C

> <Shape>
0.307

> <Color>
0.083

> <Negative vol penalty>
0.000

$$$$

  -OEChem-04052322143D

 89 98  0     1  0  0  0  0  0999 V2000
  -29.5659  -33.6044   27.0009 C   0  0  0  0  0  0  0  0  0  0  0  0
  -29.1317  -32.4924   26.2865 C   0  0  0  0  0  0  0  0  0  0  0  0
  -24.4306   -9.2650   22.1025 C   0  0  0  0  0  0  0  0  0  0  0  0
  -23.3172   -9.7634   20.0170 C   0  0  0  0  0  0  0  0  0  0  0  0
  -28.6784  -34.6434   27.2782 C   0  0  0  0  0  0  0  0  0  0  0  0
  -27.8095  -32.4182   25.8500 C   0  0  0  0  0  0  0  0  0  0  0  0
  -27.4325  -30.8286   21.0567 C   0  0  0  0  0  0  0  0  0  0  0  0
  -23.3994   -8.3900   22.4439 C   0  0  0  0  0  0  0  0  0  0  0  0
  -22.2860   -8.8884   20.3584 C   0  0  0  0  0  0  0  0  0  0  0  0
  -27.5778  -29.4613   20.8260 C   0  0  0  0  0  0  0  0  0  0  0  0
  -22.4522   -5.2361   21.6768 C   0  0  0  0  0  0  0  0  0  0  0  0
  -22.8042   -3.9927   22.2017 C   0  0  0  0  0  0  0  0  0  0  0  0
  -25.1795  -29.2337   20.7008 C   0  0  0  0  0  0  0  0  0  0  0  0
  -21.5920   -4.5048   24.2279 C   0  0  0  0  0  0  0  0  0  0  0  0
  -24.3895   -9.9517   20.8890 C   0  0  0  0  0  0  0  0  0  0  0  0
  -26.6336  -10.5473   19.8323 C   0  0  0  0  0  0  0  0  0  0  0  0
  -27.3472  -34.5863   26.8364 C   0  0  0  0  0  0  0  0  0  0  0  0
  -26.1571  -31.4078   21.1221 C   0  0  0  0  0  0  0  0  0  0  0  0
  -26.9031  -33.4568   26.1228 C   0  0  0  0  0  0  0  0  0  0  0  0
  -25.0209  -30.6090   20.9299 C   0  0  0  0  0  0  0  0  0  0  0  0
  -27.4924  -24.4461   21.0919 C   0  0  0  0  0  0  0  0  0  0  0  0
  -28.2100  -24.8706   18.8244 C   0  0  0  0  0  0  0  0  0  0  0  0
  -27.8721  -25.3423   20.0929 C   0  0  0  0  0  0  0  0  0  0  0  0
  -27.4507  -23.0780   20.8226 C   0  0  0  0  0  0  0  0  0  0  0  0
  -28.1682  -23.5026   18.5550 C   0  0  0  0  0  0  0  0  0  0  0  0
  -27.7886  -22.6064   19.5541 C   0  0  0  0  0  0  0  0  0  0  0  0
  -22.3271   -8.2017   21.5719 C   0  0  0  0  0  0  0  0  0  0  0  0
  -26.4511  -28.6631   20.6509 C   0  0  0  0  0  0  0  0  0  0  0  0
  -21.6701   -6.1139   22.4275 C   0  0  0  0  0  0  0  0  0  0  0  0
  -22.3741   -3.6270   23.4772 C   0  0  0  0  0  0  0  0  0  0  0  0
  -21.2400   -5.7483   23.7030 C   0  0  0  0  0  0  0  0  0  0  0  0
  -25.4542  -10.8562   20.5360 C   0  0  0  0  0  0  0  0  0  0  0  0
  -27.3099  -11.7403   19.7553 C   0  0  0  0  0  0  0  0  0  0  0  0
  -27.0782   -9.2942   19.2959 C   0  0  0  0  0  0  0  0  0  0  0  0
  -24.5037  -32.9449   23.3598 C   0  0  0  0  0  0  0  0  0  0  0  0
  -22.3835  -33.3789   20.9435 C   0  0  0  0  0  0  0  0  0  0  0  0
  -21.1513  -32.3148   17.9441 C   0  0  0  0  0  0  0  0  0  0  0  0
  -27.5886  -17.0284   18.8592 C   0  0  0  0  0  0  0  0  0  0  0  0
  -26.4124  -35.7123   27.2012 C   0  0  0  0  0  0  0  0  0  0  0  0
  -26.0183  -32.8888   21.3451 C   0  0  0  0  0  0  0  0  0  0  0  0
  -23.6300  -31.1856   20.9707 C   0  0  0  0  0  0  0  0  0  0  0  0
  -25.1261  -35.7264   26.3793 C   0  0  0  0  0  0  0  0  0  0  0  0
  -26.5039  -16.1502   22.0828 C   0  0  0  0  0  0  0  0  0  0  0  0
  -24.5248  -34.3265   26.3047 C   0  0  0  0  0  0  0  0  0  0  0  0
  -26.2245  -14.6572   21.9131 C   0  0  0  0  0  0  0  0  0  0  0  0
  -26.0467  -16.9604   20.8687 C   0  0  0  0  0  0  0  0  0  0  0  0
  -28.9447  -20.4178   19.5106 C   0  0  0  0  0  0  0  0  0  0  0  0
  -26.4509  -20.5512   19.4136 C   0  0  0  0  0  0  0  0  0  0  0  0
  -28.8881  -19.1195   18.7101 C   0  0  0  0  0  0  0  0  0  0  0  0
  -26.4394  -19.2587   18.6049 C   0  0  0  0  0  0  0  0  0  0  0  0
  -26.3110  -14.9791   19.4118 C   0  0  0  0  0  0  0  0  0  0  0  0
  -25.4829  -33.3508   25.6108 C   0  0  1  0  0  0  0  0  0  0  0  0
  -24.6547  -33.2837   21.9037 C   0  0  1  0  0  0  0  0  0  0  0  0
  -26.8129  -14.1319   20.5915 C   0  0  2  0  0  0  0  0  0  0  0  0
  -27.1292  -24.9524   22.4525 C   0  0  0  0  0  0  0  0  0  0  0  0
  -28.6184  -25.8324   17.7533 C   0  0  0  0  0  0  0  0  0  0  0  0
  -27.0423  -22.1194   21.8972 C   0  0  0  0  0  0  0  0  0  0  0  0
  -29.9918  -23.3168   16.8248 C   0  0  0  0  0  0  0  0  0  0  0  0
  -27.5862  -23.5321   16.1026 C   0  0  0  0  0  0  0  0  0  0  0  0
  -19.3933  -32.8497   16.2352 C   0  0  0  0  0  0  0  0  0  0  0  0
  -20.2491  -32.1874   22.7696 C   0  0  0  0  0  0  0  0  0  0  0  0
  -18.8004  -31.8690   20.7527 C   0  0  0  0  0  0  0  0  0  0  0  0
  -19.4960  -34.1649   21.4367 C   0  0  0  0  0  0  0  0  0  0  0  0
  -23.1760  -32.7710   15.8343 C   0  0  0  0  0  0  0  0  0  0  0  0
  -27.9170  -26.8098   20.3819 C   0  0  0  0  0  0  0  0  0  1  0  0
  -28.5322  -22.9998   17.1925 C   0  0  0  0  0  0  0  0  0  0  0  0
  -21.2015  -32.6082   20.4070 C   0  0  1  0  0  0  0  0  0  0  0  0
  -20.8374  -33.0634   16.6614 C   0  0  2  0  0  0  0  0  0  0  0  0
  -19.9628  -32.6959   21.3426 C   0  0  0  0  0  0  0  0  0  0  0  0
  -25.3823  -12.1443   20.8817 N   0  0  0  0  0  0  0  0  0  0  0  0
  -26.5251  -12.6555   20.3931 N   0  0  0  0  0  0  0  0  0  0  0  0
  -27.7462  -21.2326   19.2836 N   0  0  0  0  0  0  0  0  0  0  0  0
  -23.5461  -32.6378   21.1979 N   0  0  0  0  0  0  0  0  0  0  0  0
  -26.5997  -16.3982   19.6293 N   0  0  0  0  0  0  0  0  0  0  0  0
  -27.6147  -18.4316   18.8855 N   0  0  0  0  0  0  0  0  0  0  0  0
  -28.4934  -12.0853   19.2051 N   0  0  0  0  0  0  0  0  0  0  0  0
  -26.2610   -8.1680   19.4639 N   0  0  0  0  0  0  0  0  0  0  0  0
  -25.4460  -33.5403   24.1765 N   0  0  0  0  0  0  0  0  0  0  0  0
  -20.9670  -33.1082   19.0567 N   0  0  0  0  0  0  0  0  0  0  0  0
  -21.7264  -32.5983   15.5594 N   0  3  0  0  0  0  0  0  0  0  0  0
  -28.1754   -9.1731   18.7002 O   0  0  0  0  0  0  0  0  0  0  0  0
  -23.5985  -32.1998   23.7160 O   0  0  0  0  0  0  0  0  0  0  0  0
  -22.2813  -34.5950   21.1232 O   0  0  0  0  0  0  0  0  0  0  0  0
  -21.5194  -31.1422   17.9580 O   0  0  0  0  0  0  0  0  0  0  0  0
  -28.4019  -16.3787   18.1903 O   0  0  0  0  0  0  0  0  0  0  0  0
  -21.3208   -7.3478   21.9047 O   0  0  0  0  0  0  0  0  0  0  0  0
  -26.5911  -27.3182   20.4246 O   0  0  0  0  0  0  0  0  0  1  0  0
  -22.7110   -2.4322   23.9805 F   0  0  0  0  0  0  0  0  0  0  0  0
  -20.4875   -6.5869   24.4284 F   0  0  0  0  0  0  0  0  0  0  0  0
  1  2  1  0  0  0  0
  1  5  2  0  0  0  0
  2  6  2  0  0  0  0
  3  8  2  0  0  0  0
  3 15  1  0  0  0  0
  4  9  1  0  0  0  0
  4 15  2  0  0  0  0
  5 17  1  0  0  0  0
  6 19  1  0  0  0  0
  7 10  2  0  0  0  0
  7 18  1  0  0  0  0
  8 27  1  0  0  0  0
  9 27  2  0  0  0  0
 10 28  1  0  0  0  0
 11 12  2  0  0  0  0
 11 29  1  0  0  0  0
 12 30  1  0  0  0  0
 13 20  1  0  0  0  0
 13 28  2  0  0  0  0
 14 30  2  0  0  0  0
 14 31  1  0  0  0  0
 15 32  1  0  0  0  0
 16 32  1  0  0  0  0
 16 33  2  0  0  0  0
 16 34  1  0  0  0  0
 17 19  2  0  0  0  0
 17 39  1  0  0  0  0
 18 20  2  0  0  0  0
 18 40  1  0  0  0  0
 19 52  1  0  0  0  0
 20 41  1  0  0  0  0
 21 23  1  0  0  0  0
 21 24  2  0  0  0  0
 21 55  1  0  0  0  0
 22 23  2  0  0  0  0
 22 25  1  0  0  0  0
 22 56  1  0  0  0  0
 23 65  1  0  0  0  0
 24 26  1  0  0  0  0
 24 57  1  0  0  0  0
 25 26  2  0  0  0  0
 25 66  1  0  0  0  0
 26 72  1  0  0  0  0
 27 86  1  0  0  0  0
 28 87  1  0  0  0  0
 29 31  2  0  0  0  0
 29 86  1  0  0  0  0
 30 88  1  0  0  0  0
 31 89  1  0  0  0  0
 32 70  2  0  0  0  0
 33 71  1  0  0  0  0
 33 76  1  0  0  0  0
 34 77  1  0  0  0  0
 34 81  2  0  0  0  0
 35 53  1  0  0  0  0
 35 78  1  0  0  0  0
 35 82  2  0  0  0  0
 36 67  1  0  0  0  0
 36 73  1  0  0  0  0
 36 83  2  0  0  0  0
 37 68  1  0  0  0  0
 37 79  1  0  0  0  0
 37 84  2  0  0  0  0
 38 74  1  0  0  0  0
 38 75  1  0  0  0  0
 38 85  2  0  0  0  0
 39 42  1  0  0  0  0
 40 53  1  0  0  0  0
 41 73  1  0  0  0  0
 42 44  1  0  0  0  0
 43 45  1  0  0  0  0
 43 46  1  0  0  0  0
 44 52  1  0  0  0  0
 45 54  1  0  0  0  0
 46 74  1  0  0  0  0
 47 49  1  0  0  0  0
 47 72  1  0  0  0  0
 48 50  1  0  0  0  0
 48 72  1  0  0  0  0
 49 75  1  0  0  0  0
 50 75  1  0  0  0  0
 51 54  1  0  0  0  0
 51 74  1  0  0  0  0
 52 78  1  0  0  0  0
 53 73  1  0  0  0  0
 54 71  1  0  0  0  0
 58 66  1  0  0  0  0
 59 66  1  0  0  0  0
 60 68  1  0  0  0  0
 61 69  1  0  0  0  0
 62 69  1  0  0  0  0
 63 69  1  0  0  0  0
 64 80  1  0  0  0  0
 65 87  1  0  0  0  0
 67 69  1  0  0  0  0
 67 79  1  0  0  0  0
 68 80  1  0  0  0  0
 70 71  1  0  0  0  0
M  CHG  1  80   1
M  ISO  4  38 100  65 101  75 100  87 101
M  END
> <Batch ID>
0162

> <Smiles>
CNC(C)C(=O)NC(C(=O)N1Cc2cc([101O:1][101CH2:1]c3c(C)c(C)c(N4CC[100N:0]([100C:0](=O)N5CCCC(n6nc(-c7ccc(Oc8ccc(F)cc8F)cc7)c(C(N)=O)c6N)C5)CC4)c(C(C)C)c3C)ccc2CC1C(=O)NC1CCCc2ccccc21)C(C)(C)C

> <Shape>
0.273

> <Color>
0.093

> <Negative vol penalty>
0.000

$$$$

  -OEChem-04052322143D

 91100  0     1  0  0  0  0  0999 V2000
  -20.2478  -33.4165   15.6330 C   0  0  0  0  0  0  0  0  0  0  0  0
  -21.2112  -32.4138   15.6774 C   0  0  0  0  0  0  0  0  0  0  0  0
  -24.5473   -8.0897   19.4556 C   0  0  0  0  0  0  0  0  0  0  0  0
  -25.3220   -7.9871   21.7418 C   0  0  0  0  0  0  0  0  0  0  0  0
  -20.3101  -34.4817   16.5304 C   0  0  0  0  0  0  0  0  0  0  0  0
  -22.2382  -32.4764   16.6186 C   0  0  0  0  0  0  0  0  0  0  0  0
  -24.9007  -27.7625   19.4814 C   0  0  0  0  0  0  0  0  0  0  0  0
  -23.2639   -7.7396   19.8748 C   0  0  0  0  0  0  0  0  0  0  0  0
  -24.0385   -7.6370   22.1610 C   0  0  0  0  0  0  0  0  0  0  0  0
  -26.0899  -27.0735   19.2474 C   0  0  0  0  0  0  0  0  0  0  0  0
  -22.1066   -4.8630   22.2185 C   0  0  0  0  0  0  0  0  0  0  0  0
  -21.9865   -3.8175   23.1340 C   0  0  0  0  0  0  0  0  0  0  0  0
  -27.2059  -28.4583   20.8772 C   0  0  0  0  0  0  0  0  0  0  0  0
  -29.9340  -23.8231   19.2547 C   0  0  0  0  0  0  0  0  0  0  0  0
  -32.2389  -23.8582   18.5316 C   0  0  0  0  0  0  0  0  0  0  0  0
  -20.9288   -5.3160   24.7066 C   0  0  0  0  0  0  0  0  0  0  0  0
  -25.5764   -8.2135   20.3891 C   0  0  0  0  0  0  0  0  0  0  0  0
  -27.7235   -7.8716   19.0547 C   0  0  0  0  0  0  0  0  0  0  0  0
  -21.3329  -34.5525   17.4893 C   0  0  0  0  0  0  0  0  0  0  0  0
  -24.8577  -28.8136   20.4087 C   0  0  0  0  0  0  0  0  0  0  0  0
  -22.3150  -33.5444   17.5287 C   0  0  0  0  0  0  0  0  0  0  0  0
  -26.0143  -29.1574   21.1230 C   0  0  0  0  0  0  0  0  0  0  0  0
  -31.1883  -23.2166   19.1873 C   0  0  0  0  0  0  0  0  0  0  0  0
  -29.7304  -25.0713   18.6663 C   0  0  0  0  0  0  0  0  0  0  0  0
  -30.7810  -25.7130   18.0105 C   0  0  0  0  0  0  0  0  0  0  0  0
  -23.0094   -7.5132   21.2274 C   0  0  0  0  0  0  0  0  0  0  0  0
  -27.2434  -27.4233   19.9432 C   0  0  0  0  0  0  0  0  0  0  0  0
  -21.6378   -6.1350   22.5471 C   0  0  0  0  0  0  0  0  0  0  0  0
  -32.0353  -25.1064   17.9431 C   0  0  0  0  0  0  0  0  0  0  0  0
  -21.3976   -4.0439   24.3780 C   0  0  0  0  0  0  0  0  0  0  0  0
  -21.0489   -6.3615   23.7911 C   0  0  0  0  0  0  0  0  0  0  0  0
  -26.9026   -8.5746   19.9567 C   0  0  0  0  0  0  0  0  0  0  0  0
  -28.8717   -8.6215   18.9794 C   0  0  0  0  0  0  0  0  0  0  0  0
  -27.4707   -6.6500   18.3479 C   0  0  0  0  0  0  0  0  0  0  0  0
  -24.2246  -31.9243   20.2456 C   0  0  0  0  0  0  0  0  0  0  0  0
  -24.4677  -31.7463   23.4754 C   0  0  0  0  0  0  0  0  0  0  0  0
  -25.7132  -30.1142   26.2016 C   0  0  0  0  0  0  0  0  0  0  0  0
  -29.8775  -14.3733   19.8517 C   0  0  0  0  0  0  0  0  0  0  0  0
  -21.3858  -35.7479   18.4074 C   0  0  0  0  0  0  0  0  0  0  0  0
  -23.5606  -29.5293   20.6691 C   0  0  0  0  0  0  0  0  0  0  0  0
  -26.0160  -30.2648   22.1439 C   0  0  0  0  0  0  0  0  0  0  0  0
  -22.2925  -35.5459   19.6188 C   0  0  0  0  0  0  0  0  0  0  0  0
  -31.5439  -11.6470   21.5511 C   0  0  0  0  0  0  0  0  0  0  0  0
  -23.6273  -34.9434   19.1919 C   0  0  0  0  0  0  0  0  0  0  0  0
  -30.6071  -10.4778   21.2416 C   0  0  0  0  0  0  0  0  0  0  0  0
  -30.0114  -17.6428   20.0463 C   0  0  0  0  0  0  0  0  0  0  0  0
  -32.3941  -17.0566   19.4644 C   0  0  0  0  0  0  0  0  0  0  0  0
  -30.7609  -12.9352   21.7867 C   0  0  0  0  0  0  0  0  0  0  0  0
  -28.9121  -12.1479   20.3599 C   0  0  0  0  0  0  0  0  0  0  0  0
  -30.1708  -18.9763   19.3277 C   0  0  0  0  0  0  0  0  0  0  0  0
  -32.5418  -18.3936   18.7499 C   0  0  0  0  0  0  0  0  0  0  0  0
  -23.4304  -33.5642   18.5513 C   0  0  1  0  0  0  0  0  0  0  0  0
  -23.7550  -30.9217   21.2615 C   0  0  1  0  0  0  0  0  0  0  0  0
  -29.6443  -10.8210   20.0895 C   0  0  2  0  0  0  0  0  0  0  0  0
  -30.9424  -16.5775   19.4662 C   0  0  0  0  0  0  0  0  0  0  0  0
  -30.5685  -27.0516   17.3787 C   0  0  0  0  0  0  0  0  0  0  0  0
  -32.4169  -21.9708   20.9849 C   0  0  0  0  0  0  0  0  0  0  0  0
  -25.7735  -30.2273   28.7077 C   0  0  0  0  0  0  0  0  0  0  0  0
  -30.9785  -20.8275   17.5075 C   0  0  0  0  0  0  0  0  0  0  0  0
  -26.5053  -34.0123   23.3217 C   0  0  0  0  0  0  0  0  0  0  0  0
  -27.2132  -33.4405   25.6541 C   0  0  0  0  0  0  0  0  0  0  0  0
  -24.8782  -34.1988   25.2118 C   0  0  0  0  0  0  0  0  0  0  0  0
  -24.3758  -27.4875   26.4680 C   0  0  0  0  0  0  0  0  0  0  0  0
  -33.8994  -26.5756   18.0935 C   0  0  0  0  0  0  0  0  0  0  0  0
  -28.3715  -25.7018   18.7515 C   0  0  0  0  0  0  0  0  0  1  0  0
  -31.4053  -21.8815   19.8155 C   0  0  2  0  0  0  0  0  0  0  0  0
  -25.5923  -31.8890   24.4724 C   0  0  1  0  0  0  0  0  0  0  0  0
  -25.0549  -29.6619   27.4925 C   0  0  2  0  0  0  0  0  0  0  0  0
  -31.8093  -20.7761   18.7887 C   0  0  1  0  0  0  0  0  0  0  0  0
  -26.0480  -33.3655   24.6444 C   0  0  0  0  0  0  0  0  0  0  0  0
  -27.4803   -9.6856   20.4213 N   0  0  0  0  0  0  0  0  0  0  0  0
  -28.6765   -9.6864   19.8088 N   0  0  0  0  0  0  0  0  0  0  0  0
  -24.7249  -30.9389   22.3584 N   0  0  0  0  0  0  0  0  0  0  0  0
  -29.8776  -13.2144   20.6456 N   0  0  0  0  0  0  0  0  0  0  0  0
  -30.0193   -8.4672   18.2853 N   0  0  0  0  0  0  0  0  0  0  0  0
  -27.8328   -5.4397   18.9550 N   0  0  0  0  0  0  0  0  0  0  0  0
  -23.2017  -32.5618   19.5698 N   0  0  0  0  0  0  0  0  0  0  0  0
  -25.1283  -31.2594   25.7040 N   0  0  0  0  0  0  0  0  0  0  0  0
  -30.8180  -15.3376   20.1926 N   0  0  0  0  0  0  0  0  0  0  0  0
  -31.6169  -19.4067   19.3803 N   0  3  0  0  0  0  0  0  0  0  0  0
  -25.0691  -28.1748   27.5878 N   0  3  0  0  0  0  0  0  0  0  0  0
  -26.9544   -6.6331   17.2048 O   0  0  0  0  0  0  0  0  0  0  0  0
  -25.4260  -32.1071   20.0878 O   0  0  0  0  0  0  0  0  0  0  0  0
  -23.3979  -32.3241   23.6838 O   0  0  0  0  0  0  0  0  0  0  0  0
  -26.6547  -29.5139   25.6880 O   0  0  0  0  0  0  0  0  0  0  0  0
  -29.0999  -14.5346   18.9049 O   0  0  0  0  0  0  0  0  0  0  0  0
  -21.7571   -7.1718   21.6368 O   0  0  0  0  0  0  0  0  0  0  0  0
  -33.0736  -25.7186   17.3077 O   0  0  0  0  0  0  0  0  0  0  0  0
  -28.4057  -26.7528   19.7163 O   0  0  0  0  0  0  0  0  0  1  0  0
  -21.2809   -3.0395   25.2564 F   0  0  0  0  0  0  0  0  0  0  0  0
  -20.5956   -7.5811   24.1119 F   0  0  0  0  0  0  0  0  0  0  0  0
  1  2  1  0  0  0  0
  1  5  2  0  0  0  0
  2  6  2  0  0  0  0
  3  8  2  0  0  0  0
  3 17  1  0  0  0  0
  4  9  1  0  0  0  0
  4 17  2  0  0  0  0
  5 19  1  0  0  0  0
  6 21  1  0  0  0  0
  7 10  2  0  0  0  0
  7 20  1  0  0  0  0
  8 26  1  0  0  0  0
  9 26  2  0  0  0  0
 10 27  1  0  0  0  0
 11 12  2  0  0  0  0
 11 28  1  0  0  0  0
 12 30  1  0  0  0  0
 13 22  1  0  0  0  0
 13 27  2  0  0  0  0
 14 23  2  0  0  0  0
 14 24  1  0  0  0  0
 15 23  1  0  0  0  0
 15 29  2  0  0  0  0
 16 30  2  0  0  0  0
 16 31  1  0  0  0  0
 17 32  1  0  0  0  0
 18 32  1  0  0  0  0
 18 33  2  0  0  0  0
 18 34  1  0  0  0  0
 19 21  2  0  0  0  0
 19 39  1  0  0  0  0
 20 22  2  0  0  0  0
 20 40  1  0  0  0  0
 21 52  1  0  0  0  0
 22 41  1  0  0  0  0
 23 66  1  0  0  0  0
 24 25  2  0  0  0  0
 24 65  1  0  0  0  0
 25 29  1  0  0  0  0
 25 56  1  0  0  0  0
 26 87  1  0  0  0  0
 27 89  1  0  0  0  0
 28 31  2  0  0  0  0
 28 87  1  0  0  0  0
 29 88  1  0  0  0  0
 30 90  1  0  0  0  0
 31 91  1  0  0  0  0
 32 71  2  0  0  0  0
 33 72  1  0  0  0  0
 33 75  1  0  0  0  0
 34 76  1  0  0  0  0
 34 82  2  0  0  0  0
 35 53  1  0  0  0  0
 35 77  1  0  0  0  0
 35 83  2  0  0  0  0
 36 67  1  0  0  0  0
 36 73  1  0  0  0  0
 36 84  2  0  0  0  0
 37 68  1  0  0  0  0
 37 78  1  0  0  0  0
 37 85  2  0  0  0  0
 38 74  1  0  0  0  0
 38 79  1  0  0  0  0
 38 86  2  0  0  0  0
 39 42  1  0  0  0  0
 40 53  1  0  0  0  0
 41 73  1  0  0  0  0
 42 44  1  0  0  0  0
 43 45  1  0  0  0  0
 43 48  1  0  0  0  0
 44 52  1  0  0  0  0
 45 54  1  0  0  0  0
 46 50  1  0  0  0  0
 46 55  1  0  0  0  0
 47 51  1  0  0  0  0
 47 55  1  0  0  0  0
 48 74  1  0  0  0  0
 49 54  1  0  0  0  0
 49 74  1  0  0  0  0
 50 80  1  0  0  0  0
 51 80  1  0  0  0  0
 52 77  1  0  0  0  0
 53 73  1  0  0  0  0
 54 72  1  0  0  0  0
 55 79  1  0  0  0  0
 57 66  1  0  0  0  0
 58 68  1  0  0  0  0
 59 69  1  0  0  0  0
 60 70  1  0  0  0  0
 61 70  1  0  0  0  0
 62 70  1  0  0  0  0
 63 81  1  0  0  0  0
 64 88  1  0  0  0  0
 65 89  1  0  0  0  0
 66 69  1  0  0  0  0
 67 70  1  0  0  0  0
 67 78  1  0  0  0  0
 68 81  1  0  0  0  0
 69 80  1  0  0  0  0
 71 72  1  0  0  0  0
M  CHG  2  80   1  81   1
M  ISO  4  38 100  65 101  79 100  89 101
M  END
> <Batch ID>
0162

> <Smiles>
CNC(C)C(=O)NC(C(=O)N1Cc2cc([101O:1][101CH2:1]c3cc(C(C)C(C)N4CCC([100NH:0][100C:0](=O)N5CCCC(n6nc(-c7ccc(Oc8ccc(F)cc8F)cc7)c(C(N)=O)c6N)C5)CC4)cc(OC)c3C)ccc2CC1C(=O)NC1CCCc2ccccc21)C(C)(C)C

> <Shape>
0.267

> <Color>
0.105

> <Negative vol penalty>
0.000

$$$$

  -OEChem-04052322143D

 88 97  0     1  0  0  0  0  0999 V2000
  -35.7213   -9.4229   21.3903 C   0  0  0  0  0  0  0  0  0  0  0  0
  -35.7560  -10.7638   21.7595 C   0  0  0  0  0  0  0  0  0  0  0  0
  -24.8933  -28.4570   21.7503 C   0  0  0  0  0  0  0  0  0  0  0  0
  -26.6678  -29.5542   22.9687 C   0  0  0  0  0  0  0  0  0  0  0  0
  -34.8223   -8.9925   20.4154 C   0  0  0  0  0  0  0  0  0  0  0  0
  -34.8924  -11.6753   21.1531 C   0  0  0  0  0  0  0  0  0  0  0  0
  -31.2158  -17.6624   22.5508 C   0  0  0  0  0  0  0  0  0  0  0  0
  -24.0072  -29.4633   22.1346 C   0  0  0  0  0  0  0  0  0  0  0  0
  -25.7817  -30.5606   23.3529 C   0  0  0  0  0  0  0  0  0  0  0  0
  -31.0218  -18.9489   22.0498 C   0  0  0  0  0  0  0  0  0  0  0  0
  -24.4082  -33.3258   21.9791 C   0  0  0  0  0  0  0  0  0  0  0  0
  -24.8476  -34.6461   21.8818 C   0  0  0  0  0  0  0  0  0  0  0  0
  -26.3832  -21.4763   21.2480 C   0  0  0  0  0  0  0  0  0  0  0  0
  -29.4563  -18.0772   20.4347 C   0  0  0  0  0  0  0  0  0  0  0  0
  -23.9086  -20.5254   22.1167 C   0  0  0  0  0  0  0  0  0  0  0  0
  -24.5155  -34.9317   24.2577 C   0  0  0  0  0  0  0  0  0  0  0  0
  -26.2236  -28.5024   22.1674 C   0  0  0  0  0  0  0  0  0  0  0  0
  -26.2271  -21.0371   22.5627 C   0  0  0  0  0  0  0  0  0  0  0  0
  -27.9475  -27.4356   20.6190 C   0  0  0  0  0  0  0  0  0  0  0  0
  -33.9406   -9.8974   19.8037 C   0  0  0  0  0  0  0  0  0  0  0  0
  -30.5387  -16.5703   21.9894 C   0  0  0  0  0  0  0  0  0  0  0  0
  -33.9817  -11.2568   20.1681 C   0  0  0  0  0  0  0  0  0  0  0  0
  -25.3019  -21.4400   20.3676 C   0  0  0  0  0  0  0  0  0  0  0  0
  -29.6416  -16.7782   20.9321 C   0  0  0  0  0  0  0  0  0  0  0  0
  -24.9898  -20.5617   22.9970 C   0  0  0  0  0  0  0  0  0  0  0  0
  -24.0646  -20.9646   20.8019 C   0  0  0  0  0  0  0  0  0  0  0  0
  -24.4513  -30.5151   22.9359 C   0  0  0  0  0  0  0  0  0  0  0  0
  -30.1441  -19.1561   20.9897 C   0  0  0  0  0  0  0  0  0  0  0  0
  -24.0223  -32.8086   23.2157 C   0  0  0  0  0  0  0  0  0  0  0  0
  -24.9013  -35.4490   23.0211 C   0  0  0  0  0  0  0  0  0  0  0  0
  -24.0760  -33.6115   24.3550 C   0  0  0  0  0  0  0  0  0  0  0  0
  -27.1393  -27.4628   21.7713 C   0  0  0  0  0  0  0  0  0  0  0  0
  -28.6267  -26.2448   20.7040 C   0  0  0  0  0  0  0  0  0  0  0  0
  -27.3820  -21.0863   23.4686 C   0  0  0  0  0  0  0  0  0  0  0  0
  -28.0733  -28.4005   19.5660 C   0  0  0  0  0  0  0  0  0  0  0  0
  -31.4256  -13.9039   20.5037 C   0  0  0  0  0  0  0  0  0  0  0  0
  -28.2585  -13.2223   20.6670 C   0  0  0  0  0  0  0  0  0  0  0  0
  -25.0572  -14.3739   20.9362 C   0  0  0  0  0  0  0  0  0  0  0  0
  -33.0192   -9.3939   18.7210 C   0  0  0  0  0  0  0  0  0  0  0  0
  -30.7388  -15.1926   22.5589 C   0  0  0  0  0  0  0  0  0  0  0  0
  -28.8749  -15.6422   20.3075 C   0  0  0  0  0  0  0  0  0  0  0  0
  -31.8794  -10.3556   18.3952 C   0  0  0  0  0  0  0  0  0  0  0  0
  -30.3001  -23.0969   23.8973 C   0  0  0  0  0  0  0  0  0  0  0  0
  -32.4080  -11.7786   18.2453 C   0  0  0  0  0  0  0  0  0  0  0  0
  -29.8915  -24.4493   23.3105 C   0  0  0  0  0  0  0  0  0  0  0  0
  -29.1321  -22.4128   24.6032 C   0  0  0  0  0  0  0  0  0  0  0  0
  -27.5059  -23.6164   23.1849 C   0  0  0  0  0  0  0  0  0  0  0  0
  -27.4822  -20.1883   17.7183 C   0  0  0  0  0  0  0  0  0  0  0  0
  -26.9324  -22.4026   18.6774 C   0  0  0  0  0  0  0  0  0  0  0  0
  -26.0588  -19.7666   18.0237 C   0  0  0  0  0  0  0  0  0  0  0  0
  -33.0437  -12.2714   19.5509 C   0  0  1  0  0  0  0  0  0  0  0  0
  -30.3862  -14.0820   21.5741 C   0  0  1  0  0  0  0  0  0  0  0  0
  -28.6415  -24.3163   22.4204 C   0  0  1  0  0  0  0  0  0  0  0  0
  -25.4935  -21.9169   18.9598 C   0  0  2  0  0  0  0  0  0  0  0  0
  -24.7954  -20.0856   24.3997 C   0  0  0  0  0  0  0  0  0  0  0  0
  -22.8927  -20.9165   19.8774 C   0  0  0  0  0  0  0  0  0  0  0  0
  -24.5095  -23.0632   18.7184 C   0  0  0  0  0  0  0  0  0  0  0  0
  -22.6774  -13.5804   21.0035 C   0  0  0  0  0  0  0  0  0  0  0  0
  -31.7459  -21.0024   18.9989 C   0  0  0  0  0  0  0  0  0  0  0  0
  -28.3309  -12.7570   17.6523 C   0  0  0  0  0  0  0  0  0  0  0  0
  -25.8321  -12.9112   17.6387 C   0  0  0  0  0  0  0  0  0  0  0  0
  -26.9612  -11.1006   18.9309 C   0  0  0  0  0  0  0  0  0  0  0  0
  -24.6403  -15.4884   23.6460 C   0  0  0  0  0  0  0  0  0  0  0  0
  -29.3157  -21.6624   18.5489 C   0  0  0  0  0  0  0  0  0  0  0  0
  -27.0626  -13.4791   19.7821 C   0  0  1  0  0  0  0  0  0  0  0  0
  -23.9039  -13.9451   21.8254 C   0  0  2  0  0  0  0  0  0  0  0  0
  -30.2754  -20.6262   19.1249 C   0  0  2  0  0  0  0  0  0  1  0  0
  -27.0625  -12.5833   18.5113 C   0  0  0  0  0  0  0  0  0  0  0  0
  -27.2897  -26.3756   22.5324 N   0  0  0  0  0  0  0  0  0  0  0  0
  -28.2003  -25.6540   21.8569 N   0  0  0  0  0  0  0  0  0  0  0  0
  -27.9707  -22.3282   23.7185 N   0  0  0  0  0  0  0  0  0  0  0  0
  -29.1095  -14.3129   20.8952 N   0  0  0  0  0  0  0  0  0  0  0  0
  -29.5409  -25.6558   19.9042 N   0  0  0  0  0  0  0  0  0  0  0  0
  -27.3024  -29.5690   19.6349 N   0  0  0  0  0  0  0  0  0  0  0  0
  -32.0193  -12.6561   20.4981 N   0  0  0  0  0  0  0  0  0  0  0  0
  -25.8858  -13.3155   20.6286 N   0  0  0  0  0  0  0  0  0  0  0  0
  -27.9044  -21.2377   18.7239 N   0  3  2  0  0  0  0  0  0  0  0  0
  -23.5334  -15.0454   22.7597 N   0  3  0  0  0  0  0  0  0  0  0  0
  -27.7536  -20.0101   23.9343 O   0  0  0  0  0  0  0  0  0  0  0  0
  -28.8341  -28.2240   18.5844 O   0  0  0  0  0  0  0  0  0  0  0  0
  -31.6699  -14.8295   19.7387 O   0  0  0  0  0  0  0  0  0  0  0  0
  -28.4272  -12.0973   21.1440 O   0  0  0  0  0  0  0  0  0  0  0  0
  -25.2059  -15.5311   20.5499 O   0  0  0  0  0  0  0  0  0  0  0  0
  -25.1701  -20.8856   17.9997 O   0  0  0  0  0  0  0  0  0  0  0  0
  -23.5870  -31.4974   23.3108 O   0  0  0  0  0  0  0  0  0  0  0  0
  -29.9534  -20.4107   20.4983 O   0  0  0  0  0  0  0  0  0  1  0  0
  -25.3248  -36.7163   22.9277 F   0  0  0  0  0  0  0  0  0  0  0  0
  -23.7077  -33.1198   25.5460 F   0  0  0  0  0  0  0  0  0  0  0  0
  1  2  1  0  0  0  0
  1  5  2  0  0  0  0
  2  6  2  0  0  0  0
  3  8  2  0  0  0  0
  3 17  1  0  0  0  0
  4  9  1  0  0  0  0
  4 17  2  0  0  0  0
  5 20  1  0  0  0  0
  6 22  1  0  0  0  0
  7 10  2  0  0  0  0
  7 21  1  0  0  0  0
  8 27  1  0  0  0  0
  9 27  2  0  0  0  0
 10 28  1  0  0  0  0
 11 12  2  0  0  0  0
 11 29  1  0  0  0  0
 12 30  1  0  0  0  0
 13 18  2  0  0  0  0
 13 23  1  0  0  0  0
 14 24  1  0  0  0  0
 14 28  2  0  0  0  0
 15 25  2  0  0  0  0
 15 26  1  0  0  0  0
 16 30  2  0  0  0  0
 16 31  1  0  0  0  0
 17 32  1  0  0  0  0
 18 25  1  0  0  0  0
 18 34  1  0  0  0  0
 19 32  1  0  0  0  0
 19 33  2  0  0  0  0
 19 35  1  0  0  0  0
 20 22  2  0  0  0  0
 20 39  1  0  0  0  0
 21 24  2  0  0  0  0
 21 40  1  0  0  0  0
 22 51  1  0  0  0  0
 23 26  2  0  0  0  0
 23 54  1  0  0  0  0
 24 41  1  0  0  0  0
 25 55  1  0  0  0  0
 26 56  1  0  0  0  0
 27 85  1  0  0  0  0
 28 86  1  0  0  0  0
 29 31  2  0  0  0  0
 29 85  1  0  0  0  0
 30 87  1  0  0  0  0
 31 88  1  0  0  0  0
 32 69  2  0  0  0  0
 33 70  1  0  0  0  0
 33 73  1  0  0  0  0
 34 71  1  0  0  0  0
 34 79  2  0  0  0  0
 35 74  1  0  0  0  0
 35 80  2  0  0  0  0
 36 52  1  0  0  0  0
 36 75  1  0  0  0  0
 36 81  2  0  0  0  0
 37 65  1  0  0  0  0
 37 72  1  0  0  0  0
 37 82  2  0  0  0  0
 38 66  1  0  0  0  0
 38 76  1  0  0  0  0
 38 83  2  0  0  0  0
 39 42  1  0  0  0  0
 40 52  1  0  0  0  0
 41 72  1  0  0  0  0
 42 44  1  0  0  0  0
 43 45  1  0  0  0  0
 43 46  1  0  0  0  0
 44 51  1  0  0  0  0
 45 53  1  0  0  0  0
 46 71  1  0  0  0  0
 47 53  1  0  0  0  0
 47 71  1  0  0  0  0
 48 50  1  0  0  0  0
 48 77  1  0  0  0  0
 49 54  1  0  0  0  0
 49 77  1  0  0  0  0
 50 84  1  0  0  0  0
 51 75  1  0  0  0  0
 52 72  1  0  0  0  0
 53 70  1  0  0  0  0
 54 57  1  0  0  0  0
 54 84  1  0  0  0  0
 58 66  1  0  0  0  0
 59 67  1  0  0  0  0
 60 68  1  0  0  0  0
 61 68  1  0  0  0  0
 62 68  1  0  0  0  0
 63 78  1  0  0  0  0
 64 67  1  0  0  0  0
 64 77  1  0  0  0  0
 65 68  1  0  0  0  0
 65 76  1  0  0  0  0
 66 78  1  0  0  0  0
 67 86  1  0  0  0  0
 69 70  1  0  0  0  0
M  CHG  2  77   1  78   1
M  ISO  4  18 100  34 100  67 101  86 101
M  END
> <Batch ID>
0162

> <Smiles>
CNC(C)C(=O)NC(C(=O)N1Cc2cc([101O:1][101CH:1](C)CN3CCOC(C)(c4c[100c:0]([100C:0](=O)N5CCCC(n6nc(-c7ccc(Oc8ccc(F)cc8F)cc7)c(C(N)=O)c6N)C5)c(C)cc4C)C3)ccc2CC1C(=O)NC1CCCc2ccccc21)C(C)(C)C

> <Shape>
0.221

> <Color>
0.057

> <Negative vol penalty>
0.000

$$$$

  -OEChem-04052322143D

 88 98  0     1  0  0  0  0  0999 V2000
  -22.6623  -20.2899   23.6229 C   0  0  0  0  0  0  0  0  0  0  0  0
  -23.4275  -21.1032   22.7932 C   0  0  0  0  0  0  0  0  0  0  0  0
  -21.5986  -14.6170   22.0736 C   0  0  0  0  0  0  0  0  0  0  0  0
  -21.7544  -15.2451   19.7458 C   0  0  0  0  0  0  0  0  0  0  0  0
  -21.4235  -20.7343   24.0829 C   0  0  0  0  0  0  0  0  0  0  0  0
  -22.9538  -22.3612   22.4222 C   0  0  0  0  0  0  0  0  0  0  0  0
  -26.5061  -25.9539   22.7657 C   0  0  0  0  0  0  0  0  0  0  0  0
  -20.3282  -15.1886   22.1428 C   0  0  0  0  0  0  0  0  0  0  0  0
  -20.4838  -15.8166   19.8151 C   0  0  0  0  0  0  0  0  0  0  0  0
  -27.4504  -26.0156   21.7418 C   0  0  0  0  0  0  0  0  0  0  0  0
  -19.0997  -18.6811   20.9595 C   0  0  0  0  0  0  0  0  0  0  0  0
  -18.9222  -19.9381   20.3816 C   0  0  0  0  0  0  0  0  0  0  0  0
  -29.1894  -22.9470   19.8268 C   0  0  0  0  0  0  0  0  0  0  0  0
  -26.2307  -27.8371   20.7349 C   0  0  0  0  0  0  0  0  0  0  0  0
  -30.7614  -21.7281   17.8709 C   0  0  0  0  0  0  0  0  0  0  0  0
  -17.2534  -19.0193   18.8956 C   0  0  0  0  0  0  0  0  0  0  0  0
  -22.3118  -14.6453   20.8751 C   0  0  0  0  0  0  0  0  0  0  0  0
  -23.9418  -12.7262   20.4654 C   0  0  0  0  0  0  0  0  0  0  0  0
  -20.9386  -22.0022   23.7252 C   0  0  0  0  0  0  0  0  0  0  0  0
  -25.4093  -26.8276   22.7760 C   0  0  0  0  0  0  0  0  0  0  0  0
  -21.7066  -22.8224   22.8769 C   0  0  0  0  0  0  0  0  0  0  0  0
  -29.8836  -23.7283   18.9031 C   0  0  0  0  0  0  0  0  0  0  0  0
  -29.2812  -21.5562   19.7725 C   0  0  0  0  0  0  0  0  0  0  0  0
  -25.2753  -27.7862   21.7614 C   0  0  0  0  0  0  0  0  0  0  0  0
  -30.6696  -23.1189   17.9252 C   0  0  0  0  0  0  0  0  0  0  0  0
  -19.7708  -15.7883   21.0136 C   0  0  0  0  0  0  0  0  0  0  0  0
  -27.3112  -26.9554   20.7247 C   0  0  0  0  0  0  0  0  0  0  0  0
  -18.3541  -17.5931   20.5054 C   0  0  0  0  0  0  0  0  0  0  0  0
  -30.0671  -20.9467   18.7946 C   0  0  0  0  0  0  0  0  0  0  0  0
  -17.9991  -20.1072   19.3496 C   0  0  0  0  0  0  0  0  0  0  0  0
  -17.4310  -17.7622   19.4735 C   0  0  0  0  0  0  0  0  0  0  0  0
  -23.6244  -14.0555   20.8030 C   0  0  0  0  0  0  0  0  0  0  0  0
  -25.3121  -12.6705   20.5412 C   0  0  0  0  0  0  0  0  0  0  0  0
  -23.0754  -11.6390   20.1146 C   0  0  0  0  0  0  0  0  0  0  0  0
  -22.2541  -26.4686   22.6358 C   0  0  0  0  0  0  0  0  0  0  0  0
  -22.2575  -29.6685   23.1678 C   0  0  0  0  0  0  0  0  0  0  0  0
  -23.9286  -32.6373   22.9659 C   0  0  0  0  0  0  0  0  0  0  0  0
  -29.5963  -16.8217   20.0275 C   0  0  0  0  0  0  0  0  0  0  0  0
  -19.5725  -22.4199   24.2089 C   0  0  0  0  0  0  0  0  0  0  0  0
  -24.4139  -26.7660   23.9019 C   0  0  0  0  0  0  0  0  0  0  0  0
  -24.1269  -28.7603   21.7374 C   0  0  0  0  0  0  0  0  0  0  0  0
  -19.3101  -23.9176   24.0733 C   0  0  0  0  0  0  0  0  0  0  0  0
  -29.0214  -14.6709   22.8061 C   0  0  0  0  0  0  0  0  0  0  0  0
  -19.7349  -24.4113   22.6940 C   0  0  0  0  0  0  0  0  0  0  0  0
  -27.6017  -14.1494   22.5773 C   0  0  0  0  0  0  0  0  0  0  0  0
  -27.5011  -19.7530   20.2444 C   0  0  0  0  0  0  0  0  0  0  0  0
  -27.0478  -21.0022   20.9329 C   0  0  0  0  0  0  0  0  0  0  0  0
  -29.3317  -25.9778   17.7580 C   0  0  0  0  0  0  0  0  0  0  0  0
  -29.1659  -16.1260   22.3657 C   0  0  0  0  0  0  0  0  0  0  0  0
  -27.3202  -15.8775   20.7516 C   0  0  0  0  0  0  0  0  0  0  0  0
  -29.7720  -25.2045   18.9791 C   0  0  1  0  0  0  0  0  0  0  0  0
  -21.2380  -24.2033   22.4725 C   0  0  1  0  0  0  0  0  0  0  0  0
  -23.0590  -27.3637   23.5350 C   0  0  1  0  0  0  0  0  0  0  0  0
  -27.1400  -14.3970   21.1286 C   0  0  2  0  0  0  0  0  0  0  0  0
  -28.4029  -25.8465   18.9261 C   0  0  1  0  0  0  0  0  0  1  0  0
  -28.5319  -20.7350   20.7683 C   0  0  0  0  0  0  0  0  0  0  0  0
  -31.4229  -23.9329   16.9246 C   0  0  0  0  0  0  0  0  0  0  0  0
  -29.3174  -20.3469   21.9891 C   0  0  0  0  0  0  0  0  0  0  0  0
  -23.6589  -35.0861   23.4435 C   0  0  0  0  0  0  0  0  0  0  0  0
  -20.5018  -29.9562   20.6889 C   0  0  0  0  0  0  0  0  0  0  0  0
  -21.0511  -32.3987   20.6687 C   0  0  0  0  0  0  0  0  0  0  0  0
  -19.8382  -31.4110   22.6119 C   0  0  0  0  0  0  0  0  0  0  0  0
  -26.1792  -32.6288   24.8877 C   0  0  0  0  0  0  0  0  0  0  0  0
  -29.8792  -17.4618   17.6465 C   0  0  0  0  0  0  0  0  0  0  0  0
  -29.7390  -18.9680   17.5168 C   0  0  0  0  0  0  0  0  0  0  0  0
  -22.2931  -30.8978   22.2923 C   0  0  1  0  0  0  0  0  0  0  0  0
  -24.1379  -33.7465   23.9810 C   0  0  2  0  0  0  0  0  0  0  0  0
  -20.9418  -31.1464   21.5646 C   0  0  0  0  0  0  0  0  0  0  0  0
  -24.7060  -14.7911   21.0734 N   0  0  0  0  0  0  0  0  0  0  0  0
  -25.7164  -13.9210   20.9057 N   0  0  0  0  0  0  0  0  0  0  0  0
  -23.1764  -28.6562   22.8569 N   0  0  0  0  0  0  0  0  0  0  0  0
  -28.7126  -16.2928   20.9828 N   0  0  0  0  0  0  0  0  0  0  0  0
  -26.1985  -11.6743   20.3309 N   0  0  0  0  0  0  0  0  0  0  0  0
  -21.6932  -11.8689   20.0849 N   0  0  0  0  0  0  0  0  0  0  0  0
  -21.9970  -25.2199   23.1688 N   0  0  0  0  0  0  0  0  0  0  0  0
  -22.7211  -31.9976   23.1500 N   0  0  0  0  0  0  0  0  0  0  0  0
  -29.0889  -16.9406   18.7395 N   0  0  0  0  0  0  0  0  0  0  0  0
  -25.5827  -33.8677   24.3253 N   0  3  0  0  0  0  0  0  0  0  0  0
  -23.5130  -10.4932   19.8516 O   0  0  0  0  0  0  0  0  0  0  0  0
  -21.8918  -26.8809   21.5401 O   0  0  0  0  0  0  0  0  0  0  0  0
  -21.4492  -29.6117   24.0979 O   0  0  0  0  0  0  0  0  0  0  0  0
  -24.7522  -32.3679   22.0943 O   0  0  0  0  0  0  0  0  0  0  0  0
  -30.7535  -17.1579   20.3011 O   0  0  0  0  0  0  0  0  0  0  0  0
  -18.5310  -16.3460   21.0807 O   0  0  0  0  0  0  0  0  0  0  0  0
  -28.2311  -27.0173   19.7237 O   0  0  0  0  0  0  0  0  0  1  0  0
  -30.1687  -19.5895   18.7262 O   0  0  0  0  0  0  0  0  0  0  0  0
  -17.8276  -21.3147   18.7958 F   0  0  0  0  0  0  0  0  0  0  0  0
  -16.7110  -16.7210   19.0339 F   0  0  0  0  0  0  0  0  0  0  0  0
  1  2  1  0  0  0  0
  1  5  2  0  0  0  0
  2  6  2  0  0  0  0
  3  8  2  0  0  0  0
  3 17  1  0  0  0  0
  4  9  1  0  0  0  0
  4 17  2  0  0  0  0
  5 19  1  0  0  0  0
  6 21  1  0  0  0  0
  7 10  2  0  0  0  0
  7 20  1  0  0  0  0
  8 26  1  0  0  0  0
  9 26  2  0  0  0  0
 10 27  1  0  0  0  0
 11 12  2  0  0  0  0
 11 28  1  0  0  0  0
 12 30  1  0  0  0  0
 13 22  1  0  0  0  0
 13 23  2  0  0  0  0
 14 24  1  0  0  0  0
 14 27  2  0  0  0  0
 15 25  1  0  0  0  0
 15 29  2  0  0  0  0
 16 30  2  0  0  0  0
 16 31  1  0  0  0  0
 17 32  1  0  0  0  0
 18 32  1  0  0  0  0
 18 33  2  0  0  0  0
 18 34  1  0  0  0  0
 19 21  2  0  0  0  0
 19 39  1  0  0  0  0
 20 24  2  0  0  0  0
 20 40  1  0  0  0  0
 21 52  1  0  0  0  0
 22 25  2  0  0  0  0
 22 51  1  0  0  0  0
 23 29  1  0  0  0  0
 23 56  1  0  0  0  0
 24 41  1  0  0  0  0
 25 57  1  0  0  0  0
 26 84  1  0  0  0  0
 27 85  1  0  0  0  0
 28 31  2  0  0  0  0
 28 84  1  0  0  0  0
 29 86  1  0  0  0  0
 30 87  1  0  0  0  0
 31 88  1  0  0  0  0
 32 69  2  0  0  0  0
 33 70  1  0  0  0  0
 33 73  1  0  0  0  0
 34 74  1  0  0  0  0
 34 79  2  0  0  0  0
 35 53  1  0  0  0  0
 35 75  1  0  0  0  0
 35 80  2  0  0  0  0
 36 66  1  0  0  0  0
 36 71  1  0  0  0  0
 36 81  2  0  0  0  0
 37 67  1  0  0  0  0
 37 76  1  0  0  0  0
 37 82  2  0  0  0  0
 38 72  1  0  0  0  0
 38 77  1  0  0  0  0
 38 83  2  0  0  0  0
 39 42  1  0  0  0  0
 40 53  1  0  0  0  0
 41 71  1  0  0  0  0
 42 44  1  0  0  0  0
 43 45  1  0  0  0  0
 43 49  1  0  0  0  0
 44 52  1  0  0  0  0
 45 54  1  0  0  0  0
 46 47  1  0  0  0  0
 46 56  1  0  0  0  0
 47 56  1  0  0  0  0
 48 51  1  0  0  0  0
 48 55  1  0  0  0  0
 49 72  1  0  0  0  0
 50 54  1  0  0  0  0
 50 72  1  0  0  0  0
 51 55  1  0  0  0  0
 52 75  1  0  0  0  0
 53 71  1  0  0  0  0
 54 70  1  0  0  0  0
 55 85  1  0  0  0  0
 56 58  1  0  0  0  0
 59 67  1  0  0  0  0
 60 68  1  0  0  0  0
 61 68  1  0  0  0  0
 62 68  1  0  0  0  0
 63 78  1  0  0  0  0
 64 65  1  0  0  0  0
 64 77  1  0  0  0  0
 65 86  1  0  0  0  0
 66 68  1  0  0  0  0
 66 76  1  0  0  0  0
 67 78  1  0  0  0  0
 69 70  1  0  0  0  0
M  CHG  1  78   1
M  ISO  4  38 100  55 101  77 100  85 101
M  END
> <Batch ID>
0162

> <Smiles>
CNC(C)C(=O)NC(C(=O)N1Cc2cc([101O:1][101CH:1]3CC3c3cc(C4(C)CC4)c(OCC[100NH:0][100C:0](=O)N4CCCC(n5nc(-c6ccc(Oc7ccc(F)cc7F)cc6)c(C(N)=O)c5N)C4)cc3C)ccc2CC1C(=O)NC1CCCc2ccccc21)C(C)(C)C

> <Shape>
0.237

> <Color>
0.078

> <Negative vol penalty>
0.000

$$$$

  -OEChem-04052322143D

 88 97  0     1  0  0  0  0  0999 V2000
  -26.9655  -37.3844   22.5195 C   0  0  0  0  0  0  0  0  0  0  0  0
  -27.5310  -36.2098   22.0339 C   0  0  0  0  0  0  0  0  0  0  0  0
  -22.1770  -10.4034   22.5971 C   0  0  0  0  0  0  0  0  0  0  0  0
  -23.4826  -10.1842   20.5762 C   0  0  0  0  0  0  0  0  0  0  0  0
  -25.9500  -37.3256   23.4730 C   0  0  0  0  0  0  0  0  0  0  0  0
  -27.0820  -34.9755   22.5023 C   0  0  0  0  0  0  0  0  0  0  0  0
  -26.6406  -29.7662   19.3127 C   0  0  0  0  0  0  0  0  0  0  0  0
  -21.7529   -9.0810   22.4666 C   0  0  0  0  0  0  0  0  0  0  0  0
  -23.0585   -8.8617   20.4457 C   0  0  0  0  0  0  0  0  0  0  0  0
  -27.4723  -28.6513   19.2175 C   0  0  0  0  0  0  0  0  0  0  0  0
  -20.6125   -5.6521   22.8625 C   0  0  0  0  0  0  0  0  0  0  0  0
  -20.6270   -4.8507   24.0040 C   0  0  0  0  0  0  0  0  0  0  0  0
  -26.1463  -27.5268   20.8897 C   0  0  0  0  0  0  0  0  0  0  0  0
  -31.2816  -22.8279   19.1320 C   0  0  0  0  0  0  0  0  0  0  0  0
  -23.0095   -5.1927   24.2137 C   0  0  0  0  0  0  0  0  0  0  0  0
  -23.0418  -10.9550   21.6519 C   0  0  0  0  0  0  0  0  0  0  0  0
  -24.6186  -12.7854   22.4709 C   0  0  0  0  0  0  0  0  0  0  0  0
  -25.4816  -36.0898   23.9463 C   0  0  0  0  0  0  0  0  0  0  0  0
  -25.5601  -29.7739   20.2065 C   0  0  0  0  0  0  0  0  0  0  0  0
  -26.0601  -34.9001   23.4641 C   0  0  0  0  0  0  0  0  0  0  0  0
  -25.3009  -28.6421   20.9925 C   0  0  0  0  0  0  0  0  0  0  0  0
  -29.9388  -22.7981   18.7725 C   0  0  0  0  0  0  0  0  0  0  0  0
  -29.2118  -23.9824   18.7226 C   0  0  0  0  0  0  0  0  0  0  0  0
  -22.1936   -8.3102   21.3909 C   0  0  0  0  0  0  0  0  0  0  0  0
  -27.2270  -27.5325   20.0081 C   0  0  0  0  0  0  0  0  0  0  0  0
  -21.7964   -6.2237   22.3964 C   0  0  0  0  0  0  0  0  0  0  0  0
  -21.8255   -4.6210   24.6797 C   0  0  0  0  0  0  0  0  0  0  0  0
  -22.9949   -5.9940   23.0721 C   0  0  0  0  0  0  0  0  0  0  0  0
  -23.4798  -12.3211   21.7858 C   0  0  0  0  0  0  0  0  0  0  0  0
  -31.8462  -24.0576   19.4298 C   0  0  0  0  0  0  0  0  0  0  0  0
  -29.8690  -25.1604   19.0389 C   0  0  0  0  0  0  0  0  0  0  0  0
  -24.5886  -14.1483   22.3027 C   0  0  0  0  0  0  0  0  0  0  0  0
  -25.6146  -12.0505   23.1946 C   0  0  0  0  0  0  0  0  0  0  0  0
  -24.7549  -31.5206   22.7372 C   0  0  0  0  0  0  0  0  0  0  0  0
  -22.0119  -29.7976   22.5661 C   0  0  0  0  0  0  0  0  0  0  0  0
  -20.4401  -26.9476   21.5397 C   0  0  0  0  0  0  0  0  0  0  0  0
  -23.8970  -18.3793   18.5638 C   0  0  0  0  0  0  0  0  0  0  0  0
  -24.4145  -36.0777   25.0121 C   0  0  0  0  0  0  0  0  0  0  0  0
  -24.6565  -30.9742   20.2780 C   0  0  0  0  0  0  0  0  0  0  0  0
  -24.1419  -28.5922   21.9531 C   0  0  0  0  0  0  0  0  0  0  0  0
  -23.7370  -34.7202   25.1803 C   0  0  0  0  0  0  0  0  0  0  0  0
  -20.9769  -17.1848   20.5098 C   0  0  0  0  0  0  0  0  0  0  0  0
  -24.7783  -33.6067   25.2332 C   0  0  0  0  0  0  0  0  0  0  0  0
  -21.4459  -15.8170   21.0025 C   0  0  0  0  0  0  0  0  0  0  0  0
  -26.9449  -19.8919   17.8864 C   0  0  0  0  0  0  0  0  0  0  0  0
  -26.8078  -19.2785   20.3333 C   0  0  0  0  0  0  0  0  0  0  0  0
  -21.6511  -17.5764   19.1987 C   0  0  0  0  0  0  0  0  0  0  0  0
  -26.1471  -18.6323   17.5597 C   0  0  0  0  0  0  0  0  0  0  0  0
  -25.9869  -18.0409   19.9589 C   0  0  0  0  0  0  0  0  0  0  0  0
  -23.6093  -16.1662   19.7458 C   0  0  0  0  0  0  0  0  0  0  0  0
  -25.5829  -33.5415   23.9294 C   0  0  1  0  0  0  0  0  0  0  0  0
  -23.8909  -31.0682   21.5942 C   0  0  1  0  0  0  0  0  0  0  0  0
  -22.9809  -15.7628   21.0881 C   0  0  2  0  0  0  0  0  0  0  0  0
  -27.7238  -19.6991   19.1860 C   0  0  0  0  0  0  0  0  0  0  0  0
  -27.7705  -23.9814   18.3379 C   0  0  0  0  0  0  0  0  0  0  0  0
  -33.2853  -24.1278   19.8183 C   0  0  0  0  0  0  0  0  0  0  0  0
  -18.2045  -25.8082   21.5772 C   0  0  0  0  0  0  0  0  0  0  0  0
  -22.4393  -29.0608   25.4960 C   0  0  0  0  0  0  0  0  0  0  0  0
  -20.7678  -27.2198   25.2046 C   0  0  0  0  0  0  0  0  0  0  0  0
  -20.0726  -29.5946   24.8891 C   0  0  0  0  0  0  0  0  0  0  0  0
  -20.2689  -26.9314   18.5851 C   0  0  0  0  0  0  0  0  0  0  0  0
  -29.1235  -20.8965   20.8616 C   0  0  0  0  0  0  0  0  0  0  0  0
  -29.2998  -21.4802   18.4473 C   0  0  0  0  0  0  0  0  0  0  0  0
  -29.1413  -26.4646   19.0016 C   0  0  0  0  0  0  0  0  0  1  0  0
  -21.5335  -28.4889   23.1469 C   0  0  1  0  0  0  0  0  0  0  0  0
  -19.1325  -26.7289   20.8001 C   0  0  2  0  0  0  0  0  0  0  0  0
  -21.2264  -28.5924   24.6676 C   0  0  0  0  0  0  0  0  0  0  0  0
  -22.7775  -13.3088   21.2244 N   0  0  0  0  0  0  0  0  0  0  0  0
  -31.1721  -25.2289   19.3924 N   0  0  0  0  0  0  0  0  0  0  0  0
  -23.4768  -14.4073   21.5564 N   0  0  0  0  0  0  0  0  0  0  0  0
  -23.2908  -29.7929   21.9914 N   0  0  0  0  0  0  0  0  0  0  0  0
  -23.1076  -17.4716   19.2896 N   0  0  0  0  0  0  0  0  0  0  0  0
  -25.2887  -18.2453   18.6810 N   0  0  0  0  0  0  0  0  0  0  0  0
  -25.4050  -15.1383   22.7219 N   0  0  0  0  0  0  0  0  0  0  0  0
  -25.4937  -10.6562   23.2687 N   0  0  0  0  0  0  0  0  0  0  0  0
  -24.8112  -32.8927   22.8911 N   0  0  0  0  0  0  0  0  0  0  0  0
  -20.3952  -28.0735   22.3344 N   0  0  0  0  0  0  0  0  0  0  0  0
  -19.3885  -26.1197   19.4643 N   0  3  0  0  0  0  0  0  0  0  0  0
  -28.3949  -20.9757   19.5433 N   0  3  1  0  0  0  0  0  0  0  0  0
  -26.5740  -12.6152   23.7727 O   0  0  0  0  0  0  0  0  0  0  0  0
  -25.3269  -30.6866   23.4292 O   0  0  0  0  0  0  0  0  0  0  0  0
  -21.2751  -30.7857   22.6139 O   0  0  0  0  0  0  0  0  0  0  0  0
  -21.4035  -26.1928   21.4267 O   0  0  0  0  0  0  0  0  0  0  0  0
  -23.3874  -19.2572   17.8560 O   0  0  0  0  0  0  0  0  0  0  0  0
  -21.7802   -7.0197   21.2634 O   0  0  0  0  0  0  0  0  0  0  0  0
  -28.0536  -26.4217   19.9158 O   0  0  0  0  0  0  0  0  0  1  0  0
  -21.8391   -3.8527   25.7768 F   0  0  0  0  0  0  0  0  0  0  0  0
  -24.1354   -6.5414   22.6299 F   0  0  0  0  0  0  0  0  0  0  0  0
  1  2  1  0  0  0  0
  1  5  2  0  0  0  0
  2  6  2  0  0  0  0
  3  8  2  0  0  0  0
  3 16  1  0  0  0  0
  4  9  1  0  0  0  0
  4 16  2  0  0  0  0
  5 18  1  0  0  0  0
  6 20  1  0  0  0  0
  7 10  2  0  0  0  0
  7 19  1  0  0  0  0
  8 24  1  0  0  0  0
  9 24  2  0  0  0  0
 10 25  1  0  0  0  0
 11 12  2  0  0  0  0
 11 26  1  0  0  0  0
 12 27  1  0  0  0  0
 13 21  1  0  0  0  0
 13 25  2  0  0  0  0
 14 22  2  0  0  0  0
 14 30  1  0  0  0  0
 15 27  2  0  0  0  0
 15 28  1  0  0  0  0
 16 29  1  0  0  0  0
 17 29  1  0  0  0  0
 17 32  2  0  0  0  0
 17 33  1  0  0  0  0
 18 20  2  0  0  0  0
 18 38  1  0  0  0  0
 19 21  2  0  0  0  0
 19 39  1  0  0  0  0
 20 51  1  0  0  0  0
 21 40  1  0  0  0  0
 22 23  1  0  0  0  0
 22 63  1  0  0  0  0
 23 31  2  0  0  0  0
 23 55  1  0  0  0  0
 24 85  1  0  0  0  0
 25 86  1  0  0  0  0
 26 28  2  0  0  0  0
 26 85  1  0  0  0  0
 27 87  1  0  0  0  0
 28 88  1  0  0  0  0
 29 68  2  0  0  0  0
 30 56  1  0  0  0  0
 30 69  2  0  0  0  0
 31 64  1  0  0  0  0
 31 69  1  0  0  0  0
 32 70  1  0  0  0  0
 32 74  1  0  0  0  0
 33 75  1  0  0  0  0
 33 80  2  0  0  0  0
 34 52  1  0  0  0  0
 34 76  1  0  0  0  0
 34 81  2  0  0  0  0
 35 65  1  0  0  0  0
 35 71  1  0  0  0  0
 35 82  2  0  0  0  0
 36 66  1  0  0  0  0
 36 77  1  0  0  0  0
 36 83  2  0  0  0  0
 37 72  1  0  0  0  0
 37 73  1  0  0  0  0
 37 84  2  0  0  0  0
 38 41  1  0  0  0  0
 39 52  1  0  0  0  0
 40 71  1  0  0  0  0
 41 43  1  0  0  0  0
 42 44  1  0  0  0  0
 42 47  1  0  0  0  0
 43 51  1  0  0  0  0
 44 53  1  0  0  0  0
 45 48  1  0  0  0  0
 45 54  1  0  0  0  0
 46 49  1  0  0  0  0
 46 54  1  0  0  0  0
 47 72  1  0  0  0  0
 48 73  1  0  0  0  0
 49 73  1  0  0  0  0
 50 53  1  0  0  0  0
 50 72  1  0  0  0  0
 51 76  1  0  0  0  0
 52 71  1  0  0  0  0
 53 70  1  0  0  0  0
 54 79  1  0  0  0  0
 57 66  1  0  0  0  0
 58 67  1  0  0  0  0
 59 67  1  0  0  0  0
 60 67  1  0  0  0  0
 61 78  1  0  0  0  0
 62 79  1  0  0  0  0
 63 79  1  0  0  0  0
 64 86  1  0  0  0  0
 65 67  1  0  0  0  0
 65 77  1  0  0  0  0
 66 78  1  0  0  0  0
 68 70  1  0  0  0  0
M  CHG  2  78   1  79   1
M  ISO  4  37 100  64 101  73 100  86 101
M  END
> <Batch ID>
0162

> <Smiles>
CNC(C)C(=O)NC(C(=O)N1Cc2cc([101O:1][101CH2:1]c3nc(C)cc(CN(C)C4CC[100N:0]([100C:0](=O)N5CCCC(n6nc(-c7ccc(Oc8ccc(F)cc8F)cc7)c(C(N)=O)c6N)C5)CC4)c3C)ccc2CC1C(=O)NC1CCCc2ccccc21)C(C)(C)C

> <Shape>
0.328

> <Color>
0.116

> <Negative vol penalty>
0.000

$$$$

  -OEChem-04052322143D

 88 97  0     1  0  0  0  0  0999 V2000
  -26.8160  -34.0731   22.0132 C   0  0  0  0  0  0  0  0  0  0  0  0
  -27.0072  -32.8239   21.4314 C   0  0  0  0  0  0  0  0  0  0  0  0
  -23.0762   -9.9097   19.9308 C   0  0  0  0  0  0  0  0  0  0  0  0
  -23.8544   -9.8843   22.2179 C   0  0  0  0  0  0  0  0  0  0  0  0
  -25.9550  -34.2097   23.1012 C   0  0  0  0  0  0  0  0  0  0  0  0
  -26.3381  -31.7103   21.9382 C   0  0  0  0  0  0  0  0  0  0  0  0
  -24.2136  -26.9286   18.7558 C   0  0  0  0  0  0  0  0  0  0  0  0
  -22.3419   -8.7477   20.1677 C   0  0  0  0  0  0  0  0  0  0  0  0
  -23.1200   -8.7223   22.4548 C   0  0  0  0  0  0  0  0  0  0  0  0
  -24.7277  -25.6536   18.5232 C   0  0  0  0  0  0  0  0  0  0  0  0
  -19.9020   -7.8934   23.0697 C   0  0  0  0  0  0  0  0  0  0  0  0
  -19.1547   -7.8294   24.2457 C   0  0  0  0  0  0  0  0  0  0  0  0
  -29.3205  -18.9406   22.2813 C   0  0  0  0  0  0  0  0  0  0  0  0
  -23.4055  -24.7942   20.3487 C   0  0  0  0  0  0  0  0  0  0  0  0
  -28.8810  -18.2689   24.9531 C   0  0  0  0  0  0  0  0  0  0  0  0
  -20.4145   -5.8885   24.9405 C   0  0  0  0  0  0  0  0  0  0  0  0
  -23.8325  -10.4780   20.9559 C   0  0  0  0  0  0  0  0  0  0  0  0
  -24.1570  -13.0070   20.8745 C   0  0  0  0  0  0  0  0  0  0  0  0
  -25.2676  -33.0989   23.6154 C   0  0  0  0  0  0  0  0  0  0  0  0
  -23.2984  -27.1483   19.7953 C   0  0  0  0  0  0  0  0  0  0  0  0
  -25.4681  -31.8320   23.0350 C   0  0  0  0  0  0  0  0  0  0  0  0
  -28.5066  -19.7458   23.0781 C   0  0  0  0  0  0  0  0  0  0  0  0
  -22.8794  -26.0723   20.5908 C   0  0  0  0  0  0  0  0  0  0  0  0
  -29.9146  -17.7994   22.8205 C   0  0  0  0  0  0  0  0  0  0  0  0
  -28.2869  -19.4100   24.4139 C   0  0  0  0  0  0  0  0  0  0  0  0
  -29.6949  -17.4636   24.1563 C   0  0  0  0  0  0  0  0  0  0  0  0
  -22.3637   -8.1540   21.4297 C   0  0  0  0  0  0  0  0  0  0  0  0
  -24.3259  -24.5867   19.3216 C   0  0  0  0  0  0  0  0  0  0  0  0
  -20.9055   -6.9549   22.8290 C   0  0  0  0  0  0  0  0  0  0  0  0
  -19.4110   -6.8269   25.1812 C   0  0  0  0  0  0  0  0  0  0  0  0
  -21.1618   -5.9525   23.7645 C   0  0  0  0  0  0  0  0  0  0  0  0
  -24.5918  -11.6780   20.7116 C   0  0  0  0  0  0  0  0  0  0  0  0
  -25.2413  -13.7695   20.5149 C   0  0  0  0  0  0  0  0  0  0  0  0
  -22.8866  -13.5074   21.3118 C   0  0  0  0  0  0  0  0  0  0  0  0
  -23.2924  -28.9043   22.4448 C   0  0  0  0  0  0  0  0  0  0  0  0
  -20.2148  -27.8979   22.6391 C   0  0  0  0  0  0  0  0  0  0  0  0
  -17.8718  -25.5628   21.7998 C   0  0  0  0  0  0  0  0  0  0  0  0
  -30.7196  -14.8216   20.6766 C   0  0  0  0  0  0  0  0  0  0  0  0
  -24.3836  -33.2875   24.8228 C   0  0  0  0  0  0  0  0  0  0  0  0
  -22.7329  -28.5245   20.0161 C   0  0  0  0  0  0  0  0  0  0  0  0
  -21.8838  -26.2516   21.7066 C   0  0  0  0  0  0  0  0  0  0  0  0
  -23.4246  -32.1244   25.0631 C   0  0  0  0  0  0  0  0  0  0  0  0
  -29.5785  -12.4689   18.2602 C   0  0  0  0  0  0  0  0  0  0  0  0
  -24.1602  -30.7932   24.9471 C   0  0  0  0  0  0  0  0  0  0  0  0
  -28.1465  -12.1586   18.6996 C   0  0  0  0  0  0  0  0  0  0  0  0
  -28.8842  -21.9852   21.9284 C   0  0  0  0  0  0  0  0  0  0  0  0
  -30.5038  -12.6761   19.4573 C   0  0  0  0  0  0  0  0  0  0  0  0
  -28.6085  -13.3719   20.8706 C   0  0  0  0  0  0  0  0  0  0  0  0
  -28.0293  -22.9332   21.1081 C   0  0  0  0  0  0  0  0  0  0  0  0
  -27.8746  -20.9771   22.4722 C   0  0  1  0  0  0  0  0  0  0  0  0
  -24.7412  -30.6047   23.5405 C   0  0  1  0  0  0  0  0  0  0  0  0
  -22.1981  -28.7309   21.4299 C   0  0  1  0  0  0  0  0  0  0  0  0
  -27.6261  -13.2101   19.6980 C   0  0  2  0  0  0  0  0  0  0  0  0
  -26.9901  -20.7079   21.2480 C   0  0  1  0  0  0  0  0  0  0  0  0
  -27.4199  -20.2572   25.2863 C   0  0  0  0  0  0  0  0  0  0  0  0
  -30.3196  -16.2464   24.7552 C   0  0  0  0  0  0  0  0  0  0  0  0
  -25.5981  -20.2028   21.5960 C   0  0  0  0  0  0  0  0  0  0  0  0
  -15.4520  -24.9903   22.1378 C   0  0  0  0  0  0  0  0  0  0  0  0
  -20.8408  -26.9307   25.4644 C   0  0  0  0  0  0  0  0  0  0  0  0
  -18.7472  -25.5600   25.3841 C   0  0  0  0  0  0  0  0  0  0  0  0
  -18.6162  -28.0451   25.2122 C   0  0  0  0  0  0  0  0  0  0  0  0
  -17.3050  -25.7400   18.9004 C   0  0  0  0  0  0  0  0  0  0  0  0
  -30.7814  -16.9521   21.9480 C   0  0  0  0  0  0  0  0  0  0  0  0
  -26.8326  -22.0154   19.0845 C   0  0  0  0  0  0  0  0  0  0  0  0
  -26.1447  -23.2590   18.5568 C   0  0  0  0  0  0  0  0  0  1  0  0
  -19.5145  -26.7134   23.2599 C   0  0  1  0  0  0  0  0  0  0  0  0
  -16.4629  -25.7013   21.2516 C   0  0  2  0  0  0  0  0  0  0  0  0
  -19.4499  -26.8090   24.8104 C   0  0  0  0  0  0  0  0  0  0  0  0
  -25.8538  -11.5973   20.2818 N   0  0  0  0  0  0  0  0  0  0  0  0
  -26.2214  -12.8853   20.1715 N   0  0  0  0  0  0  0  0  0  0  0  0
  -21.3644  -27.6173   21.8870 N   0  0  0  0  0  0  0  0  0  0  0  0
  -29.9536  -13.6864   20.3643 N   0  0  0  0  0  0  0  0  0  0  0  0
  -25.4425  -15.1033   20.4620 N   0  0  0  0  0  0  0  0  0  0  0  0
  -21.8833  -12.5862   21.6421 N   0  0  0  0  0  0  0  0  0  0  0  0
  -23.7018  -30.2134   22.6126 N   0  0  0  0  0  0  0  0  0  0  0  0
  -18.2105  -26.6244   22.6119 N   0  0  0  0  0  0  0  0  0  0  0  0
  -30.1212  -15.7326   21.5385 N   0  0  0  0  0  0  0  0  0  0  0  0
  -26.8893  -22.0787   20.5807 N   0  3  2  0  0  0  0  0  0  0  0  0
  -16.3801  -25.1181   19.8827 N   0  3  0  0  0  0  0  0  0  0  0  0
  -22.6428  -14.7354   21.3911 O   0  0  0  0  0  0  0  0  0  0  0  0
  -23.7317  -27.9233   23.0333 O   0  0  0  0  0  0  0  0  0  0  0  0
  -19.7546  -29.0297   22.8090 O   0  0  0  0  0  0  0  0  0  0  0  0
  -18.5977  -24.6065   21.5370 O   0  0  0  0  0  0  0  0  0  0  0  0
  -31.8508  -15.0120   20.2170 O   0  0  0  0  0  0  0  0  0  0  0  0
  -21.6471   -7.0203   21.6613 O   0  0  0  0  0  0  0  0  0  0  0  0
  -24.8265  -23.3414   19.0971 O   0  0  0  0  0  0  0  0  0  1  0  0
  -18.6943   -6.7665   26.3112 F   0  0  0  0  0  0  0  0  0  0  0  0
  -22.1254   -5.0488   23.5394 F   0  0  0  0  0  0  0  0  0  0  0  0
  1  2  1  0  0  0  0
  1  5  2  0  0  0  0
  2  6  2  0  0  0  0
  3  8  2  0  0  0  0
  3 17  1  0  0  0  0
  4  9  1  0  0  0  0
  4 17  2  0  0  0  0
  5 19  1  0  0  0  0
  6 21  1  0  0  0  0
  7 10  2  0  0  0  0
  7 20  1  0  0  0  0
  8 27  1  0  0  0  0
  9 27  2  0  0  0  0
 10 28  1  0  0  0  0
 11 12  2  0  0  0  0
 11 29  1  0  0  0  0
 12 30  1  0  0  0  0
 13 22  1  0  0  0  0
 13 24  2  0  0  0  0
 14 23  1  0  0  0  0
 14 28  2  0  0  0  0
 15 25  1  0  0  0  0
 15 26  2  0  0  0  0
 16 30  2  0  0  0  0
 16 31  1  0  0  0  0
 17 32  1  0  0  0  0
 18 32  1  0  0  0  0
 18 33  2  0  0  0  0
 18 34  1  0  0  0  0
 19 21  2  0  0  0  0
 19 39  1  0  0  0  0
 20 23  2  0  0  0  0
 20 40  1  0  0  0  0
 21 51  1  0  0  0  0
 22 25  2  0  0  0  0
 22 50  1  0  0  0  0
 23 41  1  0  0  0  0
 24 26  1  0  0  0  0
 24 63  1  0  0  0  0
 25 55  1  0  0  0  0
 26 56  1  0  0  0  0
 27 85  1  0  0  0  0
 28 86  1  0  0  0  0
 29 31  2  0  0  0  0
 29 85  1  0  0  0  0
 30 87  1  0  0  0  0
 31 88  1  0  0  0  0
 32 69  2  0  0  0  0
 33 70  1  0  0  0  0
 33 73  1  0  0  0  0
 34 74  1  0  0  0  0
 34 80  2  0  0  0  0
 35 52  1  0  0  0  0
 35 75  1  0  0  0  0
 35 81  2  0  0  0  0
 36 66  1  0  0  0  0
 36 71  1  0  0  0  0
 36 82  2  0  0  0  0
 37 67  1  0  0  0  0
 37 76  1  0  0  0  0
 37 83  2  0  0  0  0
 38 72  1  0  0  0  0
 38 77  1  0  0  0  0
 38 84  2  0  0  0  0
 39 42  1  0  0  0  0
 40 52  1  0  0  0  0
 41 71  1  0  0  0  0
 42 44  1  0  0  0  0
 43 45  1  0  0  0  0
 43 47  1  0  0  0  0
 44 51  1  0  0  0  0
 45 53  1  0  0  0  0
 46 49  1  0  0  0  0
 46 50  1  0  0  0  0
 47 72  1  0  0  0  0
 48 53  1  0  0  0  0
 48 72  1  0  0  0  0
 49 78  1  0  0  0  0
 50 54  1  0  0  0  0
 51 75  1  0  0  0  0
 52 71  1  0  0  0  0
 53 70  1  0  0  0  0
 54 57  1  0  0  0  0
 54 78  1  0  0  0  0
 58 67  1  0  0  0  0
 59 68  1  0  0  0  0
 60 68  1  0  0  0  0
 61 68  1  0  0  0  0
 62 79  1  0  0  0  0
 63 77  1  0  0  0  0
 64 65  1  0  0  0  0
 64 78  1  0  0  0  0
 65 86  1  0  0  0  0
 66 68  1  0  0  0  0
 66 76  1  0  0  0  0
 67 79  1  0  0  0  0
 69 70  1  0  0  0  0
M  CHG  2  78   1  79   1
M  ISO  4  38 100  65 101  77 100  86 101
M  END
> <Batch ID>
0162

> <Smiles>
CNC(C)C(=O)NC(C(=O)N1Cc2cc([101O:1][101CH2:1]CN3CCC(c4cc(C[100NH:0][100C:0](=O)N5CCCC(n6nc(-c7ccc(Oc8ccc(F)cc8F)cc7)c(C(N)=O)c6N)C5)c(C)cc4C)C3C)ccc2CC1C(=O)NC1CCCc2ccccc21)C(C)(C)C

> <Shape>
0.330

> <Color>
0.196

> <Negative vol penalty>
0.000

$$$$

  -OEChem-04052322143D

 87 96  0     1  0  0  0  0  0999 V2000
  -28.9232  -37.6920   20.7391 C   0  0  0  0  0  0  0  0  0  0  0  0
  -29.2249  -36.3575   20.4872 C   0  0  0  0  0  0  0  0  0  0  0  0
  -24.4373   -9.0489   21.7754 C   0  0  0  0  0  0  0  0  0  0  0  0
  -23.9873   -8.4990   19.4662 C   0  0  0  0  0  0  0  0  0  0  0  0
  -27.9661  -38.0201   21.6984 C   0  0  0  0  0  0  0  0  0  0  0  0
  -28.5705  -35.3502   21.1954 C   0  0  0  0  0  0  0  0  0  0  0  0
  -26.9657  -29.8237   19.1006 C   0  0  0  0  0  0  0  0  0  0  0  0
  -23.3373   -8.2879   22.1710 C   0  0  0  0  0  0  0  0  0  0  0  0
  -22.8873   -7.7379   19.8618 C   0  0  0  0  0  0  0  0  0  0  0  0
  -27.5600  -28.5678   19.2163 C   0  0  0  0  0  0  0  0  0  0  0  0
  -22.6034   -5.0184   22.6239 C   0  0  0  0  0  0  0  0  0  0  0  0
  -22.7673   -4.1576   23.7091 C   0  0  0  0  0  0  0  0  0  0  0  0
  -26.1298  -28.0706   21.0941 C   0  0  0  0  0  0  0  0  0  0  0  0
  -21.0263   -5.3321   24.9036 C   0  0  0  0  0  0  0  0  0  0  0  0
  -24.7622   -9.1545   20.4230 C   0  0  0  0  0  0  0  0  0  0  0  0
  -27.2261   -9.5002   19.8596 C   0  0  0  0  0  0  0  0  0  0  0  0
  -27.2926  -37.0160   22.4118 C   0  0  0  0  0  0  0  0  0  0  0  0
  -25.9548  -30.2173   19.9891 C   0  0  0  0  0  0  0  0  0  0  0  0
  -27.6044  -35.6652   22.1661 C   0  0  0  0  0  0  0  0  0  0  0  0
  -25.5224  -29.3310   20.9860 C   0  0  0  0  0  0  0  0  0  0  0  0
  -30.0662  -24.4698   20.7261 C   0  0  0  0  0  0  0  0  0  0  0  0
  -29.2378  -24.7536   19.6461 C   0  0  0  0  0  0  0  0  0  0  0  0
  -30.5058  -23.1672   20.9345 C   0  0  0  0  0  0  0  0  0  0  0  0
  -22.5623   -7.6324   21.2143 C   0  0  0  0  0  0  0  0  0  0  0  0
  -27.1441  -27.6922   20.2150 C   0  0  0  0  0  0  0  0  0  0  0  0
  -21.6511   -6.0362   22.6785 C   0  0  0  0  0  0  0  0  0  0  0  0
  -21.9787   -4.3144   24.8489 C   0  0  0  0  0  0  0  0  0  0  0  0
  -20.8625   -6.1930   23.8183 C   0  0  0  0  0  0  0  0  0  0  0  0
  -25.8981   -9.9409   20.0136 C   0  0  0  0  0  0  0  0  0  0  0  0
  -28.8804  -23.7078   18.8104 C   0  0  0  0  0  0  0  0  0  0  0  0
  -30.0916  -22.1924   20.0412 C   0  0  0  0  0  0  0  0  0  0  0  0
  -27.9147  -10.6187   19.4581 C   0  0  0  0  0  0  0  0  0  0  0  0
  -27.7872   -8.1962   20.0612 C   0  0  0  0  0  0  0  0  0  0  0  0
  -25.6344  -32.5393   22.1361 C   0  0  0  0  0  0  0  0  0  0  0  0
  -22.6049  -31.3986   22.3429 C   0  0  0  0  0  0  0  0  0  0  0  0
  -20.4606  -28.7778   21.9183 C   0  0  0  0  0  0  0  0  0  0  0  0
  -29.1784  -15.8249   19.7807 C   0  0  0  0  0  0  0  0  0  0  0  0
  -26.2998  -37.4207   23.4726 C   0  0  0  0  0  0  0  0  0  0  0  0
  -25.3053  -31.5651   19.8343 C   0  0  0  0  0  0  0  0  0  0  0  0
  -24.4269  -29.6977   21.9523 C   0  0  0  0  0  0  0  0  0  0  0  0
  -25.3821  -36.2834   23.9137 C   0  0  0  0  0  0  0  0  0  0  0  0
  -26.2663  -15.1461   17.9401 C   0  0  0  0  0  0  0  0  0  0  0  0
  -26.1897  -35.0153   24.1716 C   0  0  0  0  0  0  0  0  0  0  0  0
  -26.0115  -13.6836   18.3038 C   0  0  0  0  0  0  0  0  0  0  0  0
  -28.7447  -19.3173   19.7215 C   0  0  0  0  0  0  0  0  0  0  0  0
  -31.1721  -18.6493   19.5500 C   0  0  0  0  0  0  0  0  0  0  0  0
  -26.7285  -15.9647   19.1469 C   0  0  0  0  0  0  0  0  0  0  0  0
  -28.3621  -18.0669   18.9241 C   0  0  0  0  0  0  0  0  0  0  0  0
  -30.7454  -17.4317   18.7348 C   0  0  0  0  0  0  0  0  0  0  0  0
  -27.6443  -13.9286   20.2119 C   0  0  0  0  0  0  0  0  0  0  0  0
  -26.8981  -34.5434   22.8961 C   0  0  1  0  0  0  0  0  0  0  0  0
  -24.6413  -32.0592   21.1158 C   0  0  1  0  0  0  0  0  0  0  0  0
  -27.2346  -13.0681   19.0067 C   0  0  1  0  0  0  0  0  0  0  0  0
  -30.1617  -19.7874   19.3845 C   0  0  0  0  0  0  0  0  0  0  0  0
  -30.4830  -25.5623   21.6585 C   0  0  0  0  0  0  0  0  0  0  0  0
  -31.3953  -22.8405   22.0884 C   0  0  0  0  0  0  0  0  0  0  0  0
  -27.9925  -23.9512   17.6341 C   0  0  0  0  0  0  0  0  0  0  0  0
  -18.0518  -28.1364   22.2082 C   0  0  0  0  0  0  0  0  0  0  0  0
  -23.0324  -31.1635   25.3549 C   0  0  0  0  0  0  0  0  0  0  0  0
  -21.0236  -29.6724   25.4533 C   0  0  0  0  0  0  0  0  0  0  0  0
  -20.7856  -32.0337   24.6849 C   0  0  0  0  0  0  0  0  0  0  0  0
  -20.1372  -28.2334   19.0273 C   0  0  0  0  0  0  0  0  0  0  0  0
  -28.7502  -26.1414   19.3957 C   0  0  0  0  0  0  0  0  0  1  0  0
  -21.9130  -30.3470   23.1763 C   0  0  1  0  0  0  0  0  0  0  0  0
  -19.0990  -28.6879   21.2532 C   0  0  2  0  0  0  0  0  0  0  0  0
  -21.7107  -30.7977   24.6505 C   0  0  0  0  0  0  0  0  0  0  0  0
  -25.7495  -11.2383   19.7331 N   0  0  0  0  0  0  0  0  0  0  0  0
  -29.2874  -22.4299   18.9807 N   0  0  0  0  0  0  0  0  0  0  0  0
  -26.9932  -11.6224   19.3988 N   0  0  0  0  0  0  0  0  0  0  0  0
  -23.8273  -31.0291   21.7641 N   0  0  0  0  0  0  0  0  0  0  0  0
  -27.8706  -15.3179   19.8078 N   0  0  0  0  0  0  0  0  0  0  0  0
  -29.3831  -17.0203   19.0756 N   0  0  0  0  0  0  0  0  0  0  0  0
  -29.2126  -10.8318   19.1537 N   0  0  0  0  0  0  0  0  0  0  0  0
  -26.9383   -7.1602   20.4741 N   0  0  0  0  0  0  0  0  0  0  0  0
  -30.5228  -20.8934   20.2438 N   0  0  0  0  0  0  0  0  0  0  0  0
  -25.9629  -33.8761   22.0159 N   0  0  0  0  0  0  0  0  0  0  0  0
  -20.6755  -30.0203   22.4761 N   0  0  0  0  0  0  0  0  0  0  0  0
  -19.1630  -27.7967   20.0604 N   0  3  0  0  0  0  0  0  0  0  0  0
  -29.0082   -7.9606   19.8964 O   0  0  0  0  0  0  0  0  0  0  0  0
  -26.0693  -31.7552   22.9715 O   0  0  0  0  0  0  0  0  0  0  0  0
  -22.0766  -32.5047   22.2045 O   0  0  0  0  0  0  0  0  0  0  0  0
  -21.2527  -27.8384   21.9441 O   0  0  0  0  0  0  0  0  0  0  0  0
  -30.1089  -15.2439   20.3531 O   0  0  0  0  0  0  0  0  0  0  0  0
  -21.4891   -6.8895   21.6000 O   0  0  0  0  0  0  0  0  0  0  0  0
  -27.7270  -26.4575   20.3313 O   0  0  0  0  0  0  0  0  0  1  0  0
  -22.1351   -3.4867   25.8904 F   0  0  0  0  0  0  0  0  0  0  0  0
  -19.9451   -7.1681   23.8762 F   0  0  0  0  0  0  0  0  0  0  0  0
  1  2  1  0  0  0  0
  1  5  2  0  0  0  0
  2  6  2  0  0  0  0
  3  8  2  0  0  0  0
  3 15  1  0  0  0  0
  4  9  1  0  0  0  0
  4 15  2  0  0  0  0
  5 17  1  0  0  0  0
  6 19  1  0  0  0  0
  7 10  2  0  0  0  0
  7 18  1  0  0  0  0
  8 24  1  0  0  0  0
  9 24  2  0  0  0  0
 10 25  1  0  0  0  0
 11 12  2  0  0  0  0
 11 26  1  0  0  0  0
 12 27  1  0  0  0  0
 13 20  1  0  0  0  0
 13 25  2  0  0  0  0
 14 27  2  0  0  0  0
 14 28  1  0  0  0  0
 15 29  1  0  0  0  0
 16 29  1  0  0  0  0
 16 32  2  0  0  0  0
 16 33  1  0  0  0  0
 17 19  2  0  0  0  0
 17 38  1  0  0  0  0
 18 20  2  0  0  0  0
 18 39  1  0  0  0  0
 19 51  1  0  0  0  0
 20 40  1  0  0  0  0
 21 22  2  0  0  0  0
 21 23  1  0  0  0  0
 21 55  1  0  0  0  0
 22 30  1  0  0  0  0
 22 63  1  0  0  0  0
 23 31  2  0  0  0  0
 23 56  1  0  0  0  0
 24 84  1  0  0  0  0
 25 85  1  0  0  0  0
 26 28  2  0  0  0  0
 26 84  1  0  0  0  0
 27 86  1  0  0  0  0
 28 87  1  0  0  0  0
 29 67  2  0  0  0  0
 30 57  1  0  0  0  0
 30 68  2  0  0  0  0
 31 68  1  0  0  0  0
 31 75  1  0  0  0  0
 32 69  1  0  0  0  0
 32 73  1  0  0  0  0
 33 74  1  0  0  0  0
 33 79  2  0  0  0  0
 34 52  1  0  0  0  0
 34 76  1  0  0  0  0
 34 80  2  0  0  0  0
 35 64  1  0  0  0  0
 35 70  1  0  0  0  0
 35 81  2  0  0  0  0
 36 65  1  0  0  0  0
 36 77  1  0  0  0  0
 36 82  2  0  0  0  0
 37 71  1  0  0  0  0
 37 72  1  0  0  0  0
 37 83  2  0  0  0  0
 38 41  1  0  0  0  0
 39 52  1  0  0  0  0
 40 70  1  0  0  0  0
 41 43  1  0  0  0  0
 42 44  1  0  0  0  0
 42 47  1  0  0  0  0
 43 51  1  0  0  0  0
 44 53  1  0  0  0  0
 45 48  1  0  0  0  0
 45 54  1  0  0  0  0
 46 49  1  0  0  0  0
 46 54  1  0  0  0  0
 47 71  1  0  0  0  0
 48 72  1  0  0  0  0
 49 72  1  0  0  0  0
 50 53  1  0  0  0  0
 50 71  1  0  0  0  0
 51 76  1  0  0  0  0
 52 70  1  0  0  0  0
 53 69  1  0  0  0  0
 54 75  1  0  0  0  0
 58 65  1  0  0  0  0
 59 66  1  0  0  0  0
 60 66  1  0  0  0  0
 61 66  1  0  0  0  0
 62 78  1  0  0  0  0
 63 85  1  0  0  0  0
 64 66  1  0  0  0  0
 64 77  1  0  0  0  0
 65 78  1  0  0  0  0
 67 69  1  0  0  0  0
M  CHG  1  78   1
M  ISO  4  37 100  63 101  72 100  85 101
M  END
> <Batch ID>
0162

> <Smiles>
CNC(C)C(=O)NC(C(=O)N1Cc2cc([101O:1][101CH2:1]c3c(C)nc(NC4CC[100N:0]([100C:0](=O)N5CCCC(n6nc(-c7ccc(Oc8ccc(F)cc8F)cc7)c(C(N)=O)c6N)C5)CC4)c(C)c3C)ccc2CC1C(=O)NC1CCCc2ccccc21)C(C)(C)C

> <Shape>
0.314

> <Color>
0.108

> <Negative vol penalty>
0.000

$$$$

  -OEChem-04052322143D

 87 96  0     1  0  0  0  0  0999 V2000
  -31.8832  -32.1939   24.8240 C   0  0  0  0  0  0  0  0  0  0  0  0
  -31.6712  -31.5471   23.6107 C   0  0  0  0  0  0  0  0  0  0  0  0
  -24.5414  -10.0415   22.3760 C   0  0  0  0  0  0  0  0  0  0  0  0
  -24.2990  -11.4136   24.3497 C   0  0  0  0  0  0  0  0  0  0  0  0
  -31.0728  -31.9006   25.9199 C   0  0  0  0  0  0  0  0  0  0  0  0
  -30.6493  -30.6057   23.4929 C   0  0  0  0  0  0  0  0  0  0  0  0
  -27.1867  -29.5288   18.5577 C   0  0  0  0  0  0  0  0  0  0  0  0
  -24.0703   -8.9371   23.0859 C   0  0  0  0  0  0  0  0  0  0  0  0
  -23.8278  -10.3092   25.0597 C   0  0  0  0  0  0  0  0  0  0  0  0
  -27.2560  -28.5612   17.5563 C   0  0  0  0  0  0  0  0  0  0  0  0
  -21.0857   -7.7234   24.1115 C   0  0  0  0  0  0  0  0  0  0  0  0
  -20.1355   -6.9117   23.4919 C   0  0  0  0  0  0  0  0  0  0  0  0
  -25.6491  -27.2170   18.7523 C   0  0  0  0  0  0  0  0  0  0  0  0
  -21.6370   -5.0263   23.6592 C   0  0  0  0  0  0  0  0  0  0  0  0
  -24.6558  -11.2798   23.0080 C   0  0  0  0  0  0  0  0  0  0  0  0
  -24.3803  -13.3467   21.5383 C   0  0  0  0  0  0  0  0  0  0  0  0
  -30.0343  -30.9622   25.8129 C   0  0  0  0  0  0  0  0  0  0  0  0
  -26.3549  -29.3424   19.6712 C   0  0  0  0  0  0  0  0  0  0  0  0
  -29.8251  -30.2986   24.5889 C   0  0  0  0  0  0  0  0  0  0  0  0
  -25.5692  -28.1848   19.7652 C   0  0  0  0  0  0  0  0  0  0  0  0
  -26.9430  -23.1636   17.0912 C   0  0  0  0  0  0  0  0  0  0  0  0
  -28.0416  -23.9541   16.7727 C   0  0  0  0  0  0  0  0  0  0  0  0
  -26.9961  -22.3221   18.1967 C   0  0  0  0  0  0  0  0  0  0  0  0
  -23.7135   -9.0709   24.4277 C   0  0  0  0  0  0  0  0  0  0  0  0
  -26.4893  -27.4038   17.6549 C   0  0  0  0  0  0  0  0  0  0  0  0
  -22.3116   -7.1866   24.5049 C   0  0  0  0  0  0  0  0  0  0  0  0
  -20.4112   -5.5632   23.2658 C   0  0  0  0  0  0  0  0  0  0  0  0
  -22.5872   -5.8380   24.2788 C   0  0  0  0  0  0  0  0  0  0  0  0
  -25.1429  -12.4209   22.2753 C   0  0  0  0  0  0  0  0  0  0  0  0
  -29.1606  -23.8670   17.5852 C   0  0  0  0  0  0  0  0  0  0  0  0
  -28.1619  -22.3079   18.9454 C   0  0  0  0  0  0  0  0  0  0  0  0
  -25.3040  -14.2313   21.0378 C   0  0  0  0  0  0  0  0  0  0  0  0
  -22.9635  -13.4020   21.3253 C   0  0  0  0  0  0  0  0  0  0  0  0
  -26.8250  -29.0869   22.8045 C   0  0  0  0  0  0  0  0  0  0  0  0
  -23.5826  -29.1125   22.8991 C   0  0  0  0  0  0  0  0  0  0  0  0
  -20.6324  -28.5419   21.2813 C   0  0  0  0  0  0  0  0  0  0  0  0
  -29.8216  -17.4416   21.6947 C   0  0  0  0  0  0  0  0  0  0  0  0
  -29.2146  -30.6436   27.0382 C   0  0  0  0  0  0  0  0  0  0  0  0
  -26.2714  -30.4077   20.7297 C   0  0  0  0  0  0  0  0  0  0  0  0
  -24.6450  -27.9461   20.9303 C   0  0  0  0  0  0  0  0  0  0  0  0
  -27.9140  -29.9077   26.7265 C   0  0  0  0  0  0  0  0  0  0  0  0
  -30.3562  -14.0058   20.9292 C   0  0  0  0  0  0  0  0  0  0  0  0
  -28.1684  -28.7643   25.7495 C   0  0  0  0  0  0  0  0  0  0  0  0
  -28.9868  -13.3630   21.1564 C   0  0  0  0  0  0  0  0  0  0  0  0
  -27.7898  -20.5480   22.1653 C   0  0  0  0  0  0  0  0  0  0  0  0
  -30.6342  -15.1145   21.9418 C   0  0  0  0  0  0  0  0  0  0  0  0
  -27.8211  -21.8655   21.3910 C   0  0  0  0  0  0  0  0  0  0  0  0
  -28.2215  -15.5111   22.2513 C   0  0  0  0  0  0  0  0  0  0  0  0
  -28.6732  -20.0840   19.9917 C   0  0  0  0  0  0  0  0  0  0  0  0
  -28.7109  -29.2894   24.4148 C   0  0  1  0  0  0  0  0  0  0  0  0
  -25.7781  -29.8783   22.0727 C   0  0  1  0  0  0  0  0  0  0  0  0
  -27.8725  -14.4249   21.2195 C   0  0  2  0  0  0  0  0  0  0  0  0
  -28.8554  -19.7160   21.4651 C   0  0  2  0  0  0  0  0  0  0  0  0
  -25.7092  -23.2201   16.2477 C   0  0  0  0  0  0  0  0  0  0  0  0
  -25.8279  -21.4643   18.5561 C   0  0  0  0  0  0  0  0  0  0  0  0
  -30.3714  -24.6916   17.2931 C   0  0  0  0  0  0  0  0  0  0  0  0
  -18.1483  -28.6160   21.6296 C   0  0  0  0  0  0  0  0  0  0  0  0
  -23.7340  -26.5265   24.5115 C   0  0  0  0  0  0  0  0  0  0  0  0
  -21.3087  -26.1556   24.0130 C   0  0  0  0  0  0  0  0  0  0  0  0
  -22.0198  -28.1595   25.3173 C   0  0  0  0  0  0  0  0  0  0  0  0
  -20.2768  -30.5622   19.1480 C   0  0  0  0  0  0  0  0  0  0  0  0
  -28.0145  -24.8782   15.5795 C   0  0  0  0  0  0  0  0  0  0  0  0
  -27.7921  -26.3331   15.9779 C   0  0  0  0  0  0  0  0  0  1  0  0
  -22.5029  -28.0592   22.8377 C   0  0  1  0  0  0  0  0  0  0  0  0
  -19.3739  -29.3814   21.1553 C   0  0  2  0  0  0  0  0  0  0  0  0
  -22.4101  -27.2285   24.1487 C   0  0  0  0  0  0  0  0  0  0  0  0
  -26.4504  -12.6921   22.2480 N   0  0  0  0  0  0  0  0  0  0  0  0
  -29.2494  -23.0614   18.6672 N   0  0  0  0  0  0  0  0  0  0  0  0
  -26.5166  -13.7983   21.4877 N   0  0  0  0  0  0  0  0  0  0  0  0
  -28.2229  -21.4740   20.0414 N   0  0  3  0  0  0  0  0  0  0  0  0
  -24.6031  -29.0143   21.9426 N   0  0  0  0  0  0  0  0  0  0  0  0
  -29.5407  -16.0893   21.9510 N   0  0  0  0  0  0  0  0  0  0  0  0
  -25.1893  -15.3295   20.2612 N   0  0  0  0  0  0  0  0  0  0  0  0
  -22.1605  -12.4146   21.9122 N   0  0  0  0  0  0  0  0  0  0  0  0
  -27.6397  -29.8498   23.6192 N   0  0  0  0  0  0  0  0  0  0  0  0
  -21.2715  -28.7570   22.4840 N   0  0  0  0  0  0  0  0  0  0  0  0
  -28.7274  -18.2977   21.7162 N   0  0  0  0  0  0  0  0  0  0  0  0
  -19.1580  -29.7815   19.7361 N   0  3  0  0  0  0  0  0  0  0  0  0
  -22.4273  -14.2911   20.6213 O   0  0  0  0  0  0  0  0  0  0  0  0
  -26.8879  -27.8738   22.6431 O   0  0  0  0  0  0  0  0  0  0  0  0
  -23.5190  -29.9942   23.7594 O   0  0  0  0  0  0  0  0  0  0  0  0
  -21.0087  -27.7696   20.4024 O   0  0  0  0  0  0  0  0  0  0  0  0
  -30.9621  -17.8544   21.4587 O   0  0  0  0  0  0  0  0  0  0  0  0
  -23.2536   -7.9935   25.1206 O   0  0  0  0  0  0  0  0  0  0  0  0
  -26.5555  -26.4575   16.6791 O   0  0  0  0  0  0  0  0  0  1  0  0
  -19.4980   -4.7835   22.6721 F   0  0  0  0  0  0  0  0  0  0  0  0
  -23.7627   -5.3163   24.6556 F   0  0  0  0  0  0  0  0  0  0  0  0
  1  2  1  0  0  0  0
  1  5  2  0  0  0  0
  2  6  2  0  0  0  0
  3  8  2  0  0  0  0
  3 15  1  0  0  0  0
  4  9  1  0  0  0  0
  4 15  2  0  0  0  0
  5 17  1  0  0  0  0
  6 19  1  0  0  0  0
  7 10  2  0  0  0  0
  7 18  1  0  0  0  0
  8 24  1  0  0  0  0
  9 24  2  0  0  0  0
 10 25  1  0  0  0  0
 11 12  2  0  0  0  0
 11 26  1  0  0  0  0
 12 27  1  0  0  0  0
 13 20  1  0  0  0  0
 13 25  2  0  0  0  0
 14 27  2  0  0  0  0
 14 28  1  0  0  0  0
 15 29  1  0  0  0  0
 16 29  1  0  0  0  0
 16 32  2  0  0  0  0
 16 33  1  0  0  0  0
 17 19  2  0  0  0  0
 17 38  1  0  0  0  0
 18 20  2  0  0  0  0
 18 39  1  0  0  0  0
 19 50  1  0  0  0  0
 20 40  1  0  0  0  0
 21 22  2  0  0  0  0
 21 23  1  0  0  0  0
 21 54  1  0  0  0  0
 22 30  1  0  0  0  0
 22 62  1  0  0  0  0
 23 31  2  0  0  0  0
 23 55  1  0  0  0  0
 24 84  1  0  0  0  0
 25 85  1  0  0  0  0
 26 28  2  0  0  0  0
 26 84  1  0  0  0  0
 27 86  1  0  0  0  0
 28 87  1  0  0  0  0
 29 67  2  0  0  0  0
 30 56  1  0  0  0  0
 30 68  2  0  0  0  0
 31 68  1  0  0  0  0
 31 70  1  0  0  0  0
 32 69  1  0  0  0  0
 32 73  1  0  0  0  0
 33 74  1  0  0  0  0
 33 79  2  0  0  0  0
 34 51  1  0  0  0  0
 34 75  1  0  0  0  0
 34 80  2  0  0  0  0
 35 64  1  0  0  0  0
 35 71  1  0  0  0  0
 35 81  2  0  0  0  0
 36 65  1  0  0  0  0
 36 76  1  0  0  0  0
 36 82  2  0  0  0  0
 37 72  1  0  0  0  0
 37 77  1  0  0  0  0
 37 83  2  0  0  0  0
 38 41  1  0  0  0  0
 39 51  1  0  0  0  0
 40 71  1  0  0  0  0
 41 43  1  0  0  0  0
 42 44  1  0  0  0  0
 42 46  1  0  0  0  0
 43 50  1  0  0  0  0
 44 52  1  0  0  0  0
 45 47  1  0  0  0  0
 45 53  1  0  0  0  0
 46 72  1  0  0  0  0
 47 70  1  0  0  0  0
 48 52  1  0  0  0  0
 48 72  1  0  0  0  0
 49 53  1  0  0  0  0
 49 70  1  0  0  0  0
 50 75  1  0  0  0  0
 51 71  1  0  0  0  0
 52 69  1  0  0  0  0
 53 77  1  0  0  0  0
 57 65  1  0  0  0  0
 58 66  1  0  0  0  0
 59 66  1  0  0  0  0
 60 66  1  0  0  0  0
 61 78  1  0  0  0  0
 62 63  1  0  0  0  0
 63 85  1  0  0  0  0
 64 66  1  0  0  0  0
 64 76  1  0  0  0  0
 65 78  1  0  0  0  0
 67 69  1  0  0  0  0
M  CHG  1  78   1
M  ISO  4  37 100  63 101  77 100  85 101
M  END
> <Batch ID>
0162

> <Smiles>
CNC(C)C(=O)NC(C(=O)N1Cc2cc([101O:1][101CH2:1]Cc3c(C)nc(N4CCC([100NH:0][100C:0](=O)N5CCCC(n6nc(-c7ccc(Oc8ccc(F)cc8F)cc7)c(C(N)=O)c6N)C5)C4)c(C)c3C)ccc2CC1C(=O)NC1CCCc2ccccc21)C(C)(C)C

> <Shape>
0.251

> <Color>
0.129

> <Negative vol penalty>
0.000

$$$$

  -OEChem-04052322143D

 90100  0     1  0  0  0  0  0999 V2000
  -24.4730  -38.7885   21.0292 C   0  0  0  0  0  0  0  0  0  0  0  0
  -25.3292  -37.9098   20.3732 C   0  0  0  0  0  0  0  0  0  0  0  0
  -22.9119  -11.2252   22.4054 C   0  0  0  0  0  0  0  0  0  0  0  0
  -23.4828   -9.4860   20.8286 C   0  0  0  0  0  0  0  0  0  0  0  0
  -23.8514  -38.3995   22.2150 C   0  0  0  0  0  0  0  0  0  0  0  0
  -25.5651  -36.6419   20.9032 C   0  0  0  0  0  0  0  0  0  0  0  0
  -32.0467  -23.5196   20.5924 C   0  0  0  0  0  0  0  0  0  0  0  0
  -26.9310  -29.9086   18.8750 C   0  0  0  0  0  0  0  0  0  0  0  0
  -32.1730  -24.7152   21.2998 C   0  0  0  0  0  0  0  0  0  0  0  0
  -22.1210  -10.3220   23.1154 C   0  0  0  0  0  0  0  0  0  0  0  0
  -22.6918   -8.5827   21.5387 C   0  0  0  0  0  0  0  0  0  0  0  0
  -27.8408  -28.8778   19.1058 C   0  0  0  0  0  0  0  0  0  0  0  0
  -22.9440   -6.7316   24.3548 C   0  0  0  0  0  0  0  0  0  0  0  0
  -23.4738   -5.4658   24.6048 C   0  0  0  0  0  0  0  0  0  0  0  0
  -30.3585  -24.5283   19.1889 C   0  0  0  0  0  0  0  0  0  0  0  0
  -26.6501  -28.2855   21.1184 C   0  0  0  0  0  0  0  0  0  0  0  0
  -21.6431   -4.4598   23.3908 C   0  0  0  0  0  0  0  0  0  0  0  0
  -23.5928  -10.8072   21.2620 C   0  0  0  0  0  0  0  0  0  0  0  0
  -23.9920  -12.9367   19.9153 C   0  0  0  0  0  0  0  0  0  0  0  0
  -31.1395  -23.4262   19.5370 C   0  0  0  0  0  0  0  0  0  0  0  0
  -24.0723  -37.1226   22.7548 C   0  0  0  0  0  0  0  0  0  0  0  0
  -25.8784  -30.1429   19.7715 C   0  0  0  0  0  0  0  0  0  0  0  0
  -24.9469  -36.2358   22.0981 C   0  0  0  0  0  0  0  0  0  0  0  0
  -25.7267  -29.3184   20.8954 C   0  0  0  0  0  0  0  0  0  0  0  0
  -31.3920  -25.8172   20.9518 C   0  0  0  0  0  0  0  0  0  0  0  0
  -30.4847  -25.7238   19.8963 C   0  0  0  0  0  0  0  0  0  0  0  0
  -22.0109   -9.0008   22.6821 C   0  0  0  0  0  0  0  0  0  0  0  0
  -27.7022  -28.0679   20.2292 C   0  0  0  0  0  0  0  0  0  0  0  0
  -21.7637   -6.8616   23.6228 C   0  0  0  0  0  0  0  0  0  0  0  0
  -22.8234   -4.3299   24.1228 C   0  0  0  0  0  0  0  0  0  0  0  0
  -21.1133   -5.7257   23.1409 C   0  0  0  0  0  0  0  0  0  0  0  0
  -24.4096  -11.7400   20.5278 C   0  0  0  0  0  0  0  0  0  0  0  0
  -25.1348  -13.4522   19.3542 C   0  0  0  0  0  0  0  0  0  0  0  0
  -22.6878  -13.5295   19.8586 C   0  0  0  0  0  0  0  0  0  0  0  0
  -25.0158  -32.5709   21.6328 C   0  0  0  0  0  0  0  0  0  0  0  0
  -22.4059  -30.7218   22.1723 C   0  0  0  0  0  0  0  0  0  0  0  0
  -21.0237  -27.6017   22.2117 C   0  0  0  0  0  0  0  0  0  0  0  0
  -30.6292  -14.6510   20.2115 C   0  0  0  0  0  0  0  0  0  0  0  0
  -23.4148  -36.7642   24.0640 C   0  0  0  0  0  0  0  0  0  0  0  0
  -24.8898  -31.2420   19.4941 C   0  0  0  0  0  0  0  0  0  0  0  0
  -24.6021  -29.5155   21.8776 C   0  0  0  0  0  0  0  0  0  0  0  0
  -23.4255  -35.2670   24.3612 C   0  0  0  0  0  0  0  0  0  0  0  0
  -29.7002  -11.4102   18.6706 C   0  0  0  0  0  0  0  0  0  0  0  0
  -24.8093  -34.6807   24.1002 C   0  0  0  0  0  0  0  0  0  0  0  0
  -28.2232  -11.2810   19.0388 C   0  0  0  0  0  0  0  0  0  0  0  0
  -31.0718  -18.0758   20.5456 C   0  0  0  0  0  0  0  0  0  0  0  0
  -29.3321  -17.5962   18.7776 C   0  0  0  0  0  0  0  0  0  0  0  0
  -29.5897  -21.8845   18.1884 C   0  0  0  0  0  0  0  0  0  0  0  0
  -30.4679  -12.2437   19.6917 C   0  0  0  0  0  0  0  0  0  0  0  0
  -30.5677  -16.8634   21.3238 C   0  0  0  0  0  0  0  0  0  0  0  0
  -28.8787  -16.3734   19.5806 C   0  0  0  0  0  0  0  0  0  0  0  0
  -28.4023  -13.4631   20.2990 C   0  0  0  0  0  0  0  0  0  0  0  0
  -29.4870  -20.3906   17.9218 C   0  0  0  0  0  0  0  0  0  0  0  0
  -31.1359  -20.8692   19.6538 C   0  0  0  0  0  0  0  0  0  0  0  0
  -25.2087  -34.8429   22.6286 C   0  0  1  0  0  0  0  0  0  0  0  0
  -24.1564  -31.7158   20.7452 C   0  0  1  0  0  0  0  0  0  0  0  0
  -27.5925  -12.6656   19.2656 C   0  0  2  0  0  0  0  0  0  0  0  0
  -29.9481  -18.6556   19.6889 C   0  0  0  0  0  0  0  0  0  0  0  0
  -31.0011  -22.1164   18.7626 C   0  0  2  0  0  0  0  0  0  0  0  0
  -31.5438  -27.0863   21.7244 C   0  0  0  0  0  0  0  0  0  0  0  0
  -32.0577  -22.1106   17.6388 C   0  0  0  0  0  0  0  0  0  0  0  0
  -18.8817  -26.4025   22.7322 C   0  0  0  0  0  0  0  0  0  0  0  0
  -22.9691  -31.0162   25.1566 C   0  0  0  0  0  0  0  0  0  0  0  0
  -21.4326  -29.0823   25.5664 C   0  0  0  0  0  0  0  0  0  0  0  0
  -20.5530  -31.1742   24.5304 C   0  0  0  0  0  0  0  0  0  0  0  0
  -20.7716  -26.6054   19.4363 C   0  0  0  0  0  0  0  0  0  0  0  0
  -29.6378  -26.8905   19.5060 C   0  0  0  0  0  0  0  0  0  1  0  0
  -22.0432  -29.6496   23.1713 C   0  0  1  0  0  0  0  0  0  0  0  0
  -19.7160  -27.0721   21.6514 C   0  0  2  0  0  0  0  0  0  0  0  0
  -21.7719  -30.2278   24.5889 C   0  0  0  0  0  0  0  0  0  0  0  0
  -25.7157  -11.5087   20.3706 N   0  0  0  0  0  0  0  0  0  0  0  0
  -26.1287  -12.5672   19.6529 N   0  0  0  0  0  0  0  0  0  0  0  0
  -23.6649  -30.6074   21.5661 N   0  0  0  0  0  0  0  0  0  0  0  0
  -29.8234  -13.5361   19.9262 N   0  0  0  0  0  0  0  0  0  0  0  0
  -29.9711  -15.8713   20.4273 N   0  0  0  0  0  0  0  0  0  0  0  0
  -25.3765  -14.5716   18.6395 N   0  0  0  0  0  0  0  0  0  0  0  0
  -21.8458  -13.1909   18.7905 N   0  0  0  0  0  0  0  0  0  0  0  0
  -24.5377  -33.8551   21.8110 N   0  0  0  0  0  0  0  0  0  0  0  0
  -20.9170  -28.9212   22.5975 N   0  0  0  0  0  0  0  0  0  0  0  0
  -30.4935  -19.7570   18.8539 N   0  3  1  0  0  0  0  0  0  0  0  0
  -19.9794  -26.0750   20.5756 N   0  3  0  0  0  0  0  0  0  0  0  0
  -22.2872  -14.3482   20.7205 O   0  0  0  0  0  0  0  0  0  0  0  0
  -26.0363  -32.1000   22.1212 O   0  0  0  0  0  0  0  0  0  0  0  0
  -21.5988  -31.6235   21.9332 O   0  0  0  0  0  0  0  0  0  0  0  0
  -22.0374  -26.9126   22.3018 O   0  0  0  0  0  0  0  0  0  0  0  0
  -31.8620  -14.5605   20.2676 O   0  0  0  0  0  0  0  0  0  0  0  0
  -21.2394   -8.1190   23.3748 O   0  0  0  0  0  0  0  0  0  0  0  0
  -28.5956  -27.0542   20.4588 O   0  0  0  0  0  0  0  0  0  1  0  0
  -23.3331   -3.1144   24.3617 F   0  0  0  0  0  0  0  0  0  0  0  0
  -19.9797   -5.8442   22.4361 F   0  0  0  0  0  0  0  0  0  0  0  0
  1  2  1  0  0  0  0
  1  5  2  0  0  0  0
  2  6  2  0  0  0  0
  3 10  2  0  0  0  0
  3 18  1  0  0  0  0
  4 11  1  0  0  0  0
  4 18  2  0  0  0  0
  5 21  1  0  0  0  0
  6 23  1  0  0  0  0
  7  9  2  0  0  0  0
  7 20  1  0  0  0  0
  8 12  2  0  0  0  0
  8 22  1  0  0  0  0
  9 25  1  0  0  0  0
 10 27  1  0  0  0  0
 11 27  2  0  0  0  0
 12 28  1  0  0  0  0
 13 14  2  0  0  0  0
 13 29  1  0  0  0  0
 14 30  1  0  0  0  0
 15 20  2  0  0  0  0
 15 26  1  0  0  0  0
 16 24  1  0  0  0  0
 16 28  2  0  0  0  0
 17 30  2  0  0  0  0
 17 31  1  0  0  0  0
 18 32  1  0  0  0  0
 19 32  1  0  0  0  0
 19 33  2  0  0  0  0
 19 34  1  0  0  0  0
 20 59  1  0  0  0  0
 21 23  2  0  0  0  0
 21 39  1  0  0  0  0
 22 24  2  0  0  0  0
 22 40  1  0  0  0  0
 23 55  1  0  0  0  0
 24 41  1  0  0  0  0
 25 26  2  0  0  0  0
 25 60  1  0  0  0  0
 26 67  1  0  0  0  0
 27 87  1  0  0  0  0
 28 88  1  0  0  0  0
 29 31  2  0  0  0  0
 29 87  1  0  0  0  0
 30 89  1  0  0  0  0
 31 90  1  0  0  0  0
 32 71  2  0  0  0  0
 33 72  1  0  0  0  0
 33 76  1  0  0  0  0
 34 77  1  0  0  0  0
 34 82  2  0  0  0  0
 35 56  1  0  0  0  0
 35 78  1  0  0  0  0
 35 83  2  0  0  0  0
 36 68  1  0  0  0  0
 36 73  1  0  0  0  0
 36 84  2  0  0  0  0
 37 69  1  0  0  0  0
 37 79  1  0  0  0  0
 37 85  2  0  0  0  0
 38 74  1  0  0  0  0
 38 75  1  0  0  0  0
 38 86  2  0  0  0  0
 39 42  1  0  0  0  0
 40 56  1  0  0  0  0
 41 73  1  0  0  0  0
 42 44  1  0  0  0  0
 43 45  1  0  0  0  0
 43 49  1  0  0  0  0
 44 55  1  0  0  0  0
 45 57  1  0  0  0  0
 46 50  1  0  0  0  0
 46 58  1  0  0  0  0
 47 51  1  0  0  0  0
 47 58  1  0  0  0  0
 48 53  1  0  0  0  0
 48 59  1  0  0  0  0
 49 74  1  0  0  0  0
 50 75  1  0  0  0  0
 51 75  1  0  0  0  0
 52 57  1  0  0  0  0
 52 74  1  0  0  0  0
 53 80  1  0  0  0  0
 54 59  1  0  0  0  0
 54 80  1  0  0  0  0
 55 78  1  0  0  0  0
 56 73  1  0  0  0  0
 57 72  1  0  0  0  0
 58 80  1  0  0  0  0
 59 61  1  0  0  0  0
 62 69  1  0  0  0  0
 63 70  1  0  0  0  0
 64 70  1  0  0  0  0
 65 70  1  0  0  0  0
 66 81  1  0  0  0  0
 67 88  1  0  0  0  0
 68 70  1  0  0  0  0
 68 79  1  0  0  0  0
 69 81  1  0  0  0  0
 71 72  1  0  0  0  0
M  CHG  2  80   1  81   1
M  ISO  4  38 100  67 101  75 100  88 101
M  END
> <Batch ID>
0162

> <Smiles>
CNC(C)C(=O)NC(C(=O)N1Cc2cc([101O:1][101CH2:1]c3cc(C4(C)CCN(C5CC[100N:0]([100C:0](=O)N6CCCC(n7nc(-c8ccc(Oc9ccc(F)cc9F)cc8)c(C(N)=O)c7N)C6)CC5)C4)ccc3C)ccc2CC1C(=O)NC1CCCc2ccccc21)C(C)(C)C

> <Shape>
0.373

> <Color>
0.153

> <Negative vol penalty>
0.000

$$$$

  -OEChem-04052322143D

 88 97  0     1  0  0  0  0  0999 V2000
  -17.3191  -29.3056   24.8751 C   0  0  0  0  0  0  0  0  0  0  0  0
  -18.2517  -28.2733   24.8832 C   0  0  0  0  0  0  0  0  0  0  0  0
  -26.4987  -12.6142   21.7260 C   0  0  0  0  0  0  0  0  0  0  0  0
  -25.9358  -13.8636   19.7363 C   0  0  0  0  0  0  0  0  0  0  0  0
  -17.1859  -30.1143   23.7472 C   0  0  0  0  0  0  0  0  0  0  0  0
  -19.0509  -28.0484   23.7629 C   0  0  0  0  0  0  0  0  0  0  0  0
  -23.9054  -27.2553   24.9671 C   0  0  0  0  0  0  0  0  0  0  0  0
  -25.2270  -12.0412   21.7261 C   0  0  0  0  0  0  0  0  0  0  0  0
  -24.6640  -13.2906   19.7363 C   0  0  0  0  0  0  0  0  0  0  0  0
  -24.2429  -25.9926   25.4524 C   0  0  0  0  0  0  0  0  0  0  0  0
  -23.6100   -9.5661   20.0854 C   0  0  0  0  0  0  0  0  0  0  0  0
  -23.5181   -8.1920   20.3072 C   0  0  0  0  0  0  0  0  0  0  0  0
  -25.0688  -25.3812   23.2699 C   0  0  0  0  0  0  0  0  0  0  0  0
  -22.1603   -8.5987   22.2637 C   0  0  0  0  0  0  0  0  0  0  0  0
  -26.8531  -13.5254   20.7311 C   0  0  0  0  0  0  0  0  0  0  0  0
  -29.3213  -13.6252   20.0944 C   0  0  0  0  0  0  0  0  0  0  0  0
  -17.9906  -29.9053   22.6161 C   0  0  0  0  0  0  0  0  0  0  0  0
  -24.1374  -27.5872   23.6246 C   0  0  0  0  0  0  0  0  0  0  0  0
  -18.9274  -28.8542   22.6183 C   0  0  0  0  0  0  0  0  0  0  0  0
  -24.7356  -26.6496   22.7707 C   0  0  0  0  0  0  0  0  0  0  0  0
  -24.6222  -21.0590   26.3878 C   0  0  0  0  0  0  0  0  0  0  0  0
  -25.0761  -19.7892   26.7268 C   0  0  0  0  0  0  0  0  0  0  0  0
  -25.3380  -22.1790   26.7959 C   0  0  0  0  0  0  0  0  0  0  0  0
  -24.3097  -12.3794   20.7312 C   0  0  0  0  0  0  0  0  0  0  0  0
  -24.8220  -25.0544   24.6031 C   0  0  0  0  0  0  0  0  0  0  0  0
  -22.9772  -10.4564   20.9528 C   0  0  0  0  0  0  0  0  0  0  0  0
  -22.7932   -7.7084   21.3963 C   0  0  0  0  0  0  0  0  0  0  0  0
  -22.2523   -9.9728   22.0420 C   0  0  0  0  0  0  0  0  0  0  0  0
  -28.1664  -14.1181   20.7309 C   0  0  0  0  0  0  0  0  0  0  0  0
  -26.2421  -19.6940   27.4692 C   0  0  0  0  0  0  0  0  0  0  0  0
  -26.4922  -21.9768   27.5354 C   0  0  0  0  0  0  0  0  0  0  0  0
  -30.2972  -14.5441   20.3942 C   0  0  0  0  0  0  0  0  0  0  0  0
  -29.4964  -12.4426   19.3029 C   0  0  0  0  0  0  0  0  0  0  0  0
  -22.2975  -28.4148   21.1682 C   0  0  0  0  0  0  0  0  0  0  0  0
  -25.1482  -28.8823   19.6928 C   0  0  0  0  0  0  0  0  0  0  0  0
  -28.4765  -28.1475   19.5211 C   0  0  0  0  0  0  0  0  0  0  0  0
  -30.9382  -18.4541   24.8781 C   0  0  0  0  0  0  0  0  0  0  0  0
  -17.7775  -30.7755   21.4028 C   0  0  0  0  0  0  0  0  0  0  0  0
  -23.7921  -28.9627   23.1232 C   0  0  0  0  0  0  0  0  0  0  0  0
  -25.0241  -26.9634   21.3261 C   0  0  0  0  0  0  0  0  0  0  0  0
  -18.9230  -30.7079   20.3960 C   0  0  0  0  0  0  0  0  0  0  0  0
  -30.9261  -19.1583   21.4180 C   0  0  0  0  0  0  0  0  0  0  0  0
  -19.3275  -29.2589   20.1440 C   0  0  0  0  0  0  0  0  0  0  0  0
  -30.2979  -17.9207   20.7832 C   0  0  0  0  0  0  0  0  0  0  0  0
  -30.1852  -17.0686   28.2281 C   0  0  0  0  0  0  0  0  0  0  0  0
  -30.2514  -19.4874   22.7427 C   0  0  0  0  0  0  0  0  0  0  0  0
  -31.0667  -17.8663   27.2778 C   0  0  0  0  0  0  0  0  0  0  0  0
  -29.6975  -17.1000   23.1203 C   0  0  0  0  0  0  0  0  0  0  0  0
  -29.1093  -17.1258   26.0961 C   0  0  0  0  0  0  0  0  0  0  0  0
  -19.8298  -28.5945   21.4316 C   0  0  1  0  0  0  0  0  0  0  0  0
  -23.6012  -29.0168   21.6106 C   0  0  1  0  0  0  0  0  0  0  0  0
  -30.3285  -16.7354   21.7606 C   0  0  1  0  0  0  0  0  0  0  0  0
  -28.8050  -17.1741   27.5886 C   0  0  2  0  0  0  0  0  0  0  0  0
  -23.3678  -21.2200   25.5896 C   0  0  0  0  0  0  0  0  0  0  0  0
  -24.3304  -18.5685   26.3026 C   0  0  0  0  0  0  0  0  0  0  0  0
  -27.3024  -23.1410   28.0043 C   0  0  0  0  0  0  0  0  0  0  0  0
  -26.2808  -17.8943   29.2322 C   0  0  0  0  0  0  0  0  0  0  0  0
  -30.5395  -28.6550   18.1855 C   0  0  0  0  0  0  0  0  0  0  0  0
  -24.1541  -27.0493   17.4653 C   0  0  0  0  0  0  0  0  0  0  0  0
  -26.5219  -26.8342   16.6807 C   0  0  0  0  0  0  0  0  0  0  0  0
  -25.4063  -29.0653   16.6765 C   0  0  0  0  0  0  0  0  0  0  0  0
  -29.8573  -29.2963   21.8733 C   0  0  0  0  0  0  0  0  0  0  0  0
  -24.8771  -23.5549   26.4482 C   0  0  0  0  0  0  0  0  0  1  0  0
  -26.7851  -18.3425   27.8676 C   0  0  2  0  0  0  0  0  0  0  0  0
  -26.0839  -28.0225   18.8777 C   0  0  1  0  0  0  0  0  0  0  0  0
  -29.6994  -29.0380   19.3939 C   0  0  2  0  0  0  0  0  0  0  0  0
  -25.5344  -27.7359   17.4517 C   0  0  0  0  0  0  0  0  0  0  0  0
  -28.3866  -15.2612   21.3858 N   0  0  0  0  0  0  0  0  0  0  0  0
  -26.9644  -20.7589   27.8837 N   0  0  0  0  0  0  0  0  0  0  0  0
  -29.6912  -15.4942   21.1624 N   0  0  0  0  0  0  0  0  0  0  0  0
  -24.6626  -28.3195   20.8816 N   0  0  0  0  0  0  0  0  0  0  0  0
  -30.2632  -18.3443   23.6573 N   0  0  0  0  0  0  0  0  0  0  0  0
  -30.4315  -17.7493   25.9697 N   0  0  0  0  0  0  0  0  0  0  0  0
  -31.6060  -14.6238   20.0732 N   0  0  0  0  0  0  0  0  0  0  0  0
  -28.3894  -11.6089   19.0935 N   0  0  0  0  0  0  0  0  0  0  0  0
  -21.1835  -29.0156   21.7227 N   0  0  0  0  0  0  0  0  0  0  0  0
  -27.3775  -28.6968   18.8953 N   0  0  0  0  0  0  0  0  0  0  0  0
  -30.5503  -28.9265   20.6123 N   0  3  0  0  0  0  0  0  0  0  0  0
  -30.6055  -12.1258   18.8099 O   0  0  0  0  0  0  0  0  0  0  0  0
  -22.3019  -27.4757   20.3809 O   0  0  0  0  0  0  0  0  0  0  0  0
  -24.8646  -30.0143   19.2932 O   0  0  0  0  0  0  0  0  0  0  0  0
  -28.4954  -27.0705   20.1130 O   0  0  0  0  0  0  0  0  0  0  0  0
  -31.9295  -19.1863   25.0005 O   0  0  0  0  0  0  0  0  0  0  0  0
  -23.0687  -11.8203   20.7308 O   0  0  0  0  0  0  0  0  0  0  0  0
  -25.1541  -23.8124   25.0773 O   0  0  0  0  0  0  0  0  0  1  0  0
  -28.2033  -18.4231   27.9047 O   0  0  0  0  0  0  0  0  0  0  0  0
  -22.7038   -6.3888   21.6083 F   0  0  0  0  0  0  0  0  0  0  0  0
  -21.6412  -10.8232   22.8781 F   0  0  0  0  0  0  0  0  0  0  0  0
  1  2  1  0  0  0  0
  1  5  2  0  0  0  0
  2  6  2  0  0  0  0
  3  8  2  0  0  0  0
  3 15  1  0  0  0  0
  4  9  1  0  0  0  0
  4 15  2  0  0  0  0
  5 17  1  0  0  0  0
  6 19  1  0  0  0  0
  7 10  2  0  0  0  0
  7 18  1  0  0  0  0
  8 24  1  0  0  0  0
  9 24  2  0  0  0  0
 10 25  1  0  0  0  0
 11 12  2  0  0  0  0
 11 26  1  0  0  0  0
 12 27  1  0  0  0  0
 13 20  1  0  0  0  0
 13 25  2  0  0  0  0
 14 27  2  0  0  0  0
 14 28  1  0  0  0  0
 15 29  1  0  0  0  0
 16 29  1  0  0  0  0
 16 32  2  0  0  0  0
 16 33  1  0  0  0  0
 17 19  2  0  0  0  0
 17 38  1  0  0  0  0
 18 20  2  0  0  0  0
 18 39  1  0  0  0  0
 19 50  1  0  0  0  0
 20 40  1  0  0  0  0
 21 22  1  0  0  0  0
 21 23  2  0  0  0  0
 21 54  1  0  0  0  0
 22 30  2  0  0  0  0
 22 55  1  0  0  0  0
 23 31  1  0  0  0  0
 23 63  1  0  0  0  0
 24 84  1  0  0  0  0
 25 85  1  0  0  0  0
 26 28  2  0  0  0  0
 26 84  1  0  0  0  0
 27 87  1  0  0  0  0
 28 88  1  0  0  0  0
 29 68  2  0  0  0  0
 30 64  1  0  0  0  0
 30 69  1  0  0  0  0
 31 56  1  0  0  0  0
 31 69  2  0  0  0  0
 32 70  1  0  0  0  0
 32 74  1  0  0  0  0
 33 75  1  0  0  0  0
 33 79  2  0  0  0  0
 34 51  1  0  0  0  0
 34 76  1  0  0  0  0
 34 80  2  0  0  0  0
 35 65  1  0  0  0  0
 35 71  1  0  0  0  0
 35 81  2  0  0  0  0
 36 66  1  0  0  0  0
 36 77  1  0  0  0  0
 36 82  2  0  0  0  0
 37 72  1  0  0  0  0
 37 73  1  0  0  0  0
 37 83  2  0  0  0  0
 38 41  1  0  0  0  0
 39 51  1  0  0  0  0
 40 71  1  0  0  0  0
 41 43  1  0  0  0  0
 42 44  1  0  0  0  0
 42 46  1  0  0  0  0
 43 50  1  0  0  0  0
 44 52  1  0  0  0  0
 45 47  1  0  0  0  0
 45 53  1  0  0  0  0
 46 72  1  0  0  0  0
 47 73  1  0  0  0  0
 48 52  1  0  0  0  0
 48 72  1  0  0  0  0
 49 53  1  0  0  0  0
 49 73  1  0  0  0  0
 50 76  1  0  0  0  0
 51 71  1  0  0  0  0
 52 70  1  0  0  0  0
 53 86  1  0  0  0  0
 57 64  1  0  0  0  0
 58 66  1  0  0  0  0
 59 67  1  0  0  0  0
 60 67  1  0  0  0  0
 61 67  1  0  0  0  0
 62 78  1  0  0  0  0
 63 85  1  0  0  0  0
 64 86  1  0  0  0  0
 65 67  1  0  0  0  0
 65 77  1  0  0  0  0
 66 78  1  0  0  0  0
 68 70  1  0  0  0  0
M  CHG  1  78   1
M  ISO  4  37 100  63 101  73 100  85 101
M  END
> <Batch ID>
0162

> <Smiles>
CNC(C)C(=O)NC(C(=O)N1Cc2cc([101O:1][101CH2:1]c3c(C)nc(C(C)OC4CC[100N:0]([100C:0](=O)N5CCCC(n6nc(-c7ccc(Oc8ccc(F)cc8F)cc7)c(C(N)=O)c6N)C5)C4)c(C)c3C)ccc2CC1C(=O)NC1CCCc2ccccc21)C(C)(C)C

> <Shape>
0.217

> <Color>
0.096

> <Negative vol penalty>
0.000

$$$$

  -OEChem-04052322143D

 90 99  0     1  0  0  0  0  0999 V2000
  -24.7050  -35.6316   25.9220 C   0  0  0  0  0  0  0  0  0  0  0  0
  -24.5727  -34.2852   25.5975 C   0  0  0  0  0  0  0  0  0  0  0  0
  -23.0060   -9.8865   19.9846 C   0  0  0  0  0  0  0  0  0  0  0  0
  -23.7292   -9.9507   22.2889 C   0  0  0  0  0  0  0  0  0  0  0  0
  -25.6477  -36.4175   25.2606 C   0  0  0  0  0  0  0  0  0  0  0  0
  -25.3824  -33.7243   24.6105 C   0  0  0  0  0  0  0  0  0  0  0  0
  -27.6197  -28.0248   24.4840 C   0  0  0  0  0  0  0  0  0  0  0  0
  -25.5449  -21.1097   20.2631 C   0  0  0  0  0  0  0  0  0  0  0  0
  -25.0612  -22.3480   19.8410 C   0  0  0  0  0  0  0  0  0  0  0  0
  -22.2423   -8.7512   20.2559 C   0  0  0  0  0  0  0  0  0  0  0  0
  -22.9655   -8.8155   22.5602 C   0  0  0  0  0  0  0  0  0  0  0  0
  -27.2019  -26.8674   23.8284 C   0  0  0  0  0  0  0  0  0  0  0  0
  -23.2192   -5.4750   22.1049 C   0  0  0  0  0  0  0  0  0  0  0  0
  -23.8089   -4.4631   22.8625 C   0  0  0  0  0  0  0  0  0  0  0  0
  -28.7590  -27.3237   22.0433 C   0  0  0  0  0  0  0  0  0  0  0  0
  -26.5458  -22.1593   22.1954 C   0  0  0  0  0  0  0  0  0  0  0  0
  -22.0830   -4.7095   24.5351 C   0  0  0  0  0  0  0  0  0  0  0  0
  -23.7495  -10.4862   21.0011 C   0  0  0  0  0  0  0  0  0  0  0  0
  -24.1282  -13.0019   20.8130 C   0  0  0  0  0  0  0  0  0  0  0  0
  -26.4760  -35.8636   24.2717 C   0  0  0  0  0  0  0  0  0  0  0  0
  -28.6042  -28.8474   23.9179 C   0  0  0  0  0  0  0  0  0  0  0  0
  -26.3362  -34.5039   23.9343 C   0  0  0  0  0  0  0  0  0  0  0  0
  -29.1894  -28.4896   22.6950 C   0  0  0  0  0  0  0  0  0  0  0  0
  -26.2872  -21.0153   21.4404 C   0  0  0  0  0  0  0  0  0  0  0  0
  -25.3198  -23.4920   20.5960 C   0  0  0  0  0  0  0  0  0  0  0  0
  -26.0621  -23.3976   21.7732 C   0  0  0  0  0  0  0  0  0  0  0  0
  -22.2220   -8.2158   21.5437 C   0  0  0  0  0  0  0  0  0  0  0  0
  -27.7695  -26.5183   22.6065 C   0  0  0  0  0  0  0  0  0  0  0  0
  -22.0615   -6.1042   22.5625 C   0  0  0  0  0  0  0  0  0  0  0  0
  -23.2408   -4.0803   24.0776 C   0  0  0  0  0  0  0  0  0  0  0  0
  -21.4934   -5.7215   23.7776 C   0  0  0  0  0  0  0  0  0  0  0  0
  -24.5390  -11.6586   20.7213 C   0  0  0  0  0  0  0  0  0  0  0  0
  -25.2363  -13.7257   20.4459 C   0  0  0  0  0  0  0  0  0  0  0  0
  -22.8584  -13.5468   21.1959 C   0  0  0  0  0  0  0  0  0  0  0  0
  -28.6997  -31.8579   22.9021 C   0  0  0  0  0  0  0  0  0  0  0  0
  -31.8594  -31.2233   22.5335 C   0  0  0  0  0  0  0  0  0  0  0  0
  -34.3130  -28.8955   22.0774 C   0  0  0  0  0  0  0  0  0  0  0  0
  -30.7299  -14.6764   20.6942 C   0  0  0  0  0  0  0  0  0  0  0  0
  -27.4479  -36.7640   23.5510 C   0  0  0  0  0  0  0  0  0  0  0  0
  -29.0630  -30.0783   24.6506 C   0  0  0  0  0  0  0  0  0  0  0  0
  -30.2644  -29.3280   22.0548 C   0  0  0  0  0  0  0  0  0  0  0  0
  -28.5249  -36.0047   22.7803 C   0  0  0  0  0  0  0  0  0  0  0  0
  -29.5976  -12.2382   18.3597 C   0  0  0  0  0  0  0  0  0  0  0  0
  -27.9031  -34.8712   21.9707 C   0  0  0  0  0  0  0  0  0  0  0  0
  -28.1495  -11.9766   18.7775 C   0  0  0  0  0  0  0  0  0  0  0  0
  -28.9580  -18.4454   23.5646 C   0  0  0  0  0  0  0  0  0  0  0  0
  -30.4984  -12.4819   19.5685 C   0  0  0  0  0  0  0  0  0  0  0  0
  -28.5851  -13.2788   20.9019 C   0  0  0  0  0  0  0  0  0  0  0  0
  -27.2132  -33.8531   22.8867 C   0  0  1  0  0  0  0  0  0  0  0  0
  -29.7062  -31.1144   23.7340 C   0  0  1  0  0  0  0  0  0  0  0  0
  -29.6641  -17.2048   24.1340 C   0  0  1  0  0  0  0  0  0  0  0  0
  -31.0089  -16.9618   23.4007 C   0  0  2  0  0  0  0  0  0  0  0  0
  -27.6275  -13.0827   19.7141 C   0  0  2  0  0  0  0  0  0  0  0  0
  -30.8058  -16.8613   21.8687 C   0  0  2  0  0  0  0  0  0  0  0  0
  -30.0763  -18.1041   21.3354 C   0  0  2  0  0  0  0  0  0  0  0  0
  -28.7496  -18.3688   22.0517 C   0  0  2  0  0  0  0  0  0  0  0  0
  -24.7925  -24.8069   20.1233 C   0  0  0  0  0  0  0  0  0  0  0  0
  -29.8417  -17.3755   25.6461 C   0  0  0  0  0  0  0  0  0  0  0  0
  -31.7637  -15.7395   23.9391 C   0  0  0  0  0  0  0  0  0  0  0  0
  -36.7951  -28.6830   21.7746 C   0  0  0  0  0  0  0  0  0  0  0  0
  -31.5870  -32.1799   19.6489 C   0  0  0  0  0  0  0  0  0  0  0  0
  -33.7778  -31.0757   19.1493 C   0  0  0  0  0  0  0  0  0  0  0  0
  -33.6705  -32.9370   20.8067 C   0  0  0  0  0  0  0  0  0  0  0  0
  -34.5903  -27.2683   24.5339 C   0  0  0  0  0  0  0  0  0  0  0  0
  -26.8078  -19.6832   21.8940 C   0  0  0  0  0  0  0  0  0  0  0  0
  -26.3517  -24.6089   22.5977 C   0  0  0  0  0  0  0  0  0  1  0  0
  -32.7170  -30.6766   21.4178 C   0  0  1  0  0  0  0  0  0  0  0  0
  -35.6470  -28.6887   22.7719 C   0  0  2  0  0  0  0  0  0  0  0  0
  -32.9164  -31.7023   20.2665 C   0  0  0  0  0  0  0  0  0  0  0  0
  -25.8090  -11.5336   20.3268 N   0  0  0  0  0  0  0  0  0  0  0  0
  -26.2056  -12.8077   20.1672 N   0  0  0  0  0  0  0  0  0  0  0  0
  -30.6746  -30.5253   22.8070 N   0  0  0  0  0  0  0  0  0  0  0  0
  -29.9481  -13.5433   20.4150 N   0  0  0  0  0  0  0  0  0  0  0  0
  -25.4662  -15.0515   20.3375 N   0  0  0  0  0  0  0  0  0  0  0  0
  -21.8288  -12.6616   21.5429 N   0  0  0  0  0  0  0  0  0  0  0  0
  -28.1927  -32.9899   23.5112 N   0  0  0  0  0  0  0  0  0  0  0  0
  -33.9580  -30.2274   22.0396 N   0  0  0  0  0  0  0  0  0  0  0  0
  -30.1303  -15.6375   21.4988 N   0  0  0  0  0  0  0  0  0  0  0  0
  -29.8244  -17.9368   19.8736 N   0  3  0  0  0  0  0  0  0  0  0  0
  -35.6540  -27.3907   23.5041 N   0  3  0  0  0  0  0  0  0  0  0  0
  -22.6384  -14.7816   21.2134 O   0  0  0  0  0  0  0  0  0  0  0  0
  -28.4061  -31.4365   21.7895 O   0  0  0  0  0  0  0  0  0  0  0  0
  -32.2308  -32.2284   23.1446 O   0  0  0  0  0  0  0  0  0  0  0  0
  -33.6539  -27.9687   21.6115 O   0  0  0  0  0  0  0  0  0  0  0  0
  -31.8753  -14.8232   20.2543 O   0  0  0  0  0  0  0  0  0  0  0  0
  -21.4768   -7.1081   21.8089 O   0  0  0  0  0  0  0  0  0  0  0  0
  -27.3601  -25.3815   21.9596 O   0  0  0  0  0  0  0  0  0  1  0  0
  -28.2024  -19.6191   21.6378 O   0  0  0  0  0  0  0  0  0  0  0  0
  -23.8063   -3.1075   24.8042 F   0  0  0  0  0  0  0  0  0  0  0  0
  -20.3805   -6.3215   24.2218 F   0  0  0  0  0  0  0  0  0  0  0  0
  1  2  1  0  0  0  0
  1  5  2  0  0  0  0
  2  6  2  0  0  0  0
  3 10  2  0  0  0  0
  3 18  1  0  0  0  0
  4 11  1  0  0  0  0
  4 18  2  0  0  0  0
  5 20  1  0  0  0  0
  6 22  1  0  0  0  0
  7 12  2  0  0  0  0
  7 21  1  0  0  0  0
  8  9  2  0  0  0  0
  8 24  1  0  0  0  0
  9 25  1  0  0  0  0
 10 27  1  0  0  0  0
 11 27  2  0  0  0  0
 12 28  1  0  0  0  0
 13 14  2  0  0  0  0
 13 29  1  0  0  0  0
 14 30  1  0  0  0  0
 15 23  1  0  0  0  0
 15 28  2  0  0  0  0
 16 24  2  0  0  0  0
 16 26  1  0  0  0  0
 17 30  2  0  0  0  0
 17 31  1  0  0  0  0
 18 32  1  0  0  0  0
 19 32  1  0  0  0  0
 19 33  2  0  0  0  0
 19 34  1  0  0  0  0
 20 22  2  0  0  0  0
 20 39  1  0  0  0  0
 21 23  2  0  0  0  0
 21 40  1  0  0  0  0
 22 49  1  0  0  0  0
 23 41  1  0  0  0  0
 24 65  1  0  0  0  0
 25 26  2  0  0  0  0
 25 57  1  0  0  0  0
 26 66  1  0  0  0  0
 27 86  1  0  0  0  0
 28 87  1  0  0  0  0
 29 31  2  0  0  0  0
 29 86  1  0  0  0  0
 30 89  1  0  0  0  0
 31 90  1  0  0  0  0
 32 70  2  0  0  0  0
 33 71  1  0  0  0  0
 33 74  1  0  0  0  0
 34 75  1  0  0  0  0
 34 81  2  0  0  0  0
 35 50  1  0  0  0  0
 35 76  1  0  0  0  0
 35 82  2  0  0  0  0
 36 67  1  0  0  0  0
 36 72  1  0  0  0  0
 36 83  2  0  0  0  0
 37 68  1  0  0  0  0
 37 77  1  0  0  0  0
 37 84  2  0  0  0  0
 38 73  1  0  0  0  0
 38 78  1  0  0  0  0
 38 85  2  0  0  0  0
 39 42  1  0  0  0  0
 40 50  1  0  0  0  0
 41 72  1  0  0  0  0
 42 44  1  0  0  0  0
 43 45  1  0  0  0  0
 43 47  1  0  0  0  0
 44 49  1  0  0  0  0
 45 53  1  0  0  0  0
 46 51  1  0  0  0  0
 46 56  1  0  0  0  0
 47 73  1  0  0  0  0
 48 53  1  0  0  0  0
 48 73  1  0  0  0  0
 49 76  1  0  0  0  0
 50 72  1  0  0  0  0
 51 52  1  0  0  0  0
 51 58  1  0  0  0  0
 52 54  1  0  0  0  0
 52 59  1  0  0  0  0
 53 71  1  0  0  0  0
 54 55  1  0  0  0  0
 54 78  1  0  0  0  0
 55 56  1  0  0  0  0
 55 79  1  0  0  0  0
 56 88  1  0  0  0  0
 60 68  1  0  0  0  0
 61 69  1  0  0  0  0
 62 69  1  0  0  0  0
 63 69  1  0  0  0  0
 64 80  1  0  0  0  0
 65 88  1  0  0  0  0
 66 87  1  0  0  0  0
 67 69  1  0  0  0  0
 67 77  1  0  0  0  0
 68 80  1  0  0  0  0
 70 71  1  0  0  0  0
M  CHG  2  79   1  80   1
M  ISO  4  38 100  66 101  78 100  87 101
M  END
> <Batch ID>
0162

> <Smiles>
CNC(C)C(=O)NC(C(=O)N1Cc2cc([101O:1][101CH2:1]c3cc(COC4CC(C)C(C)C([100NH:0][100C:0](=O)N5CCCC(n6nc(-c7ccc(Oc8ccc(F)cc8F)cc7)c(C(N)=O)c6N)C5)C4N)ccc3C)ccc2CC1C(=O)NC1CCCc2ccccc21)C(C)(C)C

> <Shape>
0.258

> <Color>
0.189

> <Negative vol penalty>
0.000

$$$$

  -OEChem-04052322143D

 88 97  0     1  0  0  0  0  0999 V2000
  -28.5135  -37.5590   23.4102 C   0  0  0  0  0  0  0  0  0  0  0  0
  -29.0425  -36.3698   22.9190 C   0  0  0  0  0  0  0  0  0  0  0  0
  -23.2984   -9.6704   21.1937 C   0  0  0  0  0  0  0  0  0  0  0  0
  -23.9482  -10.5041   23.3663 C   0  0  0  0  0  0  0  0  0  0  0  0
  -27.2915  -37.5523   24.0815 C   0  0  0  0  0  0  0  0  0  0  0  0
  -28.3503  -35.1729   23.0998 C   0  0  0  0  0  0  0  0  0  0  0  0
  -27.1415  -28.8833   19.8910 C   0  0  0  0  0  0  0  0  0  0  0  0
  -22.6262   -8.6102   21.8016 C   0  0  0  0  0  0  0  0  0  0  0  0
  -23.2759   -9.4438   23.9742 C   0  0  0  0  0  0  0  0  0  0  0  0
  -27.2007  -27.5142   20.1477 C   0  0  0  0  0  0  0  0  0  0  0  0
  -23.4151   -5.6373   23.2030 C   0  0  0  0  0  0  0  0  0  0  0  0
  -23.5975   -4.3626   22.6668 C   0  0  0  0  0  0  0  0  0  0  0  0
  -25.0601  -27.6351   21.2534 C   0  0  0  0  0  0  0  0  0  0  0  0
  -21.2262   -4.2065   22.2311 C   0  0  0  0  0  0  0  0  0  0  0  0
  -23.9595  -10.6174   21.9761 C   0  0  0  0  0  0  0  0  0  0  0  0
  -24.1291  -12.9768   21.0210 C   0  0  0  0  0  0  0  0  0  0  0  0
  -26.5793  -36.3561   24.2621 C   0  0  0  0  0  0  0  0  0  0  0  0
  -26.0444  -29.6418   20.3239 C   0  0  0  0  0  0  0  0  0  0  0  0
  -27.1182  -35.1500   23.7752 C   0  0  0  0  0  0  0  0  0  0  0  0
  -24.9882  -29.0132   20.9987 C   0  0  0  0  0  0  0  0  0  0  0  0
  -27.4249  -22.9423   22.2470 C   0  0  0  0  0  0  0  0  0  0  0  0
  -27.2983  -21.5853   22.5225 C   0  0  0  0  0  0  0  0  0  0  0  0
  -27.2397  -23.4025   20.9481 C   0  0  0  0  0  0  0  0  0  0  0  0
  -22.6149   -8.4968   23.1918 C   0  0  0  0  0  0  0  0  0  0  0  0
  -26.1613  -26.8905   20.8316 C   0  0  0  0  0  0  0  0  0  0  0  0
  -22.1382   -6.1966   23.2533 C   0  0  0  0  0  0  0  0  0  0  0  0
  -22.5031   -3.6472   22.1808 C   0  0  0  0  0  0  0  0  0  0  0  0
  -21.0438   -5.4812   22.7674 C   0  0  0  0  0  0  0  0  0  0  0  0
  -24.6546  -11.7125   21.3487 C   0  0  0  0  0  0  0  0  0  0  0  0
  -26.9878  -20.7365   21.4722 C   0  0  0  0  0  0  0  0  0  0  0  0
  -26.9321  -22.4723   19.9683 C   0  0  0  0  0  0  0  0  0  0  0  0
  -25.1819  -13.6485   20.4493 C   0  0  0  0  0  0  0  0  0  0  0  0
  -22.8075  -13.4974   21.2160 C   0  0  0  0  0  0  0  0  0  0  0  0
  -25.6542  -32.0865   22.3177 C   0  0  0  0  0  0  0  0  0  0  0  0
  -22.6065  -31.9984   21.2103 C   0  0  0  0  0  0  0  0  0  0  0  0
  -20.0955  -30.1840   19.7787 C   0  0  0  0  0  0  0  0  0  0  0  0
  -30.4479  -15.1263   20.2123 C   0  0  0  0  0  0  0  0  0  0  0  0
  -25.2850  -36.3916   25.0356 C   0  0  0  0  0  0  0  0  0  0  0  0
  -25.9832  -31.1128   20.0156 C   0  0  0  0  0  0  0  0  0  0  0  0
  -23.7787  -29.7789   21.4667 C   0  0  0  0  0  0  0  0  0  0  0  0
  -24.4342  -35.1368   24.8571 C   0  0  0  0  0  0  0  0  0  0  0  0
  -29.7066  -12.0086   18.9143 C   0  0  0  0  0  0  0  0  0  0  0  0
  -25.2925  -33.8845   25.0044 C   0  0  0  0  0  0  0  0  0  0  0  0
  -28.2806  -11.7443   19.3972 C   0  0  0  0  0  0  0  0  0  0  0  0
  -28.5472  -18.3050   20.1154 C   0  0  0  0  0  0  0  0  0  0  0  0
  -28.1274  -17.1685   22.3247 C   0  0  0  0  0  0  0  0  0  0  0  0
  -30.5423  -12.6598   20.0104 C   0  0  0  0  0  0  0  0  0  0  0  0
  -29.8389  -17.5052   19.9704 C   0  0  0  0  0  0  0  0  0  0  0  0
  -29.4288  -16.3948   22.1409 C   0  0  0  0  0  0  0  0  0  0  0  0
  -28.5323  -13.6800   21.0275 C   0  0  0  0  0  0  0  0  0  0  0  0
  -26.3853  -33.8350   23.9298 C   0  0  1  0  0  0  0  0  0  0  0  0
  -25.0581  -31.8819   20.9537 C   0  0  1  0  0  0  0  0  0  0  0  0
  -28.1713  -18.5141   21.5880 C   0  0  0  0  0  0  0  0  0  0  0  0
  -27.6388  -13.0278   19.9534 C   0  0  2  0  0  0  0  0  0  0  0  0
  -27.7612  -23.9030   23.3427 C   0  0  0  0  0  0  0  0  0  0  0  0
  -27.4900  -21.0615   23.9063 C   0  0  0  0  0  0  0  0  0  0  0  0
  -26.7240  -22.9058   18.5540 C   0  0  0  0  0  0  0  0  0  0  0  0
  -25.7879  -18.6320   20.7755 C   0  0  0  0  0  0  0  0  0  0  0  0
  -17.7074  -30.3734   19.0313 C   0  0  0  0  0  0  0  0  0  0  0  0
  -21.6878  -31.8477   24.1160 C   0  0  0  0  0  0  0  0  0  0  0  0
  -19.4462  -31.0928   23.2952 C   0  0  0  0  0  0  0  0  0  0  0  0
  -20.3102  -33.3458   22.6627 C   0  0  0  0  0  0  0  0  0  0  0  0
  -20.8043  -29.5734   16.9709 C   0  0  0  0  0  0  0  0  0  0  0  0
  -27.3687  -24.8524   20.6203 C   0  0  0  0  0  0  0  0  0  1  0  0
  -26.8360  -19.2442   21.7104 C   0  0  2  0  0  0  0  0  0  0  0  0
  -21.3403  -31.2858   21.6201 C   0  0  1  0  0  0  0  0  0  0  0  0
  -19.1663  -30.4910   18.6182 C   0  0  2  0  0  0  0  0  0  0  0  0
  -20.7197  -31.8787   22.9165 C   0  0  0  0  0  0  0  0  0  0  0  0
  -25.9412  -11.5861   21.0130 N   0  0  0  0  0  0  0  0  0  0  0  0
  -26.8007  -21.1465   20.1977 N   0  0  0  0  0  0  0  0  0  0  0  0
  -26.2329  -12.7796   20.4683 N   0  0  0  0  0  0  0  0  0  0  0  0
  -23.7683  -31.2160   21.1469 N   0  0  0  0  0  0  0  0  0  0  0  0
  -29.8972  -13.8718   20.5150 N   0  0  0  0  0  0  0  0  0  0  0  0
  -29.7795  -16.2520   20.7216 N   0  0  0  0  0  0  0  0  0  0  0  0
  -25.3018  -14.8918   19.9372 N   0  0  0  0  0  0  0  0  0  0  0  0
  -21.8470  -12.6735   21.8186 N   0  0  0  0  0  0  0  0  0  0  0  0
  -25.8288  -33.4132   22.6622 N   0  0  0  0  0  0  0  0  0  0  0  0
  -20.4554  -31.3269   20.4610 N   0  0  0  0  0  0  0  0  0  0  0  0
  -19.4136  -29.5461   17.4926 N   0  3  0  0  0  0  0  0  0  0  0  0
  -22.4833  -14.6530   20.8514 O   0  0  0  0  0  0  0  0  0  0  0  0
  -25.9336  -31.1127   23.0072 O   0  0  0  0  0  0  0  0  0  0  0  0
  -22.5649  -33.2032   20.9490 O   0  0  0  0  0  0  0  0  0  0  0  0
  -20.4622  -29.0439   20.0548 O   0  0  0  0  0  0  0  0  0  0  0  0
  -31.4712  -15.2370   19.5255 O   0  0  0  0  0  0  0  0  0  0  0  0
  -21.9588   -7.4625   23.7853 O   0  0  0  0  0  0  0  0  0  0  0  0
  -26.2172  -25.5451   21.0858 O   0  0  0  0  0  0  0  0  0  1  0  0
  -22.6786   -2.4238   21.6645 F   0  0  0  0  0  0  0  0  0  0  0  0
  -19.8149   -6.0138   22.8119 F   0  0  0  0  0  0  0  0  0  0  0  0
  1  2  1  0  0  0  0
  1  5  2  0  0  0  0
  2  6  2  0  0  0  0
  3  8  2  0  0  0  0
  3 15  1  0  0  0  0
  4  9  1  0  0  0  0
  4 15  2  0  0  0  0
  5 17  1  0  0  0  0
  6 19  1  0  0  0  0
  7 10  2  0  0  0  0
  7 18  1  0  0  0  0
  8 24  1  0  0  0  0
  9 24  2  0  0  0  0
 10 25  1  0  0  0  0
 11 12  2  0  0  0  0
 11 26  1  0  0  0  0
 12 27  1  0  0  0  0
 13 20  1  0  0  0  0
 13 25  2  0  0  0  0
 14 27  2  0  0  0  0
 14 28  1  0  0  0  0
 15 29  1  0  0  0  0
 16 29  1  0  0  0  0
 16 32  2  0  0  0  0
 16 33  1  0  0  0  0
 17 19  2  0  0  0  0
 17 38  1  0  0  0  0
 18 20  2  0  0  0  0
 18 39  1  0  0  0  0
 19 51  1  0  0  0  0
 20 40  1  0  0  0  0
 21 22  1  0  0  0  0
 21 23  2  0  0  0  0
 21 55  1  0  0  0  0
 22 30  2  0  0  0  0
 22 56  1  0  0  0  0
 23 31  1  0  0  0  0
 23 64  1  0  0  0  0
 24 85  1  0  0  0  0
 25 86  1  0  0  0  0
 26 28  2  0  0  0  0
 26 85  1  0  0  0  0
 27 87  1  0  0  0  0
 28 88  1  0  0  0  0
 29 69  2  0  0  0  0
 30 65  1  0  0  0  0
 30 70  1  0  0  0  0
 31 57  1  0  0  0  0
 31 70  2  0  0  0  0
 32 71  1  0  0  0  0
 32 75  1  0  0  0  0
 33 76  1  0  0  0  0
 33 80  2  0  0  0  0
 34 52  1  0  0  0  0
 34 77  1  0  0  0  0
 34 81  2  0  0  0  0
 35 66  1  0  0  0  0
 35 72  1  0  0  0  0
 35 82  2  0  0  0  0
 36 67  1  0  0  0  0
 36 78  1  0  0  0  0
 36 83  2  0  0  0  0
 37 73  1  0  0  0  0
 37 74  1  0  0  0  0
 37 84  2  0  0  0  0
 38 41  1  0  0  0  0
 39 52  1  0  0  0  0
 40 72  1  0  0  0  0
 41 43  1  0  0  0  0
 42 44  1  0  0  0  0
 42 47  1  0  0  0  0
 43 51  1  0  0  0  0
 44 54  1  0  0  0  0
 45 48  1  0  0  0  0
 45 53  1  0  0  0  0
 46 49  1  0  0  0  0
 46 53  1  0  0  0  0
 47 73  1  0  0  0  0
 48 74  1  0  0  0  0
 49 74  1  0  0  0  0
 50 54  1  0  0  0  0
 50 73  1  0  0  0  0
 51 77  1  0  0  0  0
 52 72  1  0  0  0  0
 53 65  1  0  0  0  0
 54 71  1  0  0  0  0
 58 65  1  0  0  0  0
 59 67  1  0  0  0  0
 60 68  1  0  0  0  0
 61 68  1  0  0  0  0
 62 68  1  0  0  0  0
 63 79  1  0  0  0  0
 64 86  1  0  0  0  0
 66 68  1  0  0  0  0
 66 78  1  0  0  0  0
 67 79  1  0  0  0  0
 69 71  1  0  0  0  0
M  CHG  1  79   1
M  ISO  4  37 100  64 101  74 100  86 101
M  END
> <Batch ID>
0162

> <Smiles>
CNC(C)C(=O)NC(C(=O)N1Cc2cc([101O:1][101CH2:1]c3c(C)nc(C(C)C4CC[100N:0]([100C:0](=O)N5CCCC(n6nc(-c7ccc(Oc8ccc(F)cc8F)cc7)c(C(N)=O)c6N)C5)CC4)c(C)c3C)ccc2CC1C(=O)NC1CCCc2ccccc21)C(C)(C)C

> <Shape>
0.322

> <Color>
0.180

> <Negative vol penalty>
0.000

$$$$

  -OEChem-04052322143D

 87 96  0     1  0  0  0  0  0999 V2000
  -21.1528  -33.3761   26.7801 C   0  0  0  0  0  0  0  0  0  0  0  0
  -21.5236  -34.2733   25.7848 C   0  0  0  0  0  0  0  0  0  0  0  0
  -24.5071   -9.1237   22.0917 C   0  0  0  0  0  0  0  0  0  0  0  0
  -23.5301   -9.6341   19.9418 C   0  0  0  0  0  0  0  0  0  0  0  0
  -22.1191  -32.5785   27.3894 C   0  0  0  0  0  0  0  0  0  0  0  0
  -22.8588  -34.3646   25.3902 C   0  0  0  0  0  0  0  0  0  0  0  0
  -28.0513  -30.6094   21.1249 C   0  0  0  0  0  0  0  0  0  0  0  0
  -23.4383   -8.2737   22.3757 C   0  0  0  0  0  0  0  0  0  0  0  0
  -22.4612   -8.7840   20.2258 C   0  0  0  0  0  0  0  0  0  0  0  0
  -28.1786  -29.2379   20.9097 C   0  0  0  0  0  0  0  0  0  0  0  0
  -22.4677   -5.1369   21.5686 C   0  0  0  0  0  0  0  0  0  0  0  0
  -22.7604   -3.8891   22.1191 C   0  0  0  0  0  0  0  0  0  0  0  0
  -25.7873  -29.0637   20.6444 C   0  0  0  0  0  0  0  0  0  0  0  0
  -21.4425   -4.4398   24.0677 C   0  0  0  0  0  0  0  0  0  0  0  0
  -24.5530   -9.8039   20.8748 C   0  0  0  0  0  0  0  0  0  0  0  0
  -26.8683  -10.3437   19.9497 C   0  0  0  0  0  0  0  0  0  0  0  0
  -23.4685  -32.6697   27.0101 C   0  0  0  0  0  0  0  0  0  0  0  0
  -26.7879  -31.2177   21.1123 C   0  0  0  0  0  0  0  0  0  0  0  0
  -23.8452  -33.5510   25.9764 C   0  0  0  0  0  0  0  0  0  0  0  0
  -25.6469  -30.4436   20.8572 C   0  0  0  0  0  0  0  0  0  0  0  0
  -28.8223  -24.6222   18.9706 C   0  0  0  0  0  0  0  0  0  0  0  0
  -27.9630  -24.2274   21.1937 C   0  0  0  0  0  0  0  0  0  0  0  0
  -28.4213  -25.1089   20.2147 C   0  0  0  0  0  0  0  0  0  0  0  0
  -28.7650  -23.2540   18.7054 C   0  0  0  0  0  0  0  0  0  0  0  0
  -27.9057  -22.8591   20.9286 C   0  0  0  0  0  0  0  0  0  0  0  0
  -28.3067  -22.3724   19.6844 C   0  0  0  0  0  0  0  0  0  0  0  0
  -22.4154   -8.1038   21.4427 C   0  0  0  0  0  0  0  0  0  0  0  0
  -27.0462  -28.4643   20.6723 C   0  0  0  0  0  0  0  0  0  0  0  0
  -21.6626   -6.0362   22.2677 C   0  0  0  0  0  0  0  0  0  0  0  0
  -22.2477   -3.5406   23.3686 C   0  0  0  0  0  0  0  0  0  0  0  0
  -21.1500   -5.6876   23.5172 C   0  0  0  0  0  0  0  0  0  0  0  0
  -25.6566  -10.6826   20.5811 C   0  0  0  0  0  0  0  0  0  0  0  0
  -27.5744  -11.5210   19.9073 C   0  0  0  0  0  0  0  0  0  0  0  0
  -27.3156   -9.0778   19.4464 C   0  0  0  0  0  0  0  0  0  0  0  0
  -25.0412  -32.8052   23.2413 C   0  0  0  0  0  0  0  0  0  0  0  0
  -23.0773  -33.2723   20.7022 C   0  0  0  0  0  0  0  0  0  0  0  0
  -21.9998  -32.2180   17.6404 C   0  0  0  0  0  0  0  0  0  0  0  0
  -28.0235  -16.7962   19.0047 C   0  0  0  0  0  0  0  0  0  0  0  0
  -24.4718  -31.7771   27.6973 C   0  0  0  0  0  0  0  0  0  0  0  0
  -26.6700  -32.7028   21.3197 C   0  0  0  0  0  0  0  0  0  0  0  0
  -24.2696  -31.0516   20.8132 C   0  0  0  0  0  0  0  0  0  0  0  0
  -25.9093  -32.2578   27.5278 C   0  0  0  0  0  0  0  0  0  0  0  0
  -26.7313  -15.9613   22.1627 C   0  0  0  0  0  0  0  0  0  0  0  0
  -26.1897  -32.5516   26.0617 C   0  0  0  0  0  0  0  0  0  0  0  0
  -26.4291  -14.4738   21.9837 C   0  0  0  0  0  0  0  0  0  0  0  0
  -26.3646  -16.7741   20.9199 C   0  0  0  0  0  0  0  0  0  0  0  0
  -29.4142  -20.1588   19.7194 C   0  0  0  0  0  0  0  0  0  0  0  0
  -26.9340  -20.3464   19.4747 C   0  0  0  0  0  0  0  0  0  0  0  0
  -29.3759  -18.8572   18.9230 C   0  0  0  0  0  0  0  0  0  0  0  0
  -26.9414  -19.0498   18.6726 C   0  0  0  0  0  0  0  0  0  0  0  0
  -26.6701  -14.7788   19.4904 C   0  0  0  0  0  0  0  0  0  0  0  0
  -25.2962  -33.6895   25.5521 C   0  0  1  0  0  0  0  0  0  0  0  0
  -25.2853  -33.1317   21.7951 C   0  0  1  0  0  0  0  0  0  0  0  0
  -27.0825  -13.9278   20.7016 C   0  0  2  0  0  0  0  0  0  0  0  0
  -29.3147  -25.5681   17.9206 C   0  0  0  0  0  0  0  0  0  0  0  0
  -27.5318  -24.7501   22.5278 C   0  0  0  0  0  0  0  0  0  0  0  0
  -29.1966  -22.7354   17.3692 C   0  0  0  0  0  0  0  0  0  0  0  0
  -27.4126  -21.9159   21.9817 C   0  0  0  0  0  0  0  0  0  0  0  0
  -20.3581  -32.7821   15.8282 C   0  0  0  0  0  0  0  0  0  0  0  0
  -20.8125  -32.1403   22.4049 C   0  0  0  0  0  0  0  0  0  0  0  0
  -19.4781  -31.8425   20.3076 C   0  0  0  0  0  0  0  0  0  0  0  0
  -20.1846  -34.1262   21.0205 C   0  0  0  0  0  0  0  0  0  0  0  0
  -24.1551  -32.6157   15.6516 C   0  0  0  0  0  0  0  0  0  0  0  0
  -28.4826  -26.5768   20.4990 C   0  0  0  0  0  0  0  0  0  1  0  0
  -21.9116  -32.5252   20.1006 C   0  0  1  0  0  0  0  0  0  0  0  0
  -21.7791  -32.9657   16.3378 C   0  0  2  0  0  0  0  0  0  0  0  0
  -20.6223  -32.6464   20.9611 C   0  0  0  0  0  0  0  0  0  0  0  0
  -25.5932  -11.9740   20.9159 N   0  0  0  0  0  0  0  0  0  0  0  0
  -26.7740  -12.4570   20.4934 N   0  0  0  0  0  0  0  0  0  0  0  0
  -28.2496  -20.9984   19.4183 N   0  0  0  0  0  0  0  0  0  0  0  0
  -24.2057  -32.5067   21.0282 N   0  0  0  0  0  0  0  0  0  0  0  0
  -26.9771  -16.1925   19.7180 N   0  0  0  0  0  0  0  0  0  0  0  0
  -28.0793  -18.1986   19.0260 N   0  0  0  0  0  0  0  0  0  0  0  0
  -28.7957  -11.8365   19.4264 N   0  0  0  0  0  0  0  0  0  0  0  0
  -26.4649   -7.9709   19.5710 N   0  0  0  0  0  0  0  0  0  0  0  0
  -25.4406  -33.7967   24.1170 N   0  0  0  0  0  0  0  0  0  0  0  0
  -21.7685  -33.0221   18.7364 N   0  0  0  0  0  0  0  0  0  0  0  0
  -22.7205  -32.4740   15.2924 N   0  3  0  0  0  0  0  0  0  0  0  0
  -28.4430   -8.9291   18.9170 O   0  0  0  0  0  0  0  0  0  0  0  0
  -24.5271  -31.7338   23.5404 O   0  0  0  0  0  0  0  0  0  0  0  0
  -22.9926  -34.4914   20.8698 O   0  0  0  0  0  0  0  0  0  0  0  0
  -22.3395  -31.0376   17.6816 O   0  0  0  0  0  0  0  0  0  0  0  0
  -28.8601  -16.1248   18.3881 O   0  0  0  0  0  0  0  0  0  0  0  0
  -21.3724   -7.2742   21.7194 O   0  0  0  0  0  0  0  0  0  0  0  0
  -27.1685  -27.1152   20.4610 O   0  0  0  0  0  0  0  0  0  1  0  0
  -22.5276   -2.3417   23.8965 F   0  0  0  0  0  0  0  0  0  0  0  0
  -20.3749   -6.5469   24.1930 F   0  0  0  0  0  0  0  0  0  0  0  0
  1  2  1  0  0  0  0
  1  5  2  0  0  0  0
  2  6  2  0  0  0  0
  3  8  2  0  0  0  0
  3 15  1  0  0  0  0
  4  9  1  0  0  0  0
  4 15  2  0  0  0  0
  5 17  1  0  0  0  0
  6 19  1  0  0  0  0
  7 10  2  0  0  0  0
  7 18  1  0  0  0  0
  8 27  1  0  0  0  0
  9 27  2  0  0  0  0
 10 28  1  0  0  0  0
 11 12  2  0  0  0  0
 11 29  1  0  0  0  0
 12 30  1  0  0  0  0
 13 20  1  0  0  0  0
 13 28  2  0  0  0  0
 14 30  2  0  0  0  0
 14 31  1  0  0  0  0
 15 32  1  0  0  0  0
 16 32  1  0  0  0  0
 16 33  2  0  0  0  0
 16 34  1  0  0  0  0
 17 19  2  0  0  0  0
 17 39  1  0  0  0  0
 18 20  2  0  0  0  0
 18 40  1  0  0  0  0
 19 52  1  0  0  0  0
 20 41  1  0  0  0  0
 21 23  1  0  0  0  0
 21 24  2  0  0  0  0
 21 55  1  0  0  0  0
 22 23  2  0  0  0  0
 22 25  1  0  0  0  0
 22 56  1  0  0  0  0
 23 64  1  0  0  0  0
 24 26  1  0  0  0  0
 24 57  1  0  0  0  0
 25 26  2  0  0  0  0
 25 58  1  0  0  0  0
 26 70  1  0  0  0  0
 27 84  1  0  0  0  0
 28 85  1  0  0  0  0
 29 31  2  0  0  0  0
 29 84  1  0  0  0  0
 30 86  1  0  0  0  0
 31 87  1  0  0  0  0
 32 68  2  0  0  0  0
 33 69  1  0  0  0  0
 33 74  1  0  0  0  0
 34 75  1  0  0  0  0
 34 79  2  0  0  0  0
 35 53  1  0  0  0  0
 35 76  1  0  0  0  0
 35 80  2  0  0  0  0
 36 65  1  0  0  0  0
 36 71  1  0  0  0  0
 36 81  2  0  0  0  0
 37 66  1  0  0  0  0
 37 77  1  0  0  0  0
 37 82  2  0  0  0  0
 38 72  1  0  0  0  0
 38 73  1  0  0  0  0
 38 83  2  0  0  0  0
 39 42  1  0  0  0  0
 40 53  1  0  0  0  0
 41 71  1  0  0  0  0
 42 44  1  0  0  0  0
 43 45  1  0  0  0  0
 43 46  1  0  0  0  0
 44 52  1  0  0  0  0
 45 54  1  0  0  0  0
 46 72  1  0  0  0  0
 47 49  1  0  0  0  0
 47 70  1  0  0  0  0
 48 50  1  0  0  0  0
 48 70  1  0  0  0  0
 49 73  1  0  0  0  0
 50 73  1  0  0  0  0
 51 54  1  0  0  0  0
 51 72  1  0  0  0  0
 52 76  1  0  0  0  0
 53 71  1  0  0  0  0
 54 69  1  0  0  0  0
 59 66  1  0  0  0  0
 60 67  1  0  0  0  0
 61 67  1  0  0  0  0
 62 67  1  0  0  0  0
 63 78  1  0  0  0  0
 64 85  1  0  0  0  0
 65 67  1  0  0  0  0
 65 77  1  0  0  0  0
 66 78  1  0  0  0  0
 68 69  1  0  0  0  0
M  CHG  1  78   1
M  ISO  4  38 100  64 101  73 100  85 101
M  END
> <Batch ID>
0162

> <Smiles>
CNC(C)C(=O)NC(C(=O)N1Cc2cc([101O:1][101CH2:1]c3c(C)c(C)c(N4CC[100N:0]([100C:0](=O)N5CCCC(n6nc(-c7ccc(Oc8ccc(F)cc8F)cc7)c(C(N)=O)c6N)C5)CC4)c(C)c3C)ccc2CC1C(=O)NC1CCCc2ccccc21)C(C)(C)C

> <Shape>
0.280

> <Color>
0.085

> <Negative vol penalty>
0.000

$$$$

  -OEChem-04052322143D

 87 96  0     1  0  0  0  0  0999 V2000
  -20.0221  -17.6759   19.6326 C   0  0  0  0  0  0  0  0  0  0  0  0
  -21.3317  -18.0454   19.3477 C   0  0  0  0  0  0  0  0  0  0  0  0
  -24.5904  -30.2369   21.8148 C   0  0  0  0  0  0  0  0  0  0  0  0
  -23.9529  -30.2139   19.4845 C   0  0  0  0  0  0  0  0  0  0  0  0
  -19.7746  -16.5717   20.4454 C   0  0  0  0  0  0  0  0  0  0  0  0
  -22.3941  -17.3039   19.8656 C   0  0  0  0  0  0  0  0  0  0  0  0
  -26.9094  -18.4762   18.3031 C   0  0  0  0  0  0  0  0  0  0  0  0
  -23.7092  -31.2932   22.0455 C   0  0  0  0  0  0  0  0  0  0  0  0
  -23.0716  -31.2702   19.7153 C   0  0  0  0  0  0  0  0  0  0  0  0
  -27.5620  -19.6450   18.6927 C   0  0  0  0  0  0  0  0  0  0  0  0
  -23.6515  -34.6384   21.5653 C   0  0  0  0  0  0  0  0  0  0  0  0
  -24.1101  -35.7079   22.3344 C   0  0  0  0  0  0  0  0  0  0  0  0
  -24.9816  -21.2655   25.9537 C   0  0  0  0  0  0  0  0  0  0  0  0
  -28.9284  -18.3672   20.2156 C   0  0  0  0  0  0  0  0  0  0  0  0
  -22.3526  -35.3053   23.9425 C   0  0  0  0  0  0  0  0  0  0  0  0
  -24.7123  -29.6973   20.5342 C   0  0  0  0  0  0  0  0  0  0  0  0
  -27.0164  -28.6030   20.4950 C   0  0  0  0  0  0  0  0  0  0  0  0
  -20.8352  -15.8242   20.9833 C   0  0  0  0  0  0  0  0  0  0  0  0
  -27.2545  -17.2436   18.8757 C   0  0  0  0  0  0  0  0  0  0  0  0
  -22.1646  -16.1719   20.6684 C   0  0  0  0  0  0  0  0  0  0  0  0
  -24.3241  -21.0401   24.7333 C   0  0  0  0  0  0  0  0  0  0  0  0
  -28.2804  -17.1839   19.8297 C   0  0  0  0  0  0  0  0  0  0  0  0
  -24.9456  -21.4168   23.5253 C   0  0  0  0  0  0  0  0  0  0  0  0
  -26.2574  -21.8249   25.9825 C   0  0  0  0  0  0  0  0  0  0  0  0
  -26.8905  -22.1648   24.7923 C   0  0  0  0  0  0  0  0  0  0  0  0
  -22.9498  -31.8098   20.9958 C   0  0  0  0  0  0  0  0  0  0  0  0
  -28.5696  -19.5911   19.6512 C   0  0  0  0  0  0  0  0  0  0  0  0
  -22.5433  -33.9024   21.9848 C   0  0  0  0  0  0  0  0  0  0  0  0
  -26.2432  -21.9573   23.5737 C   0  0  0  0  0  0  0  0  0  0  0  0
  -23.4607  -36.0413   23.5229 C   0  0  0  0  0  0  0  0  0  0  0  0
  -21.8938  -34.2359   23.1734 C   0  0  0  0  0  0  0  0  0  0  0  0
  -25.6229  -28.6065   20.2951 C   0  0  0  0  0  0  0  0  0  0  0  0
  -27.4133  -27.3415   20.1240 C   0  0  0  0  0  0  0  0  0  0  0  0
  -27.8752  -29.6467   20.9733 C   0  0  0  0  0  0  0  0  0  0  0  0
  -25.7217  -15.0727   20.6197 C   0  0  0  0  0  0  0  0  0  0  0  0
  -28.4612  -13.3831   20.2167 C   0  0  0  0  0  0  0  0  0  0  0  0
  -31.8133  -13.4086   19.5765 C   0  0  0  0  0  0  0  0  0  0  0  0
  -24.5730  -22.0755   19.8956 C   0  0  0  0  0  0  0  0  0  0  0  0
  -20.5103  -14.6336   21.8506 C   0  0  0  0  0  0  0  0  0  0  0  0
  -26.5593  -15.9882   18.4251 C   0  0  0  0  0  0  0  0  0  0  0  0
  -22.9408  -20.4392   24.7606 C   0  0  0  0  0  0  0  0  0  0  0  0
  -28.7024  -15.8827   20.4600 C   0  0  0  0  0  0  0  0  0  0  0  0
  -21.6889  -14.1827   22.7072 C   0  0  0  0  0  0  0  0  0  0  0  0
  -22.5180  -19.8572   23.4155 C   0  0  0  0  0  0  0  0  0  0  0  0
  -26.2100  -23.7431   17.2094 C   0  0  0  0  0  0  0  0  0  0  0  0
  -22.9351  -14.0450   21.8455 C   0  0  0  0  0  0  0  0  0  0  0  0
  -22.7737  -20.8688   22.3067 C   0  0  0  0  0  0  0  0  0  0  0  0
  -26.3709  -25.1783   17.7137 C   0  0  0  0  0  0  0  0  0  0  0  0
  -24.8932  -23.1257   17.6751 C   0  0  0  0  0  0  0  0  0  0  0  0
  -24.8237  -24.6182   19.6349 C   0  0  0  0  0  0  0  0  0  0  0  0
  -23.3365  -15.3985   21.2455 C   0  0  1  0  0  0  0  0  0  0  0  0
  -24.2729  -21.1710   22.1872 C   0  0  1  0  0  0  0  0  0  0  0  0
  -26.6396  -14.8603   19.4492 C   0  0  1  0  0  0  0  0  0  0  0  0
  -26.1622  -25.2640   19.2376 C   0  0  2  0  0  0  0  0  0  0  0  0
  -26.9236  -22.0411   27.3015 C   0  0  0  0  0  0  0  0  0  0  0  0
  -28.2686  -22.7468   24.8170 C   0  0  0  0  0  0  0  0  0  0  0  0
  -33.7869  -11.8756   19.3484 C   0  0  0  0  0  0  0  0  0  0  0  0
  -29.3151  -22.9391   20.9226 C   0  0  0  0  0  0  0  0  0  0  0  0
  -28.5718  -13.0781   23.2506 C   0  0  0  0  0  0  0  0  0  0  0  0
  -30.9723  -12.4033   23.0255 C   0  0  0  0  0  0  0  0  0  0  0  0
  -29.1850  -11.0181   21.9720 C   0  0  0  0  0  0  0  0  0  0  0  0
  -32.2694  -14.2244   16.7684 C   0  0  0  0  0  0  0  0  0  0  0  0
  -27.7260  -21.2292   21.8629 C   0  0  0  0  0  0  0  0  0  0  0  0
  -29.7649  -13.2651   20.9686 C   0  0  1  0  0  0  0  0  0  0  0  0
  -32.6620  -12.5926   18.6182 C   0  0  2  0  0  0  0  0  0  0  0  0
  -28.4064  -21.7622   20.6080 C   0  0  2  0  0  0  0  0  0  1  0  0
  -29.6145  -12.4661   22.2939 C   0  0  0  0  0  0  0  0  0  0  0  0
  -25.1653  -27.4399   19.8329 N   0  0  0  0  0  0  0  0  0  0  0  0
  -26.2777  -26.6916   19.7391 N   0  0  0  0  0  0  0  0  0  0  0  0
  -27.9885  -14.6836   19.9910 N   0  0  0  0  0  0  0  0  0  0  0  0
  -24.7577  -23.2381   19.1293 N   0  0  0  0  0  0  0  0  0  0  0  0
  -28.6194  -26.7360   20.0926 N   0  0  0  0  0  0  0  0  0  0  0  0
  -28.4422  -30.5256   20.0404 N   0  0  0  0  0  0  0  0  0  0  0  0
  -24.3887  -15.1913   20.2751 N   0  0  0  0  0  0  0  0  0  0  0  0
  -30.7261  -12.6932   20.0319 N   0  0  0  0  0  0  0  0  0  0  0  0
  -24.4600  -22.2704   21.2668 N   0  0  0  0  0  0  0  0  0  0  0  0
  -33.2637  -13.4752   17.5790 N   0  3  0  0  0  0  0  0  0  0  0  0
  -28.1453  -29.7854   22.1904 O   0  0  0  0  0  0  0  0  0  0  0  0
  -26.1881  -15.1238   21.7518 O   0  0  0  0  0  0  0  0  0  0  0  0
  -27.8872  -12.3594   19.8372 O   0  0  0  0  0  0  0  0  0  0  0  0
  -32.0893  -14.5638   19.8925 O   0  0  0  0  0  0  0  0  0  0  0  0
  -24.5185  -20.9468   19.3955 O   0  0  0  0  0  0  0  0  0  0  0  0
  -22.0896  -32.8404   21.2206 O   0  0  0  0  0  0  0  0  0  0  0  0
  -26.9201  -22.2606   22.4223 O   0  0  0  0  0  0  0  0  0  0  0  0
  -29.2078  -20.7305   20.0338 O   0  0  0  0  0  0  0  0  0  1  0  0
  -23.9022  -37.0674   24.2621 F   0  0  0  0  0  0  0  0  0  0  0  0
  -20.8294  -33.5317   23.5821 F   0  0  0  0  0  0  0  0  0  0  0  0
  1  2  1  0  0  0  0
  1  5  2  0  0  0  0
  2  6  2  0  0  0  0
  3  8  2  0  0  0  0
  3 16  1  0  0  0  0
  4  9  1  0  0  0  0
  4 16  2  0  0  0  0
  5 18  1  0  0  0  0
  6 20  1  0  0  0  0
  7 10  2  0  0  0  0
  7 19  1  0  0  0  0
  8 26  1  0  0  0  0
  9 26  2  0  0  0  0
 10 27  1  0  0  0  0
 11 12  2  0  0  0  0
 11 28  1  0  0  0  0
 12 30  1  0  0  0  0
 13 21  2  0  0  0  0
 13 24  1  0  0  0  0
 14 22  1  0  0  0  0
 14 27  2  0  0  0  0
 15 30  2  0  0  0  0
 15 31  1  0  0  0  0
 16 32  1  0  0  0  0
 17 32  1  0  0  0  0
 17 33  2  0  0  0  0
 17 34  1  0  0  0  0
 18 20  2  0  0  0  0
 18 39  1  0  0  0  0
 19 22  2  0  0  0  0
 19 40  1  0  0  0  0
 20 51  1  0  0  0  0
 21 23  1  0  0  0  0
 21 41  1  0  0  0  0
 22 42  1  0  0  0  0
 23 29  2  0  0  0  0
 23 52  1  0  0  0  0
 24 25  2  0  0  0  0
 24 55  1  0  0  0  0
 25 29  1  0  0  0  0
 25 56  1  0  0  0  0
 26 83  1  0  0  0  0
 27 85  1  0  0  0  0
 28 31  2  0  0  0  0
 28 83  1  0  0  0  0
 29 84  1  0  0  0  0
 30 86  1  0  0  0  0
 31 87  1  0  0  0  0
 32 68  2  0  0  0  0
 33 69  1  0  0  0  0
 33 72  1  0  0  0  0
 34 73  1  0  0  0  0
 34 78  2  0  0  0  0
 35 53  1  0  0  0  0
 35 74  1  0  0  0  0
 35 79  2  0  0  0  0
 36 64  1  0  0  0  0
 36 70  1  0  0  0  0
 36 80  2  0  0  0  0
 37 65  1  0  0  0  0
 37 75  1  0  0  0  0
 37 81  2  0  0  0  0
 38 71  1  0  0  0  0
 38 76  1  0  0  0  0
 38 82  2  0  0  0  0
 39 43  1  0  0  0  0
 40 53  1  0  0  0  0
 41 44  1  0  0  0  0
 42 70  1  0  0  0  0
 43 46  1  0  0  0  0
 44 47  1  0  0  0  0
 45 48  1  0  0  0  0
 45 49  1  0  0  0  0
 46 51  1  0  0  0  0
 47 52  1  0  0  0  0
 48 54  1  0  0  0  0
 49 71  1  0  0  0  0
 50 54  1  0  0  0  0
 50 71  1  0  0  0  0
 51 74  1  0  0  0  0
 52 76  1  0  0  0  0
 53 70  1  0  0  0  0
 54 69  1  0  0  0  0
 57 65  1  0  0  0  0
 58 66  1  0  0  0  0
 59 67  1  0  0  0  0
 60 67  1  0  0  0  0
 61 67  1  0  0  0  0
 62 77  1  0  0  0  0
 63 66  1  0  0  0  0
 63 84  1  0  0  0  0
 64 67  1  0  0  0  0
 64 75  1  0  0  0  0
 65 77  1  0  0  0  0
 66 85  1  0  0  0  0
 68 69  1  0  0  0  0
M  CHG  1  77   1
M  ISO  4  38 100  66 101  76 100  85 101
M  END
> <Batch ID>
0162

> <Smiles>
CNC(C)C(=O)NC(C(=O)N1Cc2cc([101O:1][101CH:1](C)COc3c(C)c(C)cc4c3C([100NH:0][100C:0](=O)N3CCCC(n5nc(-c6ccc(Oc7ccc(F)cc7F)cc6)c(C(N)=O)c5N)C3)CCC4)ccc2CC1C(=O)NC1CCCc2ccccc21)C(C)(C)C

> <Shape>
0.211

> <Color>
0.080

> <Negative vol penalty>
0.000

$$$$

  -OEChem-04052322143D

 87 96  0     1  0  0  0  0  0999 V2000
  -28.7149  -31.9651   27.0305 C   0  0  0  0  0  0  0  0  0  0  0  0
  -28.3003  -30.8638   26.2884 C   0  0  0  0  0  0  0  0  0  0  0  0
  -22.6347  -11.5609   19.0151 C   0  0  0  0  0  0  0  0  0  0  0  0
  -23.1540   -9.7692   20.5504 C   0  0  0  0  0  0  0  0  0  0  0  0
  -27.8959  -33.0895   27.1241 C   0  0  0  0  0  0  0  0  0  0  0  0
  -27.0659  -30.8859   25.6403 C   0  0  0  0  0  0  0  0  0  0  0  0
  -27.3271  -29.1174   20.9023 C   0  0  0  0  0  0  0  0  0  0  0  0
  -21.5677  -10.8185   18.5095 C   0  0  0  0  0  0  0  0  0  0  0  0
  -22.0869   -9.0267   20.0447 C   0  0  0  0  0  0  0  0  0  0  0  0
  -27.3788  -27.7335   20.7411 C   0  0  0  0  0  0  0  0  0  0  0  0
  -18.7259   -8.9473   20.3875 C   0  0  0  0  0  0  0  0  0  0  0  0
  -17.8880   -8.3125   21.3043 C   0  0  0  0  0  0  0  0  0  0  0  0
  -25.0224  -27.7116   20.2256 C   0  0  0  0  0  0  0  0  0  0  0  0
  -27.9101  -23.0482   19.0051 C   0  0  0  0  0  0  0  0  0  0  0  0
  -18.4392   -6.1730   20.3267 C   0  0  0  0  0  0  0  0  0  0  0  0
  -23.4279  -11.0363   20.0356 C   0  0  0  0  0  0  0  0  0  0  0  0
  -24.5003  -12.7131   21.6312 C   0  0  0  0  0  0  0  0  0  0  0  0
  -26.6550  -33.1292   26.4689 C   0  0  0  0  0  0  0  0  0  0  0  0
  -26.1183  -29.8086   20.7367 C   0  0  0  0  0  0  0  0  0  0  0  0
  -26.2288  -32.0114   25.7263 C   0  0  0  0  0  0  0  0  0  0  0  0
  -24.9585  -29.1046   20.3826 C   0  0  0  0  0  0  0  0  0  0  0  0
  -27.4051  -23.5786   20.1923 C   0  0  0  0  0  0  0  0  0  0  0  0
  -27.7999  -21.6814   18.7494 C   0  0  0  0  0  0  0  0  0  0  0  0
  -26.7900  -22.7421   21.1238 C   0  0  0  0  0  0  0  0  0  0  0  0
  -26.6798  -21.3753   20.8681 C   0  0  0  0  0  0  0  0  0  0  0  0
  -21.2938   -9.5513   19.0242 C   0  0  0  0  0  0  0  0  0  0  0  0
  -26.2257  -27.0300   20.4056 C   0  0  0  0  0  0  0  0  0  0  0  0
  -19.4204   -8.1950   19.4402 C   0  0  0  0  0  0  0  0  0  0  0  0
  -27.1848  -20.8449   19.6809 C   0  0  0  0  0  0  0  0  0  0  0  0
  -17.7446   -6.9253   21.2739 C   0  0  0  0  0  0  0  0  0  0  0  0
  -19.2771   -6.8078   19.4098 C   0  0  0  0  0  0  0  0  0  0  0  0
  -24.5306  -11.8026   20.5580 C   0  0  0  0  0  0  0  0  0  0  0  0
  -25.7915  -13.1707   21.7299 C   0  0  0  0  0  0  0  0  0  0  0  0
  -23.4030  -13.1097   22.4645 C   0  0  0  0  0  0  0  0  0  0  0  0
  -24.2744  -31.5858   22.6196 C   0  0  0  0  0  0  0  0  0  0  0  0
  -22.6266  -32.0928   19.8719 C   0  0  0  0  0  0  0  0  0  0  0  0
  -21.8050  -31.0044   16.7434 C   0  0  0  0  0  0  0  0  0  0  0  0
  -30.3717  -15.0445   19.6392 C   0  0  0  0  0  0  0  0  0  0  0  0
  -25.7834  -34.3483   26.6382 C   0  0  0  0  0  0  0  0  0  0  0  0
  -26.0849  -31.3047   20.8878 C   0  0  0  0  0  0  0  0  0  0  0  0
  -23.6402  -29.8021   20.1736 C   0  0  0  0  0  0  0  0  0  0  0  0
  -24.6553  -34.4375   25.6136 C   0  0  0  0  0  0  0  0  0  0  0  0
  -30.0467  -11.5484   19.5442 C   0  0  0  0  0  0  0  0  0  0  0  0
  -23.9452  -33.0938   25.4831 C   0  0  0  0  0  0  0  0  0  0  0  0
  -28.5682  -11.3707   19.8880 C   0  0  0  0  0  0  0  0  0  0  0  0
  -28.7895  -18.2975   20.6038 C   0  0  0  0  0  0  0  0  0  0  0  0
  -28.0671  -17.6147   18.2925 C   0  0  0  0  0  0  0  0  0  0  0  0
  -30.2777  -12.7334   18.6051 C   0  0  0  0  0  0  0  0  0  0  0  0
  -30.0157  -17.4060   20.4566 C   0  0  0  0  0  0  0  0  0  0  0  0
  -29.3019  -16.7275   18.1853 C   0  0  0  0  0  0  0  0  0  0  0  0
  -28.2223  -13.8295   19.4367 C   0  0  0  0  0  0  0  0  0  0  0  0
  -24.9075  -32.0070   24.9887 C   0  0  1  0  0  0  0  0  0  0  0  0
  -24.6918  -31.8429   21.1992 C   0  0  1  0  0  0  0  0  0  0  0  0
  -27.9644  -12.6809   20.4242 C   0  0  1  0  0  0  0  0  0  0  0  0
  -28.2950  -18.7875   19.2443 C   0  0  0  0  0  0  0  0  0  0  0  0
  -28.3461  -21.1326   17.4727 C   0  0  0  0  0  0  0  0  0  0  0  0
  -26.2482  -23.3128   22.3959 C   0  0  0  0  0  0  0  0  0  0  0  0
  -26.0208  -20.4733   21.8625 C   0  0  0  0  0  0  0  0  0  0  0  0
  -20.4072  -31.6125   14.7501 C   0  0  0  0  0  0  0  0  0  0  0  0
  -20.1207  -31.1780   21.3531 C   0  0  0  0  0  0  0  0  0  0  0  0
  -18.9965  -30.8957   19.1339 C   0  0  0  0  0  0  0  0  0  0  0  0
  -19.7842  -33.1507   19.8532 C   0  0  0  0  0  0  0  0  0  0  0  0
  -24.1803  -31.1841   14.9871 C   0  0  0  0  0  0  0  0  0  0  0  0
  -27.5360  -25.0456   20.4418 C   0  0  0  0  0  0  0  0  0  1  0  0
  -21.4806  -31.4049   19.1701 C   0  0  1  0  0  0  0  0  0  0  0  0
  -21.7761  -31.7180   15.4039 C   0  0  2  0  0  0  0  0  0  0  0  0
  -20.1198  -31.6436   19.8833 C   0  0  0  0  0  0  0  0  0  0  0  0
  -25.7449  -11.6874   20.0137 N   0  0  0  0  0  0  0  0  0  0  0  0
  -26.4895  -12.5317   20.7478 N   0  0  0  0  0  0  0  0  0  0  0  0
  -23.6573  -31.2650   20.3390 N   0  0  0  0  0  0  0  0  0  0  0  0
  -29.6508  -13.9502   19.1383 N   0  0  0  0  0  0  0  0  0  0  0  0
  -29.7780  -16.3107   19.5050 N   0  0  0  0  0  0  0  0  0  0  0  0
  -26.3865  -14.0535   22.5600 N   0  0  0  0  0  0  0  0  0  0  0  0
  -22.1439  -12.5418   22.2265 N   0  0  0  0  0  0  0  0  0  0  0  0
  -25.1228  -32.1330   23.5631 N   0  0  0  0  0  0  0  0  0  0  0  0
  -21.5173  -31.8610   17.7849 N   0  0  0  0  0  0  0  0  0  0  0  0
  -22.7850  -31.1267   14.4801 N   0  3  0  0  0  0  0  0  0  0  0  0
  -23.5315  -13.9552   23.3822 O   0  0  0  0  0  0  0  0  0  0  0  0
  -23.2572  -30.9400   22.8429 O   0  0  0  0  0  0  0  0  0  0  0  0
  -22.6113  -33.3201   19.9946 O   0  0  0  0  0  0  0  0  0  0  0  0
  -22.0540  -29.8059   16.8545 O   0  0  0  0  0  0  0  0  0  0  0  0
  -31.4797  -14.9026   20.1713 O   0  0  0  0  0  0  0  0  0  0  0  0
  -20.2525   -8.8266   18.5312 O   0  0  0  0  0  0  0  0  0  0  0  0
  -27.0790  -19.5024   19.4290 O   0  0  0  0  0  0  0  0  0  0  0  0
  -26.2736  -25.6695   20.2472 O   0  0  0  0  0  0  0  0  0  1  0  0
  -16.9412   -6.3157   22.1554 F   0  0  0  0  0  0  0  0  0  0  0  0
  -19.9426   -6.0796   18.5029 F   0  0  0  0  0  0  0  0  0  0  0  0
  1  2  1  0  0  0  0
  1  5  2  0  0  0  0
  2  6  2  0  0  0  0
  3  8  2  0  0  0  0
  3 16  1  0  0  0  0
  4  9  1  0  0  0  0
  4 16  2  0  0  0  0
  5 18  1  0  0  0  0
  6 20  1  0  0  0  0
  7 10  2  0  0  0  0
  7 19  1  0  0  0  0
  8 26  1  0  0  0  0
  9 26  2  0  0  0  0
 10 27  1  0  0  0  0
 11 12  2  0  0  0  0
 11 28  1  0  0  0  0
 12 30  1  0  0  0  0
 13 21  1  0  0  0  0
 13 27  2  0  0  0  0
 14 22  1  0  0  0  0
 14 23  2  0  0  0  0
 15 30  2  0  0  0  0
 15 31  1  0  0  0  0
 16 32  1  0  0  0  0
 17 32  1  0  0  0  0
 17 33  2  0  0  0  0
 17 34  1  0  0  0  0
 18 20  2  0  0  0  0
 18 39  1  0  0  0  0
 19 21  2  0  0  0  0
 19 40  1  0  0  0  0
 20 52  1  0  0  0  0
 21 41  1  0  0  0  0
 22 24  2  0  0  0  0
 22 64  1  0  0  0  0
 23 29  1  0  0  0  0
 23 56  1  0  0  0  0
 24 25  1  0  0  0  0
 24 57  1  0  0  0  0
 25 29  2  0  0  0  0
 25 58  1  0  0  0  0
 26 83  1  0  0  0  0
 27 85  1  0  0  0  0
 28 31  2  0  0  0  0
 28 83  1  0  0  0  0
 29 84  1  0  0  0  0
 30 86  1  0  0  0  0
 31 87  1  0  0  0  0
 32 68  2  0  0  0  0
 33 69  1  0  0  0  0
 33 73  1  0  0  0  0
 34 74  1  0  0  0  0
 34 78  2  0  0  0  0
 35 53  1  0  0  0  0
 35 75  1  0  0  0  0
 35 79  2  0  0  0  0
 36 65  1  0  0  0  0
 36 70  1  0  0  0  0
 36 80  2  0  0  0  0
 37 66  1  0  0  0  0
 37 76  1  0  0  0  0
 37 81  2  0  0  0  0
 38 71  1  0  0  0  0
 38 72  1  0  0  0  0
 38 82  2  0  0  0  0
 39 42  1  0  0  0  0
 40 53  1  0  0  0  0
 41 70  1  0  0  0  0
 42 44  1  0  0  0  0
 43 45  1  0  0  0  0
 43 48  1  0  0  0  0
 44 52  1  0  0  0  0
 45 54  1  0  0  0  0
 46 49  1  0  0  0  0
 46 55  1  0  0  0  0
 47 50  1  0  0  0  0
 47 55  1  0  0  0  0
 48 71  1  0  0  0  0
 49 72  1  0  0  0  0
 50 72  1  0  0  0  0
 51 54  1  0  0  0  0
 51 71  1  0  0  0  0
 52 75  1  0  0  0  0
 53 70  1  0  0  0  0
 54 69  1  0  0  0  0
 55 84  1  0  0  0  0
 59 66  1  0  0  0  0
 60 67  1  0  0  0  0
 61 67  1  0  0  0  0
 62 67  1  0  0  0  0
 63 77  1  0  0  0  0
 64 85  1  0  0  0  0
 65 67  1  0  0  0  0
 65 76  1  0  0  0  0
 66 77  1  0  0  0  0
 68 69  1  0  0  0  0
M  CHG  1  77   1
M  ISO  4  38 100  64 101  72 100  85 101
M  END
> <Batch ID>
0162

> <Smiles>
CNC(C)C(=O)NC(C(=O)N1Cc2cc([101O:1][101CH2:1]c3cc(C)c(OC4CC[100N:0]([100C:0](=O)N5CCCC(n6nc(-c7ccc(Oc8ccc(F)cc8F)cc7)c(C(N)=O)c6N)C5)CC4)c(C)c3C)ccc2CC1C(=O)NC1CCCc2ccccc21)C(C)(C)C

> <Shape>
0.273

> <Color>
0.121

> <Negative vol penalty>
0.000

$$$$

  -OEChem-04052322143D

 89 99  0     1  0  0  0  0  0999 V2000
  -27.8494  -30.1704   25.4084 C   0  0  0  0  0  0  0  0  0  0  0  0
  -28.5970  -29.0213   25.1714 C   0  0  0  0  0  0  0  0  0  0  0  0
  -23.0796   -9.8909   19.9651 C   0  0  0  0  0  0  0  0  0  0  0  0
  -23.8276   -9.9348   22.2620 C   0  0  0  0  0  0  0  0  0  0  0  0
  -26.7888  -30.4970   24.5644 C   0  0  0  0  0  0  0  0  0  0  0  0
  -28.2837  -28.1976   24.0907 C   0  0  0  0  0  0  0  0  0  0  0  0
  -32.2058  -25.0059   20.6359 C   0  0  0  0  0  0  0  0  0  0  0  0
  -29.9033  -19.1992   24.7974 C   0  0  0  0  0  0  0  0  0  0  0  0
  -22.3317   -8.7438   20.2306 C   0  0  0  0  0  0  0  0  0  0  0  0
  -23.0796   -8.7878   22.5275 C   0  0  0  0  0  0  0  0  0  0  0  0
  -32.5988  -23.6684   20.6550 C   0  0  0  0  0  0  0  0  0  0  0  0
  -29.8339  -18.2821   25.8438 C   0  0  0  0  0  0  0  0  0  0  0  0
  -19.3740   -7.9786   21.6796 C   0  0  0  0  0  0  0  0  0  0  0  0
  -18.0696   -7.9272   21.1884 C   0  0  0  0  0  0  0  0  0  0  0  0
  -30.9714  -23.1721   18.9449 C   0  0  0  0  0  0  0  0  0  0  0  0
  -18.6315   -5.9608   19.9021 C   0  0  0  0  0  0  0  0  0  0  0  0
  -23.8276  -10.4864   20.9808 C   0  0  0  0  0  0  0  0  0  0  0  0
  -24.1760  -13.0083   20.8200 C   0  0  0  0  0  0  0  0  0  0  0  0
  -26.4684  -29.6820   23.4673 C   0  0  0  0  0  0  0  0  0  0  0  0
  -31.1834  -25.4352   19.7775 C   0  0  0  0  0  0  0  0  0  0  0  0
  -27.2169  -28.5129   23.2321 C   0  0  0  0  0  0  0  0  0  0  0  0
  -30.2078  -18.7802   23.4905 C   0  0  0  0  0  0  0  0  0  0  0  0
  -30.5690  -24.5160   18.9150 C   0  0  0  0  0  0  0  0  0  0  0  0
  -30.4343  -17.4138   23.2344 C   0  0  0  0  0  0  0  0  0  0  0  0
  -30.3833  -16.5062   24.3083 C   0  0  0  0  0  0  0  0  0  0  0  0
  -22.3317   -8.1923   21.5118 C   0  0  0  0  0  0  0  0  0  0  0  0
  -31.9796  -22.7507   19.8115 C   0  0  0  0  0  0  0  0  0  0  0  0
  -30.0772  -16.9357   25.5998 C   0  0  0  0  0  0  0  0  0  0  0  0
  -20.3073   -7.0212   21.2820 C   0  0  0  0  0  0  0  0  0  0  0  0
  -17.6983   -6.9183   20.2997 C   0  0  0  0  0  0  0  0  0  0  0  0
  -19.9360   -6.0123   20.3933 C   0  0  0  0  0  0  0  0  0  0  0  0
  -24.6008  -11.6709   20.7070 C   0  0  0  0  0  0  0  0  0  0  0  0
  -25.2719  -13.7491   20.4498 C   0  0  0  0  0  0  0  0  0  0  0  0
  -22.9046  -13.5341   21.2235 C   0  0  0  0  0  0  0  0  0  0  0  0
  -28.3107  -26.7337   20.1840 C   0  0  0  0  0  0  0  0  0  0  0  0
  -28.3884  -26.9676   16.9495 C   0  0  0  0  0  0  0  0  0  0  0  0
  -29.6499  -25.8248   13.9916 C   0  0  0  0  0  0  0  0  0  0  0  0
  -30.7570  -14.7585   20.6496 C   0  0  0  0  0  0  0  0  0  0  0  0
  -25.2832  -30.0509   22.6105 C   0  0  0  0  0  0  0  0  0  0  0  0
  -30.7895  -26.8865   19.7498 C   0  0  0  0  0  0  0  0  0  0  0  0
  -29.4803  -24.9300   17.9602 C   0  0  0  0  0  0  0  0  0  0  0  0
  -25.2522  -29.3243   21.2683 C   0  0  0  0  0  0  0  0  0  0  0  0
  -29.6261  -12.3367   18.2975 C   0  0  0  0  0  0  0  0  0  0  0  0
  -31.7714  -14.4382   24.9940 C   0  0  0  0  0  0  0  0  0  0  0  0
  -32.0355  -14.6738   23.5397 C   0  0  0  0  0  0  0  0  0  0  0  0
  -25.5292  -27.8366   21.4601 C   0  0  0  0  0  0  0  0  0  0  0  0
  -28.1857  -12.0536   18.7278 C   0  0  0  0  0  0  0  0  0  0  0  0
  -30.5375  -12.5757   19.4993 C   0  0  0  0  0  0  0  0  0  0  0  0
  -28.6303  -13.3344   20.8634 C   0  0  0  0  0  0  0  0  0  0  0  0
  -30.5330  -17.9339   20.7355 C   0  0  0  0  0  0  0  0  0  0  0  0
  -30.7072  -15.0529   24.1302 C   0  0  0  0  0  0  0  0  0  0  0  0
  -26.9235  -27.6073   22.0557 C   0  0  1  0  0  0  0  0  0  0  0  0
  -30.8215  -16.9295   21.8504 C   0  0  2  0  0  0  0  0  0  0  0  0
  -30.2847  -19.8136   22.3881 C   0  0  2  0  0  0  0  0  0  0  0  0
  -29.3835  -27.1137   19.2030 C   0  0  1  0  0  0  0  0  0  0  0  0
  -27.6619  -13.1422   19.6838 C   0  0  2  0  0  0  0  0  0  0  0  0
  -28.8945  -20.3330   22.0027 C   0  0  0  0  0  0  0  0  0  0  0  0
  -29.4962  -26.1873   11.5132 C   0  0  0  0  0  0  0  0  0  0  0  0
  -25.7091  -25.5084   16.9047 C   0  0  0  0  0  0  0  0  0  0  0  0
  -26.0710  -25.0640   14.4675 C   0  0  0  0  0  0  0  0  0  0  0  0
  -25.8878  -27.4113   15.2918 C   0  0  0  0  0  0  0  0  0  0  0  0
  -32.5139  -26.5462   13.8025 C   0  0  0  0  0  0  0  0  0  0  0  0
  -28.7653  -15.4446   26.9081 C   0  0  0  0  0  0  0  0  0  0  0  0
  -32.4850  -19.4615   21.1894 C   0  0  0  0  0  0  0  0  0  0  0  0
  -32.8535  -20.9265   21.0624 C   0  0  0  0  0  0  0  0  0  1  0  0
  -27.9737  -26.0774   15.8030 C   0  0  1  0  0  0  0  0  0  0  0  0
  -30.2289  -26.5559   12.7939 C   0  0  2  0  0  0  0  0  0  0  0  0
  -26.4295  -26.0068   15.6360 C   0  0  0  0  0  0  0  0  0  0  0  0
  -25.8676  -11.5652   20.2970 N   0  0  0  0  0  0  0  0  0  0  0  0
  -26.2482  -12.8455   20.1490 N   0  0  0  0  0  0  0  0  0  0  0  0
  -29.1259  -26.3589   17.9749 N   0  0  0  0  0  0  0  0  0  0  0  0
  -29.9848  -13.6203   20.3649 N   0  0  0  0  0  0  0  0  0  0  0  0
  -25.4858  -15.0786   20.3554 N   0  0  0  0  0  0  0  0  0  0  0  0
  -21.8888  -12.6330   21.5707 N   0  0  0  0  0  0  0  0  0  0  0  0
  -27.9395  -27.7564   21.0358 N   0  0  0  0  0  0  0  0  0  0  0  0
  -28.6801  -26.5718   14.6262 N   0  0  0  0  0  0  0  0  0  0  0  0
  -30.1557  -15.7028   21.4727 N   0  0  0  0  0  0  0  0  0  0  0  0
  -30.9851  -19.3182   21.1256 N   0  3  1  0  0  0  0  0  0  0  0  0
  -31.6698  -26.2149   12.6257 N   0  3  0  0  0  0  0  0  0  0  0  0
  -22.6710  -14.7660   21.2588 O   0  0  0  0  0  0  0  0  0  0  0  0
  -27.8526  -25.5972   20.1682 O   0  0  0  0  0  0  0  0  0  0  0  0
  -28.0758  -28.1607   16.9324 O   0  0  0  0  0  0  0  0  0  0  0  0
  -30.0182  -24.7016   14.3282 O   0  0  0  0  0  0  0  0  0  0  0  0
  -31.8957  -14.9237   20.1991 O   0  0  0  0  0  0  0  0  0  0  0  0
  -21.6018   -7.0731   21.7712 O   0  0  0  0  0  0  0  0  0  0  0  0
  -30.0247  -16.0575   26.6411 O   0  0  0  0  0  0  0  0  0  0  0  0
  -32.3636  -21.4351   19.8287 O   0  0  0  0  0  0  0  0  0  1  0  0
  -16.4452   -6.8681   19.8292 F   0  0  0  0  0  0  0  0  0  0  0  0
  -20.8279   -5.0890   20.0086 F   0  0  0  0  0  0  0  0  0  0  0  0
  1  2  1  0  0  0  0
  1  5  2  0  0  0  0
  2  6  2  0  0  0  0
  3  9  2  0  0  0  0
  3 17  1  0  0  0  0
  4 10  1  0  0  0  0
  4 17  2  0  0  0  0
  5 19  1  0  0  0  0
  6 21  1  0  0  0  0
  7 11  2  0  0  0  0
  7 20  1  0  0  0  0
  8 12  1  0  0  0  0
  8 22  2  0  0  0  0
  9 26  1  0  0  0  0
 10 26  2  0  0  0  0
 11 27  1  0  0  0  0
 12 28  2  0  0  0  0
 13 14  2  0  0  0  0
 13 29  1  0  0  0  0
 14 30  1  0  0  0  0
 15 23  1  0  0  0  0
 15 27  2  0  0  0  0
 16 30  2  0  0  0  0
 16 31  1  0  0  0  0
 17 32  1  0  0  0  0
 18 32  1  0  0  0  0
 18 33  2  0  0  0  0
 18 34  1  0  0  0  0
 19 21  2  0  0  0  0
 19 39  1  0  0  0  0
 20 23  2  0  0  0  0
 20 40  1  0  0  0  0
 21 52  1  0  0  0  0
 22 24  1  0  0  0  0
 22 54  1  0  0  0  0
 23 41  1  0  0  0  0
 24 25  2  0  0  0  0
 24 53  1  0  0  0  0
 25 28  1  0  0  0  0
 25 51  1  0  0  0  0
 26 85  1  0  0  0  0
 27 87  1  0  0  0  0
 28 86  1  0  0  0  0
 29 31  2  0  0  0  0
 29 85  1  0  0  0  0
 30 88  1  0  0  0  0
 31 89  1  0  0  0  0
 32 69  2  0  0  0  0
 33 70  1  0  0  0  0
 33 73  1  0  0  0  0
 34 74  1  0  0  0  0
 34 80  2  0  0  0  0
 35 55  1  0  0  0  0
 35 75  1  0  0  0  0
 35 81  2  0  0  0  0
 36 66  1  0  0  0  0
 36 71  1  0  0  0  0
 36 82  2  0  0  0  0
 37 67  1  0  0  0  0
 37 76  1  0  0  0  0
 37 83  2  0  0  0  0
 38 72  1  0  0  0  0
 38 77  1  0  0  0  0
 38 84  2  0  0  0  0
 39 42  1  0  0  0  0
 40 55  1  0  0  0  0
 41 71  1  0  0  0  0
 42 46  1  0  0  0  0
 43 47  1  0  0  0  0
 43 48  1  0  0  0  0
 44 45  1  0  0  0  0
 44 51  1  0  0  0  0
 45 51  1  0  0  0  0
 46 52  1  0  0  0  0
 47 56  1  0  0  0  0
 48 72  1  0  0  0  0
 49 56  1  0  0  0  0
 49 72  1  0  0  0  0
 50 53  1  0  0  0  0
 50 78  1  0  0  0  0
 52 75  1  0  0  0  0
 53 77  1  0  0  0  0
 54 57  1  0  0  0  0
 54 78  1  0  0  0  0
 55 71  1  0  0  0  0
 56 70  1  0  0  0  0
 58 67  1  0  0  0  0
 59 68  1  0  0  0  0
 60 68  1  0  0  0  0
 61 68  1  0  0  0  0
 62 79  1  0  0  0  0
 63 86  1  0  0  0  0
 64 65  1  0  0  0  0
 64 78  1  0  0  0  0
 65 87  1  0  0  0  0
 66 68  1  0  0  0  0
 66 76  1  0  0  0  0
 67 79  1  0  0  0  0
 69 70  1  0  0  0  0
M  CHG  2  78   1  79   1
M  ISO  4  38 100  65 101  77 100  87 101
M  END
> <Batch ID>
0162

> <Smiles>
CNC(C)C(=O)NC(C(=O)N1Cc2cc([101O:1][101CH2:1]CN3CC([100NH:0][100C:0](=O)N4CCCC(n5nc(-c6ccc(Oc7ccc(F)cc7F)cc6)c(C(N)=O)c5N)C4)c4c(ccc(OC)c4C4CC4)C3C)ccc2CC1C(=O)NC1CCCc2ccccc21)C(C)(C)C

> <Shape>
0.259

> <Color>
0.188

> <Negative vol penalty>
0.000

$$$$

  -OEChem-04052322143D

 88 97  0     1  0  0  0  0  0999 V2000
  -17.1783  -26.4487   22.4266 C   0  0  0  0  0  0  0  0  0  0  0  0
  -18.4220  -25.9984   21.9953 C   0  0  0  0  0  0  0  0  0  0  0  0
  -24.6489   -9.2908   22.0216 C   0  0  0  0  0  0  0  0  0  0  0  0
  -23.4172   -9.8936   20.0325 C   0  0  0  0  0  0  0  0  0  0  0  0
  -16.9075  -27.8159   22.4628 C   0  0  0  0  0  0  0  0  0  0  0  0
  -19.3951  -26.9150   21.5990 C   0  0  0  0  0  0  0  0  0  0  0  0
  -25.4502  -26.4216   22.3730 C   0  0  0  0  0  0  0  0  0  0  0  0
  -23.4706   -8.8357   22.6134 C   0  0  0  0  0  0  0  0  0  0  0  0
  -22.2389   -9.4385   20.6242 C   0  0  0  0  0  0  0  0  0  0  0  0
  -26.4743  -26.0109   21.5209 C   0  0  0  0  0  0  0  0  0  0  0  0
  -21.5030   -6.0905   22.4557 C   0  0  0  0  0  0  0  0  0  0  0  0
  -21.5422   -4.8639   23.1185 C   0  0  0  0  0  0  0  0  0  0  0  0
  -26.9176  -28.3133   20.9538 C   0  0  0  0  0  0  0  0  0  0  0  0
  -31.6338  -21.1980   19.1583 C   0  0  0  0  0  0  0  0  0  0  0  0
  -20.8855   -5.9529   25.1728 C   0  0  0  0  0  0  0  0  0  0  0  0
  -24.6222   -9.8198   20.7312 C   0  0  0  0  0  0  0  0  0  0  0  0
  -26.7399   -9.5454   19.3356 C   0  0  0  0  0  0  0  0  0  0  0  0
  -17.8811  -28.7502   22.0759 C   0  0  0  0  0  0  0  0  0  0  0  0
  -25.1443  -27.7829   22.5139 C   0  0  0  0  0  0  0  0  0  0  0  0
  -19.1366  -28.2959   21.6288 C   0  0  0  0  0  0  0  0  0  0  0  0
  -25.8908  -28.7389   21.8103 C   0  0  0  0  0  0  0  0  0  0  0  0
  -32.3384  -22.3875   19.3432 C   0  0  0  0  0  0  0  0  0  0  0  0
  -31.6824  -23.6126   19.2232 C   0  0  0  0  0  0  0  0  0  0  0  0
  -30.3217  -23.6482   18.9182 C   0  0  0  0  0  0  0  0  0  0  0  0
  -30.2731  -21.2336   18.8533 C   0  0  0  0  0  0  0  0  0  0  0  0
  -22.2656   -8.9095   21.9147 C   0  0  0  0  0  0  0  0  0  0  0  0
  -27.2063  -26.9566   20.8089 C   0  0  0  0  0  0  0  0  0  0  0  0
  -21.1550   -7.2484   23.1514 C   0  0  0  0  0  0  0  0  0  0  0  0
  -21.2335   -4.7950   24.4770 C   0  0  0  0  0  0  0  0  0  0  0  0
  -20.8463   -7.1796   24.5099 C   0  0  0  0  0  0  0  0  0  0  0  0
  -29.6171  -22.4586   18.7333 C   0  0  0  0  0  0  0  0  0  0  0  0
  -25.8389  -10.2906   20.1196 C   0  0  0  0  0  0  0  0  0  0  0  0
  -27.7236  -10.4421   18.9972 C   0  0  0  0  0  0  0  0  0  0  0  0
  -26.6918   -8.1659   18.9478 C   0  0  0  0  0  0  0  0  0  0  0  0
  -22.5883  -29.5798   21.9297 C   0  0  0  0  0  0  0  0  0  0  0  0
  -24.3661  -31.8864   23.3584 C   0  0  0  0  0  0  0  0  0  0  0  0
  -27.4599  -33.0512   24.2060 C   0  0  0  0  0  0  0  0  0  0  0  0
  -27.8582  -16.1821   18.3172 C   0  0  0  0  0  0  0  0  0  0  0  0
  -17.5258  -30.2159   22.0873 C   0  0  0  0  0  0  0  0  0  0  0  0
  -24.0542  -28.2113   23.4575 C   0  0  0  0  0  0  0  0  0  0  0  0
  -25.6155  -30.2138   21.9418 C   0  0  0  0  0  0  0  0  0  0  0  0
  -18.7400  -31.1376   22.0063 C   0  0  0  0  0  0  0  0  0  0  0  0
  -29.8908  -14.4029   20.5627 C   0  0  0  0  0  0  0  0  0  0  0  0
  -19.6954  -30.6672   20.9142 C   0  0  0  0  0  0  0  0  0  0  0  0
  -29.1647  -13.0597   20.6309 C   0  0  0  0  0  0  0  0  0  0  0  0
  -28.9156  -15.5810   20.5400 C   0  0  0  0  0  0  0  0  0  0  0  0
  -30.0335  -19.1025   17.6167 C   0  0  0  0  0  0  0  0  0  0  0  0
  -28.9579  -19.4147   19.8509 C   0  0  0  0  0  0  0  0  0  0  0  0
  -28.9211  -18.1285   17.2377 C   0  0  0  0  0  0  0  0  0  0  0  0
  -27.8590  -18.4461   19.4281 C   0  0  0  0  0  0  0  0  0  0  0  0
  -27.1624  -14.1468   19.5463 C   0  0  0  0  0  0  0  0  0  0  0  0
  -20.2267  -29.2604   21.2144 C   0  0  1  0  0  0  0  0  0  0  0  0
  -23.4898  -29.5907   23.1316 C   0  0  1  0  0  0  0  0  0  0  0  0
  -28.1151  -12.9417   19.5115 C   0  0  2  0  0  0  0  0  0  0  0  0
  -33.7949  -22.3215   19.6688 C   0  0  0  0  0  0  0  0  0  0  0  0
  -32.4431  -24.8858   19.4206 C   0  0  0  0  0  0  0  0  0  0  0  0
  -29.0825  -25.2005   17.3734 C   0  0  0  0  0  0  0  0  0  0  0  0
  -28.5962  -34.9821   25.3365 C   0  0  0  0  0  0  0  0  0  0  0  0
  -23.8816  -33.6134   20.8901 C   0  0  0  0  0  0  0  0  0  0  0  0
  -25.7654  -35.0845   21.6354 C   0  0  0  0  0  0  0  0  0  0  0  0
  -23.7363  -34.8387   23.0654 C   0  0  0  0  0  0  0  0  0  0  0  0
  -28.6346  -31.2963   26.2795 C   0  0  0  0  0  0  0  0  0  0  0  0
  -28.5085  -25.1640   19.8291 C   0  0  0  0  0  0  0  0  0  1  0  0
  -29.6358  -24.9738   18.7922 C   0  0  1  0  0  0  0  0  0  0  0  0
  -25.3653  -32.9137   22.8838 C   0  0  1  0  0  0  0  0  0  0  0  0
  -28.0096  -33.5903   25.5143 C   0  0  2  0  0  0  0  0  0  0  0  0
  -24.6913  -34.0847   22.1145 C   0  0  0  0  0  0  0  0  0  0  0  0
  -26.2168  -11.5628   20.2705 N   0  0  0  0  0  0  0  0  0  0  0  0
  -27.3662  -11.6239   19.5767 N   0  0  0  0  0  0  0  0  0  0  0  0
  -29.5963  -20.0204   18.6741 N   0  0  0  0  0  0  0  0  0  0  0  0
  -24.5355  -30.5823   22.8721 N   0  0  0  0  0  0  0  0  0  0  0  0
  -27.9101  -15.4044   19.4836 N   0  0  0  0  0  0  0  0  0  0  0  0
  -28.3287  -17.5011   18.4128 N   0  0  0  0  0  0  0  0  0  0  0  0
  -28.8509  -10.3272   18.2634 N   0  0  0  0  0  0  0  0  0  0  0  0
  -25.6106   -7.3870   19.3822 N   0  0  0  0  0  0  0  0  0  0  0  0
  -21.2638  -29.3161   22.2222 N   0  0  0  0  0  0  0  0  0  0  0  0
  -26.1166  -33.3279   24.0638 N   0  0  0  0  0  0  0  0  0  0  0  0
  -29.0789  -32.6928   26.0359 N   0  3  0  0  0  0  0  0  0  0  0  0
  -27.5897   -7.6353   18.2508 O   0  0  0  0  0  0  0  0  0  0  0  0
  -23.0592  -29.7962   20.8192 O   0  0  0  0  0  0  0  0  0  0  0  0
  -23.4726  -32.2269   24.1377 O   0  0  0  0  0  0  0  0  0  0  0  0
  -28.1536  -32.4484   23.3900 O   0  0  0  0  0  0  0  0  0  0  0  0
  -27.4212  -15.7267   17.2529 O   0  0  0  0  0  0  0  0  0  0  0  0
  -21.1157   -8.4653   22.4917 O   0  0  0  0  0  0  0  0  0  0  0  0
  -28.2226  -26.5518   19.9622 O   0  0  0  0  0  0  0  0  0  1  0  0
  -21.2698   -3.6168   25.1131 F   0  0  0  0  0  0  0  0  0  0  0  0
  -20.5102   -8.2883   25.1833 F   0  0  0  0  0  0  0  0  0  0  0  0
  -27.9261  -22.5044   18.3514 Cl  0  0  0  0  0  0  0  0  0  0  0  0
  1  2  1  0  0  0  0
  1  5  2  0  0  0  0
  2  6  2  0  0  0  0
  3  8  2  0  0  0  0
  3 16  1  0  0  0  0
  4  9  1  0  0  0  0
  4 16  2  0  0  0  0
  5 18  1  0  0  0  0
  6 20  1  0  0  0  0
  7 10  2  0  0  0  0
  7 19  1  0  0  0  0
  8 26  1  0  0  0  0
  9 26  2  0  0  0  0
 10 27  1  0  0  0  0
 11 12  2  0  0  0  0
 11 28  1  0  0  0  0
 12 29  1  0  0  0  0
 13 21  1  0  0  0  0
 13 27  2  0  0  0  0
 14 22  1  0  0  0  0
 14 25  2  0  0  0  0
 15 29  2  0  0  0  0
 15 30  1  0  0  0  0
 16 32  1  0  0  0  0
 17 32  1  0  0  0  0
 17 33  2  0  0  0  0
 17 34  1  0  0  0  0
 18 20  2  0  0  0  0
 18 39  1  0  0  0  0
 19 21  2  0  0  0  0
 19 40  1  0  0  0  0
 20 52  1  0  0  0  0
 21 41  1  0  0  0  0
 22 23  2  0  0  0  0
 22 55  1  0  0  0  0
 23 24  1  0  0  0  0
 23 56  1  0  0  0  0
 24 31  2  0  0  0  0
 24 64  1  0  0  0  0
 25 31  1  0  0  0  0
 25 70  1  0  0  0  0
 26 84  1  0  0  0  0
 27 85  1  0  0  0  0
 28 30  2  0  0  0  0
 28 84  1  0  0  0  0
 29 86  1  0  0  0  0
 30 87  1  0  0  0  0
 31 88  1  0  0  0  0
 32 68  2  0  0  0  0
 33 69  1  0  0  0  0
 33 74  1  0  0  0  0
 34 75  1  0  0  0  0
 34 79  2  0  0  0  0
 35 53  1  0  0  0  0
 35 76  1  0  0  0  0
 35 80  2  0  0  0  0
 36 65  1  0  0  0  0
 36 71  1  0  0  0  0
 36 81  2  0  0  0  0
 37 66  1  0  0  0  0
 37 77  1  0  0  0  0
 37 82  2  0  0  0  0
 38 72  1  0  0  0  0
 38 73  1  0  0  0  0
 38 83  2  0  0  0  0
 39 42  1  0  0  0  0
 40 53  1  0  0  0  0
 41 71  1  0  0  0  0
 42 44  1  0  0  0  0
 43 45  1  0  0  0  0
 43 46  1  0  0  0  0
 44 52  1  0  0  0  0
 45 54  1  0  0  0  0
 46 72  1  0  0  0  0
 47 49  1  0  0  0  0
 47 70  1  0  0  0  0
 48 50  1  0  0  0  0
 48 70  1  0  0  0  0
 49 73  1  0  0  0  0
 50 73  1  0  0  0  0
 51 54  1  0  0  0  0
 51 72  1  0  0  0  0
 52 76  1  0  0  0  0
 53 71  1  0  0  0  0
 54 69  1  0  0  0  0
 57 64  1  0  0  0  0
 58 66  1  0  0  0  0
 59 67  1  0  0  0  0
 60 67  1  0  0  0  0
 61 67  1  0  0  0  0
 62 78  1  0  0  0  0
 63 64  1  0  0  0  0
 63 85  1  0  0  0  0
 65 67  1  0  0  0  0
 65 77  1  0  0  0  0
 66 78  1  0  0  0  0
 68 69  1  0  0  0  0
M  CHG  1  78   1
M  ISO  4  38 100  63 101  73 100  85 101
M  END
> <Batch ID>
0162

> <Smiles>
CNC(C)C(=O)NC(C(=O)N1Cc2cc([101O:1][101CH2:1]C(C)c3c(C)c(C)cc(N4CC[100N:0]([100C:0](=O)N5CCCC(n6nc(-c7ccc(Oc8ccc(F)cc8F)cc7)c(C(N)=O)c6N)C5)CC4)c3Cl)ccc2CC1C(=O)NC1CCCc2ccccc21)C(C)(C)C

> <Shape>
0.338

> <Color>
0.117

> <Negative vol penalty>
0.000

$$$$

  -OEChem-04052322143D

 86 95  0     1  0  0  0  0  0999 V2000
  -18.3521  -24.1382   20.9588 C   0  0  0  0  0  0  0  0  0  0  0  0
  -19.7268  -23.9954   20.8000 C   0  0  0  0  0  0  0  0  0  0  0  0
  -23.4554  -16.7637   22.7301 C   0  0  0  0  0  0  0  0  0  0  0  0
  -22.4460  -16.5759   20.5431 C   0  0  0  0  0  0  0  0  0  0  0  0
  -17.8345  -25.2990   21.5319 C   0  0  0  0  0  0  0  0  0  0  0  0
  -20.5847  -25.0140   21.2134 C   0  0  0  0  0  0  0  0  0  0  0  0
  -24.5932  -23.2621   23.7645 C   0  0  0  0  0  0  0  0  0  0  0  0
  -22.5511  -17.7729   23.0608 C   0  0  0  0  0  0  0  0  0  0  0  0
  -21.5416  -17.5850   20.8739 C   0  0  0  0  0  0  0  0  0  0  0  0
  -25.6288  -22.7030   23.0172 C   0  0  0  0  0  0  0  0  0  0  0  0
  -19.3218  -18.0023   24.0367 C   0  0  0  0  0  0  0  0  0  0  0  0
  -18.7090  -17.9390   25.2881 C   0  0  0  0  0  0  0  0  0  0  0  0
  -26.8713  -24.7617   23.2100 C   0  0  0  0  0  0  0  0  0  0  0  0
  -19.6610  -20.0839   25.8628 C   0  0  0  0  0  0  0  0  0  0  0  0
  -23.4029  -16.1652   21.4712 C   0  0  0  0  0  0  0  0  0  0  0  0
  -24.1744  -13.7382   21.3225 C   0  0  0  0  0  0  0  0  0  0  0  0
  -18.6871  -26.3282   21.9613 C   0  0  0  0  0  0  0  0  0  0  0  0
  -24.6843  -24.5812   24.2317 C   0  0  0  0  0  0  0  0  0  0  0  0
  -20.0780  -26.1903   21.7916 C   0  0  0  0  0  0  0  0  0  0  0  0
  -25.8366  -25.3344   23.9652 C   0  0  0  0  0  0  0  0  0  0  0  0
  -30.2889  -21.2303   18.8713 C   0  0  0  0  0  0  0  0  0  0  0  0
  -29.1249  -21.6369   19.5139 C   0  0  0  0  0  0  0  0  0  0  0  0
  -31.1705  -20.3719   19.5189 C   0  0  0  0  0  0  0  0  0  0  0  0
  -21.5942  -18.1835   22.1328 C   0  0  0  0  0  0  0  0  0  0  0  0
  -26.7669  -23.4537   22.7374 C   0  0  0  0  0  0  0  0  0  0  0  0
  -20.1043  -19.1064   23.6983 C   0  0  0  0  0  0  0  0  0  0  0  0
  -18.8786  -18.9798   26.2011 C   0  0  0  0  0  0  0  0  0  0  0  0
  -20.2739  -20.1472   24.6114 C   0  0  0  0  0  0  0  0  0  0  0  0
  -24.3371  -15.1231   21.1287 C   0  0  0  0  0  0  0  0  0  0  0  0
  -28.8904  -21.1604   20.7937 C   0  0  0  0  0  0  0  0  0  0  0  0
  -30.8445  -19.9523   20.7985 C   0  0  0  0  0  0  0  0  0  0  0  0
  -25.3329  -13.1848   20.8344 C   0  0  0  0  0  0  0  0  0  0  0  0
  -23.0745  -13.0166   21.8927 C   0  0  0  0  0  0  0  0  0  0  0  0
  -23.0224  -27.2488   23.7570 C   0  0  0  0  0  0  0  0  0  0  0  0
  -24.9839  -28.4181   26.0608 C   0  0  0  0  0  0  0  0  0  0  0  0
  -27.9610  -28.2018   27.7152 C   0  0  0  0  0  0  0  0  0  0  0  0
  -30.8629  -15.3512   20.1066 C   0  0  0  0  0  0  0  0  0  0  0  0
  -18.0783  -27.5846   22.5319 C   0  0  0  0  0  0  0  0  0  0  0  0
  -23.5700  -25.1607   25.0593 C   0  0  0  0  0  0  0  0  0  0  0  0
  -25.9922  -26.7480   24.4610 C   0  0  0  0  0  0  0  0  0  0  0  0
  -19.0779  -28.4576   23.2863 C   0  0  0  0  0  0  0  0  0  0  0  0
  -28.7894  -13.9191   17.6332 C   0  0  0  0  0  0  0  0  0  0  0  0
  -20.3624  -28.6176   22.4792 C   0  0  0  0  0  0  0  0  0  0  0  0
  -27.3909  -13.9603   18.2429 C   0  0  0  0  0  0  0  0  0  0  0  0
  -32.1369  -17.2808   22.9984 C   0  0  0  0  0  0  0  0  0  0  0  0
  -29.5781  -15.1672   18.0055 C   0  0  0  0  0  0  0  0  0  0  0  0
  -32.3053  -16.2218   21.9183 C   0  0  0  0  0  0  0  0  0  0  0  0
  -28.3213  -15.3981   20.1307 C   0  0  0  0  0  0  0  0  0  0  0  0
  -30.1548  -17.2648   21.6653 C   0  0  0  0  0  0  0  0  0  0  0  0
  -21.0425  -27.2625   22.2502 C   0  0  1  0  0  0  0  0  0  0  0  0
  -23.5479  -26.6861   25.0473 C   0  0  1  0  0  0  0  0  0  0  0  0
  -27.4685  -14.1659   19.7638 C   0  0  1  0  0  0  0  0  0  0  0  0
  -31.0887  -18.2155   22.4046 C   0  0  2  0  0  0  0  0  0  0  0  0
  -30.5923  -21.7142   17.4891 C   0  0  0  0  0  0  0  0  0  0  0  0
  -28.1592  -22.5572   18.8454 C   0  0  0  0  0  0  0  0  0  0  0  0
  -32.4285  -19.9149   18.8606 C   0  0  0  0  0  0  0  0  0  0  0  0
  -29.2962  -29.3195   29.5222 C   0  0  0  0  0  0  0  0  0  0  0  0
  -25.6859  -30.6816   24.1388 C   0  0  0  0  0  0  0  0  0  0  0  0
  -27.6686  -31.1956   25.5785 C   0  0  0  0  0  0  0  0  0  0  0  0
  -25.3649  -31.3925   26.5149 C   0  0  0  0  0  0  0  0  0  0  0  0
  -27.9858  -25.7506   29.3735 C   0  0  0  0  0  0  0  0  0  0  0  0
  -27.6567  -21.5620   21.5340 C   0  0  0  0  0  0  0  0  0  1  0  0
  -26.3315  -29.0984   26.0735 C   0  0  1  0  0  0  0  0  0  0  0  0
  -28.2943  -28.2229   29.1961 C   0  0  2  0  0  0  0  0  0  0  0  0
  -26.2593  -30.5661   25.5653 C   0  0  0  0  0  0  0  0  0  0  0  0
  -25.5068  -15.4305   20.5619 N   0  0  0  0  0  0  0  0  0  0  0  0
  -29.7231  -20.3257   21.4549 N   0  0  0  0  0  0  0  0  0  0  0  0
  -26.0897  -14.2311   20.3954 N   0  0  0  0  0  0  0  0  0  0  0  0
  -24.8727  -27.2722   25.2606 N   0  0  0  0  0  0  0  0  0  0  0  0
  -29.6248  -15.3682   19.4549 N   0  0  0  0  0  0  0  0  0  0  0  0
  -31.0206  -16.1632   21.2295 N   0  0  0  0  0  0  0  0  0  0  0  0
  -25.7678  -11.9102   20.7424 N   0  0  0  0  0  0  0  0  0  0  0  0
  -21.9627  -13.7406   22.3445 N   0  0  0  0  0  0  0  0  0  0  0  0
  -21.7402  -26.8387   23.4452 N   0  0  0  0  0  0  0  0  0  0  0  0
  -26.8454  -28.9611   27.4319 N   0  0  0  0  0  0  0  0  0  0  0  0
  -28.8751  -26.9159   29.6149 N   0  3  0  0  0  0  0  0  0  0  0  0
  -23.0844  -11.7681   22.0134 O   0  0  0  0  0  0  0  0  0  0  0  0
  -23.7274  -28.0007   23.0942 O   0  0  0  0  0  0  0  0  0  0  0  0
  -24.0658  -28.8822   26.7416 O   0  0  0  0  0  0  0  0  0  0  0  0
  -28.6261  -27.5775   26.8916 O   0  0  0  0  0  0  0  0  0  0  0  0
  -31.8050  -14.6708   19.6785 O   0  0  0  0  0  0  0  0  0  0  0  0
  -20.7115  -19.1681   22.4552 O   0  0  0  0  0  0  0  0  0  0  0  0
  -27.7990  -22.8998   21.9931 O   0  0  0  0  0  0  0  0  0  1  0  0
  -31.6866  -19.1062   21.4713 O   0  0  0  0  0  0  0  0  0  0  0  0
  -18.2887  -18.9196   27.4022 F   0  0  0  0  0  0  0  0  0  0  0  0
  -21.0235  -21.2110   24.2915 F   0  0  0  0  0  0  0  0  0  0  0  0
  1  2  1  0  0  0  0
  1  5  2  0  0  0  0
  2  6  2  0  0  0  0
  3  8  2  0  0  0  0
  3 15  1  0  0  0  0
  4  9  1  0  0  0  0
  4 15  2  0  0  0  0
  5 17  1  0  0  0  0
  6 19  1  0  0  0  0
  7 10  2  0  0  0  0
  7 18  1  0  0  0  0
  8 24  1  0  0  0  0
  9 24  2  0  0  0  0
 10 25  1  0  0  0  0
 11 12  2  0  0  0  0
 11 26  1  0  0  0  0
 12 27  1  0  0  0  0
 13 20  1  0  0  0  0
 13 25  2  0  0  0  0
 14 27  2  0  0  0  0
 14 28  1  0  0  0  0
 15 29  1  0  0  0  0
 16 29  1  0  0  0  0
 16 32  2  0  0  0  0
 16 33  1  0  0  0  0
 17 19  2  0  0  0  0
 17 38  1  0  0  0  0
 18 20  2  0  0  0  0
 18 39  1  0  0  0  0
 19 50  1  0  0  0  0
 20 40  1  0  0  0  0
 21 22  1  0  0  0  0
 21 23  2  0  0  0  0
 21 54  1  0  0  0  0
 22 30  2  0  0  0  0
 22 55  1  0  0  0  0
 23 31  1  0  0  0  0
 23 56  1  0  0  0  0
 24 82  1  0  0  0  0
 25 83  1  0  0  0  0
 26 28  2  0  0  0  0
 26 82  1  0  0  0  0
 27 85  1  0  0  0  0
 28 86  1  0  0  0  0
 29 66  2  0  0  0  0
 30 62  1  0  0  0  0
 30 67  1  0  0  0  0
 31 67  2  0  0  0  0
 31 84  1  0  0  0  0
 32 68  1  0  0  0  0
 32 72  1  0  0  0  0
 33 73  1  0  0  0  0
 33 77  2  0  0  0  0
 34 51  1  0  0  0  0
 34 74  1  0  0  0  0
 34 78  2  0  0  0  0
 35 63  1  0  0  0  0
 35 69  1  0  0  0  0
 35 79  2  0  0  0  0
 36 64  1  0  0  0  0
 36 75  1  0  0  0  0
 36 80  2  0  0  0  0
 37 70  1  0  0  0  0
 37 71  1  0  0  0  0
 37 81  2  0  0  0  0
 38 41  1  0  0  0  0
 39 51  1  0  0  0  0
 40 69  1  0  0  0  0
 41 43  1  0  0  0  0
 42 44  1  0  0  0  0
 42 46  1  0  0  0  0
 43 50  1  0  0  0  0
 44 52  1  0  0  0  0
 45 47  1  0  0  0  0
 45 53  1  0  0  0  0
 46 70  1  0  0  0  0
 47 71  1  0  0  0  0
 48 52  1  0  0  0  0
 48 70  1  0  0  0  0
 49 53  1  0  0  0  0
 49 71  1  0  0  0  0
 50 74  1  0  0  0  0
 51 69  1  0  0  0  0
 52 68  1  0  0  0  0
 53 84  1  0  0  0  0
 57 64  1  0  0  0  0
 58 65  1  0  0  0  0
 59 65  1  0  0  0  0
 60 65  1  0  0  0  0
 61 76  1  0  0  0  0
 62 83  1  0  0  0  0
 63 65  1  0  0  0  0
 63 75  1  0  0  0  0
 64 76  1  0  0  0  0
 66 68  1  0  0  0  0
M  CHG  1  76   1
M  ISO  4  37 100  62 101  71 100  83 101
M  END
> <Batch ID>
0162

> <Smiles>
CNC(C)C(=O)NC(C(=O)N1Cc2cc([101O:1][101CH2:1]c3nc(OC4CC[100N:0]([100C:0](=O)N5CCCC(n6nc(-c7ccc(Oc8ccc(F)cc8F)cc7)c(C(N)=O)c6N)C5)C4)c(C)c(C)c3C)ccc2CC1C(=O)NC1CCCc2ccccc21)C(C)(C)C

> <Shape>
0.203

> <Color>
0.103

> <Negative vol penalty>
0.000

$$$$

  -OEChem-04052322143D

 85 94  0     1  0  0  0  0  0999 V2000
  -27.9194  -34.0404   24.9124 C   0  0  0  0  0  0  0  0  0  0  0  0
  -28.2443  -32.7083   24.6769 C   0  0  0  0  0  0  0  0  0  0  0  0
  -22.9817   -9.7877   19.9948 C   0  0  0  0  0  0  0  0  0  0  0  0
  -23.6351   -9.8076   22.3207 C   0  0  0  0  0  0  0  0  0  0  0  0
  -26.5993  -34.4688   24.7789 C   0  0  0  0  0  0  0  0  0  0  0  0
  -27.2491  -31.8036   24.3088 C   0  0  0  0  0  0  0  0  0  0  0  0
  -28.6677  -28.8056   20.4821 C   0  0  0  0  0  0  0  0  0  0  0  0
  -22.8461   -8.4003   20.0447 C   0  0  0  0  0  0  0  0  0  0  0  0
  -23.4994   -8.4202   22.3707 C   0  0  0  0  0  0  0  0  0  0  0  0
  -29.5133  -27.7400   20.7877 C   0  0  0  0  0  0  0  0  0  0  0  0
  -22.9764   -4.9213   23.2088 C   0  0  0  0  0  0  0  0  0  0  0  0
  -22.3143   -4.3729   24.3071 C   0  0  0  0  0  0  0  0  0  0  0  0
  -27.6220  -26.2427   20.7721 C   0  0  0  0  0  0  0  0  0  0  0  0
  -27.0205  -21.5911   20.6417 C   0  0  0  0  0  0  0  0  0  0  0  0
  -20.3272   -5.6211   23.7325 C   0  0  0  0  0  0  0  0  0  0  0  0
  -29.2235  -23.0153   19.8906 C   0  0  0  0  0  0  0  0  0  0  0  0
  -23.3762  -10.4913   21.1327 C   0  0  0  0  0  0  0  0  0  0  0  0
  -22.5253  -12.8862   21.3522 C   0  0  0  0  0  0  0  0  0  0  0  0
  -25.5891  -33.5710   24.3996 C   0  0  0  0  0  0  0  0  0  0  0  0
  -27.2891  -28.5992   20.3296 C   0  0  0  0  0  0  0  0  0  0  0  0
  -25.9141  -32.2201   24.1714 C   0  0  0  0  0  0  0  0  0  0  0  0
  -26.7615  -27.3068   20.4620 C   0  0  0  0  0  0  0  0  0  0  0  0
  -27.5285  -22.5630   21.4965 C   0  0  0  0  0  0  0  0  0  0  0  0
  -28.6507  -23.2932   21.1212 C   0  0  0  0  0  0  0  0  0  0  0  0
  -23.1049   -7.7166   21.2327 C   0  0  0  0  0  0  0  0  0  0  0  0
  -28.9900  -26.4588   20.9357 C   0  0  0  0  0  0  0  0  0  0  0  0
  -22.3140   -5.8198   22.3723 C   0  0  0  0  0  0  0  0  0  0  0  0
  -20.9897   -4.7227   24.5690 C   0  0  0  0  0  0  0  0  0  0  0  0
  -20.9893   -6.1697   22.6342 C   0  0  0  0  0  0  0  0  0  0  0  0
  -23.5170  -11.9244   21.0816 C   0  0  0  0  0  0  0  0  0  0  0  0
  -27.6662  -21.3896   19.4324 C   0  0  0  0  0  0  0  0  0  0  0  0
  -23.1563  -14.0918   21.1655 C   0  0  0  0  0  0  0  0  0  0  0  0
  -21.1562  -12.7059   21.7379 C   0  0  0  0  0  0  0  0  0  0  0  0
  -24.6857  -29.6444   21.8242 C   0  0  0  0  0  0  0  0  0  0  0  0
  -23.1565  -28.0689   19.4364 C   0  0  0  0  0  0  0  0  0  0  0  0
  -23.2358  -25.6073   17.0739 C   0  0  0  0  0  0  0  0  0  0  0  0
  -26.3328  -17.3200   18.0788 C   0  0  0  0  0  0  0  0  0  0  0  0
  -24.1686  -34.0705   24.3141 C   0  0  0  0  0  0  0  0  0  0  0  0
  -26.3943  -29.7546   19.9736 C   0  0  0  0  0  0  0  0  0  0  0  0
  -25.2914  -27.0289   20.2884 C   0  0  0  0  0  0  0  0  0  0  0  0
  -23.2364  -33.1290   23.5559 C   0  0  0  0  0  0  0  0  0  0  0  0
  -28.0277  -15.2176   20.5582 C   0  0  0  0  0  0  0  0  0  0  0  0
  -23.4356  -31.6904   24.0225 C   0  0  0  0  0  0  0  0  0  0  0  0
  -26.9295  -14.2126   20.8892 C   0  0  0  0  0  0  0  0  0  0  0  0
  -28.0226  -18.5029   15.4283 C   0  0  0  0  0  0  0  0  0  0  0  0
  -27.9858  -15.6643   19.0963 C   0  0  0  0  0  0  0  0  0  0  0  0
  -28.3339  -17.3569   16.3959 C   0  0  0  0  0  0  0  0  0  0  0  0
  -25.5575  -15.1659   19.0044 C   0  0  0  0  0  0  0  0  0  0  0  0
  -24.8667  -31.2140   23.7463 C   0  0  1  0  0  0  0  0  0  0  0  0
  -24.9345  -29.5171   20.3479 C   0  0  1  0  0  0  0  0  0  0  0  0
  -25.5546  -14.7663   20.4866 C   0  0  1  0  0  0  0  0  0  0  0  0
  -27.2069  -19.1693   16.5467 C   0  0  2  0  0  0  0  0  0  0  0  0
  -26.8559  -22.8048   22.8070 C   0  0  0  0  0  0  0  0  0  0  0  0
  -30.3190  -23.8053   22.9372 C   0  0  0  0  0  0  0  0  0  0  0  0
  -21.8227  -24.5333   15.2999 C   0  0  0  0  0  0  0  0  0  0  0  0
  -21.5787  -26.5923   21.5906 C   0  0  0  0  0  0  0  0  0  0  0  0
  -20.9107  -24.9166   19.8544 C   0  0  0  0  0  0  0  0  0  0  0  0
  -20.2270  -27.3032   19.6101 C   0  0  0  0  0  0  0  0  0  0  0  0
  -25.1411  -26.3590   14.9377 C   0  0  0  0  0  0  0  0  0  0  0  0
  -27.8798  -20.2672   17.3466 C   0  0  0  0  0  0  0  0  0  0  0  0
  -29.2358  -24.3453   21.9980 C   0  0  1  0  0  0  0  0  0  1  0  0
  -22.6445  -26.6624   19.2400 C   0  0  1  0  0  0  0  0  0  0  0  0
  -22.8540  -25.6086   15.6047 C   0  0  2  0  0  0  0  0  0  0  0  0
  -21.3677  -26.3738   20.0790 C   0  0  0  0  0  0  0  0  0  0  0  0
  -28.7585  -22.0790   19.0334 N   0  0  0  0  0  0  0  0  0  0  0  0
  -24.6889  -12.4717   20.7482 N   0  0  0  0  0  0  0  0  0  0  0  0
  -24.4376  -13.7906   20.8080 N   0  0  0  0  0  0  0  0  0  0  0  0
  -24.4565  -28.1924   19.9469 N   0  0  0  0  0  0  0  0  0  0  0  0
  -26.6438  -16.1033   18.6955 N   0  0  0  0  0  0  0  0  0  0  0  0
  -27.2707  -17.8811   17.2408 N   0  0  0  0  0  0  0  0  0  0  0  0
  -22.7345  -15.3696   21.2738 N   0  0  0  0  0  0  0  0  0  0  0  0
  -20.6699  -11.3997   21.8849 N   0  0  0  0  0  0  0  0  0  0  0  0
  -25.0261  -30.8770   22.3479 N   0  0  0  0  0  0  0  0  0  0  0  0
  -22.4664  -26.4898   17.8023 N   0  0  0  0  0  0  0  0  0  0  0  0
  -24.0548  -25.3618   14.7573 N   0  3  0  0  0  0  0  0  0  0  0  0
  -20.3825  -13.6744   21.9300 O   0  0  0  0  0  0  0  0  0  0  0  0
  -24.2182  -28.6950   22.4421 O   0  0  0  0  0  0  0  0  0  0  0  0
  -22.4324  -29.0228   19.1409 O   0  0  0  0  0  0  0  0  0  0  0  0
  -24.1248  -24.8921   17.5305 O   0  0  0  0  0  0  0  0  0  0  0  0
  -25.2393  -17.8765   18.2447 O   0  0  0  0  0  0  0  0  0  0  0  0
  -22.9724   -6.3629   21.2818 O   0  0  0  0  0  0  0  0  0  0  0  0
  -29.8152  -25.4143   21.2354 O   0  0  0  0  0  0  0  0  0  1  0  0
  -27.1846  -20.4361   18.5720 O   0  0  0  0  0  0  0  0  0  0  0  0
  -20.3535   -4.1948   25.6229 F   0  0  0  0  0  0  0  0  0  0  0  0
  -20.3473   -7.0314   21.8335 F   0  0  0  0  0  0  0  0  0  0  0  0
  1  2  1  0  0  0  0
  1  5  2  0  0  0  0
  2  6  2  0  0  0  0
  3  8  2  0  0  0  0
  3 17  1  0  0  0  0
  4  9  1  0  0  0  0
  4 17  2  0  0  0  0
  5 19  1  0  0  0  0
  6 21  1  0  0  0  0
  7 10  2  0  0  0  0
  7 20  1  0  0  0  0
  8 25  1  0  0  0  0
  9 25  2  0  0  0  0
 10 26  1  0  0  0  0
 11 12  2  0  0  0  0
 11 27  1  0  0  0  0
 12 28  1  0  0  0  0
 13 22  1  0  0  0  0
 13 26  2  0  0  0  0
 14 23  1  0  0  0  0
 14 31  2  0  0  0  0
 15 28  2  0  0  0  0
 15 29  1  0  0  0  0
 16 24  1  0  0  0  0
 16 65  2  0  0  0  0
 17 30  1  0  0  0  0
 18 30  1  0  0  0  0
 18 32  2  0  0  0  0
 18 33  1  0  0  0  0
 19 21  2  0  0  0  0
 19 38  1  0  0  0  0
 20 22  2  0  0  0  0
 20 39  1  0  0  0  0
 21 49  1  0  0  0  0
 22 40  1  0  0  0  0
 23 24  2  0  0  0  0
 23 53  1  0  0  0  0
 24 61  1  0  0  0  0
 25 81  1  0  0  0  0
 26 82  1  0  0  0  0
 27 29  2  0  0  0  0
 27 81  1  0  0  0  0
 28 84  1  0  0  0  0
 29 85  1  0  0  0  0
 30 66  2  0  0  0  0
 31 65  1  0  0  0  0
 31 83  1  0  0  0  0
 32 67  1  0  0  0  0
 32 71  1  0  0  0  0
 33 72  1  0  0  0  0
 33 76  2  0  0  0  0
 34 50  1  0  0  0  0
 34 73  1  0  0  0  0
 34 77  2  0  0  0  0
 35 62  1  0  0  0  0
 35 68  1  0  0  0  0
 35 78  2  0  0  0  0
 36 63  1  0  0  0  0
 36 74  1  0  0  0  0
 36 79  2  0  0  0  0
 37 69  1  0  0  0  0
 37 70  1  0  0  0  0
 37 80  2  0  0  0  0
 38 41  1  0  0  0  0
 39 50  1  0  0  0  0
 40 68  1  0  0  0  0
 41 43  1  0  0  0  0
 42 44  1  0  0  0  0
 42 46  1  0  0  0  0
 43 49  1  0  0  0  0
 44 51  1  0  0  0  0
 45 47  1  0  0  0  0
 45 52  1  0  0  0  0
 46 69  1  0  0  0  0
 47 70  1  0  0  0  0
 48 51  1  0  0  0  0
 48 69  1  0  0  0  0
 49 73  1  0  0  0  0
 50 68  1  0  0  0  0
 51 67  1  0  0  0  0
 52 60  1  0  0  0  0
 52 70  1  0  0  0  0
 54 61  1  0  0  0  0
 55 63  1  0  0  0  0
 56 64  1  0  0  0  0
 57 64  1  0  0  0  0
 58 64  1  0  0  0  0
 59 75  1  0  0  0  0
 60 83  1  0  0  0  0
 61 82  1  0  0  0  0
 62 64  1  0  0  0  0
 62 74  1  0  0  0  0
 63 75  1  0  0  0  0
 66 67  1  0  0  0  0
M  CHG  1  75   1
M  ISO  4  37 100  61 101  70 100  82 101
M  END
> <Batch ID>
0162

> <Smiles>
CNC(C)C(=O)NC(C(=O)N1Cc2cc([101O:1][101CH:1](C)c3cnc(OCC4CC[100N:0]4[100C:0](=O)N4CCCC(n5nc(-c6ccc(Oc7ccc(F)cc7F)cc6)c(C(N)=O)c5N)C4)cc3C)ccc2CC1C(=O)NC1CCCc2ccccc21)C(C)(C)C

> <Shape>
0.294

> <Color>
0.082

> <Negative vol penalty>
0.000

$$$$

  -OEChem-04052322143D

 88 98  0     1  0  0  0  0  0999 V2000
  -29.3713  -35.6280   32.3262 C   0  0  0  0  0  0  0  0  0  0  0  0
  -29.6155  -34.3097   31.9549 C   0  0  0  0  0  0  0  0  0  0  0  0
  -22.6971  -10.0216   20.1083 C   0  0  0  0  0  0  0  0  0  0  0  0
  -24.4087   -9.2294   21.6183 C   0  0  0  0  0  0  0  0  0  0  0  0
  -28.1119  -36.1882   32.1166 C   0  0  0  0  0  0  0  0  0  0  0  0
  -28.5999  -33.5504   31.3748 C   0  0  0  0  0  0  0  0  0  0  0  0
  -29.2242  -29.2557   27.0538 C   0  0  0  0  0  0  0  0  0  0  0  0
  -22.0204   -8.8090   20.2391 C   0  0  0  0  0  0  0  0  0  0  0  0
  -23.7319   -8.0168   21.7492 C   0  0  0  0  0  0  0  0  0  0  0  0
  -29.2855  -27.8643   27.1162 C   0  0  0  0  0  0  0  0  0  0  0  0
  -21.0594   -6.8276   23.4415 C   0  0  0  0  0  0  0  0  0  0  0  0
  -20.9160   -6.3025   24.7257 C   0  0  0  0  0  0  0  0  0  0  0  0
  -28.6136  -21.6145   28.2876 C   0  0  0  0  0  0  0  0  0  0  0  0
  -29.8127  -22.9493   26.1579 C   0  0  0  0  0  0  0  0  0  0  0  0
  -26.9243  -27.7447   26.6372 C   0  0  0  0  0  0  0  0  0  0  0  0
  -22.1249   -4.3224   24.0509 C   0  0  0  0  0  0  0  0  0  0  0  0
  -23.8913  -10.2319   20.7979 C   0  0  0  0  0  0  0  0  0  0  0  0
  -24.1087  -12.7667   20.9852 C   0  0  0  0  0  0  0  0  0  0  0  0
  -27.0832  -35.4385   31.5248 C   0  0  0  0  0  0  0  0  0  0  0  0
  -28.0082  -29.9036   26.7929 C   0  0  0  0  0  0  0  0  0  0  0  0
  -27.3251  -34.1007   31.1583 C   0  0  0  0  0  0  0  0  0  0  0  0
  -29.1087  -20.8751   27.2026 C   0  0  0  0  0  0  0  0  0  0  0  0
  -29.6983  -21.5513   26.1180 C   0  0  0  0  0  0  0  0  0  0  0  0
  -26.8507  -29.1444   26.5694 C   0  0  0  0  0  0  0  0  0  0  0  0
  -28.7248  -23.0043   28.3104 C   0  0  0  0  0  0  0  0  0  0  0  0
  -29.3262  -23.6712   27.2471 C   0  0  0  0  0  0  0  0  0  0  0  0
  -22.5378   -7.8066   21.0595 C   0  0  0  0  0  0  0  0  0  0  0  0
  -28.1349  -27.1086   26.9108 C   0  0  0  0  0  0  0  0  0  0  0  0
  -21.7354   -6.1001   22.4619 C   0  0  0  0  0  0  0  0  0  0  0  0
  -21.4488   -5.0499   25.0304 C   0  0  0  0  0  0  0  0  0  0  0  0
  -22.2682   -4.8476   22.7667 C   0  0  0  0  0  0  0  0  0  0  0  0
  -24.5911  -11.4841   20.6627 C   0  0  0  0  0  0  0  0  0  0  0  0
  -25.1467  -13.6116   20.6767 C   0  0  0  0  0  0  0  0  0  0  0  0
  -22.8360  -13.1592   21.5162 C   0  0  0  0  0  0  0  0  0  0  0  0
  -26.1687  -31.9480   28.3868 C   0  0  0  0  0  0  0  0  0  0  0  0
  -24.4894  -31.9968   25.6119 C   0  0  0  0  0  0  0  0  0  0  0  0
  -23.6455  -30.4150   22.7080 C   0  0  0  0  0  0  0  0  0  0  0  0
  -30.5795  -14.8842   20.7748 C   0  0  0  0  0  0  0  0  0  0  0  0
  -25.7244  -36.0724   31.3617 C   0  0  0  0  0  0  0  0  0  0  0  0
  -27.9641  -31.4043   26.7024 C   0  0  0  0  0  0  0  0  0  0  0  0
  -28.9390  -19.3758   27.2020 C   0  0  0  0  0  0  0  0  0  0  0  0
  -30.2693  -20.8042   24.9366 C   0  0  0  0  0  0  0  0  0  0  0  0
  -25.5246  -29.7908   26.2659 C   0  0  0  0  0  0  0  0  0  0  0  0
  -24.8119  -35.3177   30.3983 C   0  0  0  0  0  0  0  0  0  0  0  0
  -29.8305  -18.6658   26.1837 C   0  0  0  0  0  0  0  0  0  0  0  0
  -29.4464  -12.7594   18.1523 C   0  0  0  0  0  0  0  0  0  0  0  0
  -24.8449  -33.8214   30.6933 C   0  0  0  0  0  0  0  0  0  0  0  0
  -28.0457  -12.3394   18.6012 C   0  0  0  0  0  0  0  0  0  0  0  0
  -30.1872  -18.1095   21.5145 C   0  0  0  0  0  0  0  0  0  0  0  0
  -30.4064  -12.8765   19.3341 C   0  0  0  0  0  0  0  0  0  0  0  0
  -28.5382  -13.3289   20.8765 C   0  0  0  0  0  0  0  0  0  0  0  0
  -30.5864  -19.2391   22.4511 C   0  0  0  0  0  0  0  0  0  0  0  0
  -30.1786  -17.1691   23.6890 C   0  0  0  0  0  0  0  0  0  0  0  0
  -26.2563  -33.2527   30.5036 C   0  0  1  0  0  0  0  0  0  0  0  0
  -26.5698  -31.9765   26.9390 C   0  0  1  0  0  0  0  0  0  0  0  0
  -27.5202  -13.2517   19.7258 C   0  0  2  0  0  0  0  0  0  0  0  0
  -30.5961  -16.8544   22.2661 C   0  0  1  0  0  0  0  0  0  0  0  0
  -29.7451  -19.3723   24.8361 C   0  0  2  0  0  0  0  0  0  0  0  0
  -28.1925  -23.7555   29.4866 C   0  0  0  0  0  0  0  0  0  0  0  0
  -22.2229  -30.6863   20.6586 C   0  0  0  0  0  0  0  0  0  0  0  0
  -22.0060  -31.3155   27.2486 C   0  0  0  0  0  0  0  0  0  0  0  0
  -20.8621  -30.6734   25.1161 C   0  0  0  0  0  0  0  0  0  0  0  0
  -21.6385  -33.0196   25.4555 C   0  0  0  0  0  0  0  0  0  0  0  0
  -26.0016  -30.3258   20.9191 C   0  0  0  0  0  0  0  0  0  0  0  0
  -29.4633  -25.1655   27.2505 C   0  0  0  0  0  0  0  0  0  1  0  0
  -23.3421  -31.1978   25.0425 C   0  0  1  0  0  0  0  0  0  0  0  0
  -23.5975  -30.9042   21.2717 C   0  0  2  0  0  0  0  0  0  0  0  0
  -21.9866  -31.5391   25.7233 C   0  0  0  0  0  0  0  0  0  0  0  0
  -25.8385  -11.5073   20.1858 N   0  0  0  0  0  0  0  0  0  0  0  0
  -26.1486  -12.8148   20.2062 N   0  0  0  0  0  0  0  0  0  0  0  0
  -25.5315  -31.2613   26.1942 N   0  0  0  0  0  0  0  0  0  0  0  0
  -29.8495  -13.7566   20.3643 N   0  0  0  0  0  0  0  0  0  0  0  0
  -25.2909  -14.9509   20.7646 N   0  0  0  0  0  0  0  0  0  0  0  0
  -22.6827  -13.2199   22.9080 N   0  0  0  0  0  0  0  0  0  0  0  0
  -26.5438  -33.0726   29.0967 N   0  0  0  0  0  0  0  0  0  0  0  0
  -23.3613  -31.4259   23.6016 N   0  0  0  0  0  0  0  0  0  0  0  0
  -29.9769  -15.6684   21.7508 N   0  0  0  0  0  0  0  0  0  0  0  0
  -30.5713  -18.6245   23.8397 N   0  3  2  0  0  0  0  0  0  0  0  0
  -24.6019  -30.1788   20.4436 N   0  3  0  0  0  0  0  0  0  0  0  0
  -21.8588  -13.4318   20.7785 O   0  0  0  0  0  0  0  0  0  0  0  0
  -25.5625  -30.9782   28.8269 O   0  0  0  0  0  0  0  0  0  0  0  0
  -24.4654  -33.2277   25.5363 O   0  0  0  0  0  0  0  0  0  0  0  0
  -23.9053  -29.2516   23.0071 O   0  0  0  0  0  0  0  0  0  0  0  0
  -31.6840  -15.1739   20.3023 O   0  0  0  0  0  0  0  0  0  0  0  0
  -21.8776   -6.6232   21.1876 O   0  0  0  0  0  0  0  0  0  0  0  0
  -28.1918  -25.7504   26.9718 O   0  0  0  0  0  0  0  0  0  1  0  0
  -21.3124   -4.5464   26.2642 F   0  0  0  0  0  0  0  0  0  0  0  0
  -22.9197   -4.1446   21.8301 F   0  0  0  0  0  0  0  0  0  0  0  0
  1  2  1  0  0  0  0
  1  5  2  0  0  0  0
  2  6  2  0  0  0  0
  3  8  2  0  0  0  0
  3 17  1  0  0  0  0
  4  9  1  0  0  0  0
  4 17  2  0  0  0  0
  5 19  1  0  0  0  0
  6 21  1  0  0  0  0
  7 10  2  0  0  0  0
  7 20  1  0  0  0  0
  8 27  1  0  0  0  0
  9 27  2  0  0  0  0
 10 28  1  0  0  0  0
 11 12  2  0  0  0  0
 11 29  1  0  0  0  0
 12 30  1  0  0  0  0
 13 22  2  0  0  0  0
 13 25  1  0  0  0  0
 14 23  2  0  0  0  0
 14 26  1  0  0  0  0
 15 24  1  0  0  0  0
 15 28  2  0  0  0  0
 16 30  2  0  0  0  0
 16 31  1  0  0  0  0
 17 32  1  0  0  0  0
 18 32  1  0  0  0  0
 18 33  2  0  0  0  0
 18 34  1  0  0  0  0
 19 21  2  0  0  0  0
 19 39  1  0  0  0  0
 20 24  2  0  0  0  0
 20 40  1  0  0  0  0
 21 54  1  0  0  0  0
 22 23  1  0  0  0  0
 22 41  1  0  0  0  0
 23 42  1  0  0  0  0
 24 43  1  0  0  0  0
 25 26  2  0  0  0  0
 25 59  1  0  0  0  0
 26 65  1  0  0  0  0
 27 85  1  0  0  0  0
 28 86  1  0  0  0  0
 29 31  2  0  0  0  0
 29 85  1  0  0  0  0
 30 87  1  0  0  0  0
 31 88  1  0  0  0  0
 32 69  2  0  0  0  0
 33 70  1  0  0  0  0
 33 73  1  0  0  0  0
 34 74  1  0  0  0  0
 34 80  2  0  0  0  0
 35 55  1  0  0  0  0
 35 75  1  0  0  0  0
 35 81  2  0  0  0  0
 36 66  1  0  0  0  0
 36 71  1  0  0  0  0
 36 82  2  0  0  0  0
 37 67  1  0  0  0  0
 37 76  1  0  0  0  0
 37 83  2  0  0  0  0
 38 72  1  0  0  0  0
 38 77  1  0  0  0  0
 38 84  2  0  0  0  0
 39 44  1  0  0  0  0
 40 55  1  0  0  0  0
 41 45  1  0  0  0  0
 42 58  1  0  0  0  0
 43 71  1  0  0  0  0
 44 47  1  0  0  0  0
 45 58  1  0  0  0  0
 46 48  1  0  0  0  0
 46 50  1  0  0  0  0
 47 54  1  0  0  0  0
 48 56  1  0  0  0  0
 49 52  1  0  0  0  0
 49 57  1  0  0  0  0
 50 72  1  0  0  0  0
 51 56  1  0  0  0  0
 51 72  1  0  0  0  0
 52 78  1  0  0  0  0
 53 57  1  0  0  0  0
 53 78  1  0  0  0  0
 54 75  1  0  0  0  0
 55 71  1  0  0  0  0
 56 70  1  0  0  0  0
 57 77  1  0  0  0  0
 58 78  1  0  0  0  0
 60 67  1  0  0  0  0
 61 68  1  0  0  0  0
 62 68  1  0  0  0  0
 63 68  1  0  0  0  0
 64 79  1  0  0  0  0
 65 86  1  0  0  0  0
 66 68  1  0  0  0  0
 66 76  1  0  0  0  0
 67 79  1  0  0  0  0
 69 70  1  0  0  0  0
M  CHG  2  78   1  79   1
M  ISO  4  38 100  65 101  77 100  86 101
M  END
> <Batch ID>
0162

> <Smiles>
CNC(C)C(=O)NC(C(=O)N1Cc2cc([101O:1][101CH2:1]c3cc4c(cc3C)CCC(N3CCC([100NH:0][100C:0](=O)N5CCCC(n6nc(-c7ccc(Oc8ccc(F)cc8F)cc7)c(C(N)=O)c6N)C5)C3)C4)ccc2CC1C(=O)NC1CCCc2ccccc21)C(C)(C)C

> <Shape>
0.273

> <Color>
0.176

> <Negative vol penalty>
0.000

$$$$

  -OEChem-04052322143D

 91101  0     1  0  0  0  0  0999 V2000
  -31.8858  -32.1889   25.5940 C   0  0  0  0  0  0  0  0  0  0  0  0
  -31.5741  -31.2299   24.6357 C   0  0  0  0  0  0  0  0  0  0  0  0
  -24.2644   -7.9018   24.0833 C   0  0  0  0  0  0  0  0  0  0  0  0
  -22.0294   -7.4158   23.3051 C   0  0  0  0  0  0  0  0  0  0  0  0
  -30.9312  -32.5659   26.5376 C   0  0  0  0  0  0  0  0  0  0  0  0
  -30.3077  -30.6465   24.6210 C   0  0  0  0  0  0  0  0  0  0  0  0
  -27.1323  -28.8638   19.6971 C   0  0  0  0  0  0  0  0  0  0  0  0
  -24.0631   -7.0673   25.1827 C   0  0  0  0  0  0  0  0  0  0  0  0
  -21.8281   -6.5812   24.4045 C   0  0  0  0  0  0  0  0  0  0  0  0
  -26.9563  -27.6189   19.0946 C   0  0  0  0  0  0  0  0  0  0  0  0
  -22.6685   -3.4429   25.3343 C   0  0  0  0  0  0  0  0  0  0  0  0
  -22.0746   -2.2020   25.1040 C   0  0  0  0  0  0  0  0  0  0  0  0
  -24.8901  -27.3314   20.3059 C   0  0  0  0  0  0  0  0  0  0  0  0
  -20.2587   -2.7968   26.5826 C   0  0  0  0  0  0  0  0  0  0  0  0
  -23.2475   -8.0761   23.1445 C   0  0  0  0  0  0  0  0  0  0  0  0
  -23.9713   -8.5771   20.7502 C   0  0  0  0  0  0  0  0  0  0  0  0
  -29.6493  -31.9938   26.5286 C   0  0  0  0  0  0  0  0  0  0  0  0
  -26.1924  -29.3480   20.6183 C   0  0  0  0  0  0  0  0  0  0  0  0
  -29.3354  -31.0152   25.5662 C   0  0  0  0  0  0  0  0  0  0  0  0
  -25.0551  -28.5839   20.9168 C   0  0  0  0  0  0  0  0  0  0  0  0
  -28.3999  -20.6720   19.5988 C   0  0  0  0  0  0  0  0  0  0  0  0
  -28.0913  -19.2896   19.6290 C   0  0  0  0  0  0  0  0  0  0  0  0
  -22.8449   -6.4070   25.3433 C   0  0  0  0  0  0  0  0  0  0  0  0
  -25.8366  -26.8512   19.4012 C   0  0  0  0  0  0  0  0  0  0  0  0
  -22.0577   -4.3607   26.1888 C   0  0  0  0  0  0  0  0  0  0  0  0
  -20.8697   -1.8790   25.7281 C   0  0  0  0  0  0  0  0  0  0  0  0
  -20.8528   -4.0376   26.8129 C   0  0  0  0  0  0  0  0  0  0  0  0
  -23.4547   -8.9384   22.0089 C   0  0  0  0  0  0  0  0  0  0  0  0
  -29.7511  -20.7971   19.8354 C   0  0  0  0  0  0  0  0  0  0  0  0
  -23.9673   -9.7460   20.0290 C   0  0  0  0  0  0  0  0  0  0  0  0
  -29.2633  -18.6121   19.8833 C   0  0  0  0  0  0  0  0  0  0  0  0
  -24.4150   -7.2991   20.2753 C   0  0  0  0  0  0  0  0  0  0  0  0
  -26.2709  -30.1438   23.6947 C   0  0  0  0  0  0  0  0  0  0  0  0
  -23.2350  -31.1292   23.1161 C   0  0  0  0  0  0  0  0  0  0  0  0
  -20.4204  -30.8719   21.2034 C   0  0  0  0  0  0  0  0  0  0  0  0
  -24.9032  -14.9998   19.4377 C   0  0  0  0  0  0  0  0  0  0  0  0
  -28.6660  -32.3988   27.5981 C   0  0  0  0  0  0  0  0  0  0  0  0
  -26.3831  -30.7046   21.2393 C   0  0  0  0  0  0  0  0  0  0  0  0
  -24.0064  -29.0673   21.8837 C   0  0  0  0  0  0  0  0  0  0  0  0
  -27.2254  -32.0053   27.2816 C   0  0  0  0  0  0  0  0  0  0  0  0
  -21.8612  -14.2300   21.0162 C   0  0  0  0  0  0  0  0  0  0  0  0
  -27.7717  -22.5932   18.0739 C   0  0  0  0  0  0  0  0  0  0  0  0
  -27.3207  -22.7478   20.5663 C   0  0  0  0  0  0  0  0  0  0  0  0
  -27.1610  -30.5608   26.7957 C   0  0  0  0  0  0  0  0  0  0  0  0
  -22.0441  -12.7431   21.3190 C   0  0  0  0  0  0  0  0  0  0  0  0
  -26.7802  -23.7282   17.8307 C   0  0  0  0  0  0  0  0  0  0  0  0
  -26.3312  -23.8815   20.3100 C   0  0  0  0  0  0  0  0  0  0  0  0
  -26.2641  -17.9473   20.7074 C   0  0  0  0  0  0  0  0  0  0  0  0
  -23.1438  -15.0267   21.2617 C   0  0  0  0  0  0  0  0  0  0  0  0
  -24.8994  -17.2780   20.5416 C   0  0  0  0  0  0  0  0  0  0  0  0
  -25.2643  -17.0586   18.1125 C   0  0  0  0  0  0  0  0  0  0  0  0
  -24.5102  -13.0055   20.8532 C   0  0  0  0  0  0  0  0  0  0  0  0
  -27.4246  -21.8084   19.3516 C   0  0  0  0  0  0  0  0  0  0  0  0
  -26.7220  -18.6630   19.4202 C   0  0  2  0  0  0  0  0  0  0  0  0
  -27.9645  -30.3774   25.5025 C   0  0  1  0  0  0  0  0  0  0  0  0
  -25.6236  -30.8732   22.5516 C   0  0  1  0  0  0  0  0  0  0  0  0
  -26.6565  -17.7038   18.2001 C   0  0  2  0  0  0  0  0  0  0  0  0
  -23.2544  -12.1698   20.5608 C   0  0  1  0  0  0  0  0  0  0  0  0
  -26.6763  -24.6557   19.0401 C   0  0  0  0  0  0  0  0  0  1  0  0
  -30.6151  -21.9905   19.9173 C   0  0  0  0  0  0  0  0  0  0  0  0
  -26.9630  -18.4264   16.8838 C   0  0  0  0  0  0  0  0  0  0  0  0
  -18.0888  -31.7769   20.9978 C   0  0  0  0  0  0  0  0  0  0  0  0
  -22.3569  -29.3942   25.4674 C   0  0  0  0  0  0  0  0  0  0  0  0
  -20.0035  -29.5764   24.6328 C   0  0  0  0  0  0  0  0  0  0  0  0
  -21.2357  -31.6262   25.3419 C   0  0  0  0  0  0  0  0  0  0  0  0
  -20.9608  -31.9729   18.5099 C   0  0  0  0  0  0  0  0  0  0  0  0
  -30.8868  -16.9207   20.2824 C   0  0  0  0  0  0  0  0  0  0  0  0
  -21.8715  -30.4841   23.1777 C   0  0  1  0  0  0  0  0  0  0  0  0
  -19.5381  -31.9280   20.5624 C   0  0  2  0  0  0  0  0  0  0  0  0
  -21.3874  -30.2600   24.6382 C   0  0  0  0  0  0  0  0  0  0  0  0
  -23.1452  -10.2354   22.0863 N   0  0  0  0  0  0  0  0  0  0  0  0
  -30.2655  -19.5385   20.0072 N   0  0  0  0  0  0  0  0  0  0  0  0
  -23.4683  -10.6993   20.8671 N   0  0  0  0  0  0  0  0  0  0  0  0
  -24.2411  -30.3974   22.4696 N   0  0  0  0  0  0  0  0  0  0  0  0
  -24.2777  -14.4194   20.5512 N   0  0  0  0  0  0  0  0  0  0  0  0
  -24.9012  -16.4008   19.3660 N   0  0  0  0  0  0  0  0  0  0  0  0
  -24.3421  -10.0411   18.7661 N   0  0  0  0  0  0  0  0  0  0  0  0
  -24.3507   -6.2033   21.1467 N   0  0  0  0  0  0  0  0  0  0  0  0
  -27.2214  -30.8859   24.3694 N   0  0  0  0  0  0  0  0  0  0  0  0
  -20.9865  -31.3230   22.3770 N   0  0  0  0  0  0  0  0  0  0  0  0
  -19.5963  -31.8197   19.0772 N   0  3  0  0  0  0  0  0  0  0  0  0
  -24.8709   -7.1371   19.1179 O   0  0  0  0  0  0  0  0  0  0  0  0
  -25.9319  -28.9935   23.9469 O   0  0  0  0  0  0  0  0  0  0  0  0
  -23.3995  -32.2446   23.6166 O   0  0  0  0  0  0  0  0  0  0  0  0
  -20.5875  -29.7570   20.7140 O   0  0  0  0  0  0  0  0  0  0  0  0
  -25.4319  -14.3077   18.5587 O   0  0  0  0  0  0  0  0  0  0  0  0
  -22.6482   -5.5925   26.4159 O   0  0  0  0  0  0  0  0  0  0  0  0
  -25.6617  -25.6276   18.8113 O   0  0  0  0  0  0  0  0  0  1  0  0
  -29.5263  -17.3195   20.0113 O   0  0  0  0  0  0  0  0  0  0  0  0
  -20.2986   -0.6879   25.5056 F   0  0  0  0  0  0  0  0  0  0  0  0
  -20.2606   -4.9157   27.6339 F   0  0  0  0  0  0  0  0  0  0  0  0
  1  2  1  0  0  0  0
  1  5  2  0  0  0  0
  2  6  2  0  0  0  0
  3  8  2  0  0  0  0
  3 15  1  0  0  0  0
  4  9  1  0  0  0  0
  4 15  2  0  0  0  0
  5 17  1  0  0  0  0
  6 19  1  0  0  0  0
  7 10  2  0  0  0  0
  7 18  1  0  0  0  0
  8 23  1  0  0  0  0
  9 23  2  0  0  0  0
 10 24  1  0  0  0  0
 11 12  2  0  0  0  0
 11 25  1  0  0  0  0
 12 26  1  0  0  0  0
 13 20  1  0  0  0  0
 13 24  2  0  0  0  0
 14 26  2  0  0  0  0
 14 27  1  0  0  0  0
 15 28  1  0  0  0  0
 16 28  1  0  0  0  0
 16 30  2  0  0  0  0
 16 32  1  0  0  0  0
 17 19  2  0  0  0  0
 17 37  1  0  0  0  0
 18 20  2  0  0  0  0
 18 38  1  0  0  0  0
 19 55  1  0  0  0  0
 20 39  1  0  0  0  0
 21 22  1  0  0  0  0
 21 29  2  0  0  0  0
 21 53  1  0  0  0  0
 22 31  2  0  0  0  0
 22 54  1  0  0  0  0
 23 87  1  0  0  0  0
 24 88  1  0  0  0  0
 25 27  2  0  0  0  0
 25 87  1  0  0  0  0
 26 90  1  0  0  0  0
 27 91  1  0  0  0  0
 28 71  2  0  0  0  0
 29 60  1  0  0  0  0
 29 72  1  0  0  0  0
 30 73  1  0  0  0  0
 30 77  1  0  0  0  0
 31 72  1  0  0  0  0
 31 89  1  0  0  0  0
 32 78  1  0  0  0  0
 32 82  2  0  0  0  0
 33 56  1  0  0  0  0
 33 79  1  0  0  0  0
 33 83  2  0  0  0  0
 34 68  1  0  0  0  0
 34 74  1  0  0  0  0
 34 84  2  0  0  0  0
 35 69  1  0  0  0  0
 35 80  1  0  0  0  0
 35 85  2  0  0  0  0
 36 75  1  0  0  0  0
 36 76  1  0  0  0  0
 36 86  2  0  0  0  0
 37 40  1  0  0  0  0
 38 56  1  0  0  0  0
 39 74  1  0  0  0  0
 40 44  1  0  0  0  0
 41 45  1  0  0  0  0
 41 49  1  0  0  0  0
 42 46  1  0  0  0  0
 42 53  1  0  0  0  0
 43 47  1  0  0  0  0
 43 53  1  0  0  0  0
 44 55  1  0  0  0  0
 45 58  1  0  0  0  0
 46 59  1  0  0  0  0
 47 59  1  0  0  0  0
 48 50  1  0  0  0  0
 48 54  1  0  0  0  0
 49 75  1  0  0  0  0
 50 76  1  0  0  0  0
 51 57  1  0  0  0  0
 51 76  1  0  0  0  0
 52 58  1  0  0  0  0
 52 75  1  0  0  0  0
 54 57  1  0  0  0  0
 55 79  1  0  0  0  0
 56 74  1  0  0  0  0
 57 61  1  0  0  0  0
 58 73  1  0  0  0  0
 59 88  1  0  0  0  0
 62 69  1  0  0  0  0
 63 70  1  0  0  0  0
 64 70  1  0  0  0  0
 65 70  1  0  0  0  0
 66 81  1  0  0  0  0
 67 89  1  0  0  0  0
 68 70  1  0  0  0  0
 68 80  1  0  0  0  0
 69 81  1  0  0  0  0
 71 73  1  0  0  0  0
M  CHG  1  81   1
M  ISO  4  36 100  59 101  76 100  88 101
M  END
> <Batch ID>
0162

> <Smiles>
CNC(C)C(=O)NC(C(=O)N1Cc2cc([101O:1][101CH:1]3CCC(c4c(C)[nH]c(OC)c4C4CC[100N:0]([100C:0](=O)N5CCCC(n6nc(-c7ccc(Oc8ccc(F)cc8F)cc7)c(C(N)=O)c6N)C5)CC4C)CC3)ccc2CC1C(=O)NC1CCCc2ccccc21)C(C)(C)C

> <Shape>
0.255

> <Color>
0.067

> <Negative vol penalty>
0.000

$$$$

  -OEChem-04052322143D

 93103  0     1  0  0  0  0  0999 V2000
  -17.3584  -26.3477   22.8018 C   0  0  0  0  0  0  0  0  0  0  0  0
  -18.6026  -25.9293   22.3412 C   0  0  0  0  0  0  0  0  0  0  0  0
  -24.4497  -15.1090   23.2404 C   0  0  0  0  0  0  0  0  0  0  0  0
  -22.8735  -15.2223   21.4129 C   0  0  0  0  0  0  0  0  0  0  0  0
  -17.0363  -27.7042   22.8015 C   0  0  0  0  0  0  0  0  0  0  0  0
  -19.5252  -26.8671   21.8789 C   0  0  0  0  0  0  0  0  0  0  0  0
  -25.6181  -26.6282   22.4488 C   0  0  0  0  0  0  0  0  0  0  0  0
  -23.4483  -15.5015   24.1284 C   0  0  0  0  0  0  0  0  0  0  0  0
  -21.8721  -15.6148   22.3010 C   0  0  0  0  0  0  0  0  0  0  0  0
  -26.6269  -26.2263   21.5744 C   0  0  0  0  0  0  0  0  0  0  0  0
  -19.8316  -14.1456   24.5589 C   0  0  0  0  0  0  0  0  0  0  0  0
  -18.5854  -13.5303   24.4412 C   0  0  0  0  0  0  0  0  0  0  0  0
  -26.9608  -28.5223   20.9139 C   0  0  0  0  0  0  0  0  0  0  0  0
  -17.5638  -15.6793   24.0225 C   0  0  0  0  0  0  0  0  0  0  0  0
  -24.1624  -14.9695   21.8825 C   0  0  0  0  0  0  0  0  0  0  0  0
  -25.5348  -13.2501   20.5911 C   0  0  0  0  0  0  0  0  0  0  0  0
  -17.9590  -28.6601   22.3480 C   0  0  0  0  0  0  0  0  0  0  0  0
  -25.2650  -27.9812   22.5544 C   0  0  0  0  0  0  0  0  0  0  0  0
  -19.2147  -28.2376   21.8713 C   0  0  0  0  0  0  0  0  0  0  0  0
  -25.9489  -28.9390   21.7922 C   0  0  0  0  0  0  0  0  0  0  0  0
  -32.9491  -22.1167   17.7606 C   0  0  0  0  0  0  0  0  0  0  0  0
  -31.8134  -22.8707   17.5463 C   0  0  0  0  0  0  0  0  0  0  0  0
  -34.1544  -22.7905   17.9439 C   0  0  0  0  0  0  0  0  0  0  0  0
  -22.1595  -15.7544   23.6588 C   0  0  0  0  0  0  0  0  0  0  0  0
  -27.2965  -27.1730   20.8047 C   0  0  0  0  0  0  0  0  0  0  0  0
  -19.9439  -15.5278   24.4086 C   0  0  0  0  0  0  0  0  0  0  0  0
  -17.4515  -14.2970   24.1729 C   0  0  0  0  0  0  0  0  0  0  0  0
  -18.8101  -16.2946   24.1404 C   0  0  0  0  0  0  0  0  0  0  0  0
  -25.1965  -14.5646   20.9646 C   0  0  0  0  0  0  0  0  0  0  0  0
  -31.9184  -24.2582   17.5099 C   0  0  0  0  0  0  0  0  0  0  0  0
  -34.1570  -24.1846   17.8898 C   0  0  0  0  0  0  0  0  0  0  0  0
  -26.5726  -13.4014   19.7042 C   0  0  0  0  0  0  0  0  0  0  0  0
  -24.9620  -12.0037   21.0084 C   0  0  0  0  0  0  0  0  0  0  0  0
  -22.6226  -29.6595   22.0029 C   0  0  0  0  0  0  0  0  0  0  0  0
  -24.3588  -32.0799   23.2872 C   0  0  0  0  0  0  0  0  0  0  0  0
  -27.4331  -33.3888   23.9819 C   0  0  0  0  0  0  0  0  0  0  0  0
  -30.1816  -18.3637   19.2307 C   0  0  0  0  0  0  0  0  0  0  0  0
  -17.5480  -30.1109   22.3226 C   0  0  0  0  0  0  0  0  0  0  0  0
  -24.1929  -28.4015   23.5220 C   0  0  0  0  0  0  0  0  0  0  0  0
  -30.4131  -22.4226   17.2851 C   0  0  0  0  0  0  0  0  0  0  0  0
  -25.6216  -30.4063   21.8837 C   0  0  0  0  0  0  0  0  0  0  0  0
  -18.7220  -31.0740   22.1664 C   0  0  0  0  0  0  0  0  0  0  0  0
  -29.6338  -23.7193   17.5695 C   0  0  0  0  0  0  0  0  0  0  0  0
  -32.5171  -18.4969   16.4225 C   0  0  0  0  0  0  0  0  0  0  0  0
  -27.9844  -16.8948   16.6468 C   0  0  0  0  0  0  0  0  0  0  0  0
  -32.4320  -20.0272   16.4304 C   0  0  0  0  0  0  0  0  0  0  0  0
  -19.6561  -30.6014   21.0569 C   0  0  0  0  0  0  0  0  0  0  0  0
  -27.3072  -15.7009   17.3223 C   0  0  0  0  0  0  0  0  0  0  0  0
  -29.4008  -17.1236   17.1641 C   0  0  0  0  0  0  0  0  0  0  0  0
  -32.2236  -17.8846   17.7907 C   0  0  0  0  0  0  0  0  0  0  0  0
  -28.3367  -16.7448   19.3941 C   0  0  0  0  0  0  0  0  0  0  0  0
  -32.8766  -20.5990   17.7896 C   0  0  2  0  0  0  0  0  0  0  0  0
  -20.2515  -29.2269   21.3851 C   0  0  1  0  0  0  0  0  0  0  0  0
  -30.5830  -24.8719   17.1989 C   0  0  1  0  0  0  0  0  0  0  0  0
  -23.5645  -29.7465   23.1703 C   0  0  1  0  0  0  0  0  0  0  0  0
  -27.8233  -15.4495   18.7516 C   0  0  1  0  0  0  0  0  0  0  0  0
  -31.9638  -20.0741   18.9388 C   0  0  2  0  0  0  0  0  0  0  0  0
  -35.4137  -22.0233   18.1872 C   0  0  0  0  0  0  0  0  0  0  0  0
  -32.7402  -20.0182   20.2623 C   0  0  0  0  0  0  0  0  0  0  0  0
  -28.5328  -35.3995   25.0042 C   0  0  0  0  0  0  0  0  0  0  0  0
  -29.1375  -27.5109   16.3395 C   0  0  0  0  0  0  0  0  0  0  0  0
  -23.7218  -33.6996   20.7810 C   0  0  0  0  0  0  0  0  0  0  0  0
  -25.5724  -35.2654   21.4071 C   0  0  0  0  0  0  0  0  0  0  0  0
  -23.6056  -34.9944   22.9174 C   0  0  0  0  0  0  0  0  0  0  0  0
  -35.4865  -26.1551   18.6484 C   0  0  0  0  0  0  0  0  0  0  0  0
  -28.7466  -31.7532   26.0696 C   0  0  0  0  0  0  0  0  0  0  0  0
  -28.4725  -27.5722   18.7765 C   0  0  0  0  0  0  0  0  0  1  0  0
  -25.3004  -33.1265   22.7421 C   0  0  1  0  0  0  0  0  0  0  0  0
  -28.0070  -33.9939   25.2503 C   0  0  2  0  0  0  0  0  0  0  0  0
  -28.9368  -26.7044   17.6122 C   0  0  2  0  0  0  0  0  0  0  0  0
  -24.5551  -34.2437   21.9585 C   0  0  0  0  0  0  0  0  0  0  0  0
  -25.9578  -15.4833   20.3642 N   0  0  0  0  0  0  0  0  0  0  0  0
  -33.0602  -24.9482   17.6676 N   0  0  0  0  0  0  0  0  0  0  0  0
  -26.7849  -14.7450   19.6046 N   0  0  0  0  0  0  0  0  0  0  0  0
  -24.5614  -30.7668   22.8394 N   0  0  0  0  0  0  0  0  0  0  0  0
  -29.4213  -17.3552   18.6166 N   0  0  0  0  0  0  0  0  0  0  0  0
  -31.3740  -18.7593   18.6029 N   0  0  0  0  0  0  0  0  0  0  0  0
  -27.3153  -12.5149   19.0078 N   0  0  0  0  0  0  0  0  0  0  0  0
  -23.9021  -12.0291   21.9251 N   0  0  0  0  0  0  0  0  0  0  0  0
  -35.3946  -24.8527   18.0755 N   0  0  0  0  0  0  0  0  0  0  0  0
  -21.3203  -29.3570   22.3522 N   0  0  0  0  0  0  0  0  0  0  0  0
  -26.0759  -33.6099   23.8793 N   0  0  0  0  0  0  0  0  0  0  0  0
  -30.2404  -26.0806   17.9776 N   0  3  0  0  0  0  0  0  0  0  0  0
  -29.1278  -33.1559   25.7629 N   0  3  0  0  0  0  0  0  0  0  0  0
  -25.3886  -10.8994   20.5936 O   0  0  0  0  0  0  0  0  0  0  0  0
  -23.0456  -29.8541   20.8694 O   0  0  0  0  0  0  0  0  0  0  0  0
  -23.4806  -32.4140   24.0864 O   0  0  0  0  0  0  0  0  0  0  0  0
  -28.1206  -32.7840   23.1621 O   0  0  0  0  0  0  0  0  0  0  0  0
  -29.7998  -18.8909   20.2843 O   0  0  0  0  0  0  0  0  0  0  0  0
  -21.1820  -16.1372   24.5251 O   0  0  0  0  0  0  0  0  0  0  0  0
  -28.2878  -26.7808   19.9442 O   0  0  0  0  0  0  0  0  0  1  0  0
  -16.2551  -13.7058   24.0583 F   0  0  0  0  0  0  0  0  0  0  0  0
  -18.9119  -17.6228   23.9938 F   0  0  0  0  0  0  0  0  0  0  0  0
  1  2  1  0  0  0  0
  1  5  2  0  0  0  0
  2  6  2  0  0  0  0
  3  8  2  0  0  0  0
  3 15  1  0  0  0  0
  4  9  1  0  0  0  0
  4 15  2  0  0  0  0
  5 17  1  0  0  0  0
  6 19  1  0  0  0  0
  7 10  2  0  0  0  0
  7 18  1  0  0  0  0
  8 24  1  0  0  0  0
  9 24  2  0  0  0  0
 10 25  1  0  0  0  0
 11 12  2  0  0  0  0
 11 26  1  0  0  0  0
 12 27  1  0  0  0  0
 13 20  1  0  0  0  0
 13 25  2  0  0  0  0
 14 27  2  0  0  0  0
 14 28  1  0  0  0  0
 15 29  1  0  0  0  0
 16 29  1  0  0  0  0
 16 32  2  0  0  0  0
 16 33  1  0  0  0  0
 17 19  2  0  0  0  0
 17 38  1  0  0  0  0
 18 20  2  0  0  0  0
 18 39  1  0  0  0  0
 19 53  1  0  0  0  0
 20 41  1  0  0  0  0
 21 22  2  0  0  0  0
 21 23  1  0  0  0  0
 21 52  1  0  0  0  0
 22 30  1  0  0  0  0
 22 40  1  0  0  0  0
 23 31  2  0  0  0  0
 23 58  1  0  0  0  0
 24 90  1  0  0  0  0
 25 91  1  0  0  0  0
 26 28  2  0  0  0  0
 26 90  1  0  0  0  0
 27 92  1  0  0  0  0
 28 93  1  0  0  0  0
 29 72  2  0  0  0  0
 30 54  1  0  0  0  0
 30 73  2  0  0  0  0
 31 73  1  0  0  0  0
 31 80  1  0  0  0  0
 32 74  1  0  0  0  0
 32 78  1  0  0  0  0
 33 79  1  0  0  0  0
 33 85  2  0  0  0  0
 34 55  1  0  0  0  0
 34 81  1  0  0  0  0
 34 86  2  0  0  0  0
 35 68  1  0  0  0  0
 35 75  1  0  0  0  0
 35 87  2  0  0  0  0
 36 69  1  0  0  0  0
 36 82  1  0  0  0  0
 36 88  2  0  0  0  0
 37 76  1  0  0  0  0
 37 77  1  0  0  0  0
 37 89  2  0  0  0  0
 38 42  1  0  0  0  0
 39 55  1  0  0  0  0
 40 43  1  0  0  0  0
 41 75  1  0  0  0  0
 42 47  1  0  0  0  0
 43 54  1  0  0  0  0
 44 46  1  0  0  0  0
 44 50  1  0  0  0  0
 45 48  1  0  0  0  0
 45 49  1  0  0  0  0
 46 52  1  0  0  0  0
 47 53  1  0  0  0  0
 48 56  1  0  0  0  0
 49 76  1  0  0  0  0
 50 77  1  0  0  0  0
 51 56  1  0  0  0  0
 51 76  1  0  0  0  0
 52 57  1  0  0  0  0
 53 81  1  0  0  0  0
 54 83  1  0  0  0  0
 55 75  1  0  0  0  0
 56 74  1  0  0  0  0
 57 59  1  0  0  0  0
 57 77  1  0  0  0  0
 60 69  1  0  0  0  0
 61 70  1  0  0  0  0
 62 71  1  0  0  0  0
 63 71  1  0  0  0  0
 64 71  1  0  0  0  0
 65 80  1  0  0  0  0
 66 84  1  0  0  0  0
 67 70  1  0  0  0  0
 67 91  1  0  0  0  0
 68 71  1  0  0  0  0
 68 82  1  0  0  0  0
 69 84  1  0  0  0  0
 70 83  1  0  0  0  0
 72 74  1  0  0  0  0
M  CHG  2  83   1  84   1
M  ISO  4  37 100  67 101  77 100  91 101
M  END
> <Batch ID>
0162

> <Smiles>
CNc1nc2c(c(C3CCC[100N:0]([100C:0](=O)N4CCCC(n5nc(-c6ccc(Oc7ccc(F)cc7F)cc6)c(C(N)=O)c5N)C4)C3C)c1C)CCC2NC(C)[101CH2:1][101O:1]c1ccc2c(c1)CN(C(=O)C(NC(=O)C(C)NC)C(C)(C)C)C(C(=O)NC1CCCc3ccccc31)C2

> <Shape>
0.247

> <Color>
0.097

> <Negative vol penalty>
0.000

$$$$

  -OEChem-04052322143D

 88 97  0     1  0  0  0  0  0999 V2000
  -20.2064  -34.6632   22.6232 C   0  0  0  0  0  0  0  0  0  0  0  0
  -21.4578  -34.2096   22.2187 C   0  0  0  0  0  0  0  0  0  0  0  0
  -24.1750  -13.1245   20.0997 C   0  0  0  0  0  0  0  0  0  0  0  0
  -26.2506  -13.1834   21.3349 C   0  0  0  0  0  0  0  0  0  0  0  0
  -19.3868  -33.8446   23.3991 C   0  0  0  0  0  0  0  0  0  0  0  0
  -21.8908  -32.9374   22.5908 C   0  0  0  0  0  0  0  0  0  0  0  0
  -25.3724  -29.1239   19.2981 C   0  0  0  0  0  0  0  0  0  0  0  0
  -24.1922  -11.7303   20.1372 C   0  0  0  0  0  0  0  0  0  0  0  0
  -26.2677  -11.7891   21.3724 C   0  0  0  0  0  0  0  0  0  0  0  0
  -26.7377  -28.8428   19.3227 C   0  0  0  0  0  0  0  0  0  0  0  0
  -23.5030   -8.1620   20.2207 C   0  0  0  0  0  0  0  0  0  0  0  0
  -22.3136   -7.5071   20.5402 C   0  0  0  0  0  0  0  0  0  0  0  0
  -31.3362  -22.2488   18.9751 C   0  0  0  0  0  0  0  0  0  0  0  0
  -26.3140  -26.9392   20.7426 C   0  0  0  0  0  0  0  0  0  0  0  0
  -30.9924  -22.0537   21.7367 C   0  0  0  0  0  0  0  0  0  0  0  0
  -22.2682   -8.6327   22.6776 C   0  0  0  0  0  0  0  0  0  0  0  0
  -25.2042  -13.8511   20.6985 C   0  0  0  0  0  0  0  0  0  0  0  0
  -24.6030  -16.1603   21.6005 C   0  0  0  0  0  0  0  0  0  0  0  0
  -19.8060  -32.5581   23.7728 C   0  0  0  0  0  0  0  0  0  0  0  0
  -24.4673  -28.3198   20.0056 C   0  0  0  0  0  0  0  0  0  0  0  0
  -21.0766  -32.1014   23.3736 C   0  0  0  0  0  0  0  0  0  0  0  0
  -31.2923  -23.4039   19.7558 C   0  0  0  0  0  0  0  0  0  0  0  0
  -24.9375  -27.2107   20.7232 C   0  0  0  0  0  0  0  0  0  0  0  0
  -31.2081  -20.9961   19.5752 C   0  0  0  0  0  0  0  0  0  0  0  0
  -31.0362  -20.8986   20.9560 C   0  0  0  0  0  0  0  0  0  0  0  0
  -25.2385  -11.0626   20.7735 C   0  0  0  0  0  0  0  0  0  0  0  0
  -27.2091  -27.7521   20.0474 C   0  0  0  0  0  0  0  0  0  0  0  0
  -24.0751   -9.0522   21.1296 C   0  0  0  0  0  0  0  0  0  0  0  0
  -31.1205  -23.3064   21.1366 C   0  0  0  0  0  0  0  0  0  0  0  0
  -21.6962   -7.7425   21.7687 C   0  0  0  0  0  0  0  0  0  0  0  0
  -23.4576   -9.2875   22.3580 C   0  0  0  0  0  0  0  0  0  0  0  0
  -25.1873  -15.2913   20.6597 C   0  0  0  0  0  0  0  0  0  0  0  0
  -24.8593  -17.4181   21.1117 C   0  0  0  0  0  0  0  0  0  0  0  0
  -23.8923  -15.8577   22.8084 C   0  0  0  0  0  0  0  0  0  0  0  0
  -22.4307  -28.8049   22.3975 C   0  0  0  0  0  0  0  0  0  0  0  0
  -21.5603  -25.7456   21.7608 C   0  0  0  0  0  0  0  0  0  0  0  0
  -22.3996  -22.7069   20.4535 C   0  0  0  0  0  0  0  0  0  0  0  0
  -29.1031  -19.6008   17.4956 C   0  0  0  0  0  0  0  0  0  0  0  0
  -18.9047  -31.7277   24.6519 C   0  0  0  0  0  0  0  0  0  0  0  0
  -22.9947  -28.6207   19.9472 C   0  0  0  0  0  0  0  0  0  0  0  0
  -24.0049  -26.3045   21.4831 C   0  0  0  0  0  0  0  0  0  0  0  0
  -19.2837  -30.2494   24.6891 C   0  0  0  0  0  0  0  0  0  0  0  0
  -25.5804  -19.7641   17.0048 C   0  0  0  0  0  0  0  0  0  0  0  0
  -20.7867  -30.0887   24.8938 C   0  0  0  0  0  0  0  0  0  0  0  0
  -25.0275  -18.7147   17.9707 C   0  0  0  0  0  0  0  0  0  0  0  0
  -26.9051  -19.3209   16.3878 C   0  0  0  0  0  0  0  0  0  0  0  0
  -27.3883  -17.8791   18.3273 C   0  0  0  0  0  0  0  0  0  0  0  0
  -31.4124  -26.9129   19.9799 C   0  0  0  0  0  0  0  0  0  0  0  0
  -21.5715  -30.7180   23.7364 C   0  0  1  0  0  0  0  0  0  0  0  0
  -31.4343  -24.7504   19.0897 C   0  0  1  0  0  0  0  0  0  0  0  0
  -22.2184  -28.0370   21.1236 C   0  0  1  0  0  0  0  0  0  0  0  0
  -30.4762  -26.8872   18.7835 C   0  0  1  0  0  0  0  0  0  0  0  0
  -30.0970  -25.4130   18.7357 C   0  0  1  0  0  0  0  0  0  0  0  0
  -26.0813  -18.3055   19.0174 C   0  0  2  0  0  0  0  0  0  0  0  0
  -30.8950  -19.5683   21.6198 C   0  0  0  0  0  0  0  0  0  0  0  0
  -29.5343  -24.9600   17.3961 C   0  0  0  0  0  0  0  0  0  0  0  0
  -21.4948  -20.3911   20.1131 C   0  0  0  0  0  0  0  0  0  0  0  0
  -22.0376  -25.1282   24.7106 C   0  0  0  0  0  0  0  0  0  0  0  0
  -22.0523  -22.6936   24.1268 C   0  0  0  0  0  0  0  0  0  0  0  0
  -19.9991  -24.0555   23.7368 C   0  0  0  0  0  0  0  0  0  0  0  0
  -22.6137  -22.9307   17.5102 C   0  0  0  0  0  0  0  0  0  0  0  0
  -30.8963  -24.2329   23.3154 C   0  0  0  0  0  0  0  0  0  0  0  0
  -31.2558  -19.7739   18.7183 C   0  0  0  0  0  0  0  0  0  0  0  0
  -29.3033  -27.8418   18.9239 C   0  0  0  0  0  0  0  0  0  1  0  0
  -22.0083  -24.3853   22.2381 C   0  0  1  0  0  0  0  0  0  0  0  0
  -21.6588  -21.7773   19.5094 C   0  0  2  0  0  0  0  0  0  0  0  0
  -21.5424  -24.0836   23.6904 C   0  0  0  0  0  0  0  0  0  0  0  0
  -25.7707  -15.9420   19.6495 N   0  0  0  0  0  0  0  0  0  0  0  0
  -25.5541  -17.2332   19.9528 N   0  0  0  0  0  0  0  0  0  0  0  0
  -22.5747  -26.6439   21.4004 N   0  0  0  0  0  0  0  0  0  0  0  0
  -27.8609  -18.9480   17.4335 N   0  0  0  0  0  0  0  0  0  0  0  0
  -24.5557  -18.6531   21.5645 N   0  0  0  0  0  0  0  0  0  0  0  0
  -23.7188  -14.5127   23.1624 N   0  0  0  0  0  0  0  0  0  0  0  0
  -21.5460  -29.8509   22.5779 N   0  0  0  0  0  0  0  0  0  0  0  0
  -21.5315  -23.4273   21.2465 N   0  0  0  0  0  0  0  0  0  0  0  0
  -29.9471  -19.1917   18.5208 N   0  0  0  0  0  0  0  0  0  0  0  0
  -22.4013  -21.6452   18.2240 N   0  3  0  0  0  0  0  0  0  0  0  0
  -23.4106  -16.7530   23.5432 O   0  0  0  0  0  0  0  0  0  0  0  0
  -23.3297  -28.4721   23.1609 O   0  0  0  0  0  0  0  0  0  0  0  0
  -20.3545  -25.9993   21.7030 O   0  0  0  0  0  0  0  0  0  0  0  0
  -23.6257  -22.7835   20.4871 O   0  0  0  0  0  0  0  0  0  0  0  0
  -29.4333  -20.4866   16.6998 O   0  0  0  0  0  0  0  0  0  0  0  0
  -32.1263  -25.6680   19.9635 O   0  0  0  0  0  0  0  0  0  0  0  0
  -25.2555   -9.7021   20.8105 O   0  0  0  0  0  0  0  0  0  0  0  0
  -31.0748  -24.4247   21.9135 O   0  0  0  0  0  0  0  0  0  0  0  0
  -28.5413  -27.4758   20.0736 O   0  0  0  0  0  0  0  0  0  1  0  0
  -20.5532   -7.1147   22.0748 F   0  0  0  0  0  0  0  0  0  0  0  0
  -24.0018  -10.1425   23.2347 F   0  0  0  0  0  0  0  0  0  0  0  0
  1  2  1  0  0  0  0
  1  5  2  0  0  0  0
  2  6  2  0  0  0  0
  3  8  2  0  0  0  0
  3 17  1  0  0  0  0
  4  9  1  0  0  0  0
  4 17  2  0  0  0  0
  5 19  1  0  0  0  0
  6 21  1  0  0  0  0
  7 10  2  0  0  0  0
  7 20  1  0  0  0  0
  8 26  1  0  0  0  0
  9 26  2  0  0  0  0
 10 27  1  0  0  0  0
 11 12  2  0  0  0  0
 11 28  1  0  0  0  0
 12 30  1  0  0  0  0
 13 22  1  0  0  0  0
 13 24  2  0  0  0  0
 14 23  1  0  0  0  0
 14 27  2  0  0  0  0
 15 25  2  0  0  0  0
 15 29  1  0  0  0  0
 16 30  2  0  0  0  0
 16 31  1  0  0  0  0
 17 32  1  0  0  0  0
 18 32  1  0  0  0  0
 18 33  2  0  0  0  0
 18 34  1  0  0  0  0
 19 21  2  0  0  0  0
 19 39  1  0  0  0  0
 20 23  2  0  0  0  0
 20 40  1  0  0  0  0
 21 49  1  0  0  0  0
 22 29  2  0  0  0  0
 22 50  1  0  0  0  0
 23 41  1  0  0  0  0
 24 25  1  0  0  0  0
 24 63  1  0  0  0  0
 25 55  1  0  0  0  0
 26 84  1  0  0  0  0
 27 86  1  0  0  0  0
 28 31  2  0  0  0  0
 28 84  1  0  0  0  0
 29 85  1  0  0  0  0
 30 87  1  0  0  0  0
 31 88  1  0  0  0  0
 32 68  2  0  0  0  0
 33 69  1  0  0  0  0
 33 72  1  0  0  0  0
 34 73  1  0  0  0  0
 34 78  2  0  0  0  0
 35 51  1  0  0  0  0
 35 74  1  0  0  0  0
 35 79  2  0  0  0  0
 36 65  1  0  0  0  0
 36 70  1  0  0  0  0
 36 80  2  0  0  0  0
 37 66  1  0  0  0  0
 37 75  1  0  0  0  0
 37 81  2  0  0  0  0
 38 71  1  0  0  0  0
 38 76  1  0  0  0  0
 38 82  2  0  0  0  0
 39 42  1  0  0  0  0
 40 51  1  0  0  0  0
 41 70  1  0  0  0  0
 42 44  1  0  0  0  0
 43 45  1  0  0  0  0
 43 46  1  0  0  0  0
 44 49  1  0  0  0  0
 45 54  1  0  0  0  0
 46 71  1  0  0  0  0
 47 54  1  0  0  0  0
 47 71  1  0  0  0  0
 48 52  1  0  0  0  0
 48 83  1  0  0  0  0
 49 74  1  0  0  0  0
 50 53  1  0  0  0  0
 50 83  1  0  0  0  0
 51 70  1  0  0  0  0
 52 53  1  0  0  0  0
 52 64  1  0  0  0  0
 53 56  1  0  0  0  0
 54 69  1  0  0  0  0
 57 66  1  0  0  0  0
 58 67  1  0  0  0  0
 59 67  1  0  0  0  0
 60 67  1  0  0  0  0
 61 77  1  0  0  0  0
 62 85  1  0  0  0  0
 63 76  1  0  0  0  0
 64 86  1  0  0  0  0
 65 67  1  0  0  0  0
 65 75  1  0  0  0  0
 66 77  1  0  0  0  0
 68 69  1  0  0  0  0
M  CHG  1  77   1
M  ISO  4  38 100  64 101  76 100  86 101
M  END
> <Batch ID>
0162

> <Smiles>
CNC(C)C(=O)NC(C(=O)N1Cc2cc([101O:1][101CH2:1]C3COC(c4cc(C[100NH:0][100C:0](=O)N5CCCC(n6nc(-c7ccc(Oc8ccc(F)cc8F)cc7)c(C(N)=O)c6N)C5)c(C)cc4OC)C3C)ccc2CC1C(=O)NC1CCCc2ccccc21)C(C)(C)C

> <Shape>
0.207

> <Color>
0.093

> <Negative vol penalty>
0.000

$$$$

  -OEChem-04052322143D

 86 95  0     1  0  0  0  0  0999 V2000
  -30.6794  -30.6832   17.2622 C   0  0  0  0  0  0  0  0  0  0  0  0
  -30.2172  -30.2820   18.5116 C   0  0  0  0  0  0  0  0  0  0  0  0
  -23.0256   -9.8495   20.0322 C   0  0  0  0  0  0  0  0  0  0  0  0
  -23.7310   -9.9991   22.3381 C   0  0  0  0  0  0  0  0  0  0  0  0
  -31.1860  -29.7380   16.3712 C   0  0  0  0  0  0  0  0  0  0  0  0
  -30.2605  -28.9352   18.8703 C   0  0  0  0  0  0  0  0  0  0  0  0
  -31.1592  -24.7048   24.5810 C   0  0  0  0  0  0  0  0  0  0  0  0
  -22.2703   -8.7171   20.3367 C   0  0  0  0  0  0  0  0  0  0  0  0
  -22.9757   -8.8667   22.6426 C   0  0  0  0  0  0  0  0  0  0  0  0
  -30.5462  -23.6398   25.2396 C   0  0  0  0  0  0  0  0  0  0  0  0
  -23.2632   -5.5151   22.3037 C   0  0  0  0  0  0  0  0  0  0  0  0
  -23.8564   -4.5352   23.0996 C   0  0  0  0  0  0  0  0  0  0  0  0
  -29.2578  -18.4231   23.0809 C   0  0  0  0  0  0  0  0  0  0  0  0
  -31.5158  -22.1063   23.6497 C   0  0  0  0  0  0  0  0  0  0  0  0
  -22.1160   -4.8225   24.7505 C   0  0  0  0  0  0  0  0  0  0  0  0
  -23.7560  -10.4905   21.0329 C   0  0  0  0  0  0  0  0  0  0  0  0
  -24.1131  -13.0018   20.7616 C   0  0  0  0  0  0  0  0  0  0  0  0
  -31.2445  -28.3802   16.7229 C   0  0  0  0  0  0  0  0  0  0  0  0
  -31.9476  -24.4793   23.4434 C   0  0  0  0  0  0  0  0  0  0  0  0
  -30.7672  -27.9708   17.9826 C   0  0  0  0  0  0  0  0  0  0  0  0
  -28.8489  -18.9170   24.3087 C   0  0  0  0  0  0  0  0  0  0  0  0
  -32.1398  -23.1699   22.9800 C   0  0  0  0  0  0  0  0  0  0  0  0
  -29.4497  -18.4867   25.4947 C   0  0  0  0  0  0  0  0  0  0  0  0
  -30.2963  -17.4900   23.0541 C   0  0  0  0  0  0  0  0  0  0  0  0
  -30.4728  -17.5531   25.4790 C   0  0  0  0  0  0  0  0  0  0  0  0
  -30.8998  -17.0579   24.2452 C   0  0  0  0  0  0  0  0  0  0  0  0
  -22.2453   -8.2257   21.6419 C   0  0  0  0  0  0  0  0  0  0  0  0
  -30.7221  -22.3406   24.7723 C   0  0  0  0  0  0  0  0  0  0  0  0
  -22.0964   -6.1488   22.7312 C   0  0  0  0  0  0  0  0  0  0  0  0
  -23.2828   -4.1889   24.3230 C   0  0  0  0  0  0  0  0  0  0  0  0
  -21.5228   -5.8024   23.9545 C   0  0  0  0  0  0  0  0  0  0  0  0
  -24.5369  -11.6600   20.7188 C   0  0  0  0  0  0  0  0  0  0  0  0
  -25.2173  -13.7230   20.3779 C   0  0  0  0  0  0  0  0  0  0  0  0
  -22.8356  -13.5475   21.1165 C   0  0  0  0  0  0  0  0  0  0  0  0
  -31.7929  -25.3669   20.3952 C   0  0  0  0  0  0  0  0  0  0  0  0
  -34.6917  -23.9204   20.2317 C   0  0  0  0  0  0  0  0  0  0  0  0
  -36.8601  -21.6229   21.5228 C   0  0  0  0  0  0  0  0  0  0  0  0
  -30.7000  -14.7329   20.6327 C   0  0  0  0  0  0  0  0  0  0  0  0
  -31.7568  -27.3890   15.7082 C   0  0  0  0  0  0  0  0  0  0  0  0
  -32.6237  -25.6361   22.7602 C   0  0  0  0  0  0  0  0  0  0  0  0
  -27.7446  -19.8899   24.5836 C   0  0  0  0  0  0  0  0  0  0  0  0
  -28.8107  -19.1263   26.6880 C   0  0  0  0  0  0  0  0  0  0  0  0
  -32.9930  -22.8725   21.7750 C   0  0  0  0  0  0  0  0  0  0  0  0
  -32.1144  -26.0320   16.3091 C   0  0  0  0  0  0  0  0  0  0  0  0
  -29.6074  -12.2059   18.3750 C   0  0  0  0  0  0  0  0  0  0  0  0
  -31.0078  -25.5538   17.2438 C   0  0  0  0  0  0  0  0  0  0  0  0
  -28.1587  -11.9452   18.7911 C   0  0  0  0  0  0  0  0  0  0  0  0
  -30.4970  -12.4992   19.5811 C   0  0  0  0  0  0  0  0  0  0  0  0
  -28.5666  -13.3233   20.8727 C   0  0  0  0  0  0  0  0  0  0  0  0
  -30.8205  -26.5224   18.4178 C   0  0  1  0  0  0  0  0  0  0  0  0
  -32.9865  -25.3431   21.3076 C   0  0  1  0  0  0  0  0  0  0  0  0
  -27.6197  -13.0778   19.6855 C   0  0  2  0  0  0  0  0  0  0  0  0
  -28.0365  -20.3151   26.0508 C   0  0  2  0  0  0  0  0  0  0  0  0
  -31.0949  -17.0904   26.7533 C   0  0  0  0  0  0  0  0  0  0  0  0
  -32.0074  -16.0523   24.1915 C   0  0  0  0  0  0  0  0  0  0  0  0
  -26.7336  -20.5878   26.8097 C   0  0  0  0  0  0  0  0  0  0  0  0
  -30.5709  -17.9701   20.5933 C   0  0  0  0  0  0  0  0  0  0  0  0
  -39.1384  -20.6386   21.1518 C   0  0  0  0  0  0  0  0  0  0  0  0
  -33.5982  -22.2707   17.9095 C   0  0  0  0  0  0  0  0  0  0  0  0
  -35.5243  -20.6997   18.2097 C   0  0  0  0  0  0  0  0  0  0  0  0
  -35.9435  -23.0819   17.5996 C   0  0  0  0  0  0  0  0  0  0  0  0
  -37.8201  -22.5553   24.1625 C   0  0  0  0  0  0  0  0  0  0  0  0
  -28.8878  -21.5665   26.0731 C   0  0  0  0  0  0  0  0  0  1  0  0
  -30.7472  -16.9573   21.7323 C   0  0  2  0  0  0  0  0  0  0  0  0
  -35.1725  -22.5192   19.9407 C   0  0  1  0  0  0  0  0  0  0  0  0
  -38.3356  -21.7133   21.8681 C   0  0  2  0  0  0  0  0  0  0  0  0
  -35.0419  -22.1483   18.4364 C   0  0  0  0  0  0  0  0  0  0  0  0
  -25.8108  -11.5335   20.3378 N   0  0  0  0  0  0  0  0  0  0  0  0
  -26.1970  -12.8050   20.1376 N   0  0  0  0  0  0  0  0  0  0  0  0
  -33.6280  -24.0378   21.1375 N   0  0  0  0  0  0  0  0  0  0  0  0
  -29.9307  -13.5837   20.3868 N   0  0  0  0  0  0  0  0  0  0  0  0
  -25.4360  -15.0464   20.2258 N   0  0  0  0  0  0  0  0  0  0  0  0
  -21.8115  -12.6650   21.4863 N   0  0  0  0  0  0  0  0  0  0  0  0
  -31.8611  -26.3279   19.4046 N   0  0  0  0  0  0  0  0  0  0  0  0
  -36.5334  -22.4385   20.4601 N   0  0  0  0  0  0  0  0  0  0  0  0
  -30.0857  -15.7153   21.3997 N   0  0  0  0  0  0  0  0  0  0  0  0
  -38.5350  -21.5490   23.3359 N   0  3  0  0  0  0  0  0  0  0  0  0
  -22.6042  -14.7801   21.0902 O   0  0  0  0  0  0  0  0  0  0  0  0
  -30.8785  -24.5712   20.5756 O   0  0  0  0  0  0  0  0  0  0  0  0
  -35.2445  -24.8759   19.6813 O   0  0  0  0  0  0  0  0  0  0  0  0
  -36.0765  -20.8983   22.1323 O   0  0  0  0  0  0  0  0  0  0  0  0
  -31.8472  -14.8754   20.1962 O   0  0  0  0  0  0  0  0  0  0  0  0
  -21.5082   -7.1208   21.9395 O   0  0  0  0  0  0  0  0  0  0  0  0
  -30.1243  -21.2993   25.4128 O   0  0  0  0  0  0  0  0  0  1  0  0
  -23.8517   -3.2468   25.0865 F   0  0  0  0  0  0  0  0  0  0  0  0
  -20.4012   -6.4068   24.3700 F   0  0  0  0  0  0  0  0  0  0  0  0
  1  2  1  0  0  0  0
  1  5  2  0  0  0  0
  2  6  2  0  0  0  0
  3  8  2  0  0  0  0
  3 16  1  0  0  0  0
  4  9  1  0  0  0  0
  4 16  2  0  0  0  0
  5 18  1  0  0  0  0
  6 20  1  0  0  0  0
  7 10  2  0  0  0  0
  7 19  1  0  0  0  0
  8 27  1  0  0  0  0
  9 27  2  0  0  0  0
 10 28  1  0  0  0  0
 11 12  2  0  0  0  0
 11 29  1  0  0  0  0
 12 30  1  0  0  0  0
 13 21  1  0  0  0  0
 13 24  2  0  0  0  0
 14 22  1  0  0  0  0
 14 28  2  0  0  0  0
 15 30  2  0  0  0  0
 15 31  1  0  0  0  0
 16 32  1  0  0  0  0
 17 32  1  0  0  0  0
 17 33  2  0  0  0  0
 17 34  1  0  0  0  0
 18 20  2  0  0  0  0
 18 39  1  0  0  0  0
 19 22  2  0  0  0  0
 19 40  1  0  0  0  0
 20 50  1  0  0  0  0
 21 23  2  0  0  0  0
 21 41  1  0  0  0  0
 22 43  1  0  0  0  0
 23 25  1  0  0  0  0
 23 42  1  0  0  0  0
 24 26  1  0  0  0  0
 24 64  1  0  0  0  0
 25 26  2  0  0  0  0
 25 54  1  0  0  0  0
 26 55  1  0  0  0  0
 27 83  1  0  0  0  0
 28 84  1  0  0  0  0
 29 31  2  0  0  0  0
 29 83  1  0  0  0  0
 30 85  1  0  0  0  0
 31 86  1  0  0  0  0
 32 68  2  0  0  0  0
 33 69  1  0  0  0  0
 33 72  1  0  0  0  0
 34 73  1  0  0  0  0
 34 78  2  0  0  0  0
 35 51  1  0  0  0  0
 35 74  1  0  0  0  0
 35 79  2  0  0  0  0
 36 65  1  0  0  0  0
 36 70  1  0  0  0  0
 36 80  2  0  0  0  0
 37 66  1  0  0  0  0
 37 75  1  0  0  0  0
 37 81  2  0  0  0  0
 38 71  1  0  0  0  0
 38 76  1  0  0  0  0
 38 82  2  0  0  0  0
 39 44  1  0  0  0  0
 40 51  1  0  0  0  0
 41 53  1  0  0  0  0
 42 53  1  0  0  0  0
 43 70  1  0  0  0  0
 44 46  1  0  0  0  0
 45 47  1  0  0  0  0
 45 48  1  0  0  0  0
 46 50  1  0  0  0  0
 47 52  1  0  0  0  0
 48 71  1  0  0  0  0
 49 52  1  0  0  0  0
 49 71  1  0  0  0  0
 50 74  1  0  0  0  0
 51 70  1  0  0  0  0
 52 69  1  0  0  0  0
 53 56  1  0  0  0  0
 53 63  1  0  0  0  0
 57 64  1  0  0  0  0
 58 66  1  0  0  0  0
 59 67  1  0  0  0  0
 60 67  1  0  0  0  0
 61 67  1  0  0  0  0
 62 77  1  0  0  0  0
 63 84  1  0  0  0  0
 64 76  1  0  0  0  0
 65 67  1  0  0  0  0
 65 75  1  0  0  0  0
 66 77  1  0  0  0  0
 68 69  1  0  0  0  0
M  CHG  1  77   1
M  ISO  4  38 100  63 101  76 100  84 101
M  END
> <Batch ID>
0162

> <Smiles>
CNC(C)C(=O)NC(C(=O)N1Cc2cc([101O:1][101CH2:1]C3(C)Cc4cc(C(C)[100NH:0][100C:0](=O)N5CCCC(n6nc(-c7ccc(Oc8ccc(F)cc8F)cc7)c(C(N)=O)c6N)C5)c(C)c(C)c4C3)ccc2CC1C(=O)NC1CCCc2ccccc21)C(C)(C)C

> <Shape>
0.201

> <Color>
0.203

> <Negative vol penalty>
0.000

$$$$

  -OEChem-04052322143D

 90100  0     1  0  0  0  0  0999 V2000
  -32.1112  -13.5291   21.2774 C   0  0  0  0  0  0  0  0  0  0  0  0
  -31.5661  -14.7846   21.0285 C   0  0  0  0  0  0  0  0  0  0  0  0
  -22.1042  -28.2422   24.2712 C   0  0  0  0  0  0  0  0  0  0  0  0
  -23.1235  -29.5472   22.5120 C   0  0  0  0  0  0  0  0  0  0  0  0
  -31.4124  -12.3810   20.9067 C   0  0  0  0  0  0  0  0  0  0  0  0
  -30.3222  -14.8927   20.4077 C   0  0  0  0  0  0  0  0  0  0  0  0
  -27.3213  -18.3000   22.6504 C   0  0  0  0  0  0  0  0  0  0  0  0
  -20.8516  -28.4354   23.6889 C   0  0  0  0  0  0  0  0  0  0  0  0
  -21.8709  -29.7405   21.9296 C   0  0  0  0  0  0  0  0  0  0  0  0
  -27.5674  -19.6444   22.3750 C   0  0  0  0  0  0  0  0  0  0  0  0
  -18.5242  -30.8821   23.5421 C   0  0  0  0  0  0  0  0  0  0  0  0
  -17.4656  -31.2260   24.3827 C   0  0  0  0  0  0  0  0  0  0  0  0
  -25.7552  -19.6439   20.7828 C   0  0  0  0  0  0  0  0  0  0  0  0
  -25.7243  -24.7100   20.2578 C   0  0  0  0  0  0  0  0  0  0  0  0
  -27.9088  -23.9506   19.5592 C   0  0  0  0  0  0  0  0  0  0  0  0
  -16.2799  -29.2330   23.7050 C   0  0  0  0  0  0  0  0  0  0  0  0
  -23.2402  -28.7981   23.6829 C   0  0  0  0  0  0  0  0  0  0  0  0
  -25.1828  -27.3722   24.5199 C   0  0  0  0  0  0  0  0  0  0  0  0
  -30.1550  -12.4749   20.2898 C   0  0  0  0  0  0  0  0  0  0  0  0
  -26.2955  -17.6134   21.9849 C   0  0  0  0  0  0  0  0  0  0  0  0
  -29.6065  -13.7447   20.0272 C   0  0  0  0  0  0  0  0  0  0  0  0
  -25.4964  -18.2915   21.0534 C   0  0  0  0  0  0  0  0  0  0  0  0
  -26.6160  -23.6687   20.0005 C   0  0  0  0  0  0  0  0  0  0  0  0
  -26.1254  -26.0332   20.0736 C   0  0  0  0  0  0  0  0  0  0  0  0
  -28.3100  -25.2738   19.3750 C   0  0  0  0  0  0  0  0  0  0  0  0
  -27.4183  -26.3151   19.6323 C   0  0  0  0  0  0  0  0  0  0  0  0
  -20.7349  -29.1846   22.5180 C   0  0  0  0  0  0  0  0  0  0  0  0
  -26.7863  -20.3157   21.4390 C   0  0  0  0  0  0  0  0  0  0  0  0
  -18.4607  -29.7136   22.7828 C   0  0  0  0  0  0  0  0  0  0  0  0
  -16.3435  -30.4015   24.4642 C   0  0  0  0  0  0  0  0  0  0  0  0
  -17.3385  -28.8891   22.8643 C   0  0  0  0  0  0  0  0  0  0  0  0
  -24.5343  -28.5993   24.2843 C   0  0  0  0  0  0  0  0  0  0  0  0
  -26.3755  -27.7209   25.1051 C   0  0  0  0  0  0  0  0  0  0  0  0
  -24.7461  -26.0366   24.2352 C   0  0  0  0  0  0  0  0  0  0  0  0
  -26.1728  -15.1096   20.0305 C   0  0  0  0  0  0  0  0  0  0  0  0
  -22.9697  -15.5066   20.3545 C   0  0  0  0  0  0  0  0  0  0  0  0
  -20.3670  -17.5940   21.0723 C   0  0  0  0  0  0  0  0  0  0  0  0
  -28.3651  -31.6234   22.5406 C   0  0  0  0  0  0  0  0  0  0  0  0
  -29.4585  -11.2065   19.8644 C   0  0  0  0  0  0  0  0  0  0  0  0
  -26.0254  -16.1705   22.3128 C   0  0  0  0  0  0  0  0  0  0  0  0
  -24.3698  -17.6052   20.3265 C   0  0  0  0  0  0  0  0  0  0  0  0
  -27.9774  -11.4010   19.5500 C   0  0  0  0  0  0  0  0  0  0  0  0
  -26.5120  -32.3299   25.5128 C   0  0  0  0  0  0  0  0  0  0  0  0
  -31.6856  -30.7195   21.3974 C   0  0  0  0  0  0  0  0  0  0  0  0
  -27.7757  -12.6287   18.6675 C   0  0  0  0  0  0  0  0  0  0  0  0
  -26.8670  -31.1996   26.4726 C   0  0  0  0  0  0  0  0  0  0  0  0
  -30.8801  -30.2237   20.2048 C   0  0  0  0  0  0  0  0  0  0  0  0
  -27.7141  -32.7071   24.6610 C   0  0  0  0  0  0  0  0  0  0  0  0
  -30.6935  -30.5950   22.5434 C   0  0  0  0  0  0  0  0  0  0  0  0
  -28.4332  -28.4455   20.4916 C   0  0  0  0  0  0  0  0  0  0  0  0
  -28.5733  -30.3748   24.7522 C   0  0  0  0  0  0  0  0  0  0  0  0
  -27.6579  -28.3613   18.1962 C   0  0  0  0  0  0  0  0  0  0  0  0
  -28.2485  -13.9026   19.3782 C   0  0  1  0  0  0  0  0  0  0  0  0
  -25.2868  -15.4330   21.2001 C   0  0  1  0  0  0  0  0  0  0  0  0
  -28.3915  -29.8670   19.9098 C   0  0  1  0  0  0  0  0  0  0  0  0
  -27.4619  -29.9794   25.7516 C   0  0  2  0  0  0  0  0  0  0  0  0
  -29.4770  -30.7739   20.4751 C   0  0  1  0  0  0  0  0  0  0  0  0
  -28.5255  -29.5973   18.4146 C   0  0  2  0  0  0  0  0  0  0  0  0
  -25.1475  -27.1272   20.3561 C   0  0  0  0  0  0  0  0  0  0  0  0
  -29.7009  -25.5452   18.9009 C   0  0  0  0  0  0  0  0  0  0  0  0
  -17.8622  -17.6416   21.2173 C   0  0  0  0  0  0  0  0  0  0  0  0
  -22.7973  -15.5822   17.3091 C   0  0  0  0  0  0  0  0  0  0  0  0
  -20.5039  -16.5613   17.5328 C   0  0  0  0  0  0  0  0  0  0  0  0
  -20.9768  -14.2803   18.4250 C   0  0  0  0  0  0  0  0  0  0  0  0
  -20.4308  -18.2882   23.9486 C   0  0  0  0  0  0  0  0  0  0  0  0
  -26.1867  -22.2540   20.1982 C   0  0  0  0  0  0  0  0  0  1  0  0
  -21.9116  -16.2993   19.6258 C   0  0  1  0  0  0  0  0  0  0  0  0
  -19.1608  -17.4253   21.9785 C   0  0  2  0  0  0  0  0  0  0  0  0
  -21.5698  -15.6935   18.2353 C   0  0  0  0  0  0  0  0  0  0  0  0
  -25.2552  -29.6491   24.6870 N   0  0  0  0  0  0  0  0  0  0  0  0
  -26.3690  -29.0827   25.1817 N   0  0  0  0  0  0  0  0  0  0  0  0
  -27.8144  -27.6228   19.4499 N   0  0  3  0  0  0  0  0  0  0  0  0
  -24.1493  -16.1924   20.6770 N   0  0  0  0  0  0  0  0  0  0  0  0
  -28.2549  -31.5562   23.9375 N   0  0  0  0  0  0  0  0  0  0  0  0
  -29.3988  -30.9053   21.9351 N   0  0  0  0  0  0  0  0  0  0  0  0
  -27.4186  -26.9925   25.5565 N   0  0  0  0  0  0  0  0  0  0  0  0
  -24.0160  -25.3493   25.2145 N   0  0  0  0  0  0  0  0  0  0  0  0
  -27.2681  -14.3312   20.3527 N   0  0  0  0  0  0  0  0  0  0  0  0
  -20.7732  -16.3915   20.5336 N   0  0  0  0  0  0  0  0  0  0  0  0
  -28.0446  -30.7345   17.6089 N   0  3  0  0  0  0  0  0  0  0  0  0
  -19.2158  -18.4034   23.1016 N   0  3  0  0  0  0  0  0  0  0  0  0
  -25.0101  -25.4634   23.1511 O   0  0  0  0  0  0  0  0  0  0  0  0
  -25.8833  -15.5336   18.9178 O   0  0  0  0  0  0  0  0  0  0  0  0
  -22.7546  -14.3245   20.6337 O   0  0  0  0  0  0  0  0  0  0  0  0
  -20.8937  -18.6841   20.8605 O   0  0  0  0  0  0  0  0  0  0  0  0
  -27.5811  -32.3029   21.8647 O   0  0  0  0  0  0  0  0  0  0  0  0
  -19.5128  -29.3731   21.9493 O   0  0  0  0  0  0  0  0  0  0  0  0
  -27.0265  -21.6368   21.1660 O   0  0  0  0  0  0  0  0  0  1  0  0
  -15.3276  -30.7311   25.2726 F   0  0  0  0  0  0  0  0  0  0  0  0
  -17.2723  -27.7647   22.1383 F   0  0  0  0  0  0  0  0  0  0  0  0
  1  2  1  0  0  0  0
  1  5  2  0  0  0  0
  2  6  2  0  0  0  0
  3  8  2  0  0  0  0
  3 17  1  0  0  0  0
  4  9  1  0  0  0  0
  4 17  2  0  0  0  0
  5 19  1  0  0  0  0
  6 21  1  0  0  0  0
  7 10  2  0  0  0  0
  7 20  1  0  0  0  0
  8 27  1  0  0  0  0
  9 27  2  0  0  0  0
 10 28  1  0  0  0  0
 11 12  2  0  0  0  0
 11 29  1  0  0  0  0
 12 30  1  0  0  0  0
 13 22  1  0  0  0  0
 13 28  2  0  0  0  0
 14 23  1  0  0  0  0
 14 24  2  0  0  0  0
 15 23  2  0  0  0  0
 15 25  1  0  0  0  0
 16 30  2  0  0  0  0
 16 31  1  0  0  0  0
 17 32  1  0  0  0  0
 18 32  1  0  0  0  0
 18 33  2  0  0  0  0
 18 34  1  0  0  0  0
 19 21  2  0  0  0  0
 19 39  1  0  0  0  0
 20 22  2  0  0  0  0
 20 40  1  0  0  0  0
 21 53  1  0  0  0  0
 22 41  1  0  0  0  0
 23 66  1  0  0  0  0
 24 26  1  0  0  0  0
 24 59  1  0  0  0  0
 25 26  2  0  0  0  0
 25 60  1  0  0  0  0
 26 72  1  0  0  0  0
 27 87  1  0  0  0  0
 28 88  1  0  0  0  0
 29 31  2  0  0  0  0
 29 87  1  0  0  0  0
 30 89  1  0  0  0  0
 31 90  1  0  0  0  0
 32 70  2  0  0  0  0
 33 71  1  0  0  0  0
 33 76  1  0  0  0  0
 34 77  1  0  0  0  0
 34 82  2  0  0  0  0
 35 54  1  0  0  0  0
 35 78  1  0  0  0  0
 35 83  2  0  0  0  0
 36 67  1  0  0  0  0
 36 73  1  0  0  0  0
 36 84  2  0  0  0  0
 37 68  1  0  0  0  0
 37 79  1  0  0  0  0
 37 85  2  0  0  0  0
 38 74  1  0  0  0  0
 38 75  1  0  0  0  0
 38 86  2  0  0  0  0
 39 42  1  0  0  0  0
 40 54  1  0  0  0  0
 41 73  1  0  0  0  0
 42 45  1  0  0  0  0
 43 46  1  0  0  0  0
 43 48  1  0  0  0  0
 44 47  1  0  0  0  0
 44 49  1  0  0  0  0
 45 53  1  0  0  0  0
 46 56  1  0  0  0  0
 47 57  1  0  0  0  0
 48 74  1  0  0  0  0
 49 75  1  0  0  0  0
 50 55  1  0  0  0  0
 50 72  1  0  0  0  0
 51 56  1  0  0  0  0
 51 74  1  0  0  0  0
 52 58  1  0  0  0  0
 52 72  1  0  0  0  0
 53 78  1  0  0  0  0
 54 73  1  0  0  0  0
 55 57  1  0  0  0  0
 55 58  1  0  0  0  0
 56 71  1  0  0  0  0
 57 75  1  0  0  0  0
 58 80  1  0  0  0  0
 61 68  1  0  0  0  0
 62 69  1  0  0  0  0
 63 69  1  0  0  0  0
 64 69  1  0  0  0  0
 65 81  1  0  0  0  0
 66 88  1  0  0  0  0
 67 69  1  0  0  0  0
 67 79  1  0  0  0  0
 68 81  1  0  0  0  0
 70 71  1  0  0  0  0
M  CHG  2  80   1  81   1
M  ISO  4  38 100  66 101  75 100  88 101
M  END
> <Batch ID>
0162

> <Smiles>
CNC(C)C(=O)NC(C(=O)N1Cc2cc([101O:1][101CH2:1]c3cc(C)c(N4CC(N)C(C5CCC[100N:0]5[100C:0](=O)N5CCCC(n6nc(-c7ccc(Oc8ccc(F)cc8F)cc7)c(C(N)=O)c6N)C5)C4)c(C)c3)ccc2CC1C(=O)NC1CCCc2ccccc21)C(C)(C)C

> <Shape>
0.231

> <Color>
0.044

> <Negative vol penalty>
0.000

$$$$

  -OEChem-04052322143D

 89100  0     1  0  0  0  0  0999 V2000
  -25.7806  -21.1234   15.5690 C   0  0  0  0  0  0  0  0  0  0  0  0
  -25.2515  -22.3872   15.8051 C   0  0  0  0  0  0  0  0  0  0  0  0
  -25.0339  -16.9873   23.4731 C   0  0  0  0  0  0  0  0  0  0  0  0
  -26.8289  -18.0901   22.2904 C   0  0  0  0  0  0  0  0  0  0  0  0
  -26.6461  -20.5496   16.4979 C   0  0  0  0  0  0  0  0  0  0  0  0
  -25.5970  -23.0826   16.9644 C   0  0  0  0  0  0  0  0  0  0  0  0
  -23.6315  -28.4381   19.1053 C   0  0  0  0  0  0  0  0  0  0  0  0
  -24.8622  -16.1145   22.3987 C   0  0  0  0  0  0  0  0  0  0  0  0
  -26.6572  -17.2173   21.2160 C   0  0  0  0  0  0  0  0  0  0  0  0
  -22.6284  -28.9007   19.9559 C   0  0  0  0  0  0  0  0  0  0  0  0
  -24.1911  -13.3656   20.1166 C   0  0  0  0  0  0  0  0  0  0  0  0
  -24.0354  -12.0091   20.4015 C   0  0  0  0  0  0  0  0  0  0  0  0
  -24.2079  -28.9565   21.7783 C   0  0  0  0  0  0  0  0  0  0  0  0
  -26.2058  -11.9830   21.4627 C   0  0  0  0  0  0  0  0  0  0  0  0
  -26.0172  -17.9752   23.4189 C   0  0  0  0  0  0  0  0  0  0  0  0
  -26.5218  -18.5394   25.8550 C   0  0  0  0  0  0  0  0  0  0  0  0
  -26.9920  -21.2339   17.6749 C   0  0  0  0  0  0  0  0  0  0  0  0
  -24.9299  -28.2204   19.5882 C   0  0  0  0  0  0  0  0  0  0  0  0
  -26.4878  -22.5305   17.9026 C   0  0  0  0  0  0  0  0  0  0  0  0
  -25.2263  -28.4935   20.9312 C   0  0  0  0  0  0  0  0  0  0  0  0
  -19.6331  -26.7958   23.2814 C   0  0  0  0  0  0  0  0  0  0  0  0
  -18.5697  -26.5996   22.3454 C   0  0  0  0  0  0  0  0  0  0  0  0
  -25.6738  -16.2295   21.2702 C   0  0  0  0  0  0  0  0  0  0  0  0
  -22.9158  -29.1573   21.2933 C   0  0  0  0  0  0  0  0  0  0  0  0
  -25.3541  -14.0308   20.5046 C   0  0  0  0  0  0  0  0  0  0  0  0
  -25.0428  -11.3178   21.0746 C   0  0  0  0  0  0  0  0  0  0  0  0
  -26.3614  -13.3395   21.1777 C   0  0  0  0  0  0  0  0  0  0  0  0
  -26.1947  -18.8774   24.5282 C   0  0  0  0  0  0  0  0  0  0  0  0
  -19.8041  -28.1514   23.3801 C   0  0  0  0  0  0  0  0  0  0  0  0
  -18.1326  -27.8423   21.9128 C   0  0  0  0  0  0  0  0  0  0  0  0
  -26.5731  -19.7437   26.5135 C   0  0  0  0  0  0  0  0  0  0  0  0
  -26.7582  -17.2519   26.4400 C   0  0  0  0  0  0  0  0  0  0  0  0
  -26.8309  -25.6862   19.8484 C   0  0  0  0  0  0  0  0  0  0  0  0
  -29.0024  -27.8999   20.8007 C   0  0  0  0  0  0  0  0  0  0  0  0
  -29.6020  -30.9780   22.1471 C   0  0  0  0  0  0  0  0  0  0  0  0
  -24.0871  -24.9965   25.6931 C   0  0  0  0  0  0  0  0  0  0  0  0
  -27.9392  -20.5692   18.6425 C   0  0  0  0  0  0  0  0  0  0  0  0
  -26.0072  -27.7466   18.6516 C   0  0  0  0  0  0  0  0  0  0  0  0
  -26.6091  -28.2955   21.4943 C   0  0  0  0  0  0  0  0  0  0  0  0
  -27.8953  -21.1868   20.0364 C   0  0  0  0  0  0  0  0  0  0  0  0
  -27.4863  -24.3775   25.7973 C   0  0  0  0  0  0  0  0  0  0  0  0
  -28.0142  -22.7003   19.9383 C   0  0  0  0  0  0  0  0  0  0  0  0
  -15.8703  -29.0317   21.3305 C   0  0  0  0  0  0  0  0  0  0  0  0
  -15.6322  -27.5621   21.1756 C   0  0  0  0  0  0  0  0  0  0  0  0
  -27.5855  -22.8631   25.6156 C   0  0  0  0  0  0  0  0  0  0  0  0
  -19.8074  -30.4598   23.8342 C   0  0  0  0  0  0  0  0  0  0  0  0
  -21.6224  -25.2279   23.2053 C   0  0  0  0  0  0  0  0  0  0  0  0
  -20.8563  -26.1920   25.4173 C   0  0  0  0  0  0  0  0  0  0  0  0
  -18.9669  -30.1956   22.5707 C   0  0  0  0  0  0  0  0  0  0  0  0
  -26.4247  -24.9690   24.8771 C   0  0  0  0  0  0  0  0  0  0  0  0
  -22.4242  -24.1701   23.9691 C   0  0  0  0  0  0  0  0  0  0  0  0
  -21.6518  -25.0996   26.1260 C   0  0  0  0  0  0  0  0  0  0  0  0
  -25.1531  -22.8474   24.8714 C   0  0  0  0  0  0  0  0  0  0  0  0
  -20.4137  -25.7243   24.0190 C   0  0  0  0  0  0  0  0  0  0  0  0
  -26.8253  -23.2929   19.1711 C   0  0  1  0  0  0  0  0  0  0  0  0
  -17.0146  -28.1280   20.9137 C   0  0  0  0  0  0  0  0  0  0  0  0
  -20.6307  -29.1609   24.0864 C   0  0  2  0  0  0  0  0  0  0  0  0
  -27.1698  -27.0702   19.3714 C   0  0  1  0  0  0  0  0  0  0  0  0
  -26.2099  -22.1944   25.7854 C   0  0  1  0  0  0  0  0  0  0  0  0
  -18.0284  -25.2920   21.9159 C   0  0  0  0  0  0  0  0  0  0  0  0
  -30.9260  -32.9723   22.9000 C   0  0  0  0  0  0  0  0  0  0  0  0
  -29.4460  -26.2070   23.3001 C   0  0  0  0  0  0  0  0  0  0  0  0
  -30.5641  -28.1830   24.3553 C   0  0  0  0  0  0  0  0  0  0  0  0
  -31.5322  -27.1554   22.2987 C   0  0  0  0  0  0  0  0  0  0  0  0
  -29.4349  -32.2425   19.4765 C   0  0  0  0  0  0  0  0  0  0  0  0
  -22.0332  -29.2531   23.4996 C   0  0  0  0  0  0  0  0  0  1  0  0
  -29.4016  -28.5054   22.1247 C   0  0  1  0  0  0  0  0  0  0  0  0
  -30.5277  -32.1021   21.7182 C   0  0  2  0  0  0  0  0  0  0  0  0
  -30.2093  -27.5147   23.0099 C   0  0  0  0  0  0  0  0  0  0  0  0
  -26.0484  -20.1934   24.3525 N   0  0  0  0  0  0  0  0  0  0  0  0
  -18.8988  -28.7479   22.5530 N   0  0  0  0  0  0  0  0  0  0  0  0
  -26.2845  -20.6928   25.5776 N   0  0  0  0  0  0  0  0  0  0  0  0
  -27.6268  -27.8247   20.5402 N   0  0  0  0  0  0  0  0  0  0  0  0
  -25.1347  -24.3055   25.0658 N   0  0  0  0  0  0  0  0  0  0  0  0
  -22.7812  -24.6566   25.3089 N   0  0  0  0  0  0  0  0  0  0  0  0
  -26.8364  -20.0727   27.7960 N   0  0  0  0  0  0  0  0  0  0  0  0
  -28.0664  -16.7490   26.4420 N   0  0  0  0  0  0  0  0  0  0  0  0
  -27.0778  -24.6944   18.9185 N   0  0  0  0  0  0  0  0  0  0  0  0
  -30.1107  -29.7412   21.8112 N   0  0  0  0  0  0  0  0  0  0  0  0
  -29.8592  -32.9649   20.7034 N   0  3  0  0  0  0  0  0  0  0  0  0
  -25.8340  -16.5606   26.9313 O   0  0  0  0  0  0  0  0  0  0  0  0
  -26.3803  -25.5297   20.9772 O   0  0  0  0  0  0  0  0  0  0  0  0
  -29.8790  -27.5147   20.0230 O   0  0  0  0  0  0  0  0  0  0  0  0
  -28.5362  -31.1769   22.7258 O   0  0  0  0  0  0  0  0  0  0  0  0
  -24.3048  -25.8654   26.5468 O   0  0  0  0  0  0  0  0  0  0  0  0
  -25.5067  -15.3778   20.2217 O   0  0  0  0  0  0  0  0  0  0  0  0
  -21.9298  -29.6122   22.1331 O   0  0  0  0  0  0  0  0  0  1  0  0
  -24.8925  -10.0155   21.3495 F   0  0  0  0  0  0  0  0  0  0  0  0
  -27.4804  -13.9735   21.5541 F   0  0  0  0  0  0  0  0  0  0  0  0
  1  2  1  0  0  0  0
  1  5  2  0  0  0  0
  2  6  2  0  0  0  0
  3  8  2  0  0  0  0
  3 15  1  0  0  0  0
  4  9  1  0  0  0  0
  4 15  2  0  0  0  0
  5 17  1  0  0  0  0
  6 19  1  0  0  0  0
  7 10  2  0  0  0  0
  7 18  1  0  0  0  0
  8 23  1  0  0  0  0
  9 23  2  0  0  0  0
 10 24  1  0  0  0  0
 11 12  2  0  0  0  0
 11 25  1  0  0  0  0
 12 26  1  0  0  0  0
 13 20  1  0  0  0  0
 13 24  2  0  0  0  0
 14 26  2  0  0  0  0
 14 27  1  0  0  0  0
 15 28  1  0  0  0  0
 16 28  1  0  0  0  0
 16 31  2  0  0  0  0
 16 32  1  0  0  0  0
 17 19  2  0  0  0  0
 17 37  1  0  0  0  0
 18 20  2  0  0  0  0
 18 38  1  0  0  0  0
 19 55  1  0  0  0  0
 20 39  1  0  0  0  0
 21 22  1  0  0  0  0
 21 29  2  0  0  0  0
 21 54  1  0  0  0  0
 22 30  2  0  0  0  0
 22 60  1  0  0  0  0
 23 86  1  0  0  0  0
 24 87  1  0  0  0  0
 25 27  2  0  0  0  0
 25 86  1  0  0  0  0
 26 88  1  0  0  0  0
 27 89  1  0  0  0  0
 28 70  2  0  0  0  0
 29 57  1  0  0  0  0
 29 71  1  0  0  0  0
 30 56  1  0  0  0  0
 30 71  1  0  0  0  0
 31 72  1  0  0  0  0
 31 76  1  0  0  0  0
 32 77  1  0  0  0  0
 32 81  2  0  0  0  0
 33 58  1  0  0  0  0
 33 78  1  0  0  0  0
 33 82  2  0  0  0  0
 34 67  1  0  0  0  0
 34 73  1  0  0  0  0
 34 83  2  0  0  0  0
 35 68  1  0  0  0  0
 35 79  1  0  0  0  0
 35 84  2  0  0  0  0
 36 74  1  0  0  0  0
 36 75  1  0  0  0  0
 36 85  2  0  0  0  0
 37 40  1  0  0  0  0
 38 58  1  0  0  0  0
 39 73  1  0  0  0  0
 40 42  1  0  0  0  0
 41 45  1  0  0  0  0
 41 50  1  0  0  0  0
 42 55  1  0  0  0  0
 43 44  1  0  0  0  0
 43 56  1  0  0  0  0
 44 56  1  0  0  0  0
 45 59  1  0  0  0  0
 46 49  1  0  0  0  0
 46 57  1  0  0  0  0
 47 51  1  0  0  0  0
 47 54  1  0  0  0  0
 48 52  1  0  0  0  0
 48 54  1  0  0  0  0
 49 71  1  0  0  0  0
 50 74  1  0  0  0  0
 51 75  1  0  0  0  0
 52 75  1  0  0  0  0
 53 59  1  0  0  0  0
 53 74  1  0  0  0  0
 55 78  1  0  0  0  0
 57 66  1  0  0  0  0
 58 73  1  0  0  0  0
 59 72  1  0  0  0  0
 61 68  1  0  0  0  0
 62 69  1  0  0  0  0
 63 69  1  0  0  0  0
 64 69  1  0  0  0  0
 65 80  1  0  0  0  0
 66 87  1  0  0  0  0
 67 69  1  0  0  0  0
 67 79  1  0  0  0  0
 68 80  1  0  0  0  0
 70 72  1  0  0  0  0
M  CHG  1  80   1
M  ISO  4  36 100  66 101  75 100  87 101
M  END
> <Batch ID>
0162

> <Smiles>
CNC(C)C(=O)NC(C(=O)N1Cc2cc([101O:1][101CH2:1]C3CCn4c(C5CC5)c(C)c(C5CC[100N:0]([100C:0](=O)N6CCCC(n7nc(-c8ccc(Oc9ccc(F)cc9F)cc8)c(C(N)=O)c7N)C6)CC5)c43)ccc2CC1C(=O)NC1CCCc2ccccc21)C(C)(C)C

> <Shape>
0.192

> <Color>
0.075

> <Negative vol penalty>
0.000

$$$$

  -OEChem-04052322143D

 86 95  0     1  0  0  0  0  0999 V2000
  -30.0225  -20.8373   19.8023 C   0  0  0  0  0  0  0  0  0  0  0  0
  -28.8781  -20.5302   19.0734 C   0  0  0  0  0  0  0  0  0  0  0  0
  -25.5598  -28.8254   21.0318 C   0  0  0  0  0  0  0  0  0  0  0  0
  -24.9763  -27.2891   19.2608 C   0  0  0  0  0  0  0  0  0  0  0  0
  -30.6412  -19.8541   20.5733 C   0  0  0  0  0  0  0  0  0  0  0  0
  -28.3523  -19.2393   19.1141 C   0  0  0  0  0  0  0  0  0  0  0  0
  -23.3201  -19.2081   19.6806 C   0  0  0  0  0  0  0  0  0  0  0  0
  -26.8700  -28.3472   21.0150 C   0  0  0  0  0  0  0  0  0  0  0  0
  -26.2866  -26.8109   19.2440 C   0  0  0  0  0  0  0  0  0  0  0  0
  -22.5504  -19.4781   18.5500 C   0  0  0  0  0  0  0  0  0  0  0  0
  -29.2785  -27.7910   18.0160 C   0  0  0  0  0  0  0  0  0  0  0  0
  -29.8880  -27.6188   16.7733 C   0  0  0  0  0  0  0  0  0  0  0  0
  -22.1614  -17.1154   18.2580 C   0  0  0  0  0  0  0  0  0  0  0  0
  -30.1762  -25.2660   17.2407 C   0  0  0  0  0  0  0  0  0  0  0  0
  -24.6129  -28.2963   20.1547 C   0  0  0  0  0  0  0  0  0  0  0  0
  -22.7336  -29.8566   19.4192 C   0  0  0  0  0  0  0  0  0  0  0  0
  -30.1173  -18.5530   20.6312 C   0  0  0  0  0  0  0  0  0  0  0  0
  -23.5256  -17.8868   20.1029 C   0  0  0  0  0  0  0  0  0  0  0  0
  -28.9654  -18.2374   19.8856 C   0  0  0  0  0  0  0  0  0  0  0  0
  -22.9320  -16.8314   19.3958 C   0  0  0  0  0  0  0  0  0  0  0  0
  -17.6281  -19.3162   17.7504 C   0  0  0  0  0  0  0  0  0  0  0  0
  -18.4603  -19.6162   16.6777 C   0  0  0  0  0  0  0  0  0  0  0  0
  -17.1400  -20.3419   18.5524 C   0  0  0  0  0  0  0  0  0  0  0  0
  -27.2334  -27.3399   20.1211 C   0  0  0  0  0  0  0  0  0  0  0  0
  -21.9733  -18.4315   17.8368 C   0  0  0  0  0  0  0  0  0  0  0  0
  -29.1179  -26.7008   18.8712 C   0  0  0  0  0  0  0  0  0  0  0  0
  -30.3368  -26.3563   16.3856 C   0  0  0  0  0  0  0  0  0  0  0  0
  -29.5667  -25.4383   18.4834 C   0  0  0  0  0  0  0  0  0  0  0  0
  -23.2592  -28.7895   20.1720 C   0  0  0  0  0  0  0  0  0  0  0  0
  -18.7720  -20.9470   16.4510 C   0  0  0  0  0  0  0  0  0  0  0  0
  -17.5110  -21.6402   18.2419 C   0  0  0  0  0  0  0  0  0  0  0  0
  -21.4140  -29.9242   19.7942 C   0  0  0  0  0  0  0  0  0  0  0  0
  -23.3803  -30.7104   18.4660 C   0  0  0  0  0  0  0  0  0  0  0  0
  -26.0696  -16.0132   20.4513 C   0  0  0  0  0  0  0  0  0  0  0  0
  -23.9042  -13.9719   21.7422 C   0  0  0  0  0  0  0  0  0  0  0  0
  -20.6514  -12.9664   21.9761 C   0  0  0  0  0  0  0  0  0  0  0  0
  -17.5986  -25.8871   22.0293 C   0  0  0  0  0  0  0  0  0  0  0  0
  -30.8480  -17.5115   21.4412 C   0  0  0  0  0  0  0  0  0  0  0  0
  -24.3364  -17.6139   21.3400 C   0  0  0  0  0  0  0  0  0  0  0  0
  -23.1054  -15.3965   19.8193 C   0  0  0  0  0  0  0  0  0  0  0  0
  -30.0131  -16.2659   21.7268 C   0  0  0  0  0  0  0  0  0  0  0  0
  -18.5197  -29.0005   23.4903 C   0  0  0  0  0  0  0  0  0  0  0  0
  -29.3148  -15.7886   20.4573 C   0  0  0  0  0  0  0  0  0  0  0  0
  -19.7914  -29.3958   22.7376 C   0  0  0  0  0  0  0  0  0  0  0  0
  -18.4435  -27.4922   23.7163 C   0  0  0  0  0  0  0  0  0  0  0  0
  -19.8602  -27.0704   21.7444 C   0  0  0  0  0  0  0  0  0  0  0  0
  -17.2443  -22.8372   20.4390 C   0  0  0  0  0  0  0  0  0  0  0  0
  -17.0511  -24.0629   18.7419 C   0  0  0  0  0  0  0  0  0  0  0  0
  -28.3508  -16.8551   19.9238 C   0  0  1  0  0  0  0  0  0  0  0  0
  -24.9046  -16.1987   21.3819 C   0  0  1  0  0  0  0  0  0  0  0  0
  -19.9548  -28.5760   21.4436 C   0  0  2  0  0  0  0  0  0  0  0  0
  -16.8815  -24.3165   20.2465 C   0  0  0  0  0  0  0  0  0  0  0  0
  -17.2593  -17.8958   18.0388 C   0  0  0  0  0  0  0  0  0  0  0  0
  -16.2455  -20.0419   19.7099 C   0  0  0  0  0  0  0  0  0  0  0  0
  -19.6615  -21.3308   15.3139 C   0  0  0  0  0  0  0  0  0  0  0  0
  -19.1958  -11.2461   23.0803 C   0  0  0  0  0  0  0  0  0  0  0  0
  -24.8983  -11.8676   19.7689 C   0  0  0  0  0  0  0  0  0  0  0  0
  -22.8304  -10.5407   20.2495 C   0  0  0  0  0  0  0  0  0  0  0  0
  -24.4621  -11.0096   22.0772 C   0  0  0  0  0  0  0  0  0  0  0  0
  -19.0848  -15.0360   23.3980 C   0  0  0  0  0  0  0  0  0  0  0  0
  -19.0056  -18.5253   15.7884 C   0  0  0  0  0  0  0  0  0  0  0  0
  -20.1679  -17.7782   16.4334 C   0  0  0  0  0  0  0  0  0  1  0  0
  -23.0073  -12.8837   21.2034 C   0  0  1  0  0  0  0  0  0  0  0  0
  -19.7797  -12.6470   23.1772 C   0  0  2  0  0  0  0  0  0  0  0  0
  -23.7977  -11.6022   20.8154 C   0  0  0  0  0  0  0  0  0  0  0  0
  -22.3480  -28.2201   20.9654 N   0  0  0  0  0  0  0  0  0  0  0  0
  -18.3172  -21.9705   17.2082 N   0  0  0  0  0  0  0  0  0  0  0  0
  -21.2365  -28.9322   20.7133 N   0  0  0  0  0  0  0  0  0  0  0  0
  -17.0196  -22.6908   19.0566 N   0  0  0  0  0  0  0  0  0  0  0  0
  -23.9121  -15.1806   21.0318 N   0  0  0  0  0  0  0  0  0  0  0  0
  -18.6040  -26.7731   22.4502 N   0  0  0  0  0  0  0  0  0  0  0  0
  -20.3998  -30.7347   19.4242 N   0  0  0  0  0  0  0  0  0  0  0  0
  -24.7404  -30.5035   18.1985 N   0  0  0  0  0  0  0  0  0  0  0  0
  -27.1289  -16.8652   20.6992 N   0  0  0  0  0  0  0  0  0  0  0  0
  -21.9764  -12.6673   22.2128 N   0  0  0  0  0  0  0  0  0  0  0  0
  -17.8267  -25.2515   20.8149 N   0  0  0  0  0  0  0  0  0  0  0  0
  -18.6545  -13.6195   23.2739 N   0  3  0  0  0  0  0  0  0  0  0  0
  -22.7741  -31.6402   17.8815 O   0  0  0  0  0  0  0  0  0  0  0  0
  -26.0123  -15.1592   19.5743 O   0  0  0  0  0  0  0  0  0  0  0  0
  -24.5679  -13.7597   22.7602 O   0  0  0  0  0  0  0  0  0  0  0  0
  -20.2013  -13.4311   20.9311 O   0  0  0  0  0  0  0  0  0  0  0  0
  -16.5711  -25.6820   22.6844 O   0  0  0  0  0  0  0  0  0  0  0  0
  -28.5118  -26.8732   20.1043 O   0  0  0  0  0  0  0  0  0  0  0  0
  -21.2221  -18.6923   16.7324 O   0  0  0  0  0  0  0  0  0  1  0  0
  -30.9207  -26.1908   15.1915 F   0  0  0  0  0  0  0  0  0  0  0  0
  -29.4140  -24.3868   19.3002 F   0  0  0  0  0  0  0  0  0  0  0  0
  1  2  1  0  0  0  0
  1  5  2  0  0  0  0
  2  6  2  0  0  0  0
  3  8  2  0  0  0  0
  3 15  1  0  0  0  0
  4  9  1  0  0  0  0
  4 15  2  0  0  0  0
  5 17  1  0  0  0  0
  6 19  1  0  0  0  0
  7 10  2  0  0  0  0
  7 18  1  0  0  0  0
  8 24  1  0  0  0  0
  9 24  2  0  0  0  0
 10 25  1  0  0  0  0
 11 12  2  0  0  0  0
 11 26  1  0  0  0  0
 12 27  1  0  0  0  0
 13 20  1  0  0  0  0
 13 25  2  0  0  0  0
 14 27  2  0  0  0  0
 14 28  1  0  0  0  0
 15 29  1  0  0  0  0
 16 29  1  0  0  0  0
 16 32  2  0  0  0  0
 16 33  1  0  0  0  0
 17 19  2  0  0  0  0
 17 38  1  0  0  0  0
 18 20  2  0  0  0  0
 18 39  1  0  0  0  0
 19 49  1  0  0  0  0
 20 40  1  0  0  0  0
 21 22  2  0  0  0  0
 21 23  1  0  0  0  0
 21 53  1  0  0  0  0
 22 30  1  0  0  0  0
 22 61  1  0  0  0  0
 23 31  2  0  0  0  0
 23 54  1  0  0  0  0
 24 83  1  0  0  0  0
 25 84  1  0  0  0  0
 26 28  2  0  0  0  0
 26 83  1  0  0  0  0
 27 85  1  0  0  0  0
 28 86  1  0  0  0  0
 29 66  2  0  0  0  0
 30 55  1  0  0  0  0
 30 67  2  0  0  0  0
 31 67  1  0  0  0  0
 31 69  1  0  0  0  0
 32 68  1  0  0  0  0
 32 72  1  0  0  0  0
 33 73  1  0  0  0  0
 33 78  2  0  0  0  0
 34 50  1  0  0  0  0
 34 74  1  0  0  0  0
 34 79  2  0  0  0  0
 35 63  1  0  0  0  0
 35 70  1  0  0  0  0
 35 80  2  0  0  0  0
 36 64  1  0  0  0  0
 36 75  1  0  0  0  0
 36 81  2  0  0  0  0
 37 71  1  0  0  0  0
 37 76  1  0  0  0  0
 37 82  2  0  0  0  0
 38 41  1  0  0  0  0
 39 50  1  0  0  0  0
 40 70  1  0  0  0  0
 41 43  1  0  0  0  0
 42 44  1  0  0  0  0
 42 45  1  0  0  0  0
 43 49  1  0  0  0  0
 44 51  1  0  0  0  0
 45 71  1  0  0  0  0
 46 51  1  0  0  0  0
 46 71  1  0  0  0  0
 47 52  1  0  0  0  0
 47 69  1  0  0  0  0
 48 52  1  0  0  0  0
 48 69  1  0  0  0  0
 49 74  1  0  0  0  0
 50 70  1  0  0  0  0
 51 68  1  0  0  0  0
 52 76  1  0  0  0  0
 56 64  1  0  0  0  0
 57 65  1  0  0  0  0
 58 65  1  0  0  0  0
 59 65  1  0  0  0  0
 60 77  1  0  0  0  0
 61 62  1  0  0  0  0
 62 84  1  0  0  0  0
 63 65  1  0  0  0  0
 63 75  1  0  0  0  0
 64 77  1  0  0  0  0
 66 68  1  0  0  0  0
M  CHG  1  77   1
M  ISO  4  37 100  62 101  76 100  84 101
M  END
> <Batch ID>
0162

> <Smiles>
CNC(C)C(=O)NC(C(=O)N1Cc2cc([101O:1][101CH2:1]Cc3c(C)nc(N4CC([100NH:0][100C:0](=O)N5CCCC(n6nc(-c7ccc(Oc8ccc(F)cc8F)cc7)c(C(N)=O)c6N)C5)C4)c(C)c3C)ccc2CC1C(=O)NC1CCCc2ccccc21)C(C)(C)C

> <Shape>
0.231

> <Color>
0.075

> <Negative vol penalty>
0.000

$$$$

  -OEChem-04052322143D

 89 98  0     1  0  0  0  0  0999 V2000
  -18.1781  -25.9514   23.5579 C   0  0  0  0  0  0  0  0  0  0  0  0
  -19.5638  -25.8365   23.5119 C   0  0  0  0  0  0  0  0  0  0  0  0
  -22.2581  -10.6974   20.8556 C   0  0  0  0  0  0  0  0  0  0  0  0
  -24.1889  -10.4264   22.2824 C   0  0  0  0  0  0  0  0  0  0  0  0
  -17.5404  -26.9703   22.8515 C   0  0  0  0  0  0  0  0  0  0  0  0
  -20.3125  -26.7399   22.7584 C   0  0  0  0  0  0  0  0  0  0  0  0
  -25.8892  -28.9003   24.0770 C   0  0  0  0  0  0  0  0  0  0  0  0
  -22.4230   -9.3947   20.3850 C   0  0  0  0  0  0  0  0  0  0  0  0
  -24.3538   -9.1237   21.8119 C   0  0  0  0  0  0  0  0  0  0  0  0
  -27.1626  -28.5397   23.6387 C   0  0  0  0  0  0  0  0  0  0  0  0
  -22.9706   -6.0881   22.3525 C   0  0  0  0  0  0  0  0  0  0  0  0
  -23.2294   -5.0895   23.2913 C   0  0  0  0  0  0  0  0  0  0  0  0
  -27.0782  -30.2857   21.9763 C   0  0  0  0  0  0  0  0  0  0  0  0
  -25.3272   -4.6033   22.1957 C   0  0  0  0  0  0  0  0  0  0  0  0
  -23.1411  -11.2133   21.8042 C   0  0  0  0  0  0  0  0  0  0  0  0
  -22.2100  -12.9726   23.3997 C   0  0  0  0  0  0  0  0  0  0  0  0
  -18.2824  -27.8925   22.0967 C   0  0  0  0  0  0  0  0  0  0  0  0
  -25.1951  -29.9510   23.4601 C   0  0  0  0  0  0  0  0  0  0  0  0
  -19.6840  -27.7713   22.0401 C   0  0  0  0  0  0  0  0  0  0  0  0
  -25.7972  -30.6593   22.4104 C   0  0  0  0  0  0  0  0  0  0  0  0
  -23.4708   -8.6079   20.8632 C   0  0  0  0  0  0  0  0  0  0  0  0
  -27.7562  -29.2305   22.5863 C   0  0  0  0  0  0  0  0  0  0  0  0
  -23.8900   -6.3443   21.3352 C   0  0  0  0  0  0  0  0  0  0  0  0
  -24.4077   -4.3471   23.2129 C   0  0  0  0  0  0  0  0  0  0  0  0
  -25.0683   -5.6019   21.2569 C   0  0  0  0  0  0  0  0  0  0  0  0
  -22.9716  -12.5591   22.2903 C   0  0  0  0  0  0  0  0  0  0  0  0
  -22.3731  -14.3358   23.4392 C   0  0  0  0  0  0  0  0  0  0  0  0
  -21.4253  -12.1941   24.3129 C   0  0  0  0  0  0  0  0  0  0  0  0
  -22.4657  -30.1959   21.8495 C   0  0  0  0  0  0  0  0  0  0  0  0
  -30.2273  -21.7268   19.5603 C   0  0  0  0  0  0  0  0  0  0  0  0
  -23.1338  -33.3681   21.9659 C   0  0  0  0  0  0  0  0  0  0  0  0
  -25.4821  -35.8247   22.2778 C   0  0  0  0  0  0  0  0  0  0  0  0
  -26.6005  -17.8963   21.6776 C   0  0  0  0  0  0  0  0  0  0  0  0
  -17.5451  -28.9484   21.3118 C   0  0  0  0  0  0  0  0  0  0  0  0
  -23.8331  -30.3450   23.9623 C   0  0  0  0  0  0  0  0  0  0  0  0
  -25.1024  -31.8082   21.7278 C   0  0  0  0  0  0  0  0  0  0  0  0
  -18.4396  -30.0915   20.8390 C   0  0  0  0  0  0  0  0  0  0  0  0
  -23.2277  -18.0971   20.6254 C   0  0  0  0  0  0  0  0  0  0  0  0
  -19.7241  -29.5451   20.2241 C   0  0  0  0  0  0  0  0  0  0  0  0
  -22.7030  -16.7212   21.0314 C   0  0  0  0  0  0  0  0  0  0  0  0
  -29.7477  -27.3277   19.7749 C   0  0  0  0  0  0  0  0  0  0  0  0
  -30.8060  -25.6961   21.2426 C   0  0  0  0  0  0  0  0  0  0  0  0
  -24.6495  -18.0305   20.0641 C   0  0  0  0  0  0  0  0  0  0  0  0
  -28.3822  -21.2086   21.2058 C   0  0  0  0  0  0  0  0  0  0  0  0
  -27.8529  -19.9909   21.9487 C   0  0  0  0  0  0  0  0  0  0  0  0
  -25.0853  -15.9669   21.3601 C   0  0  0  0  0  0  0  0  0  0  0  0
  -27.5985  -19.0618   19.6503 C   0  0  0  0  0  0  0  0  0  0  0  0
  -20.5327  -28.7469   21.2540 C   0  0  1  0  0  0  0  0  0  0  0  0
  -23.0076  -31.0970   22.9229 C   0  0  1  0  0  0  0  0  0  0  0  0
  -30.3461  -27.1527   21.1799 C   0  0  2  0  0  0  0  0  0  0  0  0
  -30.1140  -26.0566   18.9907 C   0  0  2  0  0  0  0  0  0  0  0  0
  -31.2423  -25.4109   19.8070 C   0  0  2  0  0  0  0  0  0  0  0  0
  -23.6839  -16.0203   21.9865 C   0  0  2  0  0  0  0  0  0  0  0  0
  -29.0291  -19.5664   19.4179 C   0  0  2  0  0  0  0  0  0  0  0  0
  -30.4953  -26.3479   17.5466 C   0  0  0  0  0  0  0  0  0  0  0  0
  -30.0729  -18.5307   19.8489 C   0  0  0  0  0  0  0  0  0  0  0  0
  -25.7302  -38.3218   22.2962 C   0  0  0  0  0  0  0  0  0  0  0  0
  -32.8008  -23.4626   20.0206 C   0  0  0  0  0  0  0  0  0  0  0  0
  -22.8094  -33.4202   18.9325 C   0  0  0  0  0  0  0  0  0  0  0  0
  -23.9733  -35.6368   18.9159 C   0  0  0  0  0  0  0  0  0  0  0  0
  -21.8057  -35.3773   20.1228 C   0  0  0  0  0  0  0  0  0  0  0  0
  -26.5523  -35.8142   25.0371 C   0  0  0  0  0  0  0  0  0  0  0  0
  -30.3406  -23.0808   20.2165 C   0  0  0  0  0  0  0  0  0  0  0  0
  -29.3779  -27.5157   22.2942 C   0  0  0  0  0  0  0  0  0  1  0  0
  -23.8953  -34.3331   21.0897 C   0  0  1  0  0  0  0  0  0  0  0  0
  -25.5253  -37.0733   23.1400 C   0  0  2  0  0  0  0  0  0  0  0  0
  -31.4234  -23.9155   19.5347 C   0  0  1  0  0  0  0  0  0  0  0  0
  -23.1335  -34.6690   19.7766 C   0  0  0  0  0  0  0  0  0  0  0  0
  -23.5736  -13.5771   21.6698 N   0  0  0  0  0  0  0  0  0  0  0  0
  -23.1904  -14.6439   22.3917 N   0  0  0  0  0  0  0  0  0  0  0  0
  -23.7697  -32.1514   22.2508 N   0  0  0  0  0  0  0  0  0  0  0  0
  -29.2613  -20.8602   20.0831 N   0  0  0  0  0  0  0  0  0  0  0  0
  -25.5428  -17.3041   20.9754 N   0  0  0  0  0  0  0  0  0  0  0  0
  -27.2489  -18.9877   21.0746 N   0  0  0  0  0  0  0  0  0  0  0  0
  -21.8957  -15.2890   24.2674 N   0  0  0  0  0  0  0  0  0  0  0  0
  -21.3663  -10.8061   24.1279 N   0  0  0  0  0  0  0  0  0  0  0  0
  -21.2356  -29.6418   22.1482 N   0  0  0  0  0  0  0  0  0  0  0  0
  -24.1916  -35.4939   21.9223 N   0  0  0  0  0  0  0  0  0  0  0  0
  -26.6396  -36.9840   24.1255 N   0  3  0  0  0  0  0  0  0  0  0  0
  -20.7819  -12.7158   25.2549 O   0  0  0  0  0  0  0  0  0  0  0  0
  -23.1148  -30.0179   20.8255 O   0  0  0  0  0  0  0  0  0  0  0  0
  -30.9712  -21.4448   18.6176 O   0  0  0  0  0  0  0  0  0  0  0  0
  -22.0190  -33.6852   22.3882 O   0  0  0  0  0  0  0  0  0  0  0  0
  -26.4925  -35.2069   21.9491 O   0  0  0  0  0  0  0  0  0  0  0  0
  -26.9647  -17.4628   22.7787 O   0  0  0  0  0  0  0  0  0  0  0  0
  -23.6319   -7.3366   20.4044 O   0  0  0  0  0  0  0  0  0  0  0  0
  -29.0092  -28.8772   22.1524 O   0  0  0  0  0  0  0  0  0  1  0  0
  -24.6568   -3.3892   24.1154 F   0  0  0  0  0  0  0  0  0  0  0  0
  -25.9559   -5.8443   20.2826 F   0  0  0  0  0  0  0  0  0  0  0  0
  1  2  1  0  0  0  0
  1  5  2  0  0  0  0
  2  6  2  0  0  0  0
  3  8  2  0  0  0  0
  3 15  1  0  0  0  0
  4  9  1  0  0  0  0
  4 15  2  0  0  0  0
  5 17  1  0  0  0  0
  6 19  1  0  0  0  0
  7 10  2  0  0  0  0
  7 18  1  0  0  0  0
  8 21  1  0  0  0  0
  9 21  2  0  0  0  0
 10 22  1  0  0  0  0
 11 12  2  0  0  0  0
 11 23  1  0  0  0  0
 12 24  1  0  0  0  0
 13 20  1  0  0  0  0
 13 22  2  0  0  0  0
 14 24  2  0  0  0  0
 14 25  1  0  0  0  0
 15 26  1  0  0  0  0
 16 26  1  0  0  0  0
 16 27  2  0  0  0  0
 16 28  1  0  0  0  0
 17 19  2  0  0  0  0
 17 34  1  0  0  0  0
 18 20  2  0  0  0  0
 18 35  1  0  0  0  0
 19 48  1  0  0  0  0
 20 36  1  0  0  0  0
 21 86  1  0  0  0  0
 22 87  1  0  0  0  0
 23 25  2  0  0  0  0
 23 86  1  0  0  0  0
 24 88  1  0  0  0  0
 25 89  1  0  0  0  0
 26 69  2  0  0  0  0
 27 70  1  0  0  0  0
 27 75  1  0  0  0  0
 28 76  1  0  0  0  0
 28 80  2  0  0  0  0
 29 49  1  0  0  0  0
 29 77  1  0  0  0  0
 29 81  2  0  0  0  0
 30 63  1  0  0  0  0
 30 72  1  0  0  0  0
 30 82  2  0  0  0  0
 31 65  1  0  0  0  0
 31 71  1  0  0  0  0
 31 83  2  0  0  0  0
 32 66  1  0  0  0  0
 32 78  1  0  0  0  0
 32 84  2  0  0  0  0
 33 73  1  0  0  0  0
 33 74  1  0  0  0  0
 33 85  2  0  0  0  0
 34 37  1  0  0  0  0
 35 49  1  0  0  0  0
 36 71  1  0  0  0  0
 37 39  1  0  0  0  0
 38 40  1  0  0  0  0
 38 43  1  0  0  0  0
 39 48  1  0  0  0  0
 40 53  1  0  0  0  0
 41 50  1  0  0  0  0
 41 51  1  0  0  0  0
 42 50  1  0  0  0  0
 42 52  1  0  0  0  0
 43 73  1  0  0  0  0
 44 45  1  0  0  0  0
 44 72  1  0  0  0  0
 45 74  1  0  0  0  0
 46 53  1  0  0  0  0
 46 73  1  0  0  0  0
 47 54  1  0  0  0  0
 47 74  1  0  0  0  0
 48 77  1  0  0  0  0
 49 71  1  0  0  0  0
 50 64  1  0  0  0  0
 51 52  1  0  0  0  0
 51 55  1  0  0  0  0
 52 67  1  0  0  0  0
 53 70  1  0  0  0  0
 54 56  1  0  0  0  0
 54 72  1  0  0  0  0
 57 66  1  0  0  0  0
 58 67  1  0  0  0  0
 59 68  1  0  0  0  0
 60 68  1  0  0  0  0
 61 68  1  0  0  0  0
 62 79  1  0  0  0  0
 63 67  1  0  0  0  0
 64 87  1  0  0  0  0
 65 68  1  0  0  0  0
 65 78  1  0  0  0  0
 66 79  1  0  0  0  0
 69 70  1  0  0  0  0
M  CHG  1  79   1
M  ISO  4  33 100  64 101  74 100  87 101
M  END
> <Batch ID>
0162

> <Smiles>
CNC(C)C(=O)NC(C(=O)N1Cc2cc([101O:1][101CH2:1]C3CC(C)C(C(C)CC(=O)N4CC[100N:0]([100C:0](=O)N5CCCC(n6nc(-c7ccc(Oc8ccc(F)cc8F)cc7)c(C(N)=O)c6N)C5)CC4C)C3)ccc2CC1C(=O)NC1CCCc2ccccc21)C(C)(C)C

> <Shape>
0.279

> <Color>
0.083

> <Negative vol penalty>
0.000

$$$$

  -OEChem-04052322143D

 83 92  0     1  0  0  0  0  0999 V2000
  -19.6199  -23.9205   22.2184 C   0  0  0  0  0  0  0  0  0  0  0  0
  -20.8101  -24.2857   21.5974 C   0  0  0  0  0  0  0  0  0  0  0  0
  -26.7810  -15.6887   21.8761 C   0  0  0  0  0  0  0  0  0  0  0  0
  -29.1096  -15.4691   21.2710 C   0  0  0  0  0  0  0  0  0  0  0  0
  -18.7382  -24.9034   22.6658 C   0  0  0  0  0  0  0  0  0  0  0  0
  -21.1186  -25.6343   21.4226 C   0  0  0  0  0  0  0  0  0  0  0  0
  -25.9201  -26.7008   22.6279 C   0  0  0  0  0  0  0  0  0  0  0  0
  -26.8007  -14.4039   22.4187 C   0  0  0  0  0  0  0  0  0  0  0  0
  -29.1294  -14.1842   21.8136 C   0  0  0  0  0  0  0  0  0  0  0  0
  -26.9006  -26.3631   21.6961 C   0  0  0  0  0  0  0  0  0  0  0  0
  -27.8646  -12.9173   25.2632 C   0  0  0  0  0  0  0  0  0  0  0  0
  -27.2663  -12.7306   26.5093 C   0  0  0  0  0  0  0  0  0  0  0  0
  -32.0339  -26.0648   17.9652 C   0  0  0  0  0  0  0  0  0  0  0  0
  -29.6611  -24.6240   17.7975 C   0  0  0  0  0  0  0  0  0  0  0  0
  -26.9685  -28.6548   20.9459 C   0  0  0  0  0  0  0  0  0  0  0  0
  -25.7372  -11.1332   25.5358 C   0  0  0  0  0  0  0  0  0  0  0  0
  -27.9354  -16.2213   21.3022 C   0  0  0  0  0  0  0  0  0  0  0  0
  -28.2020  -18.7563   21.4046 C   0  0  0  0  0  0  0  0  0  0  0  0
  -19.0405  -26.2648   22.5050 C   0  0  0  0  0  0  0  0  0  0  0  0
  -25.4479  -28.0181   22.7185 C   0  0  0  0  0  0  0  0  0  0  0  0
  -20.2394  -26.6364   21.8670 C   0  0  0  0  0  0  0  0  0  0  0  0
  -31.8282  -25.1980   16.8794 C   0  0  0  0  0  0  0  0  0  0  0  0
  -30.6407  -24.4419   16.8047 C   0  0  0  0  0  0  0  0  0  0  0  0
  -25.9838  -29.0072   21.8815 C   0  0  0  0  0  0  0  0  0  0  0  0
  -31.0614  -26.2136   18.9517 C   0  0  0  0  0  0  0  0  0  0  0  0
  -29.8727  -25.4978   18.8646 C   0  0  0  0  0  0  0  0  0  0  0  0
  -27.9750  -13.6517   22.3875 C   0  0  0  0  0  0  0  0  0  0  0  0
  -27.4229  -27.3395   20.8529 C   0  0  0  0  0  0  0  0  0  0  0  0
  -27.3992  -12.2121   24.1534 C   0  0  0  0  0  0  0  0  0  0  0  0
  -26.2026  -11.8385   26.6456 C   0  0  0  0  0  0  0  0  0  0  0  0
  -26.3355  -11.3200   24.2897 C   0  0  0  0  0  0  0  0  0  0  0  0
  -27.9154  -17.5483   20.7411 C   0  0  0  0  0  0  0  0  0  0  0  0
  -28.0438  -19.7229   20.4418 C   0  0  0  0  0  0  0  0  0  0  0  0
  -28.5777  -18.9843   22.7694 C   0  0  0  0  0  0  0  0  0  0  0  0
  -22.6261  -29.4226   22.3075 C   0  0  0  0  0  0  0  0  0  0  0  0
  -24.2076  -32.0387   23.3926 C   0  0  0  0  0  0  0  0  0  0  0  0
  -27.1834  -33.6518   23.8273 C   0  0  0  0  0  0  0  0  0  0  0  0
  -28.8480  -21.5939   15.2458 C   0  0  0  0  0  0  0  0  0  0  0  0
  -18.0343  -27.2909   22.9625 C   0  0  0  0  0  0  0  0  0  0  0  0
  -24.4090  -28.3717   23.7472 C   0  0  0  0  0  0  0  0  0  0  0  0
  -32.9173  -25.0697   15.8437 C   0  0  0  0  0  0  0  0  0  0  0  0
  -25.5253  -30.4401   21.9526 C   0  0  0  0  0  0  0  0  0  0  0  0
  -18.6098  -28.7003   23.0750 C   0  0  0  0  0  0  0  0  0  0  0  0
  -32.4249  -24.4613   14.5345 C   0  0  0  0  0  0  0  0  0  0  0  0
  -26.0600  -19.4492   15.7968 C   0  0  0  0  0  0  0  0  0  0  0  0
  -19.4301  -29.0426   21.8353 C   0  0  0  0  0  0  0  0  0  0  0  0
  -31.6327  -23.1919   14.8156 C   0  0  0  0  0  0  0  0  0  0  0  0
  -26.3211  -18.8588   17.1835 C   0  0  0  0  0  0  0  0  0  0  0  0
  -27.3549  -19.6316   15.0081 C   0  0  0  0  0  0  0  0  0  0  0  0
  -28.6605  -19.8163   17.0902 C   0  0  0  0  0  0  0  0  0  0  0  0
  -20.6211  -28.0890   21.6813 C   0  0  1  0  0  0  0  0  0  0  0  0
  -30.3763  -23.5099   15.6362 C   0  0  1  0  0  0  0  0  0  0  0  0
  -23.6330  -29.6388   23.4017 C   0  0  1  0  0  0  0  0  0  0  0  0
  -27.3901  -19.6659   17.9444 C   0  0  2  0  0  0  0  0  0  0  0  0
  -31.3150  -27.1502   20.0866 C   0  0  0  0  0  0  0  0  0  0  0  0
  -28.1538  -35.7916   24.7088 C   0  0  0  0  0  0  0  0  0  0  0  0
  -23.2497  -33.5005   20.8915 C   0  0  0  0  0  0  0  0  0  0  0  0
  -24.9811  -35.2531   21.3375 C   0  0  0  0  0  0  0  0  0  0  0  0
  -23.1568  -34.8553   22.9916 C   0  0  0  0  0  0  0  0  0  0  0  0
  -28.7861  -32.2219   25.8634 C   0  0  0  0  0  0  0  0  0  0  0  0
  -28.8019  -25.6499   19.9046 C   0  0  0  0  0  0  0  0  0  1  0  0
  -25.0058  -33.1478   22.7511 C   0  0  1  0  0  0  0  0  0  0  0  0
  -27.7823  -34.3530   25.0332 C   0  0  2  0  0  0  0  0  0  0  0  0
  -24.1058  -34.1619   21.9900 C   0  0  0  0  0  0  0  0  0  0  0  0
  -27.5990  -17.7284   19.4560 N   0  0  0  0  0  0  0  0  0  0  0  0
  -27.6857  -19.0609   19.3043 N   0  0  0  0  0  0  0  0  0  0  0  0
  -24.5033  -30.7347   22.9706 N   0  0  0  0  0  0  0  0  0  0  0  0
  -28.3257  -20.4065   15.7846 N   0  0  0  0  0  0  0  0  0  0  0  0
  -28.1774  -21.0660   20.4655 N   0  0  0  0  0  0  0  0  0  0  0  0
  -28.6947  -17.8794   23.6237 N   0  0  0  0  0  0  0  0  0  0  0  0
  -21.6826  -28.4546   22.5945 N   0  0  0  0  0  0  0  0  0  0  0  0
  -25.8075  -33.7420   23.8153 N   0  0  0  0  0  0  0  0  0  0  0  0
  -29.7573  -22.2703   16.0498 N   0  0  0  0  0  0  0  0  0  0  0  0
  -29.0101  -33.6419   25.4890 N   0  3  0  0  0  0  0  0  0  0  0  0
  -28.7869  -20.1353   23.2222 O   0  0  0  0  0  0  0  0  0  0  0  0
  -22.6989  -30.0859   21.2797 O   0  0  0  0  0  0  0  0  0  0  0  0
  -23.3581  -32.3183   24.2422 O   0  0  0  0  0  0  0  0  0  0  0  0
  -27.8679  -33.0843   22.9788 O   0  0  0  0  0  0  0  0  0  0  0  0
  -28.5238  -22.0224   14.1331 O   0  0  0  0  0  0  0  0  0  0  0  0
  -27.9947  -12.3980   22.9171 O   0  0  0  0  0  0  0  0  0  0  0  0
  -28.3795  -27.0124   19.9420 O   0  0  0  0  0  0  0  0  0  1  0  0
  -25.6292  -11.6582   27.8426 F   0  0  0  0  0  0  0  0  0  0  0  0
  -25.8848  -10.6388   23.2273 F   0  0  0  0  0  0  0  0  0  0  0  0
  1  2  1  0  0  0  0
  1  5  2  0  0  0  0
  2  6  2  0  0  0  0
  3  8  2  0  0  0  0
  3 17  1  0  0  0  0
  4  9  1  0  0  0  0
  4 17  2  0  0  0  0
  5 19  1  0  0  0  0
  6 21  1  0  0  0  0
  7 10  2  0  0  0  0
  7 20  1  0  0  0  0
  8 27  1  0  0  0  0
  9 27  2  0  0  0  0
 10 28  1  0  0  0  0
 11 12  2  0  0  0  0
 11 29  1  0  0  0  0
 12 30  1  0  0  0  0
 13 22  2  0  0  0  0
 13 25  1  0  0  0  0
 14 23  2  0  0  0  0
 14 26  1  0  0  0  0
 15 24  1  0  0  0  0
 15 28  2  0  0  0  0
 16 30  2  0  0  0  0
 16 31  1  0  0  0  0
 17 32  1  0  0  0  0
 18 32  1  0  0  0  0
 18 33  2  0  0  0  0
 18 34  1  0  0  0  0
 19 21  2  0  0  0  0
 19 39  1  0  0  0  0
 20 24  2  0  0  0  0
 20 40  1  0  0  0  0
 21 51  1  0  0  0  0
 22 23  1  0  0  0  0
 22 41  1  0  0  0  0
 23 52  1  0  0  0  0
 24 42  1  0  0  0  0
 25 26  2  0  0  0  0
 25 55  1  0  0  0  0
 26 61  1  0  0  0  0
 27 80  1  0  0  0  0
 28 81  1  0  0  0  0
 29 31  2  0  0  0  0
 29 80  1  0  0  0  0
 30 82  1  0  0  0  0
 31 83  1  0  0  0  0
 32 65  2  0  0  0  0
 33 66  1  0  0  0  0
 33 69  1  0  0  0  0
 34 70  1  0  0  0  0
 34 75  2  0  0  0  0
 35 53  1  0  0  0  0
 35 71  1  0  0  0  0
 35 76  2  0  0  0  0
 36 62  1  0  0  0  0
 36 67  1  0  0  0  0
 36 77  2  0  0  0  0
 37 63  1  0  0  0  0
 37 72  1  0  0  0  0
 37 78  2  0  0  0  0
 38 68  1  0  0  0  0
 38 73  1  0  0  0  0
 38 79  2  0  0  0  0
 39 43  1  0  0  0  0
 40 53  1  0  0  0  0
 41 44  1  0  0  0  0
 42 67  1  0  0  0  0
 43 46  1  0  0  0  0
 44 47  1  0  0  0  0
 45 48  1  0  0  0  0
 45 49  1  0  0  0  0
 46 51  1  0  0  0  0
 47 52  1  0  0  0  0
 48 54  1  0  0  0  0
 49 68  1  0  0  0  0
 50 54  1  0  0  0  0
 50 68  1  0  0  0  0
 51 71  1  0  0  0  0
 52 73  1  0  0  0  0
 53 67  1  0  0  0  0
 54 66  1  0  0  0  0
 56 63  1  0  0  0  0
 57 64  1  0  0  0  0
 58 64  1  0  0  0  0
 59 64  1  0  0  0  0
 60 74  1  0  0  0  0
 61 81  1  0  0  0  0
 62 64  1  0  0  0  0
 62 72  1  0  0  0  0
 63 74  1  0  0  0  0
 65 66  1  0  0  0  0
M  CHG  1  74   1
M  ISO  4  38 100  61 101  73 100  81 101
M  END
> <Batch ID>
0162

> <Smiles>
CNC(C)C(=O)NC(C(=O)N1Cc2cc([101O:1][101CH2:1]c3cc4c(cc3C)CCCC4[100NH:0][100C:0](=O)N3CCCC(n4nc(-c5ccc(Oc6ccc(F)cc6F)cc5)c(C(N)=O)c4N)C3)ccc2CC1C(=O)NC1CCCc2ccccc21)C(C)(C)C

> <Shape>
0.234

> <Color>
0.078

> <Negative vol penalty>
0.000

$$$$

  -OEChem-04052322143D

 88 97  0     1  0  0  0  0  0999 V2000
  -26.7114  -36.9164   24.6214 C   0  0  0  0  0  0  0  0  0  0  0  0
  -27.0854  -36.2647   23.4505 C   0  0  0  0  0  0  0  0  0  0  0  0
  -22.9384  -10.5926   21.4074 C   0  0  0  0  0  0  0  0  0  0  0  0
  -24.7027   -8.9928   21.8136 C   0  0  0  0  0  0  0  0  0  0  0  0
  -26.3773  -36.1752   25.7541 C   0  0  0  0  0  0  0  0  0  0  0  0
  -27.1266  -34.8714   23.4120 C   0  0  0  0  0  0  0  0  0  0  0  0
  -26.0613  -29.3760   18.9419 C   0  0  0  0  0  0  0  0  0  0  0  0
  -22.0170   -9.5505   21.3048 C   0  0  0  0  0  0  0  0  0  0  0  0
  -23.7812   -7.9506   21.7111 C   0  0  0  0  0  0  0  0  0  0  0  0
  -26.6998  -28.2278   18.4753 C   0  0  0  0  0  0  0  0  0  0  0  0
  -21.8303   -4.8895   21.9145 C   0  0  0  0  0  0  0  0  0  0  0  0
  -21.8875   -3.8758   22.8710 C   0  0  0  0  0  0  0  0  0  0  0  0
  -26.0252  -27.0497   20.4694 C   0  0  0  0  0  0  0  0  0  0  0  0
  -21.4774   -5.4976   24.6142 C   0  0  0  0  0  0  0  0  0  0  0  0
  -24.2812  -10.3138   21.6617 C   0  0  0  0  0  0  0  0  0  0  0  0
  -25.6001  -12.0896   22.9324 C   0  0  0  0  0  0  0  0  0  0  0  0
  -26.4051  -34.7720   25.7266 C   0  0  0  0  0  0  0  0  0  0  0  0
  -25.4082  -29.3728   20.1828 C   0  0  0  0  0  0  0  0  0  0  0  0
  -26.7939  -34.1108   24.5458 C   0  0  0  0  0  0  0  0  0  0  0  0
  -25.3770  -28.1984   20.9483 C   0  0  0  0  0  0  0  0  0  0  0  0
  -29.8372  -24.3671   16.8859 C   0  0  0  0  0  0  0  0  0  0  0  0
  -29.8462  -22.9844   16.5774 C   0  0  0  0  0  0  0  0  0  0  0  0
  -22.4384   -8.2295   21.4567 C   0  0  0  0  0  0  0  0  0  0  0  0
  -26.6842  -27.0652   19.2404 C   0  0  0  0  0  0  0  0  0  0  0  0
  -21.5968   -6.2072   22.3079 C   0  0  0  0  0  0  0  0  0  0  0  0
  -21.7111   -4.1799   24.2208 C   0  0  0  0  0  0  0  0  0  0  0  0
  -21.4203   -6.5113   23.6577 C   0  0  0  0  0  0  0  0  0  0  0  0
  -25.2336  -11.3898   21.7672 C   0  0  0  0  0  0  0  0  0  0  0  0
  -28.5319  -24.7221   17.1458 C   0  0  0  0  0  0  0  0  0  0  0  0
  -26.5301  -13.0054   22.5048 C   0  0  0  0  0  0  0  0  0  0  0  0
  -28.5461  -22.5366   16.6580 C   0  0  0  0  0  0  0  0  0  0  0  0
  -25.1410  -11.9263   24.2808 C   0  0  0  0  0  0  0  0  0  0  0  0
  -25.7750  -30.9557   22.9148 C   0  0  0  0  0  0  0  0  0  0  0  0
  -23.0435  -29.4063   23.7275 C   0  0  0  0  0  0  0  0  0  0  0  0
  -20.9720  -26.7380   23.2420 C   0  0  0  0  0  0  0  0  0  0  0  0
  -28.3403  -16.7515   19.1143 C   0  0  0  0  0  0  0  0  0  0  0  0
  -26.0813  -34.0146   26.9900 C   0  0  0  0  0  0  0  0  0  0  0  0
  -24.7014  -30.6119   20.6598 C   0  0  0  0  0  0  0  0  0  0  0  0
  -24.6724  -28.1370   22.2780 C   0  0  0  0  0  0  0  0  0  0  0  0
  -25.7886  -32.5349   26.7551 C   0  0  0  0  0  0  0  0  0  0  0  0
  -28.9441  -13.4479   18.0894 C   0  0  0  0  0  0  0  0  0  0  0  0
  -26.8384  -31.9229   25.8330 C   0  0  0  0  0  0  0  0  0  0  0  0
  -28.0555  -12.6636   19.0545 C   0  0  0  0  0  0  0  0  0  0  0  0
  -27.8225  -18.8579   16.3425 C   0  0  0  0  0  0  0  0  0  0  0  0
  -29.1482  -19.9857   18.1696 C   0  0  0  0  0  0  0  0  0  0  0  0
  -28.2641  -14.7254   17.5937 C   0  0  0  0  0  0  0  0  0  0  0  0
  -28.4875  -17.5269   16.7052 C   0  0  0  0  0  0  0  0  0  0  0  0
  -29.8055  -18.6429   18.4763 C   0  0  0  0  0  0  0  0  0  0  0  0
  -26.8842  -14.8192   19.6445 C   0  0  0  0  0  0  0  0  0  0  0  0
  -26.8268  -32.6005   24.4574 C   0  0  1  0  0  0  0  0  0  0  0  0
  -24.5064  -30.6438   22.1725 C   0  0  1  0  0  0  0  0  0  0  0  0
  -27.5636  -13.5601   20.2048 C   0  0  1  0  0  0  0  0  0  0  0  0
  -28.7140  -20.0486   16.7029 C   0  0  0  0  0  0  0  0  0  0  0  0
  -31.0097  -25.2653   16.9230 C   0  0  0  0  0  0  0  0  0  0  0  0
  -31.0316  -22.1719   16.2326 C   0  0  0  0  0  0  0  0  0  0  0  0
  -18.8350  -25.7249   24.0811 C   0  0  0  0  0  0  0  0  0  0  0  0
  -25.9230  -22.6423   18.3528 C   0  0  0  0  0  0  0  0  0  0  0  0
  -25.5839  -23.1869   15.9044 C   0  0  0  0  0  0  0  0  0  0  0  0
  -24.4949  -28.4175   26.2227 C   0  0  0  0  0  0  0  0  0  0  0  0
  -22.6945  -26.7008   26.5048 C   0  0  0  0  0  0  0  0  0  0  0  0
  -22.1278  -29.1280   26.6054 C   0  0  0  0  0  0  0  0  0  0  0  0
  -19.6858  -26.9652   20.5863 C   0  0  0  0  0  0  0  0  0  0  0  0
  -27.9572  -26.0329   17.5171 C   0  0  0  0  0  0  0  0  0  1  0  0
  -22.7179  -28.0843   24.3796 C   0  0  1  0  0  0  0  0  0  0  0  0
  -19.4681  -26.6514   23.0547 C   0  0  2  0  0  0  0  0  0  0  0  0
  -26.3201  -23.5579   17.1931 C   0  0  0  0  0  0  0  0  0  0  0  0
  -23.0238  -28.0841   25.9040 C   0  0  0  0  0  0  0  0  0  0  0  0
  -25.8781  -11.8240   20.6808 N   0  0  0  0  0  0  0  0  0  0  0  0
  -27.7559  -23.6014   17.0040 N   0  0  0  0  0  0  0  0  0  0  0  0
  -26.6589  -12.8065   21.1617 N   0  0  0  0  0  0  0  0  0  0  0  0
  -24.0014  -29.3763   22.7041 N   0  0  0  0  0  0  0  0  0  0  0  0
  -27.7764  -15.5276   18.7243 N   0  0  0  0  0  0  0  0  0  0  0  0
  -28.9292  -17.5307   18.1073 N   0  0  0  0  0  0  0  0  0  0  0  0
  -27.2421  -13.9534   23.1504 N   0  0  0  0  0  0  0  0  0  0  0  0
  -24.1830  -10.9381   24.5454 N   0  0  0  0  0  0  0  0  0  0  0  0
  -27.9999  -21.2817   16.4548 N   0  0  0  0  0  0  0  0  0  0  0  0
  -25.7177  -32.1152   23.6643 N   0  0  0  0  0  0  0  0  0  0  0  0
  -21.3259  -27.7983   24.0494 N   0  0  0  0  0  0  0  0  0  0  0  0
  -19.1444  -26.1366   21.6941 N   0  3  0  0  0  0  0  0  0  0  0  0
  -25.5555  -12.6467   25.2204 O   0  0  0  0  0  0  0  0  0  0  0  0
  -26.7344  -30.1997   22.8160 O   0  0  0  0  0  0  0  0  0  0  0  0
  -22.4641  -30.4269   24.1073 O   0  0  0  0  0  0  0  0  0  0  0  0
  -21.7544  -25.9424   22.7269 O   0  0  0  0  0  0  0  0  0  0  0  0
  -28.3189  -17.1266   20.2933 O   0  0  0  0  0  0  0  0  0  0  0  0
  -21.5395   -7.2123   21.3570 O   0  0  0  0  0  0  0  0  0  0  0  0
  -27.3106  -25.9371   18.7851 O   0  0  0  0  0  0  0  0  0  1  0  0
  -21.7645   -3.2062   25.1391 F   0  0  0  0  0  0  0  0  0  0  0  0
  -21.1944   -7.7752   24.0415 F   0  0  0  0  0  0  0  0  0  0  0  0
  1  2  1  0  0  0  0
  1  5  2  0  0  0  0
  2  6  2  0  0  0  0
  3  8  2  0  0  0  0
  3 15  1  0  0  0  0
  4  9  1  0  0  0  0
  4 15  2  0  0  0  0
  5 17  1  0  0  0  0
  6 19  1  0  0  0  0
  7 10  2  0  0  0  0
  7 18  1  0  0  0  0
  8 23  1  0  0  0  0
  9 23  2  0  0  0  0
 10 24  1  0  0  0  0
 11 12  2  0  0  0  0
 11 25  1  0  0  0  0
 12 26  1  0  0  0  0
 13 20  1  0  0  0  0
 13 24  2  0  0  0  0
 14 26  2  0  0  0  0
 14 27  1  0  0  0  0
 15 28  1  0  0  0  0
 16 28  1  0  0  0  0
 16 30  2  0  0  0  0
 16 32  1  0  0  0  0
 17 19  2  0  0  0  0
 17 37  1  0  0  0  0
 18 20  2  0  0  0  0
 18 38  1  0  0  0  0
 19 50  1  0  0  0  0
 20 39  1  0  0  0  0
 21 22  1  0  0  0  0
 21 29  2  0  0  0  0
 21 54  1  0  0  0  0
 22 31  2  0  0  0  0
 22 55  1  0  0  0  0
 23 85  1  0  0  0  0
 24 86  1  0  0  0  0
 25 27  2  0  0  0  0
 25 85  1  0  0  0  0
 26 87  1  0  0  0  0
 27 88  1  0  0  0  0
 28 68  2  0  0  0  0
 29 63  1  0  0  0  0
 29 69  1  0  0  0  0
 30 70  1  0  0  0  0
 30 74  1  0  0  0  0
 31 69  1  0  0  0  0
 31 76  1  0  0  0  0
 32 75  1  0  0  0  0
 32 80  2  0  0  0  0
 33 51  1  0  0  0  0
 33 77  1  0  0  0  0
 33 81  2  0  0  0  0
 34 64  1  0  0  0  0
 34 71  1  0  0  0  0
 34 82  2  0  0  0  0
 35 65  1  0  0  0  0
 35 78  1  0  0  0  0
 35 83  2  0  0  0  0
 36 72  1  0  0  0  0
 36 73  1  0  0  0  0
 36 84  2  0  0  0  0
 37 40  1  0  0  0  0
 38 51  1  0  0  0  0
 39 71  1  0  0  0  0
 40 42  1  0  0  0  0
 41 43  1  0  0  0  0
 41 46  1  0  0  0  0
 42 50  1  0  0  0  0
 43 52  1  0  0  0  0
 44 47  1  0  0  0  0
 44 53  1  0  0  0  0
 45 48  1  0  0  0  0
 45 53  1  0  0  0  0
 46 72  1  0  0  0  0
 47 73  1  0  0  0  0
 48 73  1  0  0  0  0
 49 52  1  0  0  0  0
 49 72  1  0  0  0  0
 50 77  1  0  0  0  0
 51 71  1  0  0  0  0
 52 70  1  0  0  0  0
 53 76  1  0  0  0  0
 56 65  1  0  0  0  0
 57 66  1  0  0  0  0
 58 66  1  0  0  0  0
 59 67  1  0  0  0  0
 60 67  1  0  0  0  0
 61 67  1  0  0  0  0
 62 79  1  0  0  0  0
 63 86  1  0  0  0  0
 64 67  1  0  0  0  0
 64 78  1  0  0  0  0
 65 79  1  0  0  0  0
 66 69  1  0  0  0  0
 68 70  1  0  0  0  0
M  CHG  1  79   1
M  ISO  4  36 100  63 101  73 100  86 101
M  END
> <Batch ID>
0162

> <Smiles>
CNC(C)C(=O)NC(C(=O)N1Cc2cc([101O:1][101CH2:1]c3c(C)c(C)c(NC4CC[100N:0]([100C:0](=O)N5CCCC(n6nc(-c7ccc(Oc8ccc(F)cc8F)cc7)c(C(N)=O)c6N)C5)CC4)n3C(C)C)ccc2CC1C(=O)NC1CCCc2ccccc21)C(C)(C)C

> <Shape>
0.327

> <Color>
0.102

> <Negative vol penalty>
0.000

$$$$

  -OEChem-04052322143D

 92102  0     1  0  0  0  0  0999 V2000
  -27.0188  -32.6150   28.3138 C   0  0  0  0  0  0  0  0  0  0  0  0
  -27.4103  -31.6813   27.3597 C   0  0  0  0  0  0  0  0  0  0  0  0
  -23.0832  -10.2516   21.8740 C   0  0  0  0  0  0  0  0  0  0  0  0
  -23.5420  -12.6211   21.7638 C   0  0  0  0  0  0  0  0  0  0  0  0
  -25.6704  -32.9391   28.4580 C   0  0  0  0  0  0  0  0  0  0  0  0
  -26.4535  -31.0702   26.5501 C   0  0  0  0  0  0  0  0  0  0  0  0
  -27.1172  -29.3793   20.7015 C   0  0  0  0  0  0  0  0  0  0  0  0
  -22.1276  -10.4826   22.8635 C   0  0  0  0  0  0  0  0  0  0  0  0
  -22.5864  -12.8521   22.7533 C   0  0  0  0  0  0  0  0  0  0  0  0
  -27.4035  -28.1513   20.1068 C   0  0  0  0  0  0  0  0  0  0  0  0
  -18.9294  -11.5667   23.0332 C   0  0  0  0  0  0  0  0  0  0  0  0
  -17.7045  -10.9096   22.9175 C   0  0  0  0  0  0  0  0  0  0  0  0
  -25.0460  -27.7775   19.7577 C   0  0  0  0  0  0  0  0  0  0  0  0
  -28.5704  -24.4245   16.9449 C   0  0  0  0  0  0  0  0  0  0  0  0
  -18.0831   -9.8292   25.0450 C   0  0  0  0  0  0  0  0  0  0  0  0
  -23.7904  -11.3208   21.3242 C   0  0  0  0  0  0  0  0  0  0  0  0
  -24.5712  -10.4924   19.0412 C   0  0  0  0  0  0  0  0  0  0  0  0
  -24.6976  -32.3388   27.6432 C   0  0  0  0  0  0  0  0  0  0  0  0
  -25.7902  -29.8116   20.8387 C   0  0  0  0  0  0  0  0  0  0  0  0
  -25.0907  -31.3855   26.6845 C   0  0  0  0  0  0  0  0  0  0  0  0
  -24.7457  -29.0127   20.3521 C   0  0  0  0  0  0  0  0  0  0  0  0
  -28.1293  -24.4558   18.2678 C   0  0  0  0  0  0  0  0  0  0  0  0
  -28.6839  -23.2057   16.2761 C   0  0  0  0  0  0  0  0  0  0  0  0
  -27.8018  -23.2682   18.9220 C   0  0  0  0  0  0  0  0  0  0  0  0
  -27.9153  -22.0493   18.2533 C   0  0  0  0  0  0  0  0  0  0  0  0
  -21.8792  -11.7829   23.3031 C   0  0  0  0  0  0  0  0  0  0  0  0
  -26.3677  -27.3488   19.6374 C   0  0  0  0  0  0  0  0  0  0  0  0
  -19.7312  -11.3550   24.1548 C   0  0  0  0  0  0  0  0  0  0  0  0
  -28.3563  -22.0181   16.9303 C   0  0  0  0  0  0  0  0  0  0  0  0
  -17.2813  -10.0409   23.9234 C   0  0  0  0  0  0  0  0  0  0  0  0
  -19.3081  -10.4863   25.1607 C   0  0  0  0  0  0  0  0  0  0  0  0
  -24.7780  -11.0828   20.3024 C   0  0  0  0  0  0  0  0  0  0  0  0
  -25.8123  -10.4954   18.4530 C   0  0  0  0  0  0  0  0  0  0  0  0
  -23.3650   -9.9865   18.4540 C   0  0  0  0  0  0  0  0  0  0  0  0
  -23.9008  -30.5073   23.2984 C   0  0  0  0  0  0  0  0  0  0  0  0
  -21.8554  -31.4425   20.9608 C   0  0  0  0  0  0  0  0  0  0  0  0
  -20.8628  -31.1849   17.7058 C   0  0  0  0  0  0  0  0  0  0  0  0
  -30.6211  -14.0676   19.7604 C   0  0  0  0  0  0  0  0  0  0  0  0
  -23.2473  -32.6861   27.8682 C   0  0  0  0  0  0  0  0  0  0  0  0
  -25.4997  -31.1509   21.4584 C   0  0  0  0  0  0  0  0  0  0  0  0
  -23.3053  -29.4402   20.4571 C   0  0  0  0  0  0  0  0  0  0  0  0
  -22.3357  -32.2709   26.7163 C   0  0  0  0  0  0  0  0  0  0  0  0
  -30.4701  -10.3726   19.5050 C   0  0  0  0  0  0  0  0  0  0  0  0
  -22.6439  -30.8421   26.2800 C   0  0  0  0  0  0  0  0  0  0  0  0
  -28.9757  -10.0924   19.6527 C   0  0  0  0  0  0  0  0  0  0  0  0
  -30.5512  -17.3931   18.7743 C   0  0  0  0  0  0  0  0  0  0  0  0
  -29.3273  -15.9643   17.0882 C   0  0  0  0  0  0  0  0  0  0  0  0
  -29.6552  -19.5502   14.5958 C   0  0  0  0  0  0  0  0  0  0  0  0
  -30.8792  -11.6564   20.2201 C   0  0  0  0  0  0  0  0  0  0  0  0
  -30.0383  -16.4721   19.8781 C   0  0  0  0  0  0  0  0  0  0  0  0
  -28.8590  -15.0531   18.2267 C   0  0  0  0  0  0  0  0  0  0  0  0
  -28.5958  -12.5716   19.9545 C   0  0  0  0  0  0  0  0  0  0  0  0
  -29.3213  -18.2129   15.2270 C   0  0  0  0  0  0  0  0  0  0  0  0
  -30.4756  -19.6401   16.8510 C   0  0  0  0  0  0  0  0  0  0  0  0
  -24.0851  -30.7195   25.7706 C   0  0  1  0  0  0  0  0  0  0  0  0
  -24.0814  -31.2591   22.0100 C   0  0  1  0  0  0  0  0  0  0  0  0
  -28.1442  -11.3076   19.2074 C   0  0  2  0  0  0  0  0  0  0  0  0
  -29.5867  -17.3832   17.5901 C   0  0  0  0  0  0  0  0  0  0  0  0
  -29.7657  -20.4736   15.7958 C   0  0  2  0  0  0  0  0  0  0  0  0
  -29.1574  -23.1928   14.8601 C   0  0  0  0  0  0  0  0  0  0  0  0
  -27.3280  -23.3037   20.3404 C   0  0  0  0  0  0  0  0  0  0  0  0
  -27.5650  -20.7726   18.9490 C   0  0  0  0  0  0  0  0  0  0  0  0
  -19.1372  -32.0433   16.0987 C   0  0  0  0  0  0  0  0  0  0  0  0
  -19.7687  -29.6117   22.2273 C   0  0  0  0  0  0  0  0  0  0  0  0
  -18.4463  -29.7681   20.1072 C   0  0  0  0  0  0  0  0  0  0  0  0
  -18.8870  -31.8207   21.4545 C   0  0  0  0  0  0  0  0  0  0  0  0
  -22.9237  -32.3858   15.9539 C   0  0  0  0  0  0  0  0  0  0  0  0
  -28.0166  -25.7742   18.9612 C   0  0  0  0  0  0  0  0  0  1  0  0
  -20.7776  -30.7651   20.1494 C   0  0  1  0  0  0  0  0  0  0  0  0
  -20.5341  -32.2412   16.6663 C   0  0  2  0  0  0  0  0  0  0  0  0
  -19.4968  -30.4822   20.9842 C   0  0  0  0  0  0  0  0  0  0  0  0
  -26.0505  -11.4351   20.5043 N   0  0  0  0  0  0  0  0  0  0  0  0
  -26.6544  -11.0649   19.3622 N   0  0  0  0  0  0  0  0  0  0  0  0
  -23.0720  -30.7552   21.0765 N   0  0  0  0  0  0  0  0  0  0  0  0
  -30.0442  -12.7877   19.8160 N   0  0  0  0  0  0  0  0  0  0  0  0
  -29.7860  -15.1238   19.3659 N   0  0  0  0  0  0  0  0  0  0  0  0
  -26.2546  -10.0663   17.2519 N   0  0  0  0  0  0  0  0  0  0  0  0
  -22.1782  -10.0616   19.1958 N   0  0  0  0  0  0  0  0  0  0  0  0
  -24.1931  -31.2481   24.4277 N   0  0  0  0  0  0  0  0  0  0  0  0
  -20.5548  -31.6097   18.9809 N   0  0  0  0  0  0  0  0  0  0  0  0
  -30.1697  -18.1958   16.4786 N   0  3  1  0  0  0  0  0  0  0  0  0
  -21.5108  -32.1833   15.5422 N   0  3  0  0  0  0  0  0  0  0  0  0
  -23.3434   -9.4679   17.3120 O   0  0  0  0  0  0  0  0  0  0  0  0
  -23.5228  -29.3420   23.2700 O   0  0  0  0  0  0  0  0  0  0  0  0
  -21.6287  -32.5442   21.4673 O   0  0  0  0  0  0  0  0  0  0  0  0
  -21.3413  -30.0907   17.4153 O   0  0  0  0  0  0  0  0  0  0  0  0
  -31.8111  -14.2532   20.0443 O   0  0  0  0  0  0  0  0  0  0  0  0
  -20.9467  -12.0087   24.2685 O   0  0  0  0  0  0  0  0  0  0  0  0
  -28.4701  -20.8218   16.2727 O   0  0  0  0  0  0  0  0  0  0  0  0
  -26.6463  -26.1408   19.0530 O   0  0  0  0  0  0  0  0  0  1  0  0
  -16.1043   -9.4112   23.8129 F   0  0  0  0  0  0  0  0  0  0  0  0
  -20.0735  -10.2798   26.2411 F   0  0  0  0  0  0  0  0  0  0  0  0
  1  2  1  0  0  0  0
  1  5  2  0  0  0  0
  2  6  2  0  0  0  0
  3  8  2  0  0  0  0
  3 16  1  0  0  0  0
  4  9  1  0  0  0  0
  4 16  2  0  0  0  0
  5 18  1  0  0  0  0
  6 20  1  0  0  0  0
  7 10  2  0  0  0  0
  7 19  1  0  0  0  0
  8 26  1  0  0  0  0
  9 26  2  0  0  0  0
 10 27  1  0  0  0  0
 11 12  2  0  0  0  0
 11 28  1  0  0  0  0
 12 30  1  0  0  0  0
 13 21  1  0  0  0  0
 13 27  2  0  0  0  0
 14 22  1  0  0  0  0
 14 23  2  0  0  0  0
 15 30  2  0  0  0  0
 15 31  1  0  0  0  0
 16 32  1  0  0  0  0
 17 32  1  0  0  0  0
 17 33  2  0  0  0  0
 17 34  1  0  0  0  0
 18 20  2  0  0  0  0
 18 39  1  0  0  0  0
 19 21  2  0  0  0  0
 19 40  1  0  0  0  0
 20 55  1  0  0  0  0
 21 41  1  0  0  0  0
 22 24  2  0  0  0  0
 22 68  1  0  0  0  0
 23 29  1  0  0  0  0
 23 60  1  0  0  0  0
 24 25  1  0  0  0  0
 24 61  1  0  0  0  0
 25 29  2  0  0  0  0
 25 62  1  0  0  0  0
 26 88  1  0  0  0  0
 27 90  1  0  0  0  0
 28 31  2  0  0  0  0
 28 88  1  0  0  0  0
 29 89  1  0  0  0  0
 30 91  1  0  0  0  0
 31 92  1  0  0  0  0
 32 72  2  0  0  0  0
 33 73  1  0  0  0  0
 33 77  1  0  0  0  0
 34 78  1  0  0  0  0
 34 83  2  0  0  0  0
 35 56  1  0  0  0  0
 35 79  1  0  0  0  0
 35 84  2  0  0  0  0
 36 69  1  0  0  0  0
 36 74  1  0  0  0  0
 36 85  2  0  0  0  0
 37 70  1  0  0  0  0
 37 80  1  0  0  0  0
 37 86  2  0  0  0  0
 38 75  1  0  0  0  0
 38 76  1  0  0  0  0
 38 87  2  0  0  0  0
 39 42  1  0  0  0  0
 40 56  1  0  0  0  0
 41 74  1  0  0  0  0
 42 44  1  0  0  0  0
 43 45  1  0  0  0  0
 43 49  1  0  0  0  0
 44 55  1  0  0  0  0
 45 57  1  0  0  0  0
 46 50  1  0  0  0  0
 46 58  1  0  0  0  0
 47 51  1  0  0  0  0
 47 58  1  0  0  0  0
 48 53  1  0  0  0  0
 48 59  1  0  0  0  0
 49 75  1  0  0  0  0
 50 76  1  0  0  0  0
 51 76  1  0  0  0  0
 52 57  1  0  0  0  0
 52 75  1  0  0  0  0
 53 81  1  0  0  0  0
 54 59  1  0  0  0  0
 54 81  1  0  0  0  0
 55 79  1  0  0  0  0
 56 74  1  0  0  0  0
 57 73  1  0  0  0  0
 58 81  1  0  0  0  0
 59 89  1  0  0  0  0
 63 70  1  0  0  0  0
 64 71  1  0  0  0  0
 65 71  1  0  0  0  0
 66 71  1  0  0  0  0
 67 82  1  0  0  0  0
 68 90  1  0  0  0  0
 69 71  1  0  0  0  0
 69 80  1  0  0  0  0
 70 82  1  0  0  0  0
 72 73  1  0  0  0  0
M  CHG  2  81   1  82   1
M  ISO  4  38 100  68 101  76 100  90 101
M  END
> <Batch ID>
0162

> <Smiles>
CNC(C)C(=O)NC(C(=O)N1Cc2cc([101O:1][101CH2:1]c3cc(C)c(OC4CCN(C5CC[100N:0]([100C:0](=O)N6CCCC(n7nc(-c8ccc(Oc9ccc(F)cc9F)cc8)c(C(N)=O)c7N)C6)CC5)C4)c(C)c3C)ccc2CC1C(=O)NC1CCCc2ccccc21)C(C)(C)C

> <Shape>
0.216

> <Color>
0.083

> <Negative vol penalty>
0.000

$$$$

  -OEChem-04052322143D

 91100  0     1  0  0  0  0  0999 V2000
  -17.5100  -32.2023   23.6688 C   0  0  0  0  0  0  0  0  0  0  0  0
  -18.6501  -32.4569   22.9132 C   0  0  0  0  0  0  0  0  0  0  0  0
  -27.0666  -12.7355   21.4014 C   0  0  0  0  0  0  0  0  0  0  0  0
  -26.8688  -13.5254   19.1267 C   0  0  0  0  0  0  0  0  0  0  0  0
  -17.5002  -31.1467   24.5797 C   0  0  0  0  0  0  0  0  0  0  0  0
  -19.7814  -31.6568   23.0689 C   0  0  0  0  0  0  0  0  0  0  0  0
  -25.2911  -28.9933   19.3453 C   0  0  0  0  0  0  0  0  0  0  0  0
  -26.2810  -11.6272   21.0848 C   0  0  0  0  0  0  0  0  0  0  0  0
  -26.0833  -12.4170   18.8102 C   0  0  0  0  0  0  0  0  0  0  0  0
  -26.6824  -28.9142   19.3885 C   0  0  0  0  0  0  0  0  0  0  0  0
  -22.9991  -10.9412   20.6577 C   0  0  0  0  0  0  0  0  0  0  0  0
  -21.9870  -10.5889   21.5505 C   0  0  0  0  0  0  0  0  0  0  0  0
  -26.5235  -27.0696   20.9349 C   0  0  0  0  0  0  0  0  0  0  0  0
  -23.0138   -8.4240   21.8601 C   0  0  0  0  0  0  0  0  0  0  0  0
  -27.3605  -13.6846   20.4223 C   0  0  0  0  0  0  0  0  0  0  0  0
  -29.5728  -14.9319   20.6621 C   0  0  0  0  0  0  0  0  0  0  0  0
  -18.6287  -30.3273   24.7396 C   0  0  0  0  0  0  0  0  0  0  0  0
  -24.5044  -28.1168   20.1063 C   0  0  0  0  0  0  0  0  0  0  0  0
  -19.7872  -30.5901   23.9838 C   0  0  0  0  0  0  0  0  0  0  0  0
  -25.1224  -27.1380   20.8976 C   0  0  0  0  0  0  0  0  0  0  0  0
  -31.8826  -26.7701   17.6198 C   0  0  0  0  0  0  0  0  0  0  0  0
  -32.7013  -27.8880   17.7349 C   0  0  0  0  0  0  0  0  0  0  0  0
  -32.3156  -25.6707   16.8869 C   0  0  0  0  0  0  0  0  0  0  0  0
  -25.7894  -11.4680   19.7892 C   0  0  0  0  0  0  0  0  0  0  0  0
  -27.2988  -27.9541   20.1856 C   0  0  0  0  0  0  0  0  0  0  0  0
  -24.0185  -10.0349   20.3660 C   0  0  0  0  0  0  0  0  0  0  0  0
  -21.9944   -9.3303   22.1518 C   0  0  0  0  0  0  0  0  0  0  0  0
  -24.0259   -8.7763   20.9672 C   0  0  0  0  0  0  0  0  0  0  0  0
  -28.1714  -14.8300   20.7488 C   0  0  0  0  0  0  0  0  0  0  0  0
  -33.9341  -27.8568   17.1033 C   0  0  0  0  0  0  0  0  0  0  0  0
  -33.5656  -25.7388   16.2931 C   0  0  0  0  0  0  0  0  0  0  0  0
  -29.8507  -16.2101   21.0809 C   0  0  0  0  0  0  0  0  0  0  0  0
  -30.2996  -23.3022   18.6671 C   0  0  0  0  0  0  0  0  0  0  0  0
  -30.5371  -13.9582   20.2406 C   0  0  0  0  0  0  0  0  0  0  0  0
  -22.3968  -28.4637   22.4604 C   0  0  0  0  0  0  0  0  0  0  0  0
  -21.9814  -25.2750   22.0340 C   0  0  0  0  0  0  0  0  0  0  0  0
  -23.2610  -22.3077   20.9364 C   0  0  0  0  0  0  0  0  0  0  0  0
  -28.7677  -21.6847   21.0512 C   0  0  0  0  0  0  0  0  0  0  0  0
  -18.5869  -29.2274   25.7708 C   0  0  0  0  0  0  0  0  0  0  0  0
  -23.0045  -28.1978   20.0281 C   0  0  0  0  0  0  0  0  0  0  0  0
  -24.3227  -26.1602   21.7179 C   0  0  0  0  0  0  0  0  0  0  0  0
  -19.6989  -28.1948   25.6053 C   0  0  0  0  0  0  0  0  0  0  0  0
  -26.8962  -19.6613   23.3051 C   0  0  0  0  0  0  0  0  0  0  0  0
  -21.0411  -28.8860   25.3871 C   0  0  0  0  0  0  0  0  0  0  0  0
  -27.1717  -18.2336   22.8299 C   0  0  0  0  0  0  0  0  0  0  0  0
  -26.8015  -20.6373   22.1344 C   0  0  0  0  0  0  0  0  0  0  0  0
  -32.6650  -23.2126   18.5816 C   0  0  0  0  0  0  0  0  0  0  0  0
  -28.2326  -19.1917   20.7430 C   0  0  0  0  0  0  0  0  0  0  0  0
  -21.0256  -29.7292   24.1063 C   0  0  1  0  0  0  0  0  0  0  0  0
  -30.7808  -22.5856   19.9133 C   0  0  2  0  0  0  0  0  0  0  0  0
  -22.3091  -27.5890   21.2418 C   0  0  1  0  0  0  0  0  0  0  0  0
  -32.1918  -22.1211   19.5355 C   0  0  2  0  0  0  0  0  0  0  0  0
  -28.3922  -18.1807   21.8914 C   0  0  2  0  0  0  0  0  0  0  0  0
  -32.2649  -29.0823   18.5154 C   0  0  0  0  0  0  0  0  0  0  0  0
  -34.8574  -29.0277   17.1913 C   0  0  0  0  0  0  0  0  0  0  0  0
  -34.0845  -24.5902   15.4912 C   0  0  0  0  0  0  0  0  0  0  0  0
  -33.1087  -21.9449   20.7345 C   0  0  0  0  0  0  0  0  0  0  0  0
  -22.7019  -19.8681   20.7550 C   0  0  0  0  0  0  0  0  0  0  0  0
  -22.5146  -24.9332   25.0188 C   0  0  0  0  0  0  0  0  0  0  0  0
  -22.8847  -22.4924   24.6022 C   0  0  0  0  0  0  0  0  0  0  0  0
  -20.6608  -23.5148   24.1212 C   0  0  0  0  0  0  0  0  0  0  0  0
  -23.4685  -22.3608   17.9847 C   0  0  0  0  0  0  0  0  0  0  0  0
  -30.5295  -26.7506   18.2849 C   0  0  0  0  0  0  0  0  0  0  0  0
  -31.4605  -24.4562   16.7447 C   0  0  0  0  0  0  0  0  0  0  0  0
  -30.5896  -26.5215   19.7967 C   0  0  0  0  0  0  0  0  0  0  0  0
  -29.2248  -26.5887   20.4722 C   0  0  0  0  0  0  0  0  0  1  0  0
  -22.6158  -24.0287   22.6027 C   0  0  1  0  0  0  0  0  0  0  0  0
  -22.6706  -21.2194   20.0581 C   0  0  2  0  0  0  0  0  0  0  0  0
  -22.1844  -23.7618   24.0724 C   0  0  0  0  0  0  0  0  0  0  0  0
  -27.5989  -15.9538   21.1883 N   0  0  0  0  0  0  0  0  0  0  0  0
  -34.3890  -26.8073   16.3827 N   0  0  0  0  0  0  0  0  0  0  0  0
  -28.6458  -16.7740   21.3816 N   0  0  0  0  0  0  0  0  0  0  0  0
  -31.4422  -23.6532   17.9481 N   0  0  0  0  0  0  0  0  0  0  0  0
  -22.8594  -26.2836   21.6128 N   0  0  0  0  0  0  0  0  0  0  0  0
  -27.9902  -20.5383   21.2841 N   0  0  0  0  0  0  0  0  0  0  0  0
  -31.0057  -16.8954   21.2177 N   0  0  0  0  0  0  0  0  0  0  0  0
  -30.0804  -12.6944   19.8423 N   0  0  0  0  0  0  0  0  0  0  0  0
  -21.1711  -28.8822   22.9419 N   0  0  0  0  0  0  0  0  0  0  0  0
  -22.2909  -22.9474   21.6788 N   0  0  0  0  0  0  0  0  0  0  0  0
  -29.8805  -21.5022   20.2394 N   0  0  0  0  0  0  0  0  0  0  0  0
  -23.4364  -21.1093   18.7844 N   0  3  0  0  0  0  0  0  0  0  0  0
  -29.1349  -23.5580   18.3993 O   0  0  0  0  0  0  0  0  0  0  0  0
  -31.7687  -14.1962   20.2335 O   0  0  0  0  0  0  0  0  0  0  0  0
  -23.4952  -28.7374   22.9299 O   0  0  0  0  0  0  0  0  0  0  0  0
  -20.7522  -25.3478   21.9595 O   0  0  0  0  0  0  0  0  0  0  0  0
  -24.4631  -22.5623   20.9642 O   0  0  0  0  0  0  0  0  0  0  0  0
  -28.4936  -22.7880   21.5355 O   0  0  0  0  0  0  0  0  0  0  0  0
  -25.0230  -10.3865   19.4800 O   0  0  0  0  0  0  0  0  0  0  0  0
  -28.6566  -27.8751   20.2300 O   0  0  0  0  0  0  0  0  0  1  0  0
  -21.0233   -8.9927   23.0103 F   0  0  0  0  0  0  0  0  0  0  0  0
  -25.0033   -7.9018   20.6919 F   0  0  0  0  0  0  0  0  0  0  0  0
  1  2  1  0  0  0  0
  1  5  2  0  0  0  0
  2  6  2  0  0  0  0
  3  8  2  0  0  0  0
  3 15  1  0  0  0  0
  4  9  1  0  0  0  0
  4 15  2  0  0  0  0
  5 17  1  0  0  0  0
  6 19  1  0  0  0  0
  7 10  2  0  0  0  0
  7 18  1  0  0  0  0
  8 24  1  0  0  0  0
  9 24  2  0  0  0  0
 10 25  1  0  0  0  0
 11 12  2  0  0  0  0
 11 26  1  0  0  0  0
 12 27  1  0  0  0  0
 13 20  1  0  0  0  0
 13 25  2  0  0  0  0
 14 27  2  0  0  0  0
 14 28  1  0  0  0  0
 15 29  1  0  0  0  0
 16 29  1  0  0  0  0
 16 32  2  0  0  0  0
 16 34  1  0  0  0  0
 17 19  2  0  0  0  0
 17 39  1  0  0  0  0
 18 20  2  0  0  0  0
 18 40  1  0  0  0  0
 19 49  1  0  0  0  0
 20 41  1  0  0  0  0
 21 22  1  0  0  0  0
 21 23  2  0  0  0  0
 21 63  1  0  0  0  0
 22 30  2  0  0  0  0
 22 54  1  0  0  0  0
 23 31  1  0  0  0  0
 23 64  1  0  0  0  0
 24 88  1  0  0  0  0
 25 89  1  0  0  0  0
 26 28  2  0  0  0  0
 26 88  1  0  0  0  0
 27 90  1  0  0  0  0
 28 91  1  0  0  0  0
 29 70  2  0  0  0  0
 30 55  1  0  0  0  0
 30 71  1  0  0  0  0
 31 56  1  0  0  0  0
 31 71  2  0  0  0  0
 32 72  1  0  0  0  0
 32 76  1  0  0  0  0
 33 50  1  0  0  0  0
 33 73  1  0  0  0  0
 33 82  2  0  0  0  0
 34 77  1  0  0  0  0
 34 83  2  0  0  0  0
 35 51  1  0  0  0  0
 35 78  1  0  0  0  0
 35 84  2  0  0  0  0
 36 67  1  0  0  0  0
 36 74  1  0  0  0  0
 36 85  2  0  0  0  0
 37 68  1  0  0  0  0
 37 79  1  0  0  0  0
 37 86  2  0  0  0  0
 38 75  1  0  0  0  0
 38 80  1  0  0  0  0
 38 87  2  0  0  0  0
 39 42  1  0  0  0  0
 40 51  1  0  0  0  0
 41 74  1  0  0  0  0
 42 44  1  0  0  0  0
 43 45  1  0  0  0  0
 43 46  1  0  0  0  0
 44 49  1  0  0  0  0
 45 53  1  0  0  0  0
 46 75  1  0  0  0  0
 47 52  1  0  0  0  0
 47 73  1  0  0  0  0
 48 53  1  0  0  0  0
 48 75  1  0  0  0  0
 49 78  1  0  0  0  0
 50 52  1  0  0  0  0
 50 80  1  0  0  0  0
 51 74  1  0  0  0  0
 52 57  1  0  0  0  0
 53 72  1  0  0  0  0
 58 68  1  0  0  0  0
 59 69  1  0  0  0  0
 60 69  1  0  0  0  0
 61 69  1  0  0  0  0
 62 81  1  0  0  0  0
 63 65  1  0  0  0  0
 64 73  1  0  0  0  0
 65 66  1  0  0  0  0
 66 89  1  0  0  0  0
 67 69  1  0  0  0  0
 67 79  1  0  0  0  0
 68 81  1  0  0  0  0
 70 72  1  0  0  0  0
M  CHG  1  81   1
M  ISO  4  38 100  66 101  80 100  89 101
M  END
> <Batch ID>
0162

> <Smiles>
CNC(C)C(=O)NC(C(=O)N1Cc2cc([101O:1][101CH2:1]CCc3c(C)c(C)nc(C)c3CN3CC(C)C([100NH:0][100C:0](=O)N4CCCC(n5nc(-c6ccc(Oc7ccc(F)cc7F)cc6)c(C(N)=O)c5N)C4)C3=O)ccc2CC1C(=O)NC1CCCc2ccccc21)C(C)(C)C

> <Shape>
0.259

> <Color>
0.096

> <Negative vol penalty>
0.000

$$$$

  -OEChem-04052322143D

 87 96  0     1  0  0  0  0  0999 V2000
  -19.6247  -25.3306   24.9501 C   0  0  0  0  0  0  0  0  0  0  0  0
  -20.9804  -25.6136   24.8176 C   0  0  0  0  0  0  0  0  0  0  0  0
  -23.2401  -11.8613   24.8506 C   0  0  0  0  0  0  0  0  0  0  0  0
  -21.6719  -11.1631   23.1505 C   0  0  0  0  0  0  0  0  0  0  0  0
  -18.6923  -26.0095   24.1667 C   0  0  0  0  0  0  0  0  0  0  0  0
  -21.4045  -26.5748   23.9008 C   0  0  0  0  0  0  0  0  0  0  0  0
  -24.8922  -29.6970   25.8329 C   0  0  0  0  0  0  0  0  0  0  0  0
  -22.7129  -10.9125   25.7266 C   0  0  0  0  0  0  0  0  0  0  0  0
  -21.1447  -10.2142   24.0265 C   0  0  0  0  0  0  0  0  0  0  0  0
  -26.1978  -29.2162   25.9219 C   0  0  0  0  0  0  0  0  0  0  0  0
  -19.6261   -7.3626   25.6940 C   0  0  0  0  0  0  0  0  0  0  0  0
  -19.3892   -6.0810   25.1971 C   0  0  0  0  0  0  0  0  0  0  0  0
  -26.7711  -30.4182   23.9105 C   0  0  0  0  0  0  0  0  0  0  0  0
  -28.8507  -24.6931   22.9689 C   0  0  0  0  0  0  0  0  0  0  0  0
  -27.3506  -26.5820   22.8326 C   0  0  0  0  0  0  0  0  0  0  0  0
  -21.7344   -5.8552   24.6618 C   0  0  0  0  0  0  0  0  0  0  0  0
  -22.7196  -11.9866   23.5625 C   0  0  0  0  0  0  0  0  0  0  0  0
  -24.3253  -12.7898   21.7503 C   0  0  0  0  0  0  0  0  0  0  0  0
  -19.1044  -26.9864   23.2467 C   0  0  0  0  0  0  0  0  0  0  0  0
  -24.5127  -30.5346   24.7743 C   0  0  0  0  0  0  0  0  0  0  0  0
  -20.4768  -27.2664   23.1034 C   0  0  0  0  0  0  0  0  0  0  0  0
  -25.4607  -30.9103   23.8118 C   0  0  0  0  0  0  0  0  0  0  0  0
  -26.5523  -24.3646   22.3007 C   0  0  0  0  0  0  0  0  0  0  0  0
  -28.6168  -26.0619   23.1007 C   0  0  0  0  0  0  0  0  0  0  0  0
  -27.8185  -23.8445   22.5688 C   0  0  0  0  0  0  0  0  0  0  0  0
  -26.3184  -25.7334   22.4325 C   0  0  0  0  0  0  0  0  0  0  0  0
  -21.6652  -10.0890   25.3146 C   0  0  0  0  0  0  0  0  0  0  0  0
  -27.1368  -29.5744   24.9590 C   0  0  0  0  0  0  0  0  0  0  0  0
  -20.9170   -7.8906   25.6747 C   0  0  0  0  0  0  0  0  0  0  0  0
  -20.4434   -5.3272   24.6810 C   0  0  0  0  0  0  0  0  0  0  0  0
  -21.9712   -7.1368   25.1587 C   0  0  0  0  0  0  0  0  0  0  0  0
  -23.2634  -12.9669   22.6573 C   0  0  0  0  0  0  0  0  0  0  0  0
  -24.4539  -14.0084   21.1299 C   0  0  0  0  0  0  0  0  0  0  0  0
  -25.1240  -11.6275   21.4915 C   0  0  0  0  0  0  0  0  0  0  0  0
  -22.4118  -30.3341   22.3974 C   0  0  0  0  0  0  0  0  0  0  0  0
  -23.3150  -33.4028   21.8593 C   0  0  0  0  0  0  0  0  0  0  0  0
  -25.6911  -35.8273   22.2092 C   0  0  0  0  0  0  0  0  0  0  0  0
  -24.6089  -19.4853   21.1572 C   0  0  0  0  0  0  0  0  0  0  0  0
  -18.0635  -27.6602   22.3882 C   0  0  0  0  0  0  0  0  0  0  0  0
  -23.1073  -31.0664   24.7074 C   0  0  0  0  0  0  0  0  0  0  0  0
  -25.1091  -31.8234   22.6667 C   0  0  0  0  0  0  0  0  0  0  0  0
  -18.5651  -28.9311   21.7073 C   0  0  0  0  0  0  0  0  0  0  0  0
  -21.4545  -18.0720   21.1798 C   0  0  0  0  0  0  0  0  0  0  0  0
  -19.9330  -28.6938   21.0755 C   0  0  0  0  0  0  0  0  0  0  0  0
  -21.7186  -16.5988   21.4901 C   0  0  0  0  0  0  0  0  0  0  0  0
  -25.7389  -22.7478   20.5270 C   0  0  0  0  0  0  0  0  0  0  0  0
  -25.0852  -22.4022   22.9484 C   0  0  0  0  0  0  0  0  0  0  0  0
  -22.3460  -18.9757   22.0236 C   0  0  0  0  0  0  0  0  0  0  0  0
  -24.6163  -21.7930   20.1107 C   0  0  0  0  0  0  0  0  0  0  0  0
  -23.9656  -21.4797   22.4752 C   0  0  0  0  0  0  0  0  0  0  0  0
  -24.0858  -17.2245   22.1797 C   0  0  0  0  0  0  0  0  0  0  0  0
  -25.4297  -23.4413   21.8661 C   0  0  0  0  0  0  0  0  0  0  0  0
  -20.9740  -28.3201   22.1376 C   0  0  1  0  0  0  0  0  0  0  0  0
  -22.6982  -31.4986   23.3027 C   0  0  1  0  0  0  0  0  0  0  0  0
  -23.2136  -16.2629   21.3471 C   0  0  1  0  0  0  0  0  0  0  0  0
  -28.0949  -22.3824   22.4364 C   0  0  0  0  0  0  0  0  0  0  0  0
  -24.9715  -26.3153   22.1515 C   0  0  0  0  0  0  0  0  0  0  0  0
  -26.1592  -38.2245   21.6332 C   0  0  0  0  0  0  0  0  0  0  0  0
  -23.9008  -32.5931   18.9764 C   0  0  0  0  0  0  0  0  0  0  0  0
  -25.2237  -34.7039   18.7259 C   0  0  0  0  0  0  0  0  0  0  0  0
  -22.7831  -34.8160   19.2291 C   0  0  0  0  0  0  0  0  0  0  0  0
  -25.8991  -36.5929   25.0604 C   0  0  0  0  0  0  0  0  0  0  0  0
  -29.7205  -26.9693   23.5278 C   0  0  0  0  0  0  0  0  0  0  0  0
  -29.8267  -27.1638   25.0487 C   0  0  0  0  0  0  0  0  0  0  0  0
  -28.5970  -27.8307   25.6540 C   0  0  0  0  0  0  0  0  0  1  0  0
  -24.3881  -34.0726   21.0355 C   0  0  1  0  0  0  0  0  0  0  0  0
  -25.5981  -37.2691   22.6749 C   0  0  2  0  0  0  0  0  0  0  0  0
  -24.0804  -34.0276   19.5121 C   0  0  0  0  0  0  0  0  0  0  0  0
  -22.7537  -14.2010   22.6199 N   0  0  0  0  0  0  0  0  0  0  0  0
  -23.4986  -14.8103   21.6819 N   0  0  0  0  0  0  0  0  0  0  0  0
  -23.7206  -32.3121   22.6414 N   0  0  0  0  0  0  0  0  0  0  0  0
  -23.7566  -18.6230   21.8631 N   0  0  0  0  0  0  0  0  0  0  0  0
  -24.3037  -20.8541   21.1971 N   0  0  0  0  0  0  0  0  0  0  0  0
  -25.2898  -14.4616   20.1717 N   0  0  0  0  0  0  0  0  0  0  0  0
  -24.8580  -10.4588   22.2179 N   0  0  0  0  0  0  0  0  0  0  0  0
  -21.4102  -29.4991   22.8547 N   0  0  0  0  0  0  0  0  0  0  0  0
  -24.5362  -35.4197   21.5757 N   0  0  0  0  0  0  0  0  0  0  0  0
  -26.3607  -37.4545   23.9418 N   0  3  0  0  0  0  0  0  0  0  0  0
  -26.0569  -11.6302   20.6530 O   0  0  0  0  0  0  0  0  0  0  0  0
  -23.0511  -30.2036   21.3601 O   0  0  0  0  0  0  0  0  0  0  0  0
  -22.1608  -33.8360   21.8162 O   0  0  0  0  0  0  0  0  0  0  0  0
  -26.6899  -35.1333   22.3861 O   0  0  0  0  0  0  0  0  0  0  0  0
  -25.5856  -19.0583   20.5288 O   0  0  0  0  0  0  0  0  0  0  0  0
  -21.1507   -9.1629   26.1691 O   0  0  0  0  0  0  0  0  0  0  0  0
  -28.4207  -29.1027   25.0437 O   0  0  0  0  0  0  0  0  0  1  0  0
  -20.2161   -4.0959   24.2053 F   0  0  0  0  0  0  0  0  0  0  0  0
  -23.2138   -7.6382   25.1386 F   0  0  0  0  0  0  0  0  0  0  0  0
  1  2  1  0  0  0  0
  1  5  2  0  0  0  0
  2  6  2  0  0  0  0
  3  8  2  0  0  0  0
  3 17  1  0  0  0  0
  4  9  1  0  0  0  0
  4 17  2  0  0  0  0
  5 19  1  0  0  0  0
  6 21  1  0  0  0  0
  7 10  2  0  0  0  0
  7 20  1  0  0  0  0
  8 27  1  0  0  0  0
  9 27  2  0  0  0  0
 10 28  1  0  0  0  0
 11 12  2  0  0  0  0
 11 29  1  0  0  0  0
 12 30  1  0  0  0  0
 13 22  1  0  0  0  0
 13 28  2  0  0  0  0
 14 24  1  0  0  0  0
 14 25  2  0  0  0  0
 15 24  2  0  0  0  0
 15 26  1  0  0  0  0
 16 30  2  0  0  0  0
 16 31  1  0  0  0  0
 17 32  1  0  0  0  0
 18 32  1  0  0  0  0
 18 33  2  0  0  0  0
 18 34  1  0  0  0  0
 19 21  2  0  0  0  0
 19 39  1  0  0  0  0
 20 22  2  0  0  0  0
 20 40  1  0  0  0  0
 21 53  1  0  0  0  0
 22 41  1  0  0  0  0
 23 25  1  0  0  0  0
 23 26  2  0  0  0  0
 23 52  1  0  0  0  0
 24 63  1  0  0  0  0
 25 56  1  0  0  0  0
 26 57  1  0  0  0  0
 27 84  1  0  0  0  0
 28 85  1  0  0  0  0
 29 31  2  0  0  0  0
 29 84  1  0  0  0  0
 30 86  1  0  0  0  0
 31 87  1  0  0  0  0
 32 69  2  0  0  0  0
 33 70  1  0  0  0  0
 33 74  1  0  0  0  0
 34 75  1  0  0  0  0
 34 79  2  0  0  0  0
 35 54  1  0  0  0  0
 35 76  1  0  0  0  0
 35 80  2  0  0  0  0
 36 66  1  0  0  0  0
 36 71  1  0  0  0  0
 36 81  2  0  0  0  0
 37 67  1  0  0  0  0
 37 77  1  0  0  0  0
 37 82  2  0  0  0  0
 38 72  1  0  0  0  0
 38 73  1  0  0  0  0
 38 83  2  0  0  0  0
 39 42  1  0  0  0  0
 40 54  1  0  0  0  0
 41 71  1  0  0  0  0
 42 44  1  0  0  0  0
 43 45  1  0  0  0  0
 43 48  1  0  0  0  0
 44 53  1  0  0  0  0
 45 55  1  0  0  0  0
 46 49  1  0  0  0  0
 46 52  1  0  0  0  0
 47 50  1  0  0  0  0
 47 52  1  0  0  0  0
 48 72  1  0  0  0  0
 49 73  1  0  0  0  0
 50 73  1  0  0  0  0
 51 55  1  0  0  0  0
 51 72  1  0  0  0  0
 53 76  1  0  0  0  0
 54 71  1  0  0  0  0
 55 70  1  0  0  0  0
 58 67  1  0  0  0  0
 59 68  1  0  0  0  0
 60 68  1  0  0  0  0
 61 68  1  0  0  0  0
 62 78  1  0  0  0  0
 63 64  1  0  0  0  0
 64 65  1  0  0  0  0
 65 85  1  0  0  0  0
 66 68  1  0  0  0  0
 66 77  1  0  0  0  0
 67 78  1  0  0  0  0
 69 70  1  0  0  0  0
M  CHG  1  78   1
M  ISO  4  38 100  65 101  73 100  85 101
M  END
> <Batch ID>
0162

> <Smiles>
CNC(C)C(=O)NC(C(=O)N1Cc2cc([101O:1][101CH2:1]CCc3cc(C)c(C4CC[100N:0]([100C:0](=O)N5CCCC(n6nc(-c7ccc(Oc8ccc(F)cc8F)cc7)c(C(N)=O)c6N)C5)CC4)c(C)c3)ccc2CC1C(=O)NC1CCCc2ccccc21)C(C)(C)C

> <Shape>
0.187

> <Color>
0.139

> <Negative vol penalty>
0.000

$$$$
